2f4s_lig
 OpenBabel11021811433D
libRbt.so/2013.1/901 2013/11/27
 22 23  0  0  0  0  0  0  0  0999 V2000
   26.3391   17.2581   35.4908 N   0  0  0  0  0  0  0  0  0  0  0  0
   23.7316   15.1170   39.2047 N   0  0  0  0  0  0  0  0  0  0  0  0
   23.0680   11.0845   39.1893 N   0  0  0  0  0  0  0  0  0  0  0  0
   21.9748   15.1306   34.5245 O   0  0  0  0  0  0  0  0  0  0  0  0
   22.7260   15.8614   35.5367 C   0  0  2  0  0  0  0  0  0  0  0  0
   18.5810   15.2682   36.8413 N   0  0  0  0  0  0  0  0  0  0  0  0
   24.0948   16.9460   33.8012 O   0  0  0  0  0  0  0  0  0  0  0  0
   24.1526   16.1828   35.0121 C   0  0  1  0  0  0  0  0  0  0  0  0
   21.5143   14.8034   37.3862 O   0  0  0  0  0  0  0  0  0  0  0  0
   24.9561   16.9741   36.0369 C   0  0  1  0  0  0  0  0  0  0  0  0
   21.1029   12.5302   37.4791 O   0  0  0  0  0  0  0  0  0  0  0  0
   25.0533   16.1594   37.3710 C   0  0  0  0  0  0  0  0  0  0  0  0
   19.5285   12.5088   40.7967 O   0  0  0  0  0  0  0  0  0  0  0  0
   23.5926   15.8832   37.8974 C   0  0  1  0  0  0  0  0  0  0  0  0
   17.6775   14.0553   39.2827 O   0  0  0  0  0  0  0  0  0  0  0  0
   22.8195   15.0291   36.8762 C   0  0  2  0  0  0  0  0  0  0  0  0
   20.6422   13.8140   36.8692 C   0  0  1  0  0  0  0  0  0  0  0  0
   21.0466   12.4432   38.9658 C   0  0  2  0  0  0  0  0  0  0  0  0
   21.5834   11.0727   39.3897 C   0  0  0  0  0  0  0  0  0  0  0  0
   19.6029   12.5865   39.3930 C   0  0  2  0  0  0  0  0  0  0  0  0
   19.0476   13.9173   38.8887 C   0  0  1  0  0  0  0  0  0  0  0  0
   19.1552   13.9689   37.3448 C   0  0  1  0  0  0  0  0  0  0  0  0
  5  4  1  6  0  0  0
  5  8  1  0  0  0  0
  5 16  1  0  0  0  0
  8  7  1  6  0  0  0
  8 10  1  0  0  0  0
 10  1  1  6  0  0  0
 10 12  1  0  0  0  0
 11 18  1  0  0  0  0
 12 14  1  0  0  0  0
 14  2  1  1  0  0  0
 14 16  1  0  0  0  0
 16  9  1  1  0  0  0
 17  9  1  1  0  0  0
 17 11  1  0  0  0  0
 17 22  1  0  0  0  0
 18 19  1  6  0  0  0
 18 20  1  0  0  0  0
 19  3  1  0  0  0  0
 20 13  1  1  0  0  0
 20 21  1  0  0  0  0
 21 15  1  6  0  0  0
 21 22  1  0  0  0  0
 22  6  1  1  0  0  0
M  END
>  <CHROM.1>
78.28549148,79.82306113,72.83499043,21.87742600,14.46970476,37.43174584,-0.81768929
0.07198949,2.29497664

>  <Name>
2f4s_lig

>  <RI>
0

>  <Rbt.Current_Directory>
/home/itssahil/PROJECTS/Mol_Feturizer/New_Systems/rnas/2f4s

>  <Rbt.Executable>
rbdock ($Id: //depot/dev/client3/rdock/2013.1/src/exe/rbdock.cxx#4 $)

>  <Rbt.Library>
libRbt.so (2013.1, Build901 2013/11/27)

>  <Rbt.Parameter_File>
/export/apps/rDock/src/rDock_2013.1_src/data/scripts/dock_solv.prm

>  <Rbt.Receptor>
prm/pocket_docking_2.prm

>  <SCORE>
-13.2681

>  <SCORE.INTER>
-14.5581

>  <SCORE.INTER.CONST>
1

>  <SCORE.INTER.POLAR>
-0.979796

>  <SCORE.INTER.ROT>
3

>  <SCORE.INTER.SOLV>
19.6635

>  <SCORE.INTER.VDW>
-18.5939

>  <SCORE.INTER.norm>
-0.661733

>  <SCORE.INTRA>
1.29004

>  <SCORE.INTRA.DIHEDRAL>
2.29044

>  <SCORE.INTRA.DIHEDRAL.0>
1.67653

>  <SCORE.INTRA.POLAR>
0

>  <SCORE.INTRA.POLAR.0>
0

>  <SCORE.INTRA.REPUL>
0

>  <SCORE.INTRA.REPUL.0>
0

>  <SCORE.INTRA.SOLV>
0.749286

>  <SCORE.INTRA.SOLV.lig_0>
-76.6701

>  <SCORE.INTRA.VDW>
-0.229817

>  <SCORE.INTRA.VDW.0>
-1.53273

>  <SCORE.INTRA.norm>
0.0586384

>  <SCORE.RESTR>
0

>  <SCORE.RESTR.CAVITY>
0

>  <SCORE.RESTR.norm>
0

>  <SCORE.SYSTEM>
0

>  <SCORE.SYSTEM.CONST>
0

>  <SCORE.SYSTEM.DIHEDRAL>
0

>  <SCORE.SYSTEM.SOLV>
0

>  <SCORE.SYSTEM.norm>
0

>  <SCORE.heavy>
22

>  <SCORE.norm>
-0.603094

>  <RMSD>
0.484

$$$$
2f4s_lig
 OpenBabel11021811433D
libRbt.so/2013.1/901 2013/11/27
 22 23  0  0  0  0  0  0  0  0999 V2000
   26.3745   17.2263   35.6040 N   0  0  0  0  0  0  0  0  0  0  0  0
   23.7199   15.0186   39.2447 N   0  0  0  0  0  0  0  0  0  0  0  0
   23.0205   11.0542   39.2075 N   0  0  0  0  0  0  0  0  0  0  0  0
   21.9786   15.2020   34.5623 O   0  0  0  0  0  0  0  0  0  0  0  0
   22.7385   15.8895   35.5980 C   0  0  2  0  0  0  0  0  0  0  0  0
   18.5769   15.2924   36.8578 N   0  0  0  0  0  0  0  0  0  0  0  0
   24.1307   17.0026   33.8997 O   0  0  0  0  0  0  0  0  0  0  0  0
   24.1719   16.2026   35.0872 C   0  0  1  0  0  0  0  0  0  0  0  0
   21.5035   14.7968   37.4116 O   0  0  0  0  0  0  0  0  0  0  0  0
   24.9852   16.9493   36.1375 C   0  0  1  0  0  0  0  0  0  0  0  0
   21.0727   12.5263   37.4761 O   0  0  0  0  0  0  0  0  0  0  0  0
   25.0646   16.0934   37.4468 C   0  0  0  0  0  0  0  0  0  0  0  0
   19.4817   12.4796   40.7855 O   0  0  0  0  0  0  0  0  0  0  0  0
   23.5978   15.8259   37.9607 C   0  0  1  0  0  0  0  0  0  0  0  0
   17.6512   14.0590   39.2805 O   0  0  0  0  0  0  0  0  0  0  0  0
   22.8139   15.0159   36.9122 C   0  0  2  0  0  0  0  0  0  0  0  0
   20.6258   13.8208   36.8789 C   0  0  1  0  0  0  0  0  0  0  0  0
   21.0083   12.4225   38.9614 C   0  0  2  0  0  0  0  0  0  0  0  0
   21.5315   11.0427   39.3720 C   0  0  0  0  0  0  0  0  0  0  0  0
   19.5637   12.5729   39.3832 C   0  0  2  0  0  0  0  0  0  0  0  0
   19.0221   13.9141   38.8917 C   0  0  1  0  0  0  0  0  0  0  0  0
   19.1378   13.9827   37.3490 C   0  0  1  0  0  0  0  0  0  0  0  0
  5  4  1  6  0  0  0
  5  8  1  0  0  0  0
  5 16  1  0  0  0  0
  8  7  1  6  0  0  0
  8 10  1  0  0  0  0
 10  1  1  6  0  0  0
 10 12  1  0  0  0  0
 11 18  1  0  0  0  0
 12 14  1  0  0  0  0
 14  2  1  1  0  0  0
 14 16  1  0  0  0  0
 16  9  1  1  0  0  0
 17  9  1  1  0  0  0
 17 11  1  0  0  0  0
 17 22  1  0  0  0  0
 18 19  1  6  0  0  0
 18 20  1  0  0  0  0
 19  3  1  0  0  0  0
 20 13  1  1  0  0  0
 20 21  1  0  0  0  0
 21 15  1  6  0  0  0
 21 22  1  0  0  0  0
 22  6  1  1  0  0  0
M  END
>  <CHROM.1>
79.50756500,79.71026184,74.04987102,21.86727976,14.46126354,37.46457439,-0.80670353
0.06945356,2.30920843

>  <Name>
2f4s_lig

>  <RI>
0

>  <Rbt.Current_Directory>
/home/itssahil/PROJECTS/Mol_Feturizer/New_Systems/rnas/2f4s

>  <Rbt.Executable>
rbdock ($Id: //depot/dev/client3/rdock/2013.1/src/exe/rbdock.cxx#4 $)

>  <Rbt.Library>
libRbt.so (2013.1, Build901 2013/11/27)

>  <Rbt.Parameter_File>
/export/apps/rDock/src/rDock_2013.1_src/data/scripts/dock_solv.prm

>  <Rbt.Receptor>
prm/pocket_docking_2.prm

>  <SCORE>
-13.2875

>  <SCORE.INTER>
-14.7565

>  <SCORE.INTER.CONST>
1

>  <SCORE.INTER.POLAR>
-0.979796

>  <SCORE.INTER.ROT>
3

>  <SCORE.INTER.SOLV>
19.4814

>  <SCORE.INTER.VDW>
-18.6655

>  <SCORE.INTER.norm>
-0.67075

>  <SCORE.INTRA>
1.46904

>  <SCORE.INTRA.DIHEDRAL>
2.57232

>  <SCORE.INTRA.DIHEDRAL.0>
1.67653

>  <SCORE.INTRA.POLAR>
0

>  <SCORE.INTRA.POLAR.0>
0

>  <SCORE.INTRA.REPUL>
0

>  <SCORE.INTRA.REPUL.0>
0

>  <SCORE.INTRA.SOLV>
0.885667

>  <SCORE.INTRA.SOLV.lig_0>
-76.6701

>  <SCORE.INTRA.VDW>
-0.259952

>  <SCORE.INTRA.VDW.0>
-1.53273

>  <SCORE.INTRA.norm>
0.0667746

>  <SCORE.RESTR>
0

>  <SCORE.RESTR.CAVITY>
0

>  <SCORE.RESTR.norm>
0

>  <SCORE.SYSTEM>
0

>  <SCORE.SYSTEM.CONST>
0

>  <SCORE.SYSTEM.DIHEDRAL>
0

>  <SCORE.SYSTEM.SOLV>
0

>  <SCORE.SYSTEM.norm>
0

>  <SCORE.heavy>
22

>  <SCORE.norm>
-0.603975

>  <RMSD>
0.511

$$$$
2f4s_lig
 OpenBabel11021811433D
libRbt.so/2013.1/901 2013/11/27
 22 23  0  0  0  0  0  0  0  0999 V2000
   26.4375   17.2256   35.6762 N   0  0  0  0  0  0  0  0  0  0  0  0
   23.7453   15.0146   39.2873 N   0  0  0  0  0  0  0  0  0  0  0  0
   23.0610   11.0559   39.1990 N   0  0  0  0  0  0  0  0  0  0  0  0
   22.0361   15.2344   34.5946 O   0  0  0  0  0  0  0  0  0  0  0  0
   22.7935   15.9115   35.6391 C   0  0  2  0  0  0  0  0  0  0  0  0
   18.6120   15.3209   36.8987 N   0  0  0  0  0  0  0  0  0  0  0  0
   24.2037   17.0252   33.9561 O   0  0  0  0  0  0  0  0  0  0  0  0
   24.2321   16.2185   35.1394 C   0  0  1  0  0  0  0  0  0  0  0  0
   21.5397   14.8166   37.4385 O   0  0  0  0  0  0  0  0  0  0  0  0
   25.0430   16.9543   36.1991 C   0  0  1  0  0  0  0  0  0  0  0  0
   21.1078   12.5456   37.4751 O   0  0  0  0  0  0  0  0  0  0  0  0
   25.1085   16.0908   37.5041 C   0  0  0  0  0  0  0  0  0  0  0  0
   19.5254   12.4576   40.7877 O   0  0  0  0  0  0  0  0  0  0  0  0
   23.6367   15.8297   38.0069 C   0  0  1  0  0  0  0  0  0  0  0  0
   17.6919   14.0571   39.3078 O   0  0  0  0  0  0  0  0  0  0  0  0
   22.8547   15.0303   36.9488 C   0  0  2  0  0  0  0  0  0  0  0  0
   20.6601   13.8480   36.8956 C   0  0  1  0  0  0  0  0  0  0  0  0
   21.0472   12.4230   38.9591 C   0  0  2  0  0  0  0  0  0  0  0  0
   21.5707   11.0377   39.3507 C   0  0  0  0  0  0  0  0  0  0  0  0
   19.6038   12.5687   39.3865 C   0  0  2  0  0  0  0  0  0  0  0  0
   19.0617   13.9164   38.9136 C   0  0  1  0  0  0  0  0  0  0  0  0
   19.1734   14.0046   37.3716 C   0  0  1  0  0  0  0  0  0  0  0  0
  5  4  1  6  0  0  0
  5  8  1  0  0  0  0
  5 16  1  0  0  0  0
  8  7  1  6  0  0  0
  8 10  1  0  0  0  0
 10  1  1  6  0  0  0
 10 12  1  0  0  0  0
 11 18  1  0  0  0  0
 12 14  1  0  0  0  0
 14  2  1  1  0  0  0
 14 16  1  0  0  0  0
 16  9  1  1  0  0  0
 17  9  1  1  0  0  0
 17 11  1  0  0  0  0
 17 22  1  0  0  0  0
 18 19  1  6  0  0  0
 18 20  1  0  0  0  0
 19  3  1  0  0  0  0
 20 13  1  1  0  0  0
 20 21  1  0  0  0  0
 21 15  1  6  0  0  0
 21 22  1  0  0  0  0
 22  6  1  1  0  0  0
M  END
>  <CHROM.1>
79.58114502,78.92753435,74.75561937,21.91171697,14.47025318,37.49285803,-0.80110802
0.06792889,2.31766432

>  <Name>
2f4s_lig

>  <RI>
0

>  <Rbt.Current_Directory>
/home/itssahil/PROJECTS/Mol_Feturizer/New_Systems/rnas/2f4s

>  <Rbt.Executable>
rbdock ($Id: //depot/dev/client3/rdock/2013.1/src/exe/rbdock.cxx#4 $)

>  <Rbt.Library>
libRbt.so (2013.1, Build901 2013/11/27)

>  <Rbt.Parameter_File>
/export/apps/rDock/src/rDock_2013.1_src/data/scripts/dock_solv.prm

>  <Rbt.Receptor>
prm/pocket_docking_2.prm

>  <SCORE>
-13.2817

>  <SCORE.INTER>
-14.7249

>  <SCORE.INTER.CONST>
1

>  <SCORE.INTER.POLAR>
-0.979796

>  <SCORE.INTER.ROT>
3

>  <SCORE.INTER.SOLV>
19.4925

>  <SCORE.INTER.VDW>
-18.6481

>  <SCORE.INTER.norm>
-0.669312

>  <SCORE.INTRA>
1.44321

>  <SCORE.INTRA.DIHEDRAL>
2.52999

>  <SCORE.INTRA.DIHEDRAL.0>
1.67653

>  <SCORE.INTRA.POLAR>
0

>  <SCORE.INTRA.POLAR.0>
0

>  <SCORE.INTRA.REPUL>
0

>  <SCORE.INTRA.REPUL.0>
0

>  <SCORE.INTRA.SOLV>
0.881098

>  <SCORE.INTRA.SOLV.lig_0>
-76.6701

>  <SCORE.INTRA.VDW>
-0.262335

>  <SCORE.INTRA.VDW.0>
-1.53273

>  <SCORE.INTRA.norm>
0.0656003

>  <SCORE.RESTR>
0

>  <SCORE.RESTR.CAVITY>
0

>  <SCORE.RESTR.norm>
0

>  <SCORE.SYSTEM>
0

>  <SCORE.SYSTEM.CONST>
0

>  <SCORE.SYSTEM.DIHEDRAL>
0

>  <SCORE.SYSTEM.SOLV>
0

>  <SCORE.SYSTEM.norm>
0

>  <SCORE.heavy>
22

>  <SCORE.norm>
-0.603712

>  <RMSD>
0.512

$$$$
2f4s_lig
 OpenBabel11021811433D
libRbt.so/2013.1/901 2013/11/27
 22 23  0  0  0  0  0  0  0  0999 V2000
   26.3911   17.2358   35.6443 N   0  0  0  0  0  0  0  0  0  0  0  0
   23.7430   15.0254   39.2881 N   0  0  0  0  0  0  0  0  0  0  0  0
   23.0241   11.0286   39.1980 N   0  0  0  0  0  0  0  0  0  0  0  0
   21.9986   15.2020   34.6066 O   0  0  0  0  0  0  0  0  0  0  0  0
   22.7579   15.8917   35.6413 C   0  0  2  0  0  0  0  0  0  0  0  0
   18.6018   15.3060   36.9016 N   0  0  0  0  0  0  0  0  0  0  0  0
   24.1469   17.0064   33.9414 O   0  0  0  0  0  0  0  0  0  0  0  0
   24.1903   16.2073   35.1295 C   0  0  1  0  0  0  0  0  0  0  0  0
   21.5260   14.7979   37.4564 O   0  0  0  0  0  0  0  0  0  0  0  0
   25.0027   16.9564   36.1788 C   0  0  1  0  0  0  0  0  0  0  0  0
   21.0877   12.5284   37.5084 O   0  0  0  0  0  0  0  0  0  0  0  0
   25.0845   16.1016   37.4886 C   0  0  0  0  0  0  0  0  0  0  0  0
   19.4923   12.4696   40.8155 O   0  0  0  0  0  0  0  0  0  0  0  0
   23.6186   15.8316   38.0036 C   0  0  1  0  0  0  0  0  0  0  0  0
   17.6689   14.0629   39.3166 O   0  0  0  0  0  0  0  0  0  0  0  0
   22.8357   15.0192   36.9561 C   0  0  2  0  0  0  0  0  0  0  0  0
   20.6458   13.8276   36.9175 C   0  0  1  0  0  0  0  0  0  0  0  0
   21.0210   12.4171   38.9930 C   0  0  2  0  0  0  0  0  0  0  0  0
   21.5392   11.0334   39.3970 C   0  0  0  0  0  0  0  0  0  0  0  0
   19.5764   12.5700   39.4138 C   0  0  2  0  0  0  0  0  0  0  0  0
   19.0398   13.9156   38.9287 C   0  0  1  0  0  0  0  0  0  0  0  0
   19.1577   13.9919   37.3865 C   0  0  1  0  0  0  0  0  0  0  0  0
  5  4  1  6  0  0  0
  5  8  1  0  0  0  0
  5 16  1  0  0  0  0
  8  7  1  6  0  0  0
  8 10  1  0  0  0  0
 10  1  1  6  0  0  0
 10 12  1  0  0  0  0
 11 18  1  0  0  0  0
 12 14  1  0  0  0  0
 14  2  1  1  0  0  0
 14 16  1  0  0  0  0
 16  9  1  1  0  0  0
 17  9  1  1  0  0  0
 17 11  1  0  0  0  0
 17 22  1  0  0  0  0
 18 19  1  6  0  0  0
 18 20  1  0  0  0  0
 19  3  1  0  0  0  0
 20 13  1  1  0  0  0
 20 21  1  0  0  0  0
 21 15  1  6  0  0  0
 21 22  1  0  0  0  0
 22  6  1  1  0  0  0
M  END
>  <CHROM.1>
78.94918845,79.98877994,72.49791630,21.88446433,14.46280570,37.50106714,-0.80624387
0.06673438,2.31507662

>  <Name>
2f4s_lig

>  <RI>
0

>  <Rbt.Current_Directory>
/home/itssahil/PROJECTS/Mol_Feturizer/New_Systems/rnas/2f4s

>  <Rbt.Executable>
rbdock ($Id: //depot/dev/client3/rdock/2013.1/src/exe/rbdock.cxx#4 $)

>  <Rbt.Library>
libRbt.so (2013.1, Build901 2013/11/27)

>  <Rbt.Parameter_File>
/export/apps/rDock/src/rDock_2013.1_src/data/scripts/dock_solv.prm

>  <Rbt.Receptor>
prm/pocket_docking_2.prm

>  <SCORE>
-13.3135

>  <SCORE.INTER>
-14.6767

>  <SCORE.INTER.CONST>
1

>  <SCORE.INTER.POLAR>
-0.979796

>  <SCORE.INTER.ROT>
3

>  <SCORE.INTER.SOLV>
19.5324

>  <SCORE.INTER.VDW>
-18.6292

>  <SCORE.INTER.norm>
-0.667122

>  <SCORE.INTRA>
1.36313

>  <SCORE.INTRA.DIHEDRAL>
2.39034

>  <SCORE.INTRA.DIHEDRAL.0>
1.67653

>  <SCORE.INTRA.POLAR>
0

>  <SCORE.INTRA.POLAR.0>
0

>  <SCORE.INTRA.REPUL>
0

>  <SCORE.INTRA.REPUL.0>
0

>  <SCORE.INTRA.SOLV>
0.825871

>  <SCORE.INTRA.SOLV.lig_0>
-76.6701

>  <SCORE.INTRA.VDW>
-0.244973

>  <SCORE.INTRA.VDW.0>
-1.53273

>  <SCORE.INTRA.norm>
0.0619607

>  <SCORE.RESTR>
0

>  <SCORE.RESTR.CAVITY>
0

>  <SCORE.RESTR.norm>
0

>  <SCORE.SYSTEM>
0

>  <SCORE.SYSTEM.CONST>
0

>  <SCORE.SYSTEM.DIHEDRAL>
0

>  <SCORE.SYSTEM.SOLV>
0

>  <SCORE.SYSTEM.norm>
0

>  <SCORE.heavy>
22

>  <SCORE.norm>
-0.605161

>  <RMSD>
0.513

$$$$
2f4s_lig
 OpenBabel11021811433D
libRbt.so/2013.1/901 2013/11/27
 22 23  0  0  0  0  0  0  0  0999 V2000
   26.3744   17.2303   35.6303 N   0  0  0  0  0  0  0  0  0  0  0  0
   23.7249   15.0043   39.2637 N   0  0  0  0  0  0  0  0  0  0  0  0
   23.0059   11.0357   39.2126 N   0  0  0  0  0  0  0  0  0  0  0  0
   21.9783   15.2087   34.5841 O   0  0  0  0  0  0  0  0  0  0  0  0
   22.7391   15.8917   35.6222 C   0  0  2  0  0  0  0  0  0  0  0  0
   18.5833   15.2939   36.8685 N   0  0  0  0  0  0  0  0  0  0  0  0
   24.1289   17.0134   33.9275 O   0  0  0  0  0  0  0  0  0  0  0  0
   24.1718   16.2079   35.1112 C   0  0  1  0  0  0  0  0  0  0  0  0
   21.5066   14.7900   37.4320 O   0  0  0  0  0  0  0  0  0  0  0  0
   24.9858   16.9501   36.1641 C   0  0  1  0  0  0  0  0  0  0  0  0
   21.0698   12.5205   37.4918 O   0  0  0  0  0  0  0  0  0  0  0  0
   25.0671   16.0881   37.4693 C   0  0  0  0  0  0  0  0  0  0  0  0
   19.4669   12.4734   40.7955 O   0  0  0  0  0  0  0  0  0  0  0  0
   23.6011   15.8175   37.9836 C   0  0  1  0  0  0  0  0  0  0  0  0
   17.6458   14.0595   39.2862 O   0  0  0  0  0  0  0  0  0  0  0  0
   22.8163   15.0120   36.9321 C   0  0  2  0  0  0  0  0  0  0  0  0
   20.6283   13.8170   36.8948 C   0  0  1  0  0  0  0  0  0  0  0  0
   20.9998   12.4148   38.9767 C   0  0  2  0  0  0  0  0  0  0  0  0
   21.5180   11.0331   39.3873 C   0  0  0  0  0  0  0  0  0  0  0  0
   19.5541   12.5684   39.3936 C   0  0  2  0  0  0  0  0  0  0  0  0
   19.0177   13.9117   38.9020 C   0  0  1  0  0  0  0  0  0  0  0  0
   19.1391   13.9820   37.3598 C   0  0  1  0  0  0  0  0  0  0  0  0
  5  4  1  6  0  0  0
  5  8  1  0  0  0  0
  5 16  1  0  0  0  0
  8  7  1  6  0  0  0
  8 10  1  0  0  0  0
 10  1  1  6  0  0  0
 10 12  1  0  0  0  0
 11 18  1  0  0  0  0
 12 14  1  0  0  0  0
 14  2  1  1  0  0  0
 14 16  1  0  0  0  0
 16  9  1  1  0  0  0
 17  9  1  1  0  0  0
 17 11  1  0  0  0  0
 17 22  1  0  0  0  0
 18 19  1  6  0  0  0
 18 20  1  0  0  0  0
 19  3  1  0  0  0  0
 20 13  1  1  0  0  0
 20 21  1  0  0  0  0
 21 15  1  6  0  0  0
 21 22  1  0  0  0  0
 22  6  1  1  0  0  0
M  END
>  <CHROM.1>
79.44146003,80.11350702,73.39282856,21.86498793,14.45835623,37.48183247,-0.80596853
0.06933295,2.31280250

>  <Name>
2f4s_lig

>  <RI>
0

>  <Rbt.Current_Directory>
/home/itssahil/PROJECTS/Mol_Feturizer/New_Systems/rnas/2f4s

>  <Rbt.Executable>
rbdock ($Id: //depot/dev/client3/rdock/2013.1/src/exe/rbdock.cxx#4 $)

>  <Rbt.Library>
libRbt.so (2013.1, Build901 2013/11/27)

>  <Rbt.Parameter_File>
/export/apps/rDock/src/rDock_2013.1_src/data/scripts/dock_solv.prm

>  <Rbt.Receptor>
prm/pocket_docking_2.prm

>  <SCORE>
-13.2906

>  <SCORE.INTER>
-14.7578

>  <SCORE.INTER.CONST>
1

>  <SCORE.INTER.POLAR>
-0.979796

>  <SCORE.INTER.ROT>
3

>  <SCORE.INTER.SOLV>
19.4428

>  <SCORE.INTER.VDW>
-18.6535

>  <SCORE.INTER.norm>
-0.670809

>  <SCORE.INTRA>
1.4672

>  <SCORE.INTRA.DIHEDRAL>
2.56541

>  <SCORE.INTRA.DIHEDRAL.0>
1.67653

>  <SCORE.INTRA.POLAR>
0

>  <SCORE.INTRA.POLAR.0>
0

>  <SCORE.INTRA.REPUL>
0

>  <SCORE.INTRA.REPUL.0>
0

>  <SCORE.INTRA.SOLV>
0.884298

>  <SCORE.INTRA.SOLV.lig_0>
-76.6701

>  <SCORE.INTRA.VDW>
-0.25765

>  <SCORE.INTRA.VDW.0>
-1.53273

>  <SCORE.INTRA.norm>
0.0666911

>  <SCORE.RESTR>
0

>  <SCORE.RESTR.CAVITY>
0

>  <SCORE.RESTR.norm>
0

>  <SCORE.SYSTEM>
0

>  <SCORE.SYSTEM.CONST>
0

>  <SCORE.SYSTEM.DIHEDRAL>
0

>  <SCORE.SYSTEM.SOLV>
0

>  <SCORE.SYSTEM.norm>
0

>  <SCORE.heavy>
22

>  <SCORE.norm>
-0.604118

>  <RMSD>
0.519

$$$$
2f4s_lig
 OpenBabel11021811433D
libRbt.so/2013.1/901 2013/11/27
 22 23  0  0  0  0  0  0  0  0999 V2000
   26.4346   17.2378   35.6814 N   0  0  0  0  0  0  0  0  0  0  0  0
   23.7923   14.9916   39.3075 N   0  0  0  0  0  0  0  0  0  0  0  0
   23.0789   10.9865   39.1690 N   0  0  0  0  0  0  0  0  0  0  0  0
   22.0306   15.2334   34.6354 O   0  0  0  0  0  0  0  0  0  0  0  0
   22.7964   15.9073   35.6757 C   0  0  2  0  0  0  0  0  0  0  0  0
   18.6387   15.3403   36.9890 N   0  0  0  0  0  0  0  0  0  0  0  0
   24.1830   17.0381   33.9846 O   0  0  0  0  0  0  0  0  0  0  0  0
   24.2280   16.2240   35.1623 C   0  0  1  0  0  0  0  0  0  0  0  0
   21.5674   14.7952   37.4817 O   0  0  0  0  0  0  0  0  0  0  0  0
   25.0472   16.9568   36.2178 C   0  0  1  0  0  0  0  0  0  0  0  0
   21.1158   12.5280   37.4559 O   0  0  0  0  0  0  0  0  0  0  0  0
   25.1309   16.0853   37.5164 C   0  0  0  0  0  0  0  0  0  0  0  0
   19.5679   12.3553   40.7815 O   0  0  0  0  0  0  0  0  0  0  0  0
   23.6660   15.8142   38.0337 C   0  0  1  0  0  0  0  0  0  0  0  0
   17.7330   14.0136   39.3696 O   0  0  0  0  0  0  0  0  0  0  0  0
   22.8760   15.0180   36.9791 C   0  0  2  0  0  0  0  0  0  0  0  0
   20.6735   13.8507   36.9201 C   0  0  1  0  0  0  0  0  0  0  0  0
   21.0698   12.3619   38.9362 C   0  0  2  0  0  0  0  0  0  0  0  0
   21.5852   10.9613   39.2810 C   0  0  0  0  0  0  0  0  0  0  0  0
   19.6324   12.5073   39.3834 C   0  0  2  0  0  0  0  0  0  0  0  0
   19.0973   13.8730   38.9565 C   0  0  1  0  0  0  0  0  0  0  0  0
   19.1934   14.0059   37.4166 C   0  0  1  0  0  0  0  0  0  0  0  0
  5  4  1  6  0  0  0
  5  8  1  0  0  0  0
  5 16  1  0  0  0  0
  8  7  1  6  0  0  0
  8 10  1  0  0  0  0
 10  1  1  6  0  0  0
 10 12  1  0  0  0  0
 11 18  1  0  0  0  0
 12 14  1  0  0  0  0
 14  2  1  1  0  0  0
 14 16  1  0  0  0  0
 16  9  1  1  0  0  0
 17  9  1  1  0  0  0
 17 11  1  0  0  0  0
 17 22  1  0  0  0  0
 18 19  1  6  0  0  0
 18 20  1  0  0  0  0
 19  3  1  0  0  0  0
 20 13  1  1  0  0  0
 20 21  1  0  0  0  0
 21 15  1  6  0  0  0
 21 22  1  0  0  0  0
 22  6  1  1  0  0  0
M  END
>  <CHROM.1>
77.86534844,79.33601933,77.06673355,21.92948246,14.44709502,37.51111551,-0.80851375
0.05771455,2.33912476

>  <Name>
2f4s_lig

>  <RI>
2.26097e+07

>  <Rbt.Current_Directory>
/home/itssahil/PROJECTS/Mol_Feturizer/New_Systems/rnas/2f4s

>  <Rbt.Executable>
rbdock ($Id: //depot/dev/client3/rdock/2013.1/src/exe/rbdock.cxx#4 $)

>  <Rbt.Library>
libRbt.so (2013.1, Build901 2013/11/27)

>  <Rbt.Parameter_File>
/export/apps/rDock/src/rDock_2013.1_src/data/scripts/dock_solv.prm

>  <Rbt.Receptor>
prm/pocket_docking_7.prm

>  <SCORE>
-13.2837

>  <SCORE.INTER>
-14.6898

>  <SCORE.INTER.CONST>
1

>  <SCORE.INTER.POLAR>
-0.979796

>  <SCORE.INTER.ROT>
3

>  <SCORE.INTER.SOLV>
19.8214

>  <SCORE.INTER.VDW>
-18.7343

>  <SCORE.INTER.norm>
-0.667719

>  <SCORE.INTRA>
1.40613

>  <SCORE.INTRA.DIHEDRAL>
2.56307

>  <SCORE.INTRA.DIHEDRAL.0>
1.67653

>  <SCORE.INTRA.POLAR>
0

>  <SCORE.INTRA.POLAR.0>
0

>  <SCORE.INTRA.REPUL>
0

>  <SCORE.INTRA.REPUL.0>
0

>  <SCORE.INTRA.SOLV>
0.69754

>  <SCORE.INTRA.SOLV.lig_0>
-76.6701

>  <SCORE.INTRA.VDW>
-0.224178

>  <SCORE.INTRA.VDW.0>
-1.53273

>  <SCORE.INTRA.norm>
0.0639148

>  <SCORE.RESTR>
0

>  <SCORE.RESTR.CAVITY>
0

>  <SCORE.RESTR.norm>
0

>  <SCORE.SYSTEM>
0

>  <SCORE.SYSTEM.CONST>
0

>  <SCORE.SYSTEM.DIHEDRAL>
0

>  <SCORE.SYSTEM.SOLV>
0

>  <SCORE.SYSTEM.norm>
0

>  <SCORE.heavy>
22

>  <SCORE.norm>
-0.603804

>  <RMSD>
0.523

$$$$
2f4s_lig
 OpenBabel11021811433D
libRbt.so/2013.1/901 2013/11/27
 22 23  0  0  0  0  0  0  0  0999 V2000
   26.4046   17.2180   35.7220 N   0  0  0  0  0  0  0  0  0  0  0  0
   23.7185   14.9749   39.3177 N   0  0  0  0  0  0  0  0  0  0  0  0
   22.9947   11.0119   39.1851 N   0  0  0  0  0  0  0  0  0  0  0  0
   21.9953   15.2485   34.6330 O   0  0  0  0  0  0  0  0  0  0  0  0
   22.7575   15.9127   35.6822 C   0  0  2  0  0  0  0  0  0  0  0  0
   18.5841   15.3261   36.9258 N   0  0  0  0  0  0  0  0  0  0  0  0
   24.1651   17.0410   34.0067 O   0  0  0  0  0  0  0  0  0  0  0  0
   24.1953   16.2217   35.1813 C   0  0  1  0  0  0  0  0  0  0  0  0
   21.5067   14.8017   37.4738 O   0  0  0  0  0  0  0  0  0  0  0  0
   25.0111   16.9444   36.2463 C   0  0  1  0  0  0  0  0  0  0  0  0
   21.0610   12.5332   37.4987 O   0  0  0  0  0  0  0  0  0  0  0  0
   25.0786   16.0669   37.5418 C   0  0  0  0  0  0  0  0  0  0  0  0
   19.4661   12.4401   40.8052 O   0  0  0  0  0  0  0  0  0  0  0  0
   23.6078   15.8038   38.0464 C   0  0  1  0  0  0  0  0  0  0  0  0
   17.6476   14.0572   39.3259 O   0  0  0  0  0  0  0  0  0  0  0  0
   22.8207   15.0175   36.9823 C   0  0  2  0  0  0  0  0  0  0  0  0
   20.6232   13.8408   36.9234 C   0  0  1  0  0  0  0  0  0  0  0  0
   20.9942   12.4043   38.9819 C   0  0  2  0  0  0  0  0  0  0  0  0
   21.5079   11.0142   39.3691 C   0  0  0  0  0  0  0  0  0  0  0  0
   19.5502   12.5570   39.4048 C   0  0  2  0  0  0  0  0  0  0  0  0
   19.0180   13.9100   38.9360 C   0  0  1  0  0  0  0  0  0  0  0  0
   19.1358   14.0044   37.3948 C   0  0  1  0  0  0  0  0  0  0  0  0
  5  4  1  6  0  0  0
  5  8  1  0  0  0  0
  5 16  1  0  0  0  0
  8  7  1  6  0  0  0
  8 10  1  0  0  0  0
 10  1  1  6  0  0  0
 10 12  1  0  0  0  0
 11 18  1  0  0  0  0
 12 14  1  0  0  0  0
 14  2  1  1  0  0  0
 14 16  1  0  0  0  0
 16  9  1  1  0  0  0
 17  9  1  1  0  0  0
 17 11  1  0  0  0  0
 17 22  1  0  0  0  0
 18 19  1  6  0  0  0
 18 20  1  0  0  0  0
 19  3  1  0  0  0  0
 20 13  1  1  0  0  0
 20 21  1  0  0  0  0
 21 15  1  6  0  0  0
 21 22  1  0  0  0  0
 22  6  1  1  0  0  0
M  END
>  <CHROM.1>
79.58556545,79.48816634,73.15523183,21.87056732,14.45975616,37.52230512,-0.79918254
0.06434293,2.32643162

>  <Name>
2f4s_lig

>  <RI>
0

>  <Rbt.Current_Directory>
/home/itssahil/PROJECTS/Mol_Feturizer/New_Systems/rnas/2f4s

>  <Rbt.Executable>
rbdock ($Id: //depot/dev/client3/rdock/2013.1/src/exe/rbdock.cxx#4 $)

>  <Rbt.Library>
libRbt.so (2013.1, Build901 2013/11/27)

>  <Rbt.Parameter_File>
/export/apps/rDock/src/rDock_2013.1_src/data/scripts/dock_solv.prm

>  <Rbt.Receptor>
prm/pocket_docking_2.prm

>  <SCORE>
-13.3879

>  <SCORE.INTER>
-14.8066

>  <SCORE.INTER.CONST>
1

>  <SCORE.INTER.POLAR>
-0.979796

>  <SCORE.INTER.ROT>
3

>  <SCORE.INTER.SOLV>
19.451

>  <SCORE.INTER.VDW>
-18.6888

>  <SCORE.INTER.norm>
-0.673028

>  <SCORE.INTRA>
1.41869

>  <SCORE.INTRA.DIHEDRAL>
2.46917

>  <SCORE.INTRA.DIHEDRAL.0>
1.67653

>  <SCORE.INTRA.POLAR>
0

>  <SCORE.INTRA.POLAR.0>
0

>  <SCORE.INTRA.REPUL>
0

>  <SCORE.INTRA.REPUL.0>
0

>  <SCORE.INTRA.SOLV>
0.889243

>  <SCORE.INTRA.SOLV.lig_0>
-76.6701

>  <SCORE.INTRA.VDW>
-0.260513

>  <SCORE.INTRA.VDW.0>
-1.53273

>  <SCORE.INTRA.norm>
0.064486

>  <SCORE.RESTR>
0

>  <SCORE.RESTR.CAVITY>
0

>  <SCORE.RESTR.norm>
0

>  <SCORE.SYSTEM>
0

>  <SCORE.SYSTEM.CONST>
0

>  <SCORE.SYSTEM.DIHEDRAL>
0

>  <SCORE.SYSTEM.SOLV>
0

>  <SCORE.SYSTEM.norm>
0

>  <SCORE.heavy>
22

>  <SCORE.norm>
-0.608542

>  <RMSD>
0.529

$$$$
2f4s_lig
 OpenBabel11021811433D
libRbt.so/2013.1/901 2013/11/27
 22 23  0  0  0  0  0  0  0  0999 V2000
   26.4049   17.2080   35.7311 N   0  0  0  0  0  0  0  0  0  0  0  0
   23.7094   14.9583   39.3157 N   0  0  0  0  0  0  0  0  0  0  0  0
   22.9934   11.0175   39.1826 N   0  0  0  0  0  0  0  0  0  0  0  0
   21.9894   15.2583   34.6314 O   0  0  0  0  0  0  0  0  0  0  0  0
   22.7533   15.9153   35.6839 C   0  0  2  0  0  0  0  0  0  0  0  0
   18.5739   15.3148   36.9197 N   0  0  0  0  0  0  0  0  0  0  0  0
   24.1655   17.0461   34.0140 O   0  0  0  0  0  0  0  0  0  0  0  0
   24.1924   16.2215   35.1850 C   0  0  1  0  0  0  0  0  0  0  0  0
   21.4980   14.8006   37.4700 O   0  0  0  0  0  0  0  0  0  0  0  0
   25.0102   16.9368   36.2535 C   0  0  1  0  0  0  0  0  0  0  0  0
   21.0580   12.5313   37.5069 O   0  0  0  0  0  0  0  0  0  0  0  0
   25.0741   16.0534   37.5452 C   0  0  0  0  0  0  0  0  0  0  0  0
   19.4638   12.4514   40.8141 O   0  0  0  0  0  0  0  0  0  0  0  0
   23.6022   15.7931   38.0480 C   0  0  1  0  0  0  0  0  0  0  0  0
   17.6410   14.0562   39.3266 O   0  0  0  0  0  0  0  0  0  0  0  0
   22.8129   15.0142   36.9801 C   0  0  2  0  0  0  0  0  0  0  0  0
   20.6168   13.8347   36.9248 C   0  0  1  0  0  0  0  0  0  0  0  0
   20.9917   12.4100   38.9907 C   0  0  2  0  0  0  0  0  0  0  0  0
   21.5090   11.0232   39.3852 C   0  0  0  0  0  0  0  0  0  0  0  0
   19.5474   12.5612   39.4130 C   0  0  2  0  0  0  0  0  0  0  0  0
   19.0117   13.9104   38.9372 C   0  0  1  0  0  0  0  0  0  0  0  0
   19.1291   13.9970   37.3956 C   0  0  1  0  0  0  0  0  0  0  0  0
  5  4  1  6  0  0  0
  5  8  1  0  0  0  0
  5 16  1  0  0  0  0
  8  7  1  6  0  0  0
  8 10  1  0  0  0  0
 10  1  1  6  0  0  0
 10 12  1  0  0  0  0
 11 18  1  0  0  0  0
 12 14  1  0  0  0  0
 14  2  1  1  0  0  0
 14 16  1  0  0  0  0
 16  9  1  1  0  0  0
 17  9  1  1  0  0  0
 17 11  1  0  0  0  0
 17 22  1  0  0  0  0
 18 19  1  6  0  0  0
 18 20  1  0  0  0  0
 19  3  1  0  0  0  0
 20 13  1  1  0  0  0
 20 21  1  0  0  0  0
 21 15  1  6  0  0  0
 21 22  1  0  0  0  0
 22  6  1  1  0  0  0
M  END
>  <CHROM.1>
80.32611926,79.27266368,72.36845964,21.86619883,14.45830033,37.52550264,-0.79830284
0.06478473,2.32448193

>  <Name>
2f4s_lig

>  <RI>
0

>  <Rbt.Current_Directory>
/home/itssahil/PROJECTS/Mol_Feturizer/New_Systems/rnas/2f4s

>  <Rbt.Executable>
rbdock ($Id: //depot/dev/client3/rdock/2013.1/src/exe/rbdock.cxx#4 $)

>  <Rbt.Library>
libRbt.so (2013.1, Build901 2013/11/27)

>  <Rbt.Parameter_File>
/export/apps/rDock/src/rDock_2013.1_src/data/scripts/dock_solv.prm

>  <Rbt.Receptor>
prm/pocket_docking_2.prm

>  <SCORE>
-13.3857

>  <SCORE.INTER>
-14.8368

>  <SCORE.INTER.CONST>
1

>  <SCORE.INTER.POLAR>
-0.979796

>  <SCORE.INTER.ROT>
3

>  <SCORE.INTER.SOLV>
19.4077

>  <SCORE.INTER.VDW>
-18.6945

>  <SCORE.INTER.norm>
-0.674401

>  <SCORE.INTRA>
1.45118

>  <SCORE.INTRA.DIHEDRAL>
2.48786

>  <SCORE.INTRA.DIHEDRAL.0>
1.67653

>  <SCORE.INTRA.POLAR>
0

>  <SCORE.INTRA.POLAR.0>
0

>  <SCORE.INTRA.REPUL>
0

>  <SCORE.INTRA.REPUL.0>
0

>  <SCORE.INTRA.SOLV>
0.966633

>  <SCORE.INTRA.SOLV.lig_0>
-76.6701

>  <SCORE.INTRA.VDW>
-0.276072

>  <SCORE.INTRA.VDW.0>
-1.53273

>  <SCORE.INTRA.norm>
0.0659626

>  <SCORE.RESTR>
0

>  <SCORE.RESTR.CAVITY>
0

>  <SCORE.RESTR.norm>
0

>  <SCORE.SYSTEM>
0

>  <SCORE.SYSTEM.CONST>
0

>  <SCORE.SYSTEM.DIHEDRAL>
0

>  <SCORE.SYSTEM.SOLV>
0

>  <SCORE.SYSTEM.norm>
0

>  <SCORE.heavy>
22

>  <SCORE.norm>
-0.608439

>  <RMSD>
0.534

$$$$
2f4s_lig
 OpenBabel11021811433D
libRbt.so/2013.1/901 2013/11/27
 22 23  0  0  0  0  0  0  0  0999 V2000
   26.4621   17.2131   35.7619 N   0  0  0  0  0  0  0  0  0  0  0  0
   23.6954   14.9565   39.2875 N   0  0  0  0  0  0  0  0  0  0  0  0
   23.1062   11.0962   39.1746 N   0  0  0  0  0  0  0  0  0  0  0  0
   22.0531   15.2982   34.5783 O   0  0  0  0  0  0  0  0  0  0  0  0
   22.8039   15.9434   35.6473 C   0  0  2  0  0  0  0  0  0  0  0  0
   18.5754   15.2774   36.8744 N   0  0  0  0  0  0  0  0  0  0  0  0
   24.2498   17.0765   34.0080 O   0  0  0  0  0  0  0  0  0  0  0  0
   24.2527   16.2440   35.1738 C   0  0  1  0  0  0  0  0  0  0  0  0
   21.5131   14.8248   37.4054 O   0  0  0  0  0  0  0  0  0  0  0  0
   25.0575   16.9471   36.2600 C   0  0  1  0  0  0  0  0  0  0  0  0
   21.1210   12.5467   37.4459 O   0  0  0  0  0  0  0  0  0  0  0  0
   25.0952   16.0548   37.5467 C   0  0  0  0  0  0  0  0  0  0  0  0
   19.5508   12.4350   40.7637 O   0  0  0  0  0  0  0  0  0  0  0  0
   23.6138   15.8003   38.0239 C   0  0  1  0  0  0  0  0  0  0  0  0
   17.6850   14.0006   39.2878 O   0  0  0  0  0  0  0  0  0  0  0  0
   22.8371   15.0334   36.9382 C   0  0  2  0  0  0  0  0  0  0  0  0
   20.6488   13.8404   36.8664 C   0  0  1  0  0  0  0  0  0  0  0  0
   21.0672   12.4248   38.9302 C   0  0  2  0  0  0  0  0  0  0  0  0
   21.6160   11.0493   39.3217 C   0  0  0  0  0  0  0  0  0  0  0  0
   19.6229   12.5459   39.3621 C   0  0  2  0  0  0  0  0  0  0  0  0
   19.0558   13.8834   38.8894 C   0  0  1  0  0  0  0  0  0  0  0  0
   19.1611   13.9717   37.3470 C   0  0  1  0  0  0  0  0  0  0  0  0
  5  4  1  6  0  0  0
  5  8  1  0  0  0  0
  5 16  1  0  0  0  0
  8  7  1  6  0  0  0
  8 10  1  0  0  0  0
 10  1  1  6  0  0  0
 10 12  1  0  0  0  0
 11 18  1  0  0  0  0
 12 14  1  0  0  0  0
 14  2  1  1  0  0  0
 14 16  1  0  0  0  0
 16  9  1  1  0  0  0
 17  9  1  1  0  0  0
 17 11  1  0  0  0  0
 17 22  1  0  0  0  0
 18 19  1  6  0  0  0
 18 20  1  0  0  0  0
 19  3  1  0  0  0  0
 20 13  1  1  0  0  0
 20 21  1  0  0  0  0
 21 15  1  6  0  0  0
 21 22  1  0  0  0  0
 22  6  1  1  0  0  0
M  END
>  <CHROM.1>
82.29901820,76.95184541,75.14902884,21.91653892,14.46519364,37.49062035,-0.79507861
0.07710529,2.31949385

>  <Name>
2f4s_lig

>  <RI>
2.46955e+07

>  <Rbt.Current_Directory>
/home/itssahil/PROJECTS/Mol_Feturizer/New_Systems/rnas/2f4s

>  <Rbt.Executable>
rbdock ($Id: //depot/dev/client3/rdock/2013.1/src/exe/rbdock.cxx#4 $)

>  <Rbt.Library>
libRbt.so (2013.1, Build901 2013/11/27)

>  <Rbt.Parameter_File>
/export/apps/rDock/src/rDock_2013.1_src/data/scripts/dock_solv.prm

>  <Rbt.Receptor>
prm/pocket_docking_3.prm

>  <SCORE>
-13.2832

>  <SCORE.INTER>
-14.8999

>  <SCORE.INTER.CONST>
1

>  <SCORE.INTER.POLAR>
-0.979796

>  <SCORE.INTER.ROT>
3

>  <SCORE.INTER.SOLV>
19.3322

>  <SCORE.INTER.VDW>
-18.7114

>  <SCORE.INTER.norm>
-0.67727

>  <SCORE.INTRA>
1.61669

>  <SCORE.INTRA.DIHEDRAL>
2.72893

>  <SCORE.INTRA.DIHEDRAL.0>
1.67653

>  <SCORE.INTRA.POLAR>
0

>  <SCORE.INTRA.POLAR.0>
0

>  <SCORE.INTRA.REPUL>
0

>  <SCORE.INTRA.REPUL.0>
0

>  <SCORE.INTRA.SOLV>
1.14993

>  <SCORE.INTRA.SOLV.lig_0>
-76.6701

>  <SCORE.INTRA.VDW>
-0.322743

>  <SCORE.INTRA.VDW.0>
-1.53273

>  <SCORE.INTRA.norm>
0.0734859

>  <SCORE.RESTR>
0

>  <SCORE.RESTR.CAVITY>
0

>  <SCORE.RESTR.norm>
0

>  <SCORE.SYSTEM>
0

>  <SCORE.SYSTEM.CONST>
0

>  <SCORE.SYSTEM.DIHEDRAL>
0

>  <SCORE.SYSTEM.SOLV>
0

>  <SCORE.SYSTEM.norm>
0

>  <SCORE.heavy>
22

>  <SCORE.norm>
-0.603784

>  <RMSD>
0.536

$$$$
2f4s_lig
 OpenBabel11021811433D
libRbt.so/2013.1/901 2013/11/27
 22 23  0  0  0  0  0  0  0  0999 V2000
   26.3968   17.2234   35.7244 N   0  0  0  0  0  0  0  0  0  0  0  0
   23.7283   14.9585   39.3196 N   0  0  0  0  0  0  0  0  0  0  0  0
   23.0162   10.9967   39.1858 N   0  0  0  0  0  0  0  0  0  0  0  0
   21.9864   15.2522   34.6430 O   0  0  0  0  0  0  0  0  0  0  0  0
   22.7516   15.9125   35.6925 C   0  0  2  0  0  0  0  0  0  0  0  0
   18.5831   15.3184   36.9595 N   0  0  0  0  0  0  0  0  0  0  0  0
   24.1509   17.0511   34.0171 O   0  0  0  0  0  0  0  0  0  0  0  0
   24.1869   16.2261   35.1875 C   0  0  1  0  0  0  0  0  0  0  0  0
   21.5096   14.7907   37.4835 O   0  0  0  0  0  0  0  0  0  0  0  0
   25.0058   16.9449   36.2528 C   0  0  1  0  0  0  0  0  0  0  0  0
   21.0659   12.5217   37.4866 O   0  0  0  0  0  0  0  0  0  0  0  0
   25.0797   16.0613   37.5438 C   0  0  0  0  0  0  0  0  0  0  0  0
   19.4919   12.3914   40.8019 O   0  0  0  0  0  0  0  0  0  0  0  0
   23.6114   15.7934   38.0528 C   0  0  1  0  0  0  0  0  0  0  0  0
   17.6628   14.0228   39.3516 O   0  0  0  0  0  0  0  0  0  0  0  0
   22.8213   15.0110   36.9880 C   0  0  2  0  0  0  0  0  0  0  0  0
   20.6234   13.8351   36.9283 C   0  0  1  0  0  0  0  0  0  0  0  0
   21.0086   12.3768   38.9687 C   0  0  2  0  0  0  0  0  0  0  0  0
   21.5258   10.9830   39.3377 C   0  0  0  0  0  0  0  0  0  0  0  0
   19.5671   12.5235   39.4023 C   0  0  2  0  0  0  0  0  0  0  0  0
   19.0308   13.8811   38.9515 C   0  0  1  0  0  0  0  0  0  0  0  0
   19.1389   13.9922   37.4107 C   0  0  1  0  0  0  0  0  0  0  0  0
  5  4  1  6  0  0  0
  5  8  1  0  0  0  0
  5 16  1  0  0  0  0
  8  7  1  6  0  0  0
  8 10  1  0  0  0  0
 10  1  1  6  0  0  0
 10 12  1  0  0  0  0
 11 18  1  0  0  0  0
 12 14  1  0  0  0  0
 14  2  1  1  0  0  0
 14 16  1  0  0  0  0
 16  9  1  1  0  0  0
 17  9  1  1  0  0  0
 17 11  1  0  0  0  0
 17 22  1  0  0  0  0
 18 19  1  6  0  0  0
 18 20  1  0  0  0  0
 19  3  1  0  0  0  0
 20 13  1  1  0  0  0
 20 21  1  0  0  0  0
 21 15  1  6  0  0  0
 21 22  1  0  0  0  0
 22  6  1  1  0  0  0
M  END
>  <CHROM.1>
79.31119816,79.35015427,74.90311060,21.87510340,14.44679522,37.52715390,-0.80363203
0.06260042,2.33353236

>  <Name>
2f4s_lig

>  <RI>
0

>  <Rbt.Current_Directory>
/home/itssahil/PROJECTS/Mol_Feturizer/New_Systems/rnas/2f4s

>  <Rbt.Executable>
rbdock ($Id: //depot/dev/client3/rdock/2013.1/src/exe/rbdock.cxx#4 $)

>  <Rbt.Library>
libRbt.so (2013.1, Build901 2013/11/27)

>  <Rbt.Parameter_File>
/export/apps/rDock/src/rDock_2013.1_src/data/scripts/dock_solv.prm

>  <Rbt.Receptor>
prm/pocket_docking_4.prm

>  <SCORE>
-13.3449

>  <SCORE.INTER>
-14.8009

>  <SCORE.INTER.CONST>
1

>  <SCORE.INTER.POLAR>
-0.979796

>  <SCORE.INTER.ROT>
3

>  <SCORE.INTER.SOLV>
19.5197

>  <SCORE.INTER.VDW>
-18.7079

>  <SCORE.INTER.norm>
-0.672768

>  <SCORE.INTRA>
1.45603

>  <SCORE.INTRA.DIHEDRAL>
2.5663

>  <SCORE.INTRA.DIHEDRAL.0>
1.67653

>  <SCORE.INTRA.POLAR>
0

>  <SCORE.INTRA.POLAR.0>
0

>  <SCORE.INTRA.REPUL>
0

>  <SCORE.INTRA.REPUL.0>
0

>  <SCORE.INTRA.SOLV>
0.858494

>  <SCORE.INTRA.SOLV.lig_0>
-76.6701

>  <SCORE.INTRA.VDW>
-0.256366

>  <SCORE.INTRA.VDW.0>
-1.53273

>  <SCORE.INTRA.norm>
0.0661832

>  <SCORE.RESTR>
0

>  <SCORE.RESTR.CAVITY>
0

>  <SCORE.RESTR.norm>
0

>  <SCORE.SYSTEM>
0

>  <SCORE.SYSTEM.CONST>
0

>  <SCORE.SYSTEM.DIHEDRAL>
0

>  <SCORE.SYSTEM.SOLV>
0

>  <SCORE.SYSTEM.norm>
0

>  <SCORE.heavy>
22

>  <SCORE.norm>
-0.606585

>  <RMSD>
0.536

$$$$
2f4s_lig
 OpenBabel11021811433D
libRbt.so/2013.1/901 2013/11/27
 22 23  0  0  0  0  0  0  0  0999 V2000
   26.4175   17.2225   35.6746 N   0  0  0  0  0  0  0  0  0  0  0  0
   23.7413   15.0033   39.2924 N   0  0  0  0  0  0  0  0  0  0  0  0
   23.0200   11.0415   39.2593 N   0  0  0  0  0  0  0  0  0  0  0  0
   22.0312   15.1949   34.5989 O   0  0  0  0  0  0  0  0  0  0  0  0
   22.7834   15.8811   35.6412 C   0  0  2  0  0  0  0  0  0  0  0  0
   18.6200   15.2775   36.8438 N   0  0  0  0  0  0  0  0  0  0  0  0
   24.1855   16.9997   33.9547 O   0  0  0  0  0  0  0  0  0  0  0  0
   24.2198   16.1971   35.1407 C   0  0  1  0  0  0  0  0  0  0  0  0
   21.5375   14.7828   37.4440 O   0  0  0  0  0  0  0  0  0  0  0  0
   25.0250   16.9425   36.1981 C   0  0  1  0  0  0  0  0  0  0  0  0
   21.1029   12.5133   37.5202 O   0  0  0  0  0  0  0  0  0  0  0  0
   25.0967   16.0838   37.5060 C   0  0  0  0  0  0  0  0  0  0  0  0
   19.4639   12.4949   40.8064 O   0  0  0  0  0  0  0  0  0  0  0  0
   23.6268   15.8133   38.0094 C   0  0  1  0  0  0  0  0  0  0  0  0
   17.6575   14.0645   39.2624 O   0  0  0  0  0  0  0  0  0  0  0  0
   22.8510   15.0046   36.9538 C   0  0  2  0  0  0  0  0  0  0  0  0
   20.6664   13.8037   36.9063 C   0  0  1  0  0  0  0  0  0  0  0  0
   21.0167   12.4215   39.0052 C   0  0  2  0  0  0  0  0  0  0  0  0
   21.5321   11.0444   39.4343 C   0  0  0  0  0  0  0  0  0  0  0  0
   19.5664   12.5769   39.4047 C   0  0  2  0  0  0  0  0  0  0  0  0
   19.0337   13.9149   38.8948 C   0  0  1  0  0  0  0  0  0  0  0  0
   19.1719   13.9710   37.3534 C   0  0  1  0  0  0  0  0  0  0  0  0
  5  4  1  6  0  0  0
  5  8  1  0  0  0  0
  5 16  1  0  0  0  0
  8  7  1  6  0  0  0
  8 10  1  0  0  0  0
 10  1  1  6  0  0  0
 10 12  1  0  0  0  0
 11 18  1  0  0  0  0
 12 14  1  0  0  0  0
 14  2  1  1  0  0  0
 14 16  1  0  0  0  0
 16  9  1  1  0  0  0
 17  9  1  1  0  0  0
 17 11  1  0  0  0  0
 17 22  1  0  0  0  0
 18 19  1  6  0  0  0
 18 20  1  0  0  0  0
 19  3  1  0  0  0  0
 20 13  1  1  0  0  0
 20 21  1  0  0  0  0
 21 15  1  6  0  0  0
 21 22  1  0  0  0  0
 22  6  1  1  0  0  0
M  END
>  <CHROM.1>
79.73909408,80.30731276,72.68002327,21.89427520,14.45504078,37.50052025,-0.80013329
0.07674169,2.30611057

>  <Name>
2f4s_lig

>  <RI>
0

>  <Rbt.Current_Directory>
/home/itssahil/PROJECTS/Mol_Feturizer/New_Systems/rnas/2f4s

>  <Rbt.Executable>
rbdock ($Id: //depot/dev/client3/rdock/2013.1/src/exe/rbdock.cxx#4 $)

>  <Rbt.Library>
libRbt.so (2013.1, Build901 2013/11/27)

>  <Rbt.Parameter_File>
/export/apps/rDock/src/rDock_2013.1_src/data/scripts/dock_solv.prm

>  <Rbt.Receptor>
prm/pocket_docking_2.prm

>  <SCORE>
-13.2649

>  <SCORE.INTER>
-14.7519

>  <SCORE.INTER.CONST>
1

>  <SCORE.INTER.POLAR>
-0.979796

>  <SCORE.INTER.ROT>
3

>  <SCORE.INTER.SOLV>
19.3371

>  <SCORE.INTER.VDW>
-18.6143

>  <SCORE.INTER.norm>
-0.670541

>  <SCORE.INTRA>
1.48704

>  <SCORE.INTRA.DIHEDRAL>
2.58145

>  <SCORE.INTRA.DIHEDRAL.0>
1.67653

>  <SCORE.INTRA.POLAR>
0

>  <SCORE.INTRA.POLAR.0>
0

>  <SCORE.INTRA.REPUL>
0

>  <SCORE.INTRA.REPUL.0>
0

>  <SCORE.INTRA.SOLV>
0.91956

>  <SCORE.INTRA.SOLV.lig_0>
-76.6701

>  <SCORE.INTRA.VDW>
-0.263459

>  <SCORE.INTRA.VDW.0>
-1.53273

>  <SCORE.INTRA.norm>
0.0675929

>  <SCORE.RESTR>
0

>  <SCORE.RESTR.CAVITY>
0

>  <SCORE.RESTR.norm>
0

>  <SCORE.SYSTEM>
0

>  <SCORE.SYSTEM.CONST>
0

>  <SCORE.SYSTEM.DIHEDRAL>
0

>  <SCORE.SYSTEM.SOLV>
0

>  <SCORE.SYSTEM.norm>
0

>  <SCORE.heavy>
22

>  <SCORE.norm>
-0.602949

>  <RMSD>
0.539

$$$$
2f4s_lig
 OpenBabel11021811433D
libRbt.so/2013.1/901 2013/11/27
 22 23  0  0  0  0  0  0  0  0999 V2000
   26.3964   17.2081   35.7179 N   0  0  0  0  0  0  0  0  0  0  0  0
   23.7154   14.9586   39.3135 N   0  0  0  0  0  0  0  0  0  0  0  0
   22.9999   11.0210   39.2285 N   0  0  0  0  0  0  0  0  0  0  0  0
   21.9836   15.2443   34.6327 O   0  0  0  0  0  0  0  0  0  0  0  0
   22.7482   15.9055   35.6820 C   0  0  2  0  0  0  0  0  0  0  0  0
   18.5759   15.3078   36.9257 N   0  0  0  0  0  0  0  0  0  0  0  0
   24.1534   17.0367   34.0065 O   0  0  0  0  0  0  0  0  0  0  0  0
   24.1853   16.2146   35.1792 C   0  0  1  0  0  0  0  0  0  0  0  0
   21.5000   14.7912   37.4734 O   0  0  0  0  0  0  0  0  0  0  0  0
   25.0036   16.9343   36.2442 C   0  0  1  0  0  0  0  0  0  0  0  0
   21.0585   12.5221   37.5084 O   0  0  0  0  0  0  0  0  0  0  0  0
   25.0730   16.0537   37.5376 C   0  0  0  0  0  0  0  0  0  0  0  0
   19.4668   12.4401   40.8167 O   0  0  0  0  0  0  0  0  0  0  0  0
   23.6029   15.7905   38.0444 C   0  0  1  0  0  0  0  0  0  0  0  0
   17.6440   14.0475   39.3321 O   0  0  0  0  0  0  0  0  0  0  0  0
   22.8133   15.0072   36.9799 C   0  0  2  0  0  0  0  0  0  0  0  0
   20.6178   13.8264   36.9279 C   0  0  1  0  0  0  0  0  0  0  0  0
   20.9934   12.3994   38.9922 C   0  0  2  0  0  0  0  0  0  0  0  0
   21.5100   11.0120   39.3850 C   0  0  0  0  0  0  0  0  0  0  0  0
   19.5495   12.5512   39.4157 C   0  0  2  0  0  0  0  0  0  0  0  0
   19.0143   13.9012   38.9416 C   0  0  1  0  0  0  0  0  0  0  0  0
   19.1306   13.9892   37.3999 C   0  0  1  0  0  0  0  0  0  0  0  0
  5  4  1  6  0  0  0
  5  8  1  0  0  0  0
  5 16  1  0  0  0  0
  8  7  1  6  0  0  0
  8 10  1  0  0  0  0
 10  1  1  6  0  0  0
 10 12  1  0  0  0  0
 11 18  1  0  0  0  0
 12 14  1  0  0  0  0
 14  2  1  1  0  0  0
 14 16  1  0  0  0  0
 16  9  1  1  0  0  0
 17  9  1  1  0  0  0
 17 11  1  0  0  0  0
 17 22  1  0  0  0  0
 18 19  1  6  0  0  0
 18 20  1  0  0  0  0
 19  3  1  0  0  0  0
 20 13  1  1  0  0  0
 20 21  1  0  0  0  0
 21 15  1  6  0  0  0
 21 22  1  0  0  0  0
 22  6  1  1  0  0  0
M  END
>  <CHROM.1>
80.00141869,79.47943178,74.38178865,21.86562131,14.45133942,37.52694756,-0.80094674
0.06601239,2.32257146

>  <Name>
2f4s_lig

>  <RI>
0

>  <Rbt.Current_Directory>
/home/itssahil/PROJECTS/Mol_Feturizer/New_Systems/rnas/2f4s

>  <Rbt.Executable>
rbdock ($Id: //depot/dev/client3/rdock/2013.1/src/exe/rbdock.cxx#4 $)

>  <Rbt.Library>
libRbt.so (2013.1, Build901 2013/11/27)

>  <Rbt.Parameter_File>
/export/apps/rDock/src/rDock_2013.1_src/data/scripts/dock_solv.prm

>  <Rbt.Receptor>
prm/pocket_docking_2.prm

>  <SCORE>
-13.3829

>  <SCORE.INTER>
-14.9033

>  <SCORE.INTER.CONST>
1

>  <SCORE.INTER.POLAR>
-0.979796

>  <SCORE.INTER.ROT>
3

>  <SCORE.INTER.SOLV>
19.326

>  <SCORE.INTER.VDW>
-18.7116

>  <SCORE.INTER.norm>
-0.677423

>  <SCORE.INTRA>
1.52036

>  <SCORE.INTRA.DIHEDRAL>
2.64673

>  <SCORE.INTRA.DIHEDRAL.0>
1.67653

>  <SCORE.INTRA.POLAR>
0

>  <SCORE.INTRA.POLAR.0>
0

>  <SCORE.INTRA.REPUL>
0

>  <SCORE.INTRA.REPUL.0>
0

>  <SCORE.INTRA.SOLV>
0.937149

>  <SCORE.INTRA.SOLV.lig_0>
-76.6701

>  <SCORE.INTRA.VDW>
-0.271575

>  <SCORE.INTRA.VDW.0>
-1.53273

>  <SCORE.INTRA.norm>
0.0691075

>  <SCORE.RESTR>
0

>  <SCORE.RESTR.CAVITY>
0

>  <SCORE.RESTR.norm>
0

>  <SCORE.SYSTEM>
0

>  <SCORE.SYSTEM.CONST>
0

>  <SCORE.SYSTEM.DIHEDRAL>
0

>  <SCORE.SYSTEM.SOLV>
0

>  <SCORE.SYSTEM.norm>
0

>  <SCORE.heavy>
22

>  <SCORE.norm>
-0.608316

>  <RMSD>
0.539

$$$$
2f4s_lig
 OpenBabel11021811433D
libRbt.so/2013.1/901 2013/11/27
 22 23  0  0  0  0  0  0  0  0999 V2000
   26.4198   17.2331   35.7332 N   0  0  0  0  0  0  0  0  0  0  0  0
   23.7274   14.9761   39.3154 N   0  0  0  0  0  0  0  0  0  0  0  0
   23.0034   11.0235   39.2160 N   0  0  0  0  0  0  0  0  0  0  0  0
   22.0258   15.2418   34.6224 O   0  0  0  0  0  0  0  0  0  0  0  0
   22.7795   15.9096   35.6754 C   0  0  2  0  0  0  0  0  0  0  0  0
   18.6081   15.2960   36.8676 N   0  0  0  0  0  0  0  0  0  0  0  0
   24.1896   17.0452   34.0070 O   0  0  0  0  0  0  0  0  0  0  0  0
   24.2181   16.2258   35.1816 C   0  0  1  0  0  0  0  0  0  0  0  0
   21.5255   14.7921   37.4607 O   0  0  0  0  0  0  0  0  0  0  0  0
   25.0252   16.9524   36.2506 C   0  0  1  0  0  0  0  0  0  0  0  0
   21.0889   12.5223   37.5121 O   0  0  0  0  0  0  0  0  0  0  0  0
   25.0907   16.0751   37.5464 C   0  0  0  0  0  0  0  0  0  0  0  0
   19.4517   12.4691   40.7988 O   0  0  0  0  0  0  0  0  0  0  0  0
   23.6188   15.8046   38.0437 C   0  0  1  0  0  0  0  0  0  0  0  0
   17.6459   14.0572   39.2733 O   0  0  0  0  0  0  0  0  0  0  0  0
   22.8408   15.0146   36.9757 C   0  0  2  0  0  0  0  0  0  0  0  0
   20.6532   13.8198   36.9127 C   0  0  1  0  0  0  0  0  0  0  0  0
   21.0035   12.4142   38.9960 C   0  0  2  0  0  0  0  0  0  0  0  0
   21.5179   11.0319   39.4096 C   0  0  0  0  0  0  0  0  0  0  0  0
   19.5535   12.5665   39.3980 C   0  0  2  0  0  0  0  0  0  0  0  0
   19.0218   13.9105   38.9032 C   0  0  1  0  0  0  0  0  0  0  0  0
   19.1592   13.9835   37.3625 C   0  0  1  0  0  0  0  0  0  0  0  0
  5  4  1  6  0  0  0
  5  8  1  0  0  0  0
  5 16  1  0  0  0  0
  8  7  1  6  0  0  0
  8 10  1  0  0  0  0
 10  1  1  6  0  0  0
 10 12  1  0  0  0  0
 11 18  1  0  0  0  0
 12 14  1  0  0  0  0
 14  2  1  1  0  0  0
 14 16  1  0  0  0  0
 16  9  1  1  0  0  0
 17  9  1  1  0  0  0
 17 11  1  0  0  0  0
 17 22  1  0  0  0  0
 18 19  1  6  0  0  0
 18 20  1  0  0  0  0
 19  3  1  0  0  0  0
 20 13  1  1  0  0  0
 20 21  1  0  0  0  0
 21 15  1  6  0  0  0
 21 22  1  0  0  0  0
 22  6  1  1  0  0  0
M  END
>  <CHROM.1>
80.09639968,80.04967053,71.91954646,21.88524494,14.46050959,37.51659669,-0.79715879
0.07468911,2.31837098

>  <Name>
2f4s_lig

>  <RI>
0

>  <Rbt.Current_Directory>
/home/itssahil/PROJECTS/Mol_Feturizer/New_Systems/rnas/2f4s

>  <Rbt.Executable>
rbdock ($Id: //depot/dev/client3/rdock/2013.1/src/exe/rbdock.cxx#4 $)

>  <Rbt.Library>
libRbt.so (2013.1, Build901 2013/11/27)

>  <Rbt.Parameter_File>
/export/apps/rDock/src/rDock_2013.1_src/data/scripts/dock_solv.prm

>  <Rbt.Receptor>
prm/pocket_docking_4.prm

>  <SCORE>
-13.3889

>  <SCORE.INTER>
-14.8628

>  <SCORE.INTER.CONST>
1

>  <SCORE.INTER.POLAR>
-0.979796

>  <SCORE.INTER.ROT>
3

>  <SCORE.INTER.SOLV>
19.3105

>  <SCORE.INTER.VDW>
-18.6794

>  <SCORE.INTER.norm>
-0.675583

>  <SCORE.INTRA>
1.47393

>  <SCORE.INTRA.DIHEDRAL>
2.53492

>  <SCORE.INTRA.DIHEDRAL.0>
1.67653

>  <SCORE.INTRA.POLAR>
0

>  <SCORE.INTRA.POLAR.0>
0

>  <SCORE.INTRA.REPUL>
0

>  <SCORE.INTRA.REPUL.0>
0

>  <SCORE.INTRA.SOLV>
0.953548

>  <SCORE.INTRA.SOLV.lig_0>
-76.6701

>  <SCORE.INTRA.VDW>
-0.270303

>  <SCORE.INTRA.VDW.0>
-1.53273

>  <SCORE.INTRA.norm>
0.0669967

>  <SCORE.RESTR>
0

>  <SCORE.RESTR.CAVITY>
0

>  <SCORE.RESTR.norm>
0

>  <SCORE.SYSTEM>
0

>  <SCORE.SYSTEM.CONST>
0

>  <SCORE.SYSTEM.DIHEDRAL>
0

>  <SCORE.SYSTEM.SOLV>
0

>  <SCORE.SYSTEM.norm>
0

>  <SCORE.heavy>
22

>  <SCORE.norm>
-0.608586

>  <RMSD>
0.542

$$$$
2f4s_lig
 OpenBabel11021811433D
libRbt.so/2013.1/901 2013/11/27
 22 23  0  0  0  0  0  0  0  0999 V2000
   26.4297   17.2179   35.7376 N   0  0  0  0  0  0  0  0  0  0  0  0
   23.7184   14.9667   39.3093 N   0  0  0  0  0  0  0  0  0  0  0  0
   23.0152   11.0433   39.2329 N   0  0  0  0  0  0  0  0  0  0  0  0
   22.0286   15.2498   34.6130 O   0  0  0  0  0  0  0  0  0  0  0  0
   22.7831   15.9119   35.6690 C   0  0  2  0  0  0  0  0  0  0  0  0
   18.5996   15.2938   36.8646 N   0  0  0  0  0  0  0  0  0  0  0  0
   24.2024   17.0440   34.0060 O   0  0  0  0  0  0  0  0  0  0  0  0
   24.2244   16.2222   35.1791 C   0  0  1  0  0  0  0  0  0  0  0  0
   21.5199   14.7969   37.4493 O   0  0  0  0  0  0  0  0  0  0  0  0
   25.0325   16.9428   36.2513 C   0  0  1  0  0  0  0  0  0  0  0  0
   21.0885   12.5262   37.5038 O   0  0  0  0  0  0  0  0  0  0  0  0
   25.0910   16.0627   37.5455 C   0  0  0  0  0  0  0  0  0  0  0  0
   19.4613   12.4719   40.7954 O   0  0  0  0  0  0  0  0  0  0  0  0
   23.6167   15.7982   38.0390 C   0  0  1  0  0  0  0  0  0  0  0  0
   17.6474   14.0547   39.2741 O   0  0  0  0  0  0  0  0  0  0  0  0
   22.8373   15.0140   36.9677 C   0  0  2  0  0  0  0  0  0  0  0  0
   20.6481   13.8221   36.9047 C   0  0  1  0  0  0  0  0  0  0  0  0
   21.0078   12.4190   38.9880 C   0  0  2  0  0  0  0  0  0  0  0  0
   21.5266   11.0382   39.4011 C   0  0  0  0  0  0  0  0  0  0  0  0
   19.5587   12.5684   39.3943 C   0  0  2  0  0  0  0  0  0  0  0  0
   19.0225   13.9108   38.9000 C   0  0  1  0  0  0  0  0  0  0  0  0
   19.1551   13.9829   37.3588 C   0  0  1  0  0  0  0  0  0  0  0  0
  5  4  1  6  0  0  0
  5  8  1  0  0  0  0
  5 16  1  0  0  0  0
  8  7  1  6  0  0  0
  8 10  1  0  0  0  0
 10  1  1  6  0  0  0
 10 12  1  0  0  0  0
 11 18  1  0  0  0  0
 12 14  1  0  0  0  0
 14  2  1  1  0  0  0
 14 16  1  0  0  0  0
 16  9  1  1  0  0  0
 17  9  1  1  0  0  0
 17 11  1  0  0  0  0
 17 22  1  0  0  0  0
 18 19  1  6  0  0  0
 18 20  1  0  0  0  0
 19  3  1  0  0  0  0
 20 13  1  1  0  0  0
 20 21  1  0  0  0  0
 21 15  1  6  0  0  0
 21 22  1  0  0  0  0
 22  6  1  1  0  0  0
M  END
>  <CHROM.1>
80.64019064,79.48869576,73.19602232,21.88742979,14.46034012,37.51304906,-0.79553935
0.07513227,2.31594946

>  <Name>
2f4s_lig

>  <RI>
0

>  <Rbt.Current_Directory>
/home/itssahil/PROJECTS/Mol_Feturizer/New_Systems/rnas/2f4s

>  <Rbt.Executable>
rbdock ($Id: //depot/dev/client3/rdock/2013.1/src/exe/rbdock.cxx#4 $)

>  <Rbt.Library>
libRbt.so (2013.1, Build901 2013/11/27)

>  <Rbt.Parameter_File>
/export/apps/rDock/src/rDock_2013.1_src/data/scripts/dock_solv.prm

>  <Rbt.Receptor>
prm/pocket_docking_4.prm

>  <SCORE>
-13.3883

>  <SCORE.INTER>
-14.9293

>  <SCORE.INTER.CONST>
1

>  <SCORE.INTER.POLAR>
-0.979796

>  <SCORE.INTER.ROT>
3

>  <SCORE.INTER.SOLV>
19.2429

>  <SCORE.INTER.VDW>
-18.7012

>  <SCORE.INTER.norm>
-0.678606

>  <SCORE.INTRA>
1.54099

>  <SCORE.INTRA.DIHEDRAL>
2.64397

>  <SCORE.INTRA.DIHEDRAL.0>
1.67653

>  <SCORE.INTRA.POLAR>
0

>  <SCORE.INTRA.POLAR.0>
0

>  <SCORE.INTRA.REPUL>
0

>  <SCORE.INTRA.REPUL.0>
0

>  <SCORE.INTRA.SOLV>
1.00669

>  <SCORE.INTRA.SOLV.lig_0>
-76.6701

>  <SCORE.INTRA.VDW>
-0.284335

>  <SCORE.INTRA.VDW.0>
-1.53273

>  <SCORE.INTRA.norm>
0.0700452

>  <SCORE.RESTR>
0

>  <SCORE.RESTR.CAVITY>
0

>  <SCORE.RESTR.norm>
0

>  <SCORE.SYSTEM>
0

>  <SCORE.SYSTEM.CONST>
0

>  <SCORE.SYSTEM.DIHEDRAL>
0

>  <SCORE.SYSTEM.SOLV>
0

>  <SCORE.SYSTEM.norm>
0

>  <SCORE.heavy>
22

>  <SCORE.norm>
-0.608561

>  <RMSD>
0.543

$$$$
2f4s_lig
 OpenBabel11021811433D
libRbt.so/2013.1/901 2013/11/27
 22 23  0  0  0  0  0  0  0  0999 V2000
   26.4167   17.2274   35.7326 N   0  0  0  0  0  0  0  0  0  0  0  0
   23.7241   14.9612   39.3089 N   0  0  0  0  0  0  0  0  0  0  0  0
   23.0094   11.0224   39.2060 N   0  0  0  0  0  0  0  0  0  0  0  0
   22.0168   15.2503   34.6193 O   0  0  0  0  0  0  0  0  0  0  0  0
   22.7734   15.9121   35.6741 C   0  0  2  0  0  0  0  0  0  0  0  0
   18.5992   15.2904   36.8739 N   0  0  0  0  0  0  0  0  0  0  0  0
   24.1838   17.0516   34.0086 O   0  0  0  0  0  0  0  0  0  0  0  0
   24.2121   16.2272   35.1797 C   0  0  1  0  0  0  0  0  0  0  0  0
   21.5194   14.7898   37.4564 O   0  0  0  0  0  0  0  0  0  0  0  0
   25.0221   16.9476   36.2507 C   0  0  1  0  0  0  0  0  0  0  0  0
   21.0863   12.5193   37.5057 O   0  0  0  0  0  0  0  0  0  0  0  0
   25.0875   16.0647   37.5427 C   0  0  0  0  0  0  0  0  0  0  0  0
   19.4603   12.4586   40.7978 O   0  0  0  0  0  0  0  0  0  0  0  0
   23.6156   15.7953   38.0409 C   0  0  1  0  0  0  0  0  0  0  0  0
   17.6470   14.0464   39.2809 O   0  0  0  0  0  0  0  0  0  0  0  0
   22.8345   15.0114   36.9706 C   0  0  2  0  0  0  0  0  0  0  0  0
   20.6467   13.8170   36.9098 C   0  0  1  0  0  0  0  0  0  0  0  0
   21.0060   12.4087   38.9897 C   0  0  2  0  0  0  0  0  0  0  0  0
   21.5238   11.0266   39.3994 C   0  0  0  0  0  0  0  0  0  0  0  0
   19.5572   12.5583   39.3969 C   0  0  2  0  0  0  0  0  0  0  0  0
   19.0218   13.9022   38.9059 C   0  0  1  0  0  0  0  0  0  0  0  0
   19.1539   13.9779   37.3649 C   0  0  1  0  0  0  0  0  0  0  0  0
  5  4  1  6  0  0  0
  5  8  1  0  0  0  0
  5 16  1  0  0  0  0
  8  7  1  6  0  0  0
  8 10  1  0  0  0  0
 10  1  1  6  0  0  0
 10 12  1  0  0  0  0
 11 18  1  0  0  0  0
 12 14  1  0  0  0  0
 14  2  1  1  0  0  0
 14 16  1  0  0  0  0
 16  9  1  1  0  0  0
 17  9  1  1  0  0  0
 17 11  1  0  0  0  0
 17 22  1  0  0  0  0
 18 19  1  6  0  0  0
 18 20  1  0  0  0  0
 19  3  1  0  0  0  0
 20 13  1  1  0  0  0
 20 21  1  0  0  0  0
 21 15  1  6  0  0  0
 21 22  1  0  0  0  0
 22  6  1  1  0  0  0
M  END
>  <CHROM.1>
80.42388540,79.80267356,72.14670324,21.88296428,14.45611518,37.51451434,-0.79815062
0.07342124,2.32015309

>  <Name>
2f4s_lig

>  <RI>
0

>  <Rbt.Current_Directory>
/home/itssahil/PROJECTS/Mol_Feturizer/New_Systems/rnas/2f4s

>  <Rbt.Executable>
rbdock ($Id: //depot/dev/client3/rdock/2013.1/src/exe/rbdock.cxx#4 $)

>  <Rbt.Library>
libRbt.so (2013.1, Build901 2013/11/27)

>  <Rbt.Parameter_File>
/export/apps/rDock/src/rDock_2013.1_src/data/scripts/dock_solv.prm

>  <Rbt.Receptor>
prm/pocket_docking_4.prm

>  <SCORE>
-13.3926

>  <SCORE.INTER>
-14.8917

>  <SCORE.INTER.CONST>
1

>  <SCORE.INTER.POLAR>
-0.979796

>  <SCORE.INTER.ROT>
3

>  <SCORE.INTER.SOLV>
19.3419

>  <SCORE.INTER.VDW>
-18.7091

>  <SCORE.INTER.norm>
-0.676896

>  <SCORE.INTRA>
1.49908

>  <SCORE.INTRA.DIHEDRAL>
2.56793

>  <SCORE.INTRA.DIHEDRAL.0>
1.67653

>  <SCORE.INTRA.POLAR>
0

>  <SCORE.INTRA.POLAR.0>
0

>  <SCORE.INTRA.REPUL>
0

>  <SCORE.INTRA.REPUL.0>
0

>  <SCORE.INTRA.SOLV>
0.986157

>  <SCORE.INTRA.SOLV.lig_0>
-76.6701

>  <SCORE.INTRA.VDW>
-0.277969

>  <SCORE.INTRA.VDW.0>
-1.53273

>  <SCORE.INTRA.norm>
0.0681398

>  <SCORE.RESTR>
0

>  <SCORE.RESTR.CAVITY>
0

>  <SCORE.RESTR.norm>
0

>  <SCORE.SYSTEM>
0

>  <SCORE.SYSTEM.CONST>
0

>  <SCORE.SYSTEM.DIHEDRAL>
0

>  <SCORE.SYSTEM.SOLV>
0

>  <SCORE.SYSTEM.norm>
0

>  <SCORE.heavy>
22

>  <SCORE.norm>
-0.608756

>  <RMSD>
0.543

$$$$
2f4s_lig
 OpenBabel11021811433D
libRbt.so/2013.1/901 2013/11/27
 22 23  0  0  0  0  0  0  0  0999 V2000
   26.4260   17.2143   35.7350 N   0  0  0  0  0  0  0  0  0  0  0  0
   23.7226   14.9649   39.3137 N   0  0  0  0  0  0  0  0  0  0  0  0
   23.0008   11.0185   39.2150 N   0  0  0  0  0  0  0  0  0  0  0  0
   22.0243   15.2422   34.6201 O   0  0  0  0  0  0  0  0  0  0  0  0
   22.7803   15.9059   35.6742 C   0  0  2  0  0  0  0  0  0  0  0  0
   18.6023   15.3078   36.8810 N   0  0  0  0  0  0  0  0  0  0  0  0
   24.1958   17.0373   34.0075 O   0  0  0  0  0  0  0  0  0  0  0  0
   24.2205   16.2167   35.1814 C   0  0  1  0  0  0  0  0  0  0  0  0
   21.5209   14.7918   37.4578 O   0  0  0  0  0  0  0  0  0  0  0  0
   25.0299   16.9389   36.2515 C   0  0  1  0  0  0  0  0  0  0  0  0
   21.0785   12.5228   37.4940 O   0  0  0  0  0  0  0  0  0  0  0  0
   25.0913   16.0600   37.5464 C   0  0  0  0  0  0  0  0  0  0  0  0
   19.4552   12.4491   40.7872 O   0  0  0  0  0  0  0  0  0  0  0  0
   23.6180   15.7951   38.0428 C   0  0  1  0  0  0  0  0  0  0  0  0
   17.6471   14.0534   39.2814 O   0  0  0  0  0  0  0  0  0  0  0  0
   22.8373   15.0093   36.9736 C   0  0  2  0  0  0  0  0  0  0  0  0
   20.6437   13.8259   36.9063 C   0  0  1  0  0  0  0  0  0  0  0  0
   20.9991   12.4037   38.9774 C   0  0  2  0  0  0  0  0  0  0  0  0
   21.5116   11.0171   39.3784 C   0  0  0  0  0  0  0  0  0  0  0  0
   19.5513   12.5568   39.3867 C   0  0  2  0  0  0  0  0  0  0  0  0
   19.0210   13.9059   38.9043 C   0  0  1  0  0  0  0  0  0  0  0  0
   19.1520   13.9901   37.3636 C   0  0  1  0  0  0  0  0  0  0  0  0
  5  4  1  6  0  0  0
  5  8  1  0  0  0  0
  5 16  1  0  0  0  0
  8  7  1  6  0  0  0
  8 10  1  0  0  0  0
 10  1  1  6  0  0  0
 10 12  1  0  0  0  0
 11 18  1  0  0  0  0
 12 14  1  0  0  0  0
 14  2  1  1  0  0  0
 14 16  1  0  0  0  0
 16  9  1  1  0  0  0
 17  9  1  1  0  0  0
 17 11  1  0  0  0  0
 17 22  1  0  0  0  0
 18 19  1  6  0  0  0
 18 20  1  0  0  0  0
 19  3  1  0  0  0  0
 20 13  1  1  0  0  0
 20 21  1  0  0  0  0
 21 15  1  6  0  0  0
 21 22  1  0  0  0  0
 22  6  1  1  0  0  0
M  END
>  <CHROM.1>
79.93275353,79.68838763,73.48462320,21.88351945,14.45427195,37.51282270,-0.79558019
0.07151758,2.32153557

>  <Name>
2f4s_lig

>  <RI>
0

>  <Rbt.Current_Directory>
/home/itssahil/PROJECTS/Mol_Feturizer/New_Systems/rnas/2f4s

>  <Rbt.Executable>
rbdock ($Id: //depot/dev/client3/rdock/2013.1/src/exe/rbdock.cxx#4 $)

>  <Rbt.Library>
libRbt.so (2013.1, Build901 2013/11/27)

>  <Rbt.Parameter_File>
/export/apps/rDock/src/rDock_2013.1_src/data/scripts/dock_solv.prm

>  <Rbt.Receptor>
prm/pocket_docking_2.prm

>  <SCORE>
-13.3867

>  <SCORE.INTER>
-14.8765

>  <SCORE.INTER.CONST>
1

>  <SCORE.INTER.POLAR>
-0.979796

>  <SCORE.INTER.ROT>
3

>  <SCORE.INTER.SOLV>
19.3751

>  <SCORE.INTER.VDW>
-18.71

>  <SCORE.INTER.norm>
-0.676204

>  <SCORE.INTRA>
1.48975

>  <SCORE.INTRA.DIHEDRAL>
2.58541

>  <SCORE.INTRA.DIHEDRAL.0>
1.67653

>  <SCORE.INTRA.POLAR>
0

>  <SCORE.INTRA.POLAR.0>
0

>  <SCORE.INTRA.REPUL>
0

>  <SCORE.INTRA.REPUL.0>
0

>  <SCORE.INTRA.SOLV>
0.931885

>  <SCORE.INTRA.SOLV.lig_0>
-76.6701

>  <SCORE.INTRA.VDW>
-0.268903

>  <SCORE.INTRA.VDW.0>
-1.53273

>  <SCORE.INTRA.norm>
0.0677157

>  <SCORE.RESTR>
0

>  <SCORE.RESTR.CAVITY>
0

>  <SCORE.RESTR.norm>
0

>  <SCORE.SYSTEM>
0

>  <SCORE.SYSTEM.CONST>
0

>  <SCORE.SYSTEM.DIHEDRAL>
0

>  <SCORE.SYSTEM.SOLV>
0

>  <SCORE.SYSTEM.norm>
0

>  <SCORE.heavy>
22

>  <SCORE.norm>
-0.608488

>  <RMSD>
0.544

$$$$
2f4s_lig
 OpenBabel11021811433D
libRbt.so/2013.1/901 2013/11/27
 22 23  0  0  0  0  0  0  0  0999 V2000
   26.4048   17.2482   35.7295 N   0  0  0  0  0  0  0  0  0  0  0  0
   23.7381   14.9727   39.3193 N   0  0  0  0  0  0  0  0  0  0  0  0
   23.0762   11.0250   39.2229 N   0  0  0  0  0  0  0  0  0  0  0  0
   22.0132   15.2424   34.6351 O   0  0  0  0  0  0  0  0  0  0  0  0
   22.7693   15.9107   35.6860 C   0  0  2  0  0  0  0  0  0  0  0  0
   18.5971   15.2742   36.9402 N   0  0  0  0  0  0  0  0  0  0  0  0
   24.1671   17.0555   34.0135 O   0  0  0  0  0  0  0  0  0  0  0  0
   24.2044   16.2336   35.1861 C   0  0  1  0  0  0  0  0  0  0  0  0
   21.5282   14.7843   37.4747 O   0  0  0  0  0  0  0  0  0  0  0  0
   25.0137   16.9609   36.2529 C   0  0  1  0  0  0  0  0  0  0  0  0
   21.1110   12.5104   37.4927 O   0  0  0  0  0  0  0  0  0  0  0  0
   25.0888   16.0810   37.5463 C   0  0  0  0  0  0  0  0  0  0  0  0
   19.5306   12.3849   40.8052 O   0  0  0  0  0  0  0  0  0  0  0  0
   23.6203   15.8036   38.0501 C   0  0  1  0  0  0  0  0  0  0  0  0
   17.6862   13.9847   39.3392 O   0  0  0  0  0  0  0  0  0  0  0  0
   22.8403   15.0130   36.9840 C   0  0  2  0  0  0  0  0  0  0  0  0
   20.6546   13.8146   36.9242 C   0  0  1  0  0  0  0  0  0  0  0  0
   21.0518   12.3752   38.9757 C   0  0  2  0  0  0  0  0  0  0  0  0
   21.5844   10.9902   39.3557 C   0  0  0  0  0  0  0  0  0  0  0  0
   19.6077   12.5081   39.4049 C   0  0  2  0  0  0  0  0  0  0  0  0
   19.0567   13.8561   38.9433 C   0  0  1  0  0  0  0  0  0  0  0  0
   19.1672   13.9577   37.4020 C   0  0  1  0  0  0  0  0  0  0  0  0
  5  4  1  6  0  0  0
  5  8  1  0  0  0  0
  5 16  1  0  0  0  0
  8  7  1  6  0  0  0
  8 10  1  0  0  0  0
 10  1  1  6  0  0  0
 10 12  1  0  0  0  0
 11 18  1  0  0  0  0
 12 14  1  0  0  0  0
 14  2  1  1  0  0  0
 14 16  1  0  0  0  0
 16  9  1  1  0  0  0
 17  9  1  1  0  0  0
 17 11  1  0  0  0  0
 17 22  1  0  0  0  0
 18 19  1  6  0  0  0
 18 20  1  0  0  0  0
 19  3  1  0  0  0  0
 20 13  1  1  0  0  0
 20 21  1  0  0  0  0
 21 15  1  6  0  0  0
 21 22  1  0  0  0  0
 22  6  1  1  0  0  0
M  END
>  <CHROM.1>
79.76008454,79.10391745,75.56837560,21.90108731,14.44292137,37.52680703,-0.80747414
0.07303694,2.32690434

>  <Name>
2f4s_lig

>  <RI>
2.46955e+07

>  <Rbt.Current_Directory>
/home/itssahil/PROJECTS/Mol_Feturizer/New_Systems/rnas/2f4s

>  <Rbt.Executable>
rbdock ($Id: //depot/dev/client3/rdock/2013.1/src/exe/rbdock.cxx#4 $)

>  <Rbt.Library>
libRbt.so (2013.1, Build901 2013/11/27)

>  <Rbt.Parameter_File>
/export/apps/rDock/src/rDock_2013.1_src/data/scripts/dock_solv.prm

>  <Rbt.Receptor>
prm/pocket_docking_3.prm

>  <SCORE>
-13.3831

>  <SCORE.INTER>
-14.9012

>  <SCORE.INTER.CONST>
1

>  <SCORE.INTER.POLAR>
-0.979796

>  <SCORE.INTER.ROT>
3

>  <SCORE.INTER.SOLV>
19.4106

>  <SCORE.INTER.VDW>
-18.7383

>  <SCORE.INTER.norm>
-0.677327

>  <SCORE.INTRA>
1.51805

>  <SCORE.INTRA.DIHEDRAL>
2.66581

>  <SCORE.INTRA.DIHEDRAL.0>
1.67653

>  <SCORE.INTRA.POLAR>
0

>  <SCORE.INTRA.POLAR.0>
0

>  <SCORE.INTRA.REPUL>
0

>  <SCORE.INTRA.REPUL.0>
0

>  <SCORE.INTRA.SOLV>
0.90499

>  <SCORE.INTRA.SOLV.lig_0>
-76.6701

>  <SCORE.INTRA.VDW>
-0.267345

>  <SCORE.INTRA.VDW.0>
-1.53273

>  <SCORE.INTRA.norm>
0.0690024

>  <SCORE.RESTR>
0

>  <SCORE.RESTR.CAVITY>
0

>  <SCORE.RESTR.norm>
0

>  <SCORE.SYSTEM>
0

>  <SCORE.SYSTEM.CONST>
0

>  <SCORE.SYSTEM.DIHEDRAL>
0

>  <SCORE.SYSTEM.SOLV>
0

>  <SCORE.SYSTEM.norm>
0

>  <SCORE.heavy>
22

>  <SCORE.norm>
-0.608324

>  <RMSD>
0.544

$$$$
2f4s_lig
 OpenBabel11021811433D
libRbt.so/2013.1/901 2013/11/27
 22 23  0  0  0  0  0  0  0  0999 V2000
   26.4258   17.2251   35.7378 N   0  0  0  0  0  0  0  0  0  0  0  0
   23.7333   14.9651   39.3182 N   0  0  0  0  0  0  0  0  0  0  0  0
   23.0056   11.0246   39.2288 N   0  0  0  0  0  0  0  0  0  0  0  0
   22.0249   15.2479   34.6286 O   0  0  0  0  0  0  0  0  0  0  0  0
   22.7820   15.9109   35.6822 C   0  0  2  0  0  0  0  0  0  0  0  0
   18.6103   15.2989   36.8779 N   0  0  0  0  0  0  0  0  0  0  0  0
   24.1923   17.0475   34.0147 O   0  0  0  0  0  0  0  0  0  0  0  0
   24.2207   16.2248   35.1870 C   0  0  1  0  0  0  0  0  0  0  0  0
   21.5281   14.7916   37.4665 O   0  0  0  0  0  0  0  0  0  0  0  0
   25.0312   16.9465   36.2567 C   0  0  1  0  0  0  0  0  0  0  0  0
   21.0890   12.5224   37.5184 O   0  0  0  0  0  0  0  0  0  0  0  0
   25.0966   16.0655   37.5500 C   0  0  0  0  0  0  0  0  0  0  0  0
   19.4567   12.4707   40.8075 O   0  0  0  0  0  0  0  0  0  0  0  0
   23.6248   15.7973   38.0490 C   0  0  1  0  0  0  0  0  0  0  0  0
   17.6503   14.0610   39.2849 O   0  0  0  0  0  0  0  0  0  0  0  0
   22.8432   15.0121   36.9800 C   0  0  2  0  0  0  0  0  0  0  0  0
   20.6539   13.8203   36.9198 C   0  0  1  0  0  0  0  0  0  0  0  0
   21.0057   12.4142   39.0024 C   0  0  2  0  0  0  0  0  0  0  0  0
   21.5192   11.0313   39.4151 C   0  0  0  0  0  0  0  0  0  0  0  0
   19.5565   12.5681   39.4066 C   0  0  2  0  0  0  0  0  0  0  0  0
   19.0255   13.9127   38.9127 C   0  0  1  0  0  0  0  0  0  0  0  0
   19.1607   13.9857   37.3718 C   0  0  1  0  0  0  0  0  0  0  0  0
  5  4  1  6  0  0  0
  5  8  1  0  0  0  0
  5 16  1  0  0  0  0
  8  7  1  6  0  0  0
  8 10  1  0  0  0  0
 10  1  1  6  0  0  0
 10 12  1  0  0  0  0
 11 18  1  0  0  0  0
 12 14  1  0  0  0  0
 14  2  1  1  0  0  0
 14 16  1  0  0  0  0
 16  9  1  1  0  0  0
 17  9  1  1  0  0  0
 17 11  1  0  0  0  0
 17 22  1  0  0  0  0
 18 19  1  6  0  0  0
 18 20  1  0  0  0  0
 19  3  1  0  0  0  0
 20 13  1  1  0  0  0
 20 21  1  0  0  0  0
 21 15  1  6  0  0  0
 21 22  1  0  0  0  0
 22  6  1  1  0  0  0
M  END
>  <CHROM.1>
80.28476100,80.01295562,72.32969996,21.88829853,14.45969175,37.52366145,-0.79709252
0.07307736,2.31864297

>  <Name>
2f4s_lig

>  <RI>
0

>  <Rbt.Current_Directory>
/home/itssahil/PROJECTS/Mol_Feturizer/New_Systems/rnas/2f4s

>  <Rbt.Executable>
rbdock ($Id: //depot/dev/client3/rdock/2013.1/src/exe/rbdock.cxx#4 $)

>  <Rbt.Library>
libRbt.so (2013.1, Build901 2013/11/27)

>  <Rbt.Parameter_File>
/export/apps/rDock/src/rDock_2013.1_src/data/scripts/dock_solv.prm

>  <Rbt.Receptor>
prm/pocket_docking_5.prm

>  <SCORE>
-13.3888

>  <SCORE.INTER>
-14.8977

>  <SCORE.INTER.CONST>
1

>  <SCORE.INTER.POLAR>
-0.979796

>  <SCORE.INTER.ROT>
3

>  <SCORE.INTER.SOLV>
19.272

>  <SCORE.INTER.VDW>
-18.6898

>  <SCORE.INTER.norm>
-0.677167

>  <SCORE.INTRA>
1.50885

>  <SCORE.INTRA.DIHEDRAL>
2.59347

>  <SCORE.INTRA.DIHEDRAL.0>
1.67653

>  <SCORE.INTRA.POLAR>
0

>  <SCORE.INTRA.POLAR.0>
0

>  <SCORE.INTRA.REPUL>
0

>  <SCORE.INTRA.REPUL.0>
0

>  <SCORE.INTRA.SOLV>
0.974592

>  <SCORE.INTRA.SOLV.lig_0>
-76.6701

>  <SCORE.INTRA.VDW>
-0.275178

>  <SCORE.INTRA.VDW.0>
-1.53273

>  <SCORE.INTRA.norm>
0.0685841

>  <SCORE.RESTR>
0

>  <SCORE.RESTR.CAVITY>
0

>  <SCORE.RESTR.norm>
0

>  <SCORE.SYSTEM>
0

>  <SCORE.SYSTEM.CONST>
0

>  <SCORE.SYSTEM.DIHEDRAL>
0

>  <SCORE.SYSTEM.SOLV>
0

>  <SCORE.SYSTEM.norm>
0

>  <SCORE.heavy>
22

>  <SCORE.norm>
-0.608582

>  <RMSD>
0.544

$$$$
2f4s_lig
 OpenBabel11021811433D
libRbt.so/2013.1/901 2013/11/27
 22 23  0  0  0  0  0  0  0  0999 V2000
   26.4180   17.2322   35.7372 N   0  0  0  0  0  0  0  0  0  0  0  0
   23.7302   14.9610   39.3140 N   0  0  0  0  0  0  0  0  0  0  0  0
   23.0022   11.0191   39.2212 N   0  0  0  0  0  0  0  0  0  0  0  0
   22.0187   15.2525   34.6261 O   0  0  0  0  0  0  0  0  0  0  0  0
   22.7757   15.9140   35.6808 C   0  0  2  0  0  0  0  0  0  0  0  0
   18.6064   15.2986   36.8760 N   0  0  0  0  0  0  0  0  0  0  0  0
   24.1837   17.0560   34.0150 O   0  0  0  0  0  0  0  0  0  0  0  0
   24.2137   16.2307   35.1854 C   0  0  1  0  0  0  0  0  0  0  0  0
   21.5241   14.7893   37.4632 O   0  0  0  0  0  0  0  0  0  0  0  0
   25.0241   16.9508   36.2563 C   0  0  1  0  0  0  0  0  0  0  0  0
   21.0848   12.5199   37.5078 O   0  0  0  0  0  0  0  0  0  0  0  0
   25.0912   16.0669   37.5475 C   0  0  0  0  0  0  0  0  0  0  0  0
   19.4523   12.4578   40.7967 O   0  0  0  0  0  0  0  0  0  0  0  0
   23.6200   15.7960   38.0467 C   0  0  1  0  0  0  0  0  0  0  0  0
   17.6462   14.0531   39.2789 O   0  0  0  0  0  0  0  0  0  0  0  0
   22.8386   15.0123   36.9765 C   0  0  2  0  0  0  0  0  0  0  0  0
   20.6498   13.8198   36.9133 C   0  0  1  0  0  0  0  0  0  0  0  0
   21.0014   12.4070   38.9915 C   0  0  2  0  0  0  0  0  0  0  0  0
   21.5147   11.0228   39.3998 C   0  0  0  0  0  0  0  0  0  0  0  0
   19.5522   12.5597   39.3961 C   0  0  2  0  0  0  0  0  0  0  0  0
   19.0213   13.9059   38.9064 C   0  0  1  0  0  0  0  0  0  0  0  0
   19.1566   13.9838   37.3657 C   0  0  1  0  0  0  0  0  0  0  0  0
  5  4  1  6  0  0  0
  5  8  1  0  0  0  0
  5 16  1  0  0  0  0
  8  7  1  6  0  0  0
  8 10  1  0  0  0  0
 10  1  1  6  0  0  0
 10 12  1  0  0  0  0
 11 18  1  0  0  0  0
 12 14  1  0  0  0  0
 14  2  1  1  0  0  0
 14 16  1  0  0  0  0
 16  9  1  1  0  0  0
 17  9  1  1  0  0  0
 17 11  1  0  0  0  0
 17 22  1  0  0  0  0
 18 19  1  6  0  0  0
 18 20  1  0  0  0  0
 19  3  1  0  0  0  0
 20 13  1  1  0  0  0
 20 21  1  0  0  0  0
 21 15  1  6  0  0  0
 21 22  1  0  0  0  0
 22  6  1  1  0  0  0
M  END
>  <CHROM.1>
80.17463139,80.09396063,72.65512714,21.88328236,14.45805647,37.51844895,-0.79787398
0.07347947,2.32134090

>  <Name>
2f4s_lig

>  <RI>
2.46955e+07

>  <Rbt.Current_Directory>
/home/itssahil/PROJECTS/Mol_Feturizer/New_Systems/rnas/2f4s

>  <Rbt.Executable>
rbdock ($Id: //depot/dev/client3/rdock/2013.1/src/exe/rbdock.cxx#4 $)

>  <Rbt.Library>
libRbt.so (2013.1, Build901 2013/11/27)

>  <Rbt.Parameter_File>
/export/apps/rDock/src/rDock_2013.1_src/data/scripts/dock_solv.prm

>  <Rbt.Receptor>
prm/pocket_docking_3.prm

>  <SCORE>
-13.3923

>  <SCORE.INTER>
-14.9091

>  <SCORE.INTER.CONST>
1

>  <SCORE.INTER.POLAR>
-0.979796

>  <SCORE.INTER.ROT>
3

>  <SCORE.INTER.SOLV>
19.2883

>  <SCORE.INTER.VDW>
-18.7028

>  <SCORE.INTER.norm>
-0.677685

>  <SCORE.INTRA>
1.51681

>  <SCORE.INTRA.DIHEDRAL>
2.61578

>  <SCORE.INTRA.DIHEDRAL.0>
1.67653

>  <SCORE.INTRA.POLAR>
0

>  <SCORE.INTRA.POLAR.0>
0

>  <SCORE.INTRA.REPUL>
0

>  <SCORE.INTRA.REPUL.0>
0

>  <SCORE.INTRA.SOLV>
0.964291

>  <SCORE.INTRA.SOLV.lig_0>
-76.6701

>  <SCORE.INTRA.VDW>
-0.273222

>  <SCORE.INTRA.VDW.0>
-1.53273

>  <SCORE.INTRA.norm>
0.0689461

>  <SCORE.RESTR>
0

>  <SCORE.RESTR.CAVITY>
0

>  <SCORE.RESTR.norm>
0

>  <SCORE.SYSTEM>
0

>  <SCORE.SYSTEM.CONST>
0

>  <SCORE.SYSTEM.DIHEDRAL>
0

>  <SCORE.SYSTEM.SOLV>
0

>  <SCORE.SYSTEM.norm>
0

>  <SCORE.heavy>
22

>  <SCORE.norm>
-0.608739

>  <RMSD>
0.545

$$$$
2f4s_lig
 OpenBabel11021811433D
libRbt.so/2013.1/901 2013/11/27
 22 23  0  0  0  0  0  0  0  0999 V2000
   26.4281   17.2203   35.7413 N   0  0  0  0  0  0  0  0  0  0  0  0
   23.7169   14.9623   39.3088 N   0  0  0  0  0  0  0  0  0  0  0  0
   23.0354   11.0453   39.2106 N   0  0  0  0  0  0  0  0  0  0  0  0
   22.0279   15.2526   34.6126 O   0  0  0  0  0  0  0  0  0  0  0  0
   22.7820   15.9132   35.6699 C   0  0  2  0  0  0  0  0  0  0  0  0
   18.5944   15.2732   36.8682 N   0  0  0  0  0  0  0  0  0  0  0  0
   24.2013   17.0485   34.0090 O   0  0  0  0  0  0  0  0  0  0  0  0
   24.2233   16.2248   35.1808 C   0  0  1  0  0  0  0  0  0  0  0  0
   21.5188   14.7948   37.4481 O   0  0  0  0  0  0  0  0  0  0  0  0
   25.0309   16.9439   36.2543 C   0  0  1  0  0  0  0  0  0  0  0  0
   21.1004   12.5220   37.5117 O   0  0  0  0  0  0  0  0  0  0  0  0
   25.0894   16.0616   37.5471 C   0  0  0  0  0  0  0  0  0  0  0  0
   19.4809   12.4703   40.8071 O   0  0  0  0  0  0  0  0  0  0  0  0
   23.6151   15.7959   38.0399 C   0  0  1  0  0  0  0  0  0  0  0  0
   17.6546   14.0374   39.2843 O   0  0  0  0  0  0  0  0  0  0  0  0
   22.8362   15.0132   36.9671 C   0  0  2  0  0  0  0  0  0  0  0  0
   20.6513   13.8132   36.9089 C   0  0  1  0  0  0  0  0  0  0  0  0
   21.0236   12.4196   38.9964 C   0  0  2  0  0  0  0  0  0  0  0  0
   21.5511   11.0433   39.4133 C   0  0  0  0  0  0  0  0  0  0  0  0
   19.5746   12.5623   39.4054 C   0  0  2  0  0  0  0  0  0  0  0  0
   19.0297   13.8999   38.9076 C   0  0  1  0  0  0  0  0  0  0  0  0
   19.1584   13.9672   37.3659 C   0  0  1  0  0  0  0  0  0  0  0  0
  5  4  1  6  0  0  0
  5  8  1  0  0  0  0
  5 16  1  0  0  0  0
  8  7  1  6  0  0  0
  8 10  1  0  0  0  0
 10  1  1  6  0  0  0
 10 12  1  0  0  0  0
 11 18  1  0  0  0  0
 12 14  1  0  0  0  0
 14  2  1  1  0  0  0
 14 16  1  0  0  0  0
 16  9  1  1  0  0  0
 17  9  1  1  0  0  0
 17 11  1  0  0  0  0
 17 22  1  0  0  0  0
 18 19  1  6  0  0  0
 18 20  1  0  0  0  0
 19  3  1  0  0  0  0
 20 13  1  1  0  0  0
 20 21  1  0  0  0  0
 21 15  1  6  0  0  0
 21 22  1  0  0  0  0
 22  6  1  1  0  0  0
M  END
>  <CHROM.1>
81.17540422,79.16695510,71.86521865,21.89248172,14.45703758,37.51644551,-0.79742022
0.07606881,2.31521664

>  <Name>
2f4s_lig

>  <RI>
0

>  <Rbt.Current_Directory>
/home/itssahil/PROJECTS/Mol_Feturizer/New_Systems/rnas/2f4s

>  <Rbt.Executable>
rbdock ($Id: //depot/dev/client3/rdock/2013.1/src/exe/rbdock.cxx#4 $)

>  <Rbt.Library>
libRbt.so (2013.1, Build901 2013/11/27)

>  <Rbt.Parameter_File>
/export/apps/rDock/src/rDock_2013.1_src/data/scripts/dock_solv.prm

>  <Rbt.Receptor>
prm/pocket_docking_4.prm

>  <SCORE>
-13.3759

>  <SCORE.INTER>
-14.8962

>  <SCORE.INTER.CONST>
1

>  <SCORE.INTER.POLAR>
-0.979796

>  <SCORE.INTER.ROT>
3

>  <SCORE.INTER.SOLV>
19.2998

>  <SCORE.INTER.VDW>
-18.6981

>  <SCORE.INTER.norm>
-0.677101

>  <SCORE.INTRA>
1.52036

>  <SCORE.INTRA.DIHEDRAL>
2.57059

>  <SCORE.INTRA.DIHEDRAL.0>
1.67653

>  <SCORE.INTRA.POLAR>
0

>  <SCORE.INTRA.POLAR.0>
0

>  <SCORE.INTRA.REPUL>
0

>  <SCORE.INTRA.REPUL.0>
0

>  <SCORE.INTRA.SOLV>
1.05817

>  <SCORE.INTRA.SOLV.lig_0>
-76.6701

>  <SCORE.INTRA.VDW>
-0.294027

>  <SCORE.INTRA.VDW.0>
-1.53273

>  <SCORE.INTRA.norm>
0.0691071

>  <SCORE.RESTR>
0

>  <SCORE.RESTR.CAVITY>
0

>  <SCORE.RESTR.norm>
0

>  <SCORE.SYSTEM>
0

>  <SCORE.SYSTEM.CONST>
0

>  <SCORE.SYSTEM.DIHEDRAL>
0

>  <SCORE.SYSTEM.SOLV>
0

>  <SCORE.SYSTEM.norm>
0

>  <SCORE.heavy>
22

>  <SCORE.norm>
-0.607994

>  <RMSD>
0.545

$$$$
2f4s_lig
 OpenBabel11021811433D
libRbt.so/2013.1/901 2013/11/27
 22 23  0  0  0  0  0  0  0  0999 V2000
   26.4045   17.2432   35.7295 N   0  0  0  0  0  0  0  0  0  0  0  0
   23.7239   14.9699   39.3103 N   0  0  0  0  0  0  0  0  0  0  0  0
   23.0121   11.0359   39.2476 N   0  0  0  0  0  0  0  0  0  0  0  0
   22.0129   15.2452   34.6213 O   0  0  0  0  0  0  0  0  0  0  0  0
   22.7670   15.9117   35.6748 C   0  0  2  0  0  0  0  0  0  0  0  0
   18.6000   15.2778   36.8636 N   0  0  0  0  0  0  0  0  0  0  0  0
   24.1715   17.0552   34.0070 O   0  0  0  0  0  0  0  0  0  0  0  0
   24.2041   16.2326   35.1792 C   0  0  1  0  0  0  0  0  0  0  0  0
   21.5190   14.7863   37.4592 O   0  0  0  0  0  0  0  0  0  0  0  0
   25.0115   16.9579   36.2488 C   0  0  1  0  0  0  0  0  0  0  0  0
   21.0904   12.5152   37.5185 O   0  0  0  0  0  0  0  0  0  0  0  0
   25.0814   16.0771   37.5419 C   0  0  0  0  0  0  0  0  0  0  0  0
   19.4525   12.4678   40.8050 O   0  0  0  0  0  0  0  0  0  0  0  0
   23.6111   15.8018   38.0413 C   0  0  1  0  0  0  0  0  0  0  0  0
   17.6415   14.0441   39.2734 O   0  0  0  0  0  0  0  0  0  0  0  0
   22.8329   15.0131   36.9724 C   0  0  2  0  0  0  0  0  0  0  0  0
   20.6503   13.8089   36.9145 C   0  0  1  0  0  0  0  0  0  0  0  0
   21.0049   12.4119   39.0028 C   0  0  2  0  0  0  0  0  0  0  0  0
   21.5241   11.0330   39.4214 C   0  0  0  0  0  0  0  0  0  0  0  0
   19.5543   12.5606   39.4039 C   0  0  2  0  0  0  0  0  0  0  0  0
   19.0180   13.9009   38.9042 C   0  0  1  0  0  0  0  0  0  0  0  0
   19.1555   13.9690   37.3633 C   0  0  1  0  0  0  0  0  0  0  0  0
  5  4  1  6  0  0  0
  5  8  1  0  0  0  0
  5 16  1  0  0  0  0
  8  7  1  6  0  0  0
  8 10  1  0  0  0  0
 10  1  1  6  0  0  0
 10 12  1  0  0  0  0
 11 18  1  0  0  0  0
 12 14  1  0  0  0  0
 14  2  1  1  0  0  0
 14 16  1  0  0  0  0
 16  9  1  1  0  0  0
 17  9  1  1  0  0  0
 17 11  1  0  0  0  0
 17 22  1  0  0  0  0
 18 19  1  6  0  0  0
 18 20  1  0  0  0  0
 19  3  1  0  0  0  0
 20 13  1  1  0  0  0
 20 21  1  0  0  0  0
 21 15  1  6  0  0  0
 21 22  1  0  0  0  0
 22  6  1  1  0  0  0
M  END
>  <CHROM.1>
80.42398225,80.15211861,72.75061733,21.87954748,14.45845437,37.51854879,-0.80021368
0.07798383,2.31600761

>  <Name>
2f4s_lig

>  <RI>
0

>  <Rbt.Current_Directory>
/home/itssahil/PROJECTS/Mol_Feturizer/New_Systems/rnas/2f4s

>  <Rbt.Executable>
rbdock ($Id: //depot/dev/client3/rdock/2013.1/src/exe/rbdock.cxx#4 $)

>  <Rbt.Library>
libRbt.so (2013.1, Build901 2013/11/27)

>  <Rbt.Parameter_File>
/export/apps/rDock/src/rDock_2013.1_src/data/scripts/dock_solv.prm

>  <Rbt.Receptor>
prm/pocket_docking_2.prm

>  <SCORE>
-13.385

>  <SCORE.INTER>
-14.9395

>  <SCORE.INTER.CONST>
1

>  <SCORE.INTER.POLAR>
-0.979796

>  <SCORE.INTER.ROT>
3

>  <SCORE.INTER.SOLV>
19.1671

>  <SCORE.INTER.VDW>
-18.6827

>  <SCORE.INTER.norm>
-0.679068

>  <SCORE.INTRA>
1.5545

>  <SCORE.INTRA.DIHEDRAL>
2.67385

>  <SCORE.INTRA.DIHEDRAL.0>
1.67653

>  <SCORE.INTRA.POLAR>
0

>  <SCORE.INTRA.POLAR.0>
0

>  <SCORE.INTRA.REPUL>
0

>  <SCORE.INTRA.REPUL.0>
0

>  <SCORE.INTRA.SOLV>
0.993041

>  <SCORE.INTRA.SOLV.lig_0>
-76.6701

>  <SCORE.INTRA.VDW>
-0.278943

>  <SCORE.INTRA.VDW.0>
-1.53273

>  <SCORE.INTRA.norm>
0.0706592

>  <SCORE.RESTR>
0

>  <SCORE.RESTR.CAVITY>
0

>  <SCORE.RESTR.norm>
0

>  <SCORE.SYSTEM>
0

>  <SCORE.SYSTEM.CONST>
0

>  <SCORE.SYSTEM.DIHEDRAL>
0

>  <SCORE.SYSTEM.SOLV>
0

>  <SCORE.SYSTEM.norm>
0

>  <SCORE.heavy>
22

>  <SCORE.norm>
-0.608409

>  <RMSD>
0.546

$$$$
2f4s_lig
 OpenBabel11021811433D
libRbt.so/2013.1/901 2013/11/27
 22 23  0  0  0  0  0  0  0  0999 V2000
   26.4574   17.2190   35.7757 N   0  0  0  0  0  0  0  0  0  0  0  0
   23.7200   14.9393   39.3093 N   0  0  0  0  0  0  0  0  0  0  0  0
   23.0556   11.0696   39.2192 N   0  0  0  0  0  0  0  0  0  0  0  0
   22.0447   15.2997   34.6131 O   0  0  0  0  0  0  0  0  0  0  0  0
   22.8014   15.9416   35.6800 C   0  0  2  0  0  0  0  0  0  0  0  0
   18.5987   15.2870   36.8697 N   0  0  0  0  0  0  0  0  0  0  0  0
   24.2335   17.0857   34.0364 O   0  0  0  0  0  0  0  0  0  0  0  0
   24.2463   16.2477   35.1981 C   0  0  1  0  0  0  0  0  0  0  0  0
   21.5252   14.8116   37.4416 O   0  0  0  0  0  0  0  0  0  0  0  0
   25.0569   16.9474   36.2822 C   0  0  1  0  0  0  0  0  0  0  0  0
   21.1106   12.5379   37.4991 O   0  0  0  0  0  0  0  0  0  0  0  0
   25.1054   16.0491   37.5642 C   0  0  0  0  0  0  0  0  0  0  0  0
   19.4986   12.4735   40.7981 O   0  0  0  0  0  0  0  0  0  0  0  0
   23.6278   15.7890   38.0503 C   0  0  1  0  0  0  0  0  0  0  0  0
   17.6664   14.0423   39.2841 O   0  0  0  0  0  0  0  0  0  0  0  0
   22.8455   15.0255   36.9663 C   0  0  2  0  0  0  0  0  0  0  0  0
   20.6581   13.8303   36.9014 C   0  0  1  0  0  0  0  0  0  0  0  0
   21.0373   12.4309   38.9838 C   0  0  2  0  0  0  0  0  0  0  0  0
   21.5680   11.0542   39.3953 C   0  0  0  0  0  0  0  0  0  0  0  0
   19.5890   12.5700   39.3964 C   0  0  2  0  0  0  0  0  0  0  0  0
   19.0408   13.9082   38.9039 C   0  0  1  0  0  0  0  0  0  0  0  0
   19.1660   13.9804   37.3621 C   0  0  1  0  0  0  0  0  0  0  0  0
  5  4  1  6  0  0  0
  5  8  1  0  0  0  0
  5 16  1  0  0  0  0
  8  7  1  6  0  0  0
  8 10  1  0  0  0  0
 10  1  1  6  0  0  0
 10 12  1  0  0  0  0
 11 18  1  0  0  0  0
 12 14  1  0  0  0  0
 14  2  1  1  0  0  0
 14 16  1  0  0  0  0
 16  9  1  1  0  0  0
 17  9  1  1  0  0  0
 17 11  1  0  0  0  0
 17 22  1  0  0  0  0
 18 19  1  6  0  0  0
 18 20  1  0  0  0  0
 19  3  1  0  0  0  0
 20 13  1  1  0  0  0
 20 21  1  0  0  0  0
 21 15  1  6  0  0  0
 21 22  1  0  0  0  0
 22  6  1  1  0  0  0
M  END
>  <CHROM.1>
82.12100244,78.57922618,73.14832719,21.90749177,14.46897434,37.51960662,-0.79424219
0.07628489,2.31834982

>  <Name>
2f4s_lig

>  <RI>
2.26097e+07

>  <Rbt.Current_Directory>
/home/itssahil/PROJECTS/Mol_Feturizer/New_Systems/rnas/2f4s

>  <Rbt.Executable>
rbdock ($Id: //depot/dev/client3/rdock/2013.1/src/exe/rbdock.cxx#4 $)

>  <Rbt.Library>
libRbt.so (2013.1, Build901 2013/11/27)

>  <Rbt.Parameter_File>
/export/apps/rDock/src/rDock_2013.1_src/data/scripts/dock_solv.prm

>  <Rbt.Receptor>
prm/pocket_docking_7.prm

>  <SCORE>
-13.3371

>  <SCORE.INTER>
-14.9731

>  <SCORE.INTER.CONST>
1

>  <SCORE.INTER.POLAR>
-0.979796

>  <SCORE.INTER.ROT>
3

>  <SCORE.INTER.SOLV>
19.1422

>  <SCORE.INTER.VDW>
-18.6968

>  <SCORE.INTER.norm>
-0.680593

>  <SCORE.INTRA>
1.63595

>  <SCORE.INTRA.DIHEDRAL>
2.74935

>  <SCORE.INTRA.DIHEDRAL.0>
1.67653

>  <SCORE.INTRA.POLAR>
0

>  <SCORE.INTRA.POLAR.0>
0

>  <SCORE.INTRA.REPUL>
0

>  <SCORE.INTRA.REPUL.0>
0

>  <SCORE.INTRA.SOLV>
1.15545

>  <SCORE.INTRA.SOLV.lig_0>
-76.6701

>  <SCORE.INTRA.VDW>
-0.316456

>  <SCORE.INTRA.VDW.0>
-1.53273

>  <SCORE.INTRA.norm>
0.0743612

>  <SCORE.RESTR>
0

>  <SCORE.RESTR.CAVITY>
0

>  <SCORE.RESTR.norm>
0

>  <SCORE.SYSTEM>
0

>  <SCORE.SYSTEM.CONST>
0

>  <SCORE.SYSTEM.DIHEDRAL>
0

>  <SCORE.SYSTEM.SOLV>
0

>  <SCORE.SYSTEM.norm>
0

>  <SCORE.heavy>
22

>  <SCORE.norm>
-0.606232

>  <RMSD>
0.546

$$$$
2f4s_lig
 OpenBabel11021811433D
libRbt.so/2013.1/901 2013/11/27
 22 23  0  0  0  0  0  0  0  0999 V2000
   26.4117   17.2279   35.7320 N   0  0  0  0  0  0  0  0  0  0  0  0
   23.7267   14.9550   39.3098 N   0  0  0  0  0  0  0  0  0  0  0  0
   23.0121   11.0147   39.2067 N   0  0  0  0  0  0  0  0  0  0  0  0
   22.0127   15.2467   34.6228 O   0  0  0  0  0  0  0  0  0  0  0  0
   22.7699   15.9083   35.6772 C   0  0  2  0  0  0  0  0  0  0  0  0
   18.5990   15.2830   36.8798 N   0  0  0  0  0  0  0  0  0  0  0  0
   24.1766   17.0511   34.0109 O   0  0  0  0  0  0  0  0  0  0  0  0
   24.2075   16.2257   35.1812 C   0  0  1  0  0  0  0  0  0  0  0  0
   21.5197   14.7828   37.4601 O   0  0  0  0  0  0  0  0  0  0  0  0
   25.0181   16.9459   36.2518 C   0  0  1  0  0  0  0  0  0  0  0  0
   21.0873   12.5121   37.5075 O   0  0  0  0  0  0  0  0  0  0  0  0
   25.0863   16.0618   37.5428 C   0  0  0  0  0  0  0  0  0  0  0  0
   19.4631   12.4476   40.8004 O   0  0  0  0  0  0  0  0  0  0  0  0
   23.6155   15.7902   38.0427 C   0  0  1  0  0  0  0  0  0  0  0  0
   17.6485   14.0363   39.2860 O   0  0  0  0  0  0  0  0  0  0  0  0
   22.8339   15.0064   36.9727 C   0  0  2  0  0  0  0  0  0  0  0  0
   20.6469   13.8102   36.9131 C   0  0  1  0  0  0  0  0  0  0  0  0
   21.0079   12.4000   38.9914 C   0  0  2  0  0  0  0  0  0  0  0  0
   21.5264   11.0177   39.3995 C   0  0  0  0  0  0  0  0  0  0  0  0
   19.5592   12.5487   39.3995 C   0  0  2  0  0  0  0  0  0  0  0  0
   19.0232   13.8930   38.9102 C   0  0  1  0  0  0  0  0  0  0  0  0
   19.1544   13.9702   37.3691 C   0  0  1  0  0  0  0  0  0  0  0  0
  5  4  1  6  0  0  0
  5  8  1  0  0  0  0
  5 16  1  0  0  0  0
  8  7  1  6  0  0  0
  8 10  1  0  0  0  0
 10  1  1  6  0  0  0
 10 12  1  0  0  0  0
 11 18  1  0  0  0  0
 12 14  1  0  0  0  0
 14  2  1  1  0  0  0
 14 16  1  0  0  0  0
 16  9  1  1  0  0  0
 17  9  1  1  0  0  0
 17 11  1  0  0  0  0
 17 22  1  0  0  0  0
 18 19  1  6  0  0  0
 18 20  1  0  0  0  0
 19  3  1  0  0  0  0
 20 13  1  1  0  0  0
 20 21  1  0  0  0  0
 21 15  1  6  0  0  0
 21 22  1  0  0  0  0
 22  6  1  1  0  0  0
M  END
>  <CHROM.1>
80.37092184,79.88410103,72.20800347,21.88244561,14.45014868,37.51690222,-0.79957738
0.07338900,2.32126713

>  <Name>
2f4s_lig

>  <RI>
0

>  <Rbt.Current_Directory>
/home/itssahil/PROJECTS/Mol_Feturizer/New_Systems/rnas/2f4s

>  <Rbt.Executable>
rbdock ($Id: //depot/dev/client3/rdock/2013.1/src/exe/rbdock.cxx#4 $)

>  <Rbt.Library>
libRbt.so (2013.1, Build901 2013/11/27)

>  <Rbt.Parameter_File>
/export/apps/rDock/src/rDock_2013.1_src/data/scripts/dock_solv.prm

>  <Rbt.Receptor>
prm/pocket_docking_2.prm

>  <SCORE>
-13.3851

>  <SCORE.INTER>
-14.8876

>  <SCORE.INTER.CONST>
1

>  <SCORE.INTER.POLAR>
-0.979796

>  <SCORE.INTER.ROT>
3

>  <SCORE.INTER.SOLV>
19.3676

>  <SCORE.INTER.VDW>
-18.7149

>  <SCORE.INTER.norm>
-0.676709

>  <SCORE.INTRA>
1.50255

>  <SCORE.INTRA.DIHEDRAL>
2.57712

>  <SCORE.INTRA.DIHEDRAL.0>
1.67653

>  <SCORE.INTRA.POLAR>
0

>  <SCORE.INTRA.POLAR.0>
0

>  <SCORE.INTRA.REPUL>
0

>  <SCORE.INTRA.REPUL.0>
0

>  <SCORE.INTRA.SOLV>
0.981767

>  <SCORE.INTRA.SOLV.lig_0>
-76.6701

>  <SCORE.INTRA.VDW>
-0.276896

>  <SCORE.INTRA.VDW.0>
-1.53273

>  <SCORE.INTRA.norm>
0.0682976

>  <SCORE.RESTR>
0

>  <SCORE.RESTR.CAVITY>
0

>  <SCORE.RESTR.norm>
0

>  <SCORE.SYSTEM>
0

>  <SCORE.SYSTEM.CONST>
0

>  <SCORE.SYSTEM.DIHEDRAL>
0

>  <SCORE.SYSTEM.SOLV>
0

>  <SCORE.SYSTEM.norm>
0

>  <SCORE.heavy>
22

>  <SCORE.norm>
-0.608411

>  <RMSD>
0.547

$$$$
2f4s_lig
 OpenBabel11021811433D
libRbt.so/2013.1/901 2013/11/27
 22 23  0  0  0  0  0  0  0  0999 V2000
   26.4166   17.2296   35.7380 N   0  0  0  0  0  0  0  0  0  0  0  0
   23.7398   14.9572   39.3223 N   0  0  0  0  0  0  0  0  0  0  0  0
   22.9999   11.0010   39.2095 N   0  0  0  0  0  0  0  0  0  0  0  0
   22.0159   15.2466   34.6388 O   0  0  0  0  0  0  0  0  0  0  0  0
   22.7751   15.9088   35.6913 C   0  0  2  0  0  0  0  0  0  0  0  0
   18.6115   15.3008   36.8958 N   0  0  0  0  0  0  0  0  0  0  0  0
   24.1780   17.0514   34.0216 O   0  0  0  0  0  0  0  0  0  0  0  0
   24.2116   16.2264   35.1922 C   0  0  1  0  0  0  0  0  0  0  0  0
   21.5290   14.7836   37.4773 O   0  0  0  0  0  0  0  0  0  0  0  0
   25.0243   16.9473   36.2608 C   0  0  1  0  0  0  0  0  0  0  0  0
   21.0849   12.5150   37.5163 O   0  0  0  0  0  0  0  0  0  0  0  0
   25.0954   16.0638   37.5520 C   0  0  0  0  0  0  0  0  0  0  0  0
   19.4572   12.4475   40.8074 O   0  0  0  0  0  0  0  0  0  0  0  0
   23.6257   15.7919   38.0551 C   0  0  1  0  0  0  0  0  0  0  0  0
   17.6522   14.0507   39.2968 O   0  0  0  0  0  0  0  0  0  0  0  0
   22.8421   15.0075   36.9870 C   0  0  2  0  0  0  0  0  0  0  0  0
   20.6518   13.8175   36.9260 C   0  0  1  0  0  0  0  0  0  0  0  0
   21.0035   12.3982   38.9998 C   0  0  2  0  0  0  0  0  0  0  0  0
   21.5145   11.0118   39.4035 C   0  0  0  0  0  0  0  0  0  0  0  0
   19.5552   12.5530   39.4070 C   0  0  2  0  0  0  0  0  0  0  0  0
   19.0265   13.9016   38.9218 C   0  0  1  0  0  0  0  0  0  0  0  0
   19.1597   13.9835   37.3812 C   0  0  1  0  0  0  0  0  0  0  0  0
  5  4  1  6  0  0  0
  5  8  1  0  0  0  0
  5 16  1  0  0  0  0
  8  7  1  6  0  0  0
  8 10  1  0  0  0  0
 10  1  1  6  0  0  0
 10 12  1  0  0  0  0
 11 18  1  0  0  0  0
 12 14  1  0  0  0  0
 14  2  1  1  0  0  0
 14 16  1  0  0  0  0
 16  9  1  1  0  0  0
 17  9  1  1  0  0  0
 17 11  1  0  0  0  0
 17 22  1  0  0  0  0
 18 19  1  6  0  0  0
 18 20  1  0  0  0  0
 19  3  1  0  0  0  0
 20 13  1  1  0  0  0
 20 21  1  0  0  0  0
 21 15  1  6  0  0  0
 21 22  1  0  0  0  0
 22  6  1  1  0  0  0
M  END
>  <CHROM.1>
79.88508533,80.25428197,72.09142814,21.88525768,14.45281522,37.52757643,-0.79911271
0.07056752,2.32424485

>  <Name>
2f4s_lig

>  <RI>
2.46955e+07

>  <Rbt.Current_Directory>
/home/itssahil/PROJECTS/Mol_Feturizer/New_Systems/rnas/2f4s

>  <Rbt.Executable>
rbdock ($Id: //depot/dev/client3/rdock/2013.1/src/exe/rbdock.cxx#4 $)

>  <Rbt.Library>
libRbt.so (2013.1, Build901 2013/11/27)

>  <Rbt.Parameter_File>
/export/apps/rDock/src/rDock_2013.1_src/data/scripts/dock_solv.prm

>  <Rbt.Receptor>
prm/pocket_docking_3.prm

>  <SCORE>
-13.378

>  <SCORE.INTER>
-14.8527

>  <SCORE.INTER.CONST>
1

>  <SCORE.INTER.POLAR>
-0.979796

>  <SCORE.INTER.ROT>
3

>  <SCORE.INTER.SOLV>
19.3827

>  <SCORE.INTER.VDW>
-18.6967

>  <SCORE.INTER.norm>
-0.675122

>  <SCORE.INTRA>
1.47469

>  <SCORE.INTRA.DIHEDRAL>
2.54721

>  <SCORE.INTRA.DIHEDRAL.0>
1.67653

>  <SCORE.INTRA.POLAR>
0

>  <SCORE.INTRA.POLAR.0>
0

>  <SCORE.INTRA.REPUL>
0

>  <SCORE.INTRA.REPUL.0>
0

>  <SCORE.INTRA.SOLV>
0.933861

>  <SCORE.INTRA.SOLV.lig_0>
-76.6701

>  <SCORE.INTRA.VDW>
-0.265849

>  <SCORE.INTRA.VDW.0>
-1.53273

>  <SCORE.INTRA.norm>
0.0670312

>  <SCORE.RESTR>
0

>  <SCORE.RESTR.CAVITY>
0

>  <SCORE.RESTR.norm>
0

>  <SCORE.SYSTEM>
0

>  <SCORE.SYSTEM.CONST>
0

>  <SCORE.SYSTEM.DIHEDRAL>
0

>  <SCORE.SYSTEM.SOLV>
0

>  <SCORE.SYSTEM.norm>
0

>  <SCORE.heavy>
22

>  <SCORE.norm>
-0.608091

>  <RMSD>
0.547

$$$$
2f4s_lig
 OpenBabel11021811433D
libRbt.so/2013.1/901 2013/11/27
 22 23  0  0  0  0  0  0  0  0999 V2000
   26.4264   17.2267   35.7384 N   0  0  0  0  0  0  0  0  0  0  0  0
   23.7256   14.9669   39.3126 N   0  0  0  0  0  0  0  0  0  0  0  0
   23.0143   11.0303   39.2387 N   0  0  0  0  0  0  0  0  0  0  0  0
   22.0303   15.2453   34.6180 O   0  0  0  0  0  0  0  0  0  0  0  0
   22.7838   15.9096   35.6733 C   0  0  2  0  0  0  0  0  0  0  0  0
   18.6069   15.2973   36.8712 N   0  0  0  0  0  0  0  0  0  0  0  0
   24.1980   17.0462   34.0090 O   0  0  0  0  0  0  0  0  0  0  0  0
   24.2237   16.2243   35.1820 C   0  0  1  0  0  0  0  0  0  0  0  0
   21.5258   14.7906   37.4548 O   0  0  0  0  0  0  0  0  0  0  0  0
   25.0306   16.9473   36.2535 C   0  0  1  0  0  0  0  0  0  0  0  0
   21.0896   12.5205   37.4947 O   0  0  0  0  0  0  0  0  0  0  0  0
   25.0930   16.0672   37.5475 C   0  0  0  0  0  0  0  0  0  0  0  0
   19.4600   12.4490   40.7848 O   0  0  0  0  0  0  0  0  0  0  0  0
   23.6201   15.7983   38.0425 C   0  0  1  0  0  0  0  0  0  0  0  0
   17.6504   14.0451   39.2722 O   0  0  0  0  0  0  0  0  0  0  0  0
   22.8420   15.0117   36.9719 C   0  0  2  0  0  0  0  0  0  0  0  0
   20.6523   13.8211   36.9035 C   0  0  1  0  0  0  0  0  0  0  0  0
   21.0076   12.4042   38.9782 C   0  0  2  0  0  0  0  0  0  0  0  0
   21.5232   11.0198   39.3830 C   0  0  0  0  0  0  0  0  0  0  0  0
   19.5585   12.5541   39.3844 C   0  0  2  0  0  0  0  0  0  0  0  0
   19.0255   13.9006   38.8982 C   0  0  1  0  0  0  0  0  0  0  0  0
   19.1593   13.9821   37.3576 C   0  0  1  0  0  0  0  0  0  0  0  0
  5  4  1  6  0  0  0
  5  8  1  0  0  0  0
  5 16  1  0  0  0  0
  8  7  1  6  0  0  0
  8 10  1  0  0  0  0
 10  1  1  6  0  0  0
 10 12  1  0  0  0  0
 11 18  1  0  0  0  0
 12 14  1  0  0  0  0
 14  2  1  1  0  0  0
 14 16  1  0  0  0  0
 16  9  1  1  0  0  0
 17  9  1  1  0  0  0
 17 11  1  0  0  0  0
 17 22  1  0  0  0  0
 18 19  1  6  0  0  0
 18 20  1  0  0  0  0
 19  3  1  0  0  0  0
 20 13  1  1  0  0  0
 20 21  1  0  0  0  0
 21 15  1  6  0  0  0
 21 22  1  0  0  0  0
 22  6  1  1  0  0  0
M  END
>  <CHROM.1>
80.08013163,79.75658442,74.16545927,21.88886871,14.45564115,37.51235756,-0.79667851
0.07546048,2.31970798

>  <Name>
2f4s_lig

>  <RI>
0

>  <Rbt.Current_Directory>
/home/itssahil/PROJECTS/Mol_Feturizer/New_Systems/rnas/2f4s

>  <Rbt.Executable>
rbdock ($Id: //depot/dev/client3/rdock/2013.1/src/exe/rbdock.cxx#4 $)

>  <Rbt.Library>
libRbt.so (2013.1, Build901 2013/11/27)

>  <Rbt.Parameter_File>
/export/apps/rDock/src/rDock_2013.1_src/data/scripts/dock_solv.prm

>  <Rbt.Receptor>
prm/pocket_docking_4.prm

>  <SCORE>
-13.3825

>  <SCORE.INTER>
-14.9257

>  <SCORE.INTER.CONST>
1

>  <SCORE.INTER.POLAR>
-0.979796

>  <SCORE.INTER.ROT>
3

>  <SCORE.INTER.SOLV>
19.2711

>  <SCORE.INTER.VDW>
-18.7082

>  <SCORE.INTER.norm>
-0.67844

>  <SCORE.INTRA>
1.54322

>  <SCORE.INTRA.DIHEDRAL>
2.68236

>  <SCORE.INTRA.DIHEDRAL.0>
1.67653

>  <SCORE.INTRA.POLAR>
0

>  <SCORE.INTRA.POLAR.0>
0

>  <SCORE.INTRA.REPUL>
0

>  <SCORE.INTRA.REPUL.0>
0

>  <SCORE.INTRA.SOLV>
0.950325

>  <SCORE.INTRA.SOLV.lig_0>
-76.6701

>  <SCORE.INTRA.VDW>
-0.273127

>  <SCORE.INTRA.VDW.0>
-1.53273

>  <SCORE.INTRA.norm>
0.0701462

>  <SCORE.RESTR>
0

>  <SCORE.RESTR.CAVITY>
0

>  <SCORE.RESTR.norm>
0

>  <SCORE.SYSTEM>
0

>  <SCORE.SYSTEM.CONST>
0

>  <SCORE.SYSTEM.DIHEDRAL>
0

>  <SCORE.SYSTEM.SOLV>
0

>  <SCORE.SYSTEM.norm>
0

>  <SCORE.heavy>
22

>  <SCORE.norm>
-0.608294

>  <RMSD>
0.547

$$$$
2f4s_lig
 OpenBabel11021811433D
libRbt.so/2013.1/901 2013/11/27
 22 23  0  0  0  0  0  0  0  0999 V2000
   26.4243   17.2224   35.7418 N   0  0  0  0  0  0  0  0  0  0  0  0
   23.7349   14.9553   39.3199 N   0  0  0  0  0  0  0  0  0  0  0  0
   23.0074   11.0145   39.2121 N   0  0  0  0  0  0  0  0  0  0  0  0
   22.0207   15.2510   34.6332 O   0  0  0  0  0  0  0  0  0  0  0  0
   22.7796   15.9109   35.6876 C   0  0  2  0  0  0  0  0  0  0  0  0
   18.6082   15.2949   36.8876 N   0  0  0  0  0  0  0  0  0  0  0  0
   24.1885   17.0506   34.0211 O   0  0  0  0  0  0  0  0  0  0  0  0
   24.2178   16.2251   35.1913 C   0  0  1  0  0  0  0  0  0  0  0  0
   21.5272   14.7880   37.4706 O   0  0  0  0  0  0  0  0  0  0  0  0
   25.0302   16.9435   36.2618 C   0  0  1  0  0  0  0  0  0  0  0  0
   21.0891   12.5185   37.5202 O   0  0  0  0  0  0  0  0  0  0  0  0
   25.0967   16.0592   37.5527 C   0  0  0  0  0  0  0  0  0  0  0  0
   19.4623   12.4618   40.8120 O   0  0  0  0  0  0  0  0  0  0  0  0
   23.6253   15.7908   38.0529 C   0  0  1  0  0  0  0  0  0  0  0  0
   17.6528   14.0534   39.2945 O   0  0  0  0  0  0  0  0  0  0  0  0
   22.8418   15.0088   36.9830 C   0  0  2  0  0  0  0  0  0  0  0  0
   20.6524   13.8170   36.9240 C   0  0  1  0  0  0  0  0  0  0  0  0
   21.0083   12.4083   39.0042 C   0  0  2  0  0  0  0  0  0  0  0  0
   21.5230   11.0251   39.4142 C   0  0  0  0  0  0  0  0  0  0  0  0
   19.5597   12.5611   39.4111 C   0  0  2  0  0  0  0  0  0  0  0  0
   19.0274   13.9061   38.9199 C   0  0  1  0  0  0  0  0  0  0  0  0
   19.1599   13.9812   37.3788 C   0  0  1  0  0  0  0  0  0  0  0  0
  5  4  1  6  0  0  0
  5  8  1  0  0  0  0
  5 16  1  0  0  0  0
  8  7  1  6  0  0  0
  8 10  1  0  0  0  0
 10  1  1  6  0  0  0
 10 12  1  0  0  0  0
 11 18  1  0  0  0  0
 12 14  1  0  0  0  0
 14  2  1  1  0  0  0
 14 16  1  0  0  0  0
 16  9  1  1  0  0  0
 17  9  1  1  0  0  0
 17 11  1  0  0  0  0
 17 22  1  0  0  0  0
 18 19  1  6  0  0  0
 18 20  1  0  0  0  0
 19  3  1  0  0  0  0
 20 13  1  1  0  0  0
 20 21  1  0  0  0  0
 21 15  1  6  0  0  0
 21 22  1  0  0  0  0
 22  6  1  1  0  0  0
M  END
>  <CHROM.1>
80.39812521,79.95278276,71.75882068,21.88836022,14.45532227,37.52723536,-0.79786047
0.07158250,2.32098209

>  <Name>
2f4s_lig

>  <RI>
0

>  <Rbt.Current_Directory>
/home/itssahil/PROJECTS/Mol_Feturizer/New_Systems/rnas/2f4s

>  <Rbt.Executable>
rbdock ($Id: //depot/dev/client3/rdock/2013.1/src/exe/rbdock.cxx#4 $)

>  <Rbt.Library>
libRbt.so (2013.1, Build901 2013/11/27)

>  <Rbt.Parameter_File>
/export/apps/rDock/src/rDock_2013.1_src/data/scripts/dock_solv.prm

>  <Rbt.Receptor>
prm/pocket_docking_5.prm

>  <SCORE>
-13.3832

>  <SCORE.INTER>
-14.8769

>  <SCORE.INTER.CONST>
1

>  <SCORE.INTER.POLAR>
-0.979796

>  <SCORE.INTER.ROT>
3

>  <SCORE.INTER.SOLV>
19.3368

>  <SCORE.INTER.VDW>
-18.6975

>  <SCORE.INTER.norm>
-0.676223

>  <SCORE.INTRA>
1.49368

>  <SCORE.INTRA.DIHEDRAL>
2.55583

>  <SCORE.INTRA.DIHEDRAL.0>
1.67653

>  <SCORE.INTRA.POLAR>
0

>  <SCORE.INTRA.POLAR.0>
0

>  <SCORE.INTRA.REPUL>
0

>  <SCORE.INTRA.REPUL.0>
0

>  <SCORE.INTRA.SOLV>
0.985072

>  <SCORE.INTRA.SOLV.lig_0>
-76.6701

>  <SCORE.INTRA.VDW>
-0.276774

>  <SCORE.INTRA.VDW.0>
-1.53273

>  <SCORE.INTRA.norm>
0.0678944

>  <SCORE.RESTR>
0

>  <SCORE.RESTR.CAVITY>
0

>  <SCORE.RESTR.norm>
0

>  <SCORE.SYSTEM>
0

>  <SCORE.SYSTEM.CONST>
0

>  <SCORE.SYSTEM.DIHEDRAL>
0

>  <SCORE.SYSTEM.SOLV>
0

>  <SCORE.SYSTEM.norm>
0

>  <SCORE.heavy>
22

>  <SCORE.norm>
-0.608329

>  <RMSD>
0.547

$$$$
2f4s_lig
 OpenBabel11021811433D
libRbt.so/2013.1/901 2013/11/27
 22 23  0  0  0  0  0  0  0  0999 V2000
   26.4104   17.2259   35.7298 N   0  0  0  0  0  0  0  0  0  0  0  0
   23.7314   14.9561   39.3142 N   0  0  0  0  0  0  0  0  0  0  0  0
   23.0039   11.0117   39.2137 N   0  0  0  0  0  0  0  0  0  0  0  0
   22.0099   15.2427   34.6296 O   0  0  0  0  0  0  0  0  0  0  0  0
   22.7687   15.9056   35.6821 C   0  0  2  0  0  0  0  0  0  0  0  0
   18.6023   15.2844   36.8826 N   0  0  0  0  0  0  0  0  0  0  0  0
   24.1726   17.0469   34.0124 O   0  0  0  0  0  0  0  0  0  0  0  0
   24.2055   16.2227   35.1835 C   0  0  1  0  0  0  0  0  0  0  0  0
   21.5215   14.7816   37.4681 O   0  0  0  0  0  0  0  0  0  0  0  0
   25.0177   16.9441   36.2521 C   0  0  1  0  0  0  0  0  0  0  0  0
   21.0856   12.5118   37.5223 O   0  0  0  0  0  0  0  0  0  0  0  0
   25.0881   16.0614   37.5439 C   0  0  0  0  0  0  0  0  0  0  0  0
   19.4573   12.4605   40.8135 O   0  0  0  0  0  0  0  0  0  0  0  0
   23.6181   15.7900   38.0464 C   0  0  1  0  0  0  0  0  0  0  0  0
   17.6470   14.0471   39.2918 O   0  0  0  0  0  0  0  0  0  0  0  0
   22.8349   15.0050   36.9784 C   0  0  2  0  0  0  0  0  0  0  0  0
   20.6479   13.8086   36.9232 C   0  0  1  0  0  0  0  0  0  0  0  0
   21.0042   12.4047   39.0065 C   0  0  2  0  0  0  0  0  0  0  0  0
   21.5201   11.0228   39.4197 C   0  0  0  0  0  0  0  0  0  0  0  0
   19.5553   12.5569   39.4124 C   0  0  2  0  0  0  0  0  0  0  0  0
   19.0219   13.9004   38.9181 C   0  0  1  0  0  0  0  0  0  0  0  0
   19.1551   13.9724   37.3769 C   0  0  1  0  0  0  0  0  0  0  0  0
  5  4  1  6  0  0  0
  5  8  1  0  0  0  0
  5 16  1  0  0  0  0
  8  7  1  6  0  0  0
  8 10  1  0  0  0  0
 10  1  1  6  0  0  0
 10 12  1  0  0  0  0
 11 18  1  0  0  0  0
 12 14  1  0  0  0  0
 14  2  1  1  0  0  0
 14 16  1  0  0  0  0
 16  9  1  1  0  0  0
 17  9  1  1  0  0  0
 17 11  1  0  0  0  0
 17 22  1  0  0  0  0
 18 19  1  6  0  0  0
 18 20  1  0  0  0  0
 19  3  1  0  0  0  0
 20 13  1  1  0  0  0
 20 21  1  0  0  0  0
 21 15  1  6  0  0  0
 21 22  1  0  0  0  0
 22  6  1  1  0  0  0
M  END
>  <CHROM.1>
80.35082146,80.12139142,71.56137478,21.88114589,14.45145421,37.52395812,-0.79972432
0.07245230,2.31975299

>  <Name>
2f4s_lig

>  <RI>
0

>  <Rbt.Current_Directory>
/home/itssahil/PROJECTS/Mol_Feturizer/New_Systems/rnas/2f4s

>  <Rbt.Executable>
rbdock ($Id: //depot/dev/client3/rdock/2013.1/src/exe/rbdock.cxx#4 $)

>  <Rbt.Library>
libRbt.so (2013.1, Build901 2013/11/27)

>  <Rbt.Parameter_File>
/export/apps/rDock/src/rDock_2013.1_src/data/scripts/dock_solv.prm

>  <Rbt.Receptor>
prm/pocket_docking_2.prm

>  <SCORE>
-13.3822

>  <SCORE.INTER>
-14.8775

>  <SCORE.INTER.CONST>
1

>  <SCORE.INTER.POLAR>
-0.979796

>  <SCORE.INTER.ROT>
3

>  <SCORE.INTER.SOLV>
19.3453

>  <SCORE.INTER.VDW>
-18.7008

>  <SCORE.INTER.norm>
-0.67625

>  <SCORE.INTRA>
1.49525

>  <SCORE.INTRA.DIHEDRAL>
2.55905

>  <SCORE.INTRA.DIHEDRAL.0>
1.67653

>  <SCORE.INTRA.POLAR>
0

>  <SCORE.INTRA.POLAR.0>
0

>  <SCORE.INTRA.REPUL>
0

>  <SCORE.INTRA.REPUL.0>
0

>  <SCORE.INTRA.SOLV>
0.982256

>  <SCORE.INTRA.SOLV.lig_0>
-76.6701

>  <SCORE.INTRA.VDW>
-0.275403

>  <SCORE.INTRA.VDW.0>
-1.53273

>  <SCORE.INTRA.norm>
0.0679659

>  <SCORE.RESTR>
0

>  <SCORE.RESTR.CAVITY>
0

>  <SCORE.RESTR.norm>
0

>  <SCORE.SYSTEM>
0

>  <SCORE.SYSTEM.CONST>
0

>  <SCORE.SYSTEM.DIHEDRAL>
0

>  <SCORE.SYSTEM.SOLV>
0

>  <SCORE.SYSTEM.norm>
0

>  <SCORE.heavy>
22

>  <SCORE.norm>
-0.608284

>  <RMSD>
0.548

$$$$
2f4s_lig
 OpenBabel11021811433D
libRbt.so/2013.1/901 2013/11/27
 22 23  0  0  0  0  0  0  0  0999 V2000
   26.4243   17.2187   35.7387 N   0  0  0  0  0  0  0  0  0  0  0  0
   23.7221   14.9564   39.3103 N   0  0  0  0  0  0  0  0  0  0  0  0
   23.0039   11.0391   39.2522 N   0  0  0  0  0  0  0  0  0  0  0  0
   22.0216   15.2518   34.6186 O   0  0  0  0  0  0  0  0  0  0  0  0
   22.7783   15.9113   35.6748 C   0  0  2  0  0  0  0  0  0  0  0  0
   18.6015   15.2918   36.8620 N   0  0  0  0  0  0  0  0  0  0  0  0
   24.1933   17.0486   34.0117 O   0  0  0  0  0  0  0  0  0  0  0  0
   24.2183   16.2236   35.1825 C   0  0  1  0  0  0  0  0  0  0  0  0
   21.5195   14.7908   37.4548 O   0  0  0  0  0  0  0  0  0  0  0  0
   25.0285   16.9416   36.2549 C   0  0  1  0  0  0  0  0  0  0  0  0
   21.0839   12.5210   37.5130 O   0  0  0  0  0  0  0  0  0  0  0  0
   25.0902   16.0579   37.5465 C   0  0  0  0  0  0  0  0  0  0  0  0
   19.4486   12.4766   40.8008 O   0  0  0  0  0  0  0  0  0  0  0  0
   23.6172   15.7914   38.0426 C   0  0  1  0  0  0  0  0  0  0  0  0
   17.6412   14.0595   39.2718 O   0  0  0  0  0  0  0  0  0  0  0  0
   22.8358   15.0098   36.9708 C   0  0  2  0  0  0  0  0  0  0  0  0
   20.6473   13.8165   36.9102 C   0  0  1  0  0  0  0  0  0  0  0  0
   20.9994   12.4171   38.9973 C   0  0  2  0  0  0  0  0  0  0  0  0
   21.5146   11.0363   39.4146 C   0  0  0  0  0  0  0  0  0  0  0  0
   19.5496   12.5700   39.3997 C   0  0  2  0  0  0  0  0  0  0  0  0
   19.0170   13.9123   38.9013 C   0  0  1  0  0  0  0  0  0  0  0  0
   19.1534   13.9809   37.3603 C   0  0  1  0  0  0  0  0  0  0  0  0
  5  4  1  6  0  0  0
  5  8  1  0  0  0  0
  5 16  1  0  0  0  0
  8  7  1  6  0  0  0
  8 10  1  0  0  0  0
 10  1  1  6  0  0  0
 10 12  1  0  0  0  0
 11 18  1  0  0  0  0
 12 14  1  0  0  0  0
 14  2  1  1  0  0  0
 14 16  1  0  0  0  0
 16  9  1  1  0  0  0
 17  9  1  1  0  0  0
 17 11  1  0  0  0  0
 17 22  1  0  0  0  0
 18 19  1  6  0  0  0
 18 20  1  0  0  0  0
 19  3  1  0  0  0  0
 20 13  1  1  0  0  0
 20 21  1  0  0  0  0
 21 15  1  6  0  0  0
 21 22  1  0  0  0  0
 22  6  1  1  0  0  0
M  END
>  <CHROM.1>
80.68983553,79.86701634,73.29489608,21.88255626,14.45882717,37.51784280,-0.79599232
0.07545719,2.31563763

>  <Name>
2f4s_lig

>  <RI>
2.46955e+07

>  <Rbt.Current_Directory>
/home/itssahil/PROJECTS/Mol_Feturizer/New_Systems/rnas/2f4s

>  <Rbt.Executable>
rbdock ($Id: //depot/dev/client3/rdock/2013.1/src/exe/rbdock.cxx#4 $)

>  <Rbt.Library>
libRbt.so (2013.1, Build901 2013/11/27)

>  <Rbt.Parameter_File>
/export/apps/rDock/src/rDock_2013.1_src/data/scripts/dock_solv.prm

>  <Rbt.Receptor>
prm/pocket_docking_3.prm

>  <SCORE>
-13.3853

>  <SCORE.INTER>
-14.969

>  <SCORE.INTER.CONST>
1

>  <SCORE.INTER.POLAR>
-0.979796

>  <SCORE.INTER.ROT>
3

>  <SCORE.INTER.SOLV>
19.1658

>  <SCORE.INTER.VDW>
-18.702

>  <SCORE.INTER.norm>
-0.68041

>  <SCORE.INTRA>
1.58373

>  <SCORE.INTRA.DIHEDRAL>
2.72004

>  <SCORE.INTRA.DIHEDRAL.0>
1.67653

>  <SCORE.INTRA.POLAR>
0

>  <SCORE.INTRA.POLAR.0>
0

>  <SCORE.INTRA.REPUL>
0

>  <SCORE.INTRA.REPUL.0>
0

>  <SCORE.INTRA.SOLV>
1.01864

>  <SCORE.INTRA.SOLV.lig_0>
-76.6701

>  <SCORE.INTRA.VDW>
-0.285609

>  <SCORE.INTRA.VDW.0>
-1.53273

>  <SCORE.INTRA.norm>
0.0719879

>  <SCORE.RESTR>
0

>  <SCORE.RESTR.CAVITY>
0

>  <SCORE.RESTR.norm>
0

>  <SCORE.SYSTEM>
0

>  <SCORE.SYSTEM.CONST>
0

>  <SCORE.SYSTEM.DIHEDRAL>
0

>  <SCORE.SYSTEM.SOLV>
0

>  <SCORE.SYSTEM.norm>
0

>  <SCORE.heavy>
22

>  <SCORE.norm>
-0.608422

>  <RMSD>
0.548

$$$$
2f4s_lig
 OpenBabel11021811433D
libRbt.so/2013.1/901 2013/11/27
 22 23  0  0  0  0  0  0  0  0999 V2000
   26.4396   17.2078   35.7419 N   0  0  0  0  0  0  0  0  0  0  0  0
   23.7271   14.9722   39.3225 N   0  0  0  0  0  0  0  0  0  0  0  0
   23.0977   11.0319   39.1906 N   0  0  0  0  0  0  0  0  0  0  0  0
   22.0429   15.2271   34.6226 O   0  0  0  0  0  0  0  0  0  0  0  0
   22.7951   15.8961   35.6759 C   0  0  2  0  0  0  0  0  0  0  0  0
   18.5962   15.2685   36.9379 N   0  0  0  0  0  0  0  0  0  0  0  0
   24.2149   17.0212   34.0085 O   0  0  0  0  0  0  0  0  0  0  0  0
   24.2366   16.2059   35.1861 C   0  0  1  0  0  0  0  0  0  0  0  0
   21.5312   14.7890   37.4606 O   0  0  0  0  0  0  0  0  0  0  0  0
   25.0422   16.9335   36.2554 C   0  0  1  0  0  0  0  0  0  0  0  0
   21.1217   12.5137   37.4825 O   0  0  0  0  0  0  0  0  0  0  0  0
   25.1003   16.0605   37.5544 C   0  0  0  0  0  0  0  0  0  0  0  0
   19.5556   12.3860   40.8017 O   0  0  0  0  0  0  0  0  0  0  0  0
   23.6257   15.7966   38.0475 C   0  0  1  0  0  0  0  0  0  0  0  0
   17.6997   13.9782   39.3419 O   0  0  0  0  0  0  0  0  0  0  0  0
   22.8489   15.0054   36.9795 C   0  0  2  0  0  0  0  0  0  0  0  0
   20.6585   13.8158   36.9147 C   0  0  1  0  0  0  0  0  0  0  0  0
   21.0691   12.3796   38.9659 C   0  0  2  0  0  0  0  0  0  0  0  0
   21.6079   10.9968   39.3449 C   0  0  0  0  0  0  0  0  0  0  0  0
   19.6264   12.5081   39.4009 C   0  0  2  0  0  0  0  0  0  0  0  0
   19.0689   13.8539   38.9404 C   0  0  1  0  0  0  0  0  0  0  0  0
   19.1727   13.9544   37.3986 C   0  0  1  0  0  0  0  0  0  0  0  0
  5  4  1  6  0  0  0
  5  8  1  0  0  0  0
  5 16  1  0  0  0  0
  8  7  1  6  0  0  0
  8 10  1  0  0  0  0
 10  1  1  6  0  0  0
 10 12  1  0  0  0  0
 11 18  1  0  0  0  0
 12 14  1  0  0  0  0
 14  2  1  1  0  0  0
 14 16  1  0  0  0  0
 16  9  1  1  0  0  0
 17  9  1  1  0  0  0
 17 11  1  0  0  0  0
 17 22  1  0  0  0  0
 18 19  1  6  0  0  0
 18 20  1  0  0  0  0
 19  3  1  0  0  0  0
 20 13  1  1  0  0  0
 20 21  1  0  0  0  0
 21 15  1  6  0  0  0
 21 22  1  0  0  0  0
 22  6  1  1  0  0  0
M  END
>  <CHROM.1>
80.22677356,77.95598325,74.92681914,21.91799735,14.43452330,37.52178362,-0.80173589
0.07168239,2.32352090

>  <Name>
2f4s_lig

>  <RI>
2.46955e+07

>  <Rbt.Current_Directory>
/home/itssahil/PROJECTS/Mol_Feturizer/New_Systems/rnas/2f4s

>  <Rbt.Executable>
rbdock ($Id: //depot/dev/client3/rdock/2013.1/src/exe/rbdock.cxx#4 $)

>  <Rbt.Library>
libRbt.so (2013.1, Build901 2013/11/27)

>  <Rbt.Parameter_File>
/export/apps/rDock/src/rDock_2013.1_src/data/scripts/dock_solv.prm

>  <Rbt.Receptor>
prm/pocket_docking_3.prm

>  <SCORE>
-13.39

>  <SCORE.INTER>
-14.8335

>  <SCORE.INTER.CONST>
1

>  <SCORE.INTER.POLAR>
-0.979796

>  <SCORE.INTER.ROT>
3

>  <SCORE.INTER.SOLV>
19.6201

>  <SCORE.INTER.VDW>
-18.7631

>  <SCORE.INTER.norm>
-0.674252

>  <SCORE.INTRA>
1.44357

>  <SCORE.INTRA.DIHEDRAL>
2.50506

>  <SCORE.INTRA.DIHEDRAL.0>
1.67653

>  <SCORE.INTRA.POLAR>
0

>  <SCORE.INTRA.POLAR.0>
0

>  <SCORE.INTRA.REPUL>
0

>  <SCORE.INTRA.REPUL.0>
0

>  <SCORE.INTRA.SOLV>
0.936145

>  <SCORE.INTRA.SOLV.lig_0>
-76.6701

>  <SCORE.INTRA.VDW>
-0.277038

>  <SCORE.INTRA.VDW.0>
-1.53273

>  <SCORE.INTRA.norm>
0.0656166

>  <SCORE.RESTR>
0

>  <SCORE.RESTR.CAVITY>
0

>  <SCORE.RESTR.norm>
0

>  <SCORE.SYSTEM>
0

>  <SCORE.SYSTEM.CONST>
0

>  <SCORE.SYSTEM.DIHEDRAL>
0

>  <SCORE.SYSTEM.SOLV>
0

>  <SCORE.SYSTEM.norm>
0

>  <SCORE.heavy>
22

>  <SCORE.norm>
-0.608635

>  <RMSD>
0.548

$$$$
2f4s_lig
 OpenBabel11021811433D
libRbt.so/2013.1/901 2013/11/27
 22 23  0  0  0  0  0  0  0  0999 V2000
   26.4453   17.1858   35.7468 N   0  0  0  0  0  0  0  0  0  0  0  0
   23.7191   14.9412   39.3113 N   0  0  0  0  0  0  0  0  0  0  0  0
   23.0317   11.0385   39.2140 N   0  0  0  0  0  0  0  0  0  0  0  0
   22.0307   15.2519   34.6162 O   0  0  0  0  0  0  0  0  0  0  0  0
   22.7899   15.9052   35.6744 C   0  0  2  0  0  0  0  0  0  0  0  0
   18.5942   15.2841   36.8854 N   0  0  0  0  0  0  0  0  0  0  0  0
   24.2167   17.0331   34.0150 O   0  0  0  0  0  0  0  0  0  0  0  0
   24.2332   16.2073   35.1853 C   0  0  1  0  0  0  0  0  0  0  0  0
   21.5193   14.7928   37.4511 O   0  0  0  0  0  0  0  0  0  0  0  0
   25.0464   16.9186   36.2598 C   0  0  1  0  0  0  0  0  0  0  0  0
   21.0924   12.5214   37.5094 O   0  0  0  0  0  0  0  0  0  0  0  0
   25.0990   16.0337   37.5510 C   0  0  0  0  0  0  0  0  0  0  0  0
   19.4871   12.4656   40.8118 O   0  0  0  0  0  0  0  0  0  0  0  0
   23.6230   15.7777   38.0439 C   0  0  1  0  0  0  0  0  0  0  0  0
   17.6602   14.0445   39.3017 O   0  0  0  0  0  0  0  0  0  0  0  0
   22.8381   15.0025   36.9700 C   0  0  2  0  0  0  0  0  0  0  0  0
   20.6457   13.8162   36.9127 C   0  0  1  0  0  0  0  0  0  0  0  0
   21.0217   12.4147   38.9942 C   0  0  2  0  0  0  0  0  0  0  0  0
   21.5457   11.0351   39.4045 C   0  0  0  0  0  0  0  0  0  0  0  0
   19.5750   12.5617   39.4100 C   0  0  2  0  0  0  0  0  0  0  0  0
   19.0331   13.9028   38.9186 C   0  0  1  0  0  0  0  0  0  0  0  0
   19.1554   13.9745   37.3766 C   0  0  1  0  0  0  0  0  0  0  0  0
  5  4  1  6  0  0  0
  5  8  1  0  0  0  0
  5 16  1  0  0  0  0
  8  7  1  6  0  0  0
  8 10  1  0  0  0  0
 10  1  1  6  0  0  0
 10 12  1  0  0  0  0
 11 18  1  0  0  0  0
 12 14  1  0  0  0  0
 14  2  1  1  0  0  0
 14 16  1  0  0  0  0
 16  9  1  1  0  0  0
 17  9  1  1  0  0  0
 17 11  1  0  0  0  0
 17 22  1  0  0  0  0
 18 19  1  6  0  0  0
 18 20  1  0  0  0  0
 19  3  1  0  0  0  0
 20 13  1  1  0  0  0
 20 21  1  0  0  0  0
 21 15  1  6  0  0  0
 21 22  1  0  0  0  0
 22  6  1  1  0  0  0
M  END
>  <CHROM.1>
81.33470162,78.80042723,72.66550452,21.89606675,14.44922201,37.52125012,-0.79466090
0.07100392,2.31628547

>  <Name>
2f4s_lig

>  <RI>
0

>  <Rbt.Current_Directory>
/home/itssahil/PROJECTS/Mol_Feturizer/New_Systems/rnas/2f4s

>  <Rbt.Executable>
rbdock ($Id: //depot/dev/client3/rdock/2013.1/src/exe/rbdock.cxx#4 $)

>  <Rbt.Library>
libRbt.so (2013.1, Build901 2013/11/27)

>  <Rbt.Parameter_File>
/export/apps/rDock/src/rDock_2013.1_src/data/scripts/dock_solv.prm

>  <Rbt.Receptor>
prm/pocket_docking_2.prm

>  <SCORE>
-13.3632

>  <SCORE.INTER>
-14.9039

>  <SCORE.INTER.CONST>
1

>  <SCORE.INTER.POLAR>
-0.979796

>  <SCORE.INTER.ROT>
3

>  <SCORE.INTER.SOLV>
19.3655

>  <SCORE.INTER.VDW>
-18.7251

>  <SCORE.INTER.norm>
-0.677449

>  <SCORE.INTRA>
1.54067

>  <SCORE.INTRA.DIHEDRAL>
2.6077

>  <SCORE.INTRA.DIHEDRAL.0>
1.67653

>  <SCORE.INTRA.POLAR>
0

>  <SCORE.INTRA.POLAR.0>
0

>  <SCORE.INTRA.REPUL>
0

>  <SCORE.INTRA.REPUL.0>
0

>  <SCORE.INTRA.SOLV>
1.07116

>  <SCORE.INTRA.SOLV.lig_0>
-76.6701

>  <SCORE.INTRA.VDW>
-0.298764

>  <SCORE.INTRA.VDW.0>
-1.53273

>  <SCORE.INTRA.norm>
0.0700302

>  <SCORE.RESTR>
0

>  <SCORE.RESTR.CAVITY>
0

>  <SCORE.RESTR.norm>
0

>  <SCORE.SYSTEM>
0

>  <SCORE.SYSTEM.CONST>
0

>  <SCORE.SYSTEM.DIHEDRAL>
0

>  <SCORE.SYSTEM.SOLV>
0

>  <SCORE.SYSTEM.norm>
0

>  <SCORE.heavy>
22

>  <SCORE.norm>
-0.607419

>  <RMSD>
0.549

$$$$
2f4s_lig
 OpenBabel11021811433D
libRbt.so/2013.1/901 2013/11/27
 22 23  0  0  0  0  0  0  0  0999 V2000
   26.4261   17.2084   35.7391 N   0  0  0  0  0  0  0  0  0  0  0  0
   23.7212   14.9469   39.3092 N   0  0  0  0  0  0  0  0  0  0  0  0
   23.0031   11.0227   39.2163 N   0  0  0  0  0  0  0  0  0  0  0  0
   22.0189   15.2515   34.6188 O   0  0  0  0  0  0  0  0  0  0  0  0
   22.7774   15.9082   35.6753 C   0  0  2  0  0  0  0  0  0  0  0  0
   18.5978   15.2929   36.8728 N   0  0  0  0  0  0  0  0  0  0  0  0
   24.1938   17.0449   34.0130 O   0  0  0  0  0  0  0  0  0  0  0  0
   24.2178   16.2183   35.1827 C   0  0  1  0  0  0  0  0  0  0  0  0
   21.5173   14.7879   37.4546 O   0  0  0  0  0  0  0  0  0  0  0  0
   25.0299   16.9334   36.2556 C   0  0  1  0  0  0  0  0  0  0  0  0
   21.0805   12.5182   37.5055 O   0  0  0  0  0  0  0  0  0  0  0  0
   25.0906   16.0479   37.5460 C   0  0  0  0  0  0  0  0  0  0  0  0
   19.4555   12.4622   40.7982 O   0  0  0  0  0  0  0  0  0  0  0  0
   23.6173   15.7837   38.0426 C   0  0  1  0  0  0  0  0  0  0  0  0
   17.6443   14.0521   39.2809 O   0  0  0  0  0  0  0  0  0  0  0  0
   22.8338   15.0050   36.9702 C   0  0  2  0  0  0  0  0  0  0  0  0
   20.6428   13.8162   36.9090 C   0  0  1  0  0  0  0  0  0  0  0  0
   21.0006   12.4087   38.9896 C   0  0  2  0  0  0  0  0  0  0  0  0
   21.5163   11.0260   39.4001 C   0  0  0  0  0  0  0  0  0  0  0  0
   19.5521   12.5609   39.3972 C   0  0  2  0  0  0  0  0  0  0  0  0
   19.0188   13.9054   38.9056 C   0  0  1  0  0  0  0  0  0  0  0  0
   19.1505   13.9798   37.3644 C   0  0  1  0  0  0  0  0  0  0  0  0
  5  4  1  6  0  0  0
  5  8  1  0  0  0  0
  5 16  1  0  0  0  0
  8  7  1  6  0  0  0
  8 10  1  0  0  0  0
 10  1  1  6  0  0  0
 10 12  1  0  0  0  0
 11 18  1  0  0  0  0
 12 14  1  0  0  0  0
 14  2  1  1  0  0  0
 14 16  1  0  0  0  0
 16  9  1  1  0  0  0
 17  9  1  1  0  0  0
 17 11  1  0  0  0  0
 17 22  1  0  0  0  0
 18 19  1  6  0  0  0
 18 20  1  0  0  0  0
 19  3  1  0  0  0  0
 20 13  1  1  0  0  0
 20 21  1  0  0  0  0
 21 15  1  6  0  0  0
 21 22  1  0  0  0  0
 22  6  1  1  0  0  0
M  END
>  <CHROM.1>
80.67582650,79.65349091,72.57763157,21.88244041,14.45239266,37.51591300,-0.79578342
0.07223018,2.31930983

>  <Name>
2f4s_lig

>  <RI>
0

>  <Rbt.Current_Directory>
/home/itssahil/PROJECTS/Mol_Feturizer/New_Systems/rnas/2f4s

>  <Rbt.Executable>
rbdock ($Id: //depot/dev/client3/rdock/2013.1/src/exe/rbdock.cxx#4 $)

>  <Rbt.Library>
libRbt.so (2013.1, Build901 2013/11/27)

>  <Rbt.Parameter_File>
/export/apps/rDock/src/rDock_2013.1_src/data/scripts/dock_solv.prm

>  <Rbt.Receptor>
prm/pocket_docking_2.prm

>  <SCORE>
-13.3854

>  <SCORE.INTER>
-14.9183

>  <SCORE.INTER.CONST>
1

>  <SCORE.INTER.POLAR>
-0.979796

>  <SCORE.INTER.ROT>
3

>  <SCORE.INTER.SOLV>
19.3279

>  <SCORE.INTER.VDW>
-18.7222

>  <SCORE.INTER.norm>
-0.678106

>  <SCORE.INTRA>
1.53296

>  <SCORE.INTRA.DIHEDRAL>
2.622

>  <SCORE.INTRA.DIHEDRAL.0>
1.67653

>  <SCORE.INTRA.POLAR>
0

>  <SCORE.INTRA.POLAR.0>
0

>  <SCORE.INTRA.REPUL>
0

>  <SCORE.INTRA.REPUL.0>
0

>  <SCORE.INTRA.SOLV>
1.01238

>  <SCORE.INTRA.SOLV.lig_0>
-76.6701

>  <SCORE.INTRA.VDW>
-0.284226

>  <SCORE.INTRA.VDW.0>
-1.53273

>  <SCORE.INTRA.norm>
0.0696801

>  <SCORE.RESTR>
0

>  <SCORE.RESTR.CAVITY>
0

>  <SCORE.RESTR.norm>
0

>  <SCORE.SYSTEM>
0

>  <SCORE.SYSTEM.CONST>
0

>  <SCORE.SYSTEM.DIHEDRAL>
0

>  <SCORE.SYSTEM.SOLV>
0

>  <SCORE.SYSTEM.norm>
0

>  <SCORE.heavy>
22

>  <SCORE.norm>
-0.608426

>  <RMSD>
0.549

$$$$
2f4s_lig
 OpenBabel11021811433D
libRbt.so/2013.1/901 2013/11/27
 22 23  0  0  0  0  0  0  0  0999 V2000
   26.4163   17.2240   35.7401 N   0  0  0  0  0  0  0  0  0  0  0  0
   23.7238   14.9456   39.3088 N   0  0  0  0  0  0  0  0  0  0  0  0
   23.0101   11.0261   39.2260 N   0  0  0  0  0  0  0  0  0  0  0  0
   22.0130   15.2573   34.6220 O   0  0  0  0  0  0  0  0  0  0  0  0
   22.7713   15.9135   35.6790 C   0  0  2  0  0  0  0  0  0  0  0  0
   18.5973   15.2819   36.8715 N   0  0  0  0  0  0  0  0  0  0  0  0
   24.1817   17.0585   34.0173 O   0  0  0  0  0  0  0  0  0  0  0  0
   24.2100   16.2290   35.1848 C   0  0  1  0  0  0  0  0  0  0  0  0
   21.5174   14.7850   37.4574 O   0  0  0  0  0  0  0  0  0  0  0  0
   25.0218   16.9437   36.2582 C   0  0  1  0  0  0  0  0  0  0  0  0
   21.0860   12.5143   37.5120 O   0  0  0  0  0  0  0  0  0  0  0  0
   25.0871   16.0551   37.5463 C   0  0  0  0  0  0  0  0  0  0  0  0
   19.4575   12.4605   40.8030 O   0  0  0  0  0  0  0  0  0  0  0  0
   23.6154   15.7853   38.0445 C   0  0  1  0  0  0  0  0  0  0  0  0
   17.6441   14.0431   39.2808 O   0  0  0  0  0  0  0  0  0  0  0  0
   22.8324   15.0071   36.9714 C   0  0  2  0  0  0  0  0  0  0  0  0
   20.6458   13.8102   36.9126 C   0  0  1  0  0  0  0  0  0  0  0  0
   21.0047   12.4073   38.9962 C   0  0  2  0  0  0  0  0  0  0  0  0
   21.5232   11.0266   39.4097 C   0  0  0  0  0  0  0  0  0  0  0  0
   19.5554   12.5568   39.4019 C   0  0  2  0  0  0  0  0  0  0  0  0
   19.0194   13.8991   38.9072 C   0  0  1  0  0  0  0  0  0  0  0  0
   19.1526   13.9710   37.3661 C   0  0  1  0  0  0  0  0  0  0  0  0
  5  4  1  6  0  0  0
  5  8  1  0  0  0  0
  5 16  1  0  0  0  0
  8  7  1  6  0  0  0
  8 10  1  0  0  0  0
 10  1  1  6  0  0  0
 10 12  1  0  0  0  0
 11 18  1  0  0  0  0
 12 14  1  0  0  0  0
 14  2  1  1  0  0  0
 14 16  1  0  0  0  0
 16  9  1  1  0  0  0
 17  9  1  1  0  0  0
 17 11  1  0  0  0  0
 17 22  1  0  0  0  0
 18 19  1  6  0  0  0
 18 20  1  0  0  0  0
 19  3  1  0  0  0  0
 20 13  1  1  0  0  0
 20 21  1  0  0  0  0
 21 15  1  6  0  0  0
 21 22  1  0  0  0  0
 22  6  1  1  0  0  0
M  END
>  <CHROM.1>
80.81680739,79.84852360,72.50839992,21.88148997,14.45331585,37.51912244,-0.79830040
0.07454110,2.31925931

>  <Name>
2f4s_lig

>  <RI>
2.46955e+07

>  <Rbt.Current_Directory>
/home/itssahil/PROJECTS/Mol_Feturizer/New_Systems/rnas/2f4s

>  <Rbt.Executable>
rbdock ($Id: //depot/dev/client3/rdock/2013.1/src/exe/rbdock.cxx#4 $)

>  <Rbt.Library>
libRbt.so (2013.1, Build901 2013/11/27)

>  <Rbt.Parameter_File>
/export/apps/rDock/src/rDock_2013.1_src/data/scripts/dock_solv.prm

>  <Rbt.Receptor>
prm/pocket_docking_3.prm

>  <SCORE>
-13.3858

>  <SCORE.INTER>
-14.9491

>  <SCORE.INTER.CONST>
1

>  <SCORE.INTER.POLAR>
-0.979796

>  <SCORE.INTER.ROT>
3

>  <SCORE.INTER.SOLV>
19.2537

>  <SCORE.INTER.VDW>
-18.718

>  <SCORE.INTER.norm>
-0.679503

>  <SCORE.INTRA>
1.56331

>  <SCORE.INTRA.DIHEDRAL>
2.66999

>  <SCORE.INTRA.DIHEDRAL.0>
1.67653

>  <SCORE.INTRA.POLAR>
0

>  <SCORE.INTRA.POLAR.0>
0

>  <SCORE.INTRA.REPUL>
0

>  <SCORE.INTRA.REPUL.0>
0

>  <SCORE.INTRA.SOLV>
1.03113

>  <SCORE.INTRA.SOLV.lig_0>
-76.6701

>  <SCORE.INTRA.VDW>
-0.287249

>  <SCORE.INTRA.VDW.0>
-1.53273

>  <SCORE.INTRA.norm>
0.0710596

>  <SCORE.RESTR>
0

>  <SCORE.RESTR.CAVITY>
0

>  <SCORE.RESTR.norm>
0

>  <SCORE.SYSTEM>
0

>  <SCORE.SYSTEM.CONST>
0

>  <SCORE.SYSTEM.DIHEDRAL>
0

>  <SCORE.SYSTEM.SOLV>
0

>  <SCORE.SYSTEM.norm>
0

>  <SCORE.heavy>
22

>  <SCORE.norm>
-0.608443

>  <RMSD>
0.550

$$$$
2f4s_lig
 OpenBabel11021811433D
libRbt.so/2013.1/901 2013/11/27
 22 23  0  0  0  0  0  0  0  0999 V2000
   26.3987   17.2426   35.7366 N   0  0  0  0  0  0  0  0  0  0  0  0
   23.7490   14.9442   39.3244 N   0  0  0  0  0  0  0  0  0  0  0  0
   23.0328   10.9791   39.1901 N   0  0  0  0  0  0  0  0  0  0  0  0
   21.9977   15.2520   34.6523 O   0  0  0  0  0  0  0  0  0  0  0  0
   22.7609   15.9112   35.7039 C   0  0  2  0  0  0  0  0  0  0  0  0
   18.6033   15.2953   36.9534 N   0  0  0  0  0  0  0  0  0  0  0  0
   24.1509   17.0663   34.0320 O   0  0  0  0  0  0  0  0  0  0  0  0
   24.1936   16.2356   35.1982 C   0  0  1  0  0  0  0  0  0  0  0  0
   21.5283   14.7733   37.4912 O   0  0  0  0  0  0  0  0  0  0  0  0
   25.0102   16.9535   36.2658 C   0  0  1  0  0  0  0  0  0  0  0  0
   21.0888   12.5035   37.4933 O   0  0  0  0  0  0  0  0  0  0  0  0
   25.0913   16.0637   37.5521 C   0  0  0  0  0  0  0  0  0  0  0  0
   19.4997   12.3717   40.8013 O   0  0  0  0  0  0  0  0  0  0  0  0
   23.6253   15.7849   38.0622 C   0  0  1  0  0  0  0  0  0  0  0  0
   17.6743   13.9991   39.3418 O   0  0  0  0  0  0  0  0  0  0  0  0
   22.8379   15.0035   36.9946 C   0  0  2  0  0  0  0  0  0  0  0  0
   20.6465   13.8158   36.9323 C   0  0  1  0  0  0  0  0  0  0  0  0
   21.0248   12.3590   38.9751 C   0  0  2  0  0  0  0  0  0  0  0  0
   21.5430   10.9664   39.3471 C   0  0  0  0  0  0  0  0  0  0  0  0
   19.5811   12.5033   39.4020 C   0  0  2  0  0  0  0  0  0  0  0  0
   19.0444   13.8597   38.9481 C   0  0  1  0  0  0  0  0  0  0  0  0
   19.1594   13.9703   37.4078 C   0  0  1  0  0  0  0  0  0  0  0  0
  5  4  1  6  0  0  0
  5  8  1  0  0  0  0
  5 16  1  0  0  0  0
  8  7  1  6  0  0  0
  8 10  1  0  0  0  0
 10  1  1  6  0  0  0
 10 12  1  0  0  0  0
 11 18  1  0  0  0  0
 12 14  1  0  0  0  0
 14  2  1  1  0  0  0
 14 16  1  0  0  0  0
 16  9  1  1  0  0  0
 17  9  1  1  0  0  0
 17 11  1  0  0  0  0
 17 22  1  0  0  0  0
 18 19  1  6  0  0  0
 18 20  1  0  0  0  0
 19  3  1  0  0  0  0
 20 13  1  1  0  0  0
 20 21  1  0  0  0  0
 21 15  1  6  0  0  0
 21 22  1  0  0  0  0
 22  6  1  1  0  0  0
M  END
>  <CHROM.1>
79.29200955,79.88887150,74.39569185,21.88861504,14.43704856,37.53239597,-0.80643002
0.06665666,2.33618376

>  <Name>
2f4s_lig

>  <RI>
2.46955e+07

>  <Rbt.Current_Directory>
/home/itssahil/PROJECTS/Mol_Feturizer/New_Systems/rnas/2f4s

>  <Rbt.Executable>
rbdock ($Id: //depot/dev/client3/rdock/2013.1/src/exe/rbdock.cxx#4 $)

>  <Rbt.Library>
libRbt.so (2013.1, Build901 2013/11/27)

>  <Rbt.Parameter_File>
/export/apps/rDock/src/rDock_2013.1_src/data/scripts/dock_solv.prm

>  <Rbt.Receptor>
prm/pocket_docking_3.prm

>  <SCORE>
-13.375

>  <SCORE.INTER>
-14.8514

>  <SCORE.INTER.CONST>
1

>  <SCORE.INTER.POLAR>
-0.979796

>  <SCORE.INTER.ROT>
3

>  <SCORE.INTER.SOLV>
19.5371

>  <SCORE.INTER.VDW>
-18.7473

>  <SCORE.INTER.norm>
-0.675064

>  <SCORE.INTRA>
1.47639

>  <SCORE.INTRA.DIHEDRAL>
2.59858

>  <SCORE.INTRA.DIHEDRAL.0>
1.67653

>  <SCORE.INTRA.POLAR>
0

>  <SCORE.INTRA.POLAR.0>
0

>  <SCORE.INTRA.REPUL>
0

>  <SCORE.INTRA.REPUL.0>
0

>  <SCORE.INTRA.SOLV>
0.865095

>  <SCORE.INTRA.SOLV.lig_0>
-76.6701

>  <SCORE.INTRA.VDW>
-0.255445

>  <SCORE.INTRA.VDW.0>
-1.53273

>  <SCORE.INTRA.norm>
0.0671088

>  <SCORE.RESTR>
0

>  <SCORE.RESTR.CAVITY>
0

>  <SCORE.RESTR.norm>
0

>  <SCORE.SYSTEM>
0

>  <SCORE.SYSTEM.CONST>
0

>  <SCORE.SYSTEM.DIHEDRAL>
0

>  <SCORE.SYSTEM.SOLV>
0

>  <SCORE.SYSTEM.norm>
0

>  <SCORE.heavy>
22

>  <SCORE.norm>
-0.607955

>  <RMSD>
0.550

$$$$
2f4s_lig
 OpenBabel11021811433D
libRbt.so/2013.1/901 2013/11/27
 22 23  0  0  0  0  0  0  0  0999 V2000
   26.2875   17.2482   35.6635 N   0  0  0  0  0  0  0  0  0  0  0  0
   23.7194   14.9333   39.2997 N   0  0  0  0  0  0  0  0  0  0  0  0
   22.9532   10.9956   39.2443 N   0  0  0  0  0  0  0  0  0  0  0  0
   21.8730   15.2429   34.6644 O   0  0  0  0  0  0  0  0  0  0  0  0
   22.6548   15.9031   35.7016 C   0  0  2  0  0  0  0  0  0  0  0  0
   18.5384   15.2444   36.9391 N   0  0  0  0  0  0  0  0  0  0  0  0
   24.0065   17.0666   34.0043 O   0  0  0  0  0  0  0  0  0  0  0  0
   24.0758   16.2339   35.1678 C   0  0  1  0  0  0  0  0  0  0  0  0
   21.4628   14.7572   37.5112 O   0  0  0  0  0  0  0  0  0  0  0  0
   24.9110   16.9530   36.2201 C   0  0  1  0  0  0  0  0  0  0  0  0
   21.0315   12.4880   37.6099 O   0  0  0  0  0  0  0  0  0  0  0  0
   25.0214   16.0611   37.5028 C   0  0  0  0  0  0  0  0  0  0  0  0
   19.4284   12.4937   40.9138 O   0  0  0  0  0  0  0  0  0  0  0  0
   23.5671   15.7758   38.0418 C   0  0  1  0  0  0  0  0  0  0  0  0
   17.6036   14.0494   39.3775 O   0  0  0  0  0  0  0  0  0  0  0  0
   22.7613   14.9934   36.9888 C   0  0  2  0  0  0  0  0  0  0  0  0
   20.5869   13.7731   36.9908 C   0  0  1  0  0  0  0  0  0  0  0  0
   20.9616   12.4077   39.0964 C   0  0  2  0  0  0  0  0  0  0  0  0
   21.4831   11.0345   39.5305 C   0  0  0  0  0  0  0  0  0  0  0  0
   19.5155   12.5649   39.5105 C   0  0  2  0  0  0  0  0  0  0  0  0
   18.9759   13.8983   38.9960 C   0  0  1  0  0  0  0  0  0  0  0  0
   19.0972   13.9425   37.4528 C   0  0  1  0  0  0  0  0  0  0  0  0
  5  4  1  6  0  0  0
  5  8  1  0  0  0  0
  5 16  1  0  0  0  0
  8  7  1  6  0  0  0
  8 10  1  0  0  0  0
 10  1  1  6  0  0  0
 10 12  1  0  0  0  0
 11 18  1  0  0  0  0
 12 14  1  0  0  0  0
 14  2  1  1  0  0  0
 14 16  1  0  0  0  0
 16  9  1  1  0  0  0
 17  9  1  1  0  0  0
 17 11  1  0  0  0  0
 17 22  1  0  0  0  0
 18 19  1  6  0  0  0
 18 20  1  0  0  0  0
 19  3  1  0  0  0  0
 20 13  1  1  0  0  0
 20 21  1  0  0  0  0
 21 15  1  6  0  0  0
 21 22  1  0  0  0  0
 22  6  1  1  0  0  0
M  END
>  <CHROM.1>
81.01122080,81.52013950,68.55206604,21.80973931,14.44706514,37.56133525,-0.81830431
0.06475194,2.31584104

>  <Name>
2f4s_lig

>  <RI>
2.46955e+07

>  <Rbt.Current_Directory>
/home/itssahil/PROJECTS/Mol_Feturizer/New_Systems/rnas/2f4s

>  <Rbt.Executable>
rbdock ($Id: //depot/dev/client3/rdock/2013.1/src/exe/rbdock.cxx#4 $)

>  <Rbt.Library>
libRbt.so (2013.1, Build901 2013/11/27)

>  <Rbt.Parameter_File>
/export/apps/rDock/src/rDock_2013.1_src/data/scripts/dock_solv.prm

>  <Rbt.Receptor>
prm/pocket_docking_3.prm

>  <SCORE>
-13.1754

>  <SCORE.INTER>
-14.7687

>  <SCORE.INTER.CONST>
1

>  <SCORE.INTER.POLAR>
-0.979796

>  <SCORE.INTER.ROT>
3

>  <SCORE.INTER.SOLV>
19.1213

>  <SCORE.INTER.VDW>
-18.5536

>  <SCORE.INTER.norm>
-0.671307

>  <SCORE.INTRA>
1.59337

>  <SCORE.INTRA.DIHEDRAL>
2.68428

>  <SCORE.INTRA.DIHEDRAL.0>
1.67653

>  <SCORE.INTRA.POLAR>
0

>  <SCORE.INTRA.POLAR.0>
0

>  <SCORE.INTRA.REPUL>
0

>  <SCORE.INTRA.REPUL.0>
0

>  <SCORE.INTRA.SOLV>
1.07023

>  <SCORE.INTRA.SOLV.lig_0>
-76.6701

>  <SCORE.INTRA.VDW>
-0.28388

>  <SCORE.INTRA.VDW.0>
-1.53273

>  <SCORE.INTRA.norm>
0.072426

>  <SCORE.RESTR>
0

>  <SCORE.RESTR.CAVITY>
0

>  <SCORE.RESTR.norm>
0

>  <SCORE.SYSTEM>
0

>  <SCORE.SYSTEM.CONST>
0

>  <SCORE.SYSTEM.DIHEDRAL>
0

>  <SCORE.SYSTEM.SOLV>
0

>  <SCORE.SYSTEM.norm>
0

>  <SCORE.heavy>
22

>  <SCORE.norm>
-0.598881

>  <RMSD>
0.552

$$$$
2f4s_lig
 OpenBabel11021811433D
libRbt.so/2013.1/901 2013/11/27
 22 23  0  0  0  0  0  0  0  0999 V2000
   26.4239   17.1993   35.7375 N   0  0  0  0  0  0  0  0  0  0  0  0
   23.6891   14.9314   39.2806 N   0  0  0  0  0  0  0  0  0  0  0  0
   22.9967   11.0484   39.2152 N   0  0  0  0  0  0  0  0  0  0  0  0
   22.0165   15.2638   34.5814 O   0  0  0  0  0  0  0  0  0  0  0  0
   22.7709   15.9129   35.6456 C   0  0  2  0  0  0  0  0  0  0  0  0
   18.5759   15.2734   36.8158 N   0  0  0  0  0  0  0  0  0  0  0  0
   24.2016   17.0519   33.9971 O   0  0  0  0  0  0  0  0  0  0  0  0
   24.2154   16.2199   35.1631 C   0  0  1  0  0  0  0  0  0  0  0  0
   21.4960   14.7890   37.4120 O   0  0  0  0  0  0  0  0  0  0  0  0
   25.0236   16.9270   36.2442 C   0  0  1  0  0  0  0  0  0  0  0  0
   21.0714   12.5174   37.4791 O   0  0  0  0  0  0  0  0  0  0  0  0
   25.0732   16.0354   37.5309 C   0  0  0  0  0  0  0  0  0  0  0  0
   19.4348   12.4781   40.7663 O   0  0  0  0  0  0  0  0  0  0  0  0
   23.5959   15.7744   38.0173 C   0  0  1  0  0  0  0  0  0  0  0  0
   17.6204   14.0461   39.2300 O   0  0  0  0  0  0  0  0  0  0  0  0
   22.8161   15.0035   36.9366 C   0  0  2  0  0  0  0  0  0  0  0  0
   20.6288   13.8083   36.8708 C   0  0  1  0  0  0  0  0  0  0  0  0
   20.9867   12.4190   38.9637 C   0  0  2  0  0  0  0  0  0  0  0  0
   21.5085   11.0424   39.3867 C   0  0  0  0  0  0  0  0  0  0  0  0
   19.5360   12.5664   39.3648 C   0  0  2  0  0  0  0  0  0  0  0  0
   18.9971   13.9041   38.8608 C   0  0  1  0  0  0  0  0  0  0  0  0
   19.1340   13.9672   37.3196 C   0  0  1  0  0  0  0  0  0  0  0  0
  5  4  1  6  0  0  0
  5  8  1  0  0  0  0
  5 16  1  0  0  0  0
  8  7  1  6  0  0  0
  8 10  1  0  0  0  0
 10  1  1  6  0  0  0
 10 12  1  0  0  0  0
 11 18  1  0  0  0  0
 12 14  1  0  0  0  0
 14  2  1  1  0  0  0
 14 16  1  0  0  0  0
 16  9  1  1  0  0  0
 17  9  1  1  0  0  0
 17 11  1  0  0  0  0
 17 22  1  0  0  0  0
 18 19  1  6  0  0  0
 18 20  1  0  0  0  0
 19  3  1  0  0  0  0
 20 13  1  1  0  0  0
 20 21  1  0  0  0  0
 21 15  1  6  0  0  0
 21 22  1  0  0  0  0
 22  6  1  1  0  0  0
M  END
>  <CHROM.1>
81.73025548,79.21499439,72.87347990,21.86915868,14.45255680,37.48724614,-0.79205237
0.07816115,2.31386765

>  <Name>
2f4s_lig

>  <RI>
0

>  <Rbt.Current_Directory>
/home/itssahil/PROJECTS/Mol_Feturizer/New_Systems/rnas/2f4s

>  <Rbt.Executable>
rbdock ($Id: //depot/dev/client3/rdock/2013.1/src/exe/rbdock.cxx#4 $)

>  <Rbt.Library>
libRbt.so (2013.1, Build901 2013/11/27)

>  <Rbt.Parameter_File>
/export/apps/rDock/src/rDock_2013.1_src/data/scripts/dock_solv.prm

>  <Rbt.Receptor>
prm/pocket_docking_2.prm

>  <SCORE>
-13.3277

>  <SCORE.INTER>
-14.9591

>  <SCORE.INTER.CONST>
1

>  <SCORE.INTER.POLAR>
-0.979796

>  <SCORE.INTER.ROT>
3

>  <SCORE.INTER.SOLV>
19.2422

>  <SCORE.INTER.VDW>
-18.7208

>  <SCORE.INTER.norm>
-0.679957

>  <SCORE.INTRA>
1.63134

>  <SCORE.INTRA.DIHEDRAL>
2.75569

>  <SCORE.INTRA.DIHEDRAL.0>
1.67653

>  <SCORE.INTRA.POLAR>
0

>  <SCORE.INTRA.POLAR.0>
0

>  <SCORE.INTRA.REPUL>
0

>  <SCORE.INTRA.REPUL.0>
0

>  <SCORE.INTRA.SOLV>
1.12235

>  <SCORE.INTRA.SOLV.lig_0>
-76.6701

>  <SCORE.INTRA.VDW>
-0.307677

>  <SCORE.INTRA.VDW.0>
-1.53273

>  <SCORE.INTRA.norm>
0.074152

>  <SCORE.RESTR>
0

>  <SCORE.RESTR.CAVITY>
0

>  <SCORE.RESTR.norm>
0

>  <SCORE.SYSTEM>
0

>  <SCORE.SYSTEM.CONST>
0

>  <SCORE.SYSTEM.DIHEDRAL>
0

>  <SCORE.SYSTEM.SOLV>
0

>  <SCORE.SYSTEM.norm>
0

>  <SCORE.heavy>
22

>  <SCORE.norm>
-0.605805

>  <RMSD>
0.554

$$$$
2f4s_lig
 OpenBabel11021811433D
libRbt.so/2013.1/901 2013/11/27
 22 23  0  0  0  0  0  0  0  0999 V2000
   26.3634   17.2470   35.7044 N   0  0  0  0  0  0  0  0  0  0  0  0
   23.7254   14.9605   39.3084 N   0  0  0  0  0  0  0  0  0  0  0  0
   22.9958   11.0157   39.2699 N   0  0  0  0  0  0  0  0  0  0  0  0
   21.9755   15.2209   34.6329 O   0  0  0  0  0  0  0  0  0  0  0  0
   22.7339   15.8930   35.6797 C   0  0  2  0  0  0  0  0  0  0  0  0
   18.5886   15.2496   36.8736 N   0  0  0  0  0  0  0  0  0  0  0  0
   24.1179   17.0436   33.9998 O   0  0  0  0  0  0  0  0  0  0  0  0
   24.1649   16.2223   35.1725 C   0  0  1  0  0  0  0  0  0  0  0  0
   21.5071   14.7615   37.4751 O   0  0  0  0  0  0  0  0  0  0  0  0
   24.9763   16.9536   36.2350 C   0  0  1  0  0  0  0  0  0  0  0  0
   21.0781   12.4909   37.5484 O   0  0  0  0  0  0  0  0  0  0  0  0
   25.0620   16.0744   37.5283 C   0  0  0  0  0  0  0  0  0  0  0  0
   19.4371   12.4645   40.8335 O   0  0  0  0  0  0  0  0  0  0  0  0
   23.5974   15.7905   38.0395 C   0  0  1  0  0  0  0  0  0  0  0  0
   17.6277   14.0313   39.2903 O   0  0  0  0  0  0  0  0  0  0  0  0
   22.8156   14.9960   36.9776 C   0  0  2  0  0  0  0  0  0  0  0  0
   20.6387   13.7808   36.9357 C   0  0  1  0  0  0  0  0  0  0  0  0
   20.9913   12.3971   39.0331 C   0  0  2  0  0  0  0  0  0  0  0  0
   21.5099   11.0207   39.4610 C   0  0  0  0  0  0  0  0  0  0  0  0
   19.5403   12.5484   39.4320 C   0  0  2  0  0  0  0  0  0  0  0  0
   19.0046   13.8856   38.9233 C   0  0  1  0  0  0  0  0  0  0  0  0
   19.1436   13.9439   37.3821 C   0  0  1  0  0  0  0  0  0  0  0  0
  5  4  1  6  0  0  0
  5  8  1  0  0  0  0
  5 16  1  0  0  0  0
  8  7  1  6  0  0  0
  8 10  1  0  0  0  0
 10  1  1  6  0  0  0
 10 12  1  0  0  0  0
 11 18  1  0  0  0  0
 12 14  1  0  0  0  0
 14  2  1  1  0  0  0
 14 16  1  0  0  0  0
 16  9  1  1  0  0  0
 17  9  1  1  0  0  0
 17 11  1  0  0  0  0
 17 22  1  0  0  0  0
 18 19  1  6  0  0  0
 18 20  1  0  0  0  0
 19  3  1  0  0  0  0
 20 13  1  1  0  0  0
 20 21  1  0  0  0  0
 21 15  1  6  0  0  0
 21 22  1  0  0  0  0
 22  6  1  1  0  0  0
M  END
>  <CHROM.1>
80.24391857,80.93142018,71.95303997,21.85903311,14.44351270,37.52930271,-0.80663171
0.07783223,2.31370636

>  <Name>
2f4s_lig

>  <RI>
0

>  <Rbt.Current_Directory>
/home/itssahil/PROJECTS/Mol_Feturizer/New_Systems/rnas/2f4s

>  <Rbt.Executable>
rbdock ($Id: //depot/dev/client3/rdock/2013.1/src/exe/rbdock.cxx#4 $)

>  <Rbt.Library>
libRbt.so (2013.1, Build901 2013/11/27)

>  <Rbt.Parameter_File>
/export/apps/rDock/src/rDock_2013.1_src/data/scripts/dock_solv.prm

>  <Rbt.Receptor>
prm/pocket_docking_5.prm

>  <SCORE>
-13.289

>  <SCORE.INTER>
-14.8588

>  <SCORE.INTER.CONST>
1

>  <SCORE.INTER.POLAR>
-0.979796

>  <SCORE.INTER.ROT>
3

>  <SCORE.INTER.SOLV>
19.1529

>  <SCORE.INTER.VDW>
-18.6242

>  <SCORE.INTER.norm>
-0.675401

>  <SCORE.INTRA>
1.56985

>  <SCORE.INTRA.DIHEDRAL>
2.70283

>  <SCORE.INTRA.DIHEDRAL.0>
1.67653

>  <SCORE.INTRA.POLAR>
0

>  <SCORE.INTRA.POLAR.0>
0

>  <SCORE.INTRA.REPUL>
0

>  <SCORE.INTRA.REPUL.0>
0

>  <SCORE.INTRA.SOLV>
0.984396

>  <SCORE.INTRA.SOLV.lig_0>
-76.6701

>  <SCORE.INTRA.VDW>
-0.273758

>  <SCORE.INTRA.VDW.0>
-1.53273

>  <SCORE.INTRA.norm>
0.071357

>  <SCORE.RESTR>
0

>  <SCORE.RESTR.CAVITY>
0

>  <SCORE.RESTR.norm>
0

>  <SCORE.SYSTEM>
0

>  <SCORE.SYSTEM.CONST>
0

>  <SCORE.SYSTEM.DIHEDRAL>
0

>  <SCORE.SYSTEM.SOLV>
0

>  <SCORE.SYSTEM.norm>
0

>  <SCORE.heavy>
22

>  <SCORE.norm>
-0.604044

>  <RMSD>
0.556

$$$$
2f4s_lig
 OpenBabel11021811433D
libRbt.so/2013.1/901 2013/11/27
 22 23  0  0  0  0  0  0  0  0999 V2000
   26.4656   17.2545   35.7777 N   0  0  0  0  0  0  0  0  0  0  0  0
   23.7594   14.9683   39.3309 N   0  0  0  0  0  0  0  0  0  0  0  0
   23.1103   11.0265   39.1913 N   0  0  0  0  0  0  0  0  0  0  0  0
   22.0824   15.2599   34.6305 O   0  0  0  0  0  0  0  0  0  0  0  0
   22.8288   15.9228   35.6918 C   0  0  2  0  0  0  0  0  0  0  0  0
   18.6399   15.2714   36.9043 N   0  0  0  0  0  0  0  0  0  0  0  0
   24.2452   17.0723   34.0383 O   0  0  0  0  0  0  0  0  0  0  0  0
   24.2694   16.2456   35.2078 C   0  0  1  0  0  0  0  0  0  0  0  0
   21.5680   14.7909   37.4631 O   0  0  0  0  0  0  0  0  0  0  0  0
   25.0689   16.9672   36.2858 C   0  0  1  0  0  0  0  0  0  0  0  0
   21.1577   12.5157   37.4789 O   0  0  0  0  0  0  0  0  0  0  0  0
   25.1296   16.0818   37.5763 C   0  0  0  0  0  0  0  0  0  0  0  0
   19.5505   12.3869   40.7783 O   0  0  0  0  0  0  0  0  0  0  0  0
   23.6557   15.8046   38.0639 C   0  0  1  0  0  0  0  0  0  0  0  0
   17.7132   13.9802   39.2964 O   0  0  0  0  0  0  0  0  0  0  0  0
   22.8854   15.0196   36.9867 C   0  0  2  0  0  0  0  0  0  0  0  0
   20.7020   13.8182   36.9060 C   0  0  1  0  0  0  0  0  0  0  0  0
   21.0867   12.3810   38.9614 C   0  0  2  0  0  0  0  0  0  0  0  0
   21.6205   10.9978   39.3464 C   0  0  0  0  0  0  0  0  0  0  0  0
   19.6387   12.5096   39.3786 C   0  0  2  0  0  0  0  0  0  0  0  0
   19.0874   13.8557   38.9119 C   0  0  1  0  0  0  0  0  0  0  0  0
   19.2102   13.9569   37.3715 C   0  0  1  0  0  0  0  0  0  0  0  0
  5  4  1  6  0  0  0
  5  8  1  0  0  0  0
  5 16  1  0  0  0  0
  8  7  1  6  0  0  0
  8 10  1  0  0  0  0
 10  1  1  6  0  0  0
 10 12  1  0  0  0  0
 11 18  1  0  0  0  0
 12 14  1  0  0  0  0
 14  2  1  1  0  0  0
 14 16  1  0  0  0  0
 16  9  1  1  0  0  0
 17  9  1  1  0  0  0
 17 11  1  0  0  0  0
 17 22  1  0  0  0  0
 18 19  1  6  0  0  0
 18 20  1  0  0  0  0
 19  3  1  0  0  0  0
 20 13  1  1  0  0  0
 20 21  1  0  0  0  0
 21 15  1  6  0  0  0
 21 22  1  0  0  0  0
 22  6  1  1  0  0  0
M  END
>  <CHROM.1>
80.22542817,78.83424188,74.10762390,21.94497558,14.44756727,37.52169427,-0.80050053
0.07912782,2.32862859

>  <Name>
2f4s_lig

>  <RI>
0

>  <Rbt.Current_Directory>
/home/itssahil/PROJECTS/Mol_Feturizer/New_Systems/rnas/2f4s

>  <Rbt.Executable>
rbdock ($Id: //depot/dev/client3/rdock/2013.1/src/exe/rbdock.cxx#4 $)

>  <Rbt.Library>
libRbt.so (2013.1, Build901 2013/11/27)

>  <Rbt.Parameter_File>
/export/apps/rDock/src/rDock_2013.1_src/data/scripts/dock_solv.prm

>  <Rbt.Receptor>
prm/pocket_docking_4.prm

>  <SCORE>
-13.3628

>  <SCORE.INTER>
-14.841

>  <SCORE.INTER.CONST>
1

>  <SCORE.INTER.POLAR>
-0.979796

>  <SCORE.INTER.ROT>
3

>  <SCORE.INTER.SOLV>
19.493

>  <SCORE.INTER.VDW>
-18.7257

>  <SCORE.INTER.norm>
-0.67459

>  <SCORE.INTRA>
1.4782

>  <SCORE.INTRA.DIHEDRAL>
2.55816

>  <SCORE.INTRA.DIHEDRAL.0>
1.67653

>  <SCORE.INTRA.POLAR>
0

>  <SCORE.INTRA.POLAR.0>
0

>  <SCORE.INTRA.REPUL>
0

>  <SCORE.INTRA.REPUL.0>
0

>  <SCORE.INTRA.SOLV>
0.950622

>  <SCORE.INTRA.SOLV.lig_0>
-76.6701

>  <SCORE.INTRA.VDW>
-0.276196

>  <SCORE.INTRA.VDW.0>
-1.53273

>  <SCORE.INTRA.norm>
0.0671907

>  <SCORE.RESTR>
0

>  <SCORE.RESTR.CAVITY>
0

>  <SCORE.RESTR.norm>
0

>  <SCORE.SYSTEM>
0

>  <SCORE.SYSTEM.CONST>
0

>  <SCORE.SYSTEM.DIHEDRAL>
0

>  <SCORE.SYSTEM.SOLV>
0

>  <SCORE.SYSTEM.norm>
0

>  <SCORE.heavy>
22

>  <SCORE.norm>
-0.607399

>  <RMSD>
0.557

$$$$
2f4s_lig
 OpenBabel11021811433D
libRbt.so/2013.1/901 2013/11/27
 22 23  0  0  0  0  0  0  0  0999 V2000
   26.4645   17.2184   35.7627 N   0  0  0  0  0  0  0  0  0  0  0  0
   23.7521   14.9713   39.3361 N   0  0  0  0  0  0  0  0  0  0  0  0
   23.1041   11.0383   39.2462 N   0  0  0  0  0  0  0  0  0  0  0  0
   22.0772   15.2229   34.6327 O   0  0  0  0  0  0  0  0  0  0  0  0
   22.8248   15.8940   35.6880 C   0  0  2  0  0  0  0  0  0  0  0  0
   18.6325   15.2569   36.9077 N   0  0  0  0  0  0  0  0  0  0  0  0
   24.2442   17.0249   34.0244 O   0  0  0  0  0  0  0  0  0  0  0  0
   24.2662   16.2090   35.2016 C   0  0  1  0  0  0  0  0  0  0  0  0
   21.5609   14.7814   37.4694 O   0  0  0  0  0  0  0  0  0  0  0  0
   25.0670   16.9389   36.2730 C   0  0  1  0  0  0  0  0  0  0  0  0
   21.1498   12.5066   37.5098 O   0  0  0  0  0  0  0  0  0  0  0  0
   25.1253   16.0654   37.5717 C   0  0  0  0  0  0  0  0  0  0  0  0
   19.5451   12.4136   40.8116 O   0  0  0  0  0  0  0  0  0  0  0  0
   23.6506   15.7961   38.0614 C   0  0  1  0  0  0  0  0  0  0  0  0
   17.7073   13.9917   39.3141 O   0  0  0  0  0  0  0  0  0  0  0  0
   22.8789   15.0027   36.9913 C   0  0  2  0  0  0  0  0  0  0  0  0
   20.6941   13.8031   36.9234 C   0  0  1  0  0  0  0  0  0  0  0  0
   21.0799   12.3878   38.9937 C   0  0  2  0  0  0  0  0  0  0  0  0
   21.6135   11.0086   39.3931 C   0  0  0  0  0  0  0  0  0  0  0  0
   19.6323   12.5214   39.4106 C   0  0  2  0  0  0  0  0  0  0  0  0
   19.0810   13.8626   38.9299 C   0  0  1  0  0  0  0  0  0  0  0  0
   19.2028   13.9473   37.3885 C   0  0  1  0  0  0  0  0  0  0  0  0
  5  4  1  6  0  0  0
  5  8  1  0  0  0  0
  5 16  1  0  0  0  0
  8  7  1  6  0  0  0
  8 10  1  0  0  0  0
 10  1  1  6  0  0  0
 10 12  1  0  0  0  0
 11 18  1  0  0  0  0
 12 14  1  0  0  0  0
 14  2  1  1  0  0  0
 14 16  1  0  0  0  0
 16  9  1  1  0  0  0
 17  9  1  1  0  0  0
 17 11  1  0  0  0  0
 17 22  1  0  0  0  0
 18 19  1  6  0  0  0
 18 20  1  0  0  0  0
 19  3  1  0  0  0  0
 20 13  1  1  0  0  0
 20 21  1  0  0  0  0
 21 15  1  6  0  0  0
 21 22  1  0  0  0  0
 22  6  1  1  0  0  0
M  END
>  <CHROM.1>
80.39420081,78.70699977,74.51744225,21.93946292,14.43740929,37.53377110,-0.79958205
0.07864345,2.31759616

>  <Name>
2f4s_lig

>  <RI>
2.46955e+07

>  <Rbt.Current_Directory>
/home/itssahil/PROJECTS/Mol_Feturizer/New_Systems/rnas/2f4s

>  <Rbt.Executable>
rbdock ($Id: //depot/dev/client3/rdock/2013.1/src/exe/rbdock.cxx#4 $)

>  <Rbt.Library>
libRbt.so (2013.1, Build901 2013/11/27)

>  <Rbt.Parameter_File>
/export/apps/rDock/src/rDock_2013.1_src/data/scripts/dock_solv.prm

>  <Rbt.Receptor>
prm/pocket_docking_3.prm

>  <SCORE>
-13.3479

>  <SCORE.INTER>
-14.8539

>  <SCORE.INTER.CONST>
1

>  <SCORE.INTER.POLAR>
-0.979796

>  <SCORE.INTER.ROT>
3

>  <SCORE.INTER.SOLV>
19.4221

>  <SCORE.INTER.VDW>
-18.7106

>  <SCORE.INTER.norm>
-0.675176

>  <SCORE.INTRA>
1.50594

>  <SCORE.INTRA.DIHEDRAL>
2.60505

>  <SCORE.INTRA.DIHEDRAL.0>
1.67653

>  <SCORE.INTRA.POLAR>
0

>  <SCORE.INTRA.POLAR.0>
0

>  <SCORE.INTRA.REPUL>
0

>  <SCORE.INTRA.REPUL.0>
0

>  <SCORE.INTRA.SOLV>
0.96777

>  <SCORE.INTRA.SOLV.lig_0>
-76.6701

>  <SCORE.INTRA.VDW>
-0.280475

>  <SCORE.INTRA.VDW.0>
-1.53273

>  <SCORE.INTRA.norm>
0.0684517

>  <SCORE.RESTR>
0

>  <SCORE.RESTR.CAVITY>
0

>  <SCORE.RESTR.norm>
0

>  <SCORE.SYSTEM>
0

>  <SCORE.SYSTEM.CONST>
0

>  <SCORE.SYSTEM.DIHEDRAL>
0

>  <SCORE.SYSTEM.SOLV>
0

>  <SCORE.SYSTEM.norm>
0

>  <SCORE.heavy>
22

>  <SCORE.norm>
-0.606724

>  <RMSD>
0.562

$$$$
2f4s_lig
 OpenBabel11021811433D
libRbt.so/2013.1/901 2013/11/27
 22 23  0  0  0  0  0  0  0  0999 V2000
   26.5293   17.2032   35.8573 N   0  0  0  0  0  0  0  0  0  0  0  0
   23.7293   14.9164   39.3367 N   0  0  0  0  0  0  0  0  0  0  0  0
   23.1201   11.0889   39.2162 N   0  0  0  0  0  0  0  0  0  0  0  0
   22.1204   15.3215   34.6210 O   0  0  0  0  0  0  0  0  0  0  0  0
   22.8667   15.9507   35.7027 C   0  0  2  0  0  0  0  0  0  0  0  0
   18.6297   15.2634   36.8599 N   0  0  0  0  0  0  0  0  0  0  0  0
   24.3284   17.0971   34.0870 O   0  0  0  0  0  0  0  0  0  0  0  0
   24.3199   16.2507   35.2426 C   0  0  1  0  0  0  0  0  0  0  0  0
   21.5593   14.8166   37.4386 O   0  0  0  0  0  0  0  0  0  0  0  0
   25.1202   16.9372   36.3426 C   0  0  1  0  0  0  0  0  0  0  0  0
   21.1660   12.5392   37.4991 O   0  0  0  0  0  0  0  0  0  0  0  0
   25.1454   16.0295   37.6187 C   0  0  0  0  0  0  0  0  0  0  0  0
   19.5478   12.4651   40.7948 O   0  0  0  0  0  0  0  0  0  0  0  0
   23.6598   15.7757   38.0828 C   0  0  1  0  0  0  0  0  0  0  0  0
   17.7040   14.0140   39.2744 O   0  0  0  0  0  0  0  0  0  0  0  0
   22.8873   15.0251   36.9828 C   0  0  2  0  0  0  0  0  0  0  0  0
   20.7026   13.8262   36.8982 C   0  0  1  0  0  0  0  0  0  0  0  0
   21.0906   12.4340   38.9838 C   0  0  2  0  0  0  0  0  0  0  0  0
   21.6334   11.0630   39.3987 C   0  0  0  0  0  0  0  0  0  0  0  0
   19.6402   12.5601   39.3932 C   0  0  2  0  0  0  0  0  0  0  0  0
   19.0805   13.8922   38.8973 C   0  0  1  0  0  0  0  0  0  0  0  0
   19.2082   13.9630   37.3556 C   0  0  1  0  0  0  0  0  0  0  0  0
  5  4  1  6  0  0  0
  5  8  1  0  0  0  0
  5 16  1  0  0  0  0
  8  7  1  6  0  0  0
  8 10  1  0  0  0  0
 10  1  1  6  0  0  0
 10 12  1  0  0  0  0
 11 18  1  0  0  0  0
 12 14  1  0  0  0  0
 14  2  1  1  0  0  0
 14 16  1  0  0  0  0
 16  9  1  1  0  0  0
 17  9  1  1  0  0  0
 17 11  1  0  0  0  0
 17 22  1  0  0  0  0
 18 19  1  6  0  0  0
 18 20  1  0  0  0  0
 19  3  1  0  0  0  0
 20 13  1  1  0  0  0
 20 21  1  0  0  0  0
 21 15  1  6  0  0  0
 21 22  1  0  0  0  0
 22  6  1  1  0  0  0
M  END
>  <CHROM.1>
83.47423336,77.34163975,72.74269716,21.95938360,14.46432480,37.53533879,-0.78659380
0.08338911,2.31762676

>  <Name>
2f4s_lig

>  <RI>
0

>  <Rbt.Current_Directory>
/home/itssahil/PROJECTS/Mol_Feturizer/New_Systems/rnas/2f4s

>  <Rbt.Executable>
rbdock ($Id: //depot/dev/client3/rdock/2013.1/src/exe/rbdock.cxx#4 $)

>  <Rbt.Library>
libRbt.so (2013.1, Build901 2013/11/27)

>  <Rbt.Parameter_File>
/export/apps/rDock/src/rDock_2013.1_src/data/scripts/dock_solv.prm

>  <Rbt.Receptor>
prm/pocket_docking_2.prm

>  <SCORE>
-13.2784

>  <SCORE.INTER>
-14.9591

>  <SCORE.INTER.CONST>
1

>  <SCORE.INTER.POLAR>
-0.979796

>  <SCORE.INTER.ROT>
3

>  <SCORE.INTER.SOLV>
19.1184

>  <SCORE.INTER.VDW>
-18.6796

>  <SCORE.INTER.norm>
-0.679961

>  <SCORE.INTRA>
1.68074

>  <SCORE.INTRA.DIHEDRAL>
2.7668

>  <SCORE.INTRA.DIHEDRAL.0>
1.67653

>  <SCORE.INTRA.POLAR>
0

>  <SCORE.INTRA.POLAR.0>
0

>  <SCORE.INTRA.REPUL>
0

>  <SCORE.INTRA.REPUL.0>
0

>  <SCORE.INTRA.SOLV>
1.28327

>  <SCORE.INTRA.SOLV.lig_0>
-76.6701

>  <SCORE.INTRA.VDW>
-0.344289

>  <SCORE.INTRA.VDW.0>
-1.53273

>  <SCORE.INTRA.norm>
0.0763975

>  <SCORE.RESTR>
0

>  <SCORE.RESTR.CAVITY>
0

>  <SCORE.RESTR.norm>
0

>  <SCORE.SYSTEM>
0

>  <SCORE.SYSTEM.CONST>
0

>  <SCORE.SYSTEM.DIHEDRAL>
0

>  <SCORE.SYSTEM.SOLV>
0

>  <SCORE.SYSTEM.norm>
0

>  <SCORE.heavy>
22

>  <SCORE.norm>
-0.603564

>  <RMSD>
0.573

$$$$
2f4s_lig
 OpenBabel11021811433D
libRbt.so/2013.1/901 2013/11/27
 22 23  0  0  0  0  0  0  0  0999 V2000
   26.8197   17.2861   35.5460 N   0  0  0  0  0  0  0  0  0  0  0  0
   23.9061   15.5198   39.2293 N   0  0  0  0  0  0  0  0  0  0  0  0
   21.2784   10.4549   38.0582 N   0  0  0  0  0  0  0  0  0  0  0  0
   22.3685   15.4033   34.4740 O   0  0  0  0  0  0  0  0  0  0  0  0
   23.1212   16.1352   35.4843 C   0  0  2  0  0  0  0  0  0  0  0  0
   18.8026   15.7950   37.0087 N   0  0  0  0  0  0  0  0  0  0  0  0
   24.6383   17.0343   33.7663 O   0  0  0  0  0  0  0  0  0  0  0  0
   24.5888   16.3337   35.0148 C   0  0  1  0  0  0  0  0  0  0  0  0
   21.7573   15.2581   37.3225 O   0  0  0  0  0  0  0  0  0  0  0  0
   25.3971   17.1231   36.0372 C   0  0  1  0  0  0  0  0  0  0  0  0
   21.3156   12.9891   37.2822 O   0  0  0  0  0  0  0  0  0  0  0  0
   25.3778   16.3750   37.4131 C   0  0  0  0  0  0  0  0  0  0  0  0
   19.9626   12.7492   40.6877 O   0  0  0  0  0  0  0  0  0  0  0  0
   23.8793   16.2238   37.8806 C   0  0  1  0  0  0  0  0  0  0  0  0
   18.0417   14.4215   39.4133 O   0  0  0  0  0  0  0  0  0  0  0  0
   23.0967   15.3701   36.8663 C   0  0  2  0  0  0  0  0  0  0  0  0
   20.8370   14.3184   36.7964 C   0  0  1  0  0  0  0  0  0  0  0  0
   21.3557   12.7967   38.7594 C   0  0  2  0  0  0  0  0  0  0  0  0
   21.8966   11.3932   39.0490 C   0  0  0  0  0  0  0  0  0  0  0  0
   19.9458   12.9260   39.2911 C   0  0  2  0  0  0  0  0  0  0  0  0
   19.3805   14.2960   38.9201 C   0  0  1  0  0  0  0  0  0  0  0  0
   19.3872   14.4564   37.3799 C   0  0  1  0  0  0  0  0  0  0  0  0
  5  4  1  6  0  0  0
  5  8  1  0  0  0  0
  5 16  1  0  0  0  0
  8  7  1  6  0  0  0
  8 10  1  0  0  0  0
 10  1  1  6  0  0  0
 10 12  1  0  0  0  0
 11 18  1  0  0  0  0
 12 14  1  0  0  0  0
 14  2  1  1  0  0  0
 14 16  1  0  0  0  0
 16  9  1  1  0  0  0
 17  9  1  1  0  0  0
 17 11  1  0  0  0  0
 17 22  1  0  0  0  0
 18 19  1  6  0  0  0
 18 20  1  0  0  0  0
 19  3  1  0  0  0  0
 20 13  1  1  0  0  0
 20 21  1  0  0  0  0
 21 15  1  6  0  0  0
 21 22  1  0  0  0  0
 22  6  1  1  0  0  0
M  END
>  <CHROM.1>
77.12478272,70.47759593,-41.11112703,22.11431665,14.74502040,37.34520804
-0.77787672,0.04008266,2.34414558

>  <Name>
2f4s_lig

>  <RI>
0

>  <Rbt.Current_Directory>
/home/itssahil/PROJECTS/Mol_Feturizer/New_Systems/rnas/2f4s

>  <Rbt.Executable>
rbdock ($Id: //depot/dev/client3/rdock/2013.1/src/exe/rbdock.cxx#4 $)

>  <Rbt.Library>
libRbt.so (2013.1, Build901 2013/11/27)

>  <Rbt.Parameter_File>
/export/apps/rDock/src/rDock_2013.1_src/data/scripts/dock_solv.prm

>  <Rbt.Receptor>
prm/pocket_docking_2.prm

>  <SCORE>
-9.57205

>  <SCORE.INTER>
-11.1552

>  <SCORE.INTER.CONST>
1

>  <SCORE.INTER.POLAR>
-1.24465

>  <SCORE.INTER.ROT>
3

>  <SCORE.INTER.SOLV>
24.4302

>  <SCORE.INTER.VDW>
-17.0314

>  <SCORE.INTER.norm>
-0.507055

>  <SCORE.INTRA>
1.58315

>  <SCORE.INTRA.DIHEDRAL>
1.53069

>  <SCORE.INTRA.DIHEDRAL.0>
1.67653

>  <SCORE.INTRA.POLAR>
0

>  <SCORE.INTRA.POLAR.0>
0

>  <SCORE.INTRA.REPUL>
0

>  <SCORE.INTRA.REPUL.0>
0

>  <SCORE.INTRA.SOLV>
1.56421

>  <SCORE.INTRA.SOLV.lig_0>
-76.6701

>  <SCORE.INTRA.VDW>
0.0357028

>  <SCORE.INTRA.VDW.0>
-1.53273

>  <SCORE.INTRA.norm>
0.0719614

>  <SCORE.RESTR>
0

>  <SCORE.RESTR.CAVITY>
0

>  <SCORE.RESTR.norm>
0

>  <SCORE.SYSTEM>
0

>  <SCORE.SYSTEM.CONST>
0

>  <SCORE.SYSTEM.DIHEDRAL>
0

>  <SCORE.SYSTEM.SOLV>
0

>  <SCORE.SYSTEM.norm>
0

>  <SCORE.heavy>
22

>  <SCORE.norm>
-0.435093

>  <RMSD>
0.579

$$$$
2f4s_lig
 OpenBabel11021811433D
libRbt.so/2013.1/901 2013/11/27
 22 23  0  0  0  0  0  0  0  0999 V2000
   26.4926   17.2212   35.8489 N   0  0  0  0  0  0  0  0  0  0  0  0
   23.7349   14.9097   39.3458 N   0  0  0  0  0  0  0  0  0  0  0  0
   23.1285   11.0509   39.2052 N   0  0  0  0  0  0  0  0  0  0  0  0
   22.0932   15.2999   34.6401 O   0  0  0  0  0  0  0  0  0  0  0  0
   22.8405   15.9359   35.7172 C   0  0  2  0  0  0  0  0  0  0  0  0
   18.6217   15.2377   36.8975 N   0  0  0  0  0  0  0  0  0  0  0  0
   24.2818   17.0952   34.0923 O   0  0  0  0  0  0  0  0  0  0  0  0
   24.2881   16.2489   35.2480 C   0  0  1  0  0  0  0  0  0  0  0  0
   21.5542   14.7903   37.4612 O   0  0  0  0  0  0  0  0  0  0  0  0
   25.0891   16.9427   36.3430 C   0  0  1  0  0  0  0  0  0  0  0  0
   21.1648   12.5117   37.5014 O   0  0  0  0  0  0  0  0  0  0  0  0
   25.1303   16.0353   37.6189 C   0  0  0  0  0  0  0  0  0  0  0  0
   19.5589   12.4036   40.8022 O   0  0  0  0  0  0  0  0  0  0  0  0
   23.6499   15.7682   38.0923 C   0  0  1  0  0  0  0  0  0  0  0  0
   17.7070   13.9639   39.3034 O   0  0  0  0  0  0  0  0  0  0  0  0
   22.8774   15.0106   36.9972 C   0  0  2  0  0  0  0  0  0  0  0  0
   20.6971   13.8037   36.9146 C   0  0  1  0  0  0  0  0  0  0  0  0
   21.0951   12.3922   38.9853 C   0  0  2  0  0  0  0  0  0  0  0  0
   21.6415   11.0183   39.3851 C   0  0  0  0  0  0  0  0  0  0  0  0
   19.6460   12.5121   39.4012 C   0  0  2  0  0  0  0  0  0  0  0  0
   19.0822   13.8479   38.9201 C   0  0  1  0  0  0  0  0  0  0  0  0
   19.2041   13.9337   37.3787 C   0  0  1  0  0  0  0  0  0  0  0  0
  5  4  1  6  0  0  0
  5  8  1  0  0  0  0
  5 16  1  0  0  0  0
  8  7  1  6  0  0  0
  8 10  1  0  0  0  0
 10  1  1  6  0  0  0
 10 12  1  0  0  0  0
 11 18  1  0  0  0  0
 12 14  1  0  0  0  0
 14  2  1  1  0  0  0
 14 16  1  0  0  0  0
 16  9  1  1  0  0  0
 17  9  1  1  0  0  0
 17 11  1  0  0  0  0
 17 22  1  0  0  0  0
 18 19  1  6  0  0  0
 18 20  1  0  0  0  0
 19  3  1  0  0  0  0
 20 13  1  1  0  0  0
 20 21  1  0  0  0  0
 21 15  1  6  0  0  0
 21 22  1  0  0  0  0
 22  6  1  1  0  0  0
M  END
>  <CHROM.1>
82.63323730,77.73192258,73.07394366,21.94981573,14.44127834,37.54525585,-0.79470422
0.08300195,2.32510552

>  <Name>
2f4s_lig

>  <RI>
2.46955e+07

>  <Rbt.Current_Directory>
/home/itssahil/PROJECTS/Mol_Feturizer/New_Systems/rnas/2f4s

>  <Rbt.Executable>
rbdock ($Id: //depot/dev/client3/rdock/2013.1/src/exe/rbdock.cxx#4 $)

>  <Rbt.Library>
libRbt.so (2013.1, Build901 2013/11/27)

>  <Rbt.Parameter_File>
/export/apps/rDock/src/rDock_2013.1_src/data/scripts/dock_solv.prm

>  <Rbt.Receptor>
prm/pocket_docking_3.prm

>  <SCORE>
-13.2968

>  <SCORE.INTER>
-14.921

>  <SCORE.INTER.CONST>
1

>  <SCORE.INTER.POLAR>
-0.979796

>  <SCORE.INTER.ROT>
3

>  <SCORE.INTER.SOLV>
19.2838

>  <SCORE.INTER.VDW>
-18.7093

>  <SCORE.INTER.norm>
-0.678228

>  <SCORE.INTRA>
1.62421

>  <SCORE.INTRA.DIHEDRAL>
2.70527

>  <SCORE.INTRA.DIHEDRAL.0>
1.67653

>  <SCORE.INTRA.POLAR>
0

>  <SCORE.INTRA.POLAR.0>
0

>  <SCORE.INTRA.REPUL>
0

>  <SCORE.INTRA.REPUL.0>
0

>  <SCORE.INTRA.SOLV>
1.19755

>  <SCORE.INTRA.SOLV.lig_0>
-76.6701

>  <SCORE.INTRA.VDW>
-0.327202

>  <SCORE.INTRA.VDW.0>
-1.53273

>  <SCORE.INTRA.norm>
0.0738275

>  <SCORE.RESTR>
0

>  <SCORE.RESTR.CAVITY>
0

>  <SCORE.RESTR.norm>
0

>  <SCORE.SYSTEM>
0

>  <SCORE.SYSTEM.CONST>
0

>  <SCORE.SYSTEM.DIHEDRAL>
0

>  <SCORE.SYSTEM.SOLV>
0

>  <SCORE.SYSTEM.norm>
0

>  <SCORE.heavy>
22

>  <SCORE.norm>
-0.6044

>  <RMSD>
0.582

$$$$
2f4s_lig
 OpenBabel11021811433D
libRbt.so/2013.1/901 2013/11/27
 22 23  0  0  0  0  0  0  0  0999 V2000
   26.0394   17.1353   35.3558 N   0  0  0  0  0  0  0  0  0  0  0  0
   23.5205   14.9352   39.0961 N   0  0  0  0  0  0  0  0  0  0  0  0
   22.7545   11.1148   39.3481 N   0  0  0  0  0  0  0  0  0  0  0  0
   21.5960   15.1333   34.4866 O   0  0  0  0  0  0  0  0  0  0  0  0
   22.3997   15.8158   35.4922 C   0  0  2  0  0  0  0  0  0  0  0  0
   18.3024   15.1401   36.7499 N   0  0  0  0  0  0  0  0  0  0  0  0
   23.7289   16.9246   33.7414 O   0  0  0  0  0  0  0  0  0  0  0  0
   23.8132   16.1228   34.9254 C   0  0  1  0  0  0  0  0  0  0  0  0
   21.2322   14.7265   37.3520 O   0  0  0  0  0  0  0  0  0  0  0  0
   24.6710   16.8641   35.9436 C   0  0  1  0  0  0  0  0  0  0  0  0
   20.8221   12.4683   37.6307 O   0  0  0  0  0  0  0  0  0  0  0  0
   24.7981   16.0061   37.2476 C   0  0  0  0  0  0  0  0  0  0  0  0
   19.2243   12.7205   40.9275 O   0  0  0  0  0  0  0  0  0  0  0  0
   23.3516   15.7449   37.8189 C   0  0  1  0  0  0  0  0  0  0  0  0
   17.3827   14.1331   39.2772 O   0  0  0  0  0  0  0  0  0  0  0  0
   22.5228   14.9400   36.8013 C   0  0  2  0  0  0  0  0  0  0  0  0
   20.3647   13.6963   36.9130 C   0  0  1  0  0  0  0  0  0  0  0  0
   20.7553   12.5051   39.1190 C   0  0  2  0  0  0  0  0  0  0  0  0
   21.2903   11.1754   39.6592 C   0  0  0  0  0  0  0  0  0  0  0  0
   19.3085   12.6813   39.5228 C   0  0  2  0  0  0  0  0  0  0  0  0
   18.7557   13.9648   38.9057 C   0  0  1  0  0  0  0  0  0  0  0  0
   18.8742   13.8880   37.3636 C   0  0  1  0  0  0  0  0  0  0  0  0
  5  4  1  6  0  0  0
  5  8  1  0  0  0  0
  5 16  1  0  0  0  0
  8  7  1  6  0  0  0
  8 10  1  0  0  0  0
 10  1  1  6  0  0  0
 10 12  1  0  0  0  0
 11 18  1  0  0  0  0
 12 14  1  0  0  0  0
 14  2  1  1  0  0  0
 14 16  1  0  0  0  0
 16  9  1  1  0  0  0
 17  9  1  1  0  0  0
 17 11  1  0  0  0  0
 17 22  1  0  0  0  0
 18 19  1  1  0  0  0
 18 20  1  0  0  0  0
 19  3  1  0  0  0  0
 20 13  1  1  0  0  0
 20 21  1  0  0  0  0
 21 15  1  6  0  0  0
 21 22  1  0  0  0  0
 22  6  1  6  0  0  0
M  END
>  <CHROM.1>
83.90608891,82.10769535,67.38846010,21.58180859,14.43772132,37.43723949,-0.82830110
0.06543192,2.25544971

>  <Name>
2f4s_lig

>  <RI>
2.00194e+07

>  <Rbt.Current_Directory>
/home/itssahil/PROJECTS/Mol_Feturizer/New_Systems/rnas/2f4s

>  <Rbt.Executable>
rbdock ($Id: //depot/dev/client3/rdock/2013.1/src/exe/rbdock.cxx#4 $)

>  <Rbt.Library>
libRbt.so (2013.1, Build901 2013/11/27)

>  <Rbt.Parameter_File>
/export/apps/rDock/src/rDock_2013.1_src/data/scripts/dock_solv.prm

>  <Rbt.Receptor>
prm/pocket_docking_6.prm

>  <SCORE>
-12.9922

>  <SCORE.INTER>
-14.9559

>  <SCORE.INTER.CONST>
1

>  <SCORE.INTER.POLAR>
-0.979796

>  <SCORE.INTER.ROT>
3

>  <SCORE.INTER.SOLV>
18.5775

>  <SCORE.INTER.VDW>
-18.4971

>  <SCORE.INTER.norm>
-0.679813

>  <SCORE.INTRA>
1.96148

>  <SCORE.INTRA.DIHEDRAL>
3.2146

>  <SCORE.INTRA.DIHEDRAL.0>
1.67653

>  <SCORE.INTRA.POLAR>
0

>  <SCORE.INTRA.POLAR.0>
0

>  <SCORE.INTRA.REPUL>
0

>  <SCORE.INTRA.REPUL.0>
0

>  <SCORE.INTRA.SOLV>
1.39011

>  <SCORE.INTRA.SOLV.lig_0>
-76.6701

>  <SCORE.INTRA.VDW>
-0.340874

>  <SCORE.INTRA.VDW.0>
-1.53273

>  <SCORE.INTRA.norm>
0.0891583

>  <SCORE.RESTR>
0.00216982

>  <SCORE.RESTR.CAVITY>
0.00216982

>  <SCORE.RESTR.norm>
9.86281e-05

>  <SCORE.SYSTEM>
0

>  <SCORE.SYSTEM.CONST>
0

>  <SCORE.SYSTEM.DIHEDRAL>
0

>  <SCORE.SYSTEM.SOLV>
0

>  <SCORE.SYSTEM.norm>
0

>  <SCORE.heavy>
22

>  <SCORE.norm>
-0.590556

>  <RMSD>
0.628

$$$$
2f4s_lig
 OpenBabel11021811433D
libRbt.so/2013.1/901 2013/11/27
 22 23  0  0  0  0  0  0  0  0999 V2000
   26.5344   17.6821   35.1005 N   0  0  0  0  0  0  0  0  0  0  0  0
   23.8639   16.6301   39.2160 N   0  0  0  0  0  0  0  0  0  0  0  0
   21.2089   10.6301   38.0442 N   0  0  0  0  0  0  0  0  0  0  0  0
   22.4673   14.8823   34.7455 O   0  0  0  0  0  0  0  0  0  0  0  0
   23.0709   15.9883   35.4771 C   0  0  2  0  0  0  0  0  0  0  0  0
   18.8783   16.0728   37.2498 N   0  0  0  0  0  0  0  0  0  0  0  0
   24.4604   16.5753   33.5313 O   0  0  0  0  0  0  0  0  0  0  0  0
   24.4972   16.2724   34.9309 C   0  0  1  0  0  0  0  0  0  0  0  0
   21.8264   15.4817   37.5273 O   0  0  0  0  0  0  0  0  0  0  0  0
   25.1463   17.4451   35.6559 C   0  0  1  0  0  0  0  0  0  0  0  0
   21.3566   13.2248   37.3517 O   0  0  0  0  0  0  0  0  0  0  0  0
   25.2178   17.1396   37.1903 C   0  0  0  0  0  0  0  0  0  0  0  0
   20.0024   12.7981   40.7384 O   0  0  0  0  0  0  0  0  0  0  0  0
   23.7533   16.8946   37.7216 C   0  0  1  0  0  0  0  0  0  0  0  0
   18.1017   14.5673   39.5689 O   0  0  0  0  0  0  0  0  0  0  0  0
   23.1399   15.6677   37.0225 C   0  0  2  0  0  0  0  0  0  0  0  0
   20.8942   14.5867   36.9470 C   0  0  1  0  0  0  0  0  0  0  0  0
   21.3951   12.9439   38.8148 C   0  0  2  0  0  0  0  0  0  0  0  0
   21.9187   11.5190   39.0191 C   0  0  0  0  0  0  0  0  0  0  0  0
   19.9871   13.0585   39.3550 C   0  0  2  0  0  0  0  0  0  0  0  0
   19.4387   14.4550   39.0673 C   0  0  1  0  0  0  0  0  0  0  0  0
   19.4466   14.7073   37.5395 C   0  0  1  0  0  0  0  0  0  0  0  0
  5  4  1  6  0  0  0
  5  8  1  0  0  0  0
  5 16  1  0  0  0  0
  8  7  1  6  0  0  0
  8 10  1  0  0  0  0
 10  1  1  6  0  0  0
 10 12  1  0  0  0  0
 11 18  1  0  0  0  0
 12 14  1  0  0  0  0
 14  2  1  1  0  0  0
 14 16  1  0  0  0  0
 16  9  1  1  0  0  0
 17  9  1  1  0  0  0
 17 11  1  0  0  0  0
 17 22  1  0  0  0  0
 18 19  1  6  0  0  0
 18 20  1  0  0  0  0
 19  3  1  0  0  0  0
 20 13  1  1  0  0  0
 20 21  1  0  0  0  0
 21 15  1  6  0  0  0
 21 22  1  0  0  0  0
 22  6  1  1  0  0  0
M  END
>  <CHROM.1>
52.22901275,74.70581325,-45.42452030,22.09108616,14.94253121,37.35427772
-0.69108415,-0.46819129,2.86230553

>  <Name>
2f4s_lig

>  <RI>
0

>  <Rbt.Current_Directory>
/home/itssahil/PROJECTS/Mol_Feturizer/New_Systems/rnas/2f4s

>  <Rbt.Executable>
rbdock ($Id: //depot/dev/client3/rdock/2013.1/src/exe/rbdock.cxx#4 $)

>  <Rbt.Library>
libRbt.so (2013.1, Build901 2013/11/27)

>  <Rbt.Parameter_File>
/export/apps/rDock/src/rDock_2013.1_src/data/scripts/dock_solv.prm

>  <Rbt.Receptor>
prm/pocket_docking_2.prm

>  <SCORE>
-7.61633

>  <SCORE.INTER>
-9.31191

>  <SCORE.INTER.CONST>
1

>  <SCORE.INTER.POLAR>
-1.35187

>  <SCORE.INTER.ROT>
3

>  <SCORE.INTER.SOLV>
23.2995

>  <SCORE.INTER.VDW>
-15.0682

>  <SCORE.INTER.norm>
-0.423269

>  <SCORE.INTRA>
1.69558

>  <SCORE.INTRA.DIHEDRAL>
0.495606

>  <SCORE.INTRA.DIHEDRAL.0>
1.67653

>  <SCORE.INTRA.POLAR>
0

>  <SCORE.INTRA.POLAR.0>
0

>  <SCORE.INTRA.REPUL>
0

>  <SCORE.INTRA.REPUL.0>
0

>  <SCORE.INTRA.SOLV>
1.04669

>  <SCORE.INTRA.SOLV.lig_0>
-76.6701

>  <SCORE.INTRA.VDW>
0.924427

>  <SCORE.INTRA.VDW.0>
-1.53273

>  <SCORE.INTRA.norm>
0.0770716

>  <SCORE.RESTR>
0

>  <SCORE.RESTR.CAVITY>
0

>  <SCORE.RESTR.norm>
0

>  <SCORE.SYSTEM>
0

>  <SCORE.SYSTEM.CONST>
0

>  <SCORE.SYSTEM.DIHEDRAL>
0

>  <SCORE.SYSTEM.SOLV>
0

>  <SCORE.SYSTEM.norm>
0

>  <SCORE.heavy>
22

>  <SCORE.norm>
-0.346197

>  <RMSD>
0.631

$$$$
2f4s_lig
 OpenBabel11021811433D
libRbt.so/2013.1/901 2013/11/27
 22 23  0  0  0  0  0  0  0  0999 V2000
   26.5890   17.4212   35.4389 N   0  0  0  0  0  0  0  0  0  0  0  0
   23.8377   15.4151   39.1243 N   0  0  0  0  0  0  0  0  0  0  0  0
   21.4386   10.1782   38.4563 N   0  0  0  0  0  0  0  0  0  0  0  0
   22.2999   15.1908   34.3729 O   0  0  0  0  0  0  0  0  0  0  0  0
   22.9946   15.9775   35.3836 C   0  0  2  0  0  0  0  0  0  0  0  0
   18.7296   15.2389   36.8156 N   0  0  0  0  0  0  0  0  0  0  0  0
   24.4294   17.0009   33.6645 O   0  0  0  0  0  0  0  0  0  0  0  0
   24.4400   16.2946   34.9107 C   0  0  1  0  0  0  0  0  0  0  0  0
   21.7110   14.9879   37.2226 O   0  0  0  0  0  0  0  0  0  0  0  0
   25.1856   17.1430   35.9336 C   0  0  1  0  0  0  0  0  0  0  0  0
   21.4705   12.6907   37.3234 O   0  0  0  0  0  0  0  0  0  0  0  0
   25.2305   16.3914   37.3069 C   0  0  0  0  0  0  0  0  0  0  0  0
   20.0570   12.5500   40.7099 O   0  0  0  0  0  0  0  0  0  0  0  0
   23.7504   16.1190   37.7781 C   0  0  1  0  0  0  0  0  0  0  0  0
   18.0305   13.9600   39.2902 O   0  0  0  0  0  0  0  0  0  0  0  0
   23.0357   15.2084   36.7630 C   0  0  2  0  0  0  0  0  0  0  0  0
   20.8901   13.9385   36.7415 C   0  0  1  0  0  0  0  0  0  0  0  0
   21.4895   12.5977   38.8107 C   0  0  2  0  0  0  0  0  0  0  0  0
   22.1434   11.2692   39.2028 C   0  0  0  0  0  0  0  0  0  0  0  0
   20.0605   12.6349   39.3046 C   0  0  2  0  0  0  0  0  0  0  0  0
   19.3874   13.9226   38.8329 C   0  0  1  0  0  0  0  0  0  0  0  0
   19.4194   13.9841   37.2859 C   0  0  1  0  0  0  0  0  0  0  0  0
  5  4  1  6  0  0  0
  5  8  1  0  0  0  0
  5 16  1  0  0  0  0
  8  7  1  6  0  0  0
  8 10  1  0  0  0  0
 10  1  1  6  0  0  0
 10 12  1  0  0  0  0
 11 18  1  0  0  0  0
 12 14  1  0  0  0  0
 14  2  1  1  0  0  0
 14 16  1  0  0  0  0
 16  9  1  1  0  0  0
 17  9  1  1  0  0  0
 17 11  1  0  0  0  0
 17 22  1  0  0  0  0
 18 19  1  6  0  0  0
 18 20  1  0  0  0  0
 19  3  1  0  0  0  0
 20 13  1  1  0  0  0
 20 21  1  0  0  0  0
 21 15  1  6  0  0  0
 21 22  1  0  0  0  0
 22  6  1  1  0  0  0
M  END
>  <CHROM.1>
80.27475838,72.03994874,-52.27608085,22.09072242,14.53727057,37.29959152
-0.83589646,0.12988975,2.29359827

>  <Name>
2f4s_lig

>  <RI>
2.26097e+07

>  <Rbt.Current_Directory>
/home/itssahil/PROJECTS/Mol_Feturizer/New_Systems/rnas/2f4s

>  <Rbt.Executable>
rbdock ($Id: //depot/dev/client3/rdock/2013.1/src/exe/rbdock.cxx#4 $)

>  <Rbt.Library>
libRbt.so (2013.1, Build901 2013/11/27)

>  <Rbt.Parameter_File>
/export/apps/rDock/src/rDock_2013.1_src/data/scripts/dock_solv.prm

>  <Rbt.Receptor>
prm/pocket_docking_7.prm

>  <SCORE>
-9.83792

>  <SCORE.INTER>
-11.2994

>  <SCORE.INTER.CONST>
1

>  <SCORE.INTER.POLAR>
-0.997894

>  <SCORE.INTER.ROT>
3

>  <SCORE.INTER.SOLV>
23.9321

>  <SCORE.INTER.VDW>
-17.784

>  <SCORE.INTER.norm>
-0.513607

>  <SCORE.INTRA>
1.46144

>  <SCORE.INTRA.DIHEDRAL>
1.19841

>  <SCORE.INTRA.DIHEDRAL.0>
1.67653

>  <SCORE.INTRA.POLAR>
0

>  <SCORE.INTRA.POLAR.0>
0

>  <SCORE.INTRA.REPUL>
0

>  <SCORE.INTRA.REPUL.0>
0

>  <SCORE.INTRA.SOLV>
1.92383

>  <SCORE.INTRA.SOLV.lig_0>
-76.6701

>  <SCORE.INTRA.VDW>
-0.0996804

>  <SCORE.INTRA.VDW.0>
-1.53273

>  <SCORE.INTRA.norm>
0.0664292

>  <SCORE.RESTR>
0

>  <SCORE.RESTR.CAVITY>
0

>  <SCORE.RESTR.norm>
0

>  <SCORE.SYSTEM>
0

>  <SCORE.SYSTEM.CONST>
0

>  <SCORE.SYSTEM.DIHEDRAL>
0

>  <SCORE.SYSTEM.SOLV>
0

>  <SCORE.SYSTEM.norm>
0

>  <SCORE.heavy>
22

>  <SCORE.norm>
-0.447178

>  <RMSD>
0.634

$$$$
2f4s_lig
 OpenBabel11021811433D
libRbt.so/2013.1/901 2013/11/27
 22 23  0  0  0  0  0  0  0  0999 V2000
   26.3978   17.1824   35.5328 N   0  0  0  0  0  0  0  0  0  0  0  0
   23.6966   15.0106   39.1609 N   0  0  0  0  0  0  0  0  0  0  0  0
   22.0773   10.9740   40.4977 N   0  0  0  0  0  0  0  0  0  0  0  0
   21.9367   15.3059   34.4912 O   0  0  0  0  0  0  0  0  0  0  0  0
   22.7228   15.9568   35.5310 C   0  0  2  0  0  0  0  0  0  0  0  0
   18.5006   15.3635   37.0267 N   0  0  0  0  0  0  0  0  0  0  0  0
   24.1392   17.0484   33.8387 O   0  0  0  0  0  0  0  0  0  0  0  0
   24.1623   16.2326   35.0159 C   0  0  1  0  0  0  0  0  0  0  0  0
   21.4647   14.8794   37.3379 O   0  0  0  0  0  0  0  0  0  0  0  0
   25.0035   16.9409   36.0708 C   0  0  1  0  0  0  0  0  0  0  0  0
   21.0641   12.6029   37.2925 O   0  0  0  0  0  0  0  0  0  0  0  0
   25.0638   16.0666   37.3688 C   0  0  0  0  0  0  0  0  0  0  0  0
   19.7173   12.3306   40.6980 O   0  0  0  0  0  0  0  0  0  0  0  0
   23.5924   15.8374   37.8877 C   0  0  1  0  0  0  0  0  0  0  0  0
   17.7659   13.9709   39.4285 O   0  0  0  0  0  0  0  0  0  0  0  0
   22.7785   15.0648   36.8337 C   0  0  2  0  0  0  0  0  0  0  0  0
   20.5613   13.9245   36.8100 C   0  0  1  0  0  0  0  0  0  0  0  0
   21.1084   12.4079   38.7693 C   0  0  2  0  0  0  0  0  0  0  0  0
   21.6747   11.0137   39.0552 C   0  0  0  0  0  0  0  0  0  0  0  0
   19.6966   12.5104   39.3018 C   0  0  2  0  0  0  0  0  0  0  0  0
   19.1065   13.8707   38.9343 C   0  0  1  0  0  0  0  0  0  0  0  0
   19.1096   14.0349   37.3945 C   0  0  1  0  0  0  0  0  0  0  0  0
  5  4  1  6  0  0  0
  5  8  1  0  0  0  0
  5 16  1  0  0  0  0
  8  7  1  6  0  0  0
  8 10  1  0  0  0  0
 10  1  1  6  0  0  0
 10 12  1  0  0  0  0
 11 18  1  0  0  0  0
 12 14  1  0  0  0  0
 14  2  1  1  0  0  0
 14 16  1  0  0  0  0
 16  9  1  1  0  0  0
 17  9  1  1  0  0  0
 17 11  1  0  0  0  0
 17 22  1  0  0  0  0
 18 19  1  6  0  0  0
 18 20  1  0  0  0  0
 19  3  1  0  0  0  0
 20 13  1  1  0  0  0
 20 21  1  0  0  0  0
 21 15  1  6  0  0  0
 21 22  1  0  0  0  0
 22  6  1  1  0  0  0
M  END
>  <CHROM.1>
80.40692893,73.92698141,164.16371460,21.84901712,14.46744288,37.46300648
-0.84817804,0.10140917,2.27537967

>  <Name>
2f4s_lig

>  <RI>
2.46955e+07

>  <Rbt.Current_Directory>
/home/itssahil/PROJECTS/Mol_Feturizer/New_Systems/rnas/2f4s

>  <Rbt.Executable>
rbdock ($Id: //depot/dev/client3/rdock/2013.1/src/exe/rbdock.cxx#4 $)

>  <Rbt.Library>
libRbt.so (2013.1, Build901 2013/11/27)

>  <Rbt.Parameter_File>
/export/apps/rDock/src/rDock_2013.1_src/data/scripts/dock_solv.prm

>  <Rbt.Receptor>
prm/pocket_docking_3.prm

>  <SCORE>
-13.899

>  <SCORE.INTER>
-15.5026

>  <SCORE.INTER.CONST>
1

>  <SCORE.INTER.POLAR>
-0.979796

>  <SCORE.INTER.ROT>
3

>  <SCORE.INTER.SOLV>
16.9058

>  <SCORE.INTER.VDW>
-18.3044

>  <SCORE.INTER.norm>
-0.704666

>  <SCORE.INTRA>
1.60361

>  <SCORE.INTRA.DIHEDRAL>
2.06404

>  <SCORE.INTRA.DIHEDRAL.0>
1.67653

>  <SCORE.INTRA.POLAR>
0

>  <SCORE.INTRA.POLAR.0>
0

>  <SCORE.INTRA.REPUL>
0

>  <SCORE.INTRA.REPUL.0>
0

>  <SCORE.INTRA.SOLV>
1.331

>  <SCORE.INTRA.SOLV.lig_0>
-76.6701

>  <SCORE.INTRA.VDW>
-0.0939135

>  <SCORE.INTRA.VDW.0>
-1.53273

>  <SCORE.INTRA.norm>
0.0728912

>  <SCORE.RESTR>
0

>  <SCORE.RESTR.CAVITY>
0

>  <SCORE.RESTR.norm>
0

>  <SCORE.SYSTEM>
0

>  <SCORE.SYSTEM.CONST>
0

>  <SCORE.SYSTEM.DIHEDRAL>
0

>  <SCORE.SYSTEM.SOLV>
0

>  <SCORE.SYSTEM.norm>
0

>  <SCORE.heavy>
22

>  <SCORE.norm>
-0.631774

>  <RMSD>
0.651

$$$$
2f4s_lig
 OpenBabel11021811433D
libRbt.so/2013.1/901 2013/11/27
 22 23  0  0  0  0  0  0  0  0999 V2000
   26.4129   17.2286   35.6224 N   0  0  0  0  0  0  0  0  0  0  0  0
   23.6925   14.9801   39.1888 N   0  0  0  0  0  0  0  0  0  0  0  0
   22.0637   10.9881   40.5177 N   0  0  0  0  0  0  0  0  0  0  0  0
   21.9473   15.3966   34.5228 O   0  0  0  0  0  0  0  0  0  0  0  0
   22.7330   16.0187   35.5804 C   0  0  2  0  0  0  0  0  0  0  0  0
   18.5003   15.3714   37.0312 N   0  0  0  0  0  0  0  0  0  0  0  0
   24.1587   17.1454   33.9193 O   0  0  0  0  0  0  0  0  0  0  0  0
   24.1751   16.3010   35.0762 C   0  0  1  0  0  0  0  0  0  0  0  0
   21.4653   14.9027   37.3570 O   0  0  0  0  0  0  0  0  0  0  0  0
   25.0162   16.9799   36.1504 C   0  0  1  0  0  0  0  0  0  0  0  0
   21.0773   12.6241   37.3053 O   0  0  0  0  0  0  0  0  0  0  0  0
   25.0691   16.0739   37.4269 C   0  0  0  0  0  0  0  0  0  0  0  0
   19.7144   12.3384   40.7033 O   0  0  0  0  0  0  0  0  0  0  0  0
   23.5953   15.8381   37.9360 C   0  0  1  0  0  0  0  0  0  0  0  0
   17.7607   13.9704   39.4266 O   0  0  0  0  0  0  0  0  0  0  0  0
   22.7813   15.0949   36.8611 C   0  0  2  0  0  0  0  0  0  0  0  0
   20.5698   13.9439   36.8226 C   0  0  1  0  0  0  0  0  0  0  0  0
   21.1150   12.4267   38.7820 C   0  0  2  0  0  0  0  0  0  0  0  0
   21.6874   11.0350   39.0684 C   0  0  0  0  0  0  0  0  0  0  0  0
   19.7000   12.5206   39.3074 C   0  0  2  0  0  0  0  0  0  0  0  0
   19.1044   13.8784   38.9393 C   0  0  1  0  0  0  0  0  0  0  0  0
   19.1145   14.0454   37.3998 C   0  0  1  0  0  0  0  0  0  0  0  0
  5  4  1  6  0  0  0
  5  8  1  0  0  0  0
  5 16  1  0  0  0  0
  8  7  1  6  0  0  0
  8 10  1  0  0  0  0
 10  1  1  6  0  0  0
 10 12  1  0  0  0  0
 11 18  1  0  0  0  0
 12 14  1  0  0  0  0
 14  2  1  1  0  0  0
 14 16  1  0  0  0  0
 16  9  1  1  0  0  0
 17  9  1  1  0  0  0
 17 11  1  0  0  0  0
 17 22  1  0  0  0  0
 18 19  1  6  0  0  0
 18 20  1  0  0  0  0
 19  3  1  0  0  0  0
 20 13  1  1  0  0  0
 20 21  1  0  0  0  0
 21 15  1  6  0  0  0
 21 22  1  0  0  0  0
 22  6  1  1  0  0  0
M  END
>  <CHROM.1>
81.86432450,73.83952387,164.99631723,21.85417987,14.49397431,37.49309901
-0.84620682,0.10674772,2.28373405

>  <Name>
2f4s_lig

>  <RI>
0

>  <Rbt.Current_Directory>
/home/itssahil/PROJECTS/Mol_Feturizer/New_Systems/rnas/2f4s

>  <Rbt.Executable>
rbdock ($Id: //depot/dev/client3/rdock/2013.1/src/exe/rbdock.cxx#4 $)

>  <Rbt.Library>
libRbt.so (2013.1, Build901 2013/11/27)

>  <Rbt.Parameter_File>
/export/apps/rDock/src/rDock_2013.1_src/data/scripts/dock_solv.prm

>  <Rbt.Receptor>
prm/pocket_docking_4.prm

>  <SCORE>
-13.9196

>  <SCORE.INTER>
-15.622

>  <SCORE.INTER.CONST>
1

>  <SCORE.INTER.POLAR>
-0.979796

>  <SCORE.INTER.ROT>
3

>  <SCORE.INTER.SOLV>
16.5296

>  <SCORE.INTER.VDW>
-18.2585

>  <SCORE.INTER.norm>
-0.710091

>  <SCORE.INTRA>
1.70237

>  <SCORE.INTRA.DIHEDRAL>
2.21427

>  <SCORE.INTRA.DIHEDRAL.0>
1.67653

>  <SCORE.INTRA.POLAR>
0

>  <SCORE.INTRA.POLAR.0>
0

>  <SCORE.INTRA.REPUL>
0

>  <SCORE.INTRA.REPUL.0>
0

>  <SCORE.INTRA.SOLV>
1.43813

>  <SCORE.INTRA.SOLV.lig_0>
-76.6701

>  <SCORE.INTRA.VDW>
-0.123826

>  <SCORE.INTRA.VDW.0>
-1.53273

>  <SCORE.INTRA.norm>
0.0773806

>  <SCORE.RESTR>
0

>  <SCORE.RESTR.CAVITY>
0

>  <SCORE.RESTR.norm>
0

>  <SCORE.SYSTEM>
0

>  <SCORE.SYSTEM.CONST>
0

>  <SCORE.SYSTEM.DIHEDRAL>
0

>  <SCORE.SYSTEM.SOLV>
0

>  <SCORE.SYSTEM.norm>
0

>  <SCORE.heavy>
22

>  <SCORE.norm>
-0.63271

>  <RMSD>
0.655

$$$$
2f4s_lig
 OpenBabel11021811433D
libRbt.so/2013.1/901 2013/11/27
 22 23  0  0  0  0  0  0  0  0999 V2000
   26.4259   17.2100   35.6400 N   0  0  0  0  0  0  0  0  0  0  0  0
   23.6836   14.9635   39.1910 N   0  0  0  0  0  0  0  0  0  0  0  0
   22.0696   10.9945   40.5083 N   0  0  0  0  0  0  0  0  0  0  0  0
   21.9554   15.4019   34.5207 O   0  0  0  0  0  0  0  0  0  0  0  0
   22.7406   16.0172   35.5826 C   0  0  2  0  0  0  0  0  0  0  0  0
   18.4985   15.3757   37.0200 N   0  0  0  0  0  0  0  0  0  0  0  0
   24.1768   17.1423   33.9294 O   0  0  0  0  0  0  0  0  0  0  0  0
   24.1856   16.2944   35.0839 C   0  0  1  0  0  0  0  0  0  0  0  0
   21.4620   14.9019   37.3517 O   0  0  0  0  0  0  0  0  0  0  0  0
   25.0263   16.9662   36.1628 C   0  0  1  0  0  0  0  0  0  0  0  0
   21.0701   12.6240   37.2995 O   0  0  0  0  0  0  0  0  0  0  0  0
   25.0710   16.0561   37.4367 C   0  0  0  0  0  0  0  0  0  0  0  0
   19.6998   12.3409   40.6948 O   0  0  0  0  0  0  0  0  0  0  0  0
   23.5944   15.8257   37.9404 C   0  0  1  0  0  0  0  0  0  0  0  0
   17.7516   13.9762   39.4140 O   0  0  0  0  0  0  0  0  0  0  0  0
   22.7805   15.0895   36.8607 C   0  0  2  0  0  0  0  0  0  0  0  0
   20.5659   13.9446   36.8157 C   0  0  1  0  0  0  0  0  0  0  0  0
   21.1045   12.4266   38.7763 C   0  0  2  0  0  0  0  0  0  0  0  0
   21.6738   11.0340   39.0639 C   0  0  0  0  0  0  0  0  0  0  0  0
   19.6885   12.5230   39.2988 C   0  0  2  0  0  0  0  0  0  0  0  0
   19.0961   13.8818   38.9294 C   0  0  1  0  0  0  0  0  0  0  0  0
   19.1096   14.0487   37.3899 C   0  0  1  0  0  0  0  0  0  0  0  0
  5  4  1  6  0  0  0
  5  8  1  0  0  0  0
  5 16  1  0  0  0  0
  8  7  1  6  0  0  0
  8 10  1  0  0  0  0
 10  1  1  6  0  0  0
 10 12  1  0  0  0  0
 11 18  1  0  0  0  0
 12 14  1  0  0  0  0
 14  2  1  1  0  0  0
 14 16  1  0  0  0  0
 16  9  1  1  0  0  0
 17  9  1  1  0  0  0
 17 11  1  0  0  0  0
 17 22  1  0  0  0  0
 18 19  1  6  0  0  0
 18 20  1  0  0  0  0
 19  3  1  0  0  0  0
 20 13  1  1  0  0  0
 20 21  1  0  0  0  0
 21 15  1  6  0  0  0
 21 22  1  0  0  0  0
 22  6  1  1  0  0  0
M  END
>  <CHROM.1>
82.16235009,73.67915034,164.01064772,21.85307775,14.49126767,37.49142924
-0.84167159,0.10603767,2.28410049

>  <Name>
2f4s_lig

>  <RI>
0

>  <Rbt.Current_Directory>
/home/itssahil/PROJECTS/Mol_Feturizer/New_Systems/rnas/2f4s

>  <Rbt.Executable>
rbdock ($Id: //depot/dev/client3/rdock/2013.1/src/exe/rbdock.cxx#4 $)

>  <Rbt.Library>
libRbt.so (2013.1, Build901 2013/11/27)

>  <Rbt.Parameter_File>
/export/apps/rDock/src/rDock_2013.1_src/data/scripts/dock_solv.prm

>  <Rbt.Receptor>
prm/pocket_docking_4.prm

>  <SCORE>
-13.9117

>  <SCORE.INTER>
-15.6461

>  <SCORE.INTER.CONST>
1

>  <SCORE.INTER.POLAR>
-0.979796

>  <SCORE.INTER.ROT>
3

>  <SCORE.INTER.SOLV>
16.5349

>  <SCORE.INTER.VDW>
-18.2764

>  <SCORE.INTER.norm>
-0.711186

>  <SCORE.INTRA>
1.73435

>  <SCORE.INTRA.DIHEDRAL>
2.34387

>  <SCORE.INTRA.DIHEDRAL.0>
1.67653

>  <SCORE.INTRA.POLAR>
0

>  <SCORE.INTRA.POLAR.0>
0

>  <SCORE.INTRA.REPUL>
0

>  <SCORE.INTRA.REPUL.0>
0

>  <SCORE.INTRA.SOLV>
1.42661

>  <SCORE.INTRA.SOLV.lig_0>
-76.6701

>  <SCORE.INTRA.VDW>
-0.150891

>  <SCORE.INTRA.VDW.0>
-1.53273

>  <SCORE.INTRA.norm>
0.0788341

>  <SCORE.RESTR>
0

>  <SCORE.RESTR.CAVITY>
0

>  <SCORE.RESTR.norm>
0

>  <SCORE.SYSTEM>
0

>  <SCORE.SYSTEM.CONST>
0

>  <SCORE.SYSTEM.DIHEDRAL>
0

>  <SCORE.SYSTEM.SOLV>
0

>  <SCORE.SYSTEM.norm>
0

>  <SCORE.heavy>
22

>  <SCORE.norm>
-0.632352

>  <RMSD>
0.658

$$$$
2f4s_lig
 OpenBabel11021811433D
libRbt.so/2013.1/901 2013/11/27
 22 23  0  0  0  0  0  0  0  0999 V2000
   26.4291   17.2128   35.6504 N   0  0  0  0  0  0  0  0  0  0  0  0
   23.6856   14.9671   39.2009 N   0  0  0  0  0  0  0  0  0  0  0  0
   22.0775   10.9894   40.5089 N   0  0  0  0  0  0  0  0  0  0  0  0
   21.9645   15.3928   34.5268 O   0  0  0  0  0  0  0  0  0  0  0  0
   22.7465   16.0118   35.5889 C   0  0  2  0  0  0  0  0  0  0  0  0
   18.5046   15.3711   37.0202 N   0  0  0  0  0  0  0  0  0  0  0  0
   24.1831   17.1369   33.9361 O   0  0  0  0  0  0  0  0  0  0  0  0
   24.1918   16.2912   35.0922 C   0  0  1  0  0  0  0  0  0  0  0  0
   21.4674   14.8970   37.3580 O   0  0  0  0  0  0  0  0  0  0  0  0
   25.0291   16.9669   36.1712 C   0  0  1  0  0  0  0  0  0  0  0  0
   21.0757   12.6192   37.3023 O   0  0  0  0  0  0  0  0  0  0  0  0
   25.0736   16.0594   37.4469 C   0  0  0  0  0  0  0  0  0  0  0  0
   19.6978   12.3321   40.6941 O   0  0  0  0  0  0  0  0  0  0  0  0
   23.5967   15.8267   37.9485 C   0  0  1  0  0  0  0  0  0  0  0  0
   17.7524   13.9688   39.4109 O   0  0  0  0  0  0  0  0  0  0  0  0
   22.7863   15.0866   36.8688 C   0  0  2  0  0  0  0  0  0  0  0  0
   20.5725   13.9403   36.8188 C   0  0  1  0  0  0  0  0  0  0  0  0
   21.1068   12.4200   38.7789 C   0  0  2  0  0  0  0  0  0  0  0  0
   21.6755   11.0271   39.0662 C   0  0  0  0  0  0  0  0  0  0  0  0
   19.6896   12.5158   39.2983 C   0  0  2  0  0  0  0  0  0  0  0  0
   19.0980   13.8750   38.9291 C   0  0  1  0  0  0  0  0  0  0  0  0
   19.1150   14.0437   37.3899 C   0  0  1  0  0  0  0  0  0  0  0  0
  5  4  1  6  0  0  0
  5  8  1  0  0  0  0
  5 16  1  0  0  0  0
  8  7  1  6  0  0  0
  8 10  1  0  0  0  0
 10  1  1  6  0  0  0
 10 12  1  0  0  0  0
 11 18  1  0  0  0  0
 12 14  1  0  0  0  0
 14  2  1  1  0  0  0
 14 16  1  0  0  0  0
 16  9  1  1  0  0  0
 17  9  1  1  0  0  0
 17 11  1  0  0  0  0
 17 22  1  0  0  0  0
 18 19  1  6  0  0  0
 18 20  1  0  0  0  0
 19  3  1  0  0  0  0
 20 13  1  1  0  0  0
 20 21  1  0  0  0  0
 21 15  1  6  0  0  0
 21 22  1  0  0  0  0
 22  6  1  1  0  0  0
M  END
>  <CHROM.1>
81.90886315,73.77438167,163.59735245,21.85712680,14.48720212,37.49574044
-0.84090566,0.10786871,2.28434839

>  <Name>
2f4s_lig

>  <RI>
2.46955e+07

>  <Rbt.Current_Directory>
/home/itssahil/PROJECTS/Mol_Feturizer/New_Systems/rnas/2f4s

>  <Rbt.Executable>
rbdock ($Id: //depot/dev/client3/rdock/2013.1/src/exe/rbdock.cxx#4 $)

>  <Rbt.Library>
libRbt.so (2013.1, Build901 2013/11/27)

>  <Rbt.Parameter_File>
/export/apps/rDock/src/rDock_2013.1_src/data/scripts/dock_solv.prm

>  <Rbt.Receptor>
prm/pocket_docking_3.prm

>  <SCORE>
-13.9088

>  <SCORE.INTER>
-15.6337

>  <SCORE.INTER.CONST>
1

>  <SCORE.INTER.POLAR>
-0.979796

>  <SCORE.INTER.ROT>
3

>  <SCORE.INTER.SOLV>
16.556

>  <SCORE.INTER.VDW>
-18.2752

>  <SCORE.INTER.norm>
-0.710624

>  <SCORE.INTRA>
1.7249

>  <SCORE.INTRA.DIHEDRAL>
2.35454

>  <SCORE.INTRA.DIHEDRAL.0>
1.67653

>  <SCORE.INTRA.POLAR>
0

>  <SCORE.INTRA.POLAR.0>
0

>  <SCORE.INTRA.REPUL>
0

>  <SCORE.INTRA.REPUL.0>
0

>  <SCORE.INTRA.SOLV>
1.40351

>  <SCORE.INTRA.SOLV.lig_0>
-76.6701

>  <SCORE.INTRA.VDW>
-0.15413

>  <SCORE.INTRA.VDW.0>
-1.53273

>  <SCORE.INTRA.norm>
0.0784044

>  <SCORE.RESTR>
0

>  <SCORE.RESTR.CAVITY>
0

>  <SCORE.RESTR.norm>
0

>  <SCORE.SYSTEM>
0

>  <SCORE.SYSTEM.CONST>
0

>  <SCORE.SYSTEM.DIHEDRAL>
0

>  <SCORE.SYSTEM.SOLV>
0

>  <SCORE.SYSTEM.norm>
0

>  <SCORE.heavy>
22

>  <SCORE.norm>
-0.632219

>  <RMSD>
0.660

$$$$
2f4s_lig
 OpenBabel11021811433D
libRbt.so/2013.1/901 2013/11/27
 22 23  0  0  0  0  0  0  0  0999 V2000
   26.4421   17.2165   35.6680 N   0  0  0  0  0  0  0  0  0  0  0  0
   23.7035   14.9900   39.2345 N   0  0  0  0  0  0  0  0  0  0  0  0
   22.0896   10.9878   40.5553 N   0  0  0  0  0  0  0  0  0  0  0  0
   21.9884   15.3644   34.5538 O   0  0  0  0  0  0  0  0  0  0  0  0
   22.7655   15.9970   35.6115 C   0  0  2  0  0  0  0  0  0  0  0  0
   18.5248   15.3566   37.0484 N   0  0  0  0  0  0  0  0  0  0  0  0
   24.1994   17.1139   33.9507 O   0  0  0  0  0  0  0  0  0  0  0  0
   24.2103   16.2789   35.1146 C   0  0  1  0  0  0  0  0  0  0  0  0
   21.4888   14.8922   37.3886 O   0  0  0  0  0  0  0  0  0  0  0  0
   25.0424   16.9685   36.1888 C   0  0  1  0  0  0  0  0  0  0  0  0
   21.1038   12.6130   37.3388 O   0  0  0  0  0  0  0  0  0  0  0  0
   25.0892   16.0730   37.4729 C   0  0  0  0  0  0  0  0  0  0  0  0
   19.7256   12.3311   40.7309 O   0  0  0  0  0  0  0  0  0  0  0  0
   23.6125   15.8377   37.9741 C   0  0  1  0  0  0  0  0  0  0  0  0
   17.7758   13.9586   39.4426 O   0  0  0  0  0  0  0  0  0  0  0  0
   22.8076   15.0837   36.8999 C   0  0  2  0  0  0  0  0  0  0  0  0
   20.5970   13.9314   36.8517 C   0  0  1  0  0  0  0  0  0  0  0  0
   21.1350   12.4180   38.8159 C   0  0  2  0  0  0  0  0  0  0  0  0
   21.7078   11.0275   39.1072 C   0  0  0  0  0  0  0  0  0  0  0  0
   19.7174   12.5110   39.3347 C   0  0  2  0  0  0  0  0  0  0  0  0
   19.1219   13.8675   38.9616 C   0  0  1  0  0  0  0  0  0  0  0  0
   19.1389   14.0320   37.4219 C   0  0  1  0  0  0  0  0  0  0  0  0
  5  4  1  6  0  0  0
  5  8  1  0  0  0  0
  5 16  1  0  0  0  0
  8  7  1  6  0  0  0
  8 10  1  0  0  0  0
 10  1  1  6  0  0  0
 10 12  1  0  0  0  0
 11 18  1  0  0  0  0
 12 14  1  0  0  0  0
 14  2  1  1  0  0  0
 14 16  1  0  0  0  0
 16  9  1  1  0  0  0
 17  9  1  1  0  0  0
 17 11  1  0  0  0  0
 17 22  1  0  0  0  0
 18 19  1  6  0  0  0
 18 20  1  0  0  0  0
 19  3  1  0  0  0  0
 20 13  1  1  0  0  0
 20 21  1  0  0  0  0
 21 15  1  6  0  0  0
 21 22  1  0  0  0  0
 22  6  1  1  0  0  0
M  END
>  <CHROM.1>
81.53680760,73.73305302,164.46274505,21.87849581,14.48231723,37.52575380
-0.84266209,0.11109619,2.27973105

>  <Name>
2f4s_lig

>  <RI>
2.46955e+07

>  <Rbt.Current_Directory>
/home/itssahil/PROJECTS/Mol_Feturizer/New_Systems/rnas/2f4s

>  <Rbt.Executable>
rbdock ($Id: //depot/dev/client3/rdock/2013.1/src/exe/rbdock.cxx#4 $)

>  <Rbt.Library>
libRbt.so (2013.1, Build901 2013/11/27)

>  <Rbt.Parameter_File>
/export/apps/rDock/src/rDock_2013.1_src/data/scripts/dock_solv.prm

>  <Rbt.Receptor>
prm/pocket_docking_3.prm

>  <SCORE>
-13.9639

>  <SCORE.INTER>
-15.6352

>  <SCORE.INTER.CONST>
1

>  <SCORE.INTER.POLAR>
-0.979796

>  <SCORE.INTER.ROT>
3

>  <SCORE.INTER.SOLV>
16.5354

>  <SCORE.INTER.VDW>
-18.2693

>  <SCORE.INTER.norm>
-0.710689

>  <SCORE.INTRA>
1.6713

>  <SCORE.INTRA.DIHEDRAL>
2.19843

>  <SCORE.INTRA.DIHEDRAL.0>
1.67653

>  <SCORE.INTRA.POLAR>
0

>  <SCORE.INTRA.POLAR.0>
0

>  <SCORE.INTRA.REPUL>
0

>  <SCORE.INTRA.REPUL.0>
0

>  <SCORE.INTRA.SOLV>
1.40168

>  <SCORE.INTRA.SOLV.lig_0>
-76.6701

>  <SCORE.INTRA.VDW>
-0.128751

>  <SCORE.INTRA.VDW.0>
-1.53273

>  <SCORE.INTRA.norm>
0.0759683

>  <SCORE.RESTR>
0

>  <SCORE.RESTR.CAVITY>
0

>  <SCORE.RESTR.norm>
0

>  <SCORE.SYSTEM>
0

>  <SCORE.SYSTEM.CONST>
0

>  <SCORE.SYSTEM.DIHEDRAL>
0

>  <SCORE.SYSTEM.SOLV>
0

>  <SCORE.SYSTEM.norm>
0

>  <SCORE.heavy>
22

>  <SCORE.norm>
-0.634721

>  <RMSD>
0.667

$$$$
2f4s_lig
 OpenBabel11021811433D
libRbt.so/2013.1/901 2013/11/27
 22 23  0  0  0  0  0  0  0  0999 V2000
   25.8710   17.3559   34.7045 N   0  0  0  0  0  0  0  0  0  0  0  0
   23.4180   15.5590   38.6957 N   0  0  0  0  0  0  0  0  0  0  0  0
   22.8542   11.3886   39.0423 N   0  0  0  0  0  0  0  0  0  0  0  0
   21.6160   14.9042   34.0789 O   0  0  0  0  0  0  0  0  0  0  0  0
   22.3376   15.7921   34.9811 C   0  0  2  0  0  0  0  0  0  0  0  0
   18.2553   15.2485   36.4021 N   0  0  0  0  0  0  0  0  0  0  0  0
   23.6295   16.7227   33.1033 O   0  0  0  0  0  0  0  0  0  0  0  0
   23.7398   16.1190   34.3976 C   0  0  1  0  0  0  0  0  0  0  0  0
   21.2022   14.9098   36.9663 O   0  0  0  0  0  0  0  0  0  0  0  0
   24.5105   17.0710   35.3040 C   0  0  1  0  0  0  0  0  0  0  0  0
   20.8507   12.6445   37.2660 O   0  0  0  0  0  0  0  0  0  0  0  0
   24.6641   16.4334   36.7263 C   0  0  0  0  0  0  0  0  0  0  0  0
   19.2927   12.8816   40.5830 O   0  0  0  0  0  0  0  0  0  0  0  0
   23.2255   16.1497   37.3067 C   0  0  1  0  0  0  0  0  0  0  0  0
   17.3950   14.2376   38.9489 O   0  0  0  0  0  0  0  0  0  0  0  0
   22.4885   15.1375   36.4110 C   0  0  2  0  0  0  0  0  0  0  0  0
   20.3539   13.8559   36.5464 C   0  0  1  0  0  0  0  0  0  0  0  0
   20.8035   12.6903   38.7549 C   0  0  2  0  0  0  0  0  0  0  0  0
   21.3779   11.3777   39.2966 C   0  0  0  0  0  0  0  0  0  0  0  0
   19.3586   12.8344   39.1774 C   0  0  2  0  0  0  0  0  0  0  0  0
   18.7665   14.0999   38.5594 C   0  0  1  0  0  0  0  0  0  0  0  0
   18.8656   14.0149   37.0164 C   0  0  1  0  0  0  0  0  0  0  0  0
  5  4  1  6  0  0  0
  5  8  1  0  0  0  0
  5 16  1  0  0  0  0
  8  7  1  6  0  0  0
  8 10  1  0  0  0  0
 10  1  1  6  0  0  0
 10 12  1  0  0  0  0
 11 18  1  0  0  0  0
 12 14  1  0  0  0  0
 14  2  1  1  0  0  0
 14 16  1  0  0  0  0
 16  9  1  1  0  0  0
 17  9  1  1  0  0  0
 17 11  1  0  0  0  0
 17 22  1  0  0  0  0
 18 19  1  1  0  0  0
 18 20  1  0  0  0  0
 19  3  1  0  0  0  0
 20 13  1  1  0  0  0
 20 21  1  0  0  0  0
 21 15  1  6  0  0  0
 21 22  1  0  0  0  0
 22  6  1  6  0  0  0
M  END
>  <CHROM.1>
75.35495156,81.07139630,70.88711365,21.55445343,14.59625231,37.01040880,-0.85166500
0.08827297,2.20289633

>  <Name>
2f4s_lig

>  <RI>
0

>  <Rbt.Current_Directory>
/home/itssahil/PROJECTS/Mol_Feturizer/New_Systems/rnas/2f4s

>  <Rbt.Executable>
rbdock ($Id: //depot/dev/client3/rdock/2013.1/src/exe/rbdock.cxx#4 $)

>  <Rbt.Library>
libRbt.so (2013.1, Build901 2013/11/27)

>  <Rbt.Parameter_File>
/export/apps/rDock/src/rDock_2013.1_src/data/scripts/dock_solv.prm

>  <Rbt.Receptor>
prm/pocket_docking_2.prm

>  <SCORE>
-13.1429

>  <SCORE.INTER>
-14.1793

>  <SCORE.INTER.CONST>
1

>  <SCORE.INTER.POLAR>
-1.17768

>  <SCORE.INTER.ROT>
3

>  <SCORE.INTER.SOLV>
19.1087

>  <SCORE.INTER.VDW>
-17.4968

>  <SCORE.INTER.norm>
-0.644512

>  <SCORE.INTRA>
1.03635

>  <SCORE.INTRA.DIHEDRAL>
1.91139

>  <SCORE.INTRA.DIHEDRAL.0>
1.67653

>  <SCORE.INTRA.POLAR>
0

>  <SCORE.INTRA.POLAR.0>
0

>  <SCORE.INTRA.REPUL>
0

>  <SCORE.INTRA.REPUL.0>
0

>  <SCORE.INTRA.SOLV>
0.439146

>  <SCORE.INTRA.SOLV.lig_0>
-76.6701

>  <SCORE.INTRA.VDW>
-0.138921

>  <SCORE.INTRA.VDW.0>
-1.53273

>  <SCORE.INTRA.norm>
0.0471068

>  <SCORE.RESTR>
0

>  <SCORE.RESTR.CAVITY>
0

>  <SCORE.RESTR.norm>
0

>  <SCORE.SYSTEM>
0

>  <SCORE.SYSTEM.CONST>
0

>  <SCORE.SYSTEM.DIHEDRAL>
0

>  <SCORE.SYSTEM.SOLV>
0

>  <SCORE.SYSTEM.norm>
0

>  <SCORE.heavy>
22

>  <SCORE.norm>
-0.597406

>  <RMSD>
0.676

$$$$
2f4s_lig
 OpenBabel11021811433D
libRbt.so/2013.1/901 2013/11/27
 22 23  0  0  0  0  0  0  0  0999 V2000
   26.4398   17.1890   35.5763 N   0  0  0  0  0  0  0  0  0  0  0  0
   23.7564   15.0254   39.2223 N   0  0  0  0  0  0  0  0  0  0  0  0
   22.1206   10.9325   40.5647 N   0  0  0  0  0  0  0  0  0  0  0  0
   22.0090   15.2375   34.5434 O   0  0  0  0  0  0  0  0  0  0  0  0
   22.7823   15.9124   35.5776 C   0  0  2  0  0  0  0  0  0  0  0  0
   18.5692   15.3127   37.0620 N   0  0  0  0  0  0  0  0  0  0  0  0
   24.1893   17.0023   33.8765 O   0  0  0  0  0  0  0  0  0  0  0  0
   24.2197   16.2017   35.0639 C   0  0  1  0  0  0  0  0  0  0  0  0
   21.5330   14.8402   37.3937 O   0  0  0  0  0  0  0  0  0  0  0  0
   25.0472   16.9349   36.1126 C   0  0  1  0  0  0  0  0  0  0  0  0
   21.1415   12.5622   37.3469 O   0  0  0  0  0  0  0  0  0  0  0  0
   25.1151   16.0778   37.4217 C   0  0  0  0  0  0  0  0  0  0  0  0
   19.7725   12.2866   40.7433 O   0  0  0  0  0  0  0  0  0  0  0  0
   23.6451   15.8346   37.9385 C   0  0  1  0  0  0  0  0  0  0  0  0
   17.8235   13.9186   39.4595 O   0  0  0  0  0  0  0  0  0  0  0  0
   22.8458   15.0376   36.8916 C   0  0  2  0  0  0  0  0  0  0  0  0
   20.6368   13.8816   36.8602 C   0  0  1  0  0  0  0  0  0  0  0  0
   21.1765   12.3682   38.8241 C   0  0  2  0  0  0  0  0  0  0  0  0
   21.7462   10.9764   39.1147 C   0  0  0  0  0  0  0  0  0  0  0  0
   19.7607   12.4655   39.3469 C   0  0  2  0  0  0  0  0  0  0  0  0
   19.1679   13.8234   38.9746 C   0  0  1  0  0  0  0  0  0  0  0  0
   19.1808   13.9866   37.4347 C   0  0  1  0  0  0  0  0  0  0  0  0
  5  4  1  6  0  0  0
  5  8  1  0  0  0  0
  5 16  1  0  0  0  0
  8  7  1  6  0  0  0
  8 10  1  0  0  0  0
 10  1  1  6  0  0  0
 10 12  1  0  0  0  0
 11 18  1  0  0  0  0
 12 14  1  0  0  0  0
 14  2  1  1  0  0  0
 14 16  1  0  0  0  0
 16  9  1  1  0  0  0
 17  9  1  1  0  0  0
 17 11  1  0  0  0  0
 17 22  1  0  0  0  0
 18 19  1  6  0  0  0
 18 20  1  0  0  0  0
 19  3  1  0  0  0  0
 20 13  1  1  0  0  0
 20 21  1  0  0  0  0
 21 15  1  6  0  0  0
 21 22  1  0  0  0  0
 22  6  1  1  0  0  0
M  END
>  <CHROM.1>
79.31788646,74.43207982,164.97638208,21.90990578,14.43404249,37.51165222
-0.85076834,0.11079129,2.27173585

>  <Name>
2f4s_lig

>  <RI>
2.46955e+07

>  <Rbt.Current_Directory>
/home/itssahil/PROJECTS/Mol_Feturizer/New_Systems/rnas/2f4s

>  <Rbt.Executable>
rbdock ($Id: //depot/dev/client3/rdock/2013.1/src/exe/rbdock.cxx#4 $)

>  <Rbt.Library>
libRbt.so (2013.1, Build901 2013/11/27)

>  <Rbt.Parameter_File>
/export/apps/rDock/src/rDock_2013.1_src/data/scripts/dock_solv.prm

>  <Rbt.Receptor>
prm/pocket_docking_3.prm

>  <SCORE>
-13.9813

>  <SCORE.INTER>
-15.5129

>  <SCORE.INTER.CONST>
1

>  <SCORE.INTER.POLAR>
-0.979796

>  <SCORE.INTER.ROT>
3

>  <SCORE.INTER.SOLV>
17.0745

>  <SCORE.INTER.VDW>
-18.3675

>  <SCORE.INTER.norm>
-0.705132

>  <SCORE.INTRA>
1.53156

>  <SCORE.INTRA.DIHEDRAL>
1.87036

>  <SCORE.INTRA.DIHEDRAL.0>
1.67653

>  <SCORE.INTRA.POLAR>
0

>  <SCORE.INTRA.POLAR.0>
0

>  <SCORE.INTRA.REPUL>
0

>  <SCORE.INTRA.REPUL.0>
0

>  <SCORE.INTRA.SOLV>
1.29998

>  <SCORE.INTRA.SOLV.lig_0>
-76.6701

>  <SCORE.INTRA.VDW>
-0.0536138

>  <SCORE.INTRA.VDW.0>
-1.53273

>  <SCORE.INTRA.norm>
0.0696163

>  <SCORE.RESTR>
0

>  <SCORE.RESTR.CAVITY>
0

>  <SCORE.RESTR.norm>
0

>  <SCORE.SYSTEM>
0

>  <SCORE.SYSTEM.CONST>
0

>  <SCORE.SYSTEM.DIHEDRAL>
0

>  <SCORE.SYSTEM.SOLV>
0

>  <SCORE.SYSTEM.norm>
0

>  <SCORE.heavy>
22

>  <SCORE.norm>
-0.635515

>  <RMSD>
0.680

$$$$
2f4s_lig
 OpenBabel11021811433D
libRbt.so/2013.1/901 2013/11/27
 22 23  0  0  0  0  0  0  0  0999 V2000
   26.4339   17.1803   35.5916 N   0  0  0  0  0  0  0  0  0  0  0  0
   23.7493   15.0088   39.2321 N   0  0  0  0  0  0  0  0  0  0  0  0
   22.1056   10.9124   40.5466 N   0  0  0  0  0  0  0  0  0  0  0  0
   21.9948   15.2486   34.5572 O   0  0  0  0  0  0  0  0  0  0  0  0
   22.7721   15.9160   35.5932 C   0  0  2  0  0  0  0  0  0  0  0  0
   18.5608   15.3304   37.0803 N   0  0  0  0  0  0  0  0  0  0  0  0
   24.1799   17.0091   33.8948 O   0  0  0  0  0  0  0  0  0  0  0  0
   24.2096   16.2029   35.0784 C   0  0  1  0  0  0  0  0  0  0  0  0
   21.5222   14.8396   37.4064 O   0  0  0  0  0  0  0  0  0  0  0  0
   25.0413   16.9284   36.1291 C   0  0  1  0  0  0  0  0  0  0  0  0
   21.1183   12.5640   37.3444 O   0  0  0  0  0  0  0  0  0  0  0  0
   25.1085   16.0650   37.4341 C   0  0  0  0  0  0  0  0  0  0  0  0
   19.7505   12.2729   40.7400 O   0  0  0  0  0  0  0  0  0  0  0  0
   23.6386   15.8243   37.9523 C   0  0  1  0  0  0  0  0  0  0  0  0
   17.8094   13.9241   39.4689 O   0  0  0  0  0  0  0  0  0  0  0  0
   22.8349   15.0349   36.9030 C   0  0  2  0  0  0  0  0  0  0  0  0
   20.6204   13.8894   36.8671 C   0  0  1  0  0  0  0  0  0  0  0  0
   21.1533   12.3598   38.8202 C   0  0  2  0  0  0  0  0  0  0  0  0
   21.7157   10.9630   39.1010 C   0  0  0  0  0  0  0  0  0  0  0  0
   19.7385   12.4614   39.3449 C   0  0  2  0  0  0  0  0  0  0  0  0
   19.1528   13.8249   38.9822 C   0  0  1  0  0  0  0  0  0  0  0  0
   19.1654   13.9985   37.4435 C   0  0  1  0  0  0  0  0  0  0  0  0
  5  4  1  6  0  0  0
  5  8  1  0  0  0  0
  5 16  1  0  0  0  0
  8  7  1  6  0  0  0
  8 10  1  0  0  0  0
 10  1  1  6  0  0  0
 10 12  1  0  0  0  0
 11 18  1  0  0  0  0
 12 14  1  0  0  0  0
 14  2  1  1  0  0  0
 14 16  1  0  0  0  0
 16  9  1  1  0  0  0
 17  9  1  1  0  0  0
 17 11  1  0  0  0  0
 17 22  1  0  0  0  0
 18 19  1  6  0  0  0
 18 20  1  0  0  0  0
 19  3  1  0  0  0  0
 20 13  1  1  0  0  0
 20 21  1  0  0  0  0
 21 15  1  6  0  0  0
 21 22  1  0  0  0  0
 22  6  1  1  0  0  0
M  END
>  <CHROM.1>
79.10565378,74.55003546,164.33543997,21.89605745,14.43191676,37.51897674
-0.84886361,0.10634020,2.27782651

>  <Name>
2f4s_lig

>  <RI>
2.46955e+07

>  <Rbt.Current_Directory>
/home/itssahil/PROJECTS/Mol_Feturizer/New_Systems/rnas/2f4s

>  <Rbt.Executable>
rbdock ($Id: //depot/dev/client3/rdock/2013.1/src/exe/rbdock.cxx#4 $)

>  <Rbt.Library>
libRbt.so (2013.1, Build901 2013/11/27)

>  <Rbt.Parameter_File>
/export/apps/rDock/src/rDock_2013.1_src/data/scripts/dock_solv.prm

>  <Rbt.Receptor>
prm/pocket_docking_3.prm

>  <SCORE>
-13.961

>  <SCORE.INTER>
-15.4926

>  <SCORE.INTER.CONST>
1

>  <SCORE.INTER.POLAR>
-0.979796

>  <SCORE.INTER.ROT>
3

>  <SCORE.INTER.SOLV>
17.1597

>  <SCORE.INTER.VDW>
-18.3823

>  <SCORE.INTER.norm>
-0.704211

>  <SCORE.INTRA>
1.5316

>  <SCORE.INTRA.DIHEDRAL>
1.91494

>  <SCORE.INTRA.DIHEDRAL.0>
1.67653

>  <SCORE.INTRA.POLAR>
0

>  <SCORE.INTRA.POLAR.0>
0

>  <SCORE.INTRA.REPUL>
0

>  <SCORE.INTRA.REPUL.0>
0

>  <SCORE.INTRA.SOLV>
1.27427

>  <SCORE.INTRA.SOLV.lig_0>
-76.6701

>  <SCORE.INTRA.VDW>
-0.0630007

>  <SCORE.INTRA.VDW.0>
-1.53273

>  <SCORE.INTRA.norm>
0.0696184

>  <SCORE.RESTR>
0

>  <SCORE.RESTR.CAVITY>
0

>  <SCORE.RESTR.norm>
0

>  <SCORE.SYSTEM>
0

>  <SCORE.SYSTEM.CONST>
0

>  <SCORE.SYSTEM.DIHEDRAL>
0

>  <SCORE.SYSTEM.SOLV>
0

>  <SCORE.SYSTEM.norm>
0

>  <SCORE.heavy>
22

>  <SCORE.norm>
-0.634592

>  <RMSD>
0.680

$$$$
2f4s_lig
 OpenBabel11021811433D
libRbt.so/2013.1/901 2013/11/27
 22 23  0  0  0  0  0  0  0  0999 V2000
   26.4711   17.2005   35.7733 N   0  0  0  0  0  0  0  0  0  0  0  0
   23.6760   14.9372   39.2720 N   0  0  0  0  0  0  0  0  0  0  0  0
   22.0722   10.9580   40.5181 N   0  0  0  0  0  0  0  0  0  0  0  0
   22.0015   15.4329   34.5879 O   0  0  0  0  0  0  0  0  0  0  0  0
   22.7791   16.0326   35.6643 C   0  0  2  0  0  0  0  0  0  0  0  0
   18.5105   15.3819   37.0774 N   0  0  0  0  0  0  0  0  0  0  0  0
   24.2404   17.1645   34.0380 O   0  0  0  0  0  0  0  0  0  0  0  0
   24.2312   16.3052   35.1840 C   0  0  1  0  0  0  0  0  0  0  0  0
   21.4742   14.9082   37.4084 O   0  0  0  0  0  0  0  0  0  0  0  0
   25.0644   16.9608   36.2786 C   0  0  1  0  0  0  0  0  0  0  0  0
   21.0858   12.6306   37.3262 O   0  0  0  0  0  0  0  0  0  0  0  0
   25.0894   16.0379   37.5438 C   0  0  0  0  0  0  0  0  0  0  0  0
   19.7099   12.3019   40.7151 O   0  0  0  0  0  0  0  0  0  0  0  0
   23.6059   15.8122   38.0291 C   0  0  1  0  0  0  0  0  0  0  0  0
   17.7615   13.9507   39.4519 O   0  0  0  0  0  0  0  0  0  0  0  0
   22.7991   15.0920   36.9335 C   0  0  2  0  0  0  0  0  0  0  0  0
   20.5805   13.9566   36.8585 C   0  0  1  0  0  0  0  0  0  0  0  0
   21.1179   12.4143   38.8003 C   0  0  2  0  0  0  0  0  0  0  0  0
   21.6888   11.0190   39.0711 C   0  0  0  0  0  0  0  0  0  0  0  0
   19.7009   12.5019   39.3216 C   0  0  2  0  0  0  0  0  0  0  0  0
   19.1070   13.8645   38.9685 C   0  0  1  0  0  0  0  0  0  0  0  0
   19.1230   14.0511   37.4313 C   0  0  1  0  0  0  0  0  0  0  0  0
  5  4  1  6  0  0  0
  5  8  1  0  0  0  0
  5 16  1  0  0  0  0
  8  7  1  6  0  0  0
  8 10  1  0  0  0  0
 10  1  1  6  0  0  0
 10 12  1  0  0  0  0
 11 18  1  0  0  0  0
 12 14  1  0  0  0  0
 14  2  1  1  0  0  0
 14 16  1  0  0  0  0
 16  9  1  1  0  0  0
 17  9  1  1  0  0  0
 17 11  1  0  0  0  0
 17 22  1  0  0  0  0
 18 19  1  6  0  0  0
 18 20  1  0  0  0  0
 19  3  1  0  0  0  0
 20 13  1  1  0  0  0
 20 21  1  0  0  0  0
 21 15  1  6  0  0  0
 21 22  1  0  0  0  0
 22  6  1  1  0  0  0
M  END
>  <CHROM.1>
82.55536553,72.83289294,164.44846986,21.87417121,14.48575980,37.55208632
-0.83372752,0.10772473,2.29458085

>  <Name>
2f4s_lig

>  <RI>
0

>  <Rbt.Current_Directory>
/home/itssahil/PROJECTS/Mol_Feturizer/New_Systems/rnas/2f4s

>  <Rbt.Executable>
rbdock ($Id: //depot/dev/client3/rdock/2013.1/src/exe/rbdock.cxx#4 $)

>  <Rbt.Library>
libRbt.so (2013.1, Build901 2013/11/27)

>  <Rbt.Parameter_File>
/export/apps/rDock/src/rDock_2013.1_src/data/scripts/dock_solv.prm

>  <Rbt.Receptor>
prm/pocket_docking_4.prm

>  <SCORE>
-13.9894

>  <SCORE.INTER>
-15.6933

>  <SCORE.INTER.CONST>
1

>  <SCORE.INTER.POLAR>
-0.979796

>  <SCORE.INTER.ROT>
3

>  <SCORE.INTER.SOLV>
16.4925

>  <SCORE.INTER.VDW>
-18.2937

>  <SCORE.INTER.norm>
-0.713332

>  <SCORE.INTRA>
1.70394

>  <SCORE.INTRA.DIHEDRAL>
2.26865

>  <SCORE.INTRA.DIHEDRAL.0>
1.67653

>  <SCORE.INTRA.POLAR>
0

>  <SCORE.INTRA.POLAR.0>
0

>  <SCORE.INTRA.REPUL>
0

>  <SCORE.INTRA.REPUL.0>
0

>  <SCORE.INTRA.SOLV>
1.43722

>  <SCORE.INTRA.SOLV.lig_0>
-76.6701

>  <SCORE.INTRA.VDW>
-0.148993

>  <SCORE.INTRA.VDW.0>
-1.53273

>  <SCORE.INTRA.norm>
0.0774518

>  <SCORE.RESTR>
0

>  <SCORE.RESTR.CAVITY>
0

>  <SCORE.RESTR.norm>
0

>  <SCORE.SYSTEM>
0

>  <SCORE.SYSTEM.CONST>
0

>  <SCORE.SYSTEM.DIHEDRAL>
0

>  <SCORE.SYSTEM.SOLV>
0

>  <SCORE.SYSTEM.norm>
0

>  <SCORE.heavy>
22

>  <SCORE.norm>
-0.63588

>  <RMSD>
0.681

$$$$
2f4s_lig
 OpenBabel11021811433D
libRbt.so/2013.1/901 2013/11/27
 22 23  0  0  0  0  0  0  0  0999 V2000
   26.4883   17.1185   35.6162 N   0  0  0  0  0  0  0  0  0  0  0  0
   23.7295   14.9909   39.2270 N   0  0  0  0  0  0  0  0  0  0  0  0
   22.1143   10.9384   40.5305 N   0  0  0  0  0  0  0  0  0  0  0  0
   22.0300   15.2590   34.5334 O   0  0  0  0  0  0  0  0  0  0  0  0
   22.8067   15.9137   35.5778 C   0  0  2  0  0  0  0  0  0  0  0  0
   18.5561   15.3419   37.0630 N   0  0  0  0  0  0  0  0  0  0  0  0
   24.2504   16.9839   33.8950 O   0  0  0  0  0  0  0  0  0  0  0  0
   24.2541   16.1773   35.0788 C   0  0  1  0  0  0  0  0  0  0  0  0
   21.5199   14.8578   37.3772 O   0  0  0  0  0  0  0  0  0  0  0  0
   25.0861   16.8892   36.1385 C   0  0  1  0  0  0  0  0  0  0  0  0
   21.1200   12.5813   37.3246 O   0  0  0  0  0  0  0  0  0  0  0  0
   25.1251   16.0249   37.4440 C   0  0  0  0  0  0  0  0  0  0  0  0
   19.7683   12.2989   40.7274 O   0  0  0  0  0  0  0  0  0  0  0  0
   23.6459   15.8081   37.9462 C   0  0  1  0  0  0  0  0  0  0  0  0
   17.8182   13.9422   39.4597 O   0  0  0  0  0  0  0  0  0  0  0  0
   22.8410   15.0318   36.8881 C   0  0  2  0  0  0  0  0  0  0  0  0
   20.6175   13.9042   36.8452 C   0  0  1  0  0  0  0  0  0  0  0  0
   21.1622   12.3821   38.8009 C   0  0  2  0  0  0  0  0  0  0  0  0
   21.7286   10.9872   39.0838 C   0  0  0  0  0  0  0  0  0  0  0  0
   19.7496   12.4827   39.3317 C   0  0  2  0  0  0  0  0  0  0  0  0
   19.1597   13.8439   38.9672 C   0  0  1  0  0  0  0  0  0  0  0  0
   19.1649   14.0124   37.4279 C   0  0  1  0  0  0  0  0  0  0  0  0
  5  4  1  6  0  0  0
  5  8  1  0  0  0  0
  5 16  1  0  0  0  0
  8  7  1  6  0  0  0
  8 10  1  0  0  0  0
 10  1  1  6  0  0  0
 10 12  1  0  0  0  0
 11 18  1  0  0  0  0
 12 14  1  0  0  0  0
 14  2  1  1  0  0  0
 14 16  1  0  0  0  0
 16  9  1  1  0  0  0
 17  9  1  1  0  0  0
 17 11  1  0  0  0  0
 17 22  1  0  0  0  0
 18 19  1  6  0  0  0
 18 20  1  0  0  0  0
 19  3  1  0  0  0  0
 20 13  1  1  0  0  0
 20 21  1  0  0  0  0
 21 15  1  6  0  0  0
 21 22  1  0  0  0  0
 22  6  1  1  0  0  0
M  END
>  <CHROM.1>
80.38658909,72.98876763,164.80863785,21.91266838,14.43283775,37.50848319
-0.83916822,0.10248449,2.27339167

>  <Name>
2f4s_lig

>  <RI>
2.26097e+07

>  <Rbt.Current_Directory>
/home/itssahil/PROJECTS/Mol_Feturizer/New_Systems/rnas/2f4s

>  <Rbt.Executable>
rbdock ($Id: //depot/dev/client3/rdock/2013.1/src/exe/rbdock.cxx#4 $)

>  <Rbt.Library>
libRbt.so (2013.1, Build901 2013/11/27)

>  <Rbt.Parameter_File>
/export/apps/rDock/src/rDock_2013.1_src/data/scripts/dock_solv.prm

>  <Rbt.Receptor>
prm/pocket_docking_7.prm

>  <SCORE>
-13.9386

>  <SCORE.INTER>
-15.4621

>  <SCORE.INTER.CONST>
1

>  <SCORE.INTER.POLAR>
-0.979796

>  <SCORE.INTER.ROT>
3

>  <SCORE.INTER.SOLV>
17.1565

>  <SCORE.INTER.VDW>
-18.3609

>  <SCORE.INTER.norm>
-0.702824

>  <SCORE.INTRA>
1.52356

>  <SCORE.INTRA.DIHEDRAL>
1.88573

>  <SCORE.INTRA.DIHEDRAL.0>
1.67653

>  <SCORE.INTRA.POLAR>
0

>  <SCORE.INTRA.POLAR.0>
0

>  <SCORE.INTRA.REPUL>
0

>  <SCORE.INTRA.REPUL.0>
0

>  <SCORE.INTRA.SOLV>
1.31859

>  <SCORE.INTRA.SOLV.lig_0>
-76.6701

>  <SCORE.INTRA.VDW>
-0.0785936

>  <SCORE.INTRA.VDW.0>
-1.53273

>  <SCORE.INTRA.norm>
0.0692529

>  <SCORE.RESTR>
0

>  <SCORE.RESTR.CAVITY>
0

>  <SCORE.RESTR.norm>
0

>  <SCORE.SYSTEM>
0

>  <SCORE.SYSTEM.CONST>
0

>  <SCORE.SYSTEM.DIHEDRAL>
0

>  <SCORE.SYSTEM.SOLV>
0

>  <SCORE.SYSTEM.norm>
0

>  <SCORE.heavy>
22

>  <SCORE.norm>
-0.633571

>  <RMSD>
0.681

$$$$
2f4s_lig
 OpenBabel11021811433D
libRbt.so/2013.1/901 2013/11/27
 22 23  0  0  0  0  0  0  0  0999 V2000
   26.4423   17.1811   35.6040 N   0  0  0  0  0  0  0  0  0  0  0  0
   23.7471   15.0140   39.2393 N   0  0  0  0  0  0  0  0  0  0  0  0
   22.1088   10.9103   40.5429 N   0  0  0  0  0  0  0  0  0  0  0  0
   22.0080   15.2446   34.5582 O   0  0  0  0  0  0  0  0  0  0  0  0
   22.7814   15.9143   35.5956 C   0  0  2  0  0  0  0  0  0  0  0  0
   18.5649   15.3288   37.0758 N   0  0  0  0  0  0  0  0  0  0  0  0
   24.1941   17.0055   33.9000 O   0  0  0  0  0  0  0  0  0  0  0  0
   24.2204   16.2013   35.0851 C   0  0  1  0  0  0  0  0  0  0  0  0
   21.5262   14.8401   37.4064 O   0  0  0  0  0  0  0  0  0  0  0  0
   25.0481   16.9292   36.1373 C   0  0  1  0  0  0  0  0  0  0  0  0
   21.1243   12.5643   37.3412 O   0  0  0  0  0  0  0  0  0  0  0  0
   25.1115   16.0681   37.4440 C   0  0  0  0  0  0  0  0  0  0  0  0
   19.7510   12.2681   40.7341 O   0  0  0  0  0  0  0  0  0  0  0  0
   23.6401   15.8273   37.9577 C   0  0  1  0  0  0  0  0  0  0  0  0
   17.8106   13.9192   39.4615 O   0  0  0  0  0  0  0  0  0  0  0  0
   22.8404   15.0355   36.9071 C   0  0  2  0  0  0  0  0  0  0  0  0
   20.6262   13.8899   36.8646 C   0  0  1  0  0  0  0  0  0  0  0  0
   21.1570   12.3585   38.8168 C   0  0  2  0  0  0  0  0  0  0  0  0
   21.7201   10.9618   39.0969 C   0  0  0  0  0  0  0  0  0  0  0  0
   19.7412   12.4582   39.3392 C   0  0  2  0  0  0  0  0  0  0  0  0
   19.1550   13.8216   38.9771 C   0  0  1  0  0  0  0  0  0  0  0  0
   19.1701   13.9970   37.4385 C   0  0  1  0  0  0  0  0  0  0  0  0
  5  4  1  6  0  0  0
  5  8  1  0  0  0  0
  5 16  1  0  0  0  0
  8  7  1  6  0  0  0
  8 10  1  0  0  0  0
 10  1  1  6  0  0  0
 10 12  1  0  0  0  0
 11 18  1  0  0  0  0
 12 14  1  0  0  0  0
 14  2  1  1  0  0  0
 14 16  1  0  0  0  0
 16  9  1  1  0  0  0
 17  9  1  1  0  0  0
 17 11  1  0  0  0  0
 17 22  1  0  0  0  0
 18 19  1  6  0  0  0
 18 20  1  0  0  0  0
 19  3  1  0  0  0  0
 20 13  1  1  0  0  0
 20 21  1  0  0  0  0
 21 15  1  6  0  0  0
 21 22  1  0  0  0  0
 22  6  1  1  0  0  0
M  END
>  <CHROM.1>
79.00846006,74.43406371,164.28002819,21.90124575,14.43092754,37.51944373
-0.84712959,0.10818962,2.27786613

>  <Name>
2f4s_lig

>  <RI>
2.46955e+07

>  <Rbt.Current_Directory>
/home/itssahil/PROJECTS/Mol_Feturizer/New_Systems/rnas/2f4s

>  <Rbt.Executable>
rbdock ($Id: //depot/dev/client3/rdock/2013.1/src/exe/rbdock.cxx#4 $)

>  <Rbt.Library>
libRbt.so (2013.1, Build901 2013/11/27)

>  <Rbt.Parameter_File>
/export/apps/rDock/src/rDock_2013.1_src/data/scripts/dock_solv.prm

>  <Rbt.Receptor>
prm/pocket_docking_3.prm

>  <SCORE>
-13.9564

>  <SCORE.INTER>
-15.4716

>  <SCORE.INTER.CONST>
1

>  <SCORE.INTER.POLAR>
-0.979796

>  <SCORE.INTER.ROT>
3

>  <SCORE.INTER.SOLV>
17.1691

>  <SCORE.INTER.VDW>
-18.3715

>  <SCORE.INTER.norm>
-0.703255

>  <SCORE.INTRA>
1.51521

>  <SCORE.INTRA.DIHEDRAL>
1.89071

>  <SCORE.INTRA.DIHEDRAL.0>
1.67653

>  <SCORE.INTRA.POLAR>
0

>  <SCORE.INTRA.POLAR.0>
0

>  <SCORE.INTRA.REPUL>
0

>  <SCORE.INTRA.REPUL.0>
0

>  <SCORE.INTRA.SOLV>
1.2635

>  <SCORE.INTRA.SOLV.lig_0>
-76.6701

>  <SCORE.INTRA.VDW>
-0.0618985

>  <SCORE.INTRA.VDW.0>
-1.53273

>  <SCORE.INTRA.norm>
0.0688731

>  <SCORE.RESTR>
0

>  <SCORE.RESTR.CAVITY>
0

>  <SCORE.RESTR.norm>
0

>  <SCORE.SYSTEM>
0

>  <SCORE.SYSTEM.CONST>
0

>  <SCORE.SYSTEM.DIHEDRAL>
0

>  <SCORE.SYSTEM.SOLV>
0

>  <SCORE.SYSTEM.norm>
0

>  <SCORE.heavy>
22

>  <SCORE.norm>
-0.634382

>  <RMSD>
0.682

$$$$
2f4s_lig
 OpenBabel11021811433D
libRbt.so/2013.1/901 2013/11/27
 22 23  0  0  0  0  0  0  0  0999 V2000
   26.4527   17.1828   35.6000 N   0  0  0  0  0  0  0  0  0  0  0  0
   23.7512   15.0190   39.2325 N   0  0  0  0  0  0  0  0  0  0  0  0
   22.1136   10.9238   40.5514 N   0  0  0  0  0  0  0  0  0  0  0  0
   22.0209   15.2439   34.5479 O   0  0  0  0  0  0  0  0  0  0  0  0
   22.7922   15.9150   35.5860 C   0  0  2  0  0  0  0  0  0  0  0  0
   18.5717   15.3219   37.0595 N   0  0  0  0  0  0  0  0  0  0  0  0
   24.2078   17.0047   33.8919 O   0  0  0  0  0  0  0  0  0  0  0  0
   24.2320   16.2018   35.0779 C   0  0  1  0  0  0  0  0  0  0  0  0
   21.5338   14.8425   37.3957 O   0  0  0  0  0  0  0  0  0  0  0  0
   25.0576   16.9311   36.1309 C   0  0  1  0  0  0  0  0  0  0  0  0
   21.1381   12.5654   37.3394 O   0  0  0  0  0  0  0  0  0  0  0  0
   25.1188   16.0714   37.4386 C   0  0  0  0  0  0  0  0  0  0  0  0
   19.7615   12.2795   40.7318 O   0  0  0  0  0  0  0  0  0  0  0  0
   23.6464   15.8308   37.9498 C   0  0  1  0  0  0  0  0  0  0  0  0
   17.8183   13.9201   39.4501 O   0  0  0  0  0  0  0  0  0  0  0  0
   22.8490   15.0377   36.8986 C   0  0  2  0  0  0  0  0  0  0  0  0
   20.6370   13.8876   36.8567 C   0  0  1  0  0  0  0  0  0  0  0  0
   21.1696   12.3657   38.8159 C   0  0  2  0  0  0  0  0  0  0  0  0
   21.7361   10.9717   39.1024 C   0  0  0  0  0  0  0  0  0  0  0  0
   19.7529   12.4638   39.3361 C   0  0  2  0  0  0  0  0  0  0  0  0
   19.1635   13.8242   38.9677 C   0  0  1  0  0  0  0  0  0  0  0  0
   19.1799   13.9933   37.4285 C   0  0  1  0  0  0  0  0  0  0  0  0
  5  4  1  6  0  0  0
  5  8  1  0  0  0  0
  5 16  1  0  0  0  0
  8  7  1  6  0  0  0
  8 10  1  0  0  0  0
 10  1  1  6  0  0  0
 10 12  1  0  0  0  0
 11 18  1  0  0  0  0
 12 14  1  0  0  0  0
 14  2  1  1  0  0  0
 14 16  1  0  0  0  0
 16  9  1  1  0  0  0
 17  9  1  1  0  0  0
 17 11  1  0  0  0  0
 17 22  1  0  0  0  0
 18 19  1  6  0  0  0
 18 20  1  0  0  0  0
 19  3  1  0  0  0  0
 20 13  1  1  0  0  0
 20 21  1  0  0  0  0
 21 15  1  6  0  0  0
 21 22  1  0  0  0  0
 22  6  1  1  0  0  0
M  END
>  <CHROM.1>
79.27337914,74.31920640,164.70141556,21.91108925,14.43362351,37.51333410
-0.84687772,0.11064682,2.27447908

>  <Name>
2f4s_lig

>  <RI>
2.46955e+07

>  <Rbt.Current_Directory>
/home/itssahil/PROJECTS/Mol_Feturizer/New_Systems/rnas/2f4s

>  <Rbt.Executable>
rbdock ($Id: //depot/dev/client3/rdock/2013.1/src/exe/rbdock.cxx#4 $)

>  <Rbt.Library>
libRbt.so (2013.1, Build901 2013/11/27)

>  <Rbt.Parameter_File>
/export/apps/rDock/src/rDock_2013.1_src/data/scripts/dock_solv.prm

>  <Rbt.Receptor>
prm/pocket_docking_3.prm

>  <SCORE>
-13.9822

>  <SCORE.INTER>
-15.5052

>  <SCORE.INTER.CONST>
1

>  <SCORE.INTER.POLAR>
-0.979796

>  <SCORE.INTER.ROT>
3

>  <SCORE.INTER.SOLV>
17.1158

>  <SCORE.INTER.VDW>
-18.3761

>  <SCORE.INTER.norm>
-0.70478

>  <SCORE.INTRA>
1.52297

>  <SCORE.INTRA.DIHEDRAL>
1.87614

>  <SCORE.INTRA.DIHEDRAL.0>
1.67653

>  <SCORE.INTRA.POLAR>
0

>  <SCORE.INTRA.POLAR.0>
0

>  <SCORE.INTRA.REPUL>
0

>  <SCORE.INTRA.REPUL.0>
0

>  <SCORE.INTRA.SOLV>
1.28697

>  <SCORE.INTRA.SOLV.lig_0>
-76.6701

>  <SCORE.INTRA.VDW>
-0.058587

>  <SCORE.INTRA.VDW.0>
-1.53273

>  <SCORE.INTRA.norm>
0.069226

>  <SCORE.RESTR>
0

>  <SCORE.RESTR.CAVITY>
0

>  <SCORE.RESTR.norm>
0

>  <SCORE.SYSTEM>
0

>  <SCORE.SYSTEM.CONST>
0

>  <SCORE.SYSTEM.DIHEDRAL>
0

>  <SCORE.SYSTEM.SOLV>
0

>  <SCORE.SYSTEM.norm>
0

>  <SCORE.heavy>
22

>  <SCORE.norm>
-0.635554

>  <RMSD>
0.682

$$$$
2f4s_lig
 OpenBabel11021811433D
libRbt.so/2013.1/901 2013/11/27
 22 23  0  0  0  0  0  0  0  0999 V2000
   26.4602   17.1641   35.6164 N   0  0  0  0  0  0  0  0  0  0  0  0
   23.7410   15.0108   39.2419 N   0  0  0  0  0  0  0  0  0  0  0  0
   22.1102   10.9303   40.5552 N   0  0  0  0  0  0  0  0  0  0  0  0
   22.0204   15.2491   34.5544 O   0  0  0  0  0  0  0  0  0  0  0  0
   22.7932   15.9152   35.5945 C   0  0  2  0  0  0  0  0  0  0  0  0
   18.5640   15.3305   37.0688 N   0  0  0  0  0  0  0  0  0  0  0  0
   24.2175   16.9992   33.9040 O   0  0  0  0  0  0  0  0  0  0  0  0
   24.2354   16.1951   35.0894 C   0  0  1  0  0  0  0  0  0  0  0  0
   21.5261   14.8475   37.4009 O   0  0  0  0  0  0  0  0  0  0  0  0
   25.0628   16.9191   36.1445 C   0  0  1  0  0  0  0  0  0  0  0  0
   21.1275   12.5709   37.3454 O   0  0  0  0  0  0  0  0  0  0  0  0
   25.1172   16.0579   37.4515 C   0  0  0  0  0  0  0  0  0  0  0  0
   19.7552   12.2871   40.7398 O   0  0  0  0  0  0  0  0  0  0  0  0
   23.6427   15.8244   37.9599 C   0  0  1  0  0  0  0  0  0  0  0  0
   17.8122   13.9299   39.4606 O   0  0  0  0  0  0  0  0  0  0  0  0
   22.8431   15.0364   36.9064 C   0  0  2  0  0  0  0  0  0  0  0  0
   20.6274   13.8936   36.8633 C   0  0  1  0  0  0  0  0  0  0  0  0
   21.1608   12.3713   38.8219 C   0  0  2  0  0  0  0  0  0  0  0  0
   21.7260   10.9767   39.1079 C   0  0  0  0  0  0  0  0  0  0  0  0
   19.7449   12.4712   39.3441 C   0  0  2  0  0  0  0  0  0  0  0  0
   19.1566   13.8323   38.9763 C   0  0  1  0  0  0  0  0  0  0  0  0
   19.1712   14.0012   37.4371 C   0  0  1  0  0  0  0  0  0  0  0  0
  5  4  1  6  0  0  0
  5  8  1  0  0  0  0
  5 16  1  0  0  0  0
  8  7  1  6  0  0  0
  8 10  1  0  0  0  0
 10  1  1  6  0  0  0
 10 12  1  0  0  0  0
 11 18  1  0  0  0  0
 12 14  1  0  0  0  0
 14  2  1  1  0  0  0
 14 16  1  0  0  0  0
 16  9  1  1  0  0  0
 17  9  1  1  0  0  0
 17 11  1  0  0  0  0
 17 22  1  0  0  0  0
 18 19  1  6  0  0  0
 18 20  1  0  0  0  0
 19  3  1  0  0  0  0
 20 13  1  1  0  0  0
 20 21  1  0  0  0  0
 21 15  1  6  0  0  0
 21 22  1  0  0  0  0
 22  6  1  1  0  0  0
M  END
>  <CHROM.1>
79.56563481,73.99054303,164.49217381,21.90706260,14.43449798,37.52216169
-0.84402509,0.10822603,2.27416987

>  <Name>
2f4s_lig

>  <RI>
2.46955e+07

>  <Rbt.Current_Directory>
/home/itssahil/PROJECTS/Mol_Feturizer/New_Systems/rnas/2f4s

>  <Rbt.Executable>
rbdock ($Id: //depot/dev/client3/rdock/2013.1/src/exe/rbdock.cxx#4 $)

>  <Rbt.Library>
libRbt.so (2013.1, Build901 2013/11/27)

>  <Rbt.Parameter_File>
/export/apps/rDock/src/rDock_2013.1_src/data/scripts/dock_solv.prm

>  <Rbt.Receptor>
prm/pocket_docking_3.prm

>  <SCORE>
-13.9569

>  <SCORE.INTER>
-15.4842

>  <SCORE.INTER.CONST>
1

>  <SCORE.INTER.POLAR>
-0.979796

>  <SCORE.INTER.ROT>
3

>  <SCORE.INTER.SOLV>
17.103

>  <SCORE.INTER.VDW>
-18.3578

>  <SCORE.INTER.norm>
-0.703825

>  <SCORE.INTRA>
1.52724

>  <SCORE.INTRA.DIHEDRAL>
1.90282

>  <SCORE.INTRA.DIHEDRAL.0>
1.67653

>  <SCORE.INTRA.POLAR>
0

>  <SCORE.INTRA.POLAR.0>
0

>  <SCORE.INTRA.REPUL>
0

>  <SCORE.INTRA.REPUL.0>
0

>  <SCORE.INTRA.SOLV>
1.28985

>  <SCORE.INTRA.SOLV.lig_0>
-76.6701

>  <SCORE.INTRA.VDW>
-0.0690944

>  <SCORE.INTRA.VDW.0>
-1.53273

>  <SCORE.INTRA.norm>
0.06942

>  <SCORE.RESTR>
0

>  <SCORE.RESTR.CAVITY>
0

>  <SCORE.RESTR.norm>
0

>  <SCORE.SYSTEM>
0

>  <SCORE.SYSTEM.CONST>
0

>  <SCORE.SYSTEM.DIHEDRAL>
0

>  <SCORE.SYSTEM.SOLV>
0

>  <SCORE.SYSTEM.norm>
0

>  <SCORE.heavy>
22

>  <SCORE.norm>
-0.634405

>  <RMSD>
0.682

$$$$
2f4s_lig
 OpenBabel11021811433D
libRbt.so/2013.1/901 2013/11/27
 22 23  0  0  0  0  0  0  0  0999 V2000
   26.4489   17.1852   35.5965 N   0  0  0  0  0  0  0  0  0  0  0  0
   23.7435   15.0200   39.2253 N   0  0  0  0  0  0  0  0  0  0  0  0
   22.1042   10.9428   40.5689 N   0  0  0  0  0  0  0  0  0  0  0  0
   22.0199   15.2433   34.5381 O   0  0  0  0  0  0  0  0  0  0  0  0
   22.7892   15.9149   35.5773 C   0  0  2  0  0  0  0  0  0  0  0  0
   18.5665   15.3114   37.0377 N   0  0  0  0  0  0  0  0  0  0  0  0
   24.2066   17.0054   33.8851 O   0  0  0  0  0  0  0  0  0  0  0  0
   24.2296   16.2027   35.0713 C   0  0  1  0  0  0  0  0  0  0  0  0
   21.5289   14.8418   37.3852 O   0  0  0  0  0  0  0  0  0  0  0  0
   25.0531   16.9326   36.1254 C   0  0  1  0  0  0  0  0  0  0  0  0
   21.1392   12.5634   37.3423 O   0  0  0  0  0  0  0  0  0  0  0  0
   25.1130   16.0732   37.4333 C   0  0  0  0  0  0  0  0  0  0  0  0
   19.7537   12.2956   40.7326 O   0  0  0  0  0  0  0  0  0  0  0  0
   23.6400   15.8316   37.9424 C   0  0  1  0  0  0  0  0  0  0  0  0
   17.8099   13.9229   39.4351 O   0  0  0  0  0  0  0  0  0  0  0  0
   22.8446   15.0378   36.8901 C   0  0  2  0  0  0  0  0  0  0  0  0
   20.6361   13.8812   36.8498 C   0  0  1  0  0  0  0  0  0  0  0  0
   21.1670   12.3732   38.8201 C   0  0  2  0  0  0  0  0  0  0  0  0
   21.7363   10.9825   39.1172 C   0  0  0  0  0  0  0  0  0  0  0  0
   19.7487   12.4709   39.3358 C   0  0  2  0  0  0  0  0  0  0  0  0
   19.1567   13.8274   38.9570 C   0  0  1  0  0  0  0  0  0  0  0  0
   19.1771   13.9867   37.4168 C   0  0  1  0  0  0  0  0  0  0  0  0
  5  4  1  6  0  0  0
  5  8  1  0  0  0  0
  5 16  1  0  0  0  0
  8  7  1  6  0  0  0
  8 10  1  0  0  0  0
 10  1  1  6  0  0  0
 10 12  1  0  0  0  0
 11 18  1  0  0  0  0
 12 14  1  0  0  0  0
 14  2  1  1  0  0  0
 14 16  1  0  0  0  0
 16  9  1  1  0  0  0
 17  9  1  1  0  0  0
 17 11  1  0  0  0  0
 17 22  1  0  0  0  0
 18 19  1  6  0  0  0
 18 20  1  0  0  0  0
 19  3  1  0  0  0  0
 20 13  1  1  0  0  0
 20 21  1  0  0  0  0
 21 15  1  6  0  0  0
 21 22  1  0  0  0  0
 22  6  1  1  0  0  0
M  END
>  <CHROM.1>
79.63222409,74.36112949,164.94574256,21.90692724,14.43591511,37.50850137
-0.84659549,0.11397698,2.26995469

>  <Name>
2f4s_lig

>  <RI>
2.46955e+07

>  <Rbt.Current_Directory>
/home/itssahil/PROJECTS/Mol_Feturizer/New_Systems/rnas/2f4s

>  <Rbt.Executable>
rbdock ($Id: //depot/dev/client3/rdock/2013.1/src/exe/rbdock.cxx#4 $)

>  <Rbt.Library>
libRbt.so (2013.1, Build901 2013/11/27)

>  <Rbt.Parameter_File>
/export/apps/rDock/src/rDock_2013.1_src/data/scripts/dock_solv.prm

>  <Rbt.Receptor>
prm/pocket_docking_3.prm

>  <SCORE>
-13.9871

>  <SCORE.INTER>
-15.5414

>  <SCORE.INTER.CONST>
1

>  <SCORE.INTER.POLAR>
-0.979796

>  <SCORE.INTER.ROT>
3

>  <SCORE.INTER.SOLV>
17.0459

>  <SCORE.INTER.VDW>
-18.3769

>  <SCORE.INTER.norm>
-0.706428

>  <SCORE.INTRA>
1.55436

>  <SCORE.INTRA.DIHEDRAL>
1.9145

>  <SCORE.INTRA.DIHEDRAL.0>
1.67653

>  <SCORE.INTRA.POLAR>
0

>  <SCORE.INTRA.POLAR.0>
0

>  <SCORE.INTRA.REPUL>
0

>  <SCORE.INTRA.REPUL.0>
0

>  <SCORE.INTRA.SOLV>
1.3163

>  <SCORE.INTRA.SOLV.lig_0>
-76.6701

>  <SCORE.INTRA.VDW>
-0.0610407

>  <SCORE.INTRA.VDW.0>
-1.53273

>  <SCORE.INTRA.norm>
0.0706526

>  <SCORE.RESTR>
0

>  <SCORE.RESTR.CAVITY>
0

>  <SCORE.RESTR.norm>
0

>  <SCORE.SYSTEM>
0

>  <SCORE.SYSTEM.CONST>
0

>  <SCORE.SYSTEM.DIHEDRAL>
0

>  <SCORE.SYSTEM.SOLV>
0

>  <SCORE.SYSTEM.norm>
0

>  <SCORE.heavy>
22

>  <SCORE.norm>
-0.635776

>  <RMSD>
0.684

$$$$
2f4s_lig
 OpenBabel11021811433D
libRbt.so/2013.1/901 2013/11/27
 22 23  0  0  0  0  0  0  0  0999 V2000
   26.5088   17.1787   35.6797 N   0  0  0  0  0  0  0  0  0  0  0  0
   23.7125   15.0026   39.2323 N   0  0  0  0  0  0  0  0  0  0  0  0
   22.0794   11.0132   40.5771 N   0  0  0  0  0  0  0  0  0  0  0  0
   22.0700   15.3180   34.5213 O   0  0  0  0  0  0  0  0  0  0  0  0
   22.8318   15.9633   35.5825 C   0  0  2  0  0  0  0  0  0  0  0  0
   18.5661   15.3404   36.9719 N   0  0  0  0  0  0  0  0  0  0  0  0
   24.2927   17.0565   33.9296 O   0  0  0  0  0  0  0  0  0  0  0  0
   24.2844   16.2368   35.1043 C   0  0  1  0  0  0  0  0  0  0  0  0
   21.5263   14.8835   37.3540 O   0  0  0  0  0  0  0  0  0  0  0  0
   25.1010   16.9394   36.1820 C   0  0  1  0  0  0  0  0  0  0  0  0
   21.1443   12.6035   37.3266 O   0  0  0  0  0  0  0  0  0  0  0  0
   25.1267   16.0606   37.4782 C   0  0  0  0  0  0  0  0  0  0  0  0
   19.7246   12.3601   40.7046 O   0  0  0  0  0  0  0  0  0  0  0  0
   23.6422   15.8338   37.9597 C   0  0  1  0  0  0  0  0  0  0  0  0
   17.7892   13.9700   39.3732 O   0  0  0  0  0  0  0  0  0  0  0  0
   22.8527   15.0670   36.8832 C   0  0  2  0  0  0  0  0  0  0  0  0
   20.6421   13.9154   36.8176 C   0  0  1  0  0  0  0  0  0  0  0  0
   21.1574   12.4260   38.8062 C   0  0  2  0  0  0  0  0  0  0  0  0
   21.7280   11.0398   39.1210 C   0  0  0  0  0  0  0  0  0  0  0  0
   19.7335   12.5235   39.3063 C   0  0  2  0  0  0  0  0  0  0  0  0
   19.1412   13.8748   38.9099 C   0  0  1  0  0  0  0  0  0  0  0  0
   19.1770   14.0210   37.3687 C   0  0  1  0  0  0  0  0  0  0  0  0
  5  4  1  6  0  0  0
  5  8  1  0  0  0  0
  5 16  1  0  0  0  0
  8  7  1  6  0  0  0
  8 10  1  0  0  0  0
 10  1  1  6  0  0  0
 10 12  1  0  0  0  0
 11 18  1  0  0  0  0
 12 14  1  0  0  0  0
 14  2  1  1  0  0  0
 14 16  1  0  0  0  0
 16  9  1  1  0  0  0
 17  9  1  1  0  0  0
 17 11  1  0  0  0  0
 17 22  1  0  0  0  0
 18 19  1  6  0  0  0
 18 20  1  0  0  0  0
 19  3  1  0  0  0  0
 20 13  1  1  0  0  0
 20 21  1  0  0  0  0
 21 15  1  6  0  0  0
 21 22  1  0  0  0  0
 22  6  1  1  0  0  0
M  END
>  <CHROM.1>
81.65073624,73.45447552,165.01529897,21.91699488,14.47215794,37.50379714
-0.83151276,0.11977529,2.26599234

>  <Name>
2f4s_lig

>  <RI>
0

>  <Rbt.Current_Directory>
/home/itssahil/PROJECTS/Mol_Feturizer/New_Systems/rnas/2f4s

>  <Rbt.Executable>
rbdock ($Id: //depot/dev/client3/rdock/2013.1/src/exe/rbdock.cxx#4 $)

>  <Rbt.Library>
libRbt.so (2013.1, Build901 2013/11/27)

>  <Rbt.Parameter_File>
/export/apps/rDock/src/rDock_2013.1_src/data/scripts/dock_solv.prm

>  <Rbt.Receptor>
prm/pocket_docking_5.prm

>  <SCORE>
-13.9291

>  <SCORE.INTER>
-15.5827

>  <SCORE.INTER.CONST>
1

>  <SCORE.INTER.POLAR>
-0.979796

>  <SCORE.INTER.ROT>
3

>  <SCORE.INTER.SOLV>
16.6658

>  <SCORE.INTER.VDW>
-18.2778

>  <SCORE.INTER.norm>
-0.708304

>  <SCORE.INTRA>
1.65359

>  <SCORE.INTRA.DIHEDRAL>
2.1302

>  <SCORE.INTRA.DIHEDRAL.0>
1.67653

>  <SCORE.INTRA.POLAR>
0

>  <SCORE.INTRA.POLAR.0>
0

>  <SCORE.INTRA.REPUL>
0

>  <SCORE.INTRA.REPUL.0>
0

>  <SCORE.INTRA.SOLV>
1.41453

>  <SCORE.INTRA.SOLV.lig_0>
-76.6701

>  <SCORE.INTRA.VDW>
-0.118773

>  <SCORE.INTRA.VDW.0>
-1.53273

>  <SCORE.INTRA.norm>
0.0751634

>  <SCORE.RESTR>
0

>  <SCORE.RESTR.CAVITY>
0

>  <SCORE.RESTR.norm>
0

>  <SCORE.SYSTEM>
0

>  <SCORE.SYSTEM.CONST>
0

>  <SCORE.SYSTEM.DIHEDRAL>
0

>  <SCORE.SYSTEM.SOLV>
0

>  <SCORE.SYSTEM.norm>
0

>  <SCORE.heavy>
22

>  <SCORE.norm>
-0.633141

>  <RMSD>
0.684

$$$$
2f4s_lig
 OpenBabel11021811433D
libRbt.so/2013.1/901 2013/11/27
 22 23  0  0  0  0  0  0  0  0999 V2000
   26.4513   17.1849   35.6105 N   0  0  0  0  0  0  0  0  0  0  0  0
   23.7605   15.0186   39.2496 N   0  0  0  0  0  0  0  0  0  0  0  0
   22.1143   10.9079   40.5654 N   0  0  0  0  0  0  0  0  0  0  0  0
   22.0190   15.2413   34.5690 O   0  0  0  0  0  0  0  0  0  0  0  0
   22.7920   15.9133   35.6053 C   0  0  2  0  0  0  0  0  0  0  0  0
   18.5759   15.3195   37.0916 N   0  0  0  0  0  0  0  0  0  0  0  0
   24.2025   17.0043   33.9077 O   0  0  0  0  0  0  0  0  0  0  0  0
   24.2304   16.2016   35.0938 C   0  0  1  0  0  0  0  0  0  0  0  0
   21.5390   14.8397   37.4180 O   0  0  0  0  0  0  0  0  0  0  0  0
   25.0576   16.9318   36.1447 C   0  0  1  0  0  0  0  0  0  0  0  0
   21.1435   12.5627   37.3569 O   0  0  0  0  0  0  0  0  0  0  0  0
   25.1228   16.0723   37.4524 C   0  0  0  0  0  0  0  0  0  0  0  0
   19.7766   12.2678   40.7526 O   0  0  0  0  0  0  0  0  0  0  0  0
   23.6519   15.8302   37.9671 C   0  0  1  0  0  0  0  0  0  0  0  0
   17.8295   13.9115   39.4808 O   0  0  0  0  0  0  0  0  0  0  0  0
   22.8528   15.0362   36.9178 C   0  0  2  0  0  0  0  0  0  0  0  0
   20.6408   13.8861   36.8791 C   0  0  1  0  0  0  0  0  0  0  0  0
   21.1792   12.3592   38.8328 C   0  0  2  0  0  0  0  0  0  0  0  0
   21.7467   10.9645   39.1141 C   0  0  0  0  0  0  0  0  0  0  0  0
   19.7640   12.4557   39.3574 C   0  0  2  0  0  0  0  0  0  0  0  0
   19.1733   13.8169   38.9942 C   0  0  1  0  0  0  0  0  0  0  0  0
   19.1854   13.9900   37.4554 C   0  0  1  0  0  0  0  0  0  0  0  0
  5  4  1  6  0  0  0
  5  8  1  0  0  0  0
  5 16  1  0  0  0  0
  8  7  1  6  0  0  0
  8 10  1  0  0  0  0
 10  1  1  6  0  0  0
 10 12  1  0  0  0  0
 11 18  1  0  0  0  0
 12 14  1  0  0  0  0
 14  2  1  1  0  0  0
 14 16  1  0  0  0  0
 16  9  1  1  0  0  0
 17  9  1  1  0  0  0
 17 11  1  0  0  0  0
 17 22  1  0  0  0  0
 18 19  1  6  0  0  0
 18 20  1  0  0  0  0
 19  3  1  0  0  0  0
 20 13  1  1  0  0  0
 20 21  1  0  0  0  0
 21 15  1  6  0  0  0
 21 22  1  0  0  0  0
 22  6  1  1  0  0  0
M  END
>  <CHROM.1>
79.11500657,74.30807987,165.31484389,21.91585539,14.42985410,37.53281026
-0.84929705,0.10925981,2.27646789

>  <Name>
2f4s_lig

>  <RI>
2.46955e+07

>  <Rbt.Current_Directory>
/home/itssahil/PROJECTS/Mol_Feturizer/New_Systems/rnas/2f4s

>  <Rbt.Executable>
rbdock ($Id: //depot/dev/client3/rdock/2013.1/src/exe/rbdock.cxx#4 $)

>  <Rbt.Library>
libRbt.so (2013.1, Build901 2013/11/27)

>  <Rbt.Parameter_File>
/export/apps/rDock/src/rDock_2013.1_src/data/scripts/dock_solv.prm

>  <Rbt.Receptor>
prm/pocket_docking_3.prm

>  <SCORE>
-13.9713

>  <SCORE.INTER>
-15.4714

>  <SCORE.INTER.CONST>
1

>  <SCORE.INTER.POLAR>
-0.979796

>  <SCORE.INTER.ROT>
3

>  <SCORE.INTER.SOLV>
17.1364

>  <SCORE.INTER.VDW>
-18.3604

>  <SCORE.INTER.norm>
-0.703244

>  <SCORE.INTRA>
1.50007

>  <SCORE.INTRA.DIHEDRAL>
1.79035

>  <SCORE.INTRA.DIHEDRAL.0>
1.67653

>  <SCORE.INTRA.POLAR>
0

>  <SCORE.INTRA.POLAR.0>
0

>  <SCORE.INTRA.REPUL>
0

>  <SCORE.INTRA.REPUL.0>
0

>  <SCORE.INTRA.SOLV>
1.29249

>  <SCORE.INTRA.SOLV.lig_0>
-76.6701

>  <SCORE.INTRA.VDW>
-0.0413548

>  <SCORE.INTRA.VDW.0>
-1.53273

>  <SCORE.INTRA.norm>
0.0681848

>  <SCORE.RESTR>
0

>  <SCORE.RESTR.CAVITY>
0

>  <SCORE.RESTR.norm>
0

>  <SCORE.SYSTEM>
0

>  <SCORE.SYSTEM.CONST>
0

>  <SCORE.SYSTEM.DIHEDRAL>
0

>  <SCORE.SYSTEM.SOLV>
0

>  <SCORE.SYSTEM.norm>
0

>  <SCORE.heavy>
22

>  <SCORE.norm>
-0.635059

>  <RMSD>
0.686

$$$$
2f4s_lig
 OpenBabel11021811433D
libRbt.so/2013.1/901 2013/11/27
 22 23  0  0  0  0  0  0  0  0999 V2000
   26.4472   17.1917   35.6171 N   0  0  0  0  0  0  0  0  0  0  0  0
   23.7504   15.0153   39.2457 N   0  0  0  0  0  0  0  0  0  0  0  0
   22.1238   10.9220   40.5622 N   0  0  0  0  0  0  0  0  0  0  0  0
   22.0192   15.2459   34.5616 O   0  0  0  0  0  0  0  0  0  0  0  0
   22.7892   15.9165   35.6010 C   0  0  2  0  0  0  0  0  0  0  0  0
   18.5706   15.3123   37.0698 N   0  0  0  0  0  0  0  0  0  0  0  0
   24.2024   17.0124   33.9089 O   0  0  0  0  0  0  0  0  0  0  0  0
   24.2284   16.2073   35.0934 C   0  0  1  0  0  0  0  0  0  0  0  0
   21.5332   14.8379   37.4087 O   0  0  0  0  0  0  0  0  0  0  0  0
   25.0526   16.9361   36.1476 C   0  0  1  0  0  0  0  0  0  0  0  0
   21.1415   12.5601   37.3514 O   0  0  0  0  0  0  0  0  0  0  0  0
   25.1157   16.0740   37.4537 C   0  0  0  0  0  0  0  0  0  0  0  0
   19.7620   12.2710   40.7424 O   0  0  0  0  0  0  0  0  0  0  0  0
   23.6439   15.8294   37.9646 C   0  0  1  0  0  0  0  0  0  0  0  0
   17.8172   13.9085   39.4593 O   0  0  0  0  0  0  0  0  0  0  0  0
   22.8479   15.0368   36.9119 C   0  0  2  0  0  0  0  0  0  0  0  0
   20.6386   13.8816   36.8685 C   0  0  1  0  0  0  0  0  0  0  0  0
   21.1719   12.3601   38.8279 C   0  0  2  0  0  0  0  0  0  0  0  0
   21.7405   10.9670   39.1146 C   0  0  0  0  0  0  0  0  0  0  0  0
   19.7545   12.4556   39.3467 C   0  0  2  0  0  0  0  0  0  0  0  0
   19.1631   13.8150   38.9781 C   0  0  1  0  0  0  0  0  0  0  0  0
   19.1808   13.9846   37.4390 C   0  0  1  0  0  0  0  0  0  0  0  0
  5  4  1  6  0  0  0
  5  8  1  0  0  0  0
  5 16  1  0  0  0  0
  8  7  1  6  0  0  0
  8 10  1  0  0  0  0
 10  1  1  6  0  0  0
 10 12  1  0  0  0  0
 11 18  1  0  0  0  0
 12 14  1  0  0  0  0
 14  2  1  1  0  0  0
 14 16  1  0  0  0  0
 16  9  1  1  0  0  0
 17  9  1  1  0  0  0
 17 11  1  0  0  0  0
 17 22  1  0  0  0  0
 18 19  1  6  0  0  0
 18 20  1  0  0  0  0
 19  3  1  0  0  0  0
 20 13  1  1  0  0  0
 20 21  1  0  0  0  0
 21 15  1  6  0  0  0
 21 22  1  0  0  0  0
 22  6  1  1  0  0  0
M  END
>  <CHROM.1>
79.32068374,74.40319768,164.38875979,21.91064525,14.43103225,37.52625599
-0.84790018,0.11251271,2.27546393

>  <Name>
2f4s_lig

>  <RI>
2.46955e+07

>  <Rbt.Current_Directory>
/home/itssahil/PROJECTS/Mol_Feturizer/New_Systems/rnas/2f4s

>  <Rbt.Executable>
rbdock ($Id: //depot/dev/client3/rdock/2013.1/src/exe/rbdock.cxx#4 $)

>  <Rbt.Library>
libRbt.so (2013.1, Build901 2013/11/27)

>  <Rbt.Parameter_File>
/export/apps/rDock/src/rDock_2013.1_src/data/scripts/dock_solv.prm

>  <Rbt.Receptor>
prm/pocket_docking_3.prm

>  <SCORE>
-13.9819

>  <SCORE.INTER>
-15.5203

>  <SCORE.INTER.CONST>
1

>  <SCORE.INTER.POLAR>
-0.979796

>  <SCORE.INTER.ROT>
3

>  <SCORE.INTER.SOLV>
17.0676

>  <SCORE.INTER.VDW>
-18.37

>  <SCORE.INTER.norm>
-0.705467

>  <SCORE.INTRA>
1.53834

>  <SCORE.INTRA.DIHEDRAL>
1.92512

>  <SCORE.INTRA.DIHEDRAL.0>
1.67653

>  <SCORE.INTRA.POLAR>
0

>  <SCORE.INTRA.POLAR.0>
0

>  <SCORE.INTRA.REPUL>
0

>  <SCORE.INTRA.REPUL.0>
0

>  <SCORE.INTRA.SOLV>
1.28442

>  <SCORE.INTRA.SOLV.lig_0>
-76.6701

>  <SCORE.INTRA.VDW>
-0.0664253

>  <SCORE.INTRA.VDW.0>
-1.53273

>  <SCORE.INTRA.norm>
0.0699247

>  <SCORE.RESTR>
0

>  <SCORE.RESTR.CAVITY>
0

>  <SCORE.RESTR.norm>
0

>  <SCORE.SYSTEM>
0

>  <SCORE.SYSTEM.CONST>
0

>  <SCORE.SYSTEM.DIHEDRAL>
0

>  <SCORE.SYSTEM.SOLV>
0

>  <SCORE.SYSTEM.norm>
0

>  <SCORE.heavy>
22

>  <SCORE.norm>
-0.635542

>  <RMSD>
0.686

$$$$
2f4s_lig
 OpenBabel11021811433D
libRbt.so/2013.1/901 2013/11/27
 22 23  0  0  0  0  0  0  0  0999 V2000
   26.4724   17.2086   35.7780 N   0  0  0  0  0  0  0  0  0  0  0  0
   23.6851   14.9327   39.2747 N   0  0  0  0  0  0  0  0  0  0  0  0
   22.0843   10.9732   40.5447 N   0  0  0  0  0  0  0  0  0  0  0  0
   22.0118   15.4206   34.5893 O   0  0  0  0  0  0  0  0  0  0  0  0
   22.7858   16.0239   35.6663 C   0  0  2  0  0  0  0  0  0  0  0  0
   18.5235   15.3628   37.0526 N   0  0  0  0  0  0  0  0  0  0  0  0
   24.2432   17.1623   34.0410 O   0  0  0  0  0  0  0  0  0  0  0  0
   24.2370   16.3031   35.1871 C   0  0  1  0  0  0  0  0  0  0  0  0
   21.4848   14.8936   37.4094 O   0  0  0  0  0  0  0  0  0  0  0  0
   25.0664   16.9625   36.2822 C   0  0  1  0  0  0  0  0  0  0  0  0
   21.0986   12.6152   37.3398 O   0  0  0  0  0  0  0  0  0  0  0  0
   25.0947   16.0398   37.5475 C   0  0  0  0  0  0  0  0  0  0  0  0
   19.6970   12.3086   40.7202 O   0  0  0  0  0  0  0  0  0  0  0  0
   23.6120   15.8074   38.0317 C   0  0  1  0  0  0  0  0  0  0  0  0
   17.7572   13.9473   39.4309 O   0  0  0  0  0  0  0  0  0  0  0  0
   22.8092   15.0835   36.9355 C   0  0  2  0  0  0  0  0  0  0  0  0
   20.5960   13.9376   36.8592 C   0  0  1  0  0  0  0  0  0  0  0  0
   21.1195   12.4090   38.8156 C   0  0  2  0  0  0  0  0  0  0  0  0
   21.6893   11.0159   39.1002 C   0  0  0  0  0  0  0  0  0  0  0  0
   19.6985   12.4991   39.3253 C   0  0  2  0  0  0  0  0  0  0  0  0
   19.1065   13.8588   38.9585 C   0  0  1  0  0  0  0  0  0  0  0  0
   19.1341   14.0350   37.4202 C   0  0  1  0  0  0  0  0  0  0  0  0
  5  4  1  6  0  0  0
  5  8  1  0  0  0  0
  5 16  1  0  0  0  0
  8  7  1  6  0  0  0
  8 10  1  0  0  0  0
 10  1  1  6  0  0  0
 10 12  1  0  0  0  0
 11 18  1  0  0  0  0
 12 14  1  0  0  0  0
 14  2  1  1  0  0  0
 14 16  1  0  0  0  0
 16  9  1  1  0  0  0
 17  9  1  1  0  0  0
 17 11  1  0  0  0  0
 17 22  1  0  0  0  0
 18 19  1  6  0  0  0
 18 20  1  0  0  0  0
 19  3  1  0  0  0  0
 20 13  1  1  0  0  0
 20 21  1  0  0  0  0
 21 15  1  6  0  0  0
 21 22  1  0  0  0  0
 22  6  1  1  0  0  0
M  END
>  <CHROM.1>
82.57588973,73.41937992,163.45059021,21.87939198,14.48055826,37.55464450
-0.83330074,0.11312574,2.29030426

>  <Name>
2f4s_lig

>  <RI>
0

>  <Rbt.Current_Directory>
/home/itssahil/PROJECTS/Mol_Feturizer/New_Systems/rnas/2f4s

>  <Rbt.Executable>
rbdock ($Id: //depot/dev/client3/rdock/2013.1/src/exe/rbdock.cxx#4 $)

>  <Rbt.Library>
libRbt.so (2013.1, Build901 2013/11/27)

>  <Rbt.Parameter_File>
/export/apps/rDock/src/rDock_2013.1_src/data/scripts/dock_solv.prm

>  <Rbt.Receptor>
prm/pocket_docking_5.prm

>  <SCORE>
-14.0005

>  <SCORE.INTER>
-15.7663

>  <SCORE.INTER.CONST>
1

>  <SCORE.INTER.POLAR>
-0.979796

>  <SCORE.INTER.ROT>
3

>  <SCORE.INTER.SOLV>
16.437

>  <SCORE.INTER.VDW>
-18.3239

>  <SCORE.INTER.norm>
-0.716652

>  <SCORE.INTRA>
1.76582

>  <SCORE.INTRA.DIHEDRAL>
2.44198

>  <SCORE.INTRA.DIHEDRAL.0>
1.67653

>  <SCORE.INTRA.POLAR>
0

>  <SCORE.INTRA.POLAR.0>
0

>  <SCORE.INTRA.REPUL>
0

>  <SCORE.INTRA.REPUL.0>
0

>  <SCORE.INTRA.SOLV>
1.43001

>  <SCORE.INTRA.SOLV.lig_0>
-76.6701

>  <SCORE.INTRA.VDW>
-0.170174

>  <SCORE.INTRA.VDW.0>
-1.53273

>  <SCORE.INTRA.norm>
0.0802647

>  <SCORE.RESTR>
0

>  <SCORE.RESTR.CAVITY>
0

>  <SCORE.RESTR.norm>
0

>  <SCORE.SYSTEM>
0

>  <SCORE.SYSTEM.CONST>
0

>  <SCORE.SYSTEM.DIHEDRAL>
0

>  <SCORE.SYSTEM.SOLV>
0

>  <SCORE.SYSTEM.norm>
0

>  <SCORE.heavy>
22

>  <SCORE.norm>
-0.636388

>  <RMSD>
0.688

$$$$
2f4s_lig
 OpenBabel11021811433D
libRbt.so/2013.1/901 2013/11/27
 22 23  0  0  0  0  0  0  0  0999 V2000
   26.4772   17.1924   35.7686 N   0  0  0  0  0  0  0  0  0  0  0  0
   23.6805   14.9650   39.2890 N   0  0  0  0  0  0  0  0  0  0  0  0
   22.0786   10.9669   40.5656 N   0  0  0  0  0  0  0  0  0  0  0  0
   22.0304   15.3656   34.5872 O   0  0  0  0  0  0  0  0  0  0  0  0
   22.7961   15.9904   35.6577 C   0  0  2  0  0  0  0  0  0  0  0  0
   18.5277   15.3446   37.0557 N   0  0  0  0  0  0  0  0  0  0  0  0
   24.2574   17.1070   34.0209 O   0  0  0  0  0  0  0  0  0  0  0  0
   24.2487   16.2675   35.1815 C   0  0  1  0  0  0  0  0  0  0  0  0
   21.4904   14.8848   37.4131 O   0  0  0  0  0  0  0  0  0  0  0  0
   25.0695   16.9490   36.2695 C   0  0  1  0  0  0  0  0  0  0  0  0
   21.1106   12.6051   37.3502 O   0  0  0  0  0  0  0  0  0  0  0  0
   25.0948   16.0483   37.5505 C   0  0  0  0  0  0  0  0  0  0  0  0
   19.7109   12.3044   40.7319 O   0  0  0  0  0  0  0  0  0  0  0  0
   23.6104   15.8179   38.0309 C   0  0  1  0  0  0  0  0  0  0  0  0
   17.7661   13.9338   39.4384 O   0  0  0  0  0  0  0  0  0  0  0  0
   22.8166   15.0720   36.9430 C   0  0  2  0  0  0  0  0  0  0  0  0
   20.6042   13.9247   36.8659 C   0  0  1  0  0  0  0  0  0  0  0  0
   21.1325   12.4032   38.8266 C   0  0  2  0  0  0  0  0  0  0  0  0
   21.7063   11.0126   39.1152 C   0  0  0  0  0  0  0  0  0  0  0  0
   19.7114   12.4909   39.3365 C   0  0  2  0  0  0  0  0  0  0  0  0
   19.1154   13.8478   38.9658 C   0  0  1  0  0  0  0  0  0  0  0  0
   19.1422   14.0195   37.4270 C   0  0  1  0  0  0  0  0  0  0  0  0
  5  4  1  6  0  0  0
  5  8  1  0  0  0  0
  5 16  1  0  0  0  0
  8  7  1  6  0  0  0
  8 10  1  0  0  0  0
 10  1  1  6  0  0  0
 10 12  1  0  0  0  0
 11 18  1  0  0  0  0
 12 14  1  0  0  0  0
 14  2  1  1  0  0  0
 14 16  1  0  0  0  0
 16  9  1  1  0  0  0
 17  9  1  1  0  0  0
 17 11  1  0  0  0  0
 17 22  1  0  0  0  0
 18 19  1  6  0  0  0
 18 20  1  0  0  0  0
 19  3  1  0  0  0  0
 20 13  1  1  0  0  0
 20 21  1  0  0  0  0
 21 15  1  6  0  0  0
 21 22  1  0  0  0  0
 22  6  1  1  0  0  0
M  END
>  <CHROM.1>
81.93951084,73.06905675,164.47340546,21.88731715,14.46709474,37.55828072
-0.83294598,0.11623670,2.28263653

>  <Name>
2f4s_lig

>  <RI>
0

>  <Rbt.Current_Directory>
/home/itssahil/PROJECTS/Mol_Feturizer/New_Systems/rnas/2f4s

>  <Rbt.Executable>
rbdock ($Id: //depot/dev/client3/rdock/2013.1/src/exe/rbdock.cxx#4 $)

>  <Rbt.Library>
libRbt.so (2013.1, Build901 2013/11/27)

>  <Rbt.Parameter_File>
/export/apps/rDock/src/rDock_2013.1_src/data/scripts/dock_solv.prm

>  <Rbt.Receptor>
prm/pocket_docking_4.prm

>  <SCORE>
-13.9663

>  <SCORE.INTER>
-15.6274

>  <SCORE.INTER.CONST>
1

>  <SCORE.INTER.POLAR>
-0.979796

>  <SCORE.INTER.ROT>
3

>  <SCORE.INTER.SOLV>
16.5832

>  <SCORE.INTER.VDW>
-18.28

>  <SCORE.INTER.norm>
-0.710338

>  <SCORE.INTRA>
1.66112

>  <SCORE.INTRA.DIHEDRAL>
2.18751

>  <SCORE.INTRA.DIHEDRAL.0>
1.67653

>  <SCORE.INTRA.POLAR>
0

>  <SCORE.INTRA.POLAR.0>
0

>  <SCORE.INTRA.REPUL>
0

>  <SCORE.INTRA.REPUL.0>
0

>  <SCORE.INTRA.SOLV>
1.40722

>  <SCORE.INTRA.SOLV.lig_0>
-76.6701

>  <SCORE.INTRA.VDW>
-0.136247

>  <SCORE.INTRA.VDW.0>
-1.53273

>  <SCORE.INTRA.norm>
0.0755054

>  <SCORE.RESTR>
0

>  <SCORE.RESTR.CAVITY>
0

>  <SCORE.RESTR.norm>
0

>  <SCORE.SYSTEM>
0

>  <SCORE.SYSTEM.CONST>
0

>  <SCORE.SYSTEM.DIHEDRAL>
0

>  <SCORE.SYSTEM.SOLV>
0

>  <SCORE.SYSTEM.norm>
0

>  <SCORE.heavy>
22

>  <SCORE.norm>
-0.634833

>  <RMSD>
0.693

$$$$
2f4s_lig
 OpenBabel11021811433D
libRbt.so/2013.1/901 2013/11/27
 22 23  0  0  0  0  0  0  0  0999 V2000
   25.8770   17.3428   34.7181 N   0  0  0  0  0  0  0  0  0  0  0  0
   23.3735   15.5405   38.6755 N   0  0  0  0  0  0  0  0  0  0  0  0
   22.8973   11.4477   39.0323 N   0  0  0  0  0  0  0  0  0  0  0  0
   21.6137   14.9203   34.0377 O   0  0  0  0  0  0  0  0  0  0  0  0
   22.3316   15.7991   34.9516 C   0  0  2  0  0  0  0  0  0  0  0  0
   18.2154   15.1969   36.3729 N   0  0  0  0  0  0  0  0  0  0  0  0
   23.6478   16.7314   33.0915 O   0  0  0  0  0  0  0  0  0  0  0  0
   23.7415   16.1204   34.3837 C   0  0  1  0  0  0  0  0  0  0  0  0
   21.1712   14.9136   36.9209 O   0  0  0  0  0  0  0  0  0  0  0  0
   24.5089   17.0631   35.3026 C   0  0  1  0  0  0  0  0  0  0  0  0
   20.8598   12.6461   37.2466 O   0  0  0  0  0  0  0  0  0  0  0  0
   24.6445   16.4173   36.7231 C   0  0  0  0  0  0  0  0  0  0  0  0
   19.3196   12.8921   40.5712 O   0  0  0  0  0  0  0  0  0  0  0  0
   23.1984   16.1395   37.2877 C   0  0  1  0  0  0  0  0  0  0  0  0
   17.3888   14.1988   38.9357 O   0  0  0  0  0  0  0  0  0  0  0  0
   22.4643   15.1363   36.3795 C   0  0  2  0  0  0  0  0  0  0  0  0
   20.3380   13.8413   36.5177 C   0  0  1  0  0  0  0  0  0  0  0  0
   20.8215   12.7068   38.7352 C   0  0  2  0  0  0  0  0  0  0  0  0
   21.4214   11.4098   39.2867 C   0  0  0  0  0  0  0  0  0  0  0  0
   19.3771   12.8312   39.1659 C   0  0  2  0  0  0  0  0  0  0  0  0
   18.7598   14.0799   38.5386 C   0  0  1  0  0  0  0  0  0  0  0  0
   18.8503   13.9804   36.9959 C   0  0  1  0  0  0  0  0  0  0  0  0
  5  4  1  6  0  0  0
  5  8  1  0  0  0  0
  5 16  1  0  0  0  0
  8  7  1  6  0  0  0
  8 10  1  0  0  0  0
 10  1  1  6  0  0  0
 10 12  1  0  0  0  0
 11 18  1  0  0  0  0
 12 14  1  0  0  0  0
 14  2  1  1  0  0  0
 14 16  1  0  0  0  0
 16  9  1  1  0  0  0
 17  9  1  1  0  0  0
 17 11  1  0  0  0  0
 17 22  1  0  0  0  0
 18 19  1  1  0  0  0
 18 20  1  0  0  0  0
 19  3  1  0  0  0  0
 20 13  1  1  0  0  0
 20 21  1  0  0  0  0
 21 15  1  6  0  0  0
 21 22  1  0  0  0  0
 22  6  1  6  0  0  0
M  END
>  <CHROM.1>
77.45782532,79.36438616,71.33454342,21.55225535,14.59319074,36.99214658,-0.84973516
0.09710905,2.19350996

>  <Name>
2f4s_lig

>  <RI>
0

>  <Rbt.Current_Directory>
/home/itssahil/PROJECTS/Mol_Feturizer/New_Systems/rnas/2f4s

>  <Rbt.Executable>
rbdock ($Id: //depot/dev/client3/rdock/2013.1/src/exe/rbdock.cxx#4 $)

>  <Rbt.Library>
libRbt.so (2013.1, Build901 2013/11/27)

>  <Rbt.Parameter_File>
/export/apps/rDock/src/rDock_2013.1_src/data/scripts/dock_solv.prm

>  <Rbt.Receptor>
prm/pocket_docking_2.prm

>  <SCORE>
-13.1489

>  <SCORE.INTER>
-14.2496

>  <SCORE.INTER.CONST>
1

>  <SCORE.INTER.POLAR>
-1.20626

>  <SCORE.INTER.ROT>
3

>  <SCORE.INTER.SOLV>
19.0999

>  <SCORE.INTER.VDW>
-17.4455

>  <SCORE.INTER.norm>
-0.647711

>  <SCORE.INTRA>
1.10078

>  <SCORE.INTRA.DIHEDRAL>
1.97154

>  <SCORE.INTRA.DIHEDRAL.0>
1.67653

>  <SCORE.INTRA.POLAR>
0

>  <SCORE.INTRA.POLAR.0>
0

>  <SCORE.INTRA.REPUL>
0

>  <SCORE.INTRA.REPUL.0>
0

>  <SCORE.INTRA.SOLV>
0.644854

>  <SCORE.INTRA.SOLV.lig_0>
-76.6701

>  <SCORE.INTRA.VDW>
-0.207414

>  <SCORE.INTRA.VDW.0>
-1.53273

>  <SCORE.INTRA.norm>
0.0500356

>  <SCORE.RESTR>
0

>  <SCORE.RESTR.CAVITY>
0

>  <SCORE.RESTR.norm>
0

>  <SCORE.SYSTEM>
0

>  <SCORE.SYSTEM.CONST>
0

>  <SCORE.SYSTEM.DIHEDRAL>
0

>  <SCORE.SYSTEM.SOLV>
0

>  <SCORE.SYSTEM.norm>
0

>  <SCORE.heavy>
22

>  <SCORE.norm>
-0.597675

>  <RMSD>
0.694

$$$$
2f4s_lig
 OpenBabel11021811433D
libRbt.so/2013.1/901 2013/11/27
 22 23  0  0  0  0  0  0  0  0999 V2000
   26.3977   17.1380   35.6092 N   0  0  0  0  0  0  0  0  0  0  0  0
   23.5776   14.9561   39.1394 N   0  0  0  0  0  0  0  0  0  0  0  0
   21.5922   10.9859   40.5005 N   0  0  0  0  0  0  0  0  0  0  0  0
   21.8996   15.4237   34.4536 O   0  0  0  0  0  0  0  0  0  0  0  0
   22.6885   16.0239   35.5215 C   0  0  2  0  0  0  0  0  0  0  0  0
   18.4391   15.5269   36.8636 N   0  0  0  0  0  0  0  0  0  0  0  0
   24.1626   17.1155   33.8792 O   0  0  0  0  0  0  0  0  0  0  0  0
   24.1434   16.2695   35.0350 C   0  0  1  0  0  0  0  0  0  0  0  0
   21.3712   14.9388   37.2810 O   0  0  0  0  0  0  0  0  0  0  0  0
   24.9888   16.9249   36.1202 C   0  0  1  0  0  0  0  0  0  0  0  0
   20.8910   12.6778   37.2305 O   0  0  0  0  0  0  0  0  0  0  0  0
   25.0030   16.0161   37.3957 C   0  0  0  0  0  0  0  0  0  0  0  0
   19.4167   12.4717   40.5875 O   0  0  0  0  0  0  0  0  0  0  0  0
   23.5176   15.8180   37.8868 C   0  0  1  0  0  0  0  0  0  0  0  0
   17.5711   14.1739   39.2434 O   0  0  0  0  0  0  0  0  0  0  0  0
   22.6976   15.0975   36.8011 C   0  0  2  0  0  0  0  0  0  0  0  0
   20.4532   14.0141   36.7253 C   0  0  1  0  0  0  0  0  0  0  0  0
   20.8765   12.4891   38.7087 C   0  0  2  0  0  0  0  0  0  0  0  0
   21.3820   11.0771   39.0199 C   0  0  0  0  0  0  0  0  0  0  0  0
   19.4515   12.6448   39.1907 C   0  0  2  0  0  0  0  0  0  0  0  0
   18.9238   14.0234   38.7973 C   0  0  1  0  0  0  0  0  0  0  0  0
   18.9868   14.1793   37.2578 C   0  0  1  0  0  0  0  0  0  0  0  0
  5  4  1  6  0  0  0
  5  8  1  0  0  0  0
  5 16  1  0  0  0  0
  8  7  1  6  0  0  0
  8 10  1  0  0  0  0
 10  1  1  6  0  0  0
 10 12  1  0  0  0  0
 11 18  1  0  0  0  0
 12 14  1  0  0  0  0
 14  2  1  1  0  0  0
 14 16  1  0  0  0  0
 16  9  1  1  0  0  0
 17  9  1  1  0  0  0
 17 11  1  0  0  0  0
 17 22  1  0  0  0  0
 18 19  1  6  0  0  0
 18 20  1  0  0  0  0
 19  3  1  0  0  0  0
 20 13  1  1  0  0  0
 20 21  1  0  0  0  0
 21 15  1  6  0  0  0
 21 22  1  0  0  0  0
 22  6  1  1  0  0  0
M  END
>  <CHROM.1>
81.18167776,75.51997352,170.14447832,21.71623472,14.53520604,37.41547321
-0.81237220,0.09731652,2.27739127

>  <Name>
2f4s_lig

>  <RI>
0

>  <Rbt.Current_Directory>
/home/itssahil/PROJECTS/Mol_Feturizer/New_Systems/rnas/2f4s

>  <Rbt.Executable>
rbdock ($Id: //depot/dev/client3/rdock/2013.1/src/exe/rbdock.cxx#4 $)

>  <Rbt.Library>
libRbt.so (2013.1, Build901 2013/11/27)

>  <Rbt.Parameter_File>
/export/apps/rDock/src/rDock_2013.1_src/data/scripts/dock_solv.prm

>  <Rbt.Receptor>
prm/pocket_docking_2.prm

>  <SCORE>
-13.1755

>  <SCORE.INTER>
-14.9624

>  <SCORE.INTER.CONST>
1

>  <SCORE.INTER.POLAR>
-0.979796

>  <SCORE.INTER.ROT>
3

>  <SCORE.INTER.SOLV>
17.371

>  <SCORE.INTER.VDW>
-18.0993

>  <SCORE.INTER.norm>
-0.68011

>  <SCORE.INTRA>
1.78291

>  <SCORE.INTRA.DIHEDRAL>
1.88629

>  <SCORE.INTRA.DIHEDRAL.0>
1.67653

>  <SCORE.INTRA.POLAR>
0

>  <SCORE.INTRA.POLAR.0>
0

>  <SCORE.INTRA.REPUL>
0

>  <SCORE.INTRA.REPUL.0>
0

>  <SCORE.INTRA.SOLV>
1.5746

>  <SCORE.INTRA.SOLV.lig_0>
-76.6701

>  <SCORE.INTRA.VDW>
0.0524618

>  <SCORE.INTRA.VDW.0>
-1.53273

>  <SCORE.INTRA.norm>
0.0810412

>  <SCORE.RESTR>
0.0040242

>  <SCORE.RESTR.CAVITY>
0.0040242

>  <SCORE.RESTR.norm>
0.000182918

>  <SCORE.SYSTEM>
0

>  <SCORE.SYSTEM.CONST>
0

>  <SCORE.SYSTEM.DIHEDRAL>
0

>  <SCORE.SYSTEM.SOLV>
0

>  <SCORE.SYSTEM.norm>
0

>  <SCORE.heavy>
22

>  <SCORE.norm>
-0.598886

>  <RMSD>
0.700

$$$$
2f4s_lig
 OpenBabel11021811433D
libRbt.so/2013.1/901 2013/11/27
 22 23  0  0  0  0  0  0  0  0999 V2000
   25.8639   17.3424   34.7155 N   0  0  0  0  0  0  0  0  0  0  0  0
   23.3748   15.5218   38.6735 N   0  0  0  0  0  0  0  0  0  0  0  0
   22.8940   11.4406   39.0475 N   0  0  0  0  0  0  0  0  0  0  0  0
   21.6009   14.9183   34.0389 O   0  0  0  0  0  0  0  0  0  0  0  0
   22.3208   15.7942   34.9540 C   0  0  2  0  0  0  0  0  0  0  0  0
   18.2122   15.1805   36.3717 N   0  0  0  0  0  0  0  0  0  0  0  0
   23.6301   16.7352   33.0935 O   0  0  0  0  0  0  0  0  0  0  0  0
   23.7286   16.1192   34.3830 C   0  0  1  0  0  0  0  0  0  0  0  0
   21.1675   14.8997   36.9235 O   0  0  0  0  0  0  0  0  0  0  0  0
   24.4979   17.0590   35.3032 C   0  0  1  0  0  0  0  0  0  0  0  0
   20.8570   12.6324   37.2522 O   0  0  0  0  0  0  0  0  0  0  0  0
   24.6387   16.4077   36.7206 C   0  0  0  0  0  0  0  0  0  0  0  0
   19.3129   12.8825   40.5746 O   0  0  0  0  0  0  0  0  0  0  0  0
   23.1947   16.1261   37.2887 C   0  0  1  0  0  0  0  0  0  0  0  0
   17.3832   14.1858   38.9350 O   0  0  0  0  0  0  0  0  0  0  0  0
   22.4587   15.1259   36.3789 C   0  0  2  0  0  0  0  0  0  0  0  0
   20.3354   13.8263   36.5209 C   0  0  1  0  0  0  0  0  0  0  0  0
   20.8170   12.6954   38.7406 C   0  0  2  0  0  0  0  0  0  0  0  0
   21.4169   11.3995   39.2948 C   0  0  0  0  0  0  0  0  0  0  0  0
   19.3721   12.8196   39.1695 C   0  0  2  0  0  0  0  0  0  0  0  0
   18.7548   14.0670   38.5397 C   0  0  1  0  0  0  0  0  0  0  0  0
   18.8471   13.9652   36.9972 C   0  0  1  0  0  0  0  0  0  0  0  0
  5  4  1  6  0  0  0
  5  8  1  0  0  0  0
  5 16  1  0  0  0  0
  8  7  1  6  0  0  0
  8 10  1  0  0  0  0
 10  1  1  6  0  0  0
 10 12  1  0  0  0  0
 11 18  1  0  0  0  0
 12 14  1  0  0  0  0
 14  2  1  1  0  0  0
 14 16  1  0  0  0  0
 16  9  1  1  0  0  0
 17  9  1  1  0  0  0
 17 11  1  0  0  0  0
 17 22  1  0  0  0  0
 18 19  1  1  0  0  0
 18 20  1  0  0  0  0
 19  3  1  0  0  0  0
 20 13  1  1  0  0  0
 20 21  1  0  0  0  0
 21 15  1  6  0  0  0
 21 22  1  0  0  0  0
 22  6  1  6  0  0  0
M  END
>  <CHROM.1>
77.61014394,79.65942861,71.58447350,21.54571107,14.58366759,36.99428201,-0.85185659
0.09841619,2.19374229

>  <Name>
2f4s_lig

>  <RI>
0

>  <Rbt.Current_Directory>
/home/itssahil/PROJECTS/Mol_Feturizer/New_Systems/rnas/2f4s

>  <Rbt.Executable>
rbdock ($Id: //depot/dev/client3/rdock/2013.1/src/exe/rbdock.cxx#4 $)

>  <Rbt.Library>
libRbt.so (2013.1, Build901 2013/11/27)

>  <Rbt.Parameter_File>
/export/apps/rDock/src/rDock_2013.1_src/data/scripts/dock_solv.prm

>  <Rbt.Receptor>
prm/pocket_docking_2.prm

>  <SCORE>
-13.1499

>  <SCORE.INTER>
-14.3021

>  <SCORE.INTER.CONST>
1

>  <SCORE.INTER.POLAR>
-1.20348

>  <SCORE.INTER.ROT>
3

>  <SCORE.INTER.SOLV>
19.08

>  <SCORE.INTER.VDW>
-17.4832

>  <SCORE.INTER.norm>
-0.650097

>  <SCORE.INTRA>
1.15222

>  <SCORE.INTRA.DIHEDRAL>
2.05959

>  <SCORE.INTRA.DIHEDRAL.0>
1.67653

>  <SCORE.INTRA.POLAR>
0

>  <SCORE.INTRA.POLAR.0>
0

>  <SCORE.INTRA.REPUL>
0

>  <SCORE.INTRA.REPUL.0>
0

>  <SCORE.INTRA.SOLV>
0.668109

>  <SCORE.INTRA.SOLV.lig_0>
-76.6701

>  <SCORE.INTRA.VDW>
-0.211631

>  <SCORE.INTRA.VDW.0>
-1.53273

>  <SCORE.INTRA.norm>
0.0523735

>  <SCORE.RESTR>
0

>  <SCORE.RESTR.CAVITY>
0

>  <SCORE.RESTR.norm>
0

>  <SCORE.SYSTEM>
0

>  <SCORE.SYSTEM.CONST>
0

>  <SCORE.SYSTEM.DIHEDRAL>
0

>  <SCORE.SYSTEM.SOLV>
0

>  <SCORE.SYSTEM.norm>
0

>  <SCORE.heavy>
22

>  <SCORE.norm>
-0.597724

>  <RMSD>
0.702

$$$$
2f4s_lig
 OpenBabel11021811433D
libRbt.so/2013.1/901 2013/11/27
 22 23  0  0  0  0  0  0  0  0999 V2000
   25.8567   17.3228   34.7061 N   0  0  0  0  0  0  0  0  0  0  0  0
   23.3363   15.5665   38.6734 N   0  0  0  0  0  0  0  0  0  0  0  0
   22.8532   11.4556   39.0138 N   0  0  0  0  0  0  0  0  0  0  0  0
   21.5850   14.9121   34.0371 O   0  0  0  0  0  0  0  0  0  0  0  0
   22.3043   15.7960   34.9448 C   0  0  2  0  0  0  0  0  0  0  0  0
   18.1790   15.2269   36.3809 N   0  0  0  0  0  0  0  0  0  0  0  0
   23.6289   16.7062   33.0796 O   0  0  0  0  0  0  0  0  0  0  0  0
   23.7169   16.1064   34.3775 C   0  0  1  0  0  0  0  0  0  0  0  0
   21.1356   14.9331   36.9191 O   0  0  0  0  0  0  0  0  0  0  0  0
   24.4860   17.0541   35.2898 C   0  0  1  0  0  0  0  0  0  0  0  0
   20.8167   12.6671   37.2485 O   0  0  0  0  0  0  0  0  0  0  0  0
   24.6156   16.4205   36.7163 C   0  0  0  0  0  0  0  0  0  0  0  0
   19.2889   12.9228   40.5781 O   0  0  0  0  0  0  0  0  0  0  0  0
   23.1670   16.1537   37.2798 C   0  0  1  0  0  0  0  0  0  0  0  0
   17.3574   14.2349   38.9477 O   0  0  0  0  0  0  0  0  0  0  0  0
   22.4308   15.1455   36.3789 C   0  0  2  0  0  0  0  0  0  0  0  0
   20.2969   13.8635   36.5200 C   0  0  1  0  0  0  0  0  0  0  0  0
   20.7838   12.7297   38.7371 C   0  0  2  0  0  0  0  0  0  0  0  0
   21.3806   11.4310   39.2881 C   0  0  0  0  0  0  0  0  0  0  0  0
   19.3413   12.8600   39.1726 C   0  0  2  0  0  0  0  0  0  0  0  0
   18.7266   14.1104   38.5461 C   0  0  1  0  0  0  0  0  0  0  0  0
   18.8114   14.0087   37.0032 C   0  0  1  0  0  0  0  0  0  0  0  0
  5  4  1  6  0  0  0
  5  8  1  0  0  0  0
  5 16  1  0  0  0  0
  8  7  1  6  0  0  0
  8 10  1  0  0  0  0
 10  1  1  6  0  0  0
 10 12  1  0  0  0  0
 11 18  1  0  0  0  0
 12 14  1  0  0  0  0
 14  2  1  1  0  0  0
 14 16  1  0  0  0  0
 16  9  1  1  0  0  0
 17  9  1  1  0  0  0
 17 11  1  0  0  0  0
 17 22  1  0  0  0  0
 18 19  1  1  0  0  0
 18 20  1  0  0  0  0
 19  3  1  0  0  0  0
 20 13  1  1  0  0  0
 20 21  1  0  0  0  0
 21 15  1  6  0  0  0
 21 22  1  0  0  0  0
 22  6  1  6  0  0  0
M  END
>  <CHROM.1>
77.22277985,78.96987935,70.65952917,21.51946115,14.60552472,36.99076540,-0.84663333
0.09142117,2.19036521

>  <Name>
2f4s_lig

>  <RI>
0

>  <Rbt.Current_Directory>
/home/itssahil/PROJECTS/Mol_Feturizer/New_Systems/rnas/2f4s

>  <Rbt.Executable>
rbdock ($Id: //depot/dev/client3/rdock/2013.1/src/exe/rbdock.cxx#4 $)

>  <Rbt.Library>
libRbt.so (2013.1, Build901 2013/11/27)

>  <Rbt.Parameter_File>
/export/apps/rDock/src/rDock_2013.1_src/data/scripts/dock_solv.prm

>  <Rbt.Receptor>
prm/pocket_docking_2.prm

>  <SCORE>
-13.1348

>  <SCORE.INTER>
-14.1516

>  <SCORE.INTER.CONST>
1

>  <SCORE.INTER.POLAR>
-1.20341

>  <SCORE.INTER.ROT>
3

>  <SCORE.INTER.SOLV>
19.0037

>  <SCORE.INTER.VDW>
-17.3576

>  <SCORE.INTER.norm>
-0.643255

>  <SCORE.INTRA>
1.01686

>  <SCORE.INTRA.DIHEDRAL>
1.8253

>  <SCORE.INTRA.DIHEDRAL.0>
1.67653

>  <SCORE.INTRA.POLAR>
0

>  <SCORE.INTRA.POLAR.0>
0

>  <SCORE.INTRA.REPUL>
0

>  <SCORE.INTRA.REPUL.0>
0

>  <SCORE.INTRA.SOLV>
0.60909

>  <SCORE.INTRA.SOLV.lig_0>
-76.6701

>  <SCORE.INTRA.VDW>
-0.200338

>  <SCORE.INTRA.VDW.0>
-1.53273

>  <SCORE.INTRA.norm>
0.0462208

>  <SCORE.RESTR>
0

>  <SCORE.RESTR.CAVITY>
0

>  <SCORE.RESTR.norm>
0

>  <SCORE.SYSTEM>
0

>  <SCORE.SYSTEM.CONST>
0

>  <SCORE.SYSTEM.DIHEDRAL>
0

>  <SCORE.SYSTEM.SOLV>
0

>  <SCORE.SYSTEM.norm>
0

>  <SCORE.heavy>
22

>  <SCORE.norm>
-0.597034

>  <RMSD>
0.705

$$$$
2f4s_lig
 OpenBabel11021811433D
libRbt.so/2013.1/901 2013/11/27
 22 23  0  0  0  0  0  0  0  0999 V2000
   26.5118   17.1737   35.7886 N   0  0  0  0  0  0  0  0  0  0  0  0
   23.7240   14.9339   39.3082 N   0  0  0  0  0  0  0  0  0  0  0  0
   22.0976   10.9318   40.5820 N   0  0  0  0  0  0  0  0  0  0  0  0
   22.0616   15.3517   34.6122 O   0  0  0  0  0  0  0  0  0  0  0  0
   22.8303   15.9726   35.6830 C   0  0  2  0  0  0  0  0  0  0  0  0
   18.5681   15.3311   37.0786 N   0  0  0  0  0  0  0  0  0  0  0  0
   24.2875   17.0949   34.0464 O   0  0  0  0  0  0  0  0  0  0  0  0
   24.2816   16.2511   35.2039 C   0  0  1  0  0  0  0  0  0  0  0  0
   21.5290   14.8607   37.4377 O   0  0  0  0  0  0  0  0  0  0  0  0
   25.1054   16.9286   36.2923 C   0  0  1  0  0  0  0  0  0  0  0  0
   21.1418   12.5825   37.3689 O   0  0  0  0  0  0  0  0  0  0  0  0
   25.1339   16.0233   37.5699 C   0  0  0  0  0  0  0  0  0  0  0  0
   19.7378   12.2780   40.7484 O   0  0  0  0  0  0  0  0  0  0  0  0
   23.6508   15.7914   38.0533 C   0  0  1  0  0  0  0  0  0  0  0  0
   17.7996   13.9170   39.4571 O   0  0  0  0  0  0  0  0  0  0  0  0
   22.8540   15.0495   36.9648 C   0  0  2  0  0  0  0  0  0  0  0  0
   20.6402   13.9049   36.8873 C   0  0  1  0  0  0  0  0  0  0  0  0
   21.1616   12.3769   38.8448 C   0  0  2  0  0  0  0  0  0  0  0  0
   21.7306   10.9837   39.1304 C   0  0  0  0  0  0  0  0  0  0  0  0
   19.7403   12.4679   39.3535 C   0  0  2  0  0  0  0  0  0  0  0  0
   19.1492   13.8277   38.9856 C   0  0  1  0  0  0  0  0  0  0  0  0
   19.1780   14.0031   37.4473 C   0  0  1  0  0  0  0  0  0  0  0  0
  5  4  1  6  0  0  0
  5  8  1  0  0  0  0
  5 16  1  0  0  0  0
  8  7  1  6  0  0  0
  8 10  1  0  0  0  0
 10  1  1  6  0  0  0
 10 12  1  0  0  0  0
 11 18  1  0  0  0  0
 12 14  1  0  0  0  0
 14  2  1  1  0  0  0
 14 16  1  0  0  0  0
 16  9  1  1  0  0  0
 17  9  1  1  0  0  0
 17 11  1  0  0  0  0
 17 22  1  0  0  0  0
 18 19  1  6  0  0  0
 18 20  1  0  0  0  0
 19  3  1  0  0  0  0
 20 13  1  1  0  0  0
 20 21  1  0  0  0  0
 21 15  1  6  0  0  0
 21 22  1  0  0  0  0
 22  6  1  1  0  0  0
M  END
>  <CHROM.1>
81.78493094,73.40270967,164.63319885,21.92071713,14.44545107,37.57891535
-0.83313295,0.11472339,2.28567600

>  <Name>
2f4s_lig

>  <RI>
0

>  <Rbt.Current_Directory>
/home/itssahil/PROJECTS/Mol_Feturizer/New_Systems/rnas/2f4s

>  <Rbt.Executable>
rbdock ($Id: //depot/dev/client3/rdock/2013.1/src/exe/rbdock.cxx#4 $)

>  <Rbt.Library>
libRbt.so (2013.1, Build901 2013/11/27)

>  <Rbt.Parameter_File>
/export/apps/rDock/src/rDock_2013.1_src/data/scripts/dock_solv.prm

>  <Rbt.Receptor>
prm/pocket_docking_4.prm

>  <SCORE>
-13.9727

>  <SCORE.INTER>
-15.6407

>  <SCORE.INTER.CONST>
1

>  <SCORE.INTER.POLAR>
-0.979796

>  <SCORE.INTER.ROT>
3

>  <SCORE.INTER.SOLV>
16.7379

>  <SCORE.INTER.VDW>
-18.3404

>  <SCORE.INTER.norm>
-0.71094

>  <SCORE.INTRA>
1.66796

>  <SCORE.INTRA.DIHEDRAL>
2.18423

>  <SCORE.INTRA.DIHEDRAL.0>
1.67653

>  <SCORE.INTRA.POLAR>
0

>  <SCORE.INTRA.POLAR.0>
0

>  <SCORE.INTRA.REPUL>
0

>  <SCORE.INTRA.REPUL.0>
0

>  <SCORE.INTRA.SOLV>
1.41152

>  <SCORE.INTRA.SOLV.lig_0>
-76.6701

>  <SCORE.INTRA.VDW>
-0.129916

>  <SCORE.INTRA.VDW.0>
-1.53273

>  <SCORE.INTRA.norm>
0.0758162

>  <SCORE.RESTR>
0

>  <SCORE.RESTR.CAVITY>
0

>  <SCORE.RESTR.norm>
0

>  <SCORE.SYSTEM>
0

>  <SCORE.SYSTEM.CONST>
0

>  <SCORE.SYSTEM.DIHEDRAL>
0

>  <SCORE.SYSTEM.SOLV>
0

>  <SCORE.SYSTEM.norm>
0

>  <SCORE.heavy>
22

>  <SCORE.norm>
-0.635124

>  <RMSD>
0.713

$$$$
2f4s_lig
 OpenBabel11021811433D
libRbt.so/2013.1/901 2013/11/27
 22 23  0  0  0  0  0  0  0  0999 V2000
   25.9187   17.3553   34.7393 N   0  0  0  0  0  0  0  0  0  0  0  0
   23.3695   15.5348   38.6588 N   0  0  0  0  0  0  0  0  0  0  0  0
   22.8549   11.4580   39.0309 N   0  0  0  0  0  0  0  0  0  0  0  0
   21.6552   14.9506   33.9993 O   0  0  0  0  0  0  0  0  0  0  0  0
   22.3664   15.8211   34.9263 C   0  0  2  0  0  0  0  0  0  0  0  0
   18.2392   15.2236   36.2766 N   0  0  0  0  0  0  0  0  0  0  0  0
   23.7044   16.7616   33.0860 O   0  0  0  0  0  0  0  0  0  0  0  0
   23.7830   16.1418   34.3750 C   0  0  1  0  0  0  0  0  0  0  0  0
   21.1833   14.9263   36.8777 O   0  0  0  0  0  0  0  0  0  0  0  0
   24.5438   17.0760   35.3079 C   0  0  1  0  0  0  0  0  0  0  0  0
   20.8548   12.6607   37.2006 O   0  0  0  0  0  0  0  0  0  0  0  0
   24.6630   16.4205   36.7253 C   0  0  0  0  0  0  0  0  0  0  0  0
   19.2566   12.9187   40.4968 O   0  0  0  0  0  0  0  0  0  0  0  0
   23.2104   16.1434   37.2733 C   0  0  1  0  0  0  0  0  0  0  0  0
   17.3619   14.2329   38.8255 O   0  0  0  0  0  0  0  0  0  0  0  0
   22.4825   15.1485   36.3511 C   0  0  2  0  0  0  0  0  0  0  0  0
   20.3521   13.8577   36.4610 C   0  0  1  0  0  0  0  0  0  0  0  0
   20.7902   12.7236   38.6881 C   0  0  2  0  0  0  0  0  0  0  0  0
   21.3736   11.4243   39.2519 C   0  0  0  0  0  0  0  0  0  0  0  0
   19.3390   12.8557   39.0928 C   0  0  2  0  0  0  0  0  0  0  0  0
   18.7392   14.1067   38.4531 C   0  0  1  0  0  0  0  0  0  0  0  0
   18.8568   14.0047   36.9124 C   0  0  1  0  0  0  0  0  0  0  0  0
  5  4  1  6  0  0  0
  5  8  1  0  0  0  0
  5 16  1  0  0  0  0
  8  7  1  6  0  0  0
  8 10  1  0  0  0  0
 10  1  1  6  0  0  0
 10 12  1  0  0  0  0
 11 18  1  0  0  0  0
 12 14  1  0  0  0  0
 14  2  1  1  0  0  0
 14 16  1  0  0  0  0
 16  9  1  1  0  0  0
 17  9  1  1  0  0  0
 17 11  1  0  0  0  0
 17 22  1  0  0  0  0
 18 19  1  1  0  0  0
 18 20  1  0  0  0  0
 19  3  1  0  0  0  0
 20 13  1  1  0  0  0
 20 21  1  0  0  0  0
 21 15  1  6  0  0  0
 21 22  1  0  0  0  0
 22  6  1  6  0  0  0
M  END
>  <CHROM.1>
77.59309853,79.91893031,71.65161419,21.55558529,14.61123363,36.95256950,-0.83740382
0.10377838,2.19339283

>  <Name>
2f4s_lig

>  <RI>
0

>  <Rbt.Current_Directory>
/home/itssahil/PROJECTS/Mol_Feturizer/New_Systems/rnas/2f4s

>  <Rbt.Executable>
rbdock ($Id: //depot/dev/client3/rdock/2013.1/src/exe/rbdock.cxx#4 $)

>  <Rbt.Library>
libRbt.so (2013.1, Build901 2013/11/27)

>  <Rbt.Parameter_File>
/export/apps/rDock/src/rDock_2013.1_src/data/scripts/dock_solv.prm

>  <Rbt.Receptor>
prm/pocket_docking_5.prm

>  <SCORE>
-13.1522

>  <SCORE.INTER>
-14.3279

>  <SCORE.INTER.CONST>
1

>  <SCORE.INTER.POLAR>
-1.23734

>  <SCORE.INTER.ROT>
3

>  <SCORE.INTER.SOLV>
18.9684

>  <SCORE.INTER.VDW>
-17.3502

>  <SCORE.INTER.norm>
-0.651267

>  <SCORE.INTRA>
1.17571

>  <SCORE.INTRA.DIHEDRAL>
2.10308

>  <SCORE.INTRA.DIHEDRAL.0>
1.67653

>  <SCORE.INTRA.POLAR>
0

>  <SCORE.INTRA.POLAR.0>
0

>  <SCORE.INTRA.REPUL>
0

>  <SCORE.INTRA.REPUL.0>
0

>  <SCORE.INTRA.SOLV>
0.671148

>  <SCORE.INTRA.SOLV.lig_0>
-76.6701

>  <SCORE.INTRA.VDW>
-0.211408

>  <SCORE.INTRA.VDW.0>
-1.53273

>  <SCORE.INTRA.norm>
0.0534412

>  <SCORE.RESTR>
0

>  <SCORE.RESTR.CAVITY>
0

>  <SCORE.RESTR.norm>
0

>  <SCORE.SYSTEM>
0

>  <SCORE.SYSTEM.CONST>
0

>  <SCORE.SYSTEM.DIHEDRAL>
0

>  <SCORE.SYSTEM.SOLV>
0

>  <SCORE.SYSTEM.norm>
0

>  <SCORE.heavy>
22

>  <SCORE.norm>
-0.597825

>  <RMSD>
0.715

$$$$
2f4s_lig
 OpenBabel11021811433D
libRbt.so/2013.1/901 2013/11/27
 22 23  0  0  0  0  0  0  0  0999 V2000
   26.5294   17.1539   35.8332 N   0  0  0  0  0  0  0  0  0  0  0  0
   23.7138   14.8989   39.3208 N   0  0  0  0  0  0  0  0  0  0  0  0
   22.0966   10.9201   40.5535 N   0  0  0  0  0  0  0  0  0  0  0  0
   22.0635   15.3904   34.6276 O   0  0  0  0  0  0  0  0  0  0  0  0
   22.8364   15.9905   35.7071 C   0  0  2  0  0  0  0  0  0  0  0  0
   18.5618   15.3557   37.0962 N   0  0  0  0  0  0  0  0  0  0  0  0
   24.3074   17.1183   34.0866 O   0  0  0  0  0  0  0  0  0  0  0  0
   24.2913   16.2606   35.2338 C   0  0  1  0  0  0  0  0  0  0  0  0
   21.5214   14.8702   37.4461 O   0  0  0  0  0  0  0  0  0  0  0  0
   25.1198   16.9166   36.3316 C   0  0  1  0  0  0  0  0  0  0  0  0
   21.1246   12.5942   37.3597 O   0  0  0  0  0  0  0  0  0  0  0  0
   25.1373   15.9955   37.5982 C   0  0  0  0  0  0  0  0  0  0  0  0
   19.7254   12.2684   40.7393 O   0  0  0  0  0  0  0  0  0  0  0  0
   23.6511   15.7724   38.0764 C   0  0  1  0  0  0  0  0  0  0  0  0
   17.7917   13.9257   39.4647 O   0  0  0  0  0  0  0  0  0  0  0  0
   22.8489   15.0517   36.9777 C   0  0  2  0  0  0  0  0  0  0  0  0
   20.6276   13.9225   36.8897 C   0  0  1  0  0  0  0  0  0  0  0  0
   21.1462   12.3767   38.8339 C   0  0  2  0  0  0  0  0  0  0  0  0
   21.7099   10.9790   39.1073 C   0  0  0  0  0  0  0  0  0  0  0  0
   19.7262   12.4695   39.3459 C   0  0  2  0  0  0  0  0  0  0  0  0
   19.1400   13.8346   38.9900 C   0  0  1  0  0  0  0  0  0  0  0  0
   19.1668   14.0223   37.4531 C   0  0  1  0  0  0  0  0  0  0  0  0
  5  4  1  6  0  0  0
  5  8  1  0  0  0  0
  5 16  1  0  0  0  0
  8  7  1  6  0  0  0
  8 10  1  0  0  0  0
 10  1  1  6  0  0  0
 10 12  1  0  0  0  0
 11 18  1  0  0  0  0
 12 14  1  0  0  0  0
 14  2  1  1  0  0  0
 14 16  1  0  0  0  0
 16  9  1  1  0  0  0
 17  9  1  1  0  0  0
 17 11  1  0  0  0  0
 17 22  1  0  0  0  0
 18 19  1  6  0  0  0
 18 20  1  0  0  0  0
 19  3  1  0  0  0  0
 20 13  1  1  0  0  0
 20 21  1  0  0  0  0
 21 15  1  6  0  0  0
 21 22  1  0  0  0  0
 22  6  1  1  0  0  0
M  END
>  <CHROM.1>
82.30774326,73.00767958,163.87873184,21.91717870,14.44818481,37.58916992
-0.82776554,0.10939468,2.29420067

>  <Name>
2f4s_lig

>  <RI>
2.46955e+07

>  <Rbt.Current_Directory>
/home/itssahil/PROJECTS/Mol_Feturizer/New_Systems/rnas/2f4s

>  <Rbt.Executable>
rbdock ($Id: //depot/dev/client3/rdock/2013.1/src/exe/rbdock.cxx#4 $)

>  <Rbt.Library>
libRbt.so (2013.1, Build901 2013/11/27)

>  <Rbt.Parameter_File>
/export/apps/rDock/src/rDock_2013.1_src/data/scripts/dock_solv.prm

>  <Rbt.Receptor>
prm/pocket_docking_3.prm

>  <SCORE>
-13.9404

>  <SCORE.INTER>
-15.6426

>  <SCORE.INTER.CONST>
1

>  <SCORE.INTER.POLAR>
-0.979796

>  <SCORE.INTER.ROT>
3

>  <SCORE.INTER.SOLV>
16.7263

>  <SCORE.INTER.VDW>
-18.3378

>  <SCORE.INTER.norm>
-0.711027

>  <SCORE.INTRA>
1.70215

>  <SCORE.INTRA.DIHEDRAL>
2.30356

>  <SCORE.INTRA.DIHEDRAL.0>
1.67653

>  <SCORE.INTRA.POLAR>
0

>  <SCORE.INTRA.POLAR.0>
0

>  <SCORE.INTRA.REPUL>
0

>  <SCORE.INTRA.REPUL.0>
0

>  <SCORE.INTRA.SOLV>
1.41277

>  <SCORE.INTRA.SOLV.lig_0>
-76.6701

>  <SCORE.INTRA.VDW>
-0.156017

>  <SCORE.INTRA.VDW.0>
-1.53273

>  <SCORE.INTRA.norm>
0.0773703

>  <SCORE.RESTR>
0

>  <SCORE.RESTR.CAVITY>
0

>  <SCORE.RESTR.norm>
0

>  <SCORE.SYSTEM>
0

>  <SCORE.SYSTEM.CONST>
0

>  <SCORE.SYSTEM.DIHEDRAL>
0

>  <SCORE.SYSTEM.SOLV>
0

>  <SCORE.SYSTEM.norm>
0

>  <SCORE.heavy>
22

>  <SCORE.norm>
-0.633656

>  <RMSD>
0.717

$$$$
2f4s_lig
 OpenBabel11021811433D
libRbt.so/2013.1/901 2013/11/27
 22 23  0  0  0  0  0  0  0  0999 V2000
   25.8648   17.2861   34.7336 N   0  0  0  0  0  0  0  0  0  0  0  0
   23.3042   15.5203   38.6708 N   0  0  0  0  0  0  0  0  0  0  0  0
   22.8078   11.4472   39.0097 N   0  0  0  0  0  0  0  0  0  0  0  0
   21.5609   14.9462   34.0209 O   0  0  0  0  0  0  0  0  0  0  0  0
   22.2897   15.8088   34.9415 C   0  0  2  0  0  0  0  0  0  0  0  0
   18.1446   15.2754   36.3875 N   0  0  0  0  0  0  0  0  0  0  0  0
   23.6343   16.7214   33.0920 O   0  0  0  0  0  0  0  0  0  0  0  0
   23.7088   16.1051   34.3830 C   0  0  1  0  0  0  0  0  0  0  0  0
   21.1011   14.9399   36.9013 O   0  0  0  0  0  0  0  0  0  0  0  0
   24.4882   17.0306   35.3092 C   0  0  1  0  0  0  0  0  0  0  0  0
   20.7600   12.6714   37.1891 O   0  0  0  0  0  0  0  0  0  0  0  0
   24.6031   16.3785   36.7285 C   0  0  0  0  0  0  0  0  0  0  0  0
   19.2553   12.8790   40.5325 O   0  0  0  0  0  0  0  0  0  0  0  0
   23.1488   16.1263   37.2837 C   0  0  1  0  0  0  0  0  0  0  0  0
   17.3281   14.2427   38.9399 O   0  0  0  0  0  0  0  0  0  0  0  0
   22.4013   15.1397   36.3683 C   0  0  2  0  0  0  0  0  0  0  0  0
   20.2486   13.8871   36.4870 C   0  0  1  0  0  0  0  0  0  0  0  0
   20.7368   12.7056   38.6788 C   0  0  2  0  0  0  0  0  0  0  0  0
   21.3230   11.3904   39.2010 C   0  0  0  0  0  0  0  0  0  0  0  0
   19.2985   12.8428   39.1258 C   0  0  2  0  0  0  0  0  0  0  0  0
   18.6934   14.1115   38.5273 C   0  0  1  0  0  0  0  0  0  0  0  0
   18.7677   14.0387   36.9822 C   0  0  1  0  0  0  0  0  0  0  0  0
  5  4  1  6  0  0  0
  5  8  1  0  0  0  0
  5 16  1  0  0  0  0
  8  7  1  6  0  0  0
  8 10  1  0  0  0  0
 10  1  1  6  0  0  0
 10 12  1  0  0  0  0
 11 18  1  0  0  0  0
 12 14  1  0  0  0  0
 14  2  1  1  0  0  0
 14 16  1  0  0  0  0
 16  9  1  1  0  0  0
 17  9  1  1  0  0  0
 17 11  1  0  0  0  0
 17 22  1  0  0  0  0
 18 19  1  1  0  0  0
 18 20  1  0  0  0  0
 19  3  1  0  0  0  0
 20 13  1  1  0  0  0
 20 21  1  0  0  0  0
 21 15  1  6  0  0  0
 21 22  1  0  0  0  0
 22  6  1  6  0  0  0
M  END
>  <CHROM.1>
77.24851152,78.21262068,74.76038308,21.49080804,14.59979704,36.97485852,-0.83896643
0.08348066,2.20111183

>  <Name>
2f4s_lig

>  <RI>
0

>  <Rbt.Current_Directory>
/home/itssahil/PROJECTS/Mol_Feturizer/New_Systems/rnas/2f4s

>  <Rbt.Executable>
rbdock ($Id: //depot/dev/client3/rdock/2013.1/src/exe/rbdock.cxx#4 $)

>  <Rbt.Library>
libRbt.so (2013.1, Build901 2013/11/27)

>  <Rbt.Parameter_File>
/export/apps/rDock/src/rDock_2013.1_src/data/scripts/dock_solv.prm

>  <Rbt.Receptor>
prm/pocket_docking_2.prm

>  <SCORE>
-13.1742

>  <SCORE.INTER>
-14.3027

>  <SCORE.INTER.CONST>
1

>  <SCORE.INTER.POLAR>
-1.19943

>  <SCORE.INTER.ROT>
3

>  <SCORE.INTER.SOLV>
18.9904

>  <SCORE.INTER.VDW>
-17.4672

>  <SCORE.INTER.norm>
-0.650123

>  <SCORE.INTRA>
1.1285

>  <SCORE.INTRA.DIHEDRAL>
2.0651

>  <SCORE.INTRA.DIHEDRAL.0>
1.67653

>  <SCORE.INTRA.POLAR>
0

>  <SCORE.INTRA.POLAR.0>
0

>  <SCORE.INTRA.REPUL>
0

>  <SCORE.INTRA.REPUL.0>
0

>  <SCORE.INTRA.SOLV>
0.605067

>  <SCORE.INTRA.SOLV.lig_0>
-76.6701

>  <SCORE.INTRA.VDW>
-0.206585

>  <SCORE.INTRA.VDW.0>
-1.53273

>  <SCORE.INTRA.norm>
0.0512953

>  <SCORE.RESTR>
0

>  <SCORE.RESTR.CAVITY>
0

>  <SCORE.RESTR.norm>
0

>  <SCORE.SYSTEM>
0

>  <SCORE.SYSTEM.CONST>
0

>  <SCORE.SYSTEM.DIHEDRAL>
0

>  <SCORE.SYSTEM.SOLV>
0

>  <SCORE.SYSTEM.norm>
0

>  <SCORE.heavy>
22

>  <SCORE.norm>
-0.598828

>  <RMSD>
0.718

$$$$
2f4s_lig
 OpenBabel11021811433D
libRbt.so/2013.1/901 2013/11/27
 22 23  0  0  0  0  0  0  0  0999 V2000
   26.5062   17.1598   35.7928 N   0  0  0  0  0  0  0  0  0  0  0  0
   23.7127   14.9313   39.3150 N   0  0  0  0  0  0  0  0  0  0  0  0
   22.1206   10.9093   40.5605 N   0  0  0  0  0  0  0  0  0  0  0  0
   22.0655   15.3183   34.6110 O   0  0  0  0  0  0  0  0  0  0  0  0
   22.8285   15.9473   35.6810 C   0  0  2  0  0  0  0  0  0  0  0  0
   18.5631   15.3092   37.0789 N   0  0  0  0  0  0  0  0  0  0  0  0
   24.2882   17.0649   34.0433 O   0  0  0  0  0  0  0  0  0  0  0  0
   24.2808   16.2275   35.2055 C   0  0  1  0  0  0  0  0  0  0  0  0
   21.5245   14.8414   37.4374 O   0  0  0  0  0  0  0  0  0  0  0  0
   25.0987   16.9134   36.2929 C   0  0  1  0  0  0  0  0  0  0  0  0
   21.1404   12.5629   37.3593 O   0  0  0  0  0  0  0  0  0  0  0  0
   25.1254   16.0152   37.5757 C   0  0  0  0  0  0  0  0  0  0  0  0
   19.7354   12.2432   40.7371 O   0  0  0  0  0  0  0  0  0  0  0  0
   23.6413   15.7816   38.0552 C   0  0  1  0  0  0  0  0  0  0  0  0
   17.7955   13.8846   39.4515 O   0  0  0  0  0  0  0  0  0  0  0  0
   22.8505   15.0314   36.9681 C   0  0  2  0  0  0  0  0  0  0  0  0
   20.6371   13.8865   36.8828 C   0  0  1  0  0  0  0  0  0  0  0  0
   21.1598   12.3515   38.8344 C   0  0  2  0  0  0  0  0  0  0  0  0
   21.7306   10.9580   39.1148 C   0  0  0  0  0  0  0  0  0  0  0  0
   19.7382   12.4386   39.3429 C   0  0  2  0  0  0  0  0  0  0  0  0
   19.1454   13.7990   38.9802 C   0  0  1  0  0  0  0  0  0  0  0  0
   19.1745   13.9806   37.4426 C   0  0  1  0  0  0  0  0  0  0  0  0
  5  4  1  6  0  0  0
  5  8  1  0  0  0  0
  5 16  1  0  0  0  0
  8  7  1  6  0  0  0
  8 10  1  0  0  0  0
 10  1  1  6  0  0  0
 10 12  1  0  0  0  0
 11 18  1  0  0  0  0
 12 14  1  0  0  0  0
 14  2  1  1  0  0  0
 14 16  1  0  0  0  0
 16  9  1  1  0  0  0
 17  9  1  1  0  0  0
 17 11  1  0  0  0  0
 17 22  1  0  0  0  0
 18 19  1  6  0  0  0
 18 20  1  0  0  0  0
 19  3  1  0  0  0  0
 20 13  1  1  0  0  0
 20 21  1  0  0  0  0
 21 15  1  6  0  0  0
 21 22  1  0  0  0  0
 22  6  1  1  0  0  0
M  END
>  <CHROM.1>
81.31626989,73.23474734,163.60522186,21.91842885,14.42336639,37.57515288
-0.83226992,0.11644755,2.28666662

>  <Name>
2f4s_lig

>  <RI>
0

>  <Rbt.Current_Directory>
/home/itssahil/PROJECTS/Mol_Feturizer/New_Systems/rnas/2f4s

>  <Rbt.Executable>
rbdock ($Id: //depot/dev/client3/rdock/2013.1/src/exe/rbdock.cxx#4 $)

>  <Rbt.Library>
libRbt.so (2013.1, Build901 2013/11/27)

>  <Rbt.Parameter_File>
/export/apps/rDock/src/rDock_2013.1_src/data/scripts/dock_solv.prm

>  <Rbt.Receptor>
prm/pocket_docking_8.prm

>  <SCORE>
-13.951

>  <SCORE.INTER>
-15.5805

>  <SCORE.INTER.CONST>
1

>  <SCORE.INTER.POLAR>
-0.979796

>  <SCORE.INTER.ROT>
3

>  <SCORE.INTER.SOLV>
16.9139

>  <SCORE.INTER.VDW>
-18.359

>  <SCORE.INTER.norm>
-0.708204

>  <SCORE.INTRA>
1.62946

>  <SCORE.INTRA.DIHEDRAL>
2.18966

>  <SCORE.INTRA.DIHEDRAL.0>
1.67653

>  <SCORE.INTRA.POLAR>
0

>  <SCORE.INTRA.POLAR.0>
0

>  <SCORE.INTRA.REPUL>
0

>  <SCORE.INTRA.REPUL.0>
0

>  <SCORE.INTRA.SOLV>
1.35208

>  <SCORE.INTRA.SOLV.lig_0>
-76.6701

>  <SCORE.INTRA.VDW>
-0.141411

>  <SCORE.INTRA.VDW.0>
-1.53273

>  <SCORE.INTRA.norm>
0.0740661

>  <SCORE.RESTR>
0

>  <SCORE.RESTR.CAVITY>
0

>  <SCORE.RESTR.norm>
0

>  <SCORE.SYSTEM>
0

>  <SCORE.SYSTEM.CONST>
0

>  <SCORE.SYSTEM.DIHEDRAL>
0

>  <SCORE.SYSTEM.SOLV>
0

>  <SCORE.SYSTEM.norm>
0

>  <SCORE.heavy>
22

>  <SCORE.norm>
-0.634137

>  <RMSD>
0.721

$$$$
2f4s_lig
 OpenBabel11021811433D
libRbt.so/2013.1/901 2013/11/27
 22 23  0  0  0  0  0  0  0  0999 V2000
   26.4883   17.1892   35.7720 N   0  0  0  0  0  0  0  0  0  0  0  0
   23.7166   14.9543   39.3074 N   0  0  0  0  0  0  0  0  0  0  0  0
   22.1020   10.9086   40.5870 N   0  0  0  0  0  0  0  0  0  0  0  0
   22.0684   15.2923   34.6000 O   0  0  0  0  0  0  0  0  0  0  0  0
   22.8240   15.9366   35.6662 C   0  0  2  0  0  0  0  0  0  0  0  0
   18.5689   15.2779   37.0515 N   0  0  0  0  0  0  0  0  0  0  0  0
   24.2725   17.0588   34.0219 O   0  0  0  0  0  0  0  0  0  0  0  0
   24.2734   16.2292   35.1897 C   0  0  1  0  0  0  0  0  0  0  0  0
   21.5307   14.8284   37.4292 O   0  0  0  0  0  0  0  0  0  0  0  0
   25.0833   16.9311   36.2729 C   0  0  1  0  0  0  0  0  0  0  0  0
   21.1594   12.5474   37.3633 O   0  0  0  0  0  0  0  0  0  0  0  0
   25.1188   16.0417   37.5617 C   0  0  0  0  0  0  0  0  0  0  0  0
   19.7375   12.2411   40.7352 O   0  0  0  0  0  0  0  0  0  0  0  0
   23.6370   15.7954   38.0419 C   0  0  1  0  0  0  0  0  0  0  0  0
   17.7959   13.8640   39.4287 O   0  0  0  0  0  0  0  0  0  0  0  0
   22.8549   15.0295   36.9593 C   0  0  2  0  0  0  0  0  0  0  0  0
   20.6516   13.8653   36.8757 C   0  0  1  0  0  0  0  0  0  0  0  0
   21.1718   12.3453   38.8397 C   0  0  2  0  0  0  0  0  0  0  0  0
   21.7485   10.9567   39.1320 C   0  0  0  0  0  0  0  0  0  0  0  0
   19.7469   12.4278   39.3399 C   0  0  2  0  0  0  0  0  0  0  0  0
   19.1488   13.7827   38.9654 C   0  0  1  0  0  0  0  0  0  0  0  0
   19.1855   13.9549   37.4269 C   0  0  1  0  0  0  0  0  0  0  0  0
  5  4  1  6  0  0  0
  5  8  1  0  0  0  0
  5 16  1  0  0  0  0
  8  7  1  6  0  0  0
  8 10  1  0  0  0  0
 10  1  1  6  0  0  0
 10 12  1  0  0  0  0
 11 18  1  0  0  0  0
 12 14  1  0  0  0  0
 14  2  1  1  0  0  0
 14 16  1  0  0  0  0
 16  9  1  1  0  0  0
 17  9  1  1  0  0  0
 17 11  1  0  0  0  0
 17 22  1  0  0  0  0
 18 19  1  6  0  0  0
 18 20  1  0  0  0  0
 19  3  1  0  0  0  0
 20 13  1  1  0  0  0
 20 21  1  0  0  0  0
 21 15  1  6  0  0  0
 21 22  1  0  0  0  0
 22  6  1  1  0  0  0
M  END
>  <CHROM.1>
80.96707787,73.72043713,164.86746836,21.91944090,14.41863201,37.56627346
-0.83644938,0.12506885,2.28094477

>  <Name>
2f4s_lig

>  <RI>
2.46955e+07

>  <Rbt.Current_Directory>
/home/itssahil/PROJECTS/Mol_Feturizer/New_Systems/rnas/2f4s

>  <Rbt.Executable>
rbdock ($Id: //depot/dev/client3/rdock/2013.1/src/exe/rbdock.cxx#4 $)

>  <Rbt.Library>
libRbt.so (2013.1, Build901 2013/11/27)

>  <Rbt.Parameter_File>
/export/apps/rDock/src/rDock_2013.1_src/data/scripts/dock_solv.prm

>  <Rbt.Receptor>
prm/pocket_docking_3.prm

>  <SCORE>
-13.9511

>  <SCORE.INTER>
-15.5801

>  <SCORE.INTER.CONST>
1

>  <SCORE.INTER.POLAR>
-0.979796

>  <SCORE.INTER.ROT>
3

>  <SCORE.INTER.SOLV>
16.9357

>  <SCORE.INTER.VDW>
-18.366

>  <SCORE.INTER.norm>
-0.708184

>  <SCORE.INTRA>
1.62895

>  <SCORE.INTRA.DIHEDRAL>
2.06156

>  <SCORE.INTRA.DIHEDRAL.0>
1.67653

>  <SCORE.INTRA.POLAR>
0

>  <SCORE.INTRA.POLAR.0>
0

>  <SCORE.INTRA.REPUL>
0

>  <SCORE.INTRA.REPUL.0>
0

>  <SCORE.INTRA.SOLV>
1.37692

>  <SCORE.INTRA.SOLV.lig_0>
-76.6701

>  <SCORE.INTRA.VDW>
-0.090289

>  <SCORE.INTRA.VDW.0>
-1.53273

>  <SCORE.INTRA.norm>
0.0740433

>  <SCORE.RESTR>
0

>  <SCORE.RESTR.CAVITY>
0

>  <SCORE.RESTR.norm>
0

>  <SCORE.SYSTEM>
0

>  <SCORE.SYSTEM.CONST>
0

>  <SCORE.SYSTEM.DIHEDRAL>
0

>  <SCORE.SYSTEM.SOLV>
0

>  <SCORE.SYSTEM.norm>
0

>  <SCORE.heavy>
22

>  <SCORE.norm>
-0.634141

>  <RMSD>
0.726

$$$$
2f4s_lig
 OpenBabel11021811433D
libRbt.so/2013.1/901 2013/11/27
 22 23  0  0  0  0  0  0  0  0999 V2000
   26.5936   17.0966   35.8501 N   0  0  0  0  0  0  0  0  0  0  0  0
   23.7068   14.9142   39.3256 N   0  0  0  0  0  0  0  0  0  0  0  0
   22.0971   10.9195   40.5230 N   0  0  0  0  0  0  0  0  0  0  0  0
   22.1369   15.3418   34.5987 O   0  0  0  0  0  0  0  0  0  0  0  0
   22.8958   15.9541   35.6813 C   0  0  2  0  0  0  0  0  0  0  0  0
   18.5896   15.3648   37.0474 N   0  0  0  0  0  0  0  0  0  0  0  0
   24.4003   17.0472   34.0679 O   0  0  0  0  0  0  0  0  0  0  0  0
   24.3599   16.2078   35.2279 C   0  0  1  0  0  0  0  0  0  0  0  0
   21.5453   14.8694   37.4157 O   0  0  0  0  0  0  0  0  0  0  0  0
   25.1745   16.8759   36.3288 C   0  0  1  0  0  0  0  0  0  0  0  0
   21.1416   12.5948   37.3260 O   0  0  0  0  0  0  0  0  0  0  0  0
   25.1653   15.9747   37.6098 C   0  0  0  0  0  0  0  0  0  0  0  0
   19.7201   12.2725   40.6967 O   0  0  0  0  0  0  0  0  0  0  0  0
   23.6701   15.7683   38.0668 C   0  0  1  0  0  0  0  0  0  0  0  0
   17.7999   13.9366   39.4105 O   0  0  0  0  0  0  0  0  0  0  0  0
   22.8814   15.0353   36.9664 C   0  0  2  0  0  0  0  0  0  0  0  0
   20.6518   13.9248   36.8533 C   0  0  1  0  0  0  0  0  0  0  0  0
   21.1532   12.3767   38.8002 C   0  0  2  0  0  0  0  0  0  0  0  0
   21.7106   10.9770   39.0767 C   0  0  0  0  0  0  0  0  0  0  0  0
   19.7303   12.4741   39.3034 C   0  0  2  0  0  0  0  0  0  0  0  0
   19.1509   13.8412   38.9443 C   0  0  1  0  0  0  0  0  0  0  0  0
   19.1879   14.0293   37.4076 C   0  0  1  0  0  0  0  0  0  0  0  0
  5  4  1  6  0  0  0
  5  8  1  0  0  0  0
  5 16  1  0  0  0  0
  8  7  1  6  0  0  0
  8 10  1  0  0  0  0
 10  1  1  6  0  0  0
 10 12  1  0  0  0  0
 11 18  1  0  0  0  0
 12 14  1  0  0  0  0
 14  2  1  1  0  0  0
 14 16  1  0  0  0  0
 16  9  1  1  0  0  0
 17  9  1  1  0  0  0
 17 11  1  0  0  0  0
 17 22  1  0  0  0  0
 18 19  1  6  0  0  0
 18 20  1  0  0  0  0
 19  3  1  0  0  0  0
 20 13  1  1  0  0  0
 20 21  1  0  0  0  0
 21 15  1  6  0  0  0
 21 22  1  0  0  0  0
 22  6  1  1  0  0  0
M  END
>  <CHROM.1>
81.86358497,72.21515612,163.48180504,21.94582509,14.43479509,37.56406476
-0.81401011,0.11141611,2.28771721

>  <Name>
2f4s_lig

>  <RI>
2.46955e+07

>  <Rbt.Current_Directory>
/home/itssahil/PROJECTS/Mol_Feturizer/New_Systems/rnas/2f4s

>  <Rbt.Executable>
rbdock ($Id: //depot/dev/client3/rdock/2013.1/src/exe/rbdock.cxx#4 $)

>  <Rbt.Library>
libRbt.so (2013.1, Build901 2013/11/27)

>  <Rbt.Parameter_File>
/export/apps/rDock/src/rDock_2013.1_src/data/scripts/dock_solv.prm

>  <Rbt.Receptor>
prm/pocket_docking_3.prm

>  <SCORE>
-13.9646

>  <SCORE.INTER>
-15.5768

>  <SCORE.INTER.CONST>
1

>  <SCORE.INTER.POLAR>
-0.979796

>  <SCORE.INTER.ROT>
3

>  <SCORE.INTER.SOLV>
16.9841

>  <SCORE.INTER.VDW>
-18.3799

>  <SCORE.INTER.norm>
-0.708035

>  <SCORE.INTRA>
1.61219

>  <SCORE.INTRA.DIHEDRAL>
2.1801

>  <SCORE.INTRA.DIHEDRAL.0>
1.67653

>  <SCORE.INTRA.POLAR>
0

>  <SCORE.INTRA.POLAR.0>
0

>  <SCORE.INTRA.REPUL>
0

>  <SCORE.INTRA.REPUL.0>
0

>  <SCORE.INTRA.SOLV>
1.35266

>  <SCORE.INTRA.SOLV.lig_0>
-76.6701

>  <SCORE.INTRA.VDW>
-0.154186

>  <SCORE.INTRA.VDW.0>
-1.53273

>  <SCORE.INTRA.norm>
0.0732815

>  <SCORE.RESTR>
0

>  <SCORE.RESTR.CAVITY>
0

>  <SCORE.RESTR.norm>
0

>  <SCORE.SYSTEM>
0

>  <SCORE.SYSTEM.CONST>
0

>  <SCORE.SYSTEM.DIHEDRAL>
0

>  <SCORE.SYSTEM.SOLV>
0

>  <SCORE.SYSTEM.norm>
0

>  <SCORE.heavy>
22

>  <SCORE.norm>
-0.634754

>  <RMSD>
0.726

$$$$
2f4s_lig
 OpenBabel11021811433D
libRbt.so/2013.1/901 2013/11/27
 22 23  0  0  0  0  0  0  0  0999 V2000
   26.1111   17.5496   34.8170 N   0  0  0  0  0  0  0  0  0  0  0  0
   23.4027   15.7165   38.6222 N   0  0  0  0  0  0  0  0  0  0  0  0
   21.3224   10.4598   38.2291 N   0  0  0  0  0  0  0  0  0  0  0  0
   21.8504   15.2025   33.8981 O   0  0  0  0  0  0  0  0  0  0  0  0
   22.5375   16.0547   34.8596 C   0  0  2  0  0  0  0  0  0  0  0  0
   18.2787   15.2646   36.4030 N   0  0  0  0  0  0  0  0  0  0  0  0
   23.9511   16.9995   33.0790 O   0  0  0  0  0  0  0  0  0  0  0  0
   23.9765   16.3649   34.3630 C   0  0  1  0  0  0  0  0  0  0  0  0
   21.2752   15.1527   36.7574 O   0  0  0  0  0  0  0  0  0  0  0  0
   24.7137   17.2802   35.3329 C   0  0  1  0  0  0  0  0  0  0  0  0
   21.1235   12.8626   37.0358 O   0  0  0  0  0  0  0  0  0  0  0  0
   24.7746   16.6080   36.7463 C   0  0  0  0  0  0  0  0  0  0  0  0
   19.7871   12.9282   40.4556 O   0  0  0  0  0  0  0  0  0  0  0  0
   23.3002   16.3419   37.2388 C   0  0  1  0  0  0  0  0  0  0  0  0
   17.6798   14.1526   38.9823 O   0  0  0  0  0  0  0  0  0  0  0  0
   22.5949   15.3655   36.2800 C   0  0  2  0  0  0  0  0  0  0  0  0
   20.4845   14.0409   36.3758 C   0  0  1  0  0  0  0  0  0  0  0  0
   21.1769   12.8833   38.5250 C   0  0  2  0  0  0  0  0  0  0  0  0
   21.8885   11.6128   39.0002 C   0  0  0  0  0  0  0  0  0  0  0  0
   19.7582   12.9064   39.0482 C   0  0  2  0  0  0  0  0  0  0  0  0
   19.0273   14.1296   38.4973 C   0  0  1  0  0  0  0  0  0  0  0  0
   19.0248   14.0747   36.9497 C   0  0  1  0  0  0  0  0  0  0  0  0
  5  4  1  6  0  0  0
  5  8  1  0  0  0  0
  5 16  1  0  0  0  0
  8  7  1  6  0  0  0
  8 10  1  0  0  0  0
 10  1  1  6  0  0  0
 10 12  1  0  0  0  0
 11 18  1  0  0  0  0
 12 14  1  0  0  0  0
 14  2  1  1  0  0  0
 14 16  1  0  0  0  0
 16  9  1  1  0  0  0
 17  9  1  1  0  0  0
 17 11  1  0  0  0  0
 17 22  1  0  0  0  0
 18 19  1  1  0  0  0
 18 20  1  0  0  0  0
 19  3  1  0  0  0  0
 20 13  1  1  0  0  0
 20 21  1  0  0  0  0
 21 15  1  1  0  0  0
 21 22  1  0  0  0  0
 22  6  1  6  0  0  0
M  END
>  <CHROM.1>
82.54771165,70.23274002,-45.48376438,21.70125749,14.71125331,36.88363024
-0.85946496,0.13545641,2.23132483

>  <Name>
2f4s_lig

>  <RI>
0

>  <Rbt.Current_Directory>
/home/itssahil/PROJECTS/Mol_Feturizer/New_Systems/rnas/2f4s

>  <Rbt.Executable>
rbdock ($Id: //depot/dev/client3/rdock/2013.1/src/exe/rbdock.cxx#4 $)

>  <Rbt.Library>
libRbt.so (2013.1, Build901 2013/11/27)

>  <Rbt.Parameter_File>
/export/apps/rDock/src/rDock_2013.1_src/data/scripts/dock_solv.prm

>  <Rbt.Receptor>
prm/pocket_docking_2.prm

>  <SCORE>
-10.5174

>  <SCORE.INTER>
-12.3316

>  <SCORE.INTER.CONST>
1

>  <SCORE.INTER.POLAR>
-1.36763

>  <SCORE.INTER.ROT>
3

>  <SCORE.INTER.SOLV>
22.8175

>  <SCORE.INTER.VDW>
-16.8681

>  <SCORE.INTER.norm>
-0.560525

>  <SCORE.INTRA>
1.81417

>  <SCORE.INTRA.DIHEDRAL>
1.9145

>  <SCORE.INTRA.DIHEDRAL.0>
1.67653

>  <SCORE.INTRA.POLAR>
0

>  <SCORE.INTRA.POLAR.0>
0

>  <SCORE.INTRA.REPUL>
0

>  <SCORE.INTRA.REPUL.0>
0

>  <SCORE.INTRA.SOLV>
1.93939

>  <SCORE.INTRA.SOLV.lig_0>
-76.6701

>  <SCORE.INTRA.VDW>
-0.112772

>  <SCORE.INTRA.VDW.0>
-1.53273

>  <SCORE.INTRA.norm>
0.0824622

>  <SCORE.RESTR>
0

>  <SCORE.RESTR.CAVITY>
0

>  <SCORE.RESTR.norm>
0

>  <SCORE.SYSTEM>
0

>  <SCORE.SYSTEM.CONST>
0

>  <SCORE.SYSTEM.DIHEDRAL>
0

>  <SCORE.SYSTEM.SOLV>
0

>  <SCORE.SYSTEM.norm>
0

>  <SCORE.heavy>
22

>  <SCORE.norm>
-0.478063

>  <RMSD>
0.734

$$$$
2f4s_lig
 OpenBabel11021811433D
libRbt.so/2013.1/901 2013/11/27
 22 23  0  0  0  0  0  0  0  0999 V2000
   26.0705   17.6002   34.8637 N   0  0  0  0  0  0  0  0  0  0  0  0
   23.3871   15.6700   38.6386 N   0  0  0  0  0  0  0  0  0  0  0  0
   21.3926   10.4326   38.5315 N   0  0  0  0  0  0  0  0  0  0  0  0
   21.8509   15.1953   33.9051 O   0  0  0  0  0  0  0  0  0  0  0  0
   22.5223   16.0455   34.8795 C   0  0  2  0  0  0  0  0  0  0  0  0
   18.2707   15.0693   36.4347 N   0  0  0  0  0  0  0  0  0  0  0  0
   23.9226   17.0381   33.1145 O   0  0  0  0  0  0  0  0  0  0  0  0
   23.9566   16.3865   34.3896 C   0  0  1  0  0  0  0  0  0  0  0  0
   21.2722   15.0965   36.7624 O   0  0  0  0  0  0  0  0  0  0  0  0
   24.6769   17.3004   35.3734 C   0  0  1  0  0  0  0  0  0  0  0  0
   21.2223   12.8107   37.1054 O   0  0  0  0  0  0  0  0  0  0  0  0
   24.7468   16.6100   36.7775 C   0  0  0  0  0  0  0  0  0  0  0  0
   19.9140   12.9145   40.5352 O   0  0  0  0  0  0  0  0  0  0  0  0
   23.2764   16.3125   37.2637 C   0  0  1  0  0  0  0  0  0  0  0  0
   17.7430   14.0052   39.0494 O   0  0  0  0  0  0  0  0  0  0  0  0
   22.5889   15.3378   36.2903 C   0  0  2  0  0  0  0  0  0  0  0  0
   20.5272   13.9414   36.4195 C   0  0  1  0  0  0  0  0  0  0  0  0
   21.2877   12.8754   38.5929 C   0  0  2  0  0  0  0  0  0  0  0  0
   22.0577   11.6505   39.0959 C   0  0  0  0  0  0  0  0  0  0  0  0
   19.8738   12.8520   39.1293 C   0  0  2  0  0  0  0  0  0  0  0  0
   19.0859   14.0266   38.5520 C   0  0  1  0  0  0  0  0  0  0  0  0
   19.0724   13.9284   37.0066 C   0  0  1  0  0  0  0  0  0  0  0  0
  5  4  1  6  0  0  0
  5  8  1  0  0  0  0
  5 16  1  0  0  0  0
  8  7  1  6  0  0  0
  8 10  1  0  0  0  0
 10  1  1  6  0  0  0
 10 12  1  0  0  0  0
 11 18  1  0  0  0  0
 12 14  1  0  0  0  0
 14  2  1  1  0  0  0
 14 16  1  0  0  0  0
 16  9  1  1  0  0  0
 17  9  1  1  0  0  0
 17 11  1  0  0  0  0
 17 22  1  0  0  0  0
 18 19  1  1  0  0  0
 18 20  1  0  0  0  0
 19  3  1  0  0  0  0
 20 13  1  1  0  0  0
 20 21  1  0  0  0  0
 21 15  1  1  0  0  0
 21 22  1  0  0  0  0
 22  6  1  6  0  0  0
M  END
>  <CHROM.1>
85.97035015,68.76621389,-54.40683768,21.73270056,14.67264232,36.93879025
-0.88138423,0.16746396,2.21339206

>  <Name>
2f4s_lig

>  <RI>
2.46955e+07

>  <Rbt.Current_Directory>
/home/itssahil/PROJECTS/Mol_Feturizer/New_Systems/rnas/2f4s

>  <Rbt.Executable>
rbdock ($Id: //depot/dev/client3/rdock/2013.1/src/exe/rbdock.cxx#4 $)

>  <Rbt.Library>
libRbt.so (2013.1, Build901 2013/11/27)

>  <Rbt.Parameter_File>
/export/apps/rDock/src/rDock_2013.1_src/data/scripts/dock_solv.prm

>  <Rbt.Receptor>
prm/pocket_docking_3.prm

>  <SCORE>
-10.3252

>  <SCORE.INTER>
-12.1943

>  <SCORE.INTER.CONST>
1

>  <SCORE.INTER.POLAR>
-1.26438

>  <SCORE.INTER.ROT>
3

>  <SCORE.INTER.SOLV>
22.2694

>  <SCORE.INTER.VDW>
-16.9381

>  <SCORE.INTER.norm>
-0.554287

>  <SCORE.INTRA>
1.86914

>  <SCORE.INTRA.DIHEDRAL>
1.7798

>  <SCORE.INTRA.DIHEDRAL.0>
1.67653

>  <SCORE.INTRA.POLAR>
0

>  <SCORE.INTRA.POLAR.0>
0

>  <SCORE.INTRA.REPUL>
0

>  <SCORE.INTRA.REPUL.0>
0

>  <SCORE.INTRA.SOLV>
2.3116

>  <SCORE.INTRA.SOLV.lig_0>
-76.6701

>  <SCORE.INTRA.VDW>
-0.176556

>  <SCORE.INTRA.VDW.0>
-1.53273

>  <SCORE.INTRA.norm>
0.0849611

>  <SCORE.RESTR>
0

>  <SCORE.RESTR.CAVITY>
0

>  <SCORE.RESTR.norm>
0

>  <SCORE.SYSTEM>
0

>  <SCORE.SYSTEM.CONST>
0

>  <SCORE.SYSTEM.DIHEDRAL>
0

>  <SCORE.SYSTEM.SOLV>
0

>  <SCORE.SYSTEM.norm>
0

>  <SCORE.heavy>
22

>  <SCORE.norm>
-0.469326

>  <RMSD>
0.734

$$$$
2f4s_lig
 OpenBabel11021811433D
libRbt.so/2013.1/901 2013/11/27
 22 23  0  0  0  0  0  0  0  0999 V2000
   26.0825   17.5336   34.8113 N   0  0  0  0  0  0  0  0  0  0  0  0
   23.3629   15.7086   38.6125 N   0  0  0  0  0  0  0  0  0  0  0  0
   21.3147   10.4629   38.1892 N   0  0  0  0  0  0  0  0  0  0  0  0
   21.8189   15.1943   33.8858 O   0  0  0  0  0  0  0  0  0  0  0  0
   22.5059   16.0458   34.8480 C   0  0  2  0  0  0  0  0  0  0  0  0
   18.2417   15.2610   36.3881 N   0  0  0  0  0  0  0  0  0  0  0  0
   23.9248   16.9865   33.0695 O   0  0  0  0  0  0  0  0  0  0  0  0
   23.9464   16.3528   34.3539 C   0  0  1  0  0  0  0  0  0  0  0  0
   21.2380   15.1476   36.7439 O   0  0  0  0  0  0  0  0  0  0  0  0
   24.6835   17.2673   35.3247 C   0  0  1  0  0  0  0  0  0  0  0  0
   21.0847   12.8579   37.0252 O   0  0  0  0  0  0  0  0  0  0  0  0
   24.7403   16.5960   36.7387 C   0  0  0  0  0  0  0  0  0  0  0  0
   19.7468   12.9289   40.4443 O   0  0  0  0  0  0  0  0  0  0  0  0
   23.2645   16.3331   37.2285 C   0  0  1  0  0  0  0  0  0  0  0  0
   17.6410   14.1527   38.9685 O   0  0  0  0  0  0  0  0  0  0  0  0
   22.5590   15.3575   36.2690 C   0  0  2  0  0  0  0  0  0  0  0  0
   20.4468   14.0358   36.3634 C   0  0  1  0  0  0  0  0  0  0  0  0
   21.1375   12.8805   38.5144 C   0  0  2  0  0  0  0  0  0  0  0  0
   21.8480   11.6102   38.9915 C   0  0  0  0  0  0  0  0  0  0  0  0
   19.7185   12.9052   39.0370 C   0  0  2  0  0  0  0  0  0  0  0  0
   18.9887   14.1282   38.4841 C   0  0  1  0  0  0  0  0  0  0  0  0
   18.9868   14.0713   36.9366 C   0  0  1  0  0  0  0  0  0  0  0  0
  5  4  1  6  0  0  0
  5  8  1  0  0  0  0
  5 16  1  0  0  0  0
  8  7  1  6  0  0  0
  8 10  1  0  0  0  0
 10  1  1  6  0  0  0
 10 12  1  0  0  0  0
 11 18  1  0  0  0  0
 12 14  1  0  0  0  0
 14  2  1  1  0  0  0
 14 16  1  0  0  0  0
 16  9  1  1  0  0  0
 17  9  1  1  0  0  0
 17 11  1  0  0  0  0
 17 22  1  0  0  0  0
 18 19  1  1  0  0  0
 18 20  1  0  0  0  0
 19  3  1  0  0  0  0
 20 13  1  1  0  0  0
 20 21  1  0  0  0  0
 21 15  1  1  0  0  0
 21 22  1  0  0  0  0
 22  6  1  6  0  0  0
M  END
>  <CHROM.1>
82.66421495,70.09941079,-43.60226838,21.66681199,14.70521817,36.87140967
-0.85722860,0.13331343,2.23115951

>  <Name>
2f4s_lig

>  <RI>
0

>  <Rbt.Current_Directory>
/home/itssahil/PROJECTS/Mol_Feturizer/New_Systems/rnas/2f4s

>  <Rbt.Executable>
rbdock ($Id: //depot/dev/client3/rdock/2013.1/src/exe/rbdock.cxx#4 $)

>  <Rbt.Library>
libRbt.so (2013.1, Build901 2013/11/27)

>  <Rbt.Parameter_File>
/export/apps/rDock/src/rDock_2013.1_src/data/scripts/dock_solv.prm

>  <Rbt.Receptor>
prm/pocket_docking_2.prm

>  <SCORE>
-10.5156

>  <SCORE.INTER>
-12.427

>  <SCORE.INTER.CONST>
1

>  <SCORE.INTER.POLAR>
-1.40379

>  <SCORE.INTER.ROT>
3

>  <SCORE.INTER.SOLV>
22.8804

>  <SCORE.INTER.VDW>
-16.8322

>  <SCORE.INTER.norm>
-0.564863

>  <SCORE.INTRA>
1.91135

>  <SCORE.INTRA.DIHEDRAL>
2.11065

>  <SCORE.INTRA.DIHEDRAL.0>
1.67653

>  <SCORE.INTRA.POLAR>
0

>  <SCORE.INTRA.POLAR.0>
0

>  <SCORE.INTRA.REPUL>
0

>  <SCORE.INTRA.REPUL.0>
0

>  <SCORE.INTRA.SOLV>
1.91704

>  <SCORE.INTRA.SOLV.lig_0>
-76.6701

>  <SCORE.INTRA.VDW>
-0.102494

>  <SCORE.INTRA.VDW.0>
-1.53273

>  <SCORE.INTRA.norm>
0.0868796

>  <SCORE.RESTR>
0

>  <SCORE.RESTR.CAVITY>
0

>  <SCORE.RESTR.norm>
0

>  <SCORE.SYSTEM>
0

>  <SCORE.SYSTEM.CONST>
0

>  <SCORE.SYSTEM.DIHEDRAL>
0

>  <SCORE.SYSTEM.SOLV>
0

>  <SCORE.SYSTEM.norm>
0

>  <SCORE.heavy>
22

>  <SCORE.norm>
-0.477984

>  <RMSD>
0.749

$$$$
2f4s_lig
 OpenBabel11021811433D
libRbt.so/2013.1/901 2013/11/27
 22 23  0  0  0  0  0  0  0  0999 V2000
   26.0914   17.5299   34.8070 N   0  0  0  0  0  0  0  0  0  0  0  0
   23.3596   15.7128   38.6033 N   0  0  0  0  0  0  0  0  0  0  0  0
   21.3107   10.4758   38.1921 N   0  0  0  0  0  0  0  0  0  0  0  0
   21.8191   15.2094   33.8743 O   0  0  0  0  0  0  0  0  0  0  0  0
   22.5084   16.0571   34.8381 C   0  0  2  0  0  0  0  0  0  0  0  0
   18.2361   15.2726   36.3931 N   0  0  0  0  0  0  0  0  0  0  0  0
   23.9334   16.9935   33.0621 O   0  0  0  0  0  0  0  0  0  0  0  0
   23.9509   16.3585   34.3460 C   0  0  1  0  0  0  0  0  0  0  0  0
   21.2345   15.1625   36.7316 O   0  0  0  0  0  0  0  0  0  0  0  0
   24.6907   17.2690   35.3185 C   0  0  1  0  0  0  0  0  0  0  0  0
   21.0854   12.8729   37.0149 O   0  0  0  0  0  0  0  0  0  0  0  0
   24.7429   16.5962   36.7319 C   0  0  0  0  0  0  0  0  0  0  0  0
   19.7671   12.9439   40.4417 O   0  0  0  0  0  0  0  0  0  0  0  0
   23.2654   16.3391   37.2197 C   0  0  1  0  0  0  0  0  0  0  0  0
   17.6515   14.1648   38.9775 O   0  0  0  0  0  0  0  0  0  0  0  0
   22.5570   15.3673   36.2585 C   0  0  2  0  0  0  0  0  0  0  0  0
   20.4424   14.0498   36.3563 C   0  0  1  0  0  0  0  0  0  0  0  0
   21.1467   12.8962   38.5037 C   0  0  2  0  0  0  0  0  0  0  0  0
   21.8613   11.6268   38.9773 C   0  0  0  0  0  0  0  0  0  0  0  0
   19.7307   12.9196   39.0345 C   0  0  2  0  0  0  0  0  0  0  0  0
   18.9964   14.1415   38.4853 C   0  0  1  0  0  0  0  0  0  0  0  0
   18.9857   14.0840   36.9378 C   0  0  1  0  0  0  0  0  0  0  0  0
  5  4  1  6  0  0  0
  5  8  1  0  0  0  0
  5 16  1  0  0  0  0
  8  7  1  6  0  0  0
  8 10  1  0  0  0  0
 10  1  1  6  0  0  0
 10 12  1  0  0  0  0
 11 18  1  0  0  0  0
 12 14  1  0  0  0  0
 14  2  1  1  0  0  0
 14 16  1  0  0  0  0
 16  9  1  1  0  0  0
 17  9  1  1  0  0  0
 17 11  1  0  0  0  0
 17 22  1  0  0  0  0
 18 19  1  1  0  0  0
 18 20  1  0  0  0  0
 19  3  1  0  0  0  0
 20 13  1  1  0  0  0
 20 21  1  0  0  0  0
 21 15  1  1  0  0  0
 21 22  1  0  0  0  0
 22  6  1  6  0  0  0
M  END
>  <CHROM.1>
83.10191403,69.50958912,-44.38806961,21.67080168,14.71558414,36.86583708
-0.85725452,0.13122435,2.23035935

>  <Name>
2f4s_lig

>  <RI>
2.46955e+07

>  <Rbt.Current_Directory>
/home/itssahil/PROJECTS/Mol_Feturizer/New_Systems/rnas/2f4s

>  <Rbt.Executable>
rbdock ($Id: //depot/dev/client3/rdock/2013.1/src/exe/rbdock.cxx#4 $)

>  <Rbt.Library>
libRbt.so (2013.1, Build901 2013/11/27)

>  <Rbt.Parameter_File>
/export/apps/rDock/src/rDock_2013.1_src/data/scripts/dock_solv.prm

>  <Rbt.Receptor>
prm/pocket_docking_3.prm

>  <SCORE>
-10.5156

>  <SCORE.INTER>
-12.4053

>  <SCORE.INTER.CONST>
1

>  <SCORE.INTER.POLAR>
-1.40922

>  <SCORE.INTER.ROT>
3

>  <SCORE.INTER.SOLV>
22.81

>  <SCORE.INTER.VDW>
-16.7761

>  <SCORE.INTER.norm>
-0.563878

>  <SCORE.INTRA>
1.88974

>  <SCORE.INTRA.DIHEDRAL>
2.05319

>  <SCORE.INTRA.DIHEDRAL.0>
1.67653

>  <SCORE.INTRA.POLAR>
0

>  <SCORE.INTRA.POLAR.0>
0

>  <SCORE.INTRA.REPUL>
0

>  <SCORE.INTRA.REPUL.0>
0

>  <SCORE.INTRA.SOLV>
1.95715

>  <SCORE.INTRA.SOLV.lig_0>
-76.6701

>  <SCORE.INTRA.VDW>
-0.115428

>  <SCORE.INTRA.VDW.0>
-1.53273

>  <SCORE.INTRA.norm>
0.0858973

>  <SCORE.RESTR>
0

>  <SCORE.RESTR.CAVITY>
0

>  <SCORE.RESTR.norm>
0

>  <SCORE.SYSTEM>
0

>  <SCORE.SYSTEM.CONST>
0

>  <SCORE.SYSTEM.DIHEDRAL>
0

>  <SCORE.SYSTEM.SOLV>
0

>  <SCORE.SYSTEM.norm>
0

>  <SCORE.heavy>
22

>  <SCORE.norm>
-0.477981

>  <RMSD>
0.750

$$$$
2f4s_lig
 OpenBabel11021811433D
libRbt.so/2013.1/901 2013/11/27
 22 23  0  0  0  0  0  0  0  0999 V2000
   25.8603   17.3080   34.7329 N   0  0  0  0  0  0  0  0  0  0  0  0
   23.2880   15.5126   38.6489 N   0  0  0  0  0  0  0  0  0  0  0  0
   22.7478   11.4418   38.9694 N   0  0  0  0  0  0  0  0  0  0  0  0
   21.5608   14.9695   33.9892 O   0  0  0  0  0  0  0  0  0  0  0  0
   22.2858   15.8263   34.9184 C   0  0  2  0  0  0  0  0  0  0  0  0
   18.1448   15.2639   36.2916 N   0  0  0  0  0  0  0  0  0  0  0  0
   23.6359   16.7529   33.0798 O   0  0  0  0  0  0  0  0  0  0  0  0
   23.7065   16.1277   34.3667 C   0  0  1  0  0  0  0  0  0  0  0  0
   21.0913   14.9427   36.8680 O   0  0  0  0  0  0  0  0  0  0  0  0
   24.4820   17.0473   35.3020 C   0  0  1  0  0  0  0  0  0  0  0  0
   20.7476   12.6793   37.1907 O   0  0  0  0  0  0  0  0  0  0  0  0
   24.5927   16.3854   36.7171 C   0  0  0  0  0  0  0  0  0  0  0  0
   19.1788   12.9456   40.5004 O   0  0  0  0  0  0  0  0  0  0  0  0
   23.1367   16.1281   37.2656 C   0  0  1  0  0  0  0  0  0  0  0  0
   17.2808   14.2768   38.8464 O   0  0  0  0  0  0  0  0  0  0  0  0
   22.3932   15.1473   36.3408 C   0  0  2  0  0  0  0  0  0  0  0  0
   20.2483   13.8812   36.4568 C   0  0  1  0  0  0  0  0  0  0  0  0
   20.6958   12.7407   38.6788 C   0  0  2  0  0  0  0  0  0  0  0  0
   21.2736   11.4362   39.2361 C   0  0  0  0  0  0  0  0  0  0  0  0
   19.2491   12.8838   39.0956 C   0  0  2  0  0  0  0  0  0  0  0  0
   18.6540   14.1403   38.4625 C   0  0  1  0  0  0  0  0  0  0  0  0
   18.7580   14.0394   36.9207 C   0  0  1  0  0  0  0  0  0  0  0  0
  5  4  1  6  0  0  0
  5  8  1  0  0  0  0
  5 16  1  0  0  0  0
  8  7  1  6  0  0  0
  8 10  1  0  0  0  0
 10  1  1  6  0  0  0
 10 12  1  0  0  0  0
 11 18  1  0  0  0  0
 12 14  1  0  0  0  0
 14  2  1  1  0  0  0
 14 16  1  0  0  0  0
 16  9  1  1  0  0  0
 17  9  1  1  0  0  0
 17 11  1  0  0  0  0
 17 22  1  0  0  0  0
 18 19  1  1  0  0  0
 18 20  1  0  0  0  0
 19  3  1  0  0  0  0
 20 13  1  1  0  0  0
 20 21  1  0  0  0  0
 21 15  1  6  0  0  0
 21 22  1  0  0  0  0
 22  6  1  6  0  0  0
M  END
>  <CHROM.1>
78.15174789,79.25148328,70.12900267,21.46978344,14.61758276,36.94668623,-0.83270064
0.09061438,2.19578479

>  <Name>
2f4s_lig

>  <RI>
2.00194e+07

>  <Rbt.Current_Directory>
/home/itssahil/PROJECTS/Mol_Feturizer/New_Systems/rnas/2f4s

>  <Rbt.Executable>
rbdock ($Id: //depot/dev/client3/rdock/2013.1/src/exe/rbdock.cxx#4 $)

>  <Rbt.Library>
libRbt.so (2013.1, Build901 2013/11/27)

>  <Rbt.Parameter_File>
/export/apps/rDock/src/rDock_2013.1_src/data/scripts/dock_solv.prm

>  <Rbt.Receptor>
prm/pocket_docking_6.prm

>  <SCORE>
-13.2461

>  <SCORE.INTER>
-14.3676

>  <SCORE.INTER.CONST>
1

>  <SCORE.INTER.POLAR>
-1.22351

>  <SCORE.INTER.ROT>
3

>  <SCORE.INTER.SOLV>
18.8618

>  <SCORE.INTER.VDW>
-17.3873

>  <SCORE.INTER.norm>
-0.653074

>  <SCORE.INTRA>
1.12151

>  <SCORE.INTRA.DIHEDRAL>
1.96904

>  <SCORE.INTRA.DIHEDRAL.0>
1.67653

>  <SCORE.INTRA.POLAR>
0

>  <SCORE.INTRA.POLAR.0>
0

>  <SCORE.INTRA.REPUL>
0

>  <SCORE.INTRA.REPUL.0>
0

>  <SCORE.INTRA.SOLV>
0.717803

>  <SCORE.INTRA.SOLV.lig_0>
-76.6701

>  <SCORE.INTRA.VDW>
-0.221916

>  <SCORE.INTRA.VDW.0>
-1.53273

>  <SCORE.INTRA.norm>
0.0509776

>  <SCORE.RESTR>
0

>  <SCORE.RESTR.CAVITY>
0

>  <SCORE.RESTR.norm>
0

>  <SCORE.SYSTEM>
0

>  <SCORE.SYSTEM.CONST>
0

>  <SCORE.SYSTEM.DIHEDRAL>
0

>  <SCORE.SYSTEM.SOLV>
0

>  <SCORE.SYSTEM.norm>
0

>  <SCORE.heavy>
22

>  <SCORE.norm>
-0.602097

>  <RMSD>
0.751

$$$$
2f4s_lig
 OpenBabel11021811433D
libRbt.so/2013.1/901 2013/11/27
 22 23  0  0  0  0  0  0  0  0999 V2000
   26.0845   17.5387   34.8129 N   0  0  0  0  0  0  0  0  0  0  0  0
   23.3696   15.6829   38.6025 N   0  0  0  0  0  0  0  0  0  0  0  0
   21.3156   10.4552   38.2240 N   0  0  0  0  0  0  0  0  0  0  0  0
   21.8189   15.2086   33.8738 O   0  0  0  0  0  0  0  0  0  0  0  0
   22.5074   16.0519   34.8422 C   0  0  2  0  0  0  0  0  0  0  0  0
   18.2449   15.2354   36.3772 N   0  0  0  0  0  0  0  0  0  0  0  0
   23.9242   17.0069   33.0696 O   0  0  0  0  0  0  0  0  0  0  0  0
   23.9474   16.3625   34.3487 C   0  0  1  0  0  0  0  0  0  0  0  0
   21.2419   15.1383   36.7322 O   0  0  0  0  0  0  0  0  0  0  0  0
   24.6862   17.2686   35.3260 C   0  0  1  0  0  0  0  0  0  0  0  0
   21.1000   12.8492   37.0236 O   0  0  0  0  0  0  0  0  0  0  0  0
   24.7446   16.5856   36.7342 C   0  0  0  0  0  0  0  0  0  0  0  0
   19.7631   12.9284   40.4430 O   0  0  0  0  0  0  0  0  0  0  0  0
   23.2694   16.3191   37.2239 C   0  0  1  0  0  0  0  0  0  0  0  0
   17.6507   14.1354   38.9627 O   0  0  0  0  0  0  0  0  0  0  0  0
   22.5623   15.3517   36.2573 C   0  0  2  0  0  0  0  0  0  0  0  0
   20.4560   14.0210   36.3570 C   0  0  1  0  0  0  0  0  0  0  0  0
   21.1532   12.8786   38.5126 C   0  0  2  0  0  0  0  0  0  0  0  0
   21.8702   11.6138   38.9950 C   0  0  0  0  0  0  0  0  0  0  0  0
   19.7343   12.8985   39.0357 C   0  0  2  0  0  0  0  0  0  0  0  0
   18.9983   14.1154   38.4778 C   0  0  1  0  0  0  0  0  0  0  0  0
   18.9961   14.0518   36.9306 C   0  0  1  0  0  0  0  0  0  0  0  0
  5  4  1  6  0  0  0
  5  8  1  0  0  0  0
  5 16  1  0  0  0  0
  8  7  1  6  0  0  0
  8 10  1  0  0  0  0
 10  1  1  6  0  0  0
 10 12  1  0  0  0  0
 11 18  1  0  0  0  0
 12 14  1  0  0  0  0
 14  2  1  1  0  0  0
 14 16  1  0  0  0  0
 16  9  1  1  0  0  0
 17  9  1  1  0  0  0
 17 11  1  0  0  0  0
 17 22  1  0  0  0  0
 18 19  1  1  0  0  0
 18 20  1  0  0  0  0
 19  3  1  0  0  0  0
 20 13  1  1  0  0  0
 20 21  1  0  0  0  0
 21 15  1  1  0  0  0
 21 22  1  0  0  0  0
 22  6  1  6  0  0  0
M  END
>  <CHROM.1>
83.49877118,70.01252131,-45.11152627,21.67396180,14.69997695,36.86839990
-0.85992558,0.13722593,2.22994447

>  <Name>
2f4s_lig

>  <RI>
0

>  <Rbt.Current_Directory>
/home/itssahil/PROJECTS/Mol_Feturizer/New_Systems/rnas/2f4s

>  <Rbt.Executable>
rbdock ($Id: //depot/dev/client3/rdock/2013.1/src/exe/rbdock.cxx#4 $)

>  <Rbt.Library>
libRbt.so (2013.1, Build901 2013/11/27)

>  <Rbt.Parameter_File>
/export/apps/rDock/src/rDock_2013.1_src/data/scripts/dock_solv.prm

>  <Rbt.Receptor>
prm/pocket_docking_2.prm

>  <SCORE>
-10.5016

>  <SCORE.INTER>
-12.4157

>  <SCORE.INTER.CONST>
1

>  <SCORE.INTER.POLAR>
-1.3828

>  <SCORE.INTER.ROT>
3

>  <SCORE.INTER.SOLV>
22.8458

>  <SCORE.INTER.VDW>
-16.883

>  <SCORE.INTER.norm>
-0.564349

>  <SCORE.INTRA>
1.91408

>  <SCORE.INTRA.DIHEDRAL>
2.09593

>  <SCORE.INTRA.DIHEDRAL.0>
1.67653

>  <SCORE.INTRA.POLAR>
0

>  <SCORE.INTRA.POLAR.0>
0

>  <SCORE.INTRA.REPUL>
0

>  <SCORE.INTRA.REPUL.0>
0

>  <SCORE.INTRA.SOLV>
1.98879

>  <SCORE.INTRA.SOLV.lig_0>
-76.6701

>  <SCORE.INTRA.VDW>
-0.128275

>  <SCORE.INTRA.VDW.0>
-1.53273

>  <SCORE.INTRA.norm>
0.0870039

>  <SCORE.RESTR>
0

>  <SCORE.RESTR.CAVITY>
0

>  <SCORE.RESTR.norm>
0

>  <SCORE.SYSTEM>
0

>  <SCORE.SYSTEM.CONST>
0

>  <SCORE.SYSTEM.DIHEDRAL>
0

>  <SCORE.SYSTEM.SOLV>
0

>  <SCORE.SYSTEM.norm>
0

>  <SCORE.heavy>
22

>  <SCORE.norm>
-0.477345

>  <RMSD>
0.755

$$$$
2f4s_lig
 OpenBabel11021811433D
libRbt.so/2013.1/901 2013/11/27
 22 23  0  0  0  0  0  0  0  0999 V2000
   26.0905   17.5238   34.8012 N   0  0  0  0  0  0  0  0  0  0  0  0
   23.3517   15.7011   38.5897 N   0  0  0  0  0  0  0  0  0  0  0  0
   21.3258   10.4837   38.2124 N   0  0  0  0  0  0  0  0  0  0  0  0
   21.8143   15.2149   33.8579 O   0  0  0  0  0  0  0  0  0  0  0  0
   22.5045   16.0583   34.8248 C   0  0  2  0  0  0  0  0  0  0  0  0
   18.2273   15.2535   36.3842 N   0  0  0  0  0  0  0  0  0  0  0  0
   23.9330   16.9970   33.0529 O   0  0  0  0  0  0  0  0  0  0  0  0
   23.9480   16.3582   34.3349 C   0  0  1  0  0  0  0  0  0  0  0  0
   21.2272   15.1608   36.7146 O   0  0  0  0  0  0  0  0  0  0  0  0
   24.6888   17.2643   35.3107 C   0  0  1  0  0  0  0  0  0  0  0  0
   21.0903   12.8724   37.0141 O   0  0  0  0  0  0  0  0  0  0  0  0
   24.7385   16.5872   36.7221 C   0  0  0  0  0  0  0  0  0  0  0  0
   19.7818   12.9606   40.4442 O   0  0  0  0  0  0  0  0  0  0  0  0
   23.2600   16.3316   37.2079 C   0  0  1  0  0  0  0  0  0  0  0  0
   17.6558   14.1608   38.9779 O   0  0  0  0  0  0  0  0  0  0  0  0
   22.5505   15.3642   36.2432 C   0  0  2  0  0  0  0  0  0  0  0  0
   20.4394   14.0415   36.3493 C   0  0  1  0  0  0  0  0  0  0  0  0
   21.1558   12.9064   38.5025 C   0  0  2  0  0  0  0  0  0  0  0  0
   21.8782   11.6439   38.9828 C   0  0  0  0  0  0  0  0  0  0  0  0
   19.7413   12.9264   39.0374 C   0  0  2  0  0  0  0  0  0  0  0  0
   18.9993   14.1408   38.4819 C   0  0  1  0  0  0  0  0  0  0  0  0
   18.9843   14.0725   36.9349 C   0  0  1  0  0  0  0  0  0  0  0  0
  5  4  1  6  0  0  0
  5  8  1  0  0  0  0
  5 16  1  0  0  0  0
  8  7  1  6  0  0  0
  8 10  1  0  0  0  0
 10  1  1  6  0  0  0
 10 12  1  0  0  0  0
 11 18  1  0  0  0  0
 12 14  1  0  0  0  0
 14  2  1  1  0  0  0
 14 16  1  0  0  0  0
 16  9  1  1  0  0  0
 17  9  1  1  0  0  0
 17 11  1  0  0  0  0
 17 22  1  0  0  0  0
 18 19  1  1  0  0  0
 18 20  1  0  0  0  0
 19  3  1  0  0  0  0
 20 13  1  1  0  0  0
 20 21  1  0  0  0  0
 21 15  1  1  0  0  0
 21 22  1  0  0  0  0
 22  6  1  6  0  0  0
M  END
>  <CHROM.1>
83.97229013,69.07257098,-44.68768421,21.67173015,14.71488725,36.86021606
-0.85868864,0.13275779,2.22623767

>  <Name>
2f4s_lig

>  <RI>
0

>  <Rbt.Current_Directory>
/home/itssahil/PROJECTS/Mol_Feturizer/New_Systems/rnas/2f4s

>  <Rbt.Executable>
rbdock ($Id: //depot/dev/client3/rdock/2013.1/src/exe/rbdock.cxx#4 $)

>  <Rbt.Library>
libRbt.so (2013.1, Build901 2013/11/27)

>  <Rbt.Parameter_File>
/export/apps/rDock/src/rDock_2013.1_src/data/scripts/dock_solv.prm

>  <Rbt.Receptor>
prm/pocket_docking_2.prm

>  <SCORE>
-10.5146

>  <SCORE.INTER>
-12.4659

>  <SCORE.INTER.CONST>
1

>  <SCORE.INTER.POLAR>
-1.40688

>  <SCORE.INTER.ROT>
3

>  <SCORE.INTER.SOLV>
22.7246

>  <SCORE.INTER.VDW>
-16.7959

>  <SCORE.INTER.norm>
-0.566634

>  <SCORE.INTRA>
1.95133

>  <SCORE.INTRA.DIHEDRAL>
2.13924

>  <SCORE.INTRA.DIHEDRAL.0>
1.67653

>  <SCORE.INTRA.POLAR>
0

>  <SCORE.INTRA.POLAR.0>
0

>  <SCORE.INTRA.REPUL>
0

>  <SCORE.INTRA.REPUL.0>
0

>  <SCORE.INTRA.SOLV>
2.02905

>  <SCORE.INTRA.SOLV.lig_0>
-76.6701

>  <SCORE.INTRA.VDW>
-0.132811

>  <SCORE.INTRA.VDW.0>
-1.53273

>  <SCORE.INTRA.norm>
0.088697

>  <SCORE.RESTR>
0

>  <SCORE.RESTR.CAVITY>
0

>  <SCORE.RESTR.norm>
0

>  <SCORE.SYSTEM>
0

>  <SCORE.SYSTEM.CONST>
0

>  <SCORE.SYSTEM.DIHEDRAL>
0

>  <SCORE.SYSTEM.SOLV>
0

>  <SCORE.SYSTEM.norm>
0

>  <SCORE.heavy>
22

>  <SCORE.norm>
-0.477937

>  <RMSD>
0.757

$$$$
2f4s_lig
 OpenBabel11021811433D
libRbt.so/2013.1/901 2013/11/27
 22 23  0  0  0  0  0  0  0  0999 V2000
   25.9380   17.3574   34.7449 N   0  0  0  0  0  0  0  0  0  0  0  0
   23.3377   15.5138   38.6198 N   0  0  0  0  0  0  0  0  0  0  0  0
   22.7732   11.4861   38.9896 N   0  0  0  0  0  0  0  0  0  0  0  0
   21.6488   15.0201   33.9406 O   0  0  0  0  0  0  0  0  0  0  0  0
   22.3648   15.8676   34.8851 C   0  0  2  0  0  0  0  0  0  0  0  0
   18.2226   15.2673   36.1699 N   0  0  0  0  0  0  0  0  0  0  0  0
   23.7278   16.8171   33.0679 O   0  0  0  0  0  0  0  0  0  0  0  0
   23.7893   16.1776   34.3482 C   0  0  1  0  0  0  0  0  0  0  0  0
   21.1563   14.9602   36.8151 O   0  0  0  0  0  0  0  0  0  0  0  0
   24.5556   17.0880   35.3000 C   0  0  1  0  0  0  0  0  0  0  0  0
   20.8107   12.6998   37.1563 O   0  0  0  0  0  0  0  0  0  0  0  0
   24.6562   16.4104   36.7084 C   0  0  0  0  0  0  0  0  0  0  0  0
   19.1684   13.0002   40.4270 O   0  0  0  0  0  0  0  0  0  0  0  0
   23.1963   16.1445   37.2423 C   0  0  1  0  0  0  0  0  0  0  0  0
   17.3044   14.3075   38.7162 O   0  0  0  0  0  0  0  0  0  0  0  0
   22.4620   15.1729   36.3006 C   0  0  2  0  0  0  0  0  0  0  0  0
   20.3250   13.8918   36.3976 C   0  0  1  0  0  0  0  0  0  0  0  0
   20.7258   12.7782   38.6420 C   0  0  2  0  0  0  0  0  0  0  0  0
   21.2940   11.4816   39.2271 C   0  0  0  0  0  0  0  0  0  0  0  0
   19.2699   12.9224   39.0250 C   0  0  2  0  0  0  0  0  0  0  0  0
   18.6861   14.1700   38.3644 C   0  0  1  0  0  0  0  0  0  0  0  0
   18.8245   14.0516   36.8266 C   0  0  1  0  0  0  0  0  0  0  0  0
  5  4  1  6  0  0  0
  5  8  1  0  0  0  0
  5 16  1  0  0  0  0
  8  7  1  6  0  0  0
  8 10  1  0  0  0  0
 10  1  1  6  0  0  0
 10 12  1  0  0  0  0
 11 18  1  0  0  0  0
 12 14  1  0  0  0  0
 14  2  1  1  0  0  0
 14 16  1  0  0  0  0
 16  9  1  1  0  0  0
 17  9  1  1  0  0  0
 17 11  1  0  0  0  0
 17 22  1  0  0  0  0
 18 19  1  1  0  0  0
 18 20  1  0  0  0  0
 19  3  1  0  0  0  0
 20 13  1  1  0  0  0
 20 21  1  0  0  0  0
 21 15  1  6  0  0  0
 21 22  1  0  0  0  0
 22  6  1  6  0  0  0
M  END
>  <CHROM.1>
78.98195786,80.16732116,69.97568826,21.52530785,14.65018520,36.90241858,-0.82411147
0.10474004,2.19084598

>  <Name>
2f4s_lig

>  <RI>
0

>  <Rbt.Current_Directory>
/home/itssahil/PROJECTS/Mol_Feturizer/New_Systems/rnas/2f4s

>  <Rbt.Executable>
rbdock ($Id: //depot/dev/client3/rdock/2013.1/src/exe/rbdock.cxx#4 $)

>  <Rbt.Library>
libRbt.so (2013.1, Build901 2013/11/27)

>  <Rbt.Parameter_File>
/export/apps/rDock/src/rDock_2013.1_src/data/scripts/dock_solv.prm

>  <Rbt.Receptor>
prm/pocket_docking_4.prm

>  <SCORE>
-13.2507

>  <SCORE.INTER>
-14.5378

>  <SCORE.INTER.CONST>
1

>  <SCORE.INTER.POLAR>
-1.26947

>  <SCORE.INTER.ROT>
3

>  <SCORE.INTER.SOLV>
18.6839

>  <SCORE.INTER.VDW>
-17.2882

>  <SCORE.INTER.norm>
-0.660808

>  <SCORE.INTRA>
1.28709

>  <SCORE.INTRA.DIHEDRAL>
2.22971

>  <SCORE.INTRA.DIHEDRAL.0>
1.67653

>  <SCORE.INTRA.POLAR>
0

>  <SCORE.INTRA.POLAR.0>
0

>  <SCORE.INTRA.REPUL>
0

>  <SCORE.INTRA.REPUL.0>
0

>  <SCORE.INTRA.SOLV>
0.827189

>  <SCORE.INTRA.SOLV.lig_0>
-76.6701

>  <SCORE.INTRA.VDW>
-0.241362

>  <SCORE.INTRA.VDW.0>
-1.53273

>  <SCORE.INTRA.norm>
0.058504

>  <SCORE.RESTR>
0

>  <SCORE.RESTR.CAVITY>
0

>  <SCORE.RESTR.norm>
0

>  <SCORE.SYSTEM>
0

>  <SCORE.SYSTEM.CONST>
0

>  <SCORE.SYSTEM.DIHEDRAL>
0

>  <SCORE.SYSTEM.SOLV>
0

>  <SCORE.SYSTEM.norm>
0

>  <SCORE.heavy>
22

>  <SCORE.norm>
-0.602304

>  <RMSD>
0.757

$$$$
2f4s_lig
 OpenBabel11021811433D
libRbt.so/2013.1/901 2013/11/27
 22 23  0  0  0  0  0  0  0  0999 V2000
   25.8661   17.2966   34.7414 N   0  0  0  0  0  0  0  0  0  0  0  0
   23.2638   15.5079   38.6407 N   0  0  0  0  0  0  0  0  0  0  0  0
   22.7469   11.4629   38.9769 N   0  0  0  0  0  0  0  0  0  0  0  0
   21.5695   14.9620   33.9693 O   0  0  0  0  0  0  0  0  0  0  0  0
   22.2887   15.8189   34.9027 C   0  0  2  0  0  0  0  0  0  0  0  0
   18.1333   15.2374   36.2543 N   0  0  0  0  0  0  0  0  0  0  0  0
   23.6529   16.7422   33.0730 O   0  0  0  0  0  0  0  0  0  0  0  0
   23.7137   16.1182   34.3609 C   0  0  1  0  0  0  0  0  0  0  0  0
   21.0793   14.9386   36.8446 O   0  0  0  0  0  0  0  0  0  0  0  0
   24.4834   17.0380   35.3008 C   0  0  1  0  0  0  0  0  0  0  0  0
   20.7476   12.6762   37.1865 O   0  0  0  0  0  0  0  0  0  0  0  0
   24.5833   16.3773   36.7174 C   0  0  0  0  0  0  0  0  0  0  0  0
   19.1647   12.9631   40.4876 O   0  0  0  0  0  0  0  0  0  0  0  0
   23.1231   16.1222   37.2557 C   0  0  1  0  0  0  0  0  0  0  0  0
   17.2653   14.2683   38.8146 O   0  0  0  0  0  0  0  0  0  0  0  0
   22.3852   15.1412   36.3265 C   0  0  2  0  0  0  0  0  0  0  0  0
   20.2441   13.8684   36.4399 C   0  0  1  0  0  0  0  0  0  0  0  0
   20.6898   12.7507   38.6738 C   0  0  2  0  0  0  0  0  0  0  0  0
   21.2730   11.4546   39.2450 C   0  0  0  0  0  0  0  0  0  0  0  0
   19.2406   12.8890   39.0838 C   0  0  2  0  0  0  0  0  0  0  0  0
   18.6406   14.1363   38.4371 C   0  0  1  0  0  0  0  0  0  0  0  0
   18.7511   14.0221   36.8967 C   0  0  1  0  0  0  0  0  0  0  0  0
  5  4  1  6  0  0  0
  5  8  1  0  0  0  0
  5 16  1  0  0  0  0
  8  7  1  6  0  0  0
  8 10  1  0  0  0  0
 10  1  1  6  0  0  0
 10 12  1  0  0  0  0
 11 18  1  0  0  0  0
 12 14  1  0  0  0  0
 14  2  1  1  0  0  0
 14 16  1  0  0  0  0
 16  9  1  1  0  0  0
 17  9  1  1  0  0  0
 17 11  1  0  0  0  0
 17 22  1  0  0  0  0
 18 19  1  1  0  0  0
 18 20  1  0  0  0  0
 19  3  1  0  0  0  0
 20 13  1  1  0  0  0
 20 21  1  0  0  0  0
 21 15  1  6  0  0  0
 21 22  1  0  0  0  0
 22  6  1  6  0  0  0
M  END
>  <CHROM.1>
78.90986037,78.84947608,69.81878716,21.46506652,14.61382856,36.93520799,-0.82874559
0.09677487,2.18841120

>  <Name>
2f4s_lig

>  <RI>
2.46955e+07

>  <Rbt.Current_Directory>
/home/itssahil/PROJECTS/Mol_Feturizer/New_Systems/rnas/2f4s

>  <Rbt.Executable>
rbdock ($Id: //depot/dev/client3/rdock/2013.1/src/exe/rbdock.cxx#4 $)

>  <Rbt.Library>
libRbt.so (2013.1, Build901 2013/11/27)

>  <Rbt.Parameter_File>
/export/apps/rDock/src/rDock_2013.1_src/data/scripts/dock_solv.prm

>  <Rbt.Receptor>
prm/pocket_docking_3.prm

>  <SCORE>
-13.2603

>  <SCORE.INTER>
-14.4199

>  <SCORE.INTER.CONST>
1

>  <SCORE.INTER.POLAR>
-1.24492

>  <SCORE.INTER.ROT>
3

>  <SCORE.INTER.SOLV>
18.8133

>  <SCORE.INTER.VDW>
-17.3346

>  <SCORE.INTER.norm>
-0.655449

>  <SCORE.INTRA>
1.15957

>  <SCORE.INTRA.DIHEDRAL>
2.00279

>  <SCORE.INTRA.DIHEDRAL.0>
1.67653

>  <SCORE.INTRA.POLAR>
0

>  <SCORE.INTRA.POLAR.0>
0

>  <SCORE.INTRA.REPUL>
0

>  <SCORE.INTRA.REPUL.0>
0

>  <SCORE.INTRA.SOLV>
0.794458

>  <SCORE.INTRA.SOLV.lig_0>
-76.6701

>  <SCORE.INTRA.VDW>
-0.239051

>  <SCORE.INTRA.VDW.0>
-1.53273

>  <SCORE.INTRA.norm>
0.0527078

>  <SCORE.RESTR>
0

>  <SCORE.RESTR.CAVITY>
0

>  <SCORE.RESTR.norm>
0

>  <SCORE.SYSTEM>
0

>  <SCORE.SYSTEM.CONST>
0

>  <SCORE.SYSTEM.DIHEDRAL>
0

>  <SCORE.SYSTEM.SOLV>
0

>  <SCORE.SYSTEM.norm>
0

>  <SCORE.heavy>
22

>  <SCORE.norm>
-0.602741

>  <RMSD>
0.769

$$$$
2f4s_lig
 OpenBabel11021811433D
libRbt.so/2013.1/901 2013/11/27
 22 23  0  0  0  0  0  0  0  0999 V2000
   25.8775   17.3227   34.7507 N   0  0  0  0  0  0  0  0  0  0  0  0
   23.3429   15.5570   38.7047 N   0  0  0  0  0  0  0  0  0  0  0  0
   22.0154   11.3755   40.4103 N   0  0  0  0  0  0  0  0  0  0  0  0
   21.5697   14.9814   34.0663 O   0  0  0  0  0  0  0  0  0  0  0  0
   22.3042   15.8444   34.9821 C   0  0  2  0  0  0  0  0  0  0  0  0
   18.1342   15.2672   36.6927 N   0  0  0  0  0  0  0  0  0  0  0  0
   23.6365   16.7569   33.1237 O   0  0  0  0  0  0  0  0  0  0  0  0
   23.7195   16.1410   34.4143 C   0  0  1  0  0  0  0  0  0  0  0  0
   21.1285   14.9756   36.9497 O   0  0  0  0  0  0  0  0  0  0  0  0
   24.5047   17.0669   35.3352 C   0  0  1  0  0  0  0  0  0  0  0  0
   20.8589   12.6846   37.1042 O   0  0  0  0  0  0  0  0  0  0  0  0
   24.6290   16.4151   36.7539 C   0  0  0  0  0  0  0  0  0  0  0  0
   19.6211   12.6249   40.5611 O   0  0  0  0  0  0  0  0  0  0  0  0
   23.1783   16.1626   37.3186 C   0  0  1  0  0  0  0  0  0  0  0  0
   17.5452   14.0424   39.2227 O   0  0  0  0  0  0  0  0  0  0  0  0
   22.4252   15.1756   36.4082 C   0  0  2  0  0  0  0  0  0  0  0  0
   20.2680   13.9313   36.5307 C   0  0  1  0  0  0  0  0  0  0  0  0
   20.9537   12.6169   38.5900 C   0  0  2  0  0  0  0  0  0  0  0  0
   21.6069   11.2851   38.9718 C   0  0  0  0  0  0  0  0  0  0  0  0
   19.5530   12.6855   39.1562 C   0  0  2  0  0  0  0  0  0  0  0  0
   18.8758   13.9755   38.6967 C   0  0  1  0  0  0  0  0  0  0  0  0
   18.8284   14.0098   37.1492 C   0  0  1  0  0  0  0  0  0  0  0  0
  5  4  1  6  0  0  0
  5  8  1  0  0  0  0
  5 16  1  0  0  0  0
  8  7  1  6  0  0  0
  8 10  1  0  0  0  0
 10  1  1  6  0  0  0
 10 12  1  0  0  0  0
 11 18  1  0  0  0  0
 12 14  1  0  0  0  0
 14  2  1  1  0  0  0
 14 16  1  0  0  0  0
 16  9  1  1  0  0  0
 17  9  1  1  0  0  0
 17 11  1  0  0  0  0
 17 22  1  0  0  0  0
 18 19  1  6  0  0  0
 18 20  1  0  0  0  0
 19  3  1  0  0  0  0
 20 13  1  1  0  0  0
 20 21  1  0  0  0  0
 21 15  1  1  0  0  0
 21 22  1  0  0  0  0
 22  6  1  1  0  0  0
M  END
>  <CHROM.1>
76.53296309,72.73825297,165.69757591,21.54280061,14.57128203,37.08384513
-0.89783389,0.13398703,2.17535561

>  <Name>
2f4s_lig

>  <RI>
0

>  <Rbt.Current_Directory>
/home/itssahil/PROJECTS/Mol_Feturizer/New_Systems/rnas/2f4s

>  <Rbt.Executable>
rbdock ($Id: //depot/dev/client3/rdock/2013.1/src/exe/rbdock.cxx#4 $)

>  <Rbt.Library>
libRbt.so (2013.1, Build901 2013/11/27)

>  <Rbt.Parameter_File>
/export/apps/rDock/src/rDock_2013.1_src/data/scripts/dock_solv.prm

>  <Rbt.Receptor>
prm/pocket_docking_5.prm

>  <SCORE>
-13.7131

>  <SCORE.INTER>
-14.9006

>  <SCORE.INTER.CONST>
1

>  <SCORE.INTER.POLAR>
-1.15974

>  <SCORE.INTER.ROT>
3

>  <SCORE.INTER.SOLV>
16.1391

>  <SCORE.INTER.VDW>
-17.0476

>  <SCORE.INTER.norm>
-0.677299

>  <SCORE.INTRA>
1.18748

>  <SCORE.INTRA.DIHEDRAL>
1.18099

>  <SCORE.INTRA.DIHEDRAL.0>
1.67653

>  <SCORE.INTRA.POLAR>
0

>  <SCORE.INTRA.POLAR.0>
0

>  <SCORE.INTRA.REPUL>
0

>  <SCORE.INTRA.REPUL.0>
0

>  <SCORE.INTRA.SOLV>
1.10598

>  <SCORE.INTRA.SOLV.lig_0>
-76.6701

>  <SCORE.INTRA.VDW>
0.0439982

>  <SCORE.INTRA.VDW.0>
-1.53273

>  <SCORE.INTRA.norm>
0.0539765

>  <SCORE.RESTR>
0

>  <SCORE.RESTR.CAVITY>
0

>  <SCORE.RESTR.norm>
0

>  <SCORE.SYSTEM>
0

>  <SCORE.SYSTEM.CONST>
0

>  <SCORE.SYSTEM.DIHEDRAL>
0

>  <SCORE.SYSTEM.SOLV>
0

>  <SCORE.SYSTEM.norm>
0

>  <SCORE.heavy>
22

>  <SCORE.norm>
-0.623323

>  <RMSD>
0.770

$$$$
2f4s_lig
 OpenBabel11021811433D
libRbt.so/2013.1/901 2013/11/27
 22 23  0  0  0  0  0  0  0  0999 V2000
   25.9106   17.3414   34.7486 N   0  0  0  0  0  0  0  0  0  0  0  0
   23.2790   15.5509   38.6273 N   0  0  0  0  0  0  0  0  0  0  0  0
   22.7685   11.4967   38.9788 N   0  0  0  0  0  0  0  0  0  0  0  0
   21.6369   14.9772   33.9407 O   0  0  0  0  0  0  0  0  0  0  0  0
   22.3410   15.8420   34.8783 C   0  0  2  0  0  0  0  0  0  0  0  0
   18.1777   15.2544   36.1843 N   0  0  0  0  0  0  0  0  0  0  0  0
   23.7184   16.7670   33.0594 O   0  0  0  0  0  0  0  0  0  0  0  0
   23.7696   16.1482   34.3502 C   0  0  1  0  0  0  0  0  0  0  0  0
   21.1169   14.9614   36.8108 O   0  0  0  0  0  0  0  0  0  0  0  0
   24.5238   17.0762   35.2946 C   0  0  1  0  0  0  0  0  0  0  0  0
   20.7860   12.6979   37.1462 O   0  0  0  0  0  0  0  0  0  0  0  0
   24.6130   16.4215   36.7146 C   0  0  0  0  0  0  0  0  0  0  0  0
   19.1616   12.9778   40.4278 O   0  0  0  0  0  0  0  0  0  0  0  0
   23.1489   16.1592   37.2387 C   0  0  1  0  0  0  0  0  0  0  0  0
   17.2802   14.2806   38.7327 O   0  0  0  0  0  0  0  0  0  0  0  0
   22.4268   15.1703   36.3056 C   0  0  2  0  0  0  0  0  0  0  0  0
   20.2891   13.8899   36.3946 C   0  0  1  0  0  0  0  0  0  0  0  0
   20.7095   12.7707   38.6327 C   0  0  2  0  0  0  0  0  0  0  0  0
   21.2884   11.4753   39.2098 C   0  0  0  0  0  0  0  0  0  0  0  0
   19.2551   12.9054   39.0249 C   0  0  2  0  0  0  0  0  0  0  0  0
   18.6604   14.1521   38.3721 C   0  0  1  0  0  0  0  0  0  0  0  0
   18.7903   14.0398   36.8331 C   0  0  1  0  0  0  0  0  0  0  0  0
  5  4  1  6  0  0  0
  5  8  1  0  0  0  0
  5 16  1  0  0  0  0
  8  7  1  6  0  0  0
  8 10  1  0  0  0  0
 10  1  1  6  0  0  0
 10 12  1  0  0  0  0
 11 18  1  0  0  0  0
 12 14  1  0  0  0  0
 14  2  1  1  0  0  0
 14 16  1  0  0  0  0
 16  9  1  1  0  0  0
 17  9  1  1  0  0  0
 17 11  1  0  0  0  0
 17 22  1  0  0  0  0
 18 19  1  1  0  0  0
 18 20  1  0  0  0  0
 19  3  1  0  0  0  0
 20 13  1  1  0  0  0
 20 21  1  0  0  0  0
 21 15  1  6  0  0  0
 21 22  1  0  0  0  0
 22  6  1  6  0  0  0
M  END
>  <CHROM.1>
78.46141548,79.08696292,70.67243300,21.49903708,14.63922094,36.90200901,-0.82245506
0.10687526,2.18679840

>  <Name>
2f4s_lig

>  <RI>
0

>  <Rbt.Current_Directory>
/home/itssahil/PROJECTS/Mol_Feturizer/New_Systems/rnas/2f4s

>  <Rbt.Executable>
rbdock ($Id: //depot/dev/client3/rdock/2013.1/src/exe/rbdock.cxx#4 $)

>  <Rbt.Library>
libRbt.so (2013.1, Build901 2013/11/27)

>  <Rbt.Parameter_File>
/export/apps/rDock/src/rDock_2013.1_src/data/scripts/dock_solv.prm

>  <Rbt.Receptor>
prm/pocket_docking_5.prm

>  <SCORE>
-13.2105

>  <SCORE.INTER>
-14.3708

>  <SCORE.INTER.CONST>
1

>  <SCORE.INTER.POLAR>
-1.27932

>  <SCORE.INTER.ROT>
3

>  <SCORE.INTER.SOLV>
18.7157

>  <SCORE.INTER.VDW>
-17.1547

>  <SCORE.INTER.norm>
-0.653219

>  <SCORE.INTRA>
1.16027

>  <SCORE.INTRA.DIHEDRAL>
2.03014

>  <SCORE.INTRA.DIHEDRAL.0>
1.67653

>  <SCORE.INTRA.POLAR>
0

>  <SCORE.INTRA.POLAR.0>
0

>  <SCORE.INTRA.REPUL>
0

>  <SCORE.INTRA.REPUL.0>
0

>  <SCORE.INTRA.SOLV>
0.750911

>  <SCORE.INTRA.SOLV.lig_0>
-76.6701

>  <SCORE.INTRA.VDW>
-0.230253

>  <SCORE.INTRA.VDW.0>
-1.53273

>  <SCORE.INTRA.norm>
0.0527397

>  <SCORE.RESTR>
0

>  <SCORE.RESTR.CAVITY>
0

>  <SCORE.RESTR.norm>
0

>  <SCORE.SYSTEM>
0

>  <SCORE.SYSTEM.CONST>
0

>  <SCORE.SYSTEM.DIHEDRAL>
0

>  <SCORE.SYSTEM.SOLV>
0

>  <SCORE.SYSTEM.norm>
0

>  <SCORE.heavy>
22

>  <SCORE.norm>
-0.600479

>  <RMSD>
0.771

$$$$
2f4s_lig
 OpenBabel11021811433D
libRbt.so/2013.1/901 2013/11/27
 22 23  0  0  0  0  0  0  0  0999 V2000
   25.9117   17.2704   34.7621 N   0  0  0  0  0  0  0  0  0  0  0  0
   23.2830   15.5239   38.6628 N   0  0  0  0  0  0  0  0  0  0  0  0
   22.0710   11.3509   40.1144 N   0  0  0  0  0  0  0  0  0  0  0  0
   21.5414   15.0737   33.9985 O   0  0  0  0  0  0  0  0  0  0  0  0
   22.2925   15.8997   34.9348 C   0  0  2  0  0  0  0  0  0  0  0  0
   18.0835   15.4218   36.6556 N   0  0  0  0  0  0  0  0  0  0  0  0
   23.6715   16.7988   33.1042 O   0  0  0  0  0  0  0  0  0  0  0  0
   23.7221   16.1610   34.3858 C   0  0  1  0  0  0  0  0  0  0  0  0
   21.0702   15.0377   36.8769 O   0  0  0  0  0  0  0  0  0  0  0  0
   24.5256   17.0482   35.3288 C   0  0  1  0  0  0  0  0  0  0  0  0
   20.7378   12.7508   36.9443 O   0  0  0  0  0  0  0  0  0  0  0  0
   24.6151   16.3714   36.7384 C   0  0  0  0  0  0  0  0  0  0  0  0
   19.5230   12.5901   40.4061 O   0  0  0  0  0  0  0  0  0  0  0  0
   23.1515   16.1553   37.2846 C   0  0  1  0  0  0  0  0  0  0  0  0
   17.4782   14.1157   39.1406 O   0  0  0  0  0  0  0  0  0  0  0  0
   22.3780   15.2059   36.3516 C   0  0  2  0  0  0  0  0  0  0  0  0
   20.1780   14.0348   36.4245 C   0  0  1  0  0  0  0  0  0  0  0  0
   20.8410   12.6224   38.4255 C   0  0  2  0  0  0  0  0  0  0  0  0
   21.4595   11.2592   38.7498 C   0  0  0  0  0  0  0  0  0  0  0  0
   19.4468   12.7075   39.0052 C   0  0  2  0  0  0  0  0  0  0  0  0
   18.8027   14.0327   38.6018 C   0  0  1  0  0  0  0  0  0  0  0  0
   18.7455   14.1288   37.0572 C   0  0  1  0  0  0  0  0  0  0  0  0
  5  4  1  6  0  0  0
  5  8  1  0  0  0  0
  5 16  1  0  0  0  0
  8  7  1  6  0  0  0
  8 10  1  0  0  0  0
 10  1  1  6  0  0  0
 10 12  1  0  0  0  0
 11 18  1  0  0  0  0
 12 14  1  0  0  0  0
 14  2  1  1  0  0  0
 14 16  1  0  0  0  0
 16  9  1  1  0  0  0
 17  9  1  1  0  0  0
 17 11  1  0  0  0  0
 17 22  1  0  0  0  0
 18 19  1  6  0  0  0
 18 20  1  0  0  0  0
 19  3  1  0  0  0  0
 20 13  1  1  0  0  0
 20 21  1  0  0  0  0
 21 15  1  1  0  0  0
 21 22  1  0  0  0  0
 22  6  1  1  0  0  0
M  END
>  <CHROM.1>
75.92617913,71.44229099,157.03814269,21.49504402,14.60190967,36.99518959
-0.87396780,0.10399830,2.20595901

>  <Name>
2f4s_lig

>  <RI>
0

>  <Rbt.Current_Directory>
/home/itssahil/PROJECTS/Mol_Feturizer/New_Systems/rnas/2f4s

>  <Rbt.Executable>
rbdock ($Id: //depot/dev/client3/rdock/2013.1/src/exe/rbdock.cxx#4 $)

>  <Rbt.Library>
libRbt.so (2013.1, Build901 2013/11/27)

>  <Rbt.Parameter_File>
/export/apps/rDock/src/rDock_2013.1_src/data/scripts/dock_solv.prm

>  <Rbt.Receptor>
prm/pocket_docking_2.prm

>  <SCORE>
-13.0465

>  <SCORE.INTER>
-14.3532

>  <SCORE.INTER.CONST>
1

>  <SCORE.INTER.POLAR>
-1.17623

>  <SCORE.INTER.ROT>
3

>  <SCORE.INTER.SOLV>
16.1108

>  <SCORE.INTER.VDW>
-16.6183

>  <SCORE.INTER.norm>
-0.652419

>  <SCORE.INTRA>
1.29232

>  <SCORE.INTRA.DIHEDRAL>
1.93234

>  <SCORE.INTRA.DIHEDRAL.0>
1.67653

>  <SCORE.INTRA.POLAR>
0

>  <SCORE.INTRA.POLAR.0>
0

>  <SCORE.INTRA.REPUL>
0

>  <SCORE.INTRA.REPUL.0>
0

>  <SCORE.INTRA.SOLV>
0.838203

>  <SCORE.INTRA.SOLV.lig_0>
-76.6701

>  <SCORE.INTRA.VDW>
-0.092951

>  <SCORE.INTRA.VDW.0>
-1.53273

>  <SCORE.INTRA.norm>
0.0587419

>  <SCORE.RESTR>
0.0144256

>  <SCORE.RESTR.CAVITY>
0.0144256

>  <SCORE.RESTR.norm>
0.000655711

>  <SCORE.SYSTEM>
0

>  <SCORE.SYSTEM.CONST>
0

>  <SCORE.SYSTEM.DIHEDRAL>
0

>  <SCORE.SYSTEM.SOLV>
0

>  <SCORE.SYSTEM.norm>
0

>  <SCORE.heavy>
22

>  <SCORE.norm>
-0.593022

>  <RMSD>
0.773

$$$$
2f4s_lig
 OpenBabel11021811433D
libRbt.so/2013.1/901 2013/11/27
 22 23  0  0  0  0  0  0  0  0999 V2000
   26.1048   17.5192   34.8072 N   0  0  0  0  0  0  0  0  0  0  0  0
   23.3463   15.6785   38.5725 N   0  0  0  0  0  0  0  0  0  0  0  0
   21.3006   10.5134   38.1776 N   0  0  0  0  0  0  0  0  0  0  0  0
   21.8149   15.2487   33.8333 O   0  0  0  0  0  0  0  0  0  0  0  0
   22.5089   16.0780   34.8097 C   0  0  2  0  0  0  0  0  0  0  0  0
   18.2289   15.2876   36.3056 N   0  0  0  0  0  0  0  0  0  0  0  0
   23.9472   17.0241   33.0497 O   0  0  0  0  0  0  0  0  0  0  0  0
   23.9554   16.3728   34.3254 C   0  0  1  0  0  0  0  0  0  0  0  0
   21.2218   15.1708   36.6882 O   0  0  0  0  0  0  0  0  0  0  0  0
   24.7004   17.2643   35.3115 C   0  0  1  0  0  0  0  0  0  0  0  0
   21.0593   12.8861   37.0023 O   0  0  0  0  0  0  0  0  0  0  0  0
   24.7426   16.5732   36.7163 C   0  0  0  0  0  0  0  0  0  0  0  0
   19.6931   13.0118   40.4086 O   0  0  0  0  0  0  0  0  0  0  0  0
   23.2616   16.3230   37.1968 C   0  0  1  0  0  0  0  0  0  0  0  0
   17.6033   14.2196   38.8971 O   0  0  0  0  0  0  0  0  0  0  0  0
   22.5474   15.3698   36.2213 C   0  0  2  0  0  0  0  0  0  0  0  0
   20.4304   14.0558   36.3177 C   0  0  1  0  0  0  0  0  0  0  0  0
   21.0997   12.9307   38.4913 C   0  0  2  0  0  0  0  0  0  0  0  0
   21.8023   11.6656   38.9932 C   0  0  0  0  0  0  0  0  0  0  0  0
   19.6764   12.9673   39.0016 C   0  0  2  0  0  0  0  0  0  0  0  0
   18.9550   14.1840   38.4245 C   0  0  1  0  0  0  0  0  0  0  0  0
   18.9659   14.1041   36.8780 C   0  0  1  0  0  0  0  0  0  0  0  0
  5  4  1  6  0  0  0
  5  8  1  0  0  0  0
  5 16  1  0  0  0  0
  8  7  1  6  0  0  0
  8 10  1  0  0  0  0
 10  1  1  6  0  0  0
 10 12  1  0  0  0  0
 11 18  1  0  0  0  0
 12 14  1  0  0  0  0
 14  2  1  1  0  0  0
 14 16  1  0  0  0  0
 16  9  1  1  0  0  0
 17  9  1  1  0  0  0
 17 11  1  0  0  0  0
 17 22  1  0  0  0  0
 18 19  1  1  0  0  0
 18 20  1  0  0  0  0
 19  3  1  0  0  0  0
 20 13  1  1  0  0  0
 20 21  1  0  0  0  0
 21 15  1  1  0  0  0
 21 22  1  0  0  0  0
 22  6  1  6  0  0  0
M  END
>  <CHROM.1>
84.41484747,70.09965574,-42.04160994,21.65225451,14.73471235,36.83491878
-0.84825202,0.13189365,2.22486153

>  <Name>
2f4s_lig

>  <RI>
0

>  <Rbt.Current_Directory>
/home/itssahil/PROJECTS/Mol_Feturizer/New_Systems/rnas/2f4s

>  <Rbt.Executable>
rbdock ($Id: //depot/dev/client3/rdock/2013.1/src/exe/rbdock.cxx#4 $)

>  <Rbt.Library>
libRbt.so (2013.1, Build901 2013/11/27)

>  <Rbt.Parameter_File>
/export/apps/rDock/src/rDock_2013.1_src/data/scripts/dock_solv.prm

>  <Rbt.Receptor>
prm/pocket_docking_5.prm

>  <SCORE>
-10.558

>  <SCORE.INTER>
-12.7321

>  <SCORE.INTER.CONST>
1

>  <SCORE.INTER.POLAR>
-1.46084

>  <SCORE.INTER.ROT>
3

>  <SCORE.INTER.SOLV>
22.6716

>  <SCORE.INTER.VDW>
-16.7758

>  <SCORE.INTER.norm>
-0.578732

>  <SCORE.INTRA>
2.17406

>  <SCORE.INTRA.DIHEDRAL>
2.58786

>  <SCORE.INTRA.DIHEDRAL.0>
1.67653

>  <SCORE.INTRA.POLAR>
0

>  <SCORE.INTRA.POLAR.0>
0

>  <SCORE.INTRA.REPUL>
0

>  <SCORE.INTRA.REPUL.0>
0

>  <SCORE.INTRA.SOLV>
2.00432

>  <SCORE.INTRA.SOLV.lig_0>
-76.6701

>  <SCORE.INTRA.VDW>
-0.122035

>  <SCORE.INTRA.VDW.0>
-1.53273

>  <SCORE.INTRA.norm>
0.0988207

>  <SCORE.RESTR>
0

>  <SCORE.RESTR.CAVITY>
0

>  <SCORE.RESTR.norm>
0

>  <SCORE.SYSTEM>
0

>  <SCORE.SYSTEM.CONST>
0

>  <SCORE.SYSTEM.DIHEDRAL>
0

>  <SCORE.SYSTEM.SOLV>
0

>  <SCORE.SYSTEM.norm>
0

>  <SCORE.heavy>
22

>  <SCORE.norm>
-0.479911

>  <RMSD>
0.776

$$$$
2f4s_lig
 OpenBabel11021811433D
libRbt.so/2013.1/901 2013/11/27
 22 23  0  0  0  0  0  0  0  0999 V2000
   25.8419   17.3249   34.6810 N   0  0  0  0  0  0  0  0  0  0  0  0
   23.2668   15.5852   38.6203 N   0  0  0  0  0  0  0  0  0  0  0  0
   22.7678   11.4869   38.9925 N   0  0  0  0  0  0  0  0  0  0  0  0
   21.5786   14.9132   33.9632 O   0  0  0  0  0  0  0  0  0  0  0  0
   22.2859   15.8005   34.8771 C   0  0  2  0  0  0  0  0  0  0  0  0
   18.1435   15.2333   36.2443 N   0  0  0  0  0  0  0  0  0  0  0  0
   23.6362   16.7027   33.0267 O   0  0  0  0  0  0  0  0  0  0  0  0
   23.7063   16.1080   34.3279 C   0  0  1  0  0  0  0  0  0  0  0  0
   21.0899   14.9458   36.8387 O   0  0  0  0  0  0  0  0  0  0  0  0
   24.4633   17.0590   35.2469 C   0  0  1  0  0  0  0  0  0  0  0  0
   20.7651   12.6836   37.1876 O   0  0  0  0  0  0  0  0  0  0  0  0
   24.5731   16.4310   36.6775 C   0  0  0  0  0  0  0  0  0  0  0  0
   19.1778   12.9762   40.4862 O   0  0  0  0  0  0  0  0  0  0  0  0
   23.1168   16.1670   37.2223 C   0  0  1  0  0  0  0  0  0  0  0  0
   17.2760   14.2698   38.8069 O   0  0  0  0  0  0  0  0  0  0  0  0
   22.3926   15.1556   36.3154 C   0  0  2  0  0  0  0  0  0  0  0  0
   20.2585   13.8717   36.4366 C   0  0  1  0  0  0  0  0  0  0  0  0
   20.7054   12.7628   38.6746 C   0  0  2  0  0  0  0  0  0  0  0  0
   21.2922   11.4704   39.2507 C   0  0  0  0  0  0  0  0  0  0  0  0
   19.2554   12.8978   39.0827 C   0  0  2  0  0  0  0  0  0  0  0  0
   18.6521   14.1410   38.4313 C   0  0  1  0  0  0  0  0  0  0  0  0
   18.7646   14.0221   36.8914 C   0  0  1  0  0  0  0  0  0  0  0  0
  5  4  1  6  0  0  0
  5  8  1  0  0  0  0
  5 16  1  0  0  0  0
  8  7  1  6  0  0  0
  8 10  1  0  0  0  0
 10  1  1  6  0  0  0
 10 12  1  0  0  0  0
 11 18  1  0  0  0  0
 12 14  1  0  0  0  0
 14  2  1  1  0  0  0
 14 16  1  0  0  0  0
 16  9  1  1  0  0  0
 17  9  1  1  0  0  0
 17 11  1  0  0  0  0
 17 22  1  0  0  0  0
 18 19  1  1  0  0  0
 18 20  1  0  0  0  0
 19  3  1  0  0  0  0
 20 13  1  1  0  0  0
 20 21  1  0  0  0  0
 21 15  1  6  0  0  0
 21 22  1  0  0  0  0
 22  6  1  6  0  0  0
M  END
>  <CHROM.1>
77.49925964,79.24068894,70.20376690,21.46990372,14.62298219,36.91962928,-0.83427413
0.10120027,2.18077158

>  <Name>
2f4s_lig

>  <RI>
0

>  <Rbt.Current_Directory>
/home/itssahil/PROJECTS/Mol_Feturizer/New_Systems/rnas/2f4s

>  <Rbt.Executable>
rbdock ($Id: //depot/dev/client3/rdock/2013.1/src/exe/rbdock.cxx#4 $)

>  <Rbt.Library>
libRbt.so (2013.1, Build901 2013/11/27)

>  <Rbt.Parameter_File>
/export/apps/rDock/src/rDock_2013.1_src/data/scripts/dock_solv.prm

>  <Rbt.Receptor>
prm/pocket_docking_4.prm

>  <SCORE>
-13.2082

>  <SCORE.INTER>
-14.2614

>  <SCORE.INTER.CONST>
1

>  <SCORE.INTER.POLAR>
-1.26427

>  <SCORE.INTER.ROT>
3

>  <SCORE.INTER.SOLV>
18.7539

>  <SCORE.INTER.VDW>
-17.1447

>  <SCORE.INTER.norm>
-0.648244

>  <SCORE.INTRA>
1.0532

>  <SCORE.INTRA.DIHEDRAL>
1.87473

>  <SCORE.INTRA.DIHEDRAL.0>
1.67653

>  <SCORE.INTRA.POLAR>
0

>  <SCORE.INTRA.POLAR.0>
0

>  <SCORE.INTRA.REPUL>
0

>  <SCORE.INTRA.REPUL.0>
0

>  <SCORE.INTRA.SOLV>
0.644361

>  <SCORE.INTRA.SOLV.lig_0>
-76.6701

>  <SCORE.INTRA.VDW>
-0.206341

>  <SCORE.INTRA.VDW.0>
-1.53273

>  <SCORE.INTRA.norm>
0.0478729

>  <SCORE.RESTR>
0

>  <SCORE.RESTR.CAVITY>
0

>  <SCORE.RESTR.norm>
0

>  <SCORE.SYSTEM>
0

>  <SCORE.SYSTEM.CONST>
0

>  <SCORE.SYSTEM.DIHEDRAL>
0

>  <SCORE.SYSTEM.SOLV>
0

>  <SCORE.SYSTEM.norm>
0

>  <SCORE.heavy>
22

>  <SCORE.norm>
-0.600372

>  <RMSD>
0.780

$$$$
2f4s_lig
 OpenBabel11021811433D
libRbt.so/2013.1/901 2013/11/27
 22 23  0  0  0  0  0  0  0  0999 V2000
   25.9077   17.3003   34.7278 N   0  0  0  0  0  0  0  0  0  0  0  0
   23.2908   15.5060   38.6148 N   0  0  0  0  0  0  0  0  0  0  0  0
   22.7510   11.4653   38.9724 N   0  0  0  0  0  0  0  0  0  0  0  0
   21.6162   14.9628   33.9360 O   0  0  0  0  0  0  0  0  0  0  0  0
   22.3309   15.8195   34.8731 C   0  0  2  0  0  0  0  0  0  0  0  0
   18.1754   15.2391   36.1856 N   0  0  0  0  0  0  0  0  0  0  0  0
   23.7018   16.7455   33.0498 O   0  0  0  0  0  0  0  0  0  0  0  0
   23.7578   16.1205   34.3375 C   0  0  1  0  0  0  0  0  0  0  0  0
   21.1142   14.9365   36.8093 O   0  0  0  0  0  0  0  0  0  0  0  0
   24.5229   17.0400   35.2814 C   0  0  1  0  0  0  0  0  0  0  0  0
   20.7740   12.6762   37.1561 O   0  0  0  0  0  0  0  0  0  0  0  0
   24.6175   16.3782   36.6977 C   0  0  0  0  0  0  0  0  0  0  0  0
   19.1557   12.9790   40.4386 O   0  0  0  0  0  0  0  0  0  0  0  0
   23.1553   16.1214   37.2298 C   0  0  1  0  0  0  0  0  0  0  0  0
   17.2774   14.2816   38.7400 O   0  0  0  0  0  0  0  0  0  0  0  0
   22.4220   15.1407   36.2967 C   0  0  2  0  0  0  0  0  0  0  0  0
   20.2812   13.8665   36.3995 C   0  0  1  0  0  0  0  0  0  0  0  0
   20.7001   12.7565   38.6424 C   0  0  2  0  0  0  0  0  0  0  0  0
   21.2743   11.4614   39.2249 C   0  0  0  0  0  0  0  0  0  0  0  0
   19.2469   12.8994   39.0360 C   0  0  2  0  0  0  0  0  0  0  0  0
   18.6566   14.1453   38.3780 C   0  0  1  0  0  0  0  0  0  0  0  0
   18.7836   14.0250   36.8394 C   0  0  1  0  0  0  0  0  0  0  0  0
  5  4  1  6  0  0  0
  5  8  1  0  0  0  0
  5 16  1  0  0  0  0
  8  7  1  6  0  0  0
  8 10  1  0  0  0  0
 10  1  1  6  0  0  0
 10 12  1  0  0  0  0
 11 18  1  0  0  0  0
 12 14  1  0  0  0  0
 14  2  1  1  0  0  0
 14 16  1  0  0  0  0
 16  9  1  1  0  0  0
 17  9  1  1  0  0  0
 17 11  1  0  0  0  0
 17 22  1  0  0  0  0
 18 19  1  1  0  0  0
 18 20  1  0  0  0  0
 19  3  1  0  0  0  0
 20 13  1  1  0  0  0
 20 21  1  0  0  0  0
 21 15  1  6  0  0  0
 21 22  1  0  0  0  0
 22  6  1  6  0  0  0
M  END
>  <CHROM.1>
78.86862719,79.37306049,69.79531391,21.49256004,14.61730256,36.90036161,-0.82353057
0.10137996,2.18598653

>  <Name>
2f4s_lig

>  <RI>
2.46955e+07

>  <Rbt.Current_Directory>
/home/itssahil/PROJECTS/Mol_Feturizer/New_Systems/rnas/2f4s

>  <Rbt.Executable>
rbdock ($Id: //depot/dev/client3/rdock/2013.1/src/exe/rbdock.cxx#4 $)

>  <Rbt.Library>
libRbt.so (2013.1, Build901 2013/11/27)

>  <Rbt.Parameter_File>
/export/apps/rDock/src/rDock_2013.1_src/data/scripts/dock_solv.prm

>  <Rbt.Receptor>
prm/pocket_docking_3.prm

>  <SCORE>
-13.2132

>  <SCORE.INTER>
-14.4123

>  <SCORE.INTER.CONST>
1

>  <SCORE.INTER.POLAR>
-1.28386

>  <SCORE.INTER.ROT>
3

>  <SCORE.INTER.SOLV>
18.8988

>  <SCORE.INTER.VDW>
-17.2283

>  <SCORE.INTER.norm>
-0.655106

>  <SCORE.INTRA>
1.19918

>  <SCORE.INTRA.DIHEDRAL>
2.0751

>  <SCORE.INTRA.DIHEDRAL.0>
1.67653

>  <SCORE.INTRA.POLAR>
0

>  <SCORE.INTRA.POLAR.0>
0

>  <SCORE.INTRA.REPUL>
0

>  <SCORE.INTRA.REPUL.0>
0

>  <SCORE.INTRA.SOLV>
0.799609

>  <SCORE.INTRA.SOLV.lig_0>
-76.6701

>  <SCORE.INTRA.VDW>
-0.238178

>  <SCORE.INTRA.VDW.0>
-1.53273

>  <SCORE.INTRA.norm>
0.0545081

>  <SCORE.RESTR>
0

>  <SCORE.RESTR.CAVITY>
0

>  <SCORE.RESTR.norm>
0

>  <SCORE.SYSTEM>
0

>  <SCORE.SYSTEM.CONST>
0

>  <SCORE.SYSTEM.DIHEDRAL>
0

>  <SCORE.SYSTEM.SOLV>
0

>  <SCORE.SYSTEM.norm>
0

>  <SCORE.heavy>
22

>  <SCORE.norm>
-0.600598

>  <RMSD>
0.782

$$$$
2f4s_lig
 OpenBabel11021811433D
libRbt.so/2013.1/901 2013/11/27
 22 23  0  0  0  0  0  0  0  0999 V2000
   25.9149   17.2300   34.7834 N   0  0  0  0  0  0  0  0  0  0  0  0
   23.2218   15.4448   38.6221 N   0  0  0  0  0  0  0  0  0  0  0  0
   22.8075   11.5887   39.0634 N   0  0  0  0  0  0  0  0  0  0  0  0
   21.5846   14.9914   33.9206 O   0  0  0  0  0  0  0  0  0  0  0  0
   22.3070   15.8220   34.8750 C   0  0  2  0  0  0  0  0  0  0  0  0
   18.0968   15.1760   36.2176 N   0  0  0  0  0  0  0  0  0  0  0  0
   23.7155   16.7408   33.0768 O   0  0  0  0  0  0  0  0  0  0  0  0
   23.7453   16.0996   34.3574 C   0  0  1  0  0  0  0  0  0  0  0  0
   21.0526   14.9417   36.7882 O   0  0  0  0  0  0  0  0  0  0  0  0
   24.5194   16.9920   35.3198 C   0  0  1  0  0  0  0  0  0  0  0  0
   20.7620   12.6840   37.1924 O   0  0  0  0  0  0  0  0  0  0  0  0
   24.5858   16.3118   36.7291 C   0  0  0  0  0  0  0  0  0  0  0  0
   19.2038   13.0317   40.4994 O   0  0  0  0  0  0  0  0  0  0  0  0
   23.1132   16.0791   37.2433 C   0  0  1  0  0  0  0  0  0  0  0  0
   17.2680   14.2606   38.8105 O   0  0  0  0  0  0  0  0  0  0  0  0
   22.3695   15.1248   36.2913 C   0  0  2  0  0  0  0  0  0  0  0  0
   20.2319   13.8476   36.4194 C   0  0  1  0  0  0  0  0  0  0  0  0
   20.7161   12.7968   38.6777 C   0  0  2  0  0  0  0  0  0  0  0  0
   21.3260   11.5261   39.2773 C   0  0  0  0  0  0  0  0  0  0  0  0
   19.2685   12.9219   39.0974 C   0  0  2  0  0  0  0  0  0  0  0  0
   18.6419   14.1415   38.4238 C   0  0  1  0  0  0  0  0  0  0  0  0
   18.7407   13.9885   36.8860 C   0  0  1  0  0  0  0  0  0  0  0  0
  5  4  1  6  0  0  0
  5  8  1  0  0  0  0
  5 16  1  0  0  0  0
  8  7  1  6  0  0  0
  8 10  1  0  0  0  0
 10  1  1  6  0  0  0
 10 12  1  0  0  0  0
 11 18  1  0  0  0  0
 12 14  1  0  0  0  0
 14  2  1  1  0  0  0
 14 16  1  0  0  0  0
 16  9  1  1  0  0  0
 17  9  1  1  0  0  0
 17 11  1  0  0  0  0
 17 22  1  0  0  0  0
 18 19  1  1  0  0  0
 18 20  1  0  0  0  0
 19  3  1  0  0  0  0
 20 13  1  1  0  0  0
 20 21  1  0  0  0  0
 21 15  1  6  0  0  0
 21 22  1  0  0  0  0
 22  6  1  6  0  0  0
M  END
>  <CHROM.1>
82.88620917,76.38840580,72.95213040,21.47841119,14.61248378,36.93231911,-0.82069297
0.10594387,2.16561664

>  <Name>
2f4s_lig

>  <RI>
2.00194e+07

>  <Rbt.Current_Directory>
/home/itssahil/PROJECTS/Mol_Feturizer/New_Systems/rnas/2f4s

>  <Rbt.Executable>
rbdock ($Id: //depot/dev/client3/rdock/2013.1/src/exe/rbdock.cxx#4 $)

>  <Rbt.Library>
libRbt.so (2013.1, Build901 2013/11/27)

>  <Rbt.Parameter_File>
/export/apps/rDock/src/rDock_2013.1_src/data/scripts/dock_solv.prm

>  <Rbt.Receptor>
prm/pocket_docking_6.prm

>  <SCORE>
-13.2207

>  <SCORE.INTER>
-14.7459

>  <SCORE.INTER.CONST>
1

>  <SCORE.INTER.POLAR>
-1.28361

>  <SCORE.INTER.ROT>
3

>  <SCORE.INTER.SOLV>
18.4539

>  <SCORE.INTER.VDW>
-17.3033

>  <SCORE.INTER.norm>
-0.67027

>  <SCORE.INTRA>
1.52525

>  <SCORE.INTRA.DIHEDRAL>
2.54774

>  <SCORE.INTRA.DIHEDRAL.0>
1.67653

>  <SCORE.INTRA.POLAR>
0

>  <SCORE.INTRA.POLAR.0>
0

>  <SCORE.INTRA.REPUL>
0

>  <SCORE.INTRA.REPUL.0>
0

>  <SCORE.INTRA.SOLV>
1.20113

>  <SCORE.INTRA.SOLV.lig_0>
-76.6701

>  <SCORE.INTRA.VDW>
-0.349187

>  <SCORE.INTRA.VDW.0>
-1.53273

>  <SCORE.INTRA.norm>
0.0693293

>  <SCORE.RESTR>
0

>  <SCORE.RESTR.CAVITY>
0

>  <SCORE.RESTR.norm>
0

>  <SCORE.SYSTEM>
0

>  <SCORE.SYSTEM.CONST>
0

>  <SCORE.SYSTEM.DIHEDRAL>
0

>  <SCORE.SYSTEM.SOLV>
0

>  <SCORE.SYSTEM.norm>
0

>  <SCORE.heavy>
22

>  <SCORE.norm>
-0.600941

>  <RMSD>
0.785

$$$$
2f4s_lig
 OpenBabel11021811433D
libRbt.so/2013.1/901 2013/11/27
 22 23  0  0  0  0  0  0  0  0999 V2000
   25.8747   17.3027   34.7483 N   0  0  0  0  0  0  0  0  0  0  0  0
   23.2992   15.5372   38.6758 N   0  0  0  0  0  0  0  0  0  0  0  0
   21.9820   11.4232   40.3819 N   0  0  0  0  0  0  0  0  0  0  0  0
   21.5539   14.9983   34.0225 O   0  0  0  0  0  0  0  0  0  0  0  0
   22.2886   15.8510   34.9476 C   0  0  2  0  0  0  0  0  0  0  0  0
   18.1021   15.2821   36.6138 N   0  0  0  0  0  0  0  0  0  0  0  0
   23.6409   16.7624   33.1030 O   0  0  0  0  0  0  0  0  0  0  0  0
   23.7101   16.1394   34.3911 C   0  0  1  0  0  0  0  0  0  0  0  0
   21.0926   14.9816   36.9027 O   0  0  0  0  0  0  0  0  0  0  0  0
   24.4960   17.0547   35.3220 C   0  0  1  0  0  0  0  0  0  0  0  0
   20.8132   12.6928   37.0712 O   0  0  0  0  0  0  0  0  0  0  0  0
   24.6054   16.3949   36.7383 C   0  0  0  0  0  0  0  0  0  0  0  0
   19.5410   12.6629   40.5159 O   0  0  0  0  0  0  0  0  0  0  0  0
   23.1489   16.1509   37.2916 C   0  0  1  0  0  0  0  0  0  0  0  0
   17.4836   14.0780   39.1467 O   0  0  0  0  0  0  0  0  0  0  0  0
   22.3946   15.1743   36.3711 C   0  0  2  0  0  0  0  0  0  0  0  0
   20.2325   13.9374   36.4827 C   0  0  1  0  0  0  0  0  0  0  0  0
   20.8930   12.6357   38.5582 C   0  0  2  0  0  0  0  0  0  0  0  0
   21.5376   11.3044   38.9562 C   0  0  0  0  0  0  0  0  0  0  0  0
   19.4870   12.7134   39.1100 C   0  0  2  0  0  0  0  0  0  0  0  0
   18.8191   14.0024   38.6344 C   0  0  1  0  0  0  0  0  0  0  0  0
   18.7871   14.0256   37.0864 C   0  0  1  0  0  0  0  0  0  0  0  0
  5  4  1  6  0  0  0
  5  8  1  0  0  0  0
  5 16  1  0  0  0  0
  8  7  1  6  0  0  0
  8 10  1  0  0  0  0
 10  1  1  6  0  0  0
 10 12  1  0  0  0  0
 11 18  1  0  0  0  0
 12 14  1  0  0  0  0
 14  2  1  1  0  0  0
 14 16  1  0  0  0  0
 16  9  1  1  0  0  0
 17  9  1  1  0  0  0
 17 11  1  0  0  0  0
 17 22  1  0  0  0  0
 18 19  1  6  0  0  0
 18 20  1  0  0  0  0
 19  3  1  0  0  0  0
 20 13  1  1  0  0  0
 20 21  1  0  0  0  0
 21 15  1  1  0  0  0
 21 22  1  0  0  0  0
 22  6  1  1  0  0  0
M  END
>  <CHROM.1>
77.23524529,72.83784436,163.45198764,21.50660467,14.58112090,37.04627772
-0.88763213,0.13521356,2.17039455

>  <Name>
2f4s_lig

>  <RI>
2.46955e+07

>  <Rbt.Current_Directory>
/home/itssahil/PROJECTS/Mol_Feturizer/New_Systems/rnas/2f4s

>  <Rbt.Executable>
rbdock ($Id: //depot/dev/client3/rdock/2013.1/src/exe/rbdock.cxx#4 $)

>  <Rbt.Library>
libRbt.so (2013.1, Build901 2013/11/27)

>  <Rbt.Parameter_File>
/export/apps/rDock/src/rDock_2013.1_src/data/scripts/dock_solv.prm

>  <Rbt.Receptor>
prm/pocket_docking_3.prm

>  <SCORE>
-13.7473

>  <SCORE.INTER>
-15.0141

>  <SCORE.INTER.CONST>
1

>  <SCORE.INTER.POLAR>
-1.18563

>  <SCORE.INTER.ROT>
3

>  <SCORE.INTER.SOLV>
16.1418

>  <SCORE.INTER.VDW>
-17.0379

>  <SCORE.INTER.norm>
-0.68246

>  <SCORE.INTRA>
1.26684

>  <SCORE.INTRA.DIHEDRAL>
1.51611

>  <SCORE.INTRA.DIHEDRAL.0>
1.67653

>  <SCORE.INTRA.POLAR>
0

>  <SCORE.INTRA.POLAR.0>
0

>  <SCORE.INTRA.REPUL>
0

>  <SCORE.INTRA.REPUL.0>
0

>  <SCORE.INTRA.SOLV>
1.08972

>  <SCORE.INTRA.SOLV.lig_0>
-76.6701

>  <SCORE.INTRA.VDW>
-0.0360788

>  <SCORE.INTRA.VDW.0>
-1.53273

>  <SCORE.INTRA.norm>
0.0575834

>  <SCORE.RESTR>
0

>  <SCORE.RESTR.CAVITY>
0

>  <SCORE.RESTR.norm>
0

>  <SCORE.SYSTEM>
0

>  <SCORE.SYSTEM.CONST>
0

>  <SCORE.SYSTEM.DIHEDRAL>
0

>  <SCORE.SYSTEM.SOLV>
0

>  <SCORE.SYSTEM.norm>
0

>  <SCORE.heavy>
22

>  <SCORE.norm>
-0.624877

>  <RMSD>
0.799

$$$$
2f4s_lig
 OpenBabel11021811433D
libRbt.so/2013.1/901 2013/11/27
 22 23  0  0  0  0  0  0  0  0999 V2000
   25.8793   17.3040   34.7450 N   0  0  0  0  0  0  0  0  0  0  0  0
   23.2834   15.5159   38.6488 N   0  0  0  0  0  0  0  0  0  0  0  0
   21.9674   11.4782   40.4029 N   0  0  0  0  0  0  0  0  0  0  0  0
   21.5394   15.0460   33.9874 O   0  0  0  0  0  0  0  0  0  0  0  0
   22.2804   15.8816   34.9232 C   0  0  2  0  0  0  0  0  0  0  0  0
   18.0799   15.2698   36.5880 N   0  0  0  0  0  0  0  0  0  0  0  0
   23.6430   16.8023   33.0909 O   0  0  0  0  0  0  0  0  0  0  0  0
   23.7051   16.1639   34.3718 C   0  0  1  0  0  0  0  0  0  0  0  0
   21.0743   15.0002   36.8667 O   0  0  0  0  0  0  0  0  0  0  0  0
   24.4977   17.0615   35.3142 C   0  0  1  0  0  0  0  0  0  0  0  0
   20.8164   12.7114   37.0664 O   0  0  0  0  0  0  0  0  0  0  0  0
   24.5995   16.3845   36.7228 C   0  0  0  0  0  0  0  0  0  0  0  0
   19.5605   12.7151   40.5172 O   0  0  0  0  0  0  0  0  0  0  0  0
   23.1403   16.1469   37.2716 C   0  0  1  0  0  0  0  0  0  0  0  0
   17.4840   14.0935   39.1393 O   0  0  0  0  0  0  0  0  0  0  0  0
   22.3786   15.1875   36.3390 C   0  0  2  0  0  0  0  0  0  0  0  0
   20.2218   13.9428   36.4645 C   0  0  1  0  0  0  0  0  0  0  0  0
   20.9036   12.6744   38.5537 C   0  0  2  0  0  0  0  0  0  0  0  0
   21.5621   11.3543   38.9659 C   0  0  0  0  0  0  0  0  0  0  0  0
   19.4995   12.7467   39.1111 C   0  0  2  0  0  0  0  0  0  0  0  0
   18.8178   14.0233   38.6218 C   0  0  1  0  0  0  0  0  0  0  0  0
   18.7785   14.0259   37.0738 C   0  0  1  0  0  0  0  0  0  0  0  0
  5  4  1  6  0  0  0
  5  8  1  0  0  0  0
  5 16  1  0  0  0  0
  8  7  1  6  0  0  0
  8 10  1  0  0  0  0
 10  1  1  6  0  0  0
 10 12  1  0  0  0  0
 11 18  1  0  0  0  0
 12 14  1  0  0  0  0
 14  2  1  1  0  0  0
 14 16  1  0  0  0  0
 16  9  1  1  0  0  0
 17  9  1  1  0  0  0
 17 11  1  0  0  0  0
 17 22  1  0  0  0  0
 18 19  1  6  0  0  0
 18 20  1  0  0  0  0
 19  3  1  0  0  0  0
 20 13  1  1  0  0  0
 20 21  1  0  0  0  0
 21 15  1  1  0  0  0
 21 22  1  0  0  0  0
 22  6  1  1  0  0  0
M  END
>  <CHROM.1>
79.31931205,72.00619260,165.46518832,21.50348698,14.60097747,37.03326750
-0.88875186,0.13739082,2.16378249

>  <Name>
2f4s_lig

>  <RI>
2.46955e+07

>  <Rbt.Current_Directory>
/home/itssahil/PROJECTS/Mol_Feturizer/New_Systems/rnas/2f4s

>  <Rbt.Executable>
rbdock ($Id: //depot/dev/client3/rdock/2013.1/src/exe/rbdock.cxx#4 $)

>  <Rbt.Library>
libRbt.so (2013.1, Build901 2013/11/27)

>  <Rbt.Parameter_File>
/export/apps/rDock/src/rDock_2013.1_src/data/scripts/dock_solv.prm

>  <Rbt.Receptor>
prm/pocket_docking_3.prm

>  <SCORE>
-13.7404

>  <SCORE.INTER>
-15.0791

>  <SCORE.INTER.CONST>
1

>  <SCORE.INTER.POLAR>
-1.1949

>  <SCORE.INTER.ROT>
3

>  <SCORE.INTER.SOLV>
15.989

>  <SCORE.INTER.VDW>
-16.9994

>  <SCORE.INTER.norm>
-0.685414

>  <SCORE.INTRA>
1.33868

>  <SCORE.INTRA.DIHEDRAL>
1.5417

>  <SCORE.INTRA.DIHEDRAL.0>
1.67653

>  <SCORE.INTRA.POLAR>
0

>  <SCORE.INTRA.POLAR.0>
0

>  <SCORE.INTRA.REPUL>
0

>  <SCORE.INTRA.REPUL.0>
0

>  <SCORE.INTRA.SOLV>
1.25031

>  <SCORE.INTRA.SOLV.lig_0>
-76.6701

>  <SCORE.INTRA.VDW>
-0.0573243

>  <SCORE.INTRA.VDW.0>
-1.53273

>  <SCORE.INTRA.norm>
0.0608492

>  <SCORE.RESTR>
0

>  <SCORE.RESTR.CAVITY>
0

>  <SCORE.RESTR.norm>
0

>  <SCORE.SYSTEM>
0

>  <SCORE.SYSTEM.CONST>
0

>  <SCORE.SYSTEM.DIHEDRAL>
0

>  <SCORE.SYSTEM.SOLV>
0

>  <SCORE.SYSTEM.norm>
0

>  <SCORE.heavy>
22

>  <SCORE.norm>
-0.624565

>  <RMSD>
0.809

$$$$
2f4s_lig
 OpenBabel11021811433D
libRbt.so/2013.1/901 2013/11/27
 22 23  0  0  0  0  0  0  0  0999 V2000
   25.9134   17.3190   34.7300 N   0  0  0  0  0  0  0  0  0  0  0  0
   23.2990   15.5778   38.6427 N   0  0  0  0  0  0  0  0  0  0  0  0
   21.9602   11.4992   40.3983 N   0  0  0  0  0  0  0  0  0  0  0  0
   21.6028   15.0045   33.9753 O   0  0  0  0  0  0  0  0  0  0  0  0
   22.3270   15.8645   34.9020 C   0  0  2  0  0  0  0  0  0  0  0  0
   18.1233   15.2897   36.5232 N   0  0  0  0  0  0  0  0  0  0  0  0
   23.6974   16.7647   33.0653 O   0  0  0  0  0  0  0  0  0  0  0  0
   23.7539   16.1508   34.3583 C   0  0  1  0  0  0  0  0  0  0  0  0
   21.1116   15.0074   36.8505 O   0  0  0  0  0  0  0  0  0  0  0  0
   24.5290   17.0734   35.2910 C   0  0  1  0  0  0  0  0  0  0  0  0
   20.8404   12.7201   37.0502 O   0  0  0  0  0  0  0  0  0  0  0  0
   24.6244   16.4236   36.7129 C   0  0  0  0  0  0  0  0  0  0  0  0
   19.5291   12.7359   40.4804 O   0  0  0  0  0  0  0  0  0  0  0  0
   23.1625   16.1818   37.2527 C   0  0  1  0  0  0  0  0  0  0  0  0
   17.4812   14.1208   39.0666 O   0  0  0  0  0  0  0  0  0  0  0  0
   22.4189   15.1978   36.3313 C   0  0  2  0  0  0  0  0  0  0  0  0
   20.2610   13.9530   36.4366 C   0  0  1  0  0  0  0  0  0  0  0  0
   20.9034   12.6856   38.5388 C   0  0  2  0  0  0  0  0  0  0  0  0
   21.5493   11.3634   38.9640 C   0  0  0  0  0  0  0  0  0  0  0  0
   19.4909   12.7651   39.0733 C   0  0  2  0  0  0  0  0  0  0  0  0
   18.8228   14.0438   38.5708 C   0  0  1  0  0  0  0  0  0  0  0  0
   18.8084   14.0436   37.0223 C   0  0  1  0  0  0  0  0  0  0  0  0
  5  4  1  6  0  0  0
  5  8  1  0  0  0  0
  5 16  1  0  0  0  0
  8  7  1  6  0  0  0
  8 10  1  0  0  0  0
 10  1  1  6  0  0  0
 10 12  1  0  0  0  0
 11 18  1  0  0  0  0
 12 14  1  0  0  0  0
 14  2  1  1  0  0  0
 14 16  1  0  0  0  0
 16  9  1  1  0  0  0
 17  9  1  1  0  0  0
 17 11  1  0  0  0  0
 17 22  1  0  0  0  0
 18 19  1  6  0  0  0
 18 20  1  0  0  0  0
 19  3  1  0  0  0  0
 20 13  1  1  0  0  0
 20 21  1  0  0  0  0
 21 15  1  1  0  0  0
 21 22  1  0  0  0  0
 22  6  1  6  0  0  0
M  END
>  <CHROM.1>
77.74652637,72.82229281,164.20159412,21.52605277,14.61208954,37.00816223
-0.88045655,0.14486874,2.15653982

>  <Name>
2f4s_lig

>  <RI>
2.46955e+07

>  <Rbt.Current_Directory>
/home/itssahil/PROJECTS/Mol_Feturizer/New_Systems/rnas/2f4s

>  <Rbt.Executable>
rbdock ($Id: //depot/dev/client3/rdock/2013.1/src/exe/rbdock.cxx#4 $)

>  <Rbt.Library>
libRbt.so (2013.1, Build901 2013/11/27)

>  <Rbt.Parameter_File>
/export/apps/rDock/src/rDock_2013.1_src/data/scripts/dock_solv.prm

>  <Rbt.Receptor>
prm/pocket_docking_3.prm

>  <SCORE>
-13.7449

>  <SCORE.INTER>
-15.0372

>  <SCORE.INTER.CONST>
1

>  <SCORE.INTER.POLAR>
-1.23495

>  <SCORE.INTER.ROT>
3

>  <SCORE.INTER.SOLV>
16.0677

>  <SCORE.INTER.VDW>
-16.8642

>  <SCORE.INTER.norm>
-0.683508

>  <SCORE.INTRA>
1.29224

>  <SCORE.INTRA.DIHEDRAL>
1.51302

>  <SCORE.INTRA.DIHEDRAL.0>
1.67653

>  <SCORE.INTRA.POLAR>
0

>  <SCORE.INTRA.POLAR.0>
0

>  <SCORE.INTRA.REPUL>
0

>  <SCORE.INTRA.REPUL.0>
0

>  <SCORE.INTRA.SOLV>
1.13739

>  <SCORE.INTRA.SOLV.lig_0>
-76.6701

>  <SCORE.INTRA.VDW>
-0.0329707

>  <SCORE.INTRA.VDW.0>
-1.53273

>  <SCORE.INTRA.norm>
0.058738

>  <SCORE.RESTR>
0

>  <SCORE.RESTR.CAVITY>
0

>  <SCORE.RESTR.norm>
0

>  <SCORE.SYSTEM>
0

>  <SCORE.SYSTEM.CONST>
0

>  <SCORE.SYSTEM.DIHEDRAL>
0

>  <SCORE.SYSTEM.SOLV>
0

>  <SCORE.SYSTEM.norm>
0

>  <SCORE.heavy>
22

>  <SCORE.norm>
-0.62477

>  <RMSD>
0.813

$$$$
2f4s_lig
 OpenBabel11021811433D
libRbt.so/2013.1/901 2013/11/27
 22 23  0  0  0  0  0  0  0  0999 V2000
   25.8828   17.3044   34.7450 N   0  0  0  0  0  0  0  0  0  0  0  0
   23.2661   15.5352   38.6436 N   0  0  0  0  0  0  0  0  0  0  0  0
   21.9568   11.4952   40.4085 N   0  0  0  0  0  0  0  0  0  0  0  0
   21.5549   15.0280   33.9739 O   0  0  0  0  0  0  0  0  0  0  0  0
   22.2871   15.8722   34.9089 C   0  0  2  0  0  0  0  0  0  0  0  0
   18.0761   15.2563   36.5592 N   0  0  0  0  0  0  0  0  0  0  0  0
   23.6591   16.7845   33.0795 O   0  0  0  0  0  0  0  0  0  0  0  0
   23.7146   16.1552   34.3651 C   0  0  1  0  0  0  0  0  0  0  0  0
   21.0706   15.0005   36.8503 O   0  0  0  0  0  0  0  0  0  0  0  0
   24.4981   17.0616   35.3066 C   0  0  1  0  0  0  0  0  0  0  0  0
   20.8216   12.7116   37.0595 O   0  0  0  0  0  0  0  0  0  0  0  0
   24.5925   16.3946   36.7205 C   0  0  0  0  0  0  0  0  0  0  0  0
   19.5527   12.7258   40.5056 O   0  0  0  0  0  0  0  0  0  0  0  0
   23.1303   16.1563   37.2611 C   0  0  1  0  0  0  0  0  0  0  0  0
   17.4757   14.0892   39.1137 O   0  0  0  0  0  0  0  0  0  0  0  0
   22.3779   15.1883   36.3300 C   0  0  2  0  0  0  0  0  0  0  0  0
   20.2240   13.9377   36.4498 C   0  0  1  0  0  0  0  0  0  0  0  0
   20.9033   12.6818   38.5473 C   0  0  2  0  0  0  0  0  0  0  0  0
   21.5658   11.3664   38.9680 C   0  0  0  0  0  0  0  0  0  0  0  0
   19.4969   12.7508   39.0991 C   0  0  2  0  0  0  0  0  0  0  0  0
   18.8116   14.0222   38.6015 C   0  0  1  0  0  0  0  0  0  0  0  0
   18.7781   14.0175   37.0533 C   0  0  1  0  0  0  0  0  0  0  0  0
  5  4  1  6  0  0  0
  5  8  1  0  0  0  0
  5 16  1  0  0  0  0
  8  7  1  6  0  0  0
  8 10  1  0  0  0  0
 10  1  1  6  0  0  0
 10 12  1  0  0  0  0
 11 18  1  0  0  0  0
 12 14  1  0  0  0  0
 14  2  1  1  0  0  0
 14 16  1  0  0  0  0
 16  9  1  1  0  0  0
 17  9  1  1  0  0  0
 17 11  1  0  0  0  0
 17 22  1  0  0  0  0
 18 19  1  6  0  0  0
 18 20  1  0  0  0  0
 19  3  1  0  0  0  0
 20 13  1  1  0  0  0
 20 21  1  0  0  0  0
 21 15  1  1  0  0  0
 21 22  1  0  0  0  0
 22  6  1  6  0  0  0
M  END
>  <CHROM.1>
79.32582265,71.77714543,165.84445217,21.50289131,14.60107439,37.02243835
-0.88599904,0.14296828,2.15801040

>  <Name>
2f4s_lig

>  <RI>
2.00194e+07

>  <Rbt.Current_Directory>
/home/itssahil/PROJECTS/Mol_Feturizer/New_Systems/rnas/2f4s

>  <Rbt.Executable>
rbdock ($Id: //depot/dev/client3/rdock/2013.1/src/exe/rbdock.cxx#4 $)

>  <Rbt.Library>
libRbt.so (2013.1, Build901 2013/11/27)

>  <Rbt.Parameter_File>
/export/apps/rDock/src/rDock_2013.1_src/data/scripts/dock_solv.prm

>  <Rbt.Receptor>
prm/pocket_docking_6.prm

>  <SCORE>
-13.7669

>  <SCORE.INTER>
-15.0892

>  <SCORE.INTER.CONST>
1

>  <SCORE.INTER.POLAR>
-1.21703

>  <SCORE.INTER.ROT>
3

>  <SCORE.INTER.SOLV>
16.0157

>  <SCORE.INTER.VDW>
-16.9413

>  <SCORE.INTER.norm>
-0.685873

>  <SCORE.INTRA>
1.32232

>  <SCORE.INTRA.DIHEDRAL>
1.4829

>  <SCORE.INTRA.DIHEDRAL.0>
1.67653

>  <SCORE.INTRA.POLAR>
0

>  <SCORE.INTRA.POLAR.0>
0

>  <SCORE.INTRA.REPUL>
0

>  <SCORE.INTRA.REPUL.0>
0

>  <SCORE.INTRA.SOLV>
1.25806

>  <SCORE.INTRA.SOLV.lig_0>
-76.6701

>  <SCORE.INTRA.VDW>
-0.0481609

>  <SCORE.INTRA.VDW.0>
-1.53273

>  <SCORE.INTRA.norm>
0.0601056

>  <SCORE.RESTR>
0

>  <SCORE.RESTR.CAVITY>
0

>  <SCORE.RESTR.norm>
0

>  <SCORE.SYSTEM>
0

>  <SCORE.SYSTEM.CONST>
0

>  <SCORE.SYSTEM.DIHEDRAL>
0

>  <SCORE.SYSTEM.SOLV>
0

>  <SCORE.SYSTEM.norm>
0

>  <SCORE.heavy>
22

>  <SCORE.norm>
-0.625768

>  <RMSD>
0.820

$$$$
2f4s_lig
 OpenBabel11021811433D
libRbt.so/2013.1/901 2013/11/27
 22 23  0  0  0  0  0  0  0  0999 V2000
   25.8426   17.3123   34.6895 N   0  0  0  0  0  0  0  0  0  0  0  0
   23.1967   15.5824   38.5859 N   0  0  0  0  0  0  0  0  0  0  0  0
   22.7441   11.5505   38.9653 N   0  0  0  0  0  0  0  0  0  0  0  0
   21.5632   14.9510   33.9037 O   0  0  0  0  0  0  0  0  0  0  0  0
   22.2679   15.8261   34.8312 C   0  0  2  0  0  0  0  0  0  0  0  0
   18.0873   15.2427   36.1838 N   0  0  0  0  0  0  0  0  0  0  0  0
   23.6524   16.7222   33.0032 O   0  0  0  0  0  0  0  0  0  0  0  0
   23.6987   16.1206   34.3023 C   0  0  1  0  0  0  0  0  0  0  0  0
   21.0368   14.9754   36.7726 O   0  0  0  0  0  0  0  0  0  0  0  0
   24.4538   17.0589   35.2359 C   0  0  1  0  0  0  0  0  0  0  0  0
   20.7260   12.7129   37.1329 O   0  0  0  0  0  0  0  0  0  0  0  0
   24.5377   16.4230   36.6647 C   0  0  0  0  0  0  0  0  0  0  0  0
   19.1447   13.0118   40.4338 O   0  0  0  0  0  0  0  0  0  0  0  0
   23.0716   16.1724   37.1889 C   0  0  1  0  0  0  0  0  0  0  0  0
   17.2314   14.2863   38.7530 O   0  0  0  0  0  0  0  0  0  0  0  0
   22.3484   15.1733   36.2676 C   0  0  2  0  0  0  0  0  0  0  0  0
   20.2107   13.8945   36.3775 C   0  0  1  0  0  0  0  0  0  0  0  0
   20.6694   12.7988   38.6197 C   0  0  2  0  0  0  0  0  0  0  0  0
   21.2650   11.5126   39.2004 C   0  0  0  0  0  0  0  0  0  0  0  0
   19.2196   12.9272   39.0305 C   0  0  2  0  0  0  0  0  0  0  0  0
   18.6075   14.1638   38.3747 C   0  0  1  0  0  0  0  0  0  0  0  0
   18.7170   14.0383   36.8351 C   0  0  1  0  0  0  0  0  0  0  0  0
  5  4  1  6  0  0  0
  5  8  1  0  0  0  0
  5 16  1  0  0  0  0
  8  7  1  6  0  0  0
  8 10  1  0  0  0  0
 10  1  1  6  0  0  0
 10 12  1  0  0  0  0
 11 18  1  0  0  0  0
 12 14  1  0  0  0  0
 14  2  1  1  0  0  0
 14 16  1  0  0  0  0
 16  9  1  1  0  0  0
 17  9  1  1  0  0  0
 17 11  1  0  0  0  0
 17 22  1  0  0  0  0
 18 19  1  1  0  0  0
 18 20  1  0  0  0  0
 19  3  1  0  0  0  0
 20 13  1  1  0  0  0
 20 21  1  0  0  0  0
 21 15  1  6  0  0  0
 21 22  1  0  0  0  0
 22  6  1  6  0  0  0
M  END
>  <CHROM.1>
79.01986150,77.77915889,71.41969307,21.43750954,14.64370899,36.87709031,-0.82508645
0.10506909,2.17442858

>  <Name>
2f4s_lig

>  <RI>
0

>  <Rbt.Current_Directory>
/home/itssahil/PROJECTS/Mol_Feturizer/New_Systems/rnas/2f4s

>  <Rbt.Executable>
rbdock ($Id: //depot/dev/client3/rdock/2013.1/src/exe/rbdock.cxx#4 $)

>  <Rbt.Library>
libRbt.so (2013.1, Build901 2013/11/27)

>  <Rbt.Parameter_File>
/export/apps/rDock/src/rDock_2013.1_src/data/scripts/dock_solv.prm

>  <Rbt.Receptor>
prm/pocket_docking_4.prm

>  <SCORE>
-13.2267

>  <SCORE.INTER>
-14.3664

>  <SCORE.INTER.CONST>
1

>  <SCORE.INTER.POLAR>
-1.30631

>  <SCORE.INTER.ROT>
3

>  <SCORE.INTER.SOLV>
18.5183

>  <SCORE.INTER.VDW>
-16.996

>  <SCORE.INTER.norm>
-0.653017

>  <SCORE.INTRA>
1.13967

>  <SCORE.INTRA.DIHEDRAL>
1.97751

>  <SCORE.INTRA.DIHEDRAL.0>
1.67653

>  <SCORE.INTRA.POLAR>
0

>  <SCORE.INTRA.POLAR.0>
0

>  <SCORE.INTRA.REPUL>
0

>  <SCORE.INTRA.REPUL.0>
0

>  <SCORE.INTRA.SOLV>
0.790447

>  <SCORE.INTRA.SOLV.lig_0>
-76.6701

>  <SCORE.INTRA.VDW>
-0.244307

>  <SCORE.INTRA.VDW.0>
-1.53273

>  <SCORE.INTRA.norm>
0.0518033

>  <SCORE.RESTR>
0

>  <SCORE.RESTR.CAVITY>
0

>  <SCORE.RESTR.norm>
0

>  <SCORE.SYSTEM>
0

>  <SCORE.SYSTEM.CONST>
0

>  <SCORE.SYSTEM.DIHEDRAL>
0

>  <SCORE.SYSTEM.SOLV>
0

>  <SCORE.SYSTEM.norm>
0

>  <SCORE.heavy>
22

>  <SCORE.norm>
-0.601213

>  <RMSD>
0.821

$$$$
2f4s_lig
 OpenBabel11021811433D
libRbt.so/2013.1/901 2013/11/27
 22 23  0  0  0  0  0  0  0  0999 V2000
   25.8387   17.3578   34.6376 N   0  0  0  0  0  0  0  0  0  0  0  0
   23.2417   15.6127   38.5601 N   0  0  0  0  0  0  0  0  0  0  0  0
   22.7355   11.5325   38.9503 N   0  0  0  0  0  0  0  0  0  0  0  0
   21.5687   14.9660   33.8939 O   0  0  0  0  0  0  0  0  0  0  0  0
   22.2760   15.8468   34.8141 C   0  0  2  0  0  0  0  0  0  0  0  0
   18.1251   15.2942   36.1703 N   0  0  0  0  0  0  0  0  0  0  0  0
   23.6369   16.7510   32.9724 O   0  0  0  0  0  0  0  0  0  0  0  0
   23.6997   16.1508   34.2716 C   0  0  1  0  0  0  0  0  0  0  0  0
   21.0691   14.9891   36.7677 O   0  0  0  0  0  0  0  0  0  0  0  0
   24.4569   17.0951   35.1972 C   0  0  1  0  0  0  0  0  0  0  0  0
   20.7337   12.7256   37.0982 O   0  0  0  0  0  0  0  0  0  0  0  0
   24.5587   16.4610   36.6257 C   0  0  0  0  0  0  0  0  0  0  0  0
   19.1416   12.9993   40.3961 O   0  0  0  0  0  0  0  0  0  0  0  0
   23.0994   16.2007   37.1639 C   0  0  1  0  0  0  0  0  0  0  0  0
   17.2486   14.3145   38.7236 O   0  0  0  0  0  0  0  0  0  0  0  0
   22.3746   15.1957   36.2502 C   0  0  2  0  0  0  0  0  0  0  0  0
   20.2337   13.9218   36.3556 C   0  0  1  0  0  0  0  0  0  0  0  0
   20.6716   12.7934   38.5857 C   0  0  2  0  0  0  0  0  0  0  0  0
   21.2516   11.4939   39.1526 C   0  0  0  0  0  0  0  0  0  0  0  0
   19.2215   12.9316   38.9922 C   0  0  2  0  0  0  0  0  0  0  0  0
   18.6249   14.1825   38.3495 C   0  0  1  0  0  0  0  0  0  0  0  0
   18.7397   14.0753   36.8089 C   0  0  1  0  0  0  0  0  0  0  0  0
  5  4  1  6  0  0  0
  5  8  1  0  0  0  0
  5 16  1  0  0  0  0
  8  7  1  6  0  0  0
  8 10  1  0  0  0  0
 10  1  1  6  0  0  0
 10 12  1  0  0  0  0
 11 18  1  0  0  0  0
 12 14  1  0  0  0  0
 14  2  1  1  0  0  0
 14 16  1  0  0  0  0
 16  9  1  1  0  0  0
 17  9  1  1  0  0  0
 17 11  1  0  0  0  0
 17 22  1  0  0  0  0
 18 19  1  1  0  0  0
 18 20  1  0  0  0  0
 19  3  1  0  0  0  0
 20 13  1  1  0  0  0
 20 21  1  0  0  0  0
 21 15  1  6  0  0  0
 21 22  1  0  0  0  0
 22  6  1  6  0  0  0
M  END
>  <CHROM.1>
77.33355193,79.12223601,72.60473315,21.44890120,14.66316150,36.84926461,-0.82952120
0.10120983,2.18407524

>  <Name>
2f4s_lig

>  <RI>
2.00194e+07

>  <Rbt.Current_Directory>
/home/itssahil/PROJECTS/Mol_Feturizer/New_Systems/rnas/2f4s

>  <Rbt.Executable>
rbdock ($Id: //depot/dev/client3/rdock/2013.1/src/exe/rbdock.cxx#4 $)

>  <Rbt.Library>
libRbt.so (2013.1, Build901 2013/11/27)

>  <Rbt.Parameter_File>
/export/apps/rDock/src/rDock_2013.1_src/data/scripts/dock_solv.prm

>  <Rbt.Receptor>
prm/pocket_docking_6.prm

>  <SCORE>
-13.1979

>  <SCORE.INTER>
-14.3156

>  <SCORE.INTER.CONST>
1

>  <SCORE.INTER.POLAR>
-1.31039

>  <SCORE.INTER.ROT>
3

>  <SCORE.INTER.SOLV>
18.5155

>  <SCORE.INTER.VDW>
-16.9476

>  <SCORE.INTER.norm>
-0.650711

>  <SCORE.INTRA>
1.11771

>  <SCORE.INTRA.DIHEDRAL>
2.01913

>  <SCORE.INTRA.DIHEDRAL.0>
1.67653

>  <SCORE.INTRA.POLAR>
0

>  <SCORE.INTRA.POLAR.0>
0

>  <SCORE.INTRA.REPUL>
0

>  <SCORE.INTRA.REPUL.0>
0

>  <SCORE.INTRA.SOLV>
0.62885

>  <SCORE.INTRA.SOLV.lig_0>
-76.6701

>  <SCORE.INTRA.VDW>
-0.206284

>  <SCORE.INTRA.VDW.0>
-1.53273

>  <SCORE.INTRA.norm>
0.0508049

>  <SCORE.RESTR>
0

>  <SCORE.RESTR.CAVITY>
0

>  <SCORE.RESTR.norm>
0

>  <SCORE.SYSTEM>
0

>  <SCORE.SYSTEM.CONST>
0

>  <SCORE.SYSTEM.DIHEDRAL>
0

>  <SCORE.SYSTEM.SOLV>
0

>  <SCORE.SYSTEM.norm>
0

>  <SCORE.heavy>
22

>  <SCORE.norm>
-0.599906

>  <RMSD>
0.823

$$$$
2f4s_lig
 OpenBabel11021811433D
libRbt.so/2013.1/901 2013/11/27
 22 23  0  0  0  0  0  0  0  0999 V2000
   25.8798   17.2809   34.7397 N   0  0  0  0  0  0  0  0  0  0  0  0
   23.2594   15.5366   38.6470 N   0  0  0  0  0  0  0  0  0  0  0  0
   21.9134   11.4646   40.4171 N   0  0  0  0  0  0  0  0  0  0  0  0
   21.5526   14.9996   33.9791 O   0  0  0  0  0  0  0  0  0  0  0  0
   22.2839   15.8498   34.9094 C   0  0  2  0  0  0  0  0  0  0  0  0
   18.0716   15.2542   36.5669 N   0  0  0  0  0  0  0  0  0  0  0  0
   23.6576   16.7504   33.0755 O   0  0  0  0  0  0  0  0  0  0  0  0
   23.7119   16.1292   34.3651 C   0  0  1  0  0  0  0  0  0  0  0  0
   21.0656   14.9904   36.8551 O   0  0  0  0  0  0  0  0  0  0  0  0
   24.4946   17.0417   35.3015 C   0  0  1  0  0  0  0  0  0  0  0  0
   20.8109   12.7018   37.0613 O   0  0  0  0  0  0  0  0  0  0  0  0
   24.5876   16.3837   36.7198 C   0  0  0  0  0  0  0  0  0  0  0  0
   19.5449   12.7144   40.5085 O   0  0  0  0  0  0  0  0  0  0  0  0
   23.1249   16.1488   37.2605 C   0  0  1  0  0  0  0  0  0  0  0  0
   17.4702   14.0850   39.1202 O   0  0  0  0  0  0  0  0  0  0  0  0
   22.3734   15.1749   36.3349 C   0  0  2  0  0  0  0  0  0  0  0  0
   20.2160   13.9304   36.4538 C   0  0  1  0  0  0  0  0  0  0  0  0
   20.8938   12.6697   38.5490 C   0  0  2  0  0  0  0  0  0  0  0  0
   21.5532   11.3520   38.9673 C   0  0  0  0  0  0  0  0  0  0  0  0
   19.4880   12.7415   39.1020 C   0  0  2  0  0  0  0  0  0  0  0  0
   18.8056   14.0154   38.6068 C   0  0  1  0  0  0  0  0  0  0  0  0
   18.7708   14.0130   37.0586 C   0  0  1  0  0  0  0  0  0  0  0  0
  5  4  1  6  0  0  0
  5  8  1  0  0  0  0
  5 16  1  0  0  0  0
  8  7  1  6  0  0  0
  8 10  1  0  0  0  0
 10  1  1  6  0  0  0
 10 12  1  0  0  0  0
 11 18  1  0  0  0  0
 12 14  1  0  0  0  0
 14  2  1  1  0  0  0
 14 16  1  0  0  0  0
 16  9  1  1  0  0  0
 17  9  1  1  0  0  0
 17 11  1  0  0  0  0
 17 22  1  0  0  0  0
 18 19  1  6  0  0  0
 18 20  1  0  0  0  0
 19  3  1  0  0  0  0
 20 13  1  1  0  0  0
 20 21  1  0  0  0  0
 21 15  1  1  0  0  0
 21 22  1  0  0  0  0
 22  6  1  6  0  0  0
M  END
>  <CHROM.1>
78.87770252,71.72042669,167.29597015,21.49532545,14.58698791,37.02472409
-0.88525132,0.14128402,2.15698874

>  <Name>
2f4s_lig

>  <RI>
2.00194e+07

>  <Rbt.Current_Directory>
/home/itssahil/PROJECTS/Mol_Feturizer/New_Systems/rnas/2f4s

>  <Rbt.Executable>
rbdock ($Id: //depot/dev/client3/rdock/2013.1/src/exe/rbdock.cxx#4 $)

>  <Rbt.Library>
libRbt.so (2013.1, Build901 2013/11/27)

>  <Rbt.Parameter_File>
/export/apps/rDock/src/rDock_2013.1_src/data/scripts/dock_solv.prm

>  <Rbt.Receptor>
prm/pocket_docking_6.prm

>  <SCORE>
-13.7221

>  <SCORE.INTER>
-14.9948

>  <SCORE.INTER.CONST>
1

>  <SCORE.INTER.POLAR>
-1.22057

>  <SCORE.INTER.ROT>
3

>  <SCORE.INTER.SOLV>
16.1524

>  <SCORE.INTER.VDW>
-16.9121

>  <SCORE.INTER.norm>
-0.681583

>  <SCORE.INTRA>
1.27273

>  <SCORE.INTRA.DIHEDRAL>
1.27795

>  <SCORE.INTRA.DIHEDRAL.0>
1.67653

>  <SCORE.INTRA.POLAR>
0

>  <SCORE.INTRA.POLAR.0>
0

>  <SCORE.INTRA.REPUL>
0

>  <SCORE.INTRA.REPUL.0>
0

>  <SCORE.INTRA.SOLV>
1.2687

>  <SCORE.INTRA.SOLV.lig_0>
-76.6701

>  <SCORE.INTRA.VDW>
-0.000592269

>  <SCORE.INTRA.VDW.0>
-1.53273

>  <SCORE.INTRA.norm>
0.0578515

>  <SCORE.RESTR>
0

>  <SCORE.RESTR.CAVITY>
0

>  <SCORE.RESTR.norm>
0

>  <SCORE.SYSTEM>
0

>  <SCORE.SYSTEM.CONST>
0

>  <SCORE.SYSTEM.DIHEDRAL>
0

>  <SCORE.SYSTEM.SOLV>
0

>  <SCORE.SYSTEM.norm>
0

>  <SCORE.heavy>
22

>  <SCORE.norm>
-0.623731

>  <RMSD>
0.828

$$$$
2f4s_lig
 OpenBabel11021811433D
libRbt.so/2013.1/901 2013/11/27
 22 23  0  0  0  0  0  0  0  0999 V2000
   25.8397   17.3620   34.6244 N   0  0  0  0  0  0  0  0  0  0  0  0
   23.2337   15.6336   38.5483 N   0  0  0  0  0  0  0  0  0  0  0  0
   22.7165   11.5491   38.9172 N   0  0  0  0  0  0  0  0  0  0  0  0
   21.5611   14.9852   33.8822 O   0  0  0  0  0  0  0  0  0  0  0  0
   22.2712   15.8648   34.8013 C   0  0  2  0  0  0  0  0  0  0  0  0
   18.1163   15.3191   36.1558 N   0  0  0  0  0  0  0  0  0  0  0  0
   23.6366   16.7607   32.9589 O   0  0  0  0  0  0  0  0  0  0  0  0
   23.6963   16.1626   34.2591 C   0  0  1  0  0  0  0  0  0  0  0  0
   21.0599   15.0151   36.7556 O   0  0  0  0  0  0  0  0  0  0  0  0
   24.4566   17.1056   35.1836 C   0  0  1  0  0  0  0  0  0  0  0  0
   20.7222   12.7541   37.1008 O   0  0  0  0  0  0  0  0  0  0  0  0
   24.5551   16.4735   36.6132 C   0  0  0  0  0  0  0  0  0  0  0  0
   19.1300   13.0508   40.3966 O   0  0  0  0  0  0  0  0  0  0  0  0
   23.0945   16.2197   37.1510 C   0  0  1  0  0  0  0  0  0  0  0  0
   17.2385   14.3569   38.7154 O   0  0  0  0  0  0  0  0  0  0  0  0
   22.3664   15.2159   36.2385 C   0  0  2  0  0  0  0  0  0  0  0  0
   20.2236   13.9460   36.3504 C   0  0  1  0  0  0  0  0  0  0  0  0
   20.6601   12.8317   38.5878 C   0  0  2  0  0  0  0  0  0  0  0  0
   21.2387   11.5354   39.1633 C   0  0  0  0  0  0  0  0  0  0  0  0
   19.2100   12.9739   38.9932 C   0  0  2  0  0  0  0  0  0  0  0  0
   18.6147   14.2212   38.3423 C   0  0  1  0  0  0  0  0  0  0  0  0
   18.7296   14.1038   36.8025 C   0  0  1  0  0  0  0  0  0  0  0  0
  5  4  1  6  0  0  0
  5  8  1  0  0  0  0
  5 16  1  0  0  0  0
  8  7  1  6  0  0  0
  8 10  1  0  0  0  0
 10  1  1  6  0  0  0
 10 12  1  0  0  0  0
 11 18  1  0  0  0  0
 12 14  1  0  0  0  0
 14  2  1  1  0  0  0
 14 16  1  0  0  0  0
 16  9  1  1  0  0  0
 17  9  1  1  0  0  0
 17 11  1  0  0  0  0
 17 22  1  0  0  0  0
 18 19  1  1  0  0  0
 18 20  1  0  0  0  0
 19  3  1  0  0  0  0
 20 13  1  1  0  0  0
 20 21  1  0  0  0  0
 21 15  1  6  0  0  0
 21 22  1  0  0  0  0
 22  6  1  6  0  0  0
M  END
>  <CHROM.1>
77.69919127,79.01691776,70.62245641,21.44083404,14.68830953,36.84039193,-0.82738789
0.09825710,2.18089321

>  <Name>
2f4s_lig

>  <RI>
2.26097e+07

>  <Rbt.Current_Directory>
/home/itssahil/PROJECTS/Mol_Feturizer/New_Systems/rnas/2f4s

>  <Rbt.Executable>
rbdock ($Id: //depot/dev/client3/rdock/2013.1/src/exe/rbdock.cxx#4 $)

>  <Rbt.Library>
libRbt.so (2013.1, Build901 2013/11/27)

>  <Rbt.Parameter_File>
/export/apps/rDock/src/rDock_2013.1_src/data/scripts/dock_solv.prm

>  <Rbt.Receptor>
prm/pocket_docking_7.prm

>  <SCORE>
-13.2489

>  <SCORE.INTER>
-14.319

>  <SCORE.INTER.CONST>
1

>  <SCORE.INTER.POLAR>
-1.31608

>  <SCORE.INTER.ROT>
3

>  <SCORE.INTER.SOLV>
18.3994

>  <SCORE.INTER.VDW>
-16.8922

>  <SCORE.INTER.norm>
-0.650862

>  <SCORE.INTRA>
1.07005

>  <SCORE.INTRA.DIHEDRAL>
1.90024

>  <SCORE.INTRA.DIHEDRAL.0>
1.67653

>  <SCORE.INTRA.POLAR>
0

>  <SCORE.INTRA.POLAR.0>
0

>  <SCORE.INTRA.REPUL>
0

>  <SCORE.INTRA.REPUL.0>
0

>  <SCORE.INTRA.SOLV>
0.663666

>  <SCORE.INTRA.SOLV.lig_0>
-76.6701

>  <SCORE.INTRA.VDW>
-0.211907

>  <SCORE.INTRA.VDW.0>
-1.53273

>  <SCORE.INTRA.norm>
0.0486385

>  <SCORE.RESTR>
0

>  <SCORE.RESTR.CAVITY>
0

>  <SCORE.RESTR.norm>
0

>  <SCORE.SYSTEM>
0

>  <SCORE.SYSTEM.CONST>
0

>  <SCORE.SYSTEM.DIHEDRAL>
0

>  <SCORE.SYSTEM.SOLV>
0

>  <SCORE.SYSTEM.norm>
0

>  <SCORE.heavy>
22

>  <SCORE.norm>
-0.602224

>  <RMSD>
0.830

$$$$
2f4s_lig
 OpenBabel11021811433D
libRbt.so/2013.1/901 2013/11/27
 22 23  0  0  0  0  0  0  0  0999 V2000
   25.8359   17.3249   34.6819 N   0  0  0  0  0  0  0  0  0  0  0  0
   23.1784   15.5908   38.5686 N   0  0  0  0  0  0  0  0  0  0  0  0
   22.7382   11.5760   38.9448 N   0  0  0  0  0  0  0  0  0  0  0  0
   21.5535   14.9739   33.8814 O   0  0  0  0  0  0  0  0  0  0  0  0
   22.2580   15.8454   34.8126 C   0  0  2  0  0  0  0  0  0  0  0  0
   18.0707   15.2487   36.1608 N   0  0  0  0  0  0  0  0  0  0  0  0
   23.6480   16.7432   32.9896 O   0  0  0  0  0  0  0  0  0  0  0  0
   23.6905   16.1384   34.2874 C   0  0  1  0  0  0  0  0  0  0  0  0
   21.0211   14.9924   36.7493 O   0  0  0  0  0  0  0  0  0  0  0  0
   24.4455   17.0729   35.2248 C   0  0  1  0  0  0  0  0  0  0  0  0
   20.7173   12.7304   37.1185 O   0  0  0  0  0  0  0  0  0  0  0  0
   24.5252   16.4333   36.6522 C   0  0  0  0  0  0  0  0  0  0  0  0
   19.1365   13.0373   40.4189 O   0  0  0  0  0  0  0  0  0  0  0  0
   23.0575   16.1844   37.1728 C   0  0  1  0  0  0  0  0  0  0  0  0
   17.2187   14.2996   38.7339 O   0  0  0  0  0  0  0  0  0  0  0  0
   22.3343   15.1889   36.2475 C   0  0  2  0  0  0  0  0  0  0  0  0
   20.1982   13.9076   36.3587 C   0  0  1  0  0  0  0  0  0  0  0  0
   20.6610   12.8218   38.6049 C   0  0  2  0  0  0  0  0  0  0  0  0
   21.2607   11.5397   39.1904 C   0  0  0  0  0  0  0  0  0  0  0  0
   19.2110   12.9476   39.0159 C   0  0  2  0  0  0  0  0  0  0  0  0
   18.5949   14.1797   38.3556 C   0  0  1  0  0  0  0  0  0  0  0  0
   18.7043   14.0486   36.8164 C   0  0  1  0  0  0  0  0  0  0  0  0
  5  4  1  6  0  0  0
  5  8  1  0  0  0  0
  5 16  1  0  0  0  0
  8  7  1  6  0  0  0
  8 10  1  0  0  0  0
 10  1  1  6  0  0  0
 10 12  1  0  0  0  0
 11 18  1  0  0  0  0
 12 14  1  0  0  0  0
 14  2  1  1  0  0  0
 14 16  1  0  0  0  0
 16  9  1  1  0  0  0
 17  9  1  1  0  0  0
 17 11  1  0  0  0  0
 17 22  1  0  0  0  0
 18 19  1  1  0  0  0
 18 20  1  0  0  0  0
 19  3  1  0  0  0  0
 20 13  1  1  0  0  0
 20 21  1  0  0  0  0
 21 15  1  6  0  0  0
 21 22  1  0  0  0  0
 22  6  1  6  0  0  0
M  END
>  <CHROM.1>
79.59241166,77.48799084,70.97716014,21.42694580,14.66059000,36.86042516,-0.82401327
0.10652420,2.17233911

>  <Name>
2f4s_lig

>  <RI>
2.46955e+07

>  <Rbt.Current_Directory>
/home/itssahil/PROJECTS/Mol_Feturizer/New_Systems/rnas/2f4s

>  <Rbt.Executable>
rbdock ($Id: //depot/dev/client3/rdock/2013.1/src/exe/rbdock.cxx#4 $)

>  <Rbt.Library>
libRbt.so (2013.1, Build901 2013/11/27)

>  <Rbt.Parameter_File>
/export/apps/rDock/src/rDock_2013.1_src/data/scripts/dock_solv.prm

>  <Rbt.Receptor>
prm/pocket_docking_3.prm

>  <SCORE>
-13.2396

>  <SCORE.INTER>
-14.4029

>  <SCORE.INTER.CONST>
1

>  <SCORE.INTER.POLAR>
-1.31845

>  <SCORE.INTER.ROT>
3

>  <SCORE.INTER.SOLV>
18.396

>  <SCORE.INTER.VDW>
-16.9391

>  <SCORE.INTER.norm>
-0.654677

>  <SCORE.INTRA>
1.16326

>  <SCORE.INTRA.DIHEDRAL>
1.99181

>  <SCORE.INTRA.DIHEDRAL.0>
1.67653

>  <SCORE.INTRA.POLAR>
0

>  <SCORE.INTRA.POLAR.0>
0

>  <SCORE.INTRA.REPUL>
0

>  <SCORE.INTRA.REPUL.0>
0

>  <SCORE.INTRA.SOLV>
0.848076

>  <SCORE.INTRA.SOLV.lig_0>
-76.6701

>  <SCORE.INTRA.VDW>
-0.256683

>  <SCORE.INTRA.VDW.0>
-1.53273

>  <SCORE.INTRA.norm>
0.0528754

>  <SCORE.RESTR>
0

>  <SCORE.RESTR.CAVITY>
0

>  <SCORE.RESTR.norm>
0

>  <SCORE.SYSTEM>
0

>  <SCORE.SYSTEM.CONST>
0

>  <SCORE.SYSTEM.DIHEDRAL>
0

>  <SCORE.SYSTEM.SOLV>
0

>  <SCORE.SYSTEM.norm>
0

>  <SCORE.heavy>
22

>  <SCORE.norm>
-0.601801

>  <RMSD>
0.835

$$$$
2f4s_lig
 OpenBabel11021811433D
libRbt.so/2013.1/901 2013/11/27
 22 23  0  0  0  0  0  0  0  0999 V2000
   25.8735   17.3362   34.6378 N   0  0  0  0  0  0  0  0  0  0  0  0
   23.2019   15.6664   38.5430 N   0  0  0  0  0  0  0  0  0  0  0  0
   22.1447   11.5885   40.1007 N   0  0  0  0  0  0  0  0  0  0  0  0
   21.5584   15.0366   33.8640 O   0  0  0  0  0  0  0  0  0  0  0  0
   22.2765   15.9055   34.7871 C   0  0  2  0  0  0  0  0  0  0  0  0
   18.0418   15.3821   36.4462 N   0  0  0  0  0  0  0  0  0  0  0  0
   23.6743   16.7713   32.9546 O   0  0  0  0  0  0  0  0  0  0  0  0
   23.7116   16.1755   34.2567 C   0  0  1  0  0  0  0  0  0  0  0  0
   21.0328   15.0833   36.7328 O   0  0  0  0  0  0  0  0  0  0  0  0
   24.4810   17.1068   35.1855 C   0  0  1  0  0  0  0  0  0  0  0  0
   20.7555   12.7936   36.8918 O   0  0  0  0  0  0  0  0  0  0  0  0
   24.5554   16.4768   36.6175 C   0  0  0  0  0  0  0  0  0  0  0  0
   19.4845   12.7479   40.3368 O   0  0  0  0  0  0  0  0  0  0  0  0
   23.0857   16.2512   37.1431 C   0  0  1  0  0  0  0  0  0  0  0  0
   17.4253   14.1668   38.9742 O   0  0  0  0  0  0  0  0  0  0  0  0
   22.3473   15.2587   36.2267 C   0  0  2  0  0  0  0  0  0  0  0  0
   20.1735   14.0400   36.3088 C   0  0  1  0  0  0  0  0  0  0  0  0
   20.8359   12.7303   38.3786 C   0  0  2  0  0  0  0  0  0  0  0  0
   21.4819   11.3979   38.7707 C   0  0  0  0  0  0  0  0  0  0  0  0
   19.4300   12.8044   38.9312 C   0  0  2  0  0  0  0  0  0  0  0  0
   18.7607   14.0947   38.4612 C   0  0  1  0  0  0  0  0  0  0  0  0
   18.7282   14.1243   36.9133 C   0  0  1  0  0  0  0  0  0  0  0  0
  5  4  1  6  0  0  0
  5  8  1  0  0  0  0
  5 16  1  0  0  0  0
  8  7  1  6  0  0  0
  8 10  1  0  0  0  0
 10  1  1  6  0  0  0
 10 12  1  0  0  0  0
 11 18  1  0  0  0  0
 12 14  1  0  0  0  0
 14  2  1  1  0  0  0
 14 16  1  0  0  0  0
 16  9  1  1  0  0  0
 17  9  1  1  0  0  0
 17 11  1  0  0  0  0
 17 22  1  0  0  0  0
 18 19  1  6  0  0  0
 18 20  1  0  0  0  0
 19  3  1  0  0  0  0
 20 13  1  1  0  0  0
 20 21  1  0  0  0  0
 21 15  1  1  0  0  0
 21 22  1  0  0  0  0
 22  6  1  1  0  0  0
M  END
>  <CHROM.1>
76.76462335,71.15341603,153.38268572,21.47409243,14.66405026,36.88194487
-0.87028929,0.13171595,2.16689996

>  <Name>
2f4s_lig

>  <RI>
0

>  <Rbt.Current_Directory>
/home/itssahil/PROJECTS/Mol_Feturizer/New_Systems/rnas/2f4s

>  <Rbt.Executable>
rbdock ($Id: //depot/dev/client3/rdock/2013.1/src/exe/rbdock.cxx#4 $)

>  <Rbt.Library>
libRbt.so (2013.1, Build901 2013/11/27)

>  <Rbt.Parameter_File>
/export/apps/rDock/src/rDock_2013.1_src/data/scripts/dock_solv.prm

>  <Rbt.Receptor>
prm/pocket_docking_2.prm

>  <SCORE>
-13.0764

>  <SCORE.INTER>
-14.5829

>  <SCORE.INTER.CONST>
1

>  <SCORE.INTER.POLAR>
-1.3153

>  <SCORE.INTER.ROT>
3

>  <SCORE.INTER.SOLV>
15.6158

>  <SCORE.INTER.VDW>
-16.1429

>  <SCORE.INTER.norm>
-0.662859

>  <SCORE.INTRA>
1.50581

>  <SCORE.INTRA.DIHEDRAL>
2.50476

>  <SCORE.INTRA.DIHEDRAL.0>
1.67653

>  <SCORE.INTRA.POLAR>
0

>  <SCORE.INTRA.POLAR.0>
0

>  <SCORE.INTRA.REPUL>
0

>  <SCORE.INTRA.REPUL.0>
0

>  <SCORE.INTRA.SOLV>
0.790427

>  <SCORE.INTRA.SOLV.lig_0>
-76.6701

>  <SCORE.INTRA.VDW>
-0.14178

>  <SCORE.INTRA.VDW.0>
-1.53273

>  <SCORE.INTRA.norm>
0.068446

>  <SCORE.RESTR>
0.000666994

>  <SCORE.RESTR.CAVITY>
0.000666994

>  <SCORE.RESTR.norm>
3.03179e-05

>  <SCORE.SYSTEM>
0

>  <SCORE.SYSTEM.CONST>
0

>  <SCORE.SYSTEM.DIHEDRAL>
0

>  <SCORE.SYSTEM.SOLV>
0

>  <SCORE.SYSTEM.norm>
0

>  <SCORE.heavy>
22

>  <SCORE.norm>
-0.594383

>  <RMSD>
0.858

$$$$
2f4s_lig
 OpenBabel11021811433D
libRbt.so/2013.1/901 2013/11/27
 22 23  0  0  0  0  0  0  0  0999 V2000
   25.8440   17.3609   34.6543 N   0  0  0  0  0  0  0  0  0  0  0  0
   23.2238   15.6199   38.5632 N   0  0  0  0  0  0  0  0  0  0  0  0
   21.9417   11.5312   40.3030 N   0  0  0  0  0  0  0  0  0  0  0  0
   21.5304   15.0539   33.8938 O   0  0  0  0  0  0  0  0  0  0  0  0
   22.2552   15.9119   34.8220 C   0  0  2  0  0  0  0  0  0  0  0  0
   18.0412   15.3075   36.4878 N   0  0  0  0  0  0  0  0  0  0  0  0
   23.6284   16.8117   32.9873 O   0  0  0  0  0  0  0  0  0  0  0  0
   23.6829   16.1964   34.2797 C   0  0  1  0  0  0  0  0  0  0  0  0
   21.0369   15.0546   36.7687 O   0  0  0  0  0  0  0  0  0  0  0  0
   24.4588   17.1169   35.2140 C   0  0  1  0  0  0  0  0  0  0  0  0
   20.7920   12.7642   36.9654 O   0  0  0  0  0  0  0  0  0  0  0  0
   24.5520   16.4655   36.6353 C   0  0  0  0  0  0  0  0  0  0  0  0
   19.5330   12.7564   40.4151 O   0  0  0  0  0  0  0  0  0  0  0  0
   23.0893   16.2254   37.1737 C   0  0  1  0  0  0  0  0  0  0  0  0
   17.4499   14.1246   39.0371 O   0  0  0  0  0  0  0  0  0  0  0  0
   22.3449   15.2436   36.2507 C   0  0  2  0  0  0  0  0  0  0  0  0
   20.1908   13.9929   36.3645 C   0  0  1  0  0  0  0  0  0  0  0  0
   20.8780   12.7259   38.4527 C   0  0  2  0  0  0  0  0  0  0  0  0
   21.5437   11.4090   38.8639 C   0  0  0  0  0  0  0  0  0  0  0  0
   19.4731   12.7894   39.0089 C   0  0  2  0  0  0  0  0  0  0  0  0
   18.7845   14.0627   38.5207 C   0  0  1  0  0  0  0  0  0  0  0  0
   18.7465   14.0670   36.9726 C   0  0  1  0  0  0  0  0  0  0  0  0
  5  4  1  6  0  0  0
  5  8  1  0  0  0  0
  5 16  1  0  0  0  0
  8  7  1  6  0  0  0
  8 10  1  0  0  0  0
 10  1  1  6  0  0  0
 10 12  1  0  0  0  0
 11 18  1  0  0  0  0
 12 14  1  0  0  0  0
 14  2  1  1  0  0  0
 14 16  1  0  0  0  0
 16  9  1  1  0  0  0
 17  9  1  1  0  0  0
 17 11  1  0  0  0  0
 17 22  1  0  0  0  0
 18 19  1  6  0  0  0
 18 20  1  0  0  0  0
 19  3  1  0  0  0  0
 20 13  1  1  0  0  0
 20 21  1  0  0  0  0
 21 15  1  1  0  0  0
 21 22  1  0  0  0  0
 22  6  1  1  0  0  0
M  END
>  <CHROM.1>
78.50654745,71.45691603,165.70945642,21.47233493,14.64865459,36.93540411
-0.88664447,0.14361761,2.15910460

>  <Name>
2f4s_lig

>  <RI>
0

>  <Rbt.Current_Directory>
/home/itssahil/PROJECTS/Mol_Feturizer/New_Systems/rnas/2f4s

>  <Rbt.Executable>
rbdock ($Id: //depot/dev/client3/rdock/2013.1/src/exe/rbdock.cxx#4 $)

>  <Rbt.Library>
libRbt.so (2013.1, Build901 2013/11/27)

>  <Rbt.Parameter_File>
/export/apps/rDock/src/rDock_2013.1_src/data/scripts/dock_solv.prm

>  <Rbt.Receptor>
prm/pocket_docking_4.prm

>  <SCORE>
-13.6689

>  <SCORE.INTER>
-14.9059

>  <SCORE.INTER.CONST>
1

>  <SCORE.INTER.POLAR>
-1.26926

>  <SCORE.INTER.ROT>
3

>  <SCORE.INTER.SOLV>
15.6623

>  <SCORE.INTER.VDW>
-16.5271

>  <SCORE.INTER.norm>
-0.677541

>  <SCORE.INTRA>
1.23702

>  <SCORE.INTRA.DIHEDRAL>
1.33415

>  <SCORE.INTRA.DIHEDRAL.0>
1.67653

>  <SCORE.INTRA.POLAR>
0

>  <SCORE.INTRA.POLAR.0>
0

>  <SCORE.INTRA.REPUL>
0

>  <SCORE.INTRA.REPUL.0>
0

>  <SCORE.INTRA.SOLV>
1.20498

>  <SCORE.INTRA.SOLV.lig_0>
-76.6701

>  <SCORE.INTRA.VDW>
-0.0325441

>  <SCORE.INTRA.VDW.0>
-1.53273

>  <SCORE.INTRA.norm>
0.0562281

>  <SCORE.RESTR>
0

>  <SCORE.RESTR.CAVITY>
0

>  <SCORE.RESTR.norm>
0

>  <SCORE.SYSTEM>
0

>  <SCORE.SYSTEM.CONST>
0

>  <SCORE.SYSTEM.DIHEDRAL>
0

>  <SCORE.SYSTEM.SOLV>
0

>  <SCORE.SYSTEM.norm>
0

>  <SCORE.heavy>
22

>  <SCORE.norm>
-0.621313

>  <RMSD>
0.861

$$$$
2f4s_lig
 OpenBabel11021811433D
libRbt.so/2013.1/901 2013/11/27
 22 23  0  0  0  0  0  0  0  0999 V2000
   25.8422   17.3376   34.6585 N   0  0  0  0  0  0  0  0  0  0  0  0
   23.1143   15.6600   38.5212 N   0  0  0  0  0  0  0  0  0  0  0  0
   22.1971   11.6618   40.1096 N   0  0  0  0  0  0  0  0  0  0  0  0
   21.5234   15.0681   33.8191 O   0  0  0  0  0  0  0  0  0  0  0  0
   22.2355   15.9272   34.7560 C   0  0  2  0  0  0  0  0  0  0  0  0
   17.9579   15.2969   36.4712 N   0  0  0  0  0  0  0  0  0  0  0  0
   23.6601   16.7957   32.9456 O   0  0  0  0  0  0  0  0  0  0  0  0
   23.6783   16.1919   34.2445 C   0  0  1  0  0  0  0  0  0  0  0  0
   20.9637   15.1006   36.6817 O   0  0  0  0  0  0  0  0  0  0  0  0
   24.4419   17.1130   35.1881 C   0  0  1  0  0  0  0  0  0  0  0  0
   20.7669   12.8055   36.8784 O   0  0  0  0  0  0  0  0  0  0  0  0
   24.4955   16.4740   36.6170 C   0  0  0  0  0  0  0  0  0  0  0  0
   19.5892   12.7669   40.3565 O   0  0  0  0  0  0  0  0  0  0  0  0
   23.0183   16.2540   37.1235 C   0  0  1  0  0  0  0  0  0  0  0  0
   17.4488   14.0979   39.0306 O   0  0  0  0  0  0  0  0  0  0  0  0
   22.2851   15.2713   36.1924 C   0  0  2  0  0  0  0  0  0  0  0  0
   20.1286   14.0238   36.2946 C   0  0  1  0  0  0  0  0  0  0  0  0
   20.8884   12.7659   38.3632 C   0  0  2  0  0  0  0  0  0  0  0  0
   21.5884   11.4612   38.7556 C   0  0  0  0  0  0  0  0  0  0  0  0
   19.4958   12.8016   38.9521 C   0  0  2  0  0  0  0  0  0  0  0  0
   18.7719   14.0625   38.4832 C   0  0  1  0  0  0  0  0  0  0  0  0
   18.6978   14.0691   36.9364 C   0  0  1  0  0  0  0  0  0  0  0  0
  5  4  1  6  0  0  0
  5  8  1  0  0  0  0
  5 16  1  0  0  0  0
  8  7  1  6  0  0  0
  8 10  1  0  0  0  0
 10  1  1  6  0  0  0
 10 12  1  0  0  0  0
 11 18  1  0  0  0  0
 12 14  1  0  0  0  0
 14  2  1  1  0  0  0
 14 16  1  0  0  0  0
 16  9  1  1  0  0  0
 17  9  1  1  0  0  0
 17 11  1  0  0  0  0
 17 22  1  0  0  0  0
 18 19  1  6  0  0  0
 18 20  1  0  0  0  0
 19  3  1  0  0  0  0
 20 13  1  1  0  0  0
 20 21  1  0  0  0  0
 21 15  1  1  0  0  0
 21 22  1  0  0  0  0
 22  6  1  1  0  0  0
M  END
>  <CHROM.1>
80.24865430,67.63735488,157.33565611,21.46258404,14.66737319,36.87810823
-0.87866020,0.14087984,2.15666332

>  <Name>
2f4s_lig

>  <RI>
0

>  <Rbt.Current_Directory>
/home/itssahil/PROJECTS/Mol_Feturizer/New_Systems/rnas/2f4s

>  <Rbt.Executable>
rbdock ($Id: //depot/dev/client3/rdock/2013.1/src/exe/rbdock.cxx#4 $)

>  <Rbt.Library>
libRbt.so (2013.1, Build901 2013/11/27)

>  <Rbt.Parameter_File>
/export/apps/rDock/src/rDock_2013.1_src/data/scripts/dock_solv.prm

>  <Rbt.Receptor>
prm/pocket_docking_2.prm

>  <SCORE>
-13.1468

>  <SCORE.INTER>
-14.6248

>  <SCORE.INTER.CONST>
1

>  <SCORE.INTER.POLAR>
-1.33104

>  <SCORE.INTER.ROT>
3

>  <SCORE.INTER.SOLV>
15.3787

>  <SCORE.INTER.VDW>
-16.0393

>  <SCORE.INTER.norm>
-0.664766

>  <SCORE.INTRA>
1.46839

>  <SCORE.INTRA.DIHEDRAL>
2.21642

>  <SCORE.INTRA.DIHEDRAL.0>
1.67653

>  <SCORE.INTRA.POLAR>
0

>  <SCORE.INTRA.POLAR.0>
0

>  <SCORE.INTRA.REPUL>
0

>  <SCORE.INTRA.REPUL.0>
0

>  <SCORE.INTRA.SOLV>
1.08796

>  <SCORE.INTRA.SOLV.lig_0>
-76.6701

>  <SCORE.INTRA.VDW>
-0.183801

>  <SCORE.INTRA.VDW.0>
-1.53273

>  <SCORE.INTRA.norm>
0.0667448

>  <SCORE.RESTR>
0.00964477

>  <SCORE.RESTR.CAVITY>
0.00964477

>  <SCORE.RESTR.norm>
0.000438399

>  <SCORE.SYSTEM>
0

>  <SCORE.SYSTEM.CONST>
0

>  <SCORE.SYSTEM.DIHEDRAL>
0

>  <SCORE.SYSTEM.SOLV>
0

>  <SCORE.SYSTEM.norm>
0

>  <SCORE.heavy>
22

>  <SCORE.norm>
-0.597583

>  <RMSD>
0.877

$$$$
2f4s_lig
 OpenBabel11021811433D
libRbt.so/2013.1/901 2013/11/27
 22 23  0  0  0  0  0  0  0  0999 V2000
   25.8204   17.4791   34.6316 N   0  0  0  0  0  0  0  0  0  0  0  0
   23.1317   15.7094   38.4806 N   0  0  0  0  0  0  0  0  0  0  0  0
   21.3214   10.4861   38.1796 N   0  0  0  0  0  0  0  0  0  0  0  0
   21.5563   15.1152   33.7736 O   0  0  0  0  0  0  0  0  0  0  0  0
   22.2478   15.9838   34.7171 C   0  0  2  0  0  0  0  0  0  0  0  0
   17.9840   15.1207   36.4140 N   0  0  0  0  0  0  0  0  0  0  0  0
   23.6521   16.8989   32.9138 O   0  0  0  0  0  0  0  0  0  0  0  0
   23.6841   16.2861   34.2082 C   0  0  1  0  0  0  0  0  0  0  0  0
   20.9952   15.1134   36.6361 O   0  0  0  0  0  0  0  0  0  0  0  0
   24.4257   17.2178   35.1589 C   0  0  1  0  0  0  0  0  0  0  0  0
   20.9306   12.8296   36.9898 O   0  0  0  0  0  0  0  0  0  0  0  0
   24.4939   16.5697   36.5831 C   0  0  0  0  0  0  0  0  0  0  0  0
   19.7448   12.9613   40.4629 O   0  0  0  0  0  0  0  0  0  0  0  0
   23.0221   16.3113   37.0873 C   0  0  1  0  0  0  0  0  0  0  0  0
   17.5359   14.0724   39.0499 O   0  0  0  0  0  0  0  0  0  0  0  0
   22.3125   15.3186   36.1486 C   0  0  2  0  0  0  0  0  0  0  0  0
   20.2251   13.9661   36.3242 C   0  0  1  0  0  0  0  0  0  0  0  0
   21.0489   12.8989   38.4738 C   0  0  2  0  0  0  0  0  0  0  0  0
   21.8216   11.6667   38.9544 C   0  0  0  0  0  0  0  0  0  0  0  0
   19.6546   12.8942   39.0595 C   0  0  2  0  0  0  0  0  0  0  0  0
   18.8608   14.0761   38.5055 C   0  0  1  0  0  0  0  0  0  0  0  0
   18.7918   13.9724   36.9619 C   0  0  1  0  0  0  0  0  0  0  0  0
  5  4  1  6  0  0  0
  5  8  1  0  0  0  0
  5 16  1  0  0  0  0
  8  7  1  6  0  0  0
  8 10  1  0  0  0  0
 10  1  1  6  0  0  0
 10 12  1  0  0  0  0
 11 18  1  0  0  0  0
 12 14  1  0  0  0  0
 14  2  1  1  0  0  0
 14 16  1  0  0  0  0
 16  9  1  1  0  0  0
 17  9  1  1  0  0  0
 17 11  1  0  0  0  0
 17 22  1  0  0  0  0
 18 19  1  1  0  0  0
 18 20  1  0  0  0  0
 19  3  1  0  0  0  0
 20 13  1  1  0  0  0
 20 21  1  0  0  0  0
 21 15  1  1  0  0  0
 21 22  1  0  0  0  0
 22  6  1  6  0  0  0
M  END
>  <CHROM.1>
85.41213696,66.85539098,-41.85282562,21.48486749,14.66561020,36.80334109
-0.88342378,0.12952492,2.20888665

>  <Name>
2f4s_lig

>  <RI>
0

>  <Rbt.Current_Directory>
/home/itssahil/PROJECTS/Mol_Feturizer/New_Systems/rnas/2f4s

>  <Rbt.Executable>
rbdock ($Id: //depot/dev/client3/rdock/2013.1/src/exe/rbdock.cxx#4 $)

>  <Rbt.Library>
libRbt.so (2013.1, Build901 2013/11/27)

>  <Rbt.Parameter_File>
/export/apps/rDock/src/rDock_2013.1_src/data/scripts/dock_solv.prm

>  <Rbt.Receptor>
prm/pocket_docking_2.prm

>  <SCORE>
-10.4328

>  <SCORE.INTER>
-12.6361

>  <SCORE.INTER.CONST>
1

>  <SCORE.INTER.POLAR>
-1.49819

>  <SCORE.INTER.ROT>
3

>  <SCORE.INTER.SOLV>
22.6786

>  <SCORE.INTER.VDW>
-16.5896

>  <SCORE.INTER.norm>
-0.574367

>  <SCORE.INTRA>
2.20329

>  <SCORE.INTRA.DIHEDRAL>
2.53498

>  <SCORE.INTRA.DIHEDRAL.0>
1.67653

>  <SCORE.INTRA.POLAR>
0

>  <SCORE.INTRA.POLAR.0>
0

>  <SCORE.INTRA.REPUL>
0

>  <SCORE.INTRA.REPUL.0>
0

>  <SCORE.INTRA.SOLV>
2.13463

>  <SCORE.INTRA.SOLV.lig_0>
-76.6701

>  <SCORE.INTRA.VDW>
-0.13152

>  <SCORE.INTRA.VDW.0>
-1.53273

>  <SCORE.INTRA.norm>
0.100149

>  <SCORE.RESTR>
0

>  <SCORE.RESTR.CAVITY>
0

>  <SCORE.RESTR.norm>
0

>  <SCORE.SYSTEM>
0

>  <SCORE.SYSTEM.CONST>
0

>  <SCORE.SYSTEM.DIHEDRAL>
0

>  <SCORE.SYSTEM.SOLV>
0

>  <SCORE.SYSTEM.norm>
0

>  <SCORE.heavy>
22

>  <SCORE.norm>
-0.474218

>  <RMSD>
0.880

$$$$
2f4s_lig
 OpenBabel11021811433D
libRbt.so/2013.1/901 2013/11/27
 22 23  0  0  0  0  0  0  0  0999 V2000
   25.8356   17.3157   34.6434 N   0  0  0  0  0  0  0  0  0  0  0  0
   23.1251   15.6529   38.5246 N   0  0  0  0  0  0  0  0  0  0  0  0
   22.1247   11.6119   40.1083 N   0  0  0  0  0  0  0  0  0  0  0  0
   21.5074   15.0538   33.8326 O   0  0  0  0  0  0  0  0  0  0  0  0
   22.2264   15.9134   34.7637 C   0  0  2  0  0  0  0  0  0  0  0  0
   17.9621   15.3363   36.4722 N   0  0  0  0  0  0  0  0  0  0  0  0
   23.6431   16.7747   32.9436 O   0  0  0  0  0  0  0  0  0  0  0  0
   23.6671   16.1738   34.2437 C   0  0  1  0  0  0  0  0  0  0  0  0
   20.9633   15.0940   36.6980 O   0  0  0  0  0  0  0  0  0  0  0  0
   24.4378   17.0954   35.1811 C   0  0  1  0  0  0  0  0  0  0  0  0
   20.7316   12.8007   36.8768 O   0  0  0  0  0  0  0  0  0  0  0  0
   24.4977   16.4595   36.6111 C   0  0  0  0  0  0  0  0  0  0  0  0
   19.5335   12.7543   40.3479 O   0  0  0  0  0  0  0  0  0  0  0  0
   23.0228   16.2438   37.1261 C   0  0  1  0  0  0  0  0  0  0  0  0
   17.4207   14.1265   39.0199 O   0  0  0  0  0  0  0  0  0  0  0  0
   22.2825   15.2607   36.2013 C   0  0  2  0  0  0  0  0  0  0  0  0
   20.1147   14.0325   36.2984 C   0  0  1  0  0  0  0  0  0  0  0  0
   20.8439   12.7485   38.3619 C   0  0  2  0  0  0  0  0  0  0  0  0
   21.5223   11.4307   38.7487 C   0  0  0  0  0  0  0  0  0  0  0  0
   19.4487   12.8005   38.9433 C   0  0  2  0  0  0  0  0  0  0  0  0
   18.7462   14.0754   38.4796 C   0  0  1  0  0  0  0  0  0  0  0  0
   18.6810   14.0943   36.9325 C   0  0  1  0  0  0  0  0  0  0  0  0
  5  4  1  6  0  0  0
  5  8  1  0  0  0  0
  5 16  1  0  0  0  0
  8  7  1  6  0  0  0
  8 10  1  0  0  0  0
 10  1  1  6  0  0  0
 10 12  1  0  0  0  0
 11 18  1  0  0  0  0
 12 14  1  0  0  0  0
 14  2  1  1  0  0  0
 14 16  1  0  0  0  0
 16  9  1  1  0  0  0
 17  9  1  1  0  0  0
 17 11  1  0  0  0  0
 17 22  1  0  0  0  0
 18 19  1  6  0  0  0
 18 20  1  0  0  0  0
 19  3  1  0  0  0  0
 20 13  1  1  0  0  0
 20 21  1  0  0  0  0
 21 15  1  1  0  0  0
 21 22  1  0  0  0  0
 22  6  1  1  0  0  0
M  END
>  <CHROM.1>
78.99565028,68.67660962,157.40559412,21.44179507,14.66021030,36.87723220
-0.87571424,0.13332794,2.16146359

>  <Name>
2f4s_lig

>  <RI>
0

>  <Rbt.Current_Directory>
/home/itssahil/PROJECTS/Mol_Feturizer/New_Systems/rnas/2f4s

>  <Rbt.Executable>
rbdock ($Id: //depot/dev/client3/rdock/2013.1/src/exe/rbdock.cxx#4 $)

>  <Rbt.Library>
libRbt.so (2013.1, Build901 2013/11/27)

>  <Rbt.Parameter_File>
/export/apps/rDock/src/rDock_2013.1_src/data/scripts/dock_solv.prm

>  <Rbt.Receptor>
prm/pocket_docking_2.prm

>  <SCORE>
-13.1243

>  <SCORE.INTER>
-14.5247

>  <SCORE.INTER.CONST>
1

>  <SCORE.INTER.POLAR>
-1.30056

>  <SCORE.INTER.ROT>
3

>  <SCORE.INTER.SOLV>
15.4694

>  <SCORE.INTER.VDW>
-16.1044

>  <SCORE.INTER.norm>
-0.660212

>  <SCORE.INTRA>
1.39206

>  <SCORE.INTRA.DIHEDRAL>
2.08572

>  <SCORE.INTRA.DIHEDRAL.0>
1.67653

>  <SCORE.INTRA.POLAR>
0

>  <SCORE.INTRA.POLAR.0>
0

>  <SCORE.INTRA.REPUL>
0

>  <SCORE.INTRA.REPUL.0>
0

>  <SCORE.INTRA.SOLV>
1.01296

>  <SCORE.INTRA.SOLV.lig_0>
-76.6701

>  <SCORE.INTRA.VDW>
-0.157277

>  <SCORE.INTRA.VDW.0>
-1.53273

>  <SCORE.INTRA.norm>
0.0632756

>  <SCORE.RESTR>
0.00829714

>  <SCORE.RESTR.CAVITY>
0.00829714

>  <SCORE.RESTR.norm>
0.000377143

>  <SCORE.SYSTEM>
0

>  <SCORE.SYSTEM.CONST>
0

>  <SCORE.SYSTEM.DIHEDRAL>
0

>  <SCORE.SYSTEM.SOLV>
0

>  <SCORE.SYSTEM.norm>
0

>  <SCORE.heavy>
22

>  <SCORE.norm>
-0.596559

>  <RMSD>
0.884

$$$$
2f4s_lig
 OpenBabel11021811433D
libRbt.so/2013.1/901 2013/11/27
 22 23  0  0  0  0  0  0  0  0999 V2000
   25.8481   17.3364   34.6612 N   0  0  0  0  0  0  0  0  0  0  0  0
   23.1957   15.6311   38.5641 N   0  0  0  0  0  0  0  0  0  0  0  0
   21.9139   11.5896   40.3729 N   0  0  0  0  0  0  0  0  0  0  0  0
   21.5530   15.0004   33.8850 O   0  0  0  0  0  0  0  0  0  0  0  0
   22.2643   15.8730   34.8100 C   0  0  2  0  0  0  0  0  0  0  0  0
   18.0361   15.2580   36.4327 N   0  0  0  0  0  0  0  0  0  0  0  0
   23.6523   16.7567   32.9785 O   0  0  0  0  0  0  0  0  0  0  0  0
   23.6963   16.1574   34.2789 C   0  0  1  0  0  0  0  0  0  0  0  0
   21.0300   15.0339   36.7545 O   0  0  0  0  0  0  0  0  0  0  0  0
   24.4583   17.0928   35.2097 C   0  0  1  0  0  0  0  0  0  0  0  0
   20.7996   12.7462   36.9957 O   0  0  0  0  0  0  0  0  0  0  0  0
   24.5399   16.4593   36.6397 C   0  0  0  0  0  0  0  0  0  0  0  0
   19.4992   12.8001   40.4296 O   0  0  0  0  0  0  0  0  0  0  0  0
   23.0728   16.2190   37.1661 C   0  0  1  0  0  0  0  0  0  0  0  0
   17.4228   14.1236   38.9988 O   0  0  0  0  0  0  0  0  0  0  0  0
   22.3423   15.2226   36.2476 C   0  0  2  0  0  0  0  0  0  0  0  0
   20.1967   13.9576   36.3623 C   0  0  1  0  0  0  0  0  0  0  0  0
   20.8680   12.7393   38.4844 C   0  0  2  0  0  0  0  0  0  0  0  0
   21.5384   11.4363   38.9307 C   0  0  0  0  0  0  0  0  0  0  0  0
   19.4560   12.8036   39.0224 C   0  0  2  0  0  0  0  0  0  0  0  0
   18.7639   14.0612   38.4997 C   0  0  1  0  0  0  0  0  0  0  0  0
   18.7446   14.0332   36.9515 C   0  0  1  0  0  0  0  0  0  0  0  0
  5  4  1  6  0  0  0
  5  8  1  0  0  0  0
  5 16  1  0  0  0  0
  8  7  1  6  0  0  0
  8 10  1  0  0  0  0
 10  1  1  6  0  0  0
 10 12  1  0  0  0  0
 11 18  1  0  0  0  0
 12 14  1  0  0  0  0
 14  2  1  1  0  0  0
 14 16  1  0  0  0  0
 16  9  1  1  0  0  0
 17  9  1  1  0  0  0
 17 11  1  0  0  0  0
 17 22  1  0  0  0  0
 18 19  1  6  0  0  0
 18 20  1  0  0  0  0
 19  3  1  0  0  0  0
 20 13  1  1  0  0  0
 20 21  1  0  0  0  0
 21 15  1  1  0  0  0
 21 22  1  0  0  0  0
 22  6  1  6  0  0  0
M  END
>  <CHROM.1>
79.00548642,71.50056325,165.89392051,21.46656140,14.63680140,36.93720450
-0.88091663,0.15585970,2.13993100

>  <Name>
2f4s_lig

>  <RI>
0

>  <Rbt.Current_Directory>
/home/itssahil/PROJECTS/Mol_Feturizer/New_Systems/rnas/2f4s

>  <Rbt.Executable>
rbdock ($Id: //depot/dev/client3/rdock/2013.1/src/exe/rbdock.cxx#4 $)

>  <Rbt.Library>
libRbt.so (2013.1, Build901 2013/11/27)

>  <Rbt.Parameter_File>
/export/apps/rDock/src/rDock_2013.1_src/data/scripts/dock_solv.prm

>  <Rbt.Receptor>
prm/pocket_docking_5.prm

>  <SCORE>
-13.7032

>  <SCORE.INTER>
-14.9825

>  <SCORE.INTER.CONST>
1

>  <SCORE.INTER.POLAR>
-1.30634

>  <SCORE.INTER.ROT>
3

>  <SCORE.INTER.SOLV>
15.8203

>  <SCORE.INTER.VDW>
-16.5073

>  <SCORE.INTER.norm>
-0.681021

>  <SCORE.INTRA>
1.27928

>  <SCORE.INTRA.DIHEDRAL>
1.39902

>  <SCORE.INTRA.DIHEDRAL.0>
1.67653

>  <SCORE.INTRA.POLAR>
0

>  <SCORE.INTRA.POLAR.0>
0

>  <SCORE.INTRA.REPUL>
0

>  <SCORE.INTRA.REPUL.0>
0

>  <SCORE.INTRA.SOLV>
1.23843

>  <SCORE.INTRA.SOLV.lig_0>
-76.6701

>  <SCORE.INTRA.VDW>
-0.0394493

>  <SCORE.INTRA.VDW.0>
-1.53273

>  <SCORE.INTRA.norm>
0.0581489

>  <SCORE.RESTR>
0

>  <SCORE.RESTR.CAVITY>
0

>  <SCORE.RESTR.norm>
0

>  <SCORE.SYSTEM>
0

>  <SCORE.SYSTEM.CONST>
0

>  <SCORE.SYSTEM.DIHEDRAL>
0

>  <SCORE.SYSTEM.SOLV>
0

>  <SCORE.SYSTEM.norm>
0

>  <SCORE.heavy>
22

>  <SCORE.norm>
-0.622872

>  <RMSD>
0.884

$$$$
2f4s_lig
 OpenBabel11021811433D
libRbt.so/2013.1/901 2013/11/27
 22 23  0  0  0  0  0  0  0  0999 V2000
   25.8474   17.3242   34.6592 N   0  0  0  0  0  0  0  0  0  0  0  0
   23.1037   15.6579   38.5156 N   0  0  0  0  0  0  0  0  0  0  0  0
   22.1022   11.6457   40.1048 N   0  0  0  0  0  0  0  0  0  0  0  0
   21.5224   15.0704   33.8097 O   0  0  0  0  0  0  0  0  0  0  0  0
   22.2353   15.9271   34.7482 C   0  0  2  0  0  0  0  0  0  0  0  0
   17.9559   15.3418   36.4196 N   0  0  0  0  0  0  0  0  0  0  0  0
   23.6676   16.7898   32.9411 O   0  0  0  0  0  0  0  0  0  0  0  0
   23.6804   16.1864   34.2401 C   0  0  1  0  0  0  0  0  0  0  0  0
   20.9557   15.1058   36.6709 O   0  0  0  0  0  0  0  0  0  0  0  0
   24.4450   17.1050   35.1854 C   0  0  1  0  0  0  0  0  0  0  0  0
   20.7263   12.8130   36.8595 O   0  0  0  0  0  0  0  0  0  0  0  0
   24.4926   16.4662   36.6146 C   0  0  0  0  0  0  0  0  0  0  0  0
   19.5004   12.7823   40.3210 O   0  0  0  0  0  0  0  0  0  0  0  0
   23.0134   16.2517   37.1175 C   0  0  1  0  0  0  0  0  0  0  0  0
   17.3961   14.1441   38.9690 O   0  0  0  0  0  0  0  0  0  0  0  0
   22.2789   15.2715   36.1849 C   0  0  2  0  0  0  0  0  0  0  0  0
   20.1121   14.0408   36.2699 C   0  0  1  0  0  0  0  0  0  0  0  0
   20.8268   12.7687   38.3457 C   0  0  2  0  0  0  0  0  0  0  0  0
   21.5042   11.4540   38.7446 C   0  0  0  0  0  0  0  0  0  0  0  0
   19.4269   12.8213   38.9156 C   0  0  2  0  0  0  0  0  0  0  0  0
   18.7260   14.0925   38.4397 C   0  0  1  0  0  0  0  0  0  0  0  0
   18.6732   14.1034   36.8920 C   0  0  1  0  0  0  0  0  0  0  0  0
  5  4  1  6  0  0  0
  5  8  1  0  0  0  0
  5 16  1  0  0  0  0
  8  7  1  6  0  0  0
  8 10  1  0  0  0  0
 10  1  1  6  0  0  0
 10 12  1  0  0  0  0
 11 18  1  0  0  0  0
 12 14  1  0  0  0  0
 14  2  1  1  0  0  0
 14 16  1  0  0  0  0
 16  9  1  1  0  0  0
 17  9  1  1  0  0  0
 17 11  1  0  0  0  0
 17 22  1  0  0  0  0
 18 19  1  6  0  0  0
 18 20  1  0  0  0  0
 19  3  1  0  0  0  0
 20 13  1  1  0  0  0
 20 21  1  0  0  0  0
 21 15  1  1  0  0  0
 21 22  1  0  0  0  0
 22  6  1  1  0  0  0
M  END
>  <CHROM.1>
79.47217442,68.61251747,157.08623179,21.43516867,14.67463564,36.85929370
-0.86903311,0.13861882,2.15738380

>  <Name>
2f4s_lig

>  <RI>
0

>  <Rbt.Current_Directory>
/home/itssahil/PROJECTS/Mol_Feturizer/New_Systems/rnas/2f4s

>  <Rbt.Executable>
rbdock ($Id: //depot/dev/client3/rdock/2013.1/src/exe/rbdock.cxx#4 $)

>  <Rbt.Library>
libRbt.so (2013.1, Build901 2013/11/27)

>  <Rbt.Parameter_File>
/export/apps/rDock/src/rDock_2013.1_src/data/scripts/dock_solv.prm

>  <Rbt.Receptor>
prm/pocket_docking_2.prm

>  <SCORE>
-13.1762

>  <SCORE.INTER>
-14.6245

>  <SCORE.INTER.CONST>
1

>  <SCORE.INTER.POLAR>
-1.33675

>  <SCORE.INTER.ROT>
3

>  <SCORE.INTER.SOLV>
15.3971

>  <SCORE.INTER.VDW>
-16.0262

>  <SCORE.INTER.norm>
-0.66475

>  <SCORE.INTRA>
1.44343

>  <SCORE.INTRA.DIHEDRAL>
2.19662

>  <SCORE.INTRA.DIHEDRAL.0>
1.67653

>  <SCORE.INTRA.POLAR>
0

>  <SCORE.INTRA.POLAR.0>
0

>  <SCORE.INTRA.REPUL>
0

>  <SCORE.INTRA.REPUL.0>
0

>  <SCORE.INTRA.SOLV>
1.03256

>  <SCORE.INTRA.SOLV.lig_0>
-76.6701

>  <SCORE.INTRA.VDW>
-0.171159

>  <SCORE.INTRA.VDW.0>
-1.53273

>  <SCORE.INTRA.norm>
0.0656105

>  <SCORE.RESTR>
0.00483873

>  <SCORE.RESTR.CAVITY>
0.00483873

>  <SCORE.RESTR.norm>
0.000219942

>  <SCORE.SYSTEM>
0

>  <SCORE.SYSTEM.CONST>
0

>  <SCORE.SYSTEM.DIHEDRAL>
0

>  <SCORE.SYSTEM.SOLV>
0

>  <SCORE.SYSTEM.norm>
0

>  <SCORE.heavy>
22

>  <SCORE.norm>
-0.59892

>  <RMSD>
0.898

$$$$
2f4s_lig
 OpenBabel11021811433D
libRbt.so/2013.1/901 2013/11/27
 22 23  0  0  0  0  0  0  0  0999 V2000
   25.8560   17.3179   34.6446 N   0  0  0  0  0  0  0  0  0  0  0  0
   23.1079   15.6677   38.5047 N   0  0  0  0  0  0  0  0  0  0  0  0
   22.0875   11.6554   40.1037 N   0  0  0  0  0  0  0  0  0  0  0  0
   21.5275   15.0690   33.8000 O   0  0  0  0  0  0  0  0  0  0  0  0
   22.2415   15.9272   34.7362 C   0  0  2  0  0  0  0  0  0  0  0  0
   17.9611   15.3590   36.4041 N   0  0  0  0  0  0  0  0  0  0  0  0
   23.6760   16.7822   32.9272 O   0  0  0  0  0  0  0  0  0  0  0  0
   23.6872   16.1826   34.2280 C   0  0  1  0  0  0  0  0  0  0  0  0
   20.9596   15.1139   36.6607 O   0  0  0  0  0  0  0  0  0  0  0  0
   24.4531   17.1026   35.1709 C   0  0  1  0  0  0  0  0  0  0  0  0
   20.7227   12.8222   36.8530 O   0  0  0  0  0  0  0  0  0  0  0  0
   24.4990   16.4680   36.6020 C   0  0  0  0  0  0  0  0  0  0  0  0
   19.4910   12.8015   40.3125 O   0  0  0  0  0  0  0  0  0  0  0  0
   23.0192   16.2576   37.1049 C   0  0  1  0  0  0  0  0  0  0  0  0
   17.3932   14.1675   38.9547 O   0  0  0  0  0  0  0  0  0  0  0  0
   22.2834   15.2758   36.1748 C   0  0  2  0  0  0  0  0  0  0  0  0
   20.1133   14.0508   36.2603 C   0  0  1  0  0  0  0  0  0  0  0  0
   20.8206   12.7801   38.3395 C   0  0  2  0  0  0  0  0  0  0  0  0
   21.4932   11.4640   38.7419 C   0  0  0  0  0  0  0  0  0  0  0  0
   19.4199   12.8382   38.9070 C   0  0  2  0  0  0  0  0  0  0  0  0
   18.7239   14.1108   38.4276 C   0  0  1  0  0  0  0  0  0  0  0  0
   18.6737   14.1191   36.8799 C   0  0  1  0  0  0  0  0  0  0  0  0
  5  4  1  6  0  0  0
  5  8  1  0  0  0  0
  5 16  1  0  0  0  0
  8  7  1  6  0  0  0
  8 10  1  0  0  0  0
 10  1  1  6  0  0  0
 10 12  1  0  0  0  0
 11 18  1  0  0  0  0
 12 14  1  0  0  0  0
 14  2  1  1  0  0  0
 14 16  1  0  0  0  0
 16  9  1  1  0  0  0
 17  9  1  1  0  0  0
 17 11  1  0  0  0  0
 17 22  1  0  0  0  0
 18 19  1  6  0  0  0
 18 20  1  0  0  0  0
 19  3  1  0  0  0  0
 20 13  1  1  0  0  0
 20 21  1  0  0  0  0
 21 15  1  1  0  0  0
 21 22  1  0  0  0  0
 22  6  1  1  0  0  0
M  END
>  <CHROM.1>
79.32504410,68.72861761,157.18199385,21.43593612,14.68236710,36.84883955
-0.86703559,0.13710232,2.15505473

>  <Name>
2f4s_lig

>  <RI>
0

>  <Rbt.Current_Directory>
/home/itssahil/PROJECTS/Mol_Feturizer/New_Systems/rnas/2f4s

>  <Rbt.Executable>
rbdock ($Id: //depot/dev/client3/rdock/2013.1/src/exe/rbdock.cxx#4 $)

>  <Rbt.Library>
libRbt.so (2013.1, Build901 2013/11/27)

>  <Rbt.Parameter_File>
/export/apps/rDock/src/rDock_2013.1_src/data/scripts/dock_solv.prm

>  <Rbt.Receptor>
prm/pocket_docking_2.prm

>  <SCORE>
-13.1478

>  <SCORE.INTER>
-14.5826

>  <SCORE.INTER.CONST>
1

>  <SCORE.INTER.POLAR>
-1.34719

>  <SCORE.INTER.ROT>
3

>  <SCORE.INTER.SOLV>
15.3863

>  <SCORE.INTER.VDW>
-15.9598

>  <SCORE.INTER.norm>
-0.662845

>  <SCORE.INTRA>
1.4311

>  <SCORE.INTRA.DIHEDRAL>
2.17029

>  <SCORE.INTRA.DIHEDRAL.0>
1.67653

>  <SCORE.INTRA.POLAR>
0

>  <SCORE.INTRA.POLAR.0>
0

>  <SCORE.INTRA.REPUL>
0

>  <SCORE.INTRA.REPUL.0>
0

>  <SCORE.INTRA.SOLV>
1.02615

>  <SCORE.INTRA.SOLV.lig_0>
-76.6701

>  <SCORE.INTRA.VDW>
-0.167125

>  <SCORE.INTRA.VDW.0>
-1.53273

>  <SCORE.INTRA.norm>
0.0650499

>  <SCORE.RESTR>
0.00369897

>  <SCORE.RESTR.CAVITY>
0.00369897

>  <SCORE.RESTR.norm>
0.000168135

>  <SCORE.SYSTEM>
0

>  <SCORE.SYSTEM.CONST>
0

>  <SCORE.SYSTEM.DIHEDRAL>
0

>  <SCORE.SYSTEM.SOLV>
0

>  <SCORE.SYSTEM.norm>
0

>  <SCORE.heavy>
22

>  <SCORE.norm>
-0.597627

>  <RMSD>
0.904

$$$$
2f4s_lig
 OpenBabel11021811433D
libRbt.so/2013.1/901 2013/11/27
 22 23  0  0  0  0  0  0  0  0999 V2000
   25.7744   17.4320   34.5963 N   0  0  0  0  0  0  0  0  0  0  0  0
   23.0100   15.8817   38.4860 N   0  0  0  0  0  0  0  0  0  0  0  0
   21.3047   10.6405   38.1422 N   0  0  0  0  0  0  0  0  0  0  0  0
   21.5104   15.0497   33.7903 O   0  0  0  0  0  0  0  0  0  0  0  0
   22.1914   15.9628   34.6988 C   0  0  2  0  0  0  0  0  0  0  0  0
   17.8919   15.2476   36.3952 N   0  0  0  0  0  0  0  0  0  0  0  0
   23.6316   16.7743   32.8743 O   0  0  0  0  0  0  0  0  0  0  0  0
   23.6380   16.2301   34.1994 C   0  0  1  0  0  0  0  0  0  0  0  0
   20.9012   15.2013   36.6389 O   0  0  0  0  0  0  0  0  0  0  0  0
   24.3693   17.2065   35.1126 C   0  0  1  0  0  0  0  0  0  0  0  0
   20.8008   12.9264   37.0386 O   0  0  0  0  0  0  0  0  0  0  0  0
   24.4094   16.6336   36.5697 C   0  0  0  0  0  0  0  0  0  0  0  0
   19.5932   13.1462   40.4997 O   0  0  0  0  0  0  0  0  0  0  0  0
   22.9277   16.4101   37.0615 C   0  0  1  0  0  0  0  0  0  0  0  0
   17.4105   14.2600   39.0486 O   0  0  0  0  0  0  0  0  0  0  0  0
   22.2277   15.3734   36.1641 C   0  0  2  0  0  0  0  0  0  0  0  0
   20.1165   14.0591   36.3449 C   0  0  1  0  0  0  0  0  0  0  0  0
   20.9099   13.0243   38.5217 C   0  0  2  0  0  0  0  0  0  0  0  0
   21.6612   11.7912   39.0328 C   0  0  0  0  0  0  0  0  0  0  0  0
   19.5117   13.0518   39.0974 C   0  0  2  0  0  0  0  0  0  0  0  0
   18.7390   14.2334   38.5138 C   0  0  1  0  0  0  0  0  0  0  0  0
   18.6791   14.0992   36.9722 C   0  0  1  0  0  0  0  0  0  0  0  0
  5  4  1  6  0  0  0
  5  8  1  0  0  0  0
  5 16  1  0  0  0  0
  8  7  1  6  0  0  0
  8 10  1  0  0  0  0
 10  1  1  6  0  0  0
 10 12  1  0  0  0  0
 11 18  1  0  0  0  0
 12 14  1  0  0  0  0
 14  2  1  1  0  0  0
 14 16  1  0  0  0  0
 16  9  1  1  0  0  0
 17  9  1  1  0  0  0
 17 11  1  0  0  0  0
 17 22  1  0  0  0  0
 18 19  1  1  0  0  0
 18 20  1  0  0  0  0
 19  3  1  0  0  0  0
 20 13  1  1  0  0  0
 20 21  1  0  0  0  0
 21 15  1  1  0  0  0
 21 22  1  0  0  0  0
 22  6  1  6  0  0  0
M  END
>  <CHROM.1>
83.68970071,66.42914256,-33.39868183,21.39165553,14.74184716,36.80746034
-0.86413128,0.11580376,2.18179864

>  <Name>
2f4s_lig

>  <RI>
0

>  <Rbt.Current_Directory>
/home/itssahil/PROJECTS/Mol_Feturizer/New_Systems/rnas/2f4s

>  <Rbt.Executable>
rbdock ($Id: //depot/dev/client3/rdock/2013.1/src/exe/rbdock.cxx#4 $)

>  <Rbt.Library>
libRbt.so (2013.1, Build901 2013/11/27)

>  <Rbt.Parameter_File>
/export/apps/rDock/src/rDock_2013.1_src/data/scripts/dock_solv.prm

>  <Rbt.Receptor>
prm/pocket_docking_2.prm

>  <SCORE>
-10.5195

>  <SCORE.INTER>
-13.1057

>  <SCORE.INTER.CONST>
1

>  <SCORE.INTER.POLAR>
-1.66519

>  <SCORE.INTER.ROT>
3

>  <SCORE.INTER.SOLV>
22.0659

>  <SCORE.INTER.VDW>
-16.1418

>  <SCORE.INTER.norm>
-0.595716

>  <SCORE.INTRA>
2.5814

>  <SCORE.INTRA.DIHEDRAL>
3.26622

>  <SCORE.INTRA.DIHEDRAL.0>
1.67653

>  <SCORE.INTRA.POLAR>
0

>  <SCORE.INTRA.POLAR.0>
0

>  <SCORE.INTRA.REPUL>
0

>  <SCORE.INTRA.REPUL.0>
0

>  <SCORE.INTRA.SOLV>
1.874

>  <SCORE.INTRA.SOLV.lig_0>
-76.6701

>  <SCORE.INTRA.VDW>
0.0112904

>  <SCORE.INTRA.VDW.0>
-1.53273

>  <SCORE.INTRA.norm>
0.117336

>  <SCORE.RESTR>
0.004811

>  <SCORE.RESTR.CAVITY>
0.004811

>  <SCORE.RESTR.norm>
0.000218682

>  <SCORE.SYSTEM>
0

>  <SCORE.SYSTEM.CONST>
0

>  <SCORE.SYSTEM.DIHEDRAL>
0

>  <SCORE.SYSTEM.SOLV>
0

>  <SCORE.SYSTEM.norm>
0

>  <SCORE.heavy>
22

>  <SCORE.norm>
-0.47816

>  <RMSD>
0.907

$$$$
2f4s_lig
 OpenBabel11021811433D
libRbt.so/2013.1/901 2013/11/27
 22 23  0  0  0  0  0  0  0  0999 V2000
   25.8297   17.3839   34.6779 N   0  0  0  0  0  0  0  0  0  0  0  0
   23.0301   15.6560   38.4664 N   0  0  0  0  0  0  0  0  0  0  0  0
   21.2944   10.5307   38.1294 N   0  0  0  0  0  0  0  0  0  0  0  0
   21.5186   15.1432   33.7290 O   0  0  0  0  0  0  0  0  0  0  0  0
   22.2172   15.9850   34.6913 C   0  0  2  0  0  0  0  0  0  0  0  0
   17.8953   15.1407   36.4064 N   0  0  0  0  0  0  0  0  0  0  0  0
   23.6757   16.8766   32.9195 O   0  0  0  0  0  0  0  0  0  0  0  0
   23.6695   16.2526   34.2089 C   0  0  1  0  0  0  0  0  0  0  0  0
   20.9097   15.1331   36.5816 O   0  0  0  0  0  0  0  0  0  0  0  0
   24.4198   17.1561   35.1798 C   0  0  1  0  0  0  0  0  0  0  0  0
   20.8489   12.8531   36.9598 O   0  0  0  0  0  0  0  0  0  0  0  0
   24.4466   16.4947   36.5992 C   0  0  0  0  0  0  0  0  0  0  0  0
   19.7175   13.0215   40.4494 O   0  0  0  0  0  0  0  0  0  0  0  0
   22.9602   16.2721   37.0768 C   0  0  1  0  0  0  0  0  0  0  0  0
   17.4877   14.1200   39.0597 O   0  0  0  0  0  0  0  0  0  0  0  0
   22.2400   15.3067   36.1179 C   0  0  2  0  0  0  0  0  0  0  0  0
   20.1340   13.9833   36.2936 C   0  0  1  0  0  0  0  0  0  0  0  0
   20.9904   12.9375   38.4410 C   0  0  2  0  0  0  0  0  0  0  0  0
   21.7697   11.7097   38.9221 C   0  0  0  0  0  0  0  0  0  0  0  0
   19.6054   12.9401   39.0484 C   0  0  2  0  0  0  0  0  0  0  0  0
   18.8039   14.1169   38.4947 C   0  0  1  0  0  0  0  0  0  0  0  0
   18.7108   13.9975   36.9535 C   0  0  1  0  0  0  0  0  0  0  0  0
  5  4  1  6  0  0  0
  5  8  1  0  0  0  0
  5 16  1  0  0  0  0
  8  7  1  6  0  0  0
  8 10  1  0  0  0  0
 10  1  1  6  0  0  0
 10 12  1  0  0  0  0
 11 18  1  0  0  0  0
 12 14  1  0  0  0  0
 14  2  1  1  0  0  0
 14 16  1  0  0  0  0
 16  9  1  1  0  0  0
 17  9  1  1  0  0  0
 17 11  1  0  0  0  0
 17 22  1  0  0  0  0
 18 19  1  1  0  0  0
 18 20  1  0  0  0  0
 19  3  1  0  0  0  0
 20 13  1  1  0  0  0
 20 21  1  0  0  0  0
 21 15  1  1  0  0  0
 21 22  1  0  0  0  0
 22  6  1  6  0  0  0
M  END
>  <CHROM.1>
88.15929656,64.12297640,-39.66982820,21.43584792,14.66939892,36.78905907
-0.87019664,0.11751301,2.20263991

>  <Name>
2f4s_lig

>  <RI>
0

>  <Rbt.Current_Directory>
/home/itssahil/PROJECTS/Mol_Feturizer/New_Systems/rnas/2f4s

>  <Rbt.Executable>
rbdock ($Id: //depot/dev/client3/rdock/2013.1/src/exe/rbdock.cxx#4 $)

>  <Rbt.Library>
libRbt.so (2013.1, Build901 2013/11/27)

>  <Rbt.Parameter_File>
/export/apps/rDock/src/rDock_2013.1_src/data/scripts/dock_solv.prm

>  <Rbt.Receptor>
prm/pocket_docking_2.prm

>  <SCORE>
-10.4467

>  <SCORE.INTER>
-13.0666

>  <SCORE.INTER.CONST>
1

>  <SCORE.INTER.POLAR>
-1.57063

>  <SCORE.INTER.ROT>
3

>  <SCORE.INTER.SOLV>
22.6167

>  <SCORE.INTER.VDW>
-16.6145

>  <SCORE.INTER.norm>
-0.593936

>  <SCORE.INTRA>
2.61989

>  <SCORE.INTRA.DIHEDRAL>
3.15406

>  <SCORE.INTRA.DIHEDRAL.0>
1.67653

>  <SCORE.INTRA.POLAR>
0

>  <SCORE.INTRA.POLAR.0>
0

>  <SCORE.INTRA.REPUL>
0

>  <SCORE.INTRA.REPUL.0>
0

>  <SCORE.INTRA.SOLV>
2.37789

>  <SCORE.INTRA.SOLV.lig_0>
-76.6701

>  <SCORE.INTRA.VDW>
-0.146082

>  <SCORE.INTRA.VDW.0>
-1.53273

>  <SCORE.INTRA.norm>
0.119086

>  <SCORE.RESTR>
0

>  <SCORE.RESTR.CAVITY>
0

>  <SCORE.RESTR.norm>
0

>  <SCORE.SYSTEM>
0

>  <SCORE.SYSTEM.CONST>
0

>  <SCORE.SYSTEM.DIHEDRAL>
0

>  <SCORE.SYSTEM.SOLV>
0

>  <SCORE.SYSTEM.norm>
0

>  <SCORE.heavy>
22

>  <SCORE.norm>
-0.474851

>  <RMSD>
0.908

$$$$
2f4s_lig
 OpenBabel11021811433D
libRbt.so/2013.1/901 2013/11/27
 22 23  0  0  0  0  0  0  0  0999 V2000
   25.8323   17.3297   34.6952 N   0  0  0  0  0  0  0  0  0  0  0  0
   23.1100   15.5259   38.5046 N   0  0  0  0  0  0  0  0  0  0  0  0
   22.6939   11.6803   38.9471 N   0  0  0  0  0  0  0  0  0  0  0  0
   21.5220   15.0709   33.7863 O   0  0  0  0  0  0  0  0  0  0  0  0
   22.2308   15.9037   34.7490 C   0  0  2  0  0  0  0  0  0  0  0  0
   18.0150   15.2113   36.0196 N   0  0  0  0  0  0  0  0  0  0  0  0
   23.6524   16.8320   32.9661 O   0  0  0  0  0  0  0  0  0  0  0  0
   23.6727   16.1892   34.2461 C   0  0  1  0  0  0  0  0  0  0  0  0
   20.9617   15.0146   36.6484 O   0  0  0  0  0  0  0  0  0  0  0  0
   24.4328   17.0841   35.2174 C   0  0  1  0  0  0  0  0  0  0  0  0
   20.6833   12.7624   37.0904 O   0  0  0  0  0  0  0  0  0  0  0  0
   24.4885   16.4022   36.6263 C   0  0  0  0  0  0  0  0  0  0  0  0
   19.0615   13.1589   40.3612 O   0  0  0  0  0  0  0  0  0  0  0  0
   23.0120   16.1615   37.1256 C   0  0  1  0  0  0  0  0  0  0  0  0
   17.1465   14.3379   38.6140 O   0  0  0  0  0  0  0  0  0  0  0  0
   22.2826   15.2049   36.1649 C   0  0  2  0  0  0  0  0  0  0  0  0
   20.1575   13.9063   36.2858 C   0  0  1  0  0  0  0  0  0  0  0  0
   20.6091   12.9030   38.5722 C   0  0  2  0  0  0  0  0  0  0  0  0
   21.2188   11.6495   39.2071 C   0  0  0  0  0  0  0  0  0  0  0  0
   19.1530   13.0230   38.9630 C   0  0  2  0  0  0  0  0  0  0  0  0
   18.5284   14.2239   38.2548 C   0  0  1  0  0  0  0  0  0  0  0  0
   18.6568   14.0426   36.7222 C   0  0  1  0  0  0  0  0  0  0  0  0
  5  4  1  6  0  0  0
  5  8  1  0  0  0  0
  5 16  1  0  0  0  0
  8  7  1  6  0  0  0
  8 10  1  0  0  0  0
 10  1  1  6  0  0  0
 10 12  1  0  0  0  0
 11 18  1  0  0  0  0
 12 14  1  0  0  0  0
 14  2  1  1  0  0  0
 14 16  1  0  0  0  0
 16  9  1  1  0  0  0
 17  9  1  1  0  0  0
 17 11  1  0  0  0  0
 17 22  1  0  0  0  0
 18 19  1  1  0  0  0
 18 20  1  0  0  0  0
 19  3  1  0  0  0  0
 20 13  1  1  0  0  0
 20 21  1  0  0  0  0
 21 15  1  6  0  0  0
 21 22  1  0  0  0  0
 22  6  1  6  0  0  0
M  END
>  <CHROM.1>
83.86817388,76.84193240,69.60338432,21.38422240,14.69793636,36.80455022,-0.81360313
0.11904703,2.15605024

>  <Name>
2f4s_lig

>  <RI>
2.26097e+07

>  <Rbt.Current_Directory>
/home/itssahil/PROJECTS/Mol_Feturizer/New_Systems/rnas/2f4s

>  <Rbt.Executable>
rbdock ($Id: //depot/dev/client3/rdock/2013.1/src/exe/rbdock.cxx#4 $)

>  <Rbt.Library>
libRbt.so (2013.1, Build901 2013/11/27)

>  <Rbt.Parameter_File>
/export/apps/rDock/src/rDock_2013.1_src/data/scripts/dock_solv.prm

>  <Rbt.Receptor>
prm/pocket_docking_7.prm

>  <SCORE>
-13.312

>  <SCORE.INTER>
-14.8659

>  <SCORE.INTER.CONST>
1

>  <SCORE.INTER.POLAR>
-1.36699

>  <SCORE.INTER.ROT>
3

>  <SCORE.INTER.SOLV>
17.743

>  <SCORE.INTER.VDW>
-16.8683

>  <SCORE.INTER.norm>
-0.675724

>  <SCORE.INTRA>
1.55391

>  <SCORE.INTRA.DIHEDRAL>
2.52511

>  <SCORE.INTRA.DIHEDRAL.0>
1.67653

>  <SCORE.INTRA.POLAR>
0

>  <SCORE.INTRA.POLAR.0>
0

>  <SCORE.INTRA.REPUL>
0

>  <SCORE.INTRA.REPUL.0>
0

>  <SCORE.INTRA.SOLV>
1.30947

>  <SCORE.INTRA.SOLV.lig_0>
-76.6701

>  <SCORE.INTRA.VDW>
-0.363382

>  <SCORE.INTRA.VDW.0>
-1.53273

>  <SCORE.INTRA.norm>
0.0706322

>  <SCORE.RESTR>
0

>  <SCORE.RESTR.CAVITY>
0

>  <SCORE.RESTR.norm>
0

>  <SCORE.SYSTEM>
0

>  <SCORE.SYSTEM.CONST>
0

>  <SCORE.SYSTEM.DIHEDRAL>
0

>  <SCORE.SYSTEM.SOLV>
0

>  <SCORE.SYSTEM.norm>
0

>  <SCORE.heavy>
22

>  <SCORE.norm>
-0.605092

>  <RMSD>
0.910

$$$$
2f4s_lig
 OpenBabel11021811433D
libRbt.so/2013.1/901 2013/11/27
 22 23  0  0  0  0  0  0  0  0999 V2000
   25.5974   17.5915   34.5664 N   0  0  0  0  0  0  0  0  0  0  0  0
   22.5995   16.6062   38.4675 N   0  0  0  0  0  0  0  0  0  0  0  0
   21.2152   10.9673   38.2129 N   0  0  0  0  0  0  0  0  0  0  0  0
   21.5195   14.8629   33.9084 O   0  0  0  0  0  0  0  0  0  0  0  0
   22.0850   15.9613   34.6808 C   0  0  2  0  0  0  0  0  0  0  0  0
   17.6671   15.4454   36.4007 N   0  0  0  0  0  0  0  0  0  0  0  0
   23.6305   16.5145   32.8458 O   0  0  0  0  0  0  0  0  0  0  0  0
   23.5541   16.2175   34.2450 C   0  0  1  0  0  0  0  0  0  0  0  0
   20.6775   15.4865   36.6307 O   0  0  0  0  0  0  0  0  0  0  0  0
   24.1665   17.3818   35.0140 C   0  0  1  0  0  0  0  0  0  0  0  0
   20.6417   13.2173   37.0720 O   0  0  0  0  0  0  0  0  0  0  0  0
   24.1143   17.0821   36.5504 C   0  0  0  0  0  0  0  0  0  0  0  0
   19.4436   13.4669   40.5343 O   0  0  0  0  0  0  0  0  0  0  0  0
   22.6091   16.8656   36.9682 C   0  0  1  0  0  0  0  0  0  0  0  0
   17.2247   14.4935   39.0739 O   0  0  0  0  0  0  0  0  0  0  0  0
   22.0291   15.6467   36.2279 C   0  0  2  0  0  0  0  0  0  0  0  0
   19.9235   14.3179   36.3612 C   0  0  1  0  0  0  0  0  0  0  0  0
   20.7545   13.3452   38.5525 C   0  0  2  0  0  0  0  0  0  0  0  0
   21.5419   12.1428   39.0822 C   0  0  0  0  0  0  0  0  0  0  0  0
   19.3586   13.3447   39.1344 C   0  0  2  0  0  0  0  0  0  0  0  0
   18.5511   14.4937   38.5332 C   0  0  1  0  0  0  0  0  0  0  0  0
   18.4882   14.3299   36.9946 C   0  0  1  0  0  0  0  0  0  0  0  0
  5  4  1  6  0  0  0
  5  8  1  0  0  0  0
  5 16  1  0  0  0  0
  8  7  1  6  0  0  0
  8 10  1  0  0  0  0
 10  1  1  6  0  0  0
 10 12  1  0  0  0  0
 11 18  1  0  0  0  0
 12 14  1  0  0  0  0
 14  2  1  1  0  0  0
 14 16  1  0  0  0  0
 16  9  1  1  0  0  0
 17  9  1  1  0  0  0
 17 11  1  0  0  0  0
 17 22  1  0  0  0  0
 18 19  1  1  0  0  0
 18 20  1  0  0  0  0
 19  3  1  0  0  0  0
 20 13  1  1  0  0  0
 20 21  1  0  0  0  0
 21 15  1  1  0  0  0
 21 22  1  0  0  0  0
 22  6  1  6  0  0  0
M  END
>  <CHROM.1>
76.40928366,61.78767510,-33.30587349,21.22045591,14.97142682,36.82013587
-0.84161768,0.12488200,2.13361240

>  <Name>
2f4s_lig

>  <RI>
0

>  <Rbt.Current_Directory>
/home/itssahil/PROJECTS/Mol_Feturizer/New_Systems/rnas/2f4s

>  <Rbt.Executable>
rbdock ($Id: //depot/dev/client3/rdock/2013.1/src/exe/rbdock.cxx#4 $)

>  <Rbt.Library>
libRbt.so (2013.1, Build901 2013/11/27)

>  <Rbt.Parameter_File>
/export/apps/rDock/src/rDock_2013.1_src/data/scripts/dock_solv.prm

>  <Rbt.Receptor>
prm/pocket_docking_2.prm

>  <SCORE>
-10.5628

>  <SCORE.INTER>
-12.4183

>  <SCORE.INTER.CONST>
1

>  <SCORE.INTER.POLAR>
-1.84675

>  <SCORE.INTER.ROT>
3

>  <SCORE.INTER.SOLV>
19.8624

>  <SCORE.INTER.VDW>
-14.3438

>  <SCORE.INTER.norm>
-0.564468

>  <SCORE.INTRA>
1.85552

>  <SCORE.INTRA.DIHEDRAL>
1.92655

>  <SCORE.INTRA.DIHEDRAL.0>
1.67653

>  <SCORE.INTRA.POLAR>
0

>  <SCORE.INTRA.POLAR.0>
0

>  <SCORE.INTRA.REPUL>
0

>  <SCORE.INTRA.REPUL.0>
0

>  <SCORE.INTRA.SOLV>
1.4185

>  <SCORE.INTRA.SOLV.lig_0>
-76.6701

>  <SCORE.INTRA.VDW>
0.182991

>  <SCORE.INTRA.VDW.0>
-1.53273

>  <SCORE.INTRA.norm>
0.0843417

>  <SCORE.RESTR>
0

>  <SCORE.RESTR.CAVITY>
0

>  <SCORE.RESTR.norm>
0

>  <SCORE.SYSTEM>
0

>  <SCORE.SYSTEM.CONST>
0

>  <SCORE.SYSTEM.DIHEDRAL>
0

>  <SCORE.SYSTEM.SOLV>
0

>  <SCORE.SYSTEM.norm>
0

>  <SCORE.heavy>
22

>  <SCORE.norm>
-0.480126

>  <RMSD>
1.065

$$$$
2f4s_lig
 OpenBabel11021811433D
libRbt.so/2013.1/901 2013/11/27
 22 23  0  0  0  0  0  0  0  0999 V2000
   25.7347   17.4216   34.6442 N   0  0  0  0  0  0  0  0  0  0  0  0
   22.7804   15.7441   38.3366 N   0  0  0  0  0  0  0  0  0  0  0  0
   21.2517   10.7410   38.1593 N   0  0  0  0  0  0  0  0  0  0  0  0
   21.4708   15.1579   33.5479 O   0  0  0  0  0  0  0  0  0  0  0  0
   22.1270   16.0154   34.5262 C   0  0  2  0  0  0  0  0  0  0  0  0
   17.7403   15.1182   36.0546 N   0  0  0  0  0  0  0  0  0  0  0  0
   23.6576   16.8837   32.8043 O   0  0  0  0  0  0  0  0  0  0  0  0
   23.5980   16.2788   34.1014 C   0  0  1  0  0  0  0  0  0  0  0  0
   20.7422   15.1887   36.3722 O   0  0  0  0  0  0  0  0  0  0  0  0
   24.3053   17.1983   35.0896 C   0  0  1  0  0  0  0  0  0  0  0  0
   20.7054   12.9396   36.9059 O   0  0  0  0  0  0  0  0  0  0  0  0
   24.2731   16.5580   36.5185 C   0  0  0  0  0  0  0  0  0  0  0  0
   19.4026   13.3239   40.3177 O   0  0  0  0  0  0  0  0  0  0  0  0
   22.7682   16.3393   36.9363 C   0  0  1  0  0  0  0  0  0  0  0  0
   17.2230   14.2746   38.7506 O   0  0  0  0  0  0  0  0  0  0  0  0
   22.0905   15.3583   35.9624 C   0  0  2  0  0  0  0  0  0  0  0  0
   20.0029   14.0051   36.1291 C   0  0  1  0  0  0  0  0  0  0  0  0
   20.7731   13.1292   38.3825 C   0  0  2  0  0  0  0  0  0  0  0  0
   21.5506   11.9550   38.9848 C   0  0  0  0  0  0  0  0  0  0  0  0
   19.3603   13.1434   38.9221 C   0  0  2  0  0  0  0  0  0  0  0  0
   18.5650   14.2613   38.2501 C   0  0  1  0  0  0  0  0  0  0  0  0
   18.5492   14.0337   36.7184 C   0  0  1  0  0  0  0  0  0  0  0  0
  5  4  1  6  0  0  0
  5  8  1  0  0  0  0
  5 16  1  0  0  0  0
  8  7  1  6  0  0  0
  8 10  1  0  0  0  0
 10  1  1  6  0  0  0
 10 12  1  0  0  0  0
 11 18  1  0  0  0  0
 12 14  1  0  0  0  0
 14  2  1  1  0  0  0
 14 16  1  0  0  0  0
 16  9  1  1  0  0  0
 17  9  1  1  0  0  0
 17 11  1  0  0  0  0
 17 22  1  0  0  0  0
 18 19  1  1  0  0  0
 18 20  1  0  0  0  0
 19  3  1  0  0  0  0
 20 13  1  1  0  0  0
 20 21  1  0  0  0  0
 21 15  1  1  0  0  0
 21 22  1  0  0  0  0
 22  6  1  6  0  0  0
M  END
>  <CHROM.1>
91.53775828,64.03462377,-33.55357704,21.27666376,14.76371184,36.65232649
-0.83958772,0.15090676,2.14900950

>  <Name>
2f4s_lig

>  <RI>
0

>  <Rbt.Current_Directory>
/home/itssahil/PROJECTS/Mol_Feturizer/New_Systems/rnas/2f4s

>  <Rbt.Executable>
rbdock ($Id: //depot/dev/client3/rdock/2013.1/src/exe/rbdock.cxx#4 $)

>  <Rbt.Library>
libRbt.so (2013.1, Build901 2013/11/27)

>  <Rbt.Parameter_File>
/export/apps/rDock/src/rDock_2013.1_src/data/scripts/dock_solv.prm

>  <Rbt.Receptor>
prm/pocket_docking_4.prm

>  <SCORE>
-10.9049

>  <SCORE.INTER>
-14.3127

>  <SCORE.INTER.CONST>
1

>  <SCORE.INTER.POLAR>
-1.80146

>  <SCORE.INTER.ROT>
3

>  <SCORE.INTER.SOLV>
21.2259

>  <SCORE.INTER.VDW>
-16.2122

>  <SCORE.INTER.norm>
-0.650578

>  <SCORE.INTRA>
3.40782

>  <SCORE.INTRA.DIHEDRAL>
4.57119

>  <SCORE.INTRA.DIHEDRAL.0>
1.67653

>  <SCORE.INTRA.POLAR>
0

>  <SCORE.INTRA.POLAR.0>
0

>  <SCORE.INTRA.REPUL>
0

>  <SCORE.INTRA.REPUL.0>
0

>  <SCORE.INTRA.SOLV>
2.53567

>  <SCORE.INTRA.SOLV.lig_0>
-76.6701

>  <SCORE.INTRA.VDW>
-0.145606

>  <SCORE.INTRA.VDW.0>
-1.53273

>  <SCORE.INTRA.norm>
0.154901

>  <SCORE.RESTR>
0

>  <SCORE.RESTR.CAVITY>
0

>  <SCORE.RESTR.norm>
0

>  <SCORE.SYSTEM>
0

>  <SCORE.SYSTEM.CONST>
0

>  <SCORE.SYSTEM.DIHEDRAL>
0

>  <SCORE.SYSTEM.SOLV>
0

>  <SCORE.SYSTEM.norm>
0

>  <SCORE.heavy>
22

>  <SCORE.norm>
-0.495677

>  <RMSD>
1.095

$$$$
2f4s_lig
 OpenBabel11021811433D
libRbt.so/2013.1/901 2013/11/27
 22 23  0  0  0  0  0  0  0  0999 V2000
   25.3427   17.7673   34.6244 N   0  0  0  0  0  0  0  0  0  0  0  0
   22.0970   17.1002   38.3923 N   0  0  0  0  0  0  0  0  0  0  0  0
   21.3056   11.0292   38.2306 N   0  0  0  0  0  0  0  0  0  0  0  0
   21.6068   14.5593   34.1151 O   0  0  0  0  0  0  0  0  0  0  0  0
   21.9966   15.8183   34.7362 C   0  0  2  0  0  0  0  0  0  0  0  0
   17.4660   15.2360   36.3786 N   0  0  0  0  0  0  0  0  0  0  0  0
   23.6494   16.2343   32.9595 O   0  0  0  0  0  0  0  0  0  0  0  0
   23.4706   16.1545   34.3785 C   0  0  1  0  0  0  0  0  0  0  0  0
   20.4629   15.5117   36.6237 O   0  0  0  0  0  0  0  0  0  0  0  0
   23.9013   17.4825   34.9891 C   0  0  1  0  0  0  0  0  0  0  0  0
   20.6025   13.2455   37.0596 O   0  0  0  0  0  0  0  0  0  0  0  0
   23.7340   17.4242   36.5452 C   0  0  0  0  0  0  0  0  0  0  0  0
   19.3719   13.3915   40.5165 O   0  0  0  0  0  0  0  0  0  0  0  0
   22.2222   17.1204   36.8759 C   0  0  1  0  0  0  0  0  0  0  0  0
   17.0866   14.2454   39.0473 O   0  0  0  0  0  0  0  0  0  0  0  0
   21.8260   15.7466   36.3052 C   0  0  2  0  0  0  0  0  0  0  0  0
   19.8038   14.2885   36.3478 C   0  0  1  0  0  0  0  0  0  0  0  0
   20.6979   13.3779   38.5410 C   0  0  2  0  0  0  0  0  0  0  0  0
   21.5742   12.2394   39.0719 C   0  0  0  0  0  0  0  0  0  0  0  0
   19.3035   13.2667   39.1159 C   0  0  2  0  0  0  0  0  0  0  0  0
   18.4114   14.3507   38.5133 C   0  0  1  0  0  0  0  0  0  0  0  0
   18.3690   14.1865   36.9740 C   0  0  1  0  0  0  0  0  0  0  0  0
  5  4  1  6  0  0  0
  5  8  1  0  0  0  0
  5 16  1  0  0  0  0
  8  7  1  6  0  0  0
  8 10  1  0  0  0  0
 10  1  1  1  0  0  0
 10 12  1  0  0  0  0
 11 18  1  0  0  0  0
 12 14  1  0  0  0  0
 14  2  1  1  0  0  0
 14 16  1  0  0  0  0
 16  9  1  6  0  0  0
 17  9  1  1  0  0  0
 17 11  1  0  0  0  0
 17 22  1  0  0  0  0
 18 19  1  1  0  0  0
 18 20  1  0  0  0  0
 19  3  1  0  0  0  0
 20 13  1  1  0  0  0
 20 21  1  0  0  0  0
 21 15  1  1  0  0  0
 21 22  1  0  0  0  0
 22  6  1  6  0  0  0
M  END
>  <CHROM.1>
68.73861366,57.57588917,-35.42528964,21.08343604,14.96612467,36.83442925
-0.84992698,0.04272416,2.23701592

>  <Name>
2f4s_lig

>  <RI>
2.00194e+07

>  <Rbt.Current_Directory>
/home/itssahil/PROJECTS/Mol_Feturizer/New_Systems/rnas/2f4s

>  <Rbt.Executable>
rbdock ($Id: //depot/dev/client3/rdock/2013.1/src/exe/rbdock.cxx#4 $)

>  <Rbt.Library>
libRbt.so (2013.1, Build901 2013/11/27)

>  <Rbt.Parameter_File>
/export/apps/rDock/src/rDock_2013.1_src/data/scripts/dock_solv.prm

>  <Rbt.Receptor>
prm/pocket_docking_6.prm

>  <SCORE>
-11.4125

>  <SCORE.INTER>
-12.7191

>  <SCORE.INTER.CONST>
1

>  <SCORE.INTER.POLAR>
-1.72584

>  <SCORE.INTER.ROT>
3

>  <SCORE.INTER.SOLV>
19.1502

>  <SCORE.INTER.VDW>
-14.71

>  <SCORE.INTER.norm>
-0.578143

>  <SCORE.INTRA>
1.30661

>  <SCORE.INTRA.DIHEDRAL>
0.78424

>  <SCORE.INTRA.DIHEDRAL.0>
1.67653

>  <SCORE.INTRA.POLAR>
0

>  <SCORE.INTRA.POLAR.0>
0

>  <SCORE.INTRA.REPUL>
0

>  <SCORE.INTRA.REPUL.0>
0

>  <SCORE.INTRA.SOLV>
1.15592

>  <SCORE.INTRA.SOLV.lig_0>
-76.6701

>  <SCORE.INTRA.VDW>
0.336524

>  <SCORE.INTRA.VDW.0>
-1.53273

>  <SCORE.INTRA.norm>
0.0593912

>  <SCORE.RESTR>
0

>  <SCORE.RESTR.CAVITY>
0

>  <SCORE.RESTR.norm>
0

>  <SCORE.SYSTEM>
0

>  <SCORE.SYSTEM.CONST>
0

>  <SCORE.SYSTEM.DIHEDRAL>
0

>  <SCORE.SYSTEM.SOLV>
0

>  <SCORE.SYSTEM.norm>
0

>  <SCORE.heavy>
22

>  <SCORE.norm>
-0.518752

>  <RMSD>
1.241

$$$$
2f4s_lig
 OpenBabel11021811433D
libRbt.so/2013.1/901 2013/11/27
 22 23  0  0  0  0  0  0  0  0999 V2000
   25.0373   16.9555   34.1882 N   0  0  0  0  0  0  0  0  0  0  0  0
   23.9340   15.2713   38.7841 N   0  0  0  0  0  0  0  0  0  0  0  0
   22.7587   10.4157   40.2502 N   0  0  0  0  0  0  0  0  0  0  0  0
   20.7664   14.5804   34.9789 O   0  0  0  0  0  0  0  0  0  0  0  0
   21.7469   15.4676   35.5907 C   0  0  2  0  0  0  0  0  0  0  0  0
   18.4423   15.2100   38.7137 N   0  0  0  0  0  0  0  0  0  0  0  0
   22.3981   16.3425   33.3834 O   0  0  0  0  0  0  0  0  0  0  0  0
   22.9000   15.7571   34.5905 C   0  0  1  0  0  0  0  0  0  0  0  0
   21.2788   14.6397   37.8499 O   0  0  0  0  0  0  0  0  0  0  0  0
   23.9294   16.7075   35.1896 C   0  0  1  0  0  0  0  0  0  0  0  0
   20.7667   12.3866   37.7712 O   0  0  0  0  0  0  0  0  0  0  0  0
   24.5122   16.0894   36.5054 C   0  0  0  0  0  0  0  0  0  0  0  0
   20.7688   11.8135   41.3985 O   0  0  0  0  0  0  0  0  0  0  0  0
   23.3241   15.8439   37.5130 C   0  0  1  0  0  0  0  0  0  0  0  0
   18.5778   13.6069   41.0926 O   0  0  0  0  0  0  0  0  0  0  0  0
   22.3292   14.8327   36.9149 C   0  0  2  0  0  0  0  0  0  0  0  0
   20.1933   13.7583   37.6227 C   0  0  1  0  0  0  0  0  0  0  0  0
   21.3458   12.0491   39.1022 C   0  0  2  0  0  0  0  0  0  0  0  0
   21.9011   10.6229   39.0394 C   0  0  0  0  0  0  0  0  0  0  0  0
   20.2408   12.1276   40.1318 C   0  0  2  0  0  0  0  0  0  0  0  0
   19.6313   13.5285   40.1254 C   0  0  1  0  0  0  0  0  0  0  0  0
   19.0710   13.8404   38.7158 C   0  0  1  0  0  0  0  0  0  0  0  0
  5  4  1  6  0  0  0
  5  8  1  0  0  0  0
  5 16  1  0  0  0  0
  8  7  1  6  0  0  0
  8 10  1  0  0  0  0
 10  1  1  6  0  0  0
 10 12  1  0  0  0  0
 11 18  1  0  0  0  0
 12 14  1  0  0  0  0
 14  2  1  1  0  0  0
 14 16  1  0  0  0  0
 16  9  1  1  0  0  0
 17  9  1  1  0  0  0
 17 11  1  0  0  0  0
 17 22  1  0  0  0  0
 18 19  1  6  0  0  0
 18 20  1  0  0  0  0
 19  3  1  0  0  0  0
 20 13  1  1  0  0  0
 20 21  1  0  0  0  0
 21 15  1  1  0  0  0
 21 22  1  0  0  0  0
 22  6  1  1  0  0  0
M  END
>  <CHROM.1>
63.76020817,73.00348424,166.68181377,21.60142844,14.15708968,37.70890181
-1.12049909,-0.16648625,2.29364601

>  <Name>
2f4s_lig

>  <RI>
0

>  <Rbt.Current_Directory>
/home/itssahil/PROJECTS/Mol_Feturizer/New_Systems/rnas/2f4s

>  <Rbt.Executable>
rbdock ($Id: //depot/dev/client3/rdock/2013.1/src/exe/rbdock.cxx#4 $)

>  <Rbt.Library>
libRbt.so (2013.1, Build901 2013/11/27)

>  <Rbt.Parameter_File>
/export/apps/rDock/src/rDock_2013.1_src/data/scripts/dock_solv.prm

>  <Rbt.Receptor>
prm/pocket_docking_5.prm

>  <SCORE>
-13.9953

>  <SCORE.INTER>
-14.8043

>  <SCORE.INTER.CONST>
1

>  <SCORE.INTER.POLAR>
-0.979796

>  <SCORE.INTER.ROT>
3

>  <SCORE.INTER.SOLV>
17.9315

>  <SCORE.INTER.VDW>
-18.1807

>  <SCORE.INTER.norm>
-0.672924

>  <SCORE.INTRA>
0.808996

>  <SCORE.INTRA.DIHEDRAL>
-0.0641498

>  <SCORE.INTRA.DIHEDRAL.0>
1.67653

>  <SCORE.INTRA.POLAR>
0

>  <SCORE.INTRA.POLAR.0>
0

>  <SCORE.INTRA.REPUL>
0

>  <SCORE.INTRA.REPUL.0>
0

>  <SCORE.INTRA.SOLV>
0.728242

>  <SCORE.INTRA.SOLV.lig_0>
-76.6701

>  <SCORE.INTRA.VDW>
0.47695

>  <SCORE.INTRA.VDW.0>
-1.53273

>  <SCORE.INTRA.norm>
0.0367726

>  <SCORE.RESTR>
0

>  <SCORE.RESTR.CAVITY>
0

>  <SCORE.RESTR.norm>
0

>  <SCORE.SYSTEM>
0

>  <SCORE.SYSTEM.CONST>
0

>  <SCORE.SYSTEM.DIHEDRAL>
0

>  <SCORE.SYSTEM.SOLV>
0

>  <SCORE.SYSTEM.norm>
0

>  <SCORE.heavy>
22

>  <SCORE.norm>
-0.636152

>  <RMSD>
1.273

$$$$
2f4s_lig
 OpenBabel11021811433D
libRbt.so/2013.1/901 2013/11/27
 22 23  0  0  0  0  0  0  0  0999 V2000
   25.0096   16.9953   34.1862 N   0  0  0  0  0  0  0  0  0  0  0  0
   23.9497   15.2957   38.7866 N   0  0  0  0  0  0  0  0  0  0  0  0
   22.7451   10.3785   40.2218 N   0  0  0  0  0  0  0  0  0  0  0  0
   20.7745   14.5630   34.9956 O   0  0  0  0  0  0  0  0  0  0  0  0
   21.7458   15.4631   35.6031 C   0  0  2  0  0  0  0  0  0  0  0  0
   18.4659   15.2238   38.7222 N   0  0  0  0  0  0  0  0  0  0  0  0
   22.3752   16.3470   33.3931 O   0  0  0  0  0  0  0  0  0  0  0  0
   22.8904   15.7682   34.5979 C   0  0  1  0  0  0  0  0  0  0  0  0
   21.2990   14.6287   37.8642 O   0  0  0  0  0  0  0  0  0  0  0  0
   23.9097   16.7322   35.1925 C   0  0  1  0  0  0  0  0  0  0  0  0
   20.7622   12.3821   37.7656 O   0  0  0  0  0  0  0  0  0  0  0  0
   24.5066   16.1218   36.5055 C   0  0  0  0  0  0  0  0  0  0  0  0
   20.7444   11.7802   41.3882 O   0  0  0  0  0  0  0  0  0  0  0  0
   23.3265   15.8602   37.5184 C   0  0  1  0  0  0  0  0  0  0  0  0
   18.5746   13.6003   41.0887 O   0  0  0  0  0  0  0  0  0  0  0  0
   22.3425   14.8359   36.9246 C   0  0  2  0  0  0  0  0  0  0  0  0
   20.2047   13.7613   37.6261 C   0  0  1  0  0  0  0  0  0  0  0  0
   21.3325   12.0276   39.0961 C   0  0  2  0  0  0  0  0  0  0  0  0
   21.8721   10.5958   39.0239 C   0  0  0  0  0  0  0  0  0  0  0  0
   20.2246   12.1102   40.1222 C   0  0  2  0  0  0  0  0  0  0  0  0
   19.6308   13.5178   40.1247 C   0  0  1  0  0  0  0  0  0  0  0  0
   19.0793   13.8472   38.7157 C   0  0  1  0  0  0  0  0  0  0  0  0
  5  4  1  6  0  0  0
  5  8  1  0  0  0  0
  5 16  1  0  0  0  0
  8  7  1  6  0  0  0
  8 10  1  0  0  0  0
 10  1  1  6  0  0  0
 10 12  1  0  0  0  0
 11 18  1  0  0  0  0
 12 14  1  0  0  0  0
 14  2  1  1  0  0  0
 14 16  1  0  0  0  0
 16  9  1  1  0  0  0
 17  9  1  1  0  0  0
 17 11  1  0  0  0  0
 17 22  1  0  0  0  0
 18 19  1  6  0  0  0
 18 20  1  0  0  0  0
 19  3  1  0  0  0  0
 20 13  1  1  0  0  0
 20 21  1  0  0  0  0
 21 15  1  1  0  0  0
 21 22  1  0  0  0  0
 22  6  1  1  0  0  0
M  END
>  <CHROM.1>
61.92213057,74.18530544,165.55782396,21.59735555,14.15609900,37.70946249
-1.12111444,-0.17196045,2.30353923

>  <Name>
2f4s_lig

>  <RI>
2.46955e+07

>  <Rbt.Current_Directory>
/home/itssahil/PROJECTS/Mol_Feturizer/New_Systems/rnas/2f4s

>  <Rbt.Executable>
rbdock ($Id: //depot/dev/client3/rdock/2013.1/src/exe/rbdock.cxx#4 $)

>  <Rbt.Library>
libRbt.so (2013.1, Build901 2013/11/27)

>  <Rbt.Parameter_File>
/export/apps/rDock/src/rDock_2013.1_src/data/scripts/dock_solv.prm

>  <Rbt.Receptor>
prm/pocket_docking_3.prm

>  <SCORE>
-13.9727

>  <SCORE.INTER>
-14.9006

>  <SCORE.INTER.CONST>
1

>  <SCORE.INTER.POLAR>
-0.979796

>  <SCORE.INTER.ROT>
3

>  <SCORE.INTER.SOLV>
17.9667

>  <SCORE.INTER.VDW>
-18.2566

>  <SCORE.INTER.norm>
-0.677299

>  <SCORE.INTRA>
0.921523

>  <SCORE.INTRA.DIHEDRAL>
0.128034

>  <SCORE.INTRA.DIHEDRAL.0>
1.67653

>  <SCORE.INTRA.POLAR>
0

>  <SCORE.INTRA.POLAR.0>
0

>  <SCORE.INTRA.REPUL>
0

>  <SCORE.INTRA.REPUL.0>
0

>  <SCORE.INTRA.SOLV>
0.682917

>  <SCORE.INTRA.SOLV.lig_0>
-76.6701

>  <SCORE.INTRA.VDW>
0.516048

>  <SCORE.INTRA.VDW.0>
-1.53273

>  <SCORE.INTRA.norm>
0.0418874

>  <SCORE.RESTR>
0.00633173

>  <SCORE.RESTR.CAVITY>
0.00633173

>  <SCORE.RESTR.norm>
0.000287806

>  <SCORE.SYSTEM>
0

>  <SCORE.SYSTEM.CONST>
0

>  <SCORE.SYSTEM.DIHEDRAL>
0

>  <SCORE.SYSTEM.SOLV>
0

>  <SCORE.SYSTEM.norm>
0

>  <SCORE.heavy>
22

>  <SCORE.norm>
-0.635123

>  <RMSD>
1.275

$$$$
2f4s_lig
 OpenBabel11021811433D
libRbt.so/2013.1/901 2013/11/27
 22 23  0  0  0  0  0  0  0  0999 V2000
   25.7145   17.3698   34.7335 N   0  0  0  0  0  0  0  0  0  0  0  0
   22.5420   15.8289   38.3023 N   0  0  0  0  0  0  0  0  0  0  0  0
   21.2644   11.1371   38.2594 N   0  0  0  0  0  0  0  0  0  0  0  0
   21.4515   15.1962   33.4649 O   0  0  0  0  0  0  0  0  0  0  0  0
   22.0815   16.0530   34.4608 C   0  0  2  0  0  0  0  0  0  0  0  0
   17.6231   15.2326   35.6795 N   0  0  0  0  0  0  0  0  0  0  0  0
   23.7158   16.8538   32.8027 O   0  0  0  0  0  0  0  0  0  0  0  0
   23.5776   16.2723   34.1045 C   0  0  1  0  0  0  0  0  0  0  0  0
   20.5877   15.2924   36.2493 O   0  0  0  0  0  0  0  0  0  0  0  0
   24.2598   17.1899   35.1117 C   0  0  1  0  0  0  0  0  0  0  0  0
   20.4592   13.1006   36.9735 O   0  0  0  0  0  0  0  0  0  0  0  0
   24.1418   16.5746   36.5472 C   0  0  0  0  0  0  0  0  0  0  0  0
   18.8778   13.8050   40.2121 O   0  0  0  0  0  0  0  0  0  0  0  0
   22.6132   16.4008   36.8941 C   0  0  1  0  0  0  0  0  0  0  0  0
   16.8602   14.6400   38.3840 O   0  0  0  0  0  0  0  0  0  0  0  0
   21.9583   15.4211   35.9035 C   0  0  2  0  0  0  0  0  0  0  0  0
   19.8477   14.1014   36.0479 C   0  0  1  0  0  0  0  0  0  0  0  0
   20.4043   13.4205   38.4280 C   0  0  2  0  0  0  0  0  0  0  0  0
   21.1032   12.2948   39.1965 C   0  0  0  0  0  0  0  0  0  0  0  0
   18.9512   13.5012   38.8394 C   0  0  2  0  0  0  0  0  0  0  0  0
   18.2394   14.5647   38.0051 C   0  0  1  0  0  0  0  0  0  0  0  0
   18.3499   14.2013   36.5038 C   0  0  1  0  0  0  0  0  0  0  0  0
  5  4  1  6  0  0  0
  5  8  1  0  0  0  0
  5 16  1  0  0  0  0
  8  7  1  6  0  0  0
  8 10  1  0  0  0  0
 10  1  1  6  0  0  0
 10 12  1  0  0  0  0
 11 18  1  0  0  0  0
 12 14  1  0  0  0  0
 14  2  1  1  0  0  0
 14 16  1  0  0  0  0
 16  9  1  1  0  0  0
 17  9  1  1  0  0  0
 17 11  1  0  0  0  0
 17 22  1  0  0  0  0
 18 19  1  1  0  0  0
 18 20  1  0  0  0  0
 19  3  1  0  0  0  0
 20 13  1  1  0  0  0
 20 21  1  0  0  0  0
 21 15  1  1  0  0  0
 21 22  1  0  0  0  0
 22  6  1  6  0  0  0
M  END
>  <CHROM.1>
94.70480741,66.21254776,-14.42628189,21.09177919,14.91930766,36.59151820
-0.77218544,0.15572819,2.08260727

>  <Name>
2f4s_lig

>  <RI>
0

>  <Rbt.Current_Directory>
/home/itssahil/PROJECTS/Mol_Feturizer/New_Systems/rnas/2f4s

>  <Rbt.Executable>
rbdock ($Id: //depot/dev/client3/rdock/2013.1/src/exe/rbdock.cxx#4 $)

>  <Rbt.Library>
libRbt.so (2013.1, Build901 2013/11/27)

>  <Rbt.Parameter_File>
/export/apps/rDock/src/rDock_2013.1_src/data/scripts/dock_solv.prm

>  <Rbt.Receptor>
prm/pocket_docking_4.prm

>  <SCORE>
-11.2928

>  <SCORE.INTER>
-16.4523

>  <SCORE.INTER.CONST>
1

>  <SCORE.INTER.POLAR>
-2.2525

>  <SCORE.INTER.ROT>
3

>  <SCORE.INTER.SOLV>
19.0857

>  <SCORE.INTER.VDW>
-15.4218

>  <SCORE.INTER.norm>
-0.74783

>  <SCORE.INTRA>
5.15949

>  <SCORE.INTRA.DIHEDRAL>
7.65767

>  <SCORE.INTRA.DIHEDRAL.0>
1.67653

>  <SCORE.INTRA.POLAR>
0

>  <SCORE.INTRA.POLAR.0>
0

>  <SCORE.INTRA.REPUL>
0

>  <SCORE.INTRA.REPUL.0>
0

>  <SCORE.INTRA.SOLV>
2.34622

>  <SCORE.INTRA.SOLV.lig_0>
-76.6701

>  <SCORE.INTRA.VDW>
0.157542

>  <SCORE.INTRA.VDW.0>
-1.53273

>  <SCORE.INTRA.norm>
0.234522

>  <SCORE.RESTR>
0

>  <SCORE.RESTR.CAVITY>
0

>  <SCORE.RESTR.norm>
0

>  <SCORE.SYSTEM>
0

>  <SCORE.SYSTEM.CONST>
0

>  <SCORE.SYSTEM.DIHEDRAL>
0

>  <SCORE.SYSTEM.SOLV>
0

>  <SCORE.SYSTEM.norm>
0

>  <SCORE.heavy>
22

>  <SCORE.norm>
-0.513308

>  <RMSD>
1.290

$$$$
2f4s_lig
 OpenBabel11021811433D
libRbt.so/2013.1/901 2013/11/27
 22 23  0  0  0  0  0  0  0  0999 V2000
   24.9659   16.9715   34.1344 N   0  0  0  0  0  0  0  0  0  0  0  0
   23.9277   15.3312   38.7612 N   0  0  0  0  0  0  0  0  0  0  0  0
   22.7628   10.4152   40.2784 N   0  0  0  0  0  0  0  0  0  0  0  0
   20.7558   14.5104   34.9855 O   0  0  0  0  0  0  0  0  0  0  0  0
   21.7189   15.4291   35.5783 C   0  0  2  0  0  0  0  0  0  0  0  0
   18.4453   15.1984   38.7107 N   0  0  0  0  0  0  0  0  0  0  0  0
   22.3372   16.2857   33.3544 O   0  0  0  0  0  0  0  0  0  0  0  0
   22.8593   15.7301   34.5671 C   0  0  1  0  0  0  0  0  0  0  0  0
   21.2827   14.6245   37.8522 O   0  0  0  0  0  0  0  0  0  0  0  0
   23.8697   16.7130   35.1459 C   0  0  1  0  0  0  0  0  0  0  0  0
   20.7718   12.3706   37.7863 O   0  0  0  0  0  0  0  0  0  0  0  0
   24.4740   16.1282   36.4673 C   0  0  0  0  0  0  0  0  0  0  0  0
   20.7717   11.8188   41.4169 O   0  0  0  0  0  0  0  0  0  0  0  0
   23.2976   15.8704   37.4855 C   0  0  1  0  0  0  0  0  0  0  0  0
   18.5799   13.6092   41.0990 O   0  0  0  0  0  0  0  0  0  0  0  0
   22.3231   14.8277   36.9083 C   0  0  2  0  0  0  0  0  0  0  0  0
   20.1979   13.7412   37.6295 C   0  0  1  0  0  0  0  0  0  0  0  0
   21.3501   12.0412   39.1197 C   0  0  2  0  0  0  0  0  0  0  0  0
   21.9062   10.6150   39.0657 C   0  0  0  0  0  0  0  0  0  0  0  0
   20.2443   12.1252   40.1480 C   0  0  2  0  0  0  0  0  0  0  0  0
   19.6342   13.5256   40.1330 C   0  0  1  0  0  0  0  0  0  0  0  0
   19.0747   13.8290   38.7213 C   0  0  1  0  0  0  0  0  0  0  0  0
  5  4  1  6  0  0  0
  5  8  1  0  0  0  0
  5 16  1  0  0  0  0
  8  7  1  6  0  0  0
  8 10  1  0  0  0  0
 10  1  1  6  0  0  0
 10 12  1  0  0  0  0
 11 18  1  0  0  0  0
 12 14  1  0  0  0  0
 14  2  1  1  0  0  0
 14 16  1  0  0  0  0
 16  9  1  1  0  0  0
 17  9  1  1  0  0  0
 17 11  1  0  0  0  0
 17 22  1  0  0  0  0
 18 19  1  6  0  0  0
 18 20  1  0  0  0  0
 19  3  1  0  0  0  0
 20 13  1  1  0  0  0
 20 21  1  0  0  0  0
 21 15  1  1  0  0  0
 21 22  1  0  0  0  0
 22  6  1  1  0  0  0
M  END
>  <CHROM.1>
62.03529037,73.98546571,166.69353998,21.58783261,14.15023909,37.70454996
-1.12974943,-0.16522612,2.28751588

>  <Name>
2f4s_lig

>  <RI>
2.00194e+07

>  <Rbt.Current_Directory>
/home/itssahil/PROJECTS/Mol_Feturizer/New_Systems/rnas/2f4s

>  <Rbt.Executable>
rbdock ($Id: //depot/dev/client3/rdock/2013.1/src/exe/rbdock.cxx#4 $)

>  <Rbt.Library>
libRbt.so (2013.1, Build901 2013/11/27)

>  <Rbt.Parameter_File>
/export/apps/rDock/src/rDock_2013.1_src/data/scripts/dock_solv.prm

>  <Rbt.Receptor>
prm/pocket_docking_6.prm

>  <SCORE>
-14.0135

>  <SCORE.INTER>
-14.9105

>  <SCORE.INTER.CONST>
1

>  <SCORE.INTER.POLAR>
-0.979796

>  <SCORE.INTER.ROT>
3

>  <SCORE.INTER.SOLV>
17.7761

>  <SCORE.INTER.VDW>
-18.1997

>  <SCORE.INTER.norm>
-0.677749

>  <SCORE.INTRA>
0.896462

>  <SCORE.INTRA.DIHEDRAL>
0.00235948

>  <SCORE.INTRA.DIHEDRAL.0>
1.67653

>  <SCORE.INTRA.POLAR>
0

>  <SCORE.INTRA.POLAR.0>
0

>  <SCORE.INTRA.REPUL>
0

>  <SCORE.INTRA.REPUL.0>
0

>  <SCORE.INTRA.SOLV>
0.711054

>  <SCORE.INTRA.SOLV.lig_0>
-76.6701

>  <SCORE.INTRA.VDW>
0.539755

>  <SCORE.INTRA.VDW.0>
-1.53273

>  <SCORE.INTRA.norm>
0.0407483

>  <SCORE.RESTR>
0.000468905

>  <SCORE.RESTR.CAVITY>
0.000468905

>  <SCORE.RESTR.norm>
2.13139e-05

>  <SCORE.SYSTEM>
0

>  <SCORE.SYSTEM.CONST>
0

>  <SCORE.SYSTEM.DIHEDRAL>
0

>  <SCORE.SYSTEM.SOLV>
0

>  <SCORE.SYSTEM.norm>
0

>  <SCORE.heavy>
22

>  <SCORE.norm>
-0.636979

>  <RMSD>
1.300

$$$$
2f4s_lig
 OpenBabel11021811433D
libRbt.so/2013.1/901 2013/11/27
 22 23  0  0  0  0  0  0  0  0999 V2000
   24.9750   16.9842   34.1352 N   0  0  0  0  0  0  0  0  0  0  0  0
   23.9366   15.3228   38.7545 N   0  0  0  0  0  0  0  0  0  0  0  0
   22.8118   10.4344   40.2838 N   0  0  0  0  0  0  0  0  0  0  0  0
   20.7634   14.5218   34.9757 O   0  0  0  0  0  0  0  0  0  0  0  0
   21.7272   15.4371   35.5725 C   0  0  2  0  0  0  0  0  0  0  0  0
   18.4484   15.1699   38.7013 N   0  0  0  0  0  0  0  0  0  0  0  0
   22.3456   16.3037   33.3526 O   0  0  0  0  0  0  0  0  0  0  0  0
   22.8676   15.7421   34.5625 C   0  0  1  0  0  0  0  0  0  0  0  0
   21.2910   14.6221   37.8427 O   0  0  0  0  0  0  0  0  0  0  0  0
   23.8788   16.7216   35.1457 C   0  0  1  0  0  0  0  0  0  0  0  0
   20.8030   12.3630   37.7845 O   0  0  0  0  0  0  0  0  0  0  0  0
   24.4830   16.1303   36.4642 C   0  0  0  0  0  0  0  0  0  0  0  0
   20.8108   11.8230   41.4168 O   0  0  0  0  0  0  0  0  0  0  0  0
   23.3066   15.8684   37.4814 C   0  0  1  0  0  0  0  0  0  0  0  0
   18.6008   13.5900   41.0946 O   0  0  0  0  0  0  0  0  0  0  0  0
   22.3313   14.8291   36.8996 C   0  0  2  0  0  0  0  0  0  0  0  0
   20.2150   13.7271   37.6236 C   0  0  1  0  0  0  0  0  0  0  0  0
   21.3855   12.0438   39.1186 C   0  0  2  0  0  0  0  0  0  0  0  0
   21.9560   10.6231   39.0687 C   0  0  0  0  0  0  0  0  0  0  0  0
   20.2796   12.1199   40.1473 C   0  0  2  0  0  0  0  0  0  0  0  0
   19.6552   13.5140   40.1282 C   0  0  1  0  0  0  0  0  0  0  0  0
   19.0918   13.8071   38.7159 C   0  0  1  0  0  0  0  0  0  0  0  0
  5  4  1  6  0  0  0
  5  8  1  0  0  0  0
  5 16  1  0  0  0  0
  8  7  1  6  0  0  0
  8 10  1  0  0  0  0
 10  1  1  6  0  0  0
 10 12  1  0  0  0  0
 11 18  1  0  0  0  0
 12 14  1  0  0  0  0
 14  2  1  1  0  0  0
 14 16  1  0  0  0  0
 16  9  1  1  0  0  0
 17  9  1  1  0  0  0
 17 11  1  0  0  0  0
 17 22  1  0  0  0  0
 18 19  1  6  0  0  0
 18 20  1  0  0  0  0
 19  3  1  0  0  0  0
 20 13  1  1  0  0  0
 20 21  1  0  0  0  0
 21 15  1  1  0  0  0
 21 22  1  0  0  0  0
 22  6  1  1  0  0  0
M  END
>  <CHROM.1>
62.90910760,73.74103006,166.87730033,21.60668953,14.14976458,37.70096099
-1.13433900,-0.15743612,2.28416315

>  <Name>
2f4s_lig

>  <RI>
2.00194e+07

>  <Rbt.Current_Directory>
/home/itssahil/PROJECTS/Mol_Feturizer/New_Systems/rnas/2f4s

>  <Rbt.Executable>
rbdock ($Id: //depot/dev/client3/rdock/2013.1/src/exe/rbdock.cxx#4 $)

>  <Rbt.Library>
libRbt.so (2013.1, Build901 2013/11/27)

>  <Rbt.Parameter_File>
/export/apps/rDock/src/rDock_2013.1_src/data/scripts/dock_solv.prm

>  <Rbt.Receptor>
prm/pocket_docking_6.prm

>  <SCORE>
-13.984

>  <SCORE.INTER>
-14.8486

>  <SCORE.INTER.CONST>
1

>  <SCORE.INTER.POLAR>
-0.979796

>  <SCORE.INTER.ROT>
3

>  <SCORE.INTER.SOLV>
17.6403

>  <SCORE.INTER.VDW>
-18.1132

>  <SCORE.INTER.norm>
-0.674938

>  <SCORE.INTRA>
0.86466

>  <SCORE.INTRA.DIHEDRAL>
-0.0222178

>  <SCORE.INTRA.DIHEDRAL.0>
1.67653

>  <SCORE.INTRA.POLAR>
0

>  <SCORE.INTRA.POLAR.0>
0

>  <SCORE.INTRA.REPUL>
0

>  <SCORE.INTRA.REPUL.0>
0

>  <SCORE.INTRA.SOLV>
0.727534

>  <SCORE.INTRA.SOLV.lig_0>
-76.6701

>  <SCORE.INTRA.VDW>
0.512002

>  <SCORE.INTRA.VDW.0>
-1.53273

>  <SCORE.INTRA.norm>
0.0393027

>  <SCORE.RESTR>
0

>  <SCORE.RESTR.CAVITY>
0

>  <SCORE.RESTR.norm>
0

>  <SCORE.SYSTEM>
0

>  <SCORE.SYSTEM.CONST>
0

>  <SCORE.SYSTEM.DIHEDRAL>
0

>  <SCORE.SYSTEM.SOLV>
0

>  <SCORE.SYSTEM.norm>
0

>  <SCORE.heavy>
22

>  <SCORE.norm>
-0.635635

>  <RMSD>
1.300

$$$$
2f4s_lig
 OpenBabel11021811433D
libRbt.so/2013.1/901 2013/11/27
 22 23  0  0  0  0  0  0  0  0999 V2000
   24.8722   16.9119   34.1159 N   0  0  0  0  0  0  0  0  0  0  0  0
   23.8931   15.2642   38.7529 N   0  0  0  0  0  0  0  0  0  0  0  0
   22.7994   10.3734   40.2483 N   0  0  0  0  0  0  0  0  0  0  0  0
   20.6474   14.4985   35.0287 O   0  0  0  0  0  0  0  0  0  0  0  0
   21.6316   15.4028   35.6087 C   0  0  2  0  0  0  0  0  0  0  0  0
   18.4101   15.1342   38.8372 N   0  0  0  0  0  0  0  0  0  0  0  0
   22.2223   16.2614   33.3782 O   0  0  0  0  0  0  0  0  0  0  0  0
   22.7582   15.6943   34.5794 C   0  0  1  0  0  0  0  0  0  0  0  0
   21.2245   14.5936   37.8864 O   0  0  0  0  0  0  0  0  0  0  0  0
   23.7903   16.6623   35.1449 C   0  0  1  0  0  0  0  0  0  0  0  0
   20.7331   12.3355   37.8203 O   0  0  0  0  0  0  0  0  0  0  0  0
   24.4099   16.0645   36.4533 C   0  0  0  0  0  0  0  0  0  0  0  0
   20.8518   11.7587   41.4451 O   0  0  0  0  0  0  0  0  0  0  0  0
   23.2480   15.8166   37.4904 C   0  0  1  0  0  0  0  0  0  0  0  0
   18.6344   13.5300   41.2087 O   0  0  0  0  0  0  0  0  0  0  0  0
   22.2510   14.7883   36.9257 C   0  0  2  0  0  0  0  0  0  0  0  0
   20.1416   13.7015   37.6914 C   0  0  1  0  0  0  0  0  0  0  0  0
   21.3559   12.0025   39.1326 C   0  0  2  0  0  0  0  0  0  0  0  0
   21.9234   10.5821   39.0510 C   0  0  0  0  0  0  0  0  0  0  0  0
   20.2821   12.0687   40.1955 C   0  0  2  0  0  0  0  0  0  0  0  0
   19.6586   13.4633   40.2097 C   0  0  1  0  0  0  0  0  0  0  0  0
   19.0524   13.7710   38.8183 C   0  0  1  0  0  0  0  0  0  0  0  0
  5  4  1  6  0  0  0
  5  8  1  0  0  0  0
  5 16  1  0  0  0  0
  8  7  1  6  0  0  0
  8 10  1  0  0  0  0
 10  1  1  6  0  0  0
 10 12  1  0  0  0  0
 11 18  1  0  0  0  0
 12 14  1  0  0  0  0
 14  2  1  1  0  0  0
 14 16  1  0  0  0  0
 16  9  1  1  0  0  0
 17  9  1  1  0  0  0
 17 11  1  0  0  0  0
 17 22  1  0  0  0  0
 18 19  1  6  0  0  0
 18 20  1  0  0  0  0
 19  3  1  0  0  0  0
 20 13  1  1  0  0  0
 20 21  1  0  0  0  0
 21 15  1  1  0  0  0
 21 22  1  0  0  0  0
 22  6  1  1  0  0  0
M  END
>  <CHROM.1>
63.53103629,72.35184570,167.72584281,21.55362432,14.10357079,37.73559165
-1.14571550,-0.18056201,2.28674413

>  <Name>
2f4s_lig

>  <RI>
0

>  <Rbt.Current_Directory>
/home/itssahil/PROJECTS/Mol_Feturizer/New_Systems/rnas/2f4s

>  <Rbt.Executable>
rbdock ($Id: //depot/dev/client3/rdock/2013.1/src/exe/rbdock.cxx#4 $)

>  <Rbt.Library>
libRbt.so (2013.1, Build901 2013/11/27)

>  <Rbt.Parameter_File>
/export/apps/rDock/src/rDock_2013.1_src/data/scripts/dock_solv.prm

>  <Rbt.Receptor>
prm/pocket_docking_4.prm

>  <SCORE>
-14.0616

>  <SCORE.INTER>
-14.8303

>  <SCORE.INTER.CONST>
1

>  <SCORE.INTER.POLAR>
-0.979796

>  <SCORE.INTER.ROT>
3

>  <SCORE.INTER.SOLV>
18.1957

>  <SCORE.INTER.VDW>
-18.2861

>  <SCORE.INTER.norm>
-0.674104

>  <SCORE.INTRA>
0.76865

>  <SCORE.INTRA.DIHEDRAL>
-0.234237

>  <SCORE.INTRA.DIHEDRAL.0>
1.67653

>  <SCORE.INTRA.POLAR>
0

>  <SCORE.INTRA.POLAR.0>
0

>  <SCORE.INTRA.REPUL>
0

>  <SCORE.INTRA.REPUL.0>
0

>  <SCORE.INTRA.SOLV>
0.742864

>  <SCORE.INTRA.SOLV.lig_0>
-76.6701

>  <SCORE.INTRA.VDW>
0.514336

>  <SCORE.INTRA.VDW.0>
-1.53273

>  <SCORE.INTRA.norm>
0.0349386

>  <SCORE.RESTR>
0

>  <SCORE.RESTR.CAVITY>
0

>  <SCORE.RESTR.norm>
0

>  <SCORE.SYSTEM>
0

>  <SCORE.SYSTEM.CONST>
0

>  <SCORE.SYSTEM.DIHEDRAL>
0

>  <SCORE.SYSTEM.SOLV>
0

>  <SCORE.SYSTEM.norm>
0

>  <SCORE.heavy>
22

>  <SCORE.norm>
-0.639165

>  <RMSD>
1.383

$$$$
2f4s_lig
 OpenBabel11021811433D
libRbt.so/2013.1/901 2013/11/27
 22 23  0  0  0  0  0  0  0  0999 V2000
   25.7375   17.3616   34.7031 N   0  0  0  0  0  0  0  0  0  0  0  0
   22.5697   15.8961   38.3078 N   0  0  0  0  0  0  0  0  0  0  0  0
   21.7335   11.6043   38.2433 N   0  0  0  0  0  0  0  0  0  0  0  0
   21.4355   15.2370   33.4840 O   0  0  0  0  0  0  0  0  0  0  0  0
   22.0846   16.0935   34.4678 C   0  0  2  0  0  0  0  0  0  0  0  0
   17.7008   15.5894   35.4357 N   0  0  0  0  0  0  0  0  0  0  0  0
   23.7178   16.8569   32.7912 O   0  0  0  0  0  0  0  0  0  0  0  0
   23.5810   16.2887   34.0990 C   0  0  1  0  0  0  0  0  0  0  0  0
   20.5934   15.3693   36.2735 O   0  0  0  0  0  0  0  0  0  0  0  0
   24.2832   17.2054   35.0933 C   0  0  1  0  0  0  0  0  0  0  0  0
   20.2294   13.1550   36.8298 O   0  0  0  0  0  0  0  0  0  0  0  0
   24.1670   16.6042   36.5349 C   0  0  0  0  0  0  0  0  0  0  0  0
   18.4045   13.7859   39.9534 O   0  0  0  0  0  0  0  0  0  0  0  0
   22.6387   16.4548   36.8942 C   0  0  1  0  0  0  0  0  0  0  0  0
   16.6402   14.8957   38.0128 O   0  0  0  0  0  0  0  0  0  0  0  0
   21.9631   15.4758   35.9168 C   0  0  2  0  0  0  0  0  0  0  0  0
   19.7873   14.2581   35.9242 C   0  0  1  0  0  0  0  0  0  0  0  0
   20.0605   13.3879   38.2920 C   0  0  2  0  0  0  0  0  0  0  0  0
   20.5949   12.1631   39.0407 C   0  0  0  0  0  0  0  0  0  0  0  0
   18.5852   13.5625   38.5752 C   0  0  2  0  0  0  0  0  0  0  0  0
   18.0395   14.7305   37.7556 C   0  0  1  0  0  0  0  0  0  0  0  0
   18.2648   14.4527   36.2489 C   0  0  1  0  0  0  0  0  0  0  0  0
  5  4  1  6  0  0  0
  5  8  1  0  0  0  0
  5 16  1  0  0  0  0
  8  7  1  6  0  0  0
  8 10  1  0  0  0  0
 10  1  1  6  0  0  0
 10 12  1  0  0  0  0
 11 18  1  0  0  0  0
 12 14  1  0  0  0  0
 14  2  1  1  0  0  0
 14 16  1  0  0  0  0
 16  9  1  1  0  0  0
 17  9  1  1  0  0  0
 17 11  1  0  0  0  0
 17 22  1  0  0  0  0
 18 19  1  1  0  0  0
 18 20  1  0  0  0  0
 19  3  1  0  0  0  0
 20 13  1  1  0  0  0
 20 21  1  0  0  0  0
 21 15  1  6  0  0  0
 21 22  1  0  0  0  0
 22  6  1  6  0  0  0
M  END
>  <CHROM.1>
85.78037683,74.17347027,32.55866892,21.00712952,15.00868827,36.48951269,-0.71897516
0.11386790,2.11893739

>  <Name>
2f4s_lig

>  <RI>
0

>  <Rbt.Current_Directory>
/home/itssahil/PROJECTS/Mol_Feturizer/New_Systems/rnas/2f4s

>  <Rbt.Executable>
rbdock ($Id: //depot/dev/client3/rdock/2013.1/src/exe/rbdock.cxx#4 $)

>  <Rbt.Library>
libRbt.so (2013.1, Build901 2013/11/27)

>  <Rbt.Parameter_File>
/export/apps/rDock/src/rDock_2013.1_src/data/scripts/dock_solv.prm

>  <Rbt.Receptor>
prm/pocket_docking_4.prm

>  <SCORE>
-13.34

>  <SCORE.INTER>
-16.0682

>  <SCORE.INTER.CONST>
1

>  <SCORE.INTER.POLAR>
-2.06804

>  <SCORE.INTER.ROT>
3

>  <SCORE.INTER.SOLV>
16.6804

>  <SCORE.INTER.VDW>
-14.9788

>  <SCORE.INTER.norm>
-0.730375

>  <SCORE.INTRA>
2.72823

>  <SCORE.INTRA.DIHEDRAL>
4.45228

>  <SCORE.INTRA.DIHEDRAL.0>
1.67653

>  <SCORE.INTRA.POLAR>
0

>  <SCORE.INTRA.POLAR.0>
0

>  <SCORE.INTRA.REPUL>
0

>  <SCORE.INTRA.REPUL.0>
0

>  <SCORE.INTRA.SOLV>
1.13589

>  <SCORE.INTRA.SOLV.lig_0>
-76.6701

>  <SCORE.INTRA.VDW>
-0.0658583

>  <SCORE.INTRA.VDW.0>
-1.53273

>  <SCORE.INTRA.norm>
0.12401

>  <SCORE.RESTR>
0

>  <SCORE.RESTR.CAVITY>
0

>  <SCORE.RESTR.norm>
0

>  <SCORE.SYSTEM>
0

>  <SCORE.SYSTEM.CONST>
0

>  <SCORE.SYSTEM.DIHEDRAL>
0

>  <SCORE.SYSTEM.SOLV>
0

>  <SCORE.SYSTEM.norm>
0

>  <SCORE.heavy>
22

>  <SCORE.norm>
-0.606364

>  <RMSD>
1.405

$$$$
2f4s_lig
 OpenBabel11021811433D
libRbt.so/2013.1/901 2013/11/27
 22 23  0  0  0  0  0  0  0  0999 V2000
   25.8847   16.7406   35.3467 N   0  0  0  0  0  0  0  0  0  0  0  0
   22.2607   15.1679   38.4401 N   0  0  0  0  0  0  0  0  0  0  0  0
   21.6330   11.4869   38.2708 N   0  0  0  0  0  0  0  0  0  0  0  0
   21.5065   15.3500   33.5016 O   0  0  0  0  0  0  0  0  0  0  0  0
   22.1523   15.9715   34.6503 C   0  0  2  0  0  0  0  0  0  0  0  0
   17.5038   15.4091   35.5108 N   0  0  0  0  0  0  0  0  0  0  0  0
   24.0051   16.7640   33.2359 O   0  0  0  0  0  0  0  0  0  0  0  0
   23.6886   16.0348   34.4275 C   0  0  1  0  0  0  0  0  0  0  0  0
   20.4327   15.1818   36.2085 O   0  0  0  0  0  0  0  0  0  0  0  0
   24.3926   16.7075   35.5997 C   0  0  1  0  0  0  0  0  0  0  0  0
   20.0714   12.9965   36.8709 O   0  0  0  0  0  0  0  0  0  0  0  0
   24.0806   15.9242   36.9196 C   0  0  0  0  0  0  0  0  0  0  0  0
   18.4171   13.7756   40.0556 O   0  0  0  0  0  0  0  0  0  0  0  0
   22.5188   15.9111   37.1376 C   0  0  1  0  0  0  0  0  0  0  0  0
   16.5688   14.8325   38.1643 O   0  0  0  0  0  0  0  0  0  0  0  0
   21.8327   15.1716   35.9746 C   0  0  2  0  0  0  0  0  0  0  0  0
   19.5965   14.0691   35.9455 C   0  0  1  0  0  0  0  0  0  0  0  0
   19.9807   13.2892   38.3293 C   0  0  2  0  0  0  0  0  0  0  0  0
   20.5382   12.0876   39.0984 C   0  0  0  0  0  0  0  0  0  0  0  0
   18.5241   13.4954   38.6800 C   0  0  2  0  0  0  0  0  0  0  0  0
   17.9510   14.6378   37.8431 C   0  0  1  0  0  0  0  0  0  0  0  0
   18.0951   14.2976   36.3392 C   0  0  1  0  0  0  0  0  0  0  0  0
  5  4  1  6  0  0  0
  5  8  1  0  0  0  0
  5 16  1  0  0  0  0
  8  7  1  6  0  0  0
  8 10  1  0  0  0  0
 10  1  1  6  0  0  0
 10 12  1  0  0  0  0
 11 18  1  0  0  0  0
 12 14  1  0  0  0  0
 14  2  1  1  0  0  0
 14 16  1  0  0  0  0
 16  9  1  1  0  0  0
 17  9  1  1  0  0  0
 17 11  1  0  0  0  0
 17 22  1  0  0  0  0
 18 19  1  1  0  0  0
 18 20  1  0  0  0  0
 19  3  1  0  0  0  0
 20 13  1  1  0  0  0
 20 21  1  0  0  0  0
 21 15  1  1  0  0  0
 21 22  1  0  0  0  0
 22  6  1  6  0  0  0
M  END
>  <CHROM.1>
103.11304089,63.62014554,32.89363962,20.95562005,14.78206061,36.65450972
-0.64877521,0.08051784,2.12018208

>  <Name>
2f4s_lig

>  <RI>
0

>  <Rbt.Current_Directory>
/home/itssahil/PROJECTS/Mol_Feturizer/New_Systems/rnas/2f4s

>  <Rbt.Executable>
rbdock ($Id: //depot/dev/client3/rdock/2013.1/src/exe/rbdock.cxx#4 $)

>  <Rbt.Library>
libRbt.so (2013.1, Build901 2013/11/27)

>  <Rbt.Parameter_File>
/export/apps/rDock/src/rDock_2013.1_src/data/scripts/dock_solv.prm

>  <Rbt.Receptor>
prm/pocket_docking_5.prm

>  <SCORE>
-13.1237

>  <SCORE.INTER>
-17.8491

>  <SCORE.INTER.CONST>
1

>  <SCORE.INTER.POLAR>
-2.10306

>  <SCORE.INTER.ROT>
3

>  <SCORE.INTER.SOLV>
17.4141

>  <SCORE.INTER.VDW>
-16.294

>  <SCORE.INTER.norm>
-0.811325

>  <SCORE.INTRA>
4.72545

>  <SCORE.INTRA.DIHEDRAL>
6.59598

>  <SCORE.INTRA.DIHEDRAL.0>
1.67653

>  <SCORE.INTRA.POLAR>
0

>  <SCORE.INTRA.POLAR.0>
0

>  <SCORE.INTRA.REPUL>
0

>  <SCORE.INTRA.REPUL.0>
0

>  <SCORE.INTRA.SOLV>
3.39791

>  <SCORE.INTRA.SOLV.lig_0>
-76.6701

>  <SCORE.INTRA.VDW>
-0.271494

>  <SCORE.INTRA.VDW.0>
-1.53273

>  <SCORE.INTRA.norm>
0.214793

>  <SCORE.RESTR>
0

>  <SCORE.RESTR.CAVITY>
0

>  <SCORE.RESTR.norm>
0

>  <SCORE.SYSTEM>
0

>  <SCORE.SYSTEM.CONST>
0

>  <SCORE.SYSTEM.DIHEDRAL>
0

>  <SCORE.SYSTEM.SOLV>
0

>  <SCORE.SYSTEM.norm>
0

>  <SCORE.heavy>
22

>  <SCORE.norm>
-0.596532

>  <RMSD>
1.414

$$$$
2f4s_lig
 OpenBabel11021811433D
libRbt.so/2013.1/901 2013/11/27
 22 23  0  0  0  0  0  0  0  0999 V2000
   25.7816   17.3037   34.7360 N   0  0  0  0  0  0  0  0  0  0  0  0
   22.5389   15.9030   38.2995 N   0  0  0  0  0  0  0  0  0  0  0  0
   21.7613   11.6435   38.2382 N   0  0  0  0  0  0  0  0  0  0  0  0
   21.4795   15.2110   33.4633 O   0  0  0  0  0  0  0  0  0  0  0  0
   22.1205   16.0700   34.4503 C   0  0  2  0  0  0  0  0  0  0  0  0
   17.6969   15.5980   35.4075 N   0  0  0  0  0  0  0  0  0  0  0  0
   23.7894   16.8017   32.7948 O   0  0  0  0  0  0  0  0  0  0  0  0
   23.6249   16.2469   34.1051 C   0  0  1  0  0  0  0  0  0  0  0  0
   20.5918   15.3773   36.2369 O   0  0  0  0  0  0  0  0  0  0  0  0
   24.3194   17.1656   35.1029 C   0  0  1  0  0  0  0  0  0  0  0  0
   20.2270   13.1653   36.8018 O   0  0  0  0  0  0  0  0  0  0  0  0
   24.1729   16.5788   36.5476 C   0  0  0  0  0  0  0  0  0  0  0  0
   18.4128   13.8092   39.9291 O   0  0  0  0  0  0  0  0  0  0  0  0
   22.6373   16.4480   36.8823 C   0  0  1  0  0  0  0  0  0  0  0  0
   16.6436   14.9144   37.9903 O   0  0  0  0  0  0  0  0  0  0  0  0
   21.9684   15.4669   35.9025 C   0  0  2  0  0  0  0  0  0  0  0  0
   19.7833   14.2659   35.8939 C   0  0  1  0  0  0  0  0  0  0  0  0
   20.0630   13.4035   38.2638 C   0  0  2  0  0  0  0  0  0  0  0  0
   20.5983   12.1806   39.0150 C   0  0  0  0  0  0  0  0  0  0  0  0
   18.5888   13.5808   38.5511 C   0  0  2  0  0  0  0  0  0  0  0  0
   18.0419   14.7467   37.7293 C   0  0  1  0  0  0  0  0  0  0  0  0
   18.2621   14.4635   36.2229 C   0  0  1  0  0  0  0  0  0  0  0  0
  5  4  1  6  0  0  0
  5  8  1  0  0  0  0
  5 16  1  0  0  0  0
  8  7  1  6  0  0  0
  8 10  1  0  0  0  0
 10  1  1  6  0  0  0
 10 12  1  0  0  0  0
 11 18  1  0  0  0  0
 12 14  1  0  0  0  0
 14  2  1  1  0  0  0
 14 16  1  0  0  0  0
 16  9  1  1  0  0  0
 17  9  1  1  0  0  0
 17 11  1  0  0  0  0
 17 22  1  0  0  0  0
 18 19  1  1  0  0  0
 18 20  1  0  0  0  0
 19  3  1  0  0  0  0
 20 13  1  1  0  0  0
 20 21  1  0  0  0  0
 21 15  1  6  0  0  0
 21 22  1  0  0  0  0
 22  6  1  6  0  0  0
M  END
>  <CHROM.1>
86.33686357,72.65777178,34.32460193,21.02068224,15.00490725,36.47506301,-0.70639780
0.11234809,2.10963871

>  <Name>
2f4s_lig

>  <RI>
0

>  <Rbt.Current_Directory>
/home/itssahil/PROJECTS/Mol_Feturizer/New_Systems/rnas/2f4s

>  <Rbt.Executable>
rbdock ($Id: //depot/dev/client3/rdock/2013.1/src/exe/rbdock.cxx#4 $)

>  <Rbt.Library>
libRbt.so (2013.1, Build901 2013/11/27)

>  <Rbt.Parameter_File>
/export/apps/rDock/src/rDock_2013.1_src/data/scripts/dock_solv.prm

>  <Rbt.Receptor>
prm/pocket_docking_5.prm

>  <SCORE>
-13.4231

>  <SCORE.INTER>
-15.9795

>  <SCORE.INTER.CONST>
1

>  <SCORE.INTER.POLAR>
-2.04322

>  <SCORE.INTER.ROT>
3

>  <SCORE.INTER.SOLV>
16.6111

>  <SCORE.INTER.VDW>
-14.9793

>  <SCORE.INTER.norm>
-0.726341

>  <SCORE.INTRA>
2.5564

>  <SCORE.INTRA.DIHEDRAL>
4.13649

>  <SCORE.INTRA.DIHEDRAL.0>
1.67653

>  <SCORE.INTRA.POLAR>
0

>  <SCORE.INTRA.POLAR.0>
0

>  <SCORE.INTRA.REPUL>
0

>  <SCORE.INTRA.REPUL.0>
0

>  <SCORE.INTRA.SOLV>
1.19087

>  <SCORE.INTRA.SOLV.lig_0>
-76.6701

>  <SCORE.INTRA.VDW>
-0.107275

>  <SCORE.INTRA.VDW.0>
-1.53273

>  <SCORE.INTRA.norm>
0.1162

>  <SCORE.RESTR>
0

>  <SCORE.RESTR.CAVITY>
0

>  <SCORE.RESTR.norm>
0

>  <SCORE.SYSTEM>
0

>  <SCORE.SYSTEM.CONST>
0

>  <SCORE.SYSTEM.DIHEDRAL>
0

>  <SCORE.SYSTEM.SOLV>
0

>  <SCORE.SYSTEM.norm>
0

>  <SCORE.heavy>
22

>  <SCORE.norm>
-0.61014

>  <RMSD>
1.415

$$$$
2f4s_lig
 OpenBabel11021811433D
libRbt.so/2013.1/901 2013/11/27
 22 23  0  0  0  0  0  0  0  0999 V2000
   25.7814   17.3280   34.7148 N   0  0  0  0  0  0  0  0  0  0  0  0
   22.5676   15.9038   38.2951 N   0  0  0  0  0  0  0  0  0  0  0  0
   21.7574   11.6427   38.2447 N   0  0  0  0  0  0  0  0  0  0  0  0
   21.4758   15.2297   33.4636 O   0  0  0  0  0  0  0  0  0  0  0  0
   22.1216   16.0861   34.4497 C   0  0  2  0  0  0  0  0  0  0  0  0
   17.7180   15.6158   35.3993 N   0  0  0  0  0  0  0  0  0  0  0  0
   23.7769   16.8291   32.7855 O   0  0  0  0  0  0  0  0  0  0  0  0
   23.6230   16.2683   34.0946 C   0  0  1  0  0  0  0  0  0  0  0  0
   20.6074   15.3819   36.2441 O   0  0  0  0  0  0  0  0  0  0  0  0
   24.3223   17.1846   35.0914 C   0  0  1  0  0  0  0  0  0  0  0  0
   20.2313   13.1695   36.8000 O   0  0  0  0  0  0  0  0  0  0  0  0
   24.1875   16.5912   36.5346 C   0  0  0  0  0  0  0  0  0  0  0  0
   18.4020   13.8102   39.9191 O   0  0  0  0  0  0  0  0  0  0  0  0
   22.6547   16.4551   36.8796 C   0  0  1  0  0  0  0  0  0  0  0  0
   16.6478   14.9281   37.9740 O   0  0  0  0  0  0  0  0  0  0  0  0
   21.9813   15.4764   35.9003 C   0  0  2  0  0  0  0  0  0  0  0  0
   19.7967   14.2745   35.8931 C   0  0  1  0  0  0  0  0  0  0  0  0
   20.0600   13.4037   38.2618 C   0  0  2  0  0  0  0  0  0  0  0  0
   20.5866   12.1765   39.0121 C   0  0  0  0  0  0  0  0  0  0  0  0
   18.5849   13.5855   38.5414 C   0  0  2  0  0  0  0  0  0  0  0  0
   18.0469   14.7560   37.7203 C   0  0  1  0  0  0  0  0  0  0  0  0
   18.2744   14.4767   36.2142 C   0  0  1  0  0  0  0  0  0  0  0  0
  5  4  1  6  0  0  0
  5  8  1  0  0  0  0
  5 16  1  0  0  0  0
  8  7  1  6  0  0  0
  8 10  1  0  0  0  0
 10  1  1  6  0  0  0
 10 12  1  0  0  0  0
 11 18  1  0  0  0  0
 12 14  1  0  0  0  0
 14  2  1  1  0  0  0
 14 16  1  0  0  0  0
 16  9  1  1  0  0  0
 17  9  1  1  0  0  0
 17 11  1  0  0  0  0
 17 22  1  0  0  0  0
 18 19  1  1  0  0  0
 18 20  1  0  0  0  0
 19  3  1  0  0  0  0
 20 13  1  1  0  0  0
 20 21  1  0  0  0  0
 21 15  1  6  0  0  0
 21 22  1  0  0  0  0
 22  6  1  6  0  0  0
M  END
>  <CHROM.1>
85.83319426,73.62523463,34.67592345,21.02507775,15.01535288,36.46915874,-0.70894139
0.11166013,2.11420082

>  <Name>
2f4s_lig

>  <RI>
2.00194e+07

>  <Rbt.Current_Directory>
/home/itssahil/PROJECTS/Mol_Feturizer/New_Systems/rnas/2f4s

>  <Rbt.Executable>
rbdock ($Id: //depot/dev/client3/rdock/2013.1/src/exe/rbdock.cxx#4 $)

>  <Rbt.Library>
libRbt.so (2013.1, Build901 2013/11/27)

>  <Rbt.Parameter_File>
/export/apps/rDock/src/rDock_2013.1_src/data/scripts/dock_solv.prm

>  <Rbt.Receptor>
prm/pocket_docking_6.prm

>  <SCORE>
-13.4269

>  <SCORE.INTER>
-15.9553

>  <SCORE.INTER.CONST>
1

>  <SCORE.INTER.POLAR>
-2.03878

>  <SCORE.INTER.ROT>
3

>  <SCORE.INTER.SOLV>
16.6037

>  <SCORE.INTER.VDW>
-14.9755

>  <SCORE.INTER.norm>
-0.725241

>  <SCORE.INTRA>
2.52845

>  <SCORE.INTRA.DIHEDRAL>
4.10939

>  <SCORE.INTRA.DIHEDRAL.0>
1.67653

>  <SCORE.INTRA.POLAR>
0

>  <SCORE.INTRA.POLAR.0>
0

>  <SCORE.INTRA.REPUL>
0

>  <SCORE.INTRA.REPUL.0>
0

>  <SCORE.INTRA.SOLV>
1.15688

>  <SCORE.INTRA.SOLV.lig_0>
-76.6701

>  <SCORE.INTRA.VDW>
-0.10469

>  <SCORE.INTRA.VDW.0>
-1.53273

>  <SCORE.INTRA.norm>
0.114929

>  <SCORE.RESTR>
0

>  <SCORE.RESTR.CAVITY>
0

>  <SCORE.RESTR.norm>
0

>  <SCORE.SYSTEM>
0

>  <SCORE.SYSTEM.CONST>
0

>  <SCORE.SYSTEM.DIHEDRAL>
0

>  <SCORE.SYSTEM.SOLV>
0

>  <SCORE.SYSTEM.norm>
0

>  <SCORE.heavy>
22

>  <SCORE.norm>
-0.610312

>  <RMSD>
1.416

$$$$
2f4s_lig
 OpenBabel11021811433D
libRbt.so/2013.1/901 2013/11/27
 22 23  0  0  0  0  0  0  0  0999 V2000
   25.7816   17.3328   34.7112 N   0  0  0  0  0  0  0  0  0  0  0  0
   22.6004   15.8614   38.3015 N   0  0  0  0  0  0  0  0  0  0  0  0
   21.6812   11.5689   38.2448 N   0  0  0  0  0  0  0  0  0  0  0  0
   21.4746   15.2304   33.4719 O   0  0  0  0  0  0  0  0  0  0  0  0
   22.1246   16.0796   34.4614 C   0  0  2  0  0  0  0  0  0  0  0  0
   17.7530   15.6050   35.3682 N   0  0  0  0  0  0  0  0  0  0  0  0
   23.7644   16.8452   32.7923 O   0  0  0  0  0  0  0  0  0  0  0  0
   23.6226   16.2710   34.0969 C   0  0  1  0  0  0  0  0  0  0  0  0
   20.6266   15.3521   36.2602 O   0  0  0  0  0  0  0  0  0  0  0  0
   24.3259   17.1802   35.0973 C   0  0  1  0  0  0  0  0  0  0  0  0
   20.2273   13.1419   36.8085 O   0  0  0  0  0  0  0  0  0  0  0  0
   24.2042   16.5723   36.5356 C   0  0  0  0  0  0  0  0  0  0  0  0
   18.3512   13.7927   39.8976 O   0  0  0  0  0  0  0  0  0  0  0  0
   22.6746   16.4268   36.8907 C   0  0  1  0  0  0  0  0  0  0  0  0
   16.6363   14.9228   37.9246 O   0  0  0  0  0  0  0  0  0  0  0  0
   21.9975   15.4552   35.9070 C   0  0  2  0  0  0  0  0  0  0  0  0
   19.8147   14.2501   35.8953 C   0  0  1  0  0  0  0  0  0  0  0  0
   20.0336   13.3763   38.2674 C   0  0  2  0  0  0  0  0  0  0  0  0
   20.5399   12.1454   39.0255 C   0  0  0  0  0  0  0  0  0  0  0  0
   18.5552   13.5675   38.5229 C   0  0  2  0  0  0  0  0  0  0  0  0
   18.0383   14.7419   37.6938 C   0  0  1  0  0  0  0  0  0  0  0  0
   18.2887   14.4619   36.1914 C   0  0  1  0  0  0  0  0  0  0  0  0
  5  4  1  6  0  0  0
  5  8  1  0  0  0  0
  5 16  1  0  0  0  0
  8  7  1  6  0  0  0
  8 10  1  0  0  0  0
 10  1  1  6  0  0  0
 10 12  1  0  0  0  0
 11 18  1  0  0  0  0
 12 14  1  0  0  0  0
 14  2  1  1  0  0  0
 14 16  1  0  0  0  0
 16  9  1  1  0  0  0
 17  9  1  1  0  0  0
 17 11  1  0  0  0  0
 17 22  1  0  0  0  0
 18 19  1  1  0  0  0
 18 20  1  0  0  0  0
 19  3  1  0  0  0  0
 20 13  1  1  0  0  0
 20 21  1  0  0  0  0
 21 15  1  6  0  0  0
 21 22  1  0  0  0  0
 22  6  1  6  0  0  0
M  END
>  <CHROM.1>
85.30923289,75.43179371,32.20345996,21.02065041,14.99774494,36.46598041,-0.70894140
0.11336900,2.12107679

>  <Name>
2f4s_lig

>  <RI>
0

>  <Rbt.Current_Directory>
/home/itssahil/PROJECTS/Mol_Feturizer/New_Systems/rnas/2f4s

>  <Rbt.Executable>
rbdock ($Id: //depot/dev/client3/rdock/2013.1/src/exe/rbdock.cxx#4 $)

>  <Rbt.Library>
libRbt.so (2013.1, Build901 2013/11/27)

>  <Rbt.Parameter_File>
/export/apps/rDock/src/rDock_2013.1_src/data/scripts/dock_solv.prm

>  <Rbt.Receptor>
prm/pocket_docking_4.prm

>  <SCORE>
-13.3478

>  <SCORE.INTER>
-16.139

>  <SCORE.INTER.CONST>
1

>  <SCORE.INTER.POLAR>
-2.08694

>  <SCORE.INTER.ROT>
3

>  <SCORE.INTER.SOLV>
17.0707

>  <SCORE.INTER.VDW>
-15.0931

>  <SCORE.INTER.norm>
-0.733591

>  <SCORE.INTRA>
2.79125

>  <SCORE.INTRA.DIHEDRAL>
4.5757

>  <SCORE.INTRA.DIHEDRAL.0>
1.67653

>  <SCORE.INTRA.POLAR>
0

>  <SCORE.INTRA.POLAR.0>
0

>  <SCORE.INTRA.REPUL>
0

>  <SCORE.INTRA.REPUL.0>
0

>  <SCORE.INTRA.SOLV>
1.10846

>  <SCORE.INTRA.SOLV.lig_0>
-76.6701

>  <SCORE.INTRA.VDW>
-0.0508312

>  <SCORE.INTRA.VDW.0>
-1.53273

>  <SCORE.INTRA.norm>
0.126875

>  <SCORE.RESTR>
0

>  <SCORE.RESTR.CAVITY>
0

>  <SCORE.RESTR.norm>
0

>  <SCORE.SYSTEM>
0

>  <SCORE.SYSTEM.CONST>
0

>  <SCORE.SYSTEM.DIHEDRAL>
0

>  <SCORE.SYSTEM.SOLV>
0

>  <SCORE.SYSTEM.norm>
0

>  <SCORE.heavy>
22

>  <SCORE.norm>
-0.606716

>  <RMSD>
1.423

$$$$
2f4s_lig
 OpenBabel11021811433D
libRbt.so/2013.1/901 2013/11/27
 22 23  0  0  0  0  0  0  0  0999 V2000
   25.7693   17.3091   34.7557 N   0  0  0  0  0  0  0  0  0  0  0  0
   22.5301   15.8613   38.3036 N   0  0  0  0  0  0  0  0  0  0  0  0
   21.6898   11.6005   38.2535 N   0  0  0  0  0  0  0  0  0  0  0  0
   21.4711   15.2226   33.4600 O   0  0  0  0  0  0  0  0  0  0  0  0
   22.1106   16.0715   34.4566 C   0  0  2  0  0  0  0  0  0  0  0  0
   17.6972   15.5568   35.3725 N   0  0  0  0  0  0  0  0  0  0  0  0
   23.7777   16.8255   32.8093 O   0  0  0  0  0  0  0  0  0  0  0  0
   23.6145   16.2553   34.1132 C   0  0  1  0  0  0  0  0  0  0  0  0
   20.5837   15.3554   36.2355 O   0  0  0  0  0  0  0  0  0  0  0  0
   24.3075   17.1639   35.1213 C   0  0  1  0  0  0  0  0  0  0  0  0
   20.2194   13.1494   36.8238 O   0  0  0  0  0  0  0  0  0  0  0  0
   24.1624   16.5604   36.5592 C   0  0  0  0  0  0  0  0  0  0  0  0
   18.3699   13.8261   39.9233 O   0  0  0  0  0  0  0  0  0  0  0  0
   22.6272   16.4227   36.8927 C   0  0  1  0  0  0  0  0  0  0  0  0
   16.6183   14.9018   37.9522 O   0  0  0  0  0  0  0  0  0  0  0  0
   21.9600   15.4515   35.9018 C   0  0  2  0  0  0  0  0  0  0  0  0
   19.7822   14.2373   35.8977 C   0  0  1  0  0  0  0  0  0  0  0  0
   20.0391   13.4051   38.2809 C   0  0  2  0  0  0  0  0  0  0  0  0
   20.5700   12.1932   39.0529 C   0  0  0  0  0  0  0  0  0  0  0  0
   18.5614   13.5813   38.5502 C   0  0  2  0  0  0  0  0  0  0  0  0
   18.0198   14.7353   37.7082 C   0  0  1  0  0  0  0  0  0  0  0  0
   18.2570   14.4342   36.2079 C   0  0  1  0  0  0  0  0  0  0  0  0
  5  4  1  6  0  0  0
  5  8  1  0  0  0  0
  5 16  1  0  0  0  0
  8  7  1  6  0  0  0
  8 10  1  0  0  0  0
 10  1  1  6  0  0  0
 10 12  1  0  0  0  0
 11 18  1  0  0  0  0
 12 14  1  0  0  0  0
 14  2  1  1  0  0  0
 14 16  1  0  0  0  0
 16  9  1  1  0  0  0
 17  9  1  1  0  0  0
 17 11  1  0  0  0  0
 17 22  1  0  0  0  0
 18 19  1  1  0  0  0
 18 20  1  0  0  0  0
 19  3  1  0  0  0  0
 20 13  1  1  0  0  0
 20 21  1  0  0  0  0
 21 15  1  6  0  0  0
 21 22  1  0  0  0  0
 22  6  1  6  0  0  0
M  END
>  <CHROM.1>
87.32695120,73.37022679,30.95785388,21.00393484,14.99512989,36.47797930,-0.70544379
0.11900514,2.10692705

>  <Name>
2f4s_lig

>  <RI>
0

>  <Rbt.Current_Directory>
/home/itssahil/PROJECTS/Mol_Feturizer/New_Systems/rnas/2f4s

>  <Rbt.Executable>
rbdock ($Id: //depot/dev/client3/rdock/2013.1/src/exe/rbdock.cxx#4 $)

>  <Rbt.Library>
libRbt.so (2013.1, Build901 2013/11/27)

>  <Rbt.Parameter_File>
/export/apps/rDock/src/rDock_2013.1_src/data/scripts/dock_solv.prm

>  <Rbt.Receptor>
prm/pocket_docking_8.prm

>  <SCORE>
-13.4206

>  <SCORE.INTER>
-16.4242

>  <SCORE.INTER.CONST>
1

>  <SCORE.INTER.POLAR>
-2.12756

>  <SCORE.INTER.ROT>
3

>  <SCORE.INTER.SOLV>
16.7342

>  <SCORE.INTER.VDW>
-15.0357

>  <SCORE.INTER.norm>
-0.746556

>  <SCORE.INTRA>
3.00365

>  <SCORE.INTRA.DIHEDRAL>
4.85909

>  <SCORE.INTRA.DIHEDRAL.0>
1.67653

>  <SCORE.INTRA.POLAR>
0

>  <SCORE.INTRA.POLAR.0>
0

>  <SCORE.INTRA.REPUL>
0

>  <SCORE.INTRA.REPUL.0>
0

>  <SCORE.INTRA.SOLV>
1.27449

>  <SCORE.INTRA.SOLV.lig_0>
-76.6701

>  <SCORE.INTRA.VDW>
-0.0631389

>  <SCORE.INTRA.VDW.0>
-1.53273

>  <SCORE.INTRA.norm>
0.13653

>  <SCORE.RESTR>
0

>  <SCORE.RESTR.CAVITY>
0

>  <SCORE.RESTR.norm>
0

>  <SCORE.SYSTEM>
0

>  <SCORE.SYSTEM.CONST>
0

>  <SCORE.SYSTEM.DIHEDRAL>
0

>  <SCORE.SYSTEM.SOLV>
0

>  <SCORE.SYSTEM.norm>
0

>  <SCORE.heavy>
22

>  <SCORE.norm>
-0.610026

>  <RMSD>
1.431

$$$$
2f4s_lig
 OpenBabel11021811433D
libRbt.so/2013.1/901 2013/11/27
 22 23  0  0  0  0  0  0  0  0999 V2000
   25.7768   17.3133   34.7392 N   0  0  0  0  0  0  0  0  0  0  0  0
   22.5489   15.8646   38.2970 N   0  0  0  0  0  0  0  0  0  0  0  0
   21.6852   11.6056   38.2596 N   0  0  0  0  0  0  0  0  0  0  0  0
   21.4743   15.2276   33.4565 O   0  0  0  0  0  0  0  0  0  0  0  0
   22.1171   16.0761   34.4514 C   0  0  2  0  0  0  0  0  0  0  0  0
   17.7147   15.5759   35.3578 N   0  0  0  0  0  0  0  0  0  0  0  0
   23.7790   16.8304   32.7990 O   0  0  0  0  0  0  0  0  0  0  0  0
   23.6200   16.2599   34.1032 C   0  0  1  0  0  0  0  0  0  0  0  0
   20.5959   15.3595   36.2349 O   0  0  0  0  0  0  0  0  0  0  0  0
   24.3162   17.1681   35.1094 C   0  0  1  0  0  0  0  0  0  0  0  0
   20.2184   13.1542   36.8173 O   0  0  0  0  0  0  0  0  0  0  0  0
   24.1757   16.5641   36.5476 C   0  0  0  0  0  0  0  0  0  0  0  0
   18.3564   13.8339   39.9087 O   0  0  0  0  0  0  0  0  0  0  0  0
   22.6415   16.4264   36.8859 C   0  0  1  0  0  0  0  0  0  0  0  0
   16.6198   14.9213   37.9308 O   0  0  0  0  0  0  0  0  0  0  0  0
   21.9711   15.4556   35.8969 C   0  0  2  0  0  0  0  0  0  0  0  0
   19.7908   14.2458   35.8910 C   0  0  1  0  0  0  0  0  0  0  0  0
   20.0319   13.4080   38.2739 C   0  0  2  0  0  0  0  0  0  0  0  0
   20.5532   12.1923   39.0463 C   0  0  0  0  0  0  0  0  0  0  0  0
   18.5536   13.5907   38.5361 C   0  0  2  0  0  0  0  0  0  0  0  0
   18.0218   14.7487   37.6936 C   0  0  1  0  0  0  0  0  0  0  0  0
   18.2650   14.4492   36.1938 C   0  0  1  0  0  0  0  0  0  0  0  0
  5  4  1  6  0  0  0
  5  8  1  0  0  0  0
  5 16  1  0  0  0  0
  8  7  1  6  0  0  0
  8 10  1  0  0  0  0
 10  1  1  6  0  0  0
 10 12  1  0  0  0  0
 11 18  1  0  0  0  0
 12 14  1  0  0  0  0
 14  2  1  1  0  0  0
 14 16  1  0  0  0  0
 16  9  1  1  0  0  0
 17  9  1  1  0  0  0
 17 11  1  0  0  0  0
 17 22  1  0  0  0  0
 18 19  1  1  0  0  0
 18 20  1  0  0  0  0
 19  3  1  0  0  0  0
 20 13  1  1  0  0  0
 20 21  1  0  0  0  0
 21 15  1  6  0  0  0
 21 22  1  0  0  0  0
 22  6  1  6  0  0  0
M  END
>  <CHROM.1>
86.86519024,74.00817367,31.63115841,21.00782210,15.00201878,36.46878059,-0.70476824
0.11736689,2.10850275

>  <Name>
2f4s_lig

>  <RI>
0

>  <Rbt.Current_Directory>
/home/itssahil/PROJECTS/Mol_Feturizer/New_Systems/rnas/2f4s

>  <Rbt.Executable>
rbdock ($Id: //depot/dev/client3/rdock/2013.1/src/exe/rbdock.cxx#4 $)

>  <Rbt.Library>
libRbt.so (2013.1, Build901 2013/11/27)

>  <Rbt.Parameter_File>
/export/apps/rDock/src/rDock_2013.1_src/data/scripts/dock_solv.prm

>  <Rbt.Receptor>
prm/pocket_docking_5.prm

>  <SCORE>
-13.4264

>  <SCORE.INTER>
-16.3566

>  <SCORE.INTER.CONST>
1

>  <SCORE.INTER.POLAR>
-2.11601

>  <SCORE.INTER.ROT>
3

>  <SCORE.INTER.SOLV>
16.7398

>  <SCORE.INTER.VDW>
-15.031

>  <SCORE.INTER.norm>
-0.743482

>  <SCORE.INTRA>
2.93021

>  <SCORE.INTRA.DIHEDRAL>
4.75775

>  <SCORE.INTRA.DIHEDRAL.0>
1.67653

>  <SCORE.INTRA.POLAR>
0

>  <SCORE.INTRA.POLAR.0>
0

>  <SCORE.INTRA.REPUL>
0

>  <SCORE.INTRA.REPUL.0>
0

>  <SCORE.INTRA.SOLV>
1.23855

>  <SCORE.INTRA.SOLV.lig_0>
-76.6701

>  <SCORE.INTRA.VDW>
-0.0679376

>  <SCORE.INTRA.VDW.0>
-1.53273

>  <SCORE.INTRA.norm>
0.133192

>  <SCORE.RESTR>
0

>  <SCORE.RESTR.CAVITY>
0

>  <SCORE.RESTR.norm>
0

>  <SCORE.SYSTEM>
0

>  <SCORE.SYSTEM.CONST>
0

>  <SCORE.SYSTEM.DIHEDRAL>
0

>  <SCORE.SYSTEM.SOLV>
0

>  <SCORE.SYSTEM.norm>
0

>  <SCORE.heavy>
22

>  <SCORE.norm>
-0.61029

>  <RMSD>
1.436

$$$$
2f4s_lig
 OpenBabel11021811433D
libRbt.so/2013.1/901 2013/11/27
 22 23  0  0  0  0  0  0  0  0999 V2000
   25.7609   17.2660   34.7838 N   0  0  0  0  0  0  0  0  0  0  0  0
   22.4611   15.8661   38.2948 N   0  0  0  0  0  0  0  0  0  0  0  0
   21.7621   11.6526   38.2386 N   0  0  0  0  0  0  0  0  0  0  0  0
   21.4716   15.1908   33.4415 O   0  0  0  0  0  0  0  0  0  0  0  0
   22.1006   16.0450   34.4403 C   0  0  2  0  0  0  0  0  0  0  0  0
   17.6410   15.5301   35.3883 N   0  0  0  0  0  0  0  0  0  0  0  0
   23.7963   16.7758   32.8118 O   0  0  0  0  0  0  0  0  0  0  0  0
   23.6105   16.2179   34.1180 C   0  0  1  0  0  0  0  0  0  0  0  0
   20.5433   15.3523   36.2020 O   0  0  0  0  0  0  0  0  0  0  0  0
   24.2930   17.1316   35.1285 C   0  0  1  0  0  0  0  0  0  0  0  0
   20.2069   13.1438   36.7971 O   0  0  0  0  0  0  0  0  0  0  0  0
   24.1231   16.5414   36.5693 C   0  0  0  0  0  0  0  0  0  0  0  0
   18.4050   13.8068   39.9275 O   0  0  0  0  0  0  0  0  0  0  0  0
   22.5824   16.4146   36.8807 C   0  0  1  0  0  0  0  0  0  0  0  0
   16.6115   14.8675   37.9862 O   0  0  0  0  0  0  0  0  0  0  0  0
   21.9249   15.4383   35.8883 C   0  0  2  0  0  0  0  0  0  0  0  0
   19.7452   14.2277   35.8783 C   0  0  1  0  0  0  0  0  0  0  0  0
   20.0494   13.3985   38.2570 C   0  0  2  0  0  0  0  0  0  0  0  0
   20.6031   12.1913   39.0201 C   0  0  0  0  0  0  0  0  0  0  0  0
   18.5751   13.5629   38.5514 C   0  0  2  0  0  0  0  0  0  0  0  0
   18.0100   14.7122   37.7184 C   0  0  1  0  0  0  0  0  0  0  0  0
   18.2239   14.4124   36.2143 C   0  0  1  0  0  0  0  0  0  0  0  0
  5  4  1  6  0  0  0
  5  8  1  0  0  0  0
  5 16  1  0  0  0  0
  8  7  1  6  0  0  0
  8 10  1  0  0  0  0
 10  1  1  6  0  0  0
 10 12  1  0  0  0  0
 11 18  1  0  0  0  0
 12 14  1  0  0  0  0
 14  2  1  1  0  0  0
 14 16  1  0  0  0  0
 16  9  1  1  0  0  0
 17  9  1  1  0  0  0
 17 11  1  0  0  0  0
 17 22  1  0  0  0  0
 18 19  1  1  0  0  0
 18 20  1  0  0  0  0
 19  3  1  0  0  0  0
 20 13  1  1  0  0  0
 20 21  1  0  0  0  0
 21 15  1  6  0  0  0
 21 22  1  0  0  0  0
 22  6  1  6  0  0  0
M  END
>  <CHROM.1>
88.22862381,70.97399559,33.99293226,20.99371343,14.97791471,36.47357753,-0.70104662
0.11947428,2.09914177

>  <Name>
2f4s_lig

>  <RI>
2.26097e+07

>  <Rbt.Current_Directory>
/home/itssahil/PROJECTS/Mol_Feturizer/New_Systems/rnas/2f4s

>  <Rbt.Executable>
rbdock ($Id: //depot/dev/client3/rdock/2013.1/src/exe/rbdock.cxx#4 $)

>  <Rbt.Library>
libRbt.so (2013.1, Build901 2013/11/27)

>  <Rbt.Parameter_File>
/export/apps/rDock/src/rDock_2013.1_src/data/scripts/dock_solv.prm

>  <Rbt.Receptor>
prm/pocket_docking_7.prm

>  <SCORE>
-13.3397

>  <SCORE.INTER>
-16.0795

>  <SCORE.INTER.CONST>
1

>  <SCORE.INTER.POLAR>
-2.0492

>  <SCORE.INTER.ROT>
3

>  <SCORE.INTER.SOLV>
16.5323

>  <SCORE.INTER.VDW>
-14.9998

>  <SCORE.INTER.norm>
-0.730885

>  <SCORE.INTRA>
2.73976

>  <SCORE.INTRA.DIHEDRAL>
4.35266

>  <SCORE.INTRA.DIHEDRAL.0>
1.67653

>  <SCORE.INTRA.POLAR>
0

>  <SCORE.INTRA.POLAR.0>
0

>  <SCORE.INTRA.REPUL>
0

>  <SCORE.INTRA.REPUL.0>
0

>  <SCORE.INTRA.SOLV>
1.39211

>  <SCORE.INTRA.SOLV.lig_0>
-76.6701

>  <SCORE.INTRA.VDW>
-0.132625

>  <SCORE.INTRA.VDW.0>
-1.53273

>  <SCORE.INTRA.norm>
0.124534

>  <SCORE.RESTR>
0

>  <SCORE.RESTR.CAVITY>
0

>  <SCORE.RESTR.norm>
0

>  <SCORE.SYSTEM>
0

>  <SCORE.SYSTEM.CONST>
0

>  <SCORE.SYSTEM.DIHEDRAL>
0

>  <SCORE.SYSTEM.SOLV>
0

>  <SCORE.SYSTEM.norm>
0

>  <SCORE.heavy>
22

>  <SCORE.norm>
-0.60635

>  <RMSD>
1.437

$$$$
2f4s_lig
 OpenBabel11021811433D
libRbt.so/2013.1/901 2013/11/27
 22 23  0  0  0  0  0  0  0  0999 V2000
   25.7273   17.3386   34.6622 N   0  0  0  0  0  0  0  0  0  0  0  0
   22.5159   15.9690   38.2660 N   0  0  0  0  0  0  0  0  0  0  0  0
   21.7668   11.6545   38.2441 N   0  0  0  0  0  0  0  0  0  0  0  0
   21.4534   15.1546   33.4495 O   0  0  0  0  0  0  0  0  0  0  0  0
   22.0843   16.0446   34.4153 C   0  0  2  0  0  0  0  0  0  0  0  0
   17.6756   15.5612   35.3875 N   0  0  0  0  0  0  0  0  0  0  0  0
   23.7374   16.7643   32.7388 O   0  0  0  0  0  0  0  0  0  0  0  0
   23.5848   16.2362   34.0616 C   0  0  1  0  0  0  0  0  0  0  0  0
   20.5712   15.3689   36.2216 O   0  0  0  0  0  0  0  0  0  0  0  0
   24.2684   17.1869   35.0367 C   0  0  1  0  0  0  0  0  0  0  0  0
   20.2237   13.1573   36.7988 O   0  0  0  0  0  0  0  0  0  0  0  0
   24.1347   16.6301   36.4944 C   0  0  0  0  0  0  0  0  0  0  0  0
   18.4005   13.8041   39.9201 O   0  0  0  0  0  0  0  0  0  0  0  0
   22.6022   16.4839   36.8368 C   0  0  1  0  0  0  0  0  0  0  0  0
   16.6247   14.8837   37.9730 O   0  0  0  0  0  0  0  0  0  0  0  0
   21.9453   15.4715   35.8810 C   0  0  2  0  0  0  0  0  0  0  0  0
   19.7721   14.2490   35.8841 C   0  0  1  0  0  0  0  0  0  0  0  0
   20.0560   13.4024   38.2592 C   0  0  2  0  0  0  0  0  0  0  0  0
   20.6004   12.1883   39.0180 C   0  0  0  0  0  0  0  0  0  0  0  0
   18.5801   13.5693   38.5437 C   0  0  2  0  0  0  0  0  0  0  0  0
   18.0247   14.7260   37.7146 C   0  0  1  0  0  0  0  0  0  0  0  0
   18.2490   14.4360   36.2100 C   0  0  1  0  0  0  0  0  0  0  0  0
  5  4  1  6  0  0  0
  5  8  1  0  0  0  0
  5 16  1  0  0  0  0
  8  7  1  6  0  0  0
  8 10  1  0  0  0  0
 10  1  1  6  0  0  0
 10 12  1  0  0  0  0
 11 18  1  0  0  0  0
 12 14  1  0  0  0  0
 14  2  1  1  0  0  0
 14 16  1  0  0  0  0
 16  9  1  1  0  0  0
 17  9  1  1  0  0  0
 17 11  1  0  0  0  0
 17 22  1  0  0  0  0
 18 19  1  1  0  0  0
 18 20  1  0  0  0  0
 19  3  1  0  0  0  0
 20 13  1  1  0  0  0
 20 21  1  0  0  0  0
 21 15  1  6  0  0  0
 21 22  1  0  0  0  0
 22  6  1  6  0  0  0
M  END
>  <CHROM.1>
85.13037059,73.06631108,34.20193407,20.99779265,15.00125882,36.45045653,-0.71388670
0.12002205,2.10084459

>  <Name>
2f4s_lig

>  <RI>
0

>  <Rbt.Current_Directory>
/home/itssahil/PROJECTS/Mol_Feturizer/New_Systems/rnas/2f4s

>  <Rbt.Executable>
rbdock ($Id: //depot/dev/client3/rdock/2013.1/src/exe/rbdock.cxx#4 $)

>  <Rbt.Library>
libRbt.so (2013.1, Build901 2013/11/27)

>  <Rbt.Parameter_File>
/export/apps/rDock/src/rDock_2013.1_src/data/scripts/dock_solv.prm

>  <Rbt.Receptor>
prm/pocket_docking_4.prm

>  <SCORE>
-13.3443

>  <SCORE.INTER>
-15.7804

>  <SCORE.INTER.CONST>
1

>  <SCORE.INTER.POLAR>
-2.01013

>  <SCORE.INTER.ROT>
3

>  <SCORE.INTER.SOLV>
16.5704

>  <SCORE.INTER.VDW>
-14.9433

>  <SCORE.INTER.norm>
-0.717289

>  <SCORE.INTRA>
2.43601

>  <SCORE.INTRA.DIHEDRAL>
3.97972

>  <SCORE.INTRA.DIHEDRAL.0>
1.67653

>  <SCORE.INTRA.POLAR>
0

>  <SCORE.INTRA.POLAR.0>
0

>  <SCORE.INTRA.REPUL>
0

>  <SCORE.INTRA.REPUL.0>
0

>  <SCORE.INTRA.SOLV>
1.05882

>  <SCORE.INTRA.SOLV.lig_0>
-76.6701

>  <SCORE.INTRA.VDW>
-0.0832559

>  <SCORE.INTRA.VDW.0>
-1.53273

>  <SCORE.INTRA.norm>
0.110728

>  <SCORE.RESTR>
0

>  <SCORE.RESTR.CAVITY>
0

>  <SCORE.RESTR.norm>
0

>  <SCORE.SYSTEM>
0

>  <SCORE.SYSTEM.CONST>
0

>  <SCORE.SYSTEM.DIHEDRAL>
0

>  <SCORE.SYSTEM.SOLV>
0

>  <SCORE.SYSTEM.norm>
0

>  <SCORE.heavy>
22

>  <SCORE.norm>
-0.606561

>  <RMSD>
1.444

$$$$
2f4s_lig
 OpenBabel11021811433D
libRbt.so/2013.1/901 2013/11/27
 22 23  0  0  0  0  0  0  0  0999 V2000
   25.7855   16.9271   35.1748 N   0  0  0  0  0  0  0  0  0  0  0  0
   22.1879   15.4801   38.3590 N   0  0  0  0  0  0  0  0  0  0  0  0
   21.7247   11.6302   38.2498 N   0  0  0  0  0  0  0  0  0  0  0  0
   21.4855   15.2165   33.4166 O   0  0  0  0  0  0  0  0  0  0  0  0
   22.0936   15.9571   34.5141 C   0  0  2  0  0  0  0  0  0  0  0  0
   17.4508   15.3568   35.4256 N   0  0  0  0  0  0  0  0  0  0  0  0
   23.9313   16.6995   33.0536 O   0  0  0  0  0  0  0  0  0  0  0  0
   23.6288   16.0614   34.2998 C   0  0  1  0  0  0  0  0  0  0  0  0
   20.3871   15.2349   36.1187 O   0  0  0  0  0  0  0  0  0  0  0  0
   24.2928   16.8572   35.4169 C   0  0  1  0  0  0  0  0  0  0  0  0
   20.0973   13.0506   36.8187 O   0  0  0  0  0  0  0  0  0  0  0  0
   23.9954   16.1762   36.7956 C   0  0  0  0  0  0  0  0  0  0  0  0
   18.4262   13.8301   39.9945 O   0  0  0  0  0  0  0  0  0  0  0  0
   22.4327   16.1206   37.0007 C   0  0  1  0  0  0  0  0  0  0  0  0
   16.5407   14.7955   38.0910 O   0  0  0  0  0  0  0  0  0  0  0  0
   21.7891   15.2597   35.8985 C   0  0  2  0  0  0  0  0  0  0  0  0
   19.5862   14.0918   35.8768 C   0  0  1  0  0  0  0  0  0  0  0  0
   20.0006   13.3649   38.2723 C   0  0  2  0  0  0  0  0  0  0  0  0
   20.5979   12.1947   39.0598 C   0  0  0  0  0  0  0  0  0  0  0  0
   18.5389   13.5304   38.6235 C   0  0  2  0  0  0  0  0  0  0  0  0
   17.9277   14.6396   37.7692 C   0  0  1  0  0  0  0  0  0  0  0  0
   18.0792   14.2789   36.2709 C   0  0  1  0  0  0  0  0  0  0  0  0
  5  4  1  6  0  0  0
  5  8  1  0  0  0  0
  5 16  1  0  0  0  0
  8  7  1  6  0  0  0
  8 10  1  0  0  0  0
 10  1  1  6  0  0  0
 10 12  1  0  0  0  0
 11 18  1  0  0  0  0
 12 14  1  0  0  0  0
 14  2  1  1  0  0  0
 14 16  1  0  0  0  0
 16  9  1  1  0  0  0
 17  9  1  1  0  0  0
 17 11  1  0  0  0  0
 17 22  1  0  0  0  0
 18 19  1  1  0  0  0
 18 20  1  0  0  0  0
 19  3  1  0  0  0  0
 20 13  1  1  0  0  0
 20 21  1  0  0  0  0
 21 15  1  1  0  0  0
 21 22  1  0  0  0  0
 22  6  1  6  0  0  0
M  END
>  <CHROM.1>
99.70889325,62.72699479,33.84473422,20.92633618,14.84530705,36.56160046,-0.66133153
0.11146811,2.08027497

>  <Name>
2f4s_lig

>  <RI>
2.00194e+07

>  <Rbt.Current_Directory>
/home/itssahil/PROJECTS/Mol_Feturizer/New_Systems/rnas/2f4s

>  <Rbt.Executable>
rbdock ($Id: //depot/dev/client3/rdock/2013.1/src/exe/rbdock.cxx#4 $)

>  <Rbt.Library>
libRbt.so (2013.1, Build901 2013/11/27)

>  <Rbt.Parameter_File>
/export/apps/rDock/src/rDock_2013.1_src/data/scripts/dock_solv.prm

>  <Rbt.Receptor>
prm/pocket_docking_6.prm

>  <SCORE>
-13.1672

>  <SCORE.INTER>
-17.3498

>  <SCORE.INTER.CONST>
1

>  <SCORE.INTER.POLAR>
-2.12731

>  <SCORE.INTER.ROT>
3

>  <SCORE.INTER.SOLV>
16.5213

>  <SCORE.INTER.VDW>
-15.5826

>  <SCORE.INTER.norm>
-0.788627

>  <SCORE.INTRA>
4.1826

>  <SCORE.INTRA.DIHEDRAL>
5.91529

>  <SCORE.INTRA.DIHEDRAL.0>
1.67653

>  <SCORE.INTRA.POLAR>
0

>  <SCORE.INTRA.POLAR.0>
0

>  <SCORE.INTRA.REPUL>
0

>  <SCORE.INTRA.REPUL.0>
0

>  <SCORE.INTRA.SOLV>
3.00902

>  <SCORE.INTRA.SOLV.lig_0>
-76.6701

>  <SCORE.INTRA.VDW>
-0.279551

>  <SCORE.INTRA.VDW.0>
-1.53273

>  <SCORE.INTRA.norm>
0.190118

>  <SCORE.RESTR>
0

>  <SCORE.RESTR.CAVITY>
0

>  <SCORE.RESTR.norm>
0

>  <SCORE.SYSTEM>
0

>  <SCORE.SYSTEM.CONST>
0

>  <SCORE.SYSTEM.DIHEDRAL>
0

>  <SCORE.SYSTEM.SOLV>
0

>  <SCORE.SYSTEM.norm>
0

>  <SCORE.heavy>
22

>  <SCORE.norm>
-0.598509

>  <RMSD>
1.467

$$$$
2f4s_lig
 OpenBabel11021811433D
libRbt.so/2013.1/901 2013/11/27
 22 23  0  0  0  0  0  0  0  0999 V2000
   25.7742   17.3103   34.6794 N   0  0  0  0  0  0  0  0  0  0  0  0
   22.5061   15.9681   38.2423 N   0  0  0  0  0  0  0  0  0  0  0  0
   21.7244   11.6609   38.2430 N   0  0  0  0  0  0  0  0  0  0  0  0
   21.5060   15.1450   33.4140 O   0  0  0  0  0  0  0  0  0  0  0  0
   22.1281   16.0346   34.3858 C   0  0  2  0  0  0  0  0  0  0  0  0
   17.7025   15.5572   35.2987 N   0  0  0  0  0  0  0  0  0  0  0  0
   23.8081   16.7406   32.7303 O   0  0  0  0  0  0  0  0  0  0  0  0
   23.6344   16.2173   34.0523 C   0  0  1  0  0  0  0  0  0  0  0  0
   20.5867   15.3722   36.1729 O   0  0  0  0  0  0  0  0  0  0  0  0
   24.3095   17.1673   35.0340 C   0  0  1  0  0  0  0  0  0  0  0  0
   20.2278   13.1696   36.7769 O   0  0  0  0  0  0  0  0  0  0  0  0
   24.1527   16.6155   36.4914 C   0  0  0  0  0  0  0  0  0  0  0  0
   18.3654   13.8637   39.8649 O   0  0  0  0  0  0  0  0  0  0  0  0
   22.6149   16.4784   36.8129 C   0  0  1  0  0  0  0  0  0  0  0  0
   16.6170   14.9184   37.8797 O   0  0  0  0  0  0  0  0  0  0  0  0
   21.9659   15.4666   35.8510 C   0  0  2  0  0  0  0  0  0  0  0  0
   19.7901   14.2489   35.8410 C   0  0  1  0  0  0  0  0  0  0  0  0
   20.0416   13.4357   38.2314 C   0  0  2  0  0  0  0  0  0  0  0  0
   20.5740   12.2317   39.0144 C   0  0  0  0  0  0  0  0  0  0  0  0
   18.5624   13.6090   38.4943 C   0  0  2  0  0  0  0  0  0  0  0  0
   18.0199   14.7547   37.6417 C   0  0  1  0  0  0  0  0  0  0  0  0
   18.2631   14.4429   36.1445 C   0  0  1  0  0  0  0  0  0  0  0  0
  5  4  1  6  0  0  0
  5  8  1  0  0  0  0
  5 16  1  0  0  0  0
  8  7  1  6  0  0  0
  8 10  1  0  0  0  0
 10  1  1  6  0  0  0
 10 12  1  0  0  0  0
 11 18  1  0  0  0  0
 12 14  1  0  0  0  0
 14  2  1  1  0  0  0
 14 16  1  0  0  0  0
 16  9  1  1  0  0  0
 17  9  1  1  0  0  0
 17 11  1  0  0  0  0
 17 22  1  0  0  0  0
 18 19  1  1  0  0  0
 18 20  1  0  0  0  0
 19  3  1  0  0  0  0
 20 13  1  1  0  0  0
 20 21  1  0  0  0  0
 21 15  1  6  0  0  0
 21 22  1  0  0  0  0
 22  6  1  6  0  0  0
M  END
>  <CHROM.1>
85.87150376,72.93927548,32.58829167,21.01039935,15.00738342,36.41738417,-0.70046271
0.12465647,2.08901333

>  <Name>
2f4s_lig

>  <RI>
0

>  <Rbt.Current_Directory>
/home/itssahil/PROJECTS/Mol_Feturizer/New_Systems/rnas/2f4s

>  <Rbt.Executable>
rbdock ($Id: //depot/dev/client3/rdock/2013.1/src/exe/rbdock.cxx#4 $)

>  <Rbt.Library>
libRbt.so (2013.1, Build901 2013/11/27)

>  <Rbt.Parameter_File>
/export/apps/rDock/src/rDock_2013.1_src/data/scripts/dock_solv.prm

>  <Rbt.Receptor>
prm/pocket_docking_4.prm

>  <SCORE>
-13.4042

>  <SCORE.INTER>
-16.0538

>  <SCORE.INTER.CONST>
1

>  <SCORE.INTER.POLAR>
-2.07371

>  <SCORE.INTER.ROT>
3

>  <SCORE.INTER.SOLV>
16.6268

>  <SCORE.INTER.VDW>
-14.9324

>  <SCORE.INTER.norm>
-0.729716

>  <SCORE.INTRA>
2.6495

>  <SCORE.INTRA.DIHEDRAL>
4.31825

>  <SCORE.INTRA.DIHEDRAL.0>
1.67653

>  <SCORE.INTRA.POLAR>
0

>  <SCORE.INTRA.POLAR.0>
0

>  <SCORE.INTRA.REPUL>
0

>  <SCORE.INTRA.REPUL.0>
0

>  <SCORE.INTRA.SOLV>
1.11617

>  <SCORE.INTRA.SOLV.lig_0>
-76.6701

>  <SCORE.INTRA.VDW>
-0.0677059

>  <SCORE.INTRA.VDW.0>
-1.53273

>  <SCORE.INTRA.norm>
0.120432

>  <SCORE.RESTR>
0

>  <SCORE.RESTR.CAVITY>
0

>  <SCORE.RESTR.norm>
0

>  <SCORE.SYSTEM>
0

>  <SCORE.SYSTEM.CONST>
0

>  <SCORE.SYSTEM.DIHEDRAL>
0

>  <SCORE.SYSTEM.SOLV>
0

>  <SCORE.SYSTEM.norm>
0

>  <SCORE.heavy>
22

>  <SCORE.norm>
-0.609284

>  <RMSD>
1.477

$$$$
2f4s_lig
 OpenBabel11021811433D
libRbt.so/2013.1/901 2013/11/27
 22 23  0  0  0  0  0  0  0  0999 V2000
   25.7473   17.1619   34.9194 N   0  0  0  0  0  0  0  0  0  0  0  0
   22.2787   15.7287   38.2497 N   0  0  0  0  0  0  0  0  0  0  0  0
   21.6373   11.6526   38.2652 N   0  0  0  0  0  0  0  0  0  0  0  0
   21.4928   15.1817   33.3432 O   0  0  0  0  0  0  0  0  0  0  0  0
   22.0892   16.0030   34.3885 C   0  0  2  0  0  0  0  0  0  0  0  0
   17.5429   15.3487   35.2402 N   0  0  0  0  0  0  0  0  0  0  0  0
   23.8641   16.7468   32.8530 O   0  0  0  0  0  0  0  0  0  0  0  0
   23.6139   16.1613   34.1362 C   0  0  1  0  0  0  0  0  0  0  0  0
   20.4472   15.2922   36.0641 O   0  0  0  0  0  0  0  0  0  0  0  0
   24.2641   17.0410   35.1969 C   0  0  1  0  0  0  0  0  0  0  0  0
   20.1614   13.1199   36.8018 O   0  0  0  0  0  0  0  0  0  0  0  0
   24.0235   16.4198   36.6144 C   0  0  0  0  0  0  0  0  0  0  0  0
   18.3395   13.9432   39.8821 O   0  0  0  0  0  0  0  0  0  0  0  0
   22.4690   16.3084   36.8557 C   0  0  1  0  0  0  0  0  0  0  0  0
   16.5249   14.8330   37.8757 O   0  0  0  0  0  0  0  0  0  0  0  0
   21.8423   15.3653   35.8127 C   0  0  2  0  0  0  0  0  0  0  0  0
   19.6761   14.1305   35.8142 C   0  0  1  0  0  0  0  0  0  0  0  0
   19.9956   13.4655   38.2420 C   0  0  2  0  0  0  0  0  0  0  0  0
   20.5761   12.3239   39.0822 C   0  0  0  0  0  0  0  0  0  0  0  0
   18.5174   13.6143   38.5249 C   0  0  2  0  0  0  0  0  0  0  0  0
   17.9271   14.6933   37.6187 C   0  0  1  0  0  0  0  0  0  0  0  0
   18.1504   14.3012   36.1374 C   0  0  1  0  0  0  0  0  0  0  0  0
  5  4  1  6  0  0  0
  5  8  1  0  0  0  0
  5 16  1  0  0  0  0
  8  7  1  6  0  0  0
  8 10  1  0  0  0  0
 10  1  1  6  0  0  0
 10 12  1  0  0  0  0
 11 18  1  0  0  0  0
 12 14  1  0  0  0  0
 14  2  1  1  0  0  0
 14 16  1  0  0  0  0
 16  9  1  1  0  0  0
 17  9  1  1  0  0  0
 17 11  1  0  0  0  0
 17 22  1  0  0  0  0
 18 19  1  1  0  0  0
 18 20  1  0  0  0  0
 19  3  1  0  0  0  0
 20 13  1  1  0  0  0
 20 21  1  0  0  0  0
 21 15  1  6  0  0  0
 21 22  1  0  0  0  0
 22  6  1  6  0  0  0
M  END
>  <CHROM.1>
95.42806463,67.45437561,27.07042492,20.93461212,14.93825622,36.44457187,-0.67727877
0.14023114,2.05866015

>  <Name>
2f4s_lig

>  <RI>
2.26097e+07

>  <Rbt.Current_Directory>
/home/itssahil/PROJECTS/Mol_Feturizer/New_Systems/rnas/2f4s

>  <Rbt.Executable>
rbdock ($Id: //depot/dev/client3/rdock/2013.1/src/exe/rbdock.cxx#4 $)

>  <Rbt.Library>
libRbt.so (2013.1, Build901 2013/11/27)

>  <Rbt.Parameter_File>
/export/apps/rDock/src/rDock_2013.1_src/data/scripts/dock_solv.prm

>  <Rbt.Receptor>
prm/pocket_docking_7.prm

>  <SCORE>
-13.3299

>  <SCORE.INTER>
-17.5005

>  <SCORE.INTER.CONST>
1

>  <SCORE.INTER.POLAR>
-2.24954

>  <SCORE.INTER.ROT>
3

>  <SCORE.INTER.SOLV>
16.2906

>  <SCORE.INTER.VDW>
-15.1987

>  <SCORE.INTER.norm>
-0.795479

>  <SCORE.INTRA>
4.17062

>  <SCORE.INTRA.DIHEDRAL>
6.33369

>  <SCORE.INTRA.DIHEDRAL.0>
1.67653

>  <SCORE.INTRA.POLAR>
0

>  <SCORE.INTRA.POLAR.0>
0

>  <SCORE.INTRA.REPUL>
0

>  <SCORE.INTRA.REPUL.0>
0

>  <SCORE.INTRA.SOLV>
2.24515

>  <SCORE.INTRA.SOLV.lig_0>
-76.6701

>  <SCORE.INTRA.VDW>
-0.118796

>  <SCORE.INTRA.VDW.0>
-1.53273

>  <SCORE.INTRA.norm>
0.189574

>  <SCORE.RESTR>
0

>  <SCORE.RESTR.CAVITY>
0

>  <SCORE.RESTR.norm>
0

>  <SCORE.SYSTEM>
0

>  <SCORE.SYSTEM.CONST>
0

>  <SCORE.SYSTEM.DIHEDRAL>
0

>  <SCORE.SYSTEM.SOLV>
0

>  <SCORE.SYSTEM.norm>
0

>  <SCORE.heavy>
22

>  <SCORE.norm>
-0.605905

>  <RMSD>
1.536

$$$$
2f4s_lig
 OpenBabel11021811433D
libRbt.so/2013.1/901 2013/11/27
 22 23  0  0  0  0  0  0  0  0999 V2000
   23.4284   18.7287   33.3483 N   0  0  0  0  0  0  0  0  0  0  0  0
   22.3838   17.4846   38.0956 N   0  0  0  0  0  0  0  0  0  0  0  0
   21.8159   11.1997   40.3801 N   0  0  0  0  0  0  0  0  0  0  0  0
   21.6453   14.2264   34.3768 O   0  0  0  0  0  0  0  0  0  0  0  0
   21.6094   15.6247   34.7849 C   0  0  2  0  0  0  0  0  0  0  0  0
   18.1676   15.4617   36.8628 N   0  0  0  0  0  0  0  0  0  0  0  0
   22.1562   16.3524   32.4974 O   0  0  0  0  0  0  0  0  0  0  0  0
   22.5404   16.4696   33.8723 C   0  0  1  0  0  0  0  0  0  0  0  0
   21.1491   15.0642   37.1264 O   0  0  0  0  0  0  0  0  0  0  0  0
   22.5031   17.9444   34.2541 C   0  0  1  0  0  0  0  0  0  0  0  0
   20.8102   12.7773   37.1346 O   0  0  0  0  0  0  0  0  0  0  0  0
   22.9348   18.1108   35.7504 C   0  0  0  0  0  0  0  0  0  0  0  0
   19.5354   12.5392   40.5703 O   0  0  0  0  0  0  0  0  0  0  0  0
   21.9487   17.2740   36.6528 C   0  0  1  0  0  0  0  0  0  0  0  0
   17.5164   14.0997   39.3058 O   0  0  0  0  0  0  0  0  0  0  0  0
   22.0490   15.7802   36.2943 C   0  0  2  0  0  0  0  0  0  0  0  0
   20.2624   14.0746   36.6354 C   0  0  1  0  0  0  0  0  0  0  0  0
   20.8875   12.6141   38.6139 C   0  0  2  0  0  0  0  0  0  0  0  0
   21.4970   11.2419   38.9169 C   0  0  0  0  0  0  0  0  0  0  0  0
   19.4836   12.6895   39.1714 C   0  0  2  0  0  0  0  0  0  0  0  0
   18.8498   14.0255   38.7880 C   0  0  1  0  0  0  0  0  0  0  0  0
   18.8194   14.1578   37.2454 C   0  0  1  0  0  0  0  0  0  0  0  0
  5  4  1  6  0  0  0
  5  8  1  0  0  0  0
  5 16  1  0  0  0  0
  8  7  1  6  0  0  0
  8 10  1  0  0  0  0
 10  1  1  6  0  0  0
 10 12  1  0  0  0  0
 11 18  1  0  0  0  0
 12 14  1  0  0  0  0
 14  2  1  1  0  0  0
 14 16  1  0  0  0  0
 16  9  1  1  0  0  0
 17  9  1  1  0  0  0
 17 11  1  0  0  0  0
 17 22  1  0  0  0  0
 18 19  1  6  0  0  0
 18 20  1  0  0  0  0
 19  3  1  0  0  0  0
 20 13  1  1  0  0  0
 20 21  1  0  0  0  0
 21 15  1  6  0  0  0
 21 22  1  0  0  0  0
 22  6  1  1  0  0  0
M  END
>  <CHROM.1>
16.65296433,108.66357332,169.09922242,20.98270975,14.87318928,36.85546997
1.10471334,0.61003967,-0.54719167

>  <Name>
2f4s_lig

>  <RI>
2.46955e+07

>  <Rbt.Current_Directory>
/home/itssahil/PROJECTS/Mol_Feturizer/New_Systems/rnas/2f4s

>  <Rbt.Executable>
rbdock ($Id: //depot/dev/client3/rdock/2013.1/src/exe/rbdock.cxx#4 $)

>  <Rbt.Library>
libRbt.so (2013.1, Build901 2013/11/27)

>  <Rbt.Parameter_File>
/export/apps/rDock/src/rDock_2013.1_src/data/scripts/dock_solv.prm

>  <Rbt.Receptor>
prm/pocket_docking_3.prm

>  <SCORE>
-3.94706

>  <SCORE.INTER>
-12.5543

>  <SCORE.INTER.CONST>
1

>  <SCORE.INTER.POLAR>
-0.998954

>  <SCORE.INTER.ROT>
3

>  <SCORE.INTER.SOLV>
12.398

>  <SCORE.INTER.VDW>
-14.7724

>  <SCORE.INTER.norm>
-0.570652

>  <SCORE.INTRA>
8.60728

>  <SCORE.INTRA.DIHEDRAL>
11.1239

>  <SCORE.INTRA.DIHEDRAL.0>
1.67653

>  <SCORE.INTRA.POLAR>
0

>  <SCORE.INTRA.POLAR.0>
0

>  <SCORE.INTRA.REPUL>
0

>  <SCORE.INTRA.REPUL.0>
0

>  <SCORE.INTRA.SOLV>
1.35854

>  <SCORE.INTRA.SOLV.lig_0>
-76.6701

>  <SCORE.INTRA.VDW>
2.36607

>  <SCORE.INTRA.VDW.0>
-1.53273

>  <SCORE.INTRA.norm>
0.39124

>  <SCORE.RESTR>
0

>  <SCORE.RESTR.CAVITY>
0

>  <SCORE.RESTR.norm>
0

>  <SCORE.SYSTEM>
0

>  <SCORE.SYSTEM.CONST>
0

>  <SCORE.SYSTEM.DIHEDRAL>
0

>  <SCORE.SYSTEM.SOLV>
0

>  <SCORE.SYSTEM.norm>
0

>  <SCORE.heavy>
22

>  <SCORE.norm>
-0.179412

>  <RMSD>
1.691

$$$$
2f4s_lig
 OpenBabel11021811433D
libRbt.so/2013.1/901 2013/11/27
 22 23  0  0  0  0  0  0  0  0999 V2000
   25.4453   17.3945   35.0412 N   0  0  0  0  0  0  0  0  0  0  0  0
   21.6200   17.0739   38.2723 N   0  0  0  0  0  0  0  0  0  0  0  0
   21.4868   12.1376   37.9275 N   0  0  0  0  0  0  0  0  0  0  0  0
   21.3640   14.8917   33.7819 O   0  0  0  0  0  0  0  0  0  0  0  0
   21.8531   16.0312   34.5469 C   0  0  2  0  0  0  0  0  0  0  0  0
   17.0988   16.0793   35.4878 N   0  0  0  0  0  0  0  0  0  0  0  0
   23.7924   16.2618   33.0478 O   0  0  0  0  0  0  0  0  0  0  0  0
   23.3979   16.1347   34.4190 C   0  0  1  0  0  0  0  0  0  0  0  0
   20.0312   15.8823   36.1801 O   0  0  0  0  0  0  0  0  0  0  0  0
   23.9395   17.3358   35.1845 C   0  0  1  0  0  0  0  0  0  0  0  0
   19.7511   13.6224   36.5796 O   0  0  0  0  0  0  0  0  0  0  0  0
   23.5396   17.2204   36.6944 C   0  0  0  0  0  0  0  0  0  0  0  0
   18.0542   13.9609   39.8187 O   0  0  0  0  0  0  0  0  0  0  0  0
   21.9669   17.1567   36.7931 C   0  0  1  0  0  0  0  0  0  0  0  0
   16.1750   15.1615   38.0475 O   0  0  0  0  0  0  0  0  0  0  0  0
   21.4460   15.9025   36.0679 C   0  0  2  0  0  0  0  0  0  0  0  0
   19.2394   14.7773   35.7816 C   0  0  1  0  0  0  0  0  0  0  0  0
   19.6428   13.7389   38.0614 C   0  0  2  0  0  0  0  0  0  0  0  0
   20.2427   12.4774   38.6899 C   0  0  0  0  0  0  0  0  0  0  0  0
   18.1778   13.8478   38.4209 C   0  0  2  0  0  0  0  0  0  0  0  0
   17.5650   15.0578   37.7180 C   0  0  1  0  0  0  0  0  0  0  0  0
   17.7287   14.9016   36.1860 C   0  0  1  0  0  0  0  0  0  0  0  0
  5  4  1  6  0  0  0
  5  8  1  0  0  0  0
  5 16  1  0  0  0  0
  8  7  1  6  0  0  0
  8 10  1  0  0  0  0
 10  1  1  1  0  0  0
 10 12  1  0  0  0  0
 11 18  1  0  0  0  0
 12 14  1  0  0  0  0
 14  2  1  1  0  0  0
 14 16  1  0  0  0  0
 16  9  1  6  0  0  0
 17  9  1  1  0  0  0
 17 11  1  0  0  0  0
 17 22  1  0  0  0  0
 18 19  1  1  0  0  0
 18 20  1  0  0  0  0
 19  3  1  0  0  0  0
 20 13  1  1  0  0  0
 20 21  1  0  0  0  0
 21 15  1  6  0  0  0
 21 22  1  0  0  0  0
 22  6  1  6  0  0  0
M  END
>  <CHROM.1>
71.87957890,57.80651349,41.28707577,20.59117931,15.30120020,36.48465188,-0.61553488
0.06407282,2.13777194

>  <Name>
2f4s_lig

>  <RI>
0

>  <Rbt.Current_Directory>
/home/itssahil/PROJECTS/Mol_Feturizer/New_Systems/rnas/2f4s

>  <Rbt.Executable>
rbdock ($Id: //depot/dev/client3/rdock/2013.1/src/exe/rbdock.cxx#4 $)

>  <Rbt.Library>
libRbt.so (2013.1, Build901 2013/11/27)

>  <Rbt.Parameter_File>
/export/apps/rDock/src/rDock_2013.1_src/data/scripts/dock_solv.prm

>  <Rbt.Receptor>
prm/pocket_docking_5.prm

>  <SCORE>
-10.6858

>  <SCORE.INTER>
-11.2042

>  <SCORE.INTER.CONST>
1

>  <SCORE.INTER.POLAR>
-1.37735

>  <SCORE.INTER.ROT>
3

>  <SCORE.INTER.SOLV>
13.8486

>  <SCORE.INTER.VDW>
-13.0945

>  <SCORE.INTER.norm>
-0.509282

>  <SCORE.INTRA>
0.518428

>  <SCORE.INTRA.DIHEDRAL>
0.330112

>  <SCORE.INTRA.DIHEDRAL.0>
1.67653

>  <SCORE.INTRA.POLAR>
0

>  <SCORE.INTRA.POLAR.0>
0

>  <SCORE.INTRA.REPUL>
0

>  <SCORE.INTRA.REPUL.0>
0

>  <SCORE.INTRA.SOLV>
0.427393

>  <SCORE.INTRA.SOLV.lig_0>
-76.6701

>  <SCORE.INTRA.VDW>
0.139675

>  <SCORE.INTRA.VDW.0>
-1.53273

>  <SCORE.INTRA.norm>
0.0235649

>  <SCORE.RESTR>
0

>  <SCORE.RESTR.CAVITY>
0

>  <SCORE.RESTR.norm>
0

>  <SCORE.SYSTEM>
0

>  <SCORE.SYSTEM.CONST>
0

>  <SCORE.SYSTEM.DIHEDRAL>
0

>  <SCORE.SYSTEM.SOLV>
0

>  <SCORE.SYSTEM.norm>
0

>  <SCORE.heavy>
22

>  <SCORE.norm>
-0.485717

>  <RMSD>
1.833

$$$$
2f4s_lig
 OpenBabel11021811433D
libRbt.so/2013.1/901 2013/11/27
 22 23  0  0  0  0  0  0  0  0999 V2000
   24.4022   16.8493   34.2867 N   0  0  0  0  0  0  0  0  0  0  0  0
   23.7671   15.0356   38.9217 N   0  0  0  0  0  0  0  0  0  0  0  0
   23.4278   10.2136   40.5545 N   0  0  0  0  0  0  0  0  0  0  0  0
   20.5038   13.9672   35.2885 O   0  0  0  0  0  0  0  0  0  0  0  0
   21.4005   14.9670   35.8534 C   0  0  2  0  0  0  0  0  0  0  0  0
   18.3241   14.1891   39.1542 N   0  0  0  0  0  0  0  0  0  0  0  0
   21.8176   15.9184   33.6213 O   0  0  0  0  0  0  0  0  0  0  0  0
   22.4529   15.3971   34.7946 C   0  0  1  0  0  0  0  0  0  0  0  0
   21.1619   14.0845   38.1278 O   0  0  0  0  0  0  0  0  0  0  0  0
   23.3896   16.4658   35.3447 C   0  0  1  0  0  0  0  0  0  0  0  0
   21.0407   11.7758   38.1249 O   0  0  0  0  0  0  0  0  0  0  0  0
   24.1149   15.9218   36.6218 C   0  0  0  0  0  0  0  0  0  0  0  0
   21.3503   11.3200   41.7557 O   0  0  0  0  0  0  0  0  0  0  0  0
   23.0229   15.5309   37.6904 C   0  0  1  0  0  0  0  0  0  0  0  0
   18.8699   12.7041   41.5510 O   0  0  0  0  0  0  0  0  0  0  0  0
   22.1279   14.4063   37.1388 C   0  0  2  0  0  0  0  0  0  0  0  0
   20.2327   13.0248   37.9855 C   0  0  1  0  0  0  0  0  0  0  0  0
   21.7449   11.5817   39.4239 C   0  0  2  0  0  0  0  0  0  0  0  0
   22.5323   10.2697   39.3548 C   0  0  0  0  0  0  0  0  0  0  0  0
   20.7040   11.5016   40.5182 C   0  0  2  0  0  0  0  0  0  0  0  0
   19.8637   12.7774   40.5222 C   0  0  1  0  0  0  0  0  0  0  0  0
   19.1778   12.9471   39.1442 C   0  0  1  0  0  0  0  0  0  0  0  0
  5  4  1  6  0  0  0
  5  8  1  0  0  0  0
  5 16  1  0  0  0  0
  8  7  1  6  0  0  0
  8 10  1  0  0  0  0
 10  1  1  6  0  0  0
 10 12  1  0  0  0  0
 11 18  1  0  0  0  0
 12 14  1  0  0  0  0
 14  2  1  1  0  0  0
 14 16  1  0  0  0  0
 16  9  1  1  0  0  0
 17  9  1  1  0  0  0
 17 11  1  0  0  0  0
 17 22  1  0  0  0  0
 18 19  1  6  0  0  0
 18 20  1  0  0  0  0
 19  3  1  0  0  0  0
 20 13  1  1  0  0  0
 20 21  1  0  0  0  0
 21 15  1  1  0  0  0
 21 22  1  0  0  0  0
 22  6  1  1  0  0  0
M  END
>  <CHROM.1>
67.62717900,71.52915232,169.69997429,21.58539209,13.65432636,37.99806531
-1.26373849,-0.07452852,2.25434369

>  <Name>
2f4s_lig

>  <RI>
0

>  <Rbt.Current_Directory>
/home/itssahil/PROJECTS/Mol_Feturizer/New_Systems/rnas/2f4s

>  <Rbt.Executable>
rbdock ($Id: //depot/dev/client3/rdock/2013.1/src/exe/rbdock.cxx#4 $)

>  <Rbt.Library>
libRbt.so (2013.1, Build901 2013/11/27)

>  <Rbt.Parameter_File>
/export/apps/rDock/src/rDock_2013.1_src/data/scripts/dock_solv.prm

>  <Rbt.Receptor>
prm/pocket_docking_8.prm

>  <SCORE>
-14.2668

>  <SCORE.INTER>
-14.9697

>  <SCORE.INTER.CONST>
1

>  <SCORE.INTER.POLAR>
-0.979796

>  <SCORE.INTER.ROT>
3

>  <SCORE.INTER.SOLV>
19.5696

>  <SCORE.INTER.VDW>
-18.837

>  <SCORE.INTER.norm>
-0.680442

>  <SCORE.INTRA>
0.702958

>  <SCORE.INTRA.DIHEDRAL>
-0.252549

>  <SCORE.INTRA.DIHEDRAL.0>
1.67653

>  <SCORE.INTRA.POLAR>
0

>  <SCORE.INTRA.POLAR.0>
0

>  <SCORE.INTRA.REPUL>
0

>  <SCORE.INTRA.REPUL.0>
0

>  <SCORE.INTRA.SOLV>
0.853832

>  <SCORE.INTRA.SOLV.lig_0>
-76.6701

>  <SCORE.INTRA.VDW>
0.402317

>  <SCORE.INTRA.VDW.0>
-1.53273

>  <SCORE.INTRA.norm>
0.0319526

>  <SCORE.RESTR>
0

>  <SCORE.RESTR.CAVITY>
0

>  <SCORE.RESTR.norm>
0

>  <SCORE.SYSTEM>
0

>  <SCORE.SYSTEM.CONST>
0

>  <SCORE.SYSTEM.DIHEDRAL>
0

>  <SCORE.SYSTEM.SOLV>
0

>  <SCORE.SYSTEM.norm>
0

>  <SCORE.heavy>
22

>  <SCORE.norm>
-0.64849

>  <RMSD>
1.912

$$$$
2f4s_lig
 OpenBabel11021811433D
libRbt.so/2013.1/901 2013/11/27
 22 23  0  0  0  0  0  0  0  0999 V2000
   24.3733   16.8217   34.3133 N   0  0  0  0  0  0  0  0  0  0  0  0
   23.7393   15.0267   38.9558 N   0  0  0  0  0  0  0  0  0  0  0  0
   23.4358   10.1714   40.5087 N   0  0  0  0  0  0  0  0  0  0  0  0
   20.4805   13.9358   35.3253 O   0  0  0  0  0  0  0  0  0  0  0  0
   21.3747   14.9399   35.8864 C   0  0  2  0  0  0  0  0  0  0  0  0
   18.3122   14.1667   39.2274 N   0  0  0  0  0  0  0  0  0  0  0  0
   21.7912   15.8825   33.6505 O   0  0  0  0  0  0  0  0  0  0  0  0
   22.4268   15.3677   34.8264 C   0  0  1  0  0  0  0  0  0  0  0  0
   21.1366   14.0668   38.1645 O   0  0  0  0  0  0  0  0  0  0  0  0
   23.3610   16.4406   35.3724 C   0  0  1  0  0  0  0  0  0  0  0  0
   21.0094   11.7585   38.1369 O   0  0  0  0  0  0  0  0  0  0  0  0
   24.0867   15.9037   36.6522 C   0  0  0  0  0  0  0  0  0  0  0  0
   21.3631   11.2606   41.7580 O   0  0  0  0  0  0  0  0  0  0  0  0
   22.9949   15.5152   37.7219 C   0  0  1  0  0  0  0  0  0  0  0  0
   18.8839   12.6531   41.6002 O   0  0  0  0  0  0  0  0  0  0  0  0
   22.1025   14.3863   37.1747 C   0  0  2  0  0  0  0  0  0  0  0  0
   20.2030   13.0111   38.0218 C   0  0  1  0  0  0  0  0  0  0  0  0
   21.7292   11.5479   39.4247 C   0  0  2  0  0  0  0  0  0  0  0  0
   22.5123   10.2348   39.3308 C   0  0  0  0  0  0  0  0  0  0  0  0
   20.7019   11.4579   40.5309 C   0  0  2  0  0  0  0  0  0  0  0  0
   19.8650   12.7356   40.5599 C   0  0  1  0  0  0  0  0  0  0  0  0
   19.1624   12.9228   39.1926 C   0  0  1  0  0  0  0  0  0  0  0  0
  5  4  1  6  0  0  0
  5  8  1  0  0  0  0
  5 16  1  0  0  0  0
  8  7  1  6  0  0  0
  8 10  1  0  0  0  0
 10  1  1  6  0  0  0
 10 12  1  0  0  0  0
 11 18  1  0  0  0  0
 12 14  1  0  0  0  0
 14  2  1  1  0  0  0
 14 16  1  0  0  0  0
 16  9  1  1  0  0  0
 17  9  1  1  0  0  0
 17 11  1  0  0  0  0
 17 22  1  0  0  0  0
 18 19  1  6  0  0  0
 18 20  1  0  0  0  0
 19  3  1  0  0  0  0
 20 13  1  1  0  0  0
 20 21  1  0  0  0  0
 21 15  1  1  0  0  0
 21 22  1  0  0  0  0
 22  6  1  1  0  0  0
M  END
>  <CHROM.1>
67.12416856,70.67847291,168.95471490,21.56816302,13.62488426,38.02331582
-1.26494327,-0.08536049,2.26016792

>  <Name>
2f4s_lig

>  <RI>
0

>  <Rbt.Current_Directory>
/home/itssahil/PROJECTS/Mol_Feturizer/New_Systems/rnas/2f4s

>  <Rbt.Executable>
rbdock ($Id: //depot/dev/client3/rdock/2013.1/src/exe/rbdock.cxx#4 $)

>  <Rbt.Library>
libRbt.so (2013.1, Build901 2013/11/27)

>  <Rbt.Parameter_File>
/export/apps/rDock/src/rDock_2013.1_src/data/scripts/dock_solv.prm

>  <Rbt.Receptor>
prm/pocket_docking_5.prm

>  <SCORE>
-14.2581

>  <SCORE.INTER>
-14.9028

>  <SCORE.INTER.CONST>
1

>  <SCORE.INTER.POLAR>
-0.979796

>  <SCORE.INTER.ROT>
3

>  <SCORE.INTER.SOLV>
19.9297

>  <SCORE.INTER.VDW>
-18.9124

>  <SCORE.INTER.norm>
-0.677398

>  <SCORE.INTRA>
0.644691

>  <SCORE.INTRA.DIHEDRAL>
-0.319068

>  <SCORE.INTRA.DIHEDRAL.0>
1.67653

>  <SCORE.INTRA.POLAR>
0

>  <SCORE.INTRA.POLAR.0>
0

>  <SCORE.INTRA.REPUL>
0

>  <SCORE.INTRA.REPUL.0>
0

>  <SCORE.INTRA.SOLV>
0.816768

>  <SCORE.INTRA.SOLV.lig_0>
-76.6701

>  <SCORE.INTRA.VDW>
0.395841

>  <SCORE.INTRA.VDW.0>
-1.53273

>  <SCORE.INTRA.norm>
0.0293041

>  <SCORE.RESTR>
0

>  <SCORE.RESTR.CAVITY>
0

>  <SCORE.RESTR.norm>
0

>  <SCORE.SYSTEM>
0

>  <SCORE.SYSTEM.CONST>
0

>  <SCORE.SYSTEM.DIHEDRAL>
0

>  <SCORE.SYSTEM.SOLV>
0

>  <SCORE.SYSTEM.norm>
0

>  <SCORE.heavy>
22

>  <SCORE.norm>
-0.648094

>  <RMSD>
1.947

$$$$
2f4s_lig
 OpenBabel11021811433D
libRbt.so/2013.1/901 2013/11/27
 22 23  0  0  0  0  0  0  0  0999 V2000
   23.0403   19.6983   34.8875 N   0  0  0  0  0  0  0  0  0  0  0  0
   20.1637   17.5219   38.3751 N   0  0  0  0  0  0  0  0  0  0  0  0
   22.2502   10.8367   40.7220 N   0  0  0  0  0  0  0  0  0  0  0  0
   24.3301   15.2935   36.7425 O   0  0  0  0  0  0  0  0  0  0  0  0
   23.1911   16.1325   36.3941 C   0  0  2  0  0  0  0  0  0  0  0  0
   18.8749   15.4177   37.2852 N   0  0  0  0  0  0  0  0  0  0  0  0
   24.5177   17.2977   34.6783 O   0  0  0  0  0  0  0  0  0  0  0  0
   23.6850   17.4922   35.8275 C   0  0  1  0  0  0  0  0  0  0  0  0
   21.7632   15.1349   38.1188 O   0  0  0  0  0  0  0  0  0  0  0  0
   22.5166   18.3835   35.4248 C   0  0  1  0  0  0  0  0  0  0  0  0
   21.6408   12.8731   37.6558 O   0  0  0  0  0  0  0  0  0  0  0  0
   21.5925   18.6308   36.6650 C   0  0  0  0  0  0  0  0  0  0  0  0
   19.7179   11.9228   40.6366 O   0  0  0  0  0  0  0  0  0  0  0  0
   21.0771   17.2367   37.1921 C   0  0  1  0  0  0  0  0  0  0  0  0
   17.8656   13.5859   39.2533 O   0  0  0  0  0  0  0  0  0  0  0  0
   22.2682   16.3769   37.6528 C   0  0  2  0  0  0  0  0  0  0  0  0
   21.0901   14.2108   37.2823 C   0  0  1  0  0  0  0  0  0  0  0  0
   21.4287   12.4373   39.0651 C   0  0  2  0  0  0  0  0  0  0  0  0
   22.0866   11.0666   39.2507 C   0  0  0  0  0  0  0  0  0  0  0  0
   19.9396   12.3320   39.3079 C   0  0  2  0  0  0  0  0  0  0  0  0
   19.2778   13.6813   39.0335 C   0  0  1  0  0  0  0  0  0  0  0  0
   19.5515   14.1012   37.5683 C   0  0  1  0  0  0  0  0  0  0  0  0
  5  4  1  1  0  0  0
  5  8  1  0  0  0  0
  5 16  1  0  0  0  0
  8  7  1  6  0  0  0
  8 10  1  0  0  0  0
 10  1  1  1  0  0  0
 10 12  1  0  0  0  0
 11 18  1  0  0  0  0
 12 14  1  0  0  0  0
 14  2  1  1  0  0  0
 14 16  1  0  0  0  0
 16  9  1  6  0  0  0
 17  9  1  1  0  0  0
 17 11  1  0  0  0  0
 17 22  1  0  0  0  0
 18 19  1  6  0  0  0
 18 20  1  0  0  0  0
 19  3  1  0  0  0  0
 20 13  1  1  0  0  0
 20 21  1  0  0  0  0
 21 15  1  6  0  0  0
 21 22  1  0  0  0  0
 22  6  1  1  0  0  0
M  END
>  <CHROM.1>
-52.91015621,137.02854832,162.49585436,21.45744965,15.04251020,37.69570057
1.18518552,0.30014712,-0.46224777

>  <Name>
2f4s_lig

>  <RI>
2.26097e+07

>  <Rbt.Current_Directory>
/home/itssahil/PROJECTS/Mol_Feturizer/New_Systems/rnas/2f4s

>  <Rbt.Executable>
rbdock ($Id: //depot/dev/client3/rdock/2013.1/src/exe/rbdock.cxx#4 $)

>  <Rbt.Library>
libRbt.so (2013.1, Build901 2013/11/27)

>  <Rbt.Parameter_File>
/export/apps/rDock/src/rDock_2013.1_src/data/scripts/dock_solv.prm

>  <Rbt.Receptor>
prm/pocket_docking_7.prm

>  <SCORE>
-6.83519

>  <SCORE.INTER>
-12.8906

>  <SCORE.INTER.CONST>
1

>  <SCORE.INTER.POLAR>
-0.979796

>  <SCORE.INTER.ROT>
3

>  <SCORE.INTER.SOLV>
7.47334

>  <SCORE.INTER.VDW>
-13.4188

>  <SCORE.INTER.norm>
-0.585935

>  <SCORE.INTRA>
6.05538

>  <SCORE.INTRA.DIHEDRAL>
5.41617

>  <SCORE.INTRA.DIHEDRAL.0>
1.67653

>  <SCORE.INTRA.POLAR>
0

>  <SCORE.INTRA.POLAR.0>
0

>  <SCORE.INTRA.REPUL>
0

>  <SCORE.INTRA.REPUL.0>
0

>  <SCORE.INTRA.SOLV>
5.4559

>  <SCORE.INTRA.SOLV.lig_0>
-76.6701

>  <SCORE.INTRA.VDW>
0.619343

>  <SCORE.INTRA.VDW.0>
-1.53273

>  <SCORE.INTRA.norm>
0.275244

>  <SCORE.RESTR>
0

>  <SCORE.RESTR.CAVITY>
0

>  <SCORE.RESTR.norm>
0

>  <SCORE.SYSTEM>
0

>  <SCORE.SYSTEM.CONST>
0

>  <SCORE.SYSTEM.DIHEDRAL>
0

>  <SCORE.SYSTEM.SOLV>
0

>  <SCORE.SYSTEM.norm>
0

>  <SCORE.heavy>
22

>  <SCORE.norm>
-0.310691

>  <RMSD>
2.051

$$$$
2f4s_lig
 OpenBabel11021811433D
libRbt.so/2013.1/901 2013/11/27
 22 23  0  0  0  0  0  0  0  0999 V2000
   25.4772   17.1025   34.4718 N   0  0  0  0  0  0  0  0  0  0  0  0
   20.6241   16.0989   35.2568 N   0  0  0  0  0  0  0  0  0  0  0  0
   22.9444   11.3390   39.6208 N   0  0  0  0  0  0  0  0  0  0  0  0
   23.9700   15.5799   38.9346 O   0  0  0  0  0  0  0  0  0  0  0  0
   23.7153   15.4589   37.5052 C   0  0  2  0  0  0  0  0  0  0  0  0
   18.4664   15.2396   36.8971 N   0  0  0  0  0  0  0  0  0  0  0  0
   26.0676   15.9783   36.9970 O   0  0  0  0  0  0  0  0  0  0  0  0
   24.7130   16.3452   36.7098 C   0  0  1  0  0  0  0  0  0  0  0  0
   21.3273   15.0157   37.8364 O   0  0  0  0  0  0  0  0  0  0  0  0
   24.4928   16.2185   35.2073 C   0  0  1  0  0  0  0  0  0  0  0  0
   21.1129   12.7137   37.8348 O   0  0  0  0  0  0  0  0  0  0  0  0
   23.0229   16.6290   34.8554 C   0  0  0  0  0  0  0  0  0  0  0  0
   19.1077   12.4620   40.9010 O   0  0  0  0  0  0  0  0  0  0  0  0
   22.0361   15.6873   35.6470 C   0  0  1  0  0  0  0  0  0  0  0  0
   17.3499   13.8843   39.1697 O   0  0  0  0  0  0  0  0  0  0  0  0
   22.2311   15.8778   37.1622 C   0  0  2  0  0  0  0  0  0  0  0  0
   20.6266   13.9695   37.1875 C   0  0  1  0  0  0  0  0  0  0  0  0
   20.8617   12.5801   39.2977 C   0  0  2  0  0  0  0  0  0  0  0  0
   21.4563   11.2499   39.7700 C   0  0  0  0  0  0  0  0  0  0  0  0
   19.3662   12.5855   39.5226 C   0  0  2  0  0  0  0  0  0  0  0  0
   18.7679   13.8769   38.9676 C   0  0  1  0  0  0  0  0  0  0  0  0
   19.0807   13.9813   37.4545 C   0  0  1  0  0  0  0  0  0  0  0  0
  5  4  1  1  0  0  0
  5  8  1  0  0  0  0
  5 16  1  0  0  0  0
  8  7  1  6  0  0  0
  8 10  1  0  0  0  0
 10  1  1  6  0  0  0
 10 12  1  0  0  0  0
 11 18  1  0  0  0  0
 12 14  1  0  0  0  0
 14  2  1  6  0  0  0
 14 16  1  0  0  0  0
 16  9  1  1  0  0  0
 17  9  1  1  0  0  0
 17 11  1  0  0  0  0
 17 22  1  0  0  0  0
 18 19  1  6  0  0  0
 18 20  1  0  0  0  0
 19  3  1  0  0  0  0
 20 13  1  1  0  0  0
 20 21  1  0  0  0  0
 21 15  1  6  0  0  0
 21 22  1  0  0  0  0
 22  6  1  1  0  0  0
M  END
>  <CHROM.1>
-103.61915371,116.93563359,66.12539349,21.66919820,14.52557661,37.64353765
0.76234771,-0.03606498,-0.81665213

>  <Name>
2f4s_lig

>  <RI>
0

>  <Rbt.Current_Directory>
/home/itssahil/PROJECTS/Mol_Feturizer/New_Systems/rnas/2f4s

>  <Rbt.Executable>
rbdock ($Id: //depot/dev/client3/rdock/2013.1/src/exe/rbdock.cxx#4 $)

>  <Rbt.Library>
libRbt.so (2013.1, Build901 2013/11/27)

>  <Rbt.Parameter_File>
/export/apps/rDock/src/rDock_2013.1_src/data/scripts/dock_solv.prm

>  <Rbt.Receptor>
prm/pocket_docking_2.prm

>  <SCORE>
-6.19836

>  <SCORE.INTER>
-15.4997

>  <SCORE.INTER.CONST>
1

>  <SCORE.INTER.POLAR>
-0.979796

>  <SCORE.INTER.ROT>
3

>  <SCORE.INTER.SOLV>
13.9241

>  <SCORE.INTER.VDW>
-17.3085

>  <SCORE.INTER.norm>
-0.704531

>  <SCORE.INTRA>
9.30132

>  <SCORE.INTRA.DIHEDRAL>
11.4409

>  <SCORE.INTRA.DIHEDRAL.0>
1.67653

>  <SCORE.INTRA.POLAR>
0

>  <SCORE.INTRA.POLAR.0>
0

>  <SCORE.INTRA.REPUL>
0

>  <SCORE.INTRA.REPUL.0>
0

>  <SCORE.INTRA.SOLV>
3.36636

>  <SCORE.INTRA.SOLV.lig_0>
-76.6701

>  <SCORE.INTRA.VDW>
1.8977

>  <SCORE.INTRA.VDW.0>
-1.53273

>  <SCORE.INTRA.norm>
0.422787

>  <SCORE.RESTR>
0

>  <SCORE.RESTR.CAVITY>
0

>  <SCORE.RESTR.norm>
0

>  <SCORE.SYSTEM>
0

>  <SCORE.SYSTEM.CONST>
0

>  <SCORE.SYSTEM.DIHEDRAL>
0

>  <SCORE.SYSTEM.SOLV>
0

>  <SCORE.SYSTEM.norm>
0

>  <SCORE.heavy>
22

>  <SCORE.norm>
-0.281744

>  <RMSD>
2.154

$$$$
2f4s_lig
 OpenBabel11021811433D
libRbt.so/2013.1/901 2013/11/27
 22 23  0  0  0  0  0  0  0  0999 V2000
   25.4808   17.1126   34.4360 N   0  0  0  0  0  0  0  0  0  0  0  0
   20.6282   16.1028   35.2157 N   0  0  0  0  0  0  0  0  0  0  0  0
   23.0795   11.4311   39.5975 N   0  0  0  0  0  0  0  0  0  0  0  0
   23.9678   15.6052   38.9021 O   0  0  0  0  0  0  0  0  0  0  0  0
   23.7161   15.4779   37.4727 C   0  0  2  0  0  0  0  0  0  0  0  0
   18.4669   15.1175   36.8408 N   0  0  0  0  0  0  0  0  0  0  0  0
   26.0685   15.9998   36.9670 O   0  0  0  0  0  0  0  0  0  0  0  0
   24.7137   16.3629   36.6757 C   0  0  1  0  0  0  0  0  0  0  0  0
   21.3284   15.0314   37.8010 O   0  0  0  0  0  0  0  0  0  0  0  0
   24.4967   16.2297   35.1733 C   0  0  1  0  0  0  0  0  0  0  0  0
   21.2099   12.7229   37.8433 O   0  0  0  0  0  0  0  0  0  0  0  0
   23.0267   16.6358   34.8168 C   0  0  0  0  0  0  0  0  0  0  0  0
   19.1966   12.4471   40.9020 O   0  0  0  0  0  0  0  0  0  0  0  0
   22.0402   15.6955   35.6103 C   0  0  1  0  0  0  0  0  0  0  0  0
   17.3927   13.7611   39.1329 O   0  0  0  0  0  0  0  0  0  0  0  0
   22.2319   15.8925   37.1251 C   0  0  2  0  0  0  0  0  0  0  0  0
   20.6761   13.9445   37.1687 C   0  0  1  0  0  0  0  0  0  0  0  0
   20.9548   12.6072   39.3070 C   0  0  2  0  0  0  0  0  0  0  0  0
   21.6011   11.3123   39.8088 C   0  0  0  0  0  0  0  0  0  0  0  0
   19.4589   12.5546   39.5230 C   0  0  2  0  0  0  0  0  0  0  0  0
   18.8111   13.8089   38.9393 C   0  0  1  0  0  0  0  0  0  0  0  0
   19.1293   13.8970   37.4263 C   0  0  1  0  0  0  0  0  0  0  0  0
  5  4  1  1  0  0  0
  5  8  1  0  0  0  0
  5 16  1  0  0  0  0
  8  7  1  6  0  0  0
  8 10  1  0  0  0  0
 10  1  1  6  0  0  0
 10 12  1  0  0  0  0
 11 18  1  0  0  0  0
 12 14  1  0  0  0  0
 14  2  1  6  0  0  0
 14 16  1  0  0  0  0
 16  9  1  1  0  0  0
 17  9  1  1  0  0  0
 17 11  1  0  0  0  0
 17 22  1  0  0  0  0
 18 19  1  6  0  0  0
 18 20  1  0  0  0  0
 19  3  1  0  0  0  0
 20 13  1  1  0  0  0
 20 21  1  0  0  0  0
 21 15  1  6  0  0  0
 21 22  1  0  0  0  0
 22  6  1  1  0  0  0
M  END
>  <CHROM.1>
-100.73280610,114.93699827,63.10393526,21.70832921,14.51991433,37.61995871
0.77226909,-0.05252413,-0.83108424

>  <Name>
2f4s_lig

>  <RI>
0

>  <Rbt.Current_Directory>
/home/itssahil/PROJECTS/Mol_Feturizer/New_Systems/rnas/2f4s

>  <Rbt.Executable>
rbdock ($Id: //depot/dev/client3/rdock/2013.1/src/exe/rbdock.cxx#4 $)

>  <Rbt.Library>
libRbt.so (2013.1, Build901 2013/11/27)

>  <Rbt.Parameter_File>
/export/apps/rDock/src/rDock_2013.1_src/data/scripts/dock_solv.prm

>  <Rbt.Receptor>
prm/pocket_docking_2.prm

>  <SCORE>
-6.28244

>  <SCORE.INTER>
-15.0735

>  <SCORE.INTER.CONST>
1

>  <SCORE.INTER.POLAR>
-0.972802

>  <SCORE.INTER.ROT>
3

>  <SCORE.INTER.SOLV>
14.2682

>  <SCORE.INTER.VDW>
-17.1624

>  <SCORE.INTER.norm>
-0.685159

>  <SCORE.INTRA>
8.78824

>  <SCORE.INTRA.DIHEDRAL>
10.8299

>  <SCORE.INTRA.DIHEDRAL.0>
1.67653

>  <SCORE.INTRA.POLAR>
0

>  <SCORE.INTRA.POLAR.0>
0

>  <SCORE.INTRA.REPUL>
0

>  <SCORE.INTRA.REPUL.0>
0

>  <SCORE.INTRA.SOLV>
3.28808

>  <SCORE.INTRA.SOLV.lig_0>
-76.6701

>  <SCORE.INTRA.VDW>
1.72925

>  <SCORE.INTRA.VDW.0>
-1.53273

>  <SCORE.INTRA.norm>
0.399466

>  <SCORE.RESTR>
0.00281412

>  <SCORE.RESTR.CAVITY>
0.00281412

>  <SCORE.RESTR.norm>
0.000127915

>  <SCORE.SYSTEM>
0

>  <SCORE.SYSTEM.CONST>
0

>  <SCORE.SYSTEM.DIHEDRAL>
0

>  <SCORE.SYSTEM.SOLV>
0

>  <SCORE.SYSTEM.norm>
0

>  <SCORE.heavy>
22

>  <SCORE.norm>
-0.285566

>  <RMSD>
2.156

$$$$
2f4s_lig
 OpenBabel11021811433D
libRbt.so/2013.1/901 2013/11/27
 22 23  0  0  0  0  0  0  0  0999 V2000
   25.6395   18.6130   35.2851 N   0  0  0  0  0  0  0  0  0  0  0  0
   21.8877   15.2926   35.0109 N   0  0  0  0  0  0  0  0  0  0  0  0
   22.8601   10.5274   39.4712 N   0  0  0  0  0  0  0  0  0  0  0  0
   24.0856   16.3120   39.3836 O   0  0  0  0  0  0  0  0  0  0  0  0
   24.2664   16.1555   37.9464 C   0  0  2  0  0  0  0  0  0  0  0  0
   19.7259   15.7751   37.0718 N   0  0  0  0  0  0  0  0  0  0  0  0
   26.0985   17.8001   37.9530 O   0  0  0  0  0  0  0  0  0  0  0  0
   24.8501   17.4604   37.3381 C   0  0  1  0  0  0  0  0  0  0  0  0
   22.4082   14.5683   37.7543 O   0  0  0  0  0  0  0  0  0  0  0  0
   25.0798   17.3198   35.8383 C   0  0  1  0  0  0  0  0  0  0  0  0
   21.4341   12.4718   37.7301 O   0  0  0  0  0  0  0  0  0  0  0  0
   23.7285   16.9639   35.1309 C   0  0  0  0  0  0  0  0  0  0  0  0
   19.6999   12.7611   40.9541 O   0  0  0  0  0  0  0  0  0  0  0  0
   23.1822   15.6167   35.7421 C   0  0  1  0  0  0  0  0  0  0  0  0
   18.3954   14.7658   39.4082 O   0  0  0  0  0  0  0  0  0  0  0  0
   22.8969   15.7993   37.2439 C   0  0  2  0  0  0  0  0  0  0  0  0
   21.3498   13.8462   37.1502 C   0  0  1  0  0  0  0  0  0  0  0  0
   21.2646   12.3622   39.2066 C   0  0  2  0  0  0  0  0  0  0  0  0
   21.4123   10.8896   39.6015 C   0  0  0  0  0  0  0  0  0  0  0  0
   19.8793   12.8549   39.5609 C   0  0  2  0  0  0  0  0  0  0  0  0
   19.7089   14.2959   39.0833 C   0  0  1  0  0  0  0  0  0  0  0  0
   19.9226   14.3598   37.5509 C   0  0  1  0  0  0  0  0  0  0  0  0
  5  4  1  1  0  0  0
  5  8  1  0  0  0  0
  5 16  1  0  0  0  0
  8  7  1  1  0  0  0
  8 10  1  0  0  0  0
 10  1  1  6  0  0  0
 10 12  1  0  0  0  0
 11 18  1  0  0  0  0
 12 14  1  0  0  0  0
 14  2  1  6  0  0  0
 14 16  1  0  0  0  0
 16  9  1  1  0  0  0
 17  9  1  1  0  0  0
 17 11  1  0  0  0  0
 17 22  1  0  0  0  0
 18 19  1  6  0  0  0
 18 20  1  0  0  0  0
 19  3  1  0  0  0  0
 20 13  1  1  0  0  0
 20 21  1  0  0  0  0
 21 15  1  6  0  0  0
 21 22  1  0  0  0  0
 22  6  1  1  0  0  0
M  END
>  <CHROM.1>
-167.13924458,163.47377622,72.37242932,22.25398039,14.84718998,37.83688354
0.88125904,-0.15359633,-0.68257145

>  <Name>
2f4s_lig

>  <RI>
0

>  <Rbt.Current_Directory>
/home/itssahil/PROJECTS/Mol_Feturizer/New_Systems/rnas/2f4s

>  <Rbt.Executable>
rbdock ($Id: //depot/dev/client3/rdock/2013.1/src/exe/rbdock.cxx#4 $)

>  <Rbt.Library>
libRbt.so (2013.1, Build901 2013/11/27)

>  <Rbt.Parameter_File>
/export/apps/rDock/src/rDock_2013.1_src/data/scripts/dock_solv.prm

>  <Rbt.Receptor>
prm/pocket_docking_2.prm

>  <SCORE>
-8.28748

>  <SCORE.INTER>
-12.0308

>  <SCORE.INTER.CONST>
1

>  <SCORE.INTER.POLAR>
-0.979796

>  <SCORE.INTER.ROT>
3

>  <SCORE.INTER.SOLV>
12.8033

>  <SCORE.INTER.VDW>
-14.6223

>  <SCORE.INTER.norm>
-0.546856

>  <SCORE.INTRA>
3.74335

>  <SCORE.INTRA.DIHEDRAL>
1.02726

>  <SCORE.INTRA.DIHEDRAL.0>
1.67653

>  <SCORE.INTRA.POLAR>
0

>  <SCORE.INTRA.POLAR.0>
0

>  <SCORE.INTRA.REPUL>
0

>  <SCORE.INTRA.REPUL.0>
0

>  <SCORE.INTRA.SOLV>
3.84665

>  <SCORE.INTRA.SOLV.lig_0>
-76.6701

>  <SCORE.INTRA.VDW>
1.30639

>  <SCORE.INTRA.VDW.0>
-1.53273

>  <SCORE.INTRA.norm>
0.170152

>  <SCORE.RESTR>
0

>  <SCORE.RESTR.CAVITY>
0

>  <SCORE.RESTR.norm>
0

>  <SCORE.SYSTEM>
0

>  <SCORE.SYSTEM.CONST>
0

>  <SCORE.SYSTEM.DIHEDRAL>
0

>  <SCORE.SYSTEM.SOLV>
0

>  <SCORE.SYSTEM.norm>
0

>  <SCORE.heavy>
22

>  <SCORE.norm>
-0.376704

>  <RMSD>
2.259

$$$$
2f4s_lig
 OpenBabel11021811433D
libRbt.so/2013.1/901 2013/11/27
 22 23  0  0  0  0  0  0  0  0999 V2000
   25.6722   18.6431   35.3100 N   0  0  0  0  0  0  0  0  0  0  0  0
   21.9605   15.2837   34.9728 N   0  0  0  0  0  0  0  0  0  0  0  0
   22.8810   10.5119   39.4317 N   0  0  0  0  0  0  0  0  0  0  0  0
   24.0864   16.3116   39.3790 O   0  0  0  0  0  0  0  0  0  0  0  0
   24.2889   16.1619   37.9439 C   0  0  2  0  0  0  0  0  0  0  0  0
   19.7749   15.7695   37.0251 N   0  0  0  0  0  0  0  0  0  0  0  0
   26.1029   17.8261   37.9813 O   0  0  0  0  0  0  0  0  0  0  0  0
   24.8669   17.4751   37.3480 C   0  0  1  0  0  0  0  0  0  0  0  0
   22.4507   14.5557   37.7208 O   0  0  0  0  0  0  0  0  0  0  0  0
   25.1188   17.3421   35.8510 C   0  0  1  0  0  0  0  0  0  0  0  0
   21.4705   12.4620   37.6951 O   0  0  0  0  0  0  0  0  0  0  0  0
   23.7813   16.9742   35.1238 C   0  0  0  0  0  0  0  0  0  0  0  0
   19.7233   12.7608   40.9113 O   0  0  0  0  0  0  0  0  0  0  0  0
   23.2412   15.6191   35.7230 C   0  0  1  0  0  0  0  0  0  0  0  0
   18.4314   14.7672   39.3571 O   0  0  0  0  0  0  0  0  0  0  0  0
   22.9331   15.7936   37.2213 C   0  0  2  0  0  0  0  0  0  0  0  0
   21.3928   13.8359   37.1131 C   0  0  1  0  0  0  0  0  0  0  0  0
   21.2943   12.3549   39.1711 C   0  0  2  0  0  0  0  0  0  0  0  0
   21.4359   10.8824   39.5684 C   0  0  0  0  0  0  0  0  0  0  0  0
   19.9090   12.8521   39.5187 C   0  0  2  0  0  0  0  0  0  0  0  0
   19.7449   14.2931   39.0385 C   0  0  1  0  0  0  0  0  0  0  0  0
   19.9654   14.3543   37.5070 C   0  0  1  0  0  0  0  0  0  0  0  0
  5  4  1  1  0  0  0
  5  8  1  0  0  0  0
  5 16  1  0  0  0  0
  8  7  1  1  0  0  0
  8 10  1  0  0  0  0
 10  1  1  6  0  0  0
 10 12  1  0  0  0  0
 11 18  1  0  0  0  0
 12 14  1  0  0  0  0
 14  2  1  6  0  0  0
 14 16  1  0  0  0  0
 16  9  1  1  0  0  0
 17  9  1  1  0  0  0
 17 11  1  0  0  0  0
 17 22  1  0  0  0  0
 18 19  1  6  0  0  0
 18 20  1  0  0  0  0
 19  3  1  0  0  0  0
 20 13  1  1  0  0  0
 20 21  1  0  0  0  0
 21 15  1  6  0  0  0
 21 22  1  0  0  0  0
 22  6  1  1  0  0  0
M  END
>  <CHROM.1>
-168.28676157,164.35659216,71.81706210,22.28762957,14.84805367,37.81397111
0.88095665,-0.16316435,-0.68015939

>  <Name>
2f4s_lig

>  <RI>
0

>  <Rbt.Current_Directory>
/home/itssahil/PROJECTS/Mol_Feturizer/New_Systems/rnas/2f4s

>  <Rbt.Executable>
rbdock ($Id: //depot/dev/client3/rdock/2013.1/src/exe/rbdock.cxx#4 $)

>  <Rbt.Library>
libRbt.so (2013.1, Build901 2013/11/27)

>  <Rbt.Parameter_File>
/export/apps/rDock/src/rDock_2013.1_src/data/scripts/dock_solv.prm

>  <Rbt.Receptor>
prm/pocket_docking_2.prm

>  <SCORE>
-8.34579

>  <SCORE.INTER>
-11.8827

>  <SCORE.INTER.CONST>
1

>  <SCORE.INTER.POLAR>
-0.979796

>  <SCORE.INTER.ROT>
3

>  <SCORE.INTER.SOLV>
13.0337

>  <SCORE.INTER.VDW>
-14.6004

>  <SCORE.INTER.norm>
-0.540124

>  <SCORE.INTRA>
3.50968

>  <SCORE.INTRA.DIHEDRAL>
0.733103

>  <SCORE.INTRA.DIHEDRAL.0>
1.67653

>  <SCORE.INTRA.POLAR>
0

>  <SCORE.INTRA.POLAR.0>
0

>  <SCORE.INTRA.REPUL>
0

>  <SCORE.INTRA.REPUL.0>
0

>  <SCORE.INTRA.SOLV>
3.83341

>  <SCORE.INTRA.SOLV.lig_0>
-76.6701

>  <SCORE.INTRA.VDW>
1.22642

>  <SCORE.INTRA.VDW.0>
-1.53273

>  <SCORE.INTRA.norm>
0.159531

>  <SCORE.RESTR>
0.0272602

>  <SCORE.RESTR.CAVITY>
0.0272602

>  <SCORE.RESTR.norm>
0.0012391

>  <SCORE.SYSTEM>
0

>  <SCORE.SYSTEM.CONST>
0

>  <SCORE.SYSTEM.DIHEDRAL>
0

>  <SCORE.SYSTEM.SOLV>
0

>  <SCORE.SYSTEM.norm>
0

>  <SCORE.heavy>
22

>  <SCORE.norm>
-0.379354

>  <RMSD>
2.268

$$$$
2f4s_lig
 OpenBabel11021811433D
libRbt.so/2013.1/901 2013/11/27
 22 23  0  0  0  0  0  0  0  0999 V2000
   26.1003   18.6778   35.2332 N   0  0  0  0  0  0  0  0  0  0  0  0
   22.2359   15.5125   34.7608 N   0  0  0  0  0  0  0  0  0  0  0  0
   21.2318   10.4861   38.0510 N   0  0  0  0  0  0  0  0  0  0  0  0
   23.9848   16.7568   39.2756 O   0  0  0  0  0  0  0  0  0  0  0  0
   24.3156   16.4864   37.8827 C   0  0  2  0  0  0  0  0  0  0  0  0
   19.7680   16.2485   36.8806 N   0  0  0  0  0  0  0  0  0  0  0  0
   26.2181   18.0458   37.9856 O   0  0  0  0  0  0  0  0  0  0  0  0
   25.0298   17.7160   37.2568 C   0  0  1  0  0  0  0  0  0  0  0  0
   22.4109   14.9717   37.5890 O   0  0  0  0  0  0  0  0  0  0  0  0
   25.4168   17.4547   35.8063 C   0  0  1  0  0  0  0  0  0  0  0  0
   21.3963   12.8965   37.4937 O   0  0  0  0  0  0  0  0  0  0  0  0
   24.1357   17.1065   34.9753 C   0  0  0  0  0  0  0  0  0  0  0  0
   19.6002   13.1438   40.6872 O   0  0  0  0  0  0  0  0  0  0  0  0
   23.4563   15.8333   35.6112 C   0  0  1  0  0  0  0  0  0  0  0  0
   18.3686   15.2109   39.1637 O   0  0  0  0  0  0  0  0  0  0  0  0
   23.0160   16.1391   37.0544 C   0  0  2  0  0  0  0  0  0  0  0  0
   21.3515   14.2858   36.9457 C   0  0  1  0  0  0  0  0  0  0  0  0
   21.1934   12.7551   38.9633 C   0  0  2  0  0  0  0  0  0  0  0  0
   21.3035   11.2708   39.3252 C   0  0  0  0  0  0  0  0  0  0  0  0
   19.8109   13.2672   39.3007 C   0  0  2  0  0  0  0  0  0  0  0  0
   19.6791   14.7224   38.8548 C   0  0  1  0  0  0  0  0  0  0  0  0
   19.9265   14.8185   37.3292 C   0  0  1  0  0  0  0  0  0  0  0  0
  5  4  1  1  0  0  0
  5  8  1  0  0  0  0
  5 16  1  0  0  0  0
  8  7  1  1  0  0  0
  8 10  1  0  0  0  0
 10  1  1  6  0  0  0
 10 12  1  0  0  0  0
 11 18  1  0  0  0  0
 12 14  1  0  0  0  0
 14  2  1  6  0  0  0
 14 16  1  0  0  0  0
 16  9  1  1  0  0  0
 17  9  1  1  0  0  0
 17 11  1  0  0  0  0
 17 22  1  0  0  0  0
 18 19  1  6  0  0  0
 18 20  1  0  0  0  0
 19  3  1  0  0  0  0
 20 13  1  1  0  0  0
 20 21  1  0  0  0  0
 21 15  1  6  0  0  0
 21 22  1  0  0  0  0
 22  6  1  1  0  0  0
M  END
>  <CHROM.1>
-169.89694456,157.55594322,-13.86128564,22.25838293,15.16723582,37.61053103
0.77479919,-0.26147721,-0.76804675

>  <Name>
2f4s_lig

>  <RI>
0

>  <Rbt.Current_Directory>
/home/itssahil/PROJECTS/Mol_Feturizer/New_Systems/rnas/2f4s

>  <Rbt.Executable>
rbdock ($Id: //depot/dev/client3/rdock/2013.1/src/exe/rbdock.cxx#4 $)

>  <Rbt.Library>
libRbt.so (2013.1, Build901 2013/11/27)

>  <Rbt.Parameter_File>
/export/apps/rDock/src/rDock_2013.1_src/data/scripts/dock_solv.prm

>  <Rbt.Receptor>
prm/pocket_docking_2.prm

>  <SCORE>
-3.73272

>  <SCORE.INTER>
-10.6353

>  <SCORE.INTER.CONST>
1

>  <SCORE.INTER.POLAR>
-1.42626

>  <SCORE.INTER.ROT>
3

>  <SCORE.INTER.SOLV>
18.9375

>  <SCORE.INTER.VDW>
-14.2485

>  <SCORE.INTER.norm>
-0.483424

>  <SCORE.INTRA>
6.74848

>  <SCORE.INTRA.DIHEDRAL>
5.71835

>  <SCORE.INTRA.DIHEDRAL.0>
1.67653

>  <SCORE.INTRA.POLAR>
0

>  <SCORE.INTRA.POLAR.0>
0

>  <SCORE.INTRA.REPUL>
0

>  <SCORE.INTRA.REPUL.0>
0

>  <SCORE.INTRA.SOLV>
4.22175

>  <SCORE.INTRA.SOLV.lig_0>
-76.6701

>  <SCORE.INTRA.VDW>
1.77843

>  <SCORE.INTRA.VDW.0>
-1.53273

>  <SCORE.INTRA.norm>
0.306749

>  <SCORE.RESTR>
0.154116

>  <SCORE.RESTR.CAVITY>
0.154116

>  <SCORE.RESTR.norm>
0.00700525

>  <SCORE.SYSTEM>
0

>  <SCORE.SYSTEM.CONST>
0

>  <SCORE.SYSTEM.DIHEDRAL>
0

>  <SCORE.SYSTEM.SOLV>
0

>  <SCORE.SYSTEM.norm>
0

>  <SCORE.heavy>
22

>  <SCORE.norm>
-0.169669

>  <RMSD>
2.303

$$$$
2f4s_lig
 OpenBabel11021811433D
libRbt.so/2013.1/901 2013/11/27
 22 23  0  0  0  0  0  0  0  0999 V2000
   25.7432   18.6269   35.2922 N   0  0  0  0  0  0  0  0  0  0  0  0
   22.0004   15.3024   34.9532 N   0  0  0  0  0  0  0  0  0  0  0  0
   22.3629   10.7731   39.8197 N   0  0  0  0  0  0  0  0  0  0  0  0
   24.0328   16.4219   39.3811 O   0  0  0  0  0  0  0  0  0  0  0  0
   24.2676   16.2321   37.9557 C   0  0  2  0  0  0  0  0  0  0  0  0
   19.9042   15.9736   36.7138 N   0  0  0  0  0  0  0  0  0  0  0  0
   26.1001   17.8758   37.9936 O   0  0  0  0  0  0  0  0  0  0  0  0
   24.8755   17.5224   37.3399 C   0  0  1  0  0  0  0  0  0  0  0  0
   22.4161   14.6416   37.7303 O   0  0  0  0  0  0  0  0  0  0  0  0
   25.1614   17.3470   35.8535 C   0  0  1  0  0  0  0  0  0  0  0  0
   21.2564   12.6475   37.8850 O   0  0  0  0  0  0  0  0  0  0  0  0
   23.8373   16.9754   35.1040 C   0  0  0  0  0  0  0  0  0  0  0  0
   19.3581   13.4828   40.9155 O   0  0  0  0  0  0  0  0  0  0  0  0
   23.2667   15.6428   35.7251 C   0  0  1  0  0  0  0  0  0  0  0  0
   18.3430   15.3800   39.0500 O   0  0  0  0  0  0  0  0  0  0  0  0
   22.9252   15.8603   37.2104 C   0  0  2  0  0  0  0  0  0  0  0  0
   21.3355   13.9406   37.1407 C   0  0  1  0  0  0  0  0  0  0  0  0
   20.9856   12.7384   39.3476 C   0  0  2  0  0  0  0  0  0  0  0  0
   20.9720   11.3197   39.9251 C   0  0  0  0  0  0  0  0  0  0  0  0
   19.6321   13.3858   39.5380 C   0  0  2  0  0  0  0  0  0  0  0  0
   19.6253   14.7649   38.8807 C   0  0  1  0  0  0  0  0  0  0  0  0
   19.9394   14.6180   37.3715 C   0  0  1  0  0  0  0  0  0  0  0  0
  5  4  1  1  0  0  0
  5  8  1  0  0  0  0
  5 16  1  0  0  0  0
  8  7  1  1  0  0  0
  8 10  1  0  0  0  0
 10  1  1  6  0  0  0
 10 12  1  0  0  0  0
 11 18  1  0  0  0  0
 12 14  1  0  0  0  0
 14  2  1  6  0  0  0
 14 16  1  0  0  0  0
 16  9  1  1  0  0  0
 17  9  1  1  0  0  0
 17 11  1  0  0  0  0
 17 22  1  0  0  0  0
 18 19  1  6  0  0  0
 18 20  1  0  0  0  0
 19  3  1  0  0  0  0
 20 13  1  1  0  0  0
 20 21  1  0  0  0  0
 21 15  1  6  0  0  0
 21 22  1  0  0  0  0
 22  6  1  1  0  0  0
M  END
>  <CHROM.1>
-170.41128393,172.56551452,66.84992751,22.18641729,15.06273195,37.82334589
0.82010874,-0.20304272,-0.78457442

>  <Name>
2f4s_lig

>  <RI>
0

>  <Rbt.Current_Directory>
/home/itssahil/PROJECTS/Mol_Feturizer/New_Systems/rnas/2f4s

>  <Rbt.Executable>
rbdock ($Id: //depot/dev/client3/rdock/2013.1/src/exe/rbdock.cxx#4 $)

>  <Rbt.Library>
libRbt.so (2013.1, Build901 2013/11/27)

>  <Rbt.Parameter_File>
/export/apps/rDock/src/rDock_2013.1_src/data/scripts/dock_solv.prm

>  <Rbt.Receptor>
prm/pocket_docking_2.prm

>  <SCORE>
-8.51996

>  <SCORE.INTER>
-11.5684

>  <SCORE.INTER.CONST>
1

>  <SCORE.INTER.POLAR>
-0.979796

>  <SCORE.INTER.ROT>
3

>  <SCORE.INTER.SOLV>
11.1536

>  <SCORE.INTER.VDW>
-13.7642

>  <SCORE.INTER.norm>
-0.525838

>  <SCORE.INTRA>
3.04712

>  <SCORE.INTRA.DIHEDRAL>
-0.643477

>  <SCORE.INTRA.DIHEDRAL.0>
1.67653

>  <SCORE.INTRA.POLAR>
0

>  <SCORE.INTRA.POLAR.0>
0

>  <SCORE.INTRA.REPUL>
0

>  <SCORE.INTRA.REPUL.0>
0

>  <SCORE.INTRA.SOLV>
4.45256

>  <SCORE.INTRA.SOLV.lig_0>
-76.6701

>  <SCORE.INTRA.VDW>
1.14258

>  <SCORE.INTRA.VDW.0>
-1.53273

>  <SCORE.INTRA.norm>
0.138506

>  <SCORE.RESTR>
0.00135113

>  <SCORE.RESTR.CAVITY>
0.00135113

>  <SCORE.RESTR.norm>
6.1415e-05

>  <SCORE.SYSTEM>
0

>  <SCORE.SYSTEM.CONST>
0

>  <SCORE.SYSTEM.DIHEDRAL>
0

>  <SCORE.SYSTEM.SOLV>
0

>  <SCORE.SYSTEM.norm>
0

>  <SCORE.heavy>
22

>  <SCORE.norm>
-0.387271

>  <RMSD>
2.303

$$$$
2f4s_lig
 OpenBabel11021811433D
libRbt.so/2013.1/901 2013/11/27
 22 23  0  0  0  0  0  0  0  0999 V2000
   25.7351   18.6425   35.2918 N   0  0  0  0  0  0  0  0  0  0  0  0
   21.9942   15.3164   34.9466 N   0  0  0  0  0  0  0  0  0  0  0  0
   22.3602   10.7813   39.8310 N   0  0  0  0  0  0  0  0  0  0  0  0
   24.0388   16.4147   39.3743 O   0  0  0  0  0  0  0  0  0  0  0  0
   24.2695   16.2325   37.9472 C   0  0  2  0  0  0  0  0  0  0  0  0
   19.9084   15.9972   36.7301 N   0  0  0  0  0  0  0  0  0  0  0  0
   26.1007   17.8777   37.9882 O   0  0  0  0  0  0  0  0  0  0  0  0
   24.8744   17.5266   37.3364 C   0  0  1  0  0  0  0  0  0  0  0  0
   22.4187   14.6416   37.7190 O   0  0  0  0  0  0  0  0  0  0  0  0
   25.1561   17.3592   35.8482 C   0  0  1  0  0  0  0  0  0  0  0  0
   21.2437   12.6571   37.8809 O   0  0  0  0  0  0  0  0  0  0  0  0
   23.8301   16.9903   35.1007 C   0  0  0  0  0  0  0  0  0  0  0  0
   19.3824   13.5018   40.9317 O   0  0  0  0  0  0  0  0  0  0  0  0
   23.2625   15.6540   35.7166 C   0  0  1  0  0  0  0  0  0  0  0  0
   18.3652   15.4117   39.0803 O   0  0  0  0  0  0  0  0  0  0  0  0
   22.9252   15.8634   37.2040 C   0  0  2  0  0  0  0  0  0  0  0  0
   21.3265   13.9511   37.1386 C   0  0  1  0  0  0  0  0  0  0  0  0
   20.9880   12.7471   39.3463 C   0  0  2  0  0  0  0  0  0  0  0  0
   20.9680   11.3273   39.9208 C   0  0  0  0  0  0  0  0  0  0  0  0
   19.6420   13.4056   39.5514 C   0  0  2  0  0  0  0  0  0  0  0  0
   19.6406   14.7861   38.8972 C   0  0  1  0  0  0  0  0  0  0  0  0
   19.9386   14.6399   37.3846 C   0  0  1  0  0  0  0  0  0  0  0  0
  5  4  1  1  0  0  0
  5  8  1  0  0  0  0
  5 16  1  0  0  0  0
  8  7  1  1  0  0  0
  8 10  1  0  0  0  0
 10  1  1  6  0  0  0
 10 12  1  0  0  0  0
 11 18  1  0  0  0  0
 12 14  1  0  0  0  0
 14  2  1  6  0  0  0
 14 16  1  0  0  0  0
 16  9  1  1  0  0  0
 17  9  1  1  0  0  0
 17 11  1  0  0  0  0
 17 22  1  0  0  0  0
 18 19  1  6  0  0  0
 18 20  1  0  0  0  0
 19  3  1  0  0  0  0
 20 13  1  1  0  0  0
 20 21  1  0  0  0  0
 21 15  1  6  0  0  0
 21 22  1  0  0  0  0
 22  6  1  1  0  0  0
M  END
>  <CHROM.1>
-171.21077612,173.16446104,68.19648230,22.18794770,15.07412670,37.82521470
0.82330366,-0.19996663,-0.78412397

>  <Name>
2f4s_lig

>  <RI>
0

>  <Rbt.Current_Directory>
/home/itssahil/PROJECTS/Mol_Feturizer/New_Systems/rnas/2f4s

>  <Rbt.Executable>
rbdock ($Id: //depot/dev/client3/rdock/2013.1/src/exe/rbdock.cxx#4 $)

>  <Rbt.Library>
libRbt.so (2013.1, Build901 2013/11/27)

>  <Rbt.Parameter_File>
/export/apps/rDock/src/rDock_2013.1_src/data/scripts/dock_solv.prm

>  <Rbt.Receptor>
prm/pocket_docking_2.prm

>  <SCORE>
-8.55727

>  <SCORE.INTER>
-11.5313

>  <SCORE.INTER.CONST>
1

>  <SCORE.INTER.POLAR>
-0.979796

>  <SCORE.INTER.ROT>
3

>  <SCORE.INTER.SOLV>
11.0571

>  <SCORE.INTER.VDW>
-13.7073

>  <SCORE.INTER.norm>
-0.524152

>  <SCORE.INTRA>
2.95876

>  <SCORE.INTRA.DIHEDRAL>
-0.680452

>  <SCORE.INTRA.DIHEDRAL.0>
1.67653

>  <SCORE.INTRA.POLAR>
0

>  <SCORE.INTRA.POLAR.0>
0

>  <SCORE.INTRA.REPUL>
0

>  <SCORE.INTRA.REPUL.0>
0

>  <SCORE.INTRA.SOLV>
4.43193

>  <SCORE.INTRA.SOLV.lig_0>
-76.6701

>  <SCORE.INTRA.VDW>
1.08301

>  <SCORE.INTRA.VDW.0>
-1.53273

>  <SCORE.INTRA.norm>
0.134489

>  <SCORE.RESTR>
0.0153146

>  <SCORE.RESTR.CAVITY>
0.0153146

>  <SCORE.RESTR.norm>
0.000696119

>  <SCORE.SYSTEM>
0

>  <SCORE.SYSTEM.CONST>
0

>  <SCORE.SYSTEM.DIHEDRAL>
0

>  <SCORE.SYSTEM.SOLV>
0

>  <SCORE.SYSTEM.norm>
0

>  <SCORE.heavy>
22

>  <SCORE.norm>
-0.388967

>  <RMSD>
2.304

$$$$
2f4s_lig
 OpenBabel11021811433D
libRbt.so/2013.1/901 2013/11/27
 22 23  0  0  0  0  0  0  0  0999 V2000
   25.7946   18.6504   35.2826 N   0  0  0  0  0  0  0  0  0  0  0  0
   22.0649   15.3170   34.8906 N   0  0  0  0  0  0  0  0  0  0  0  0
   22.3325   10.8329   39.8365 N   0  0  0  0  0  0  0  0  0  0  0  0
   24.0138   16.4607   39.3497 O   0  0  0  0  0  0  0  0  0  0  0  0
   24.2750   16.2649   37.9298 C   0  0  2  0  0  0  0  0  0  0  0  0
   19.9385   16.0359   36.6589 N   0  0  0  0  0  0  0  0  0  0  0  0
   26.1034   17.9124   37.9935 O   0  0  0  0  0  0  0  0  0  0  0  0
   24.8916   17.5535   37.3193 C   0  0  1  0  0  0  0  0  0  0  0  0
   22.4309   14.6697   37.6778 O   0  0  0  0  0  0  0  0  0  0  0  0
   25.2050   17.3720   35.8391 C   0  0  1  0  0  0  0  0  0  0  0  0
   21.2408   12.6945   37.8429 O   0  0  0  0  0  0  0  0  0  0  0  0
   23.8956   16.9943   35.0673 C   0  0  0  0  0  0  0  0  0  0  0  0
   19.3600   13.5723   40.8723 O   0  0  0  0  0  0  0  0  0  0  0  0
   23.3162   15.6634   35.6839 C   0  0  1  0  0  0  0  0  0  0  0  0
   18.3716   15.4768   38.9998 O   0  0  0  0  0  0  0  0  0  0  0  0
   22.9472   15.8870   37.1618 C   0  0  2  0  0  0  0  0  0  0  0  0
   21.3388   13.9829   37.0928 C   0  0  1  0  0  0  0  0  0  0  0  0
   20.9735   12.7960   39.3055 C   0  0  2  0  0  0  0  0  0  0  0  0
   20.9389   11.3802   39.8892 C   0  0  0  0  0  0  0  0  0  0  0  0
   19.6305   13.4651   39.4949 C   0  0  2  0  0  0  0  0  0  0  0  0
   19.6441   14.8412   38.8315 C   0  0  1  0  0  0  0  0  0  0  0  0
   19.9537   14.6829   37.3225 C   0  0  1  0  0  0  0  0  0  0  0  0
  5  4  1  1  0  0  0
  5  8  1  0  0  0  0
  5 16  1  0  0  0  0
  8  7  1  1  0  0  0
  8 10  1  0  0  0  0
 10  1  1  6  0  0  0
 10 12  1  0  0  0  0
 11 18  1  0  0  0  0
 12 14  1  0  0  0  0
 14  2  1  6  0  0  0
 14 16  1  0  0  0  0
 16  9  1  1  0  0  0
 17  9  1  1  0  0  0
 17 11  1  0  0  0  0
 17 22  1  0  0  0  0
 18 19  1  6  0  0  0
 18 20  1  0  0  0  0
 19  3  1  0  0  0  0
 20 13  1  1  0  0  0
 20 21  1  0  0  0  0
 21 15  1  6  0  0  0
 21 22  1  0  0  0  0
 22  6  1  6  0  0  0
M  END
>  <CHROM.1>
-172.19865035,173.39410974,69.15494204,22.20046896,15.11008237,37.78773602
0.81214544,-0.20941870,-0.79615988

>  <Name>
2f4s_lig

>  <RI>
0

>  <Rbt.Current_Directory>
/home/itssahil/PROJECTS/Mol_Feturizer/New_Systems/rnas/2f4s

>  <Rbt.Executable>
rbdock ($Id: //depot/dev/client3/rdock/2013.1/src/exe/rbdock.cxx#4 $)

>  <Rbt.Library>
libRbt.so (2013.1, Build901 2013/11/27)

>  <Rbt.Parameter_File>
/export/apps/rDock/src/rDock_2013.1_src/data/scripts/dock_solv.prm

>  <Rbt.Receptor>
prm/pocket_docking_2.prm

>  <SCORE>
-8.50663

>  <SCORE.INTER>
-11.3492

>  <SCORE.INTER.CONST>
1

>  <SCORE.INTER.POLAR>
-0.979796

>  <SCORE.INTER.ROT>
3

>  <SCORE.INTER.SOLV>
11.113

>  <SCORE.INTER.VDW>
-13.6045

>  <SCORE.INTER.norm>
-0.515873

>  <SCORE.INTRA>
2.82727

>  <SCORE.INTRA.DIHEDRAL>
-0.714035

>  <SCORE.INTRA.DIHEDRAL.0>
1.67653

>  <SCORE.INTRA.POLAR>
0

>  <SCORE.INTRA.POLAR.0>
0

>  <SCORE.INTRA.REPUL>
0

>  <SCORE.INTRA.REPUL.0>
0

>  <SCORE.INTRA.SOLV>
4.36425

>  <SCORE.INTRA.SOLV.lig_0>
-76.6701

>  <SCORE.INTRA.VDW>
1.00216

>  <SCORE.INTRA.VDW.0>
-1.53273

>  <SCORE.INTRA.norm>
0.128512

>  <SCORE.RESTR>
0.0153041

>  <SCORE.RESTR.CAVITY>
0.0153041

>  <SCORE.RESTR.norm>
0.000695639

>  <SCORE.SYSTEM>
0

>  <SCORE.SYSTEM.CONST>
0

>  <SCORE.SYSTEM.DIHEDRAL>
0

>  <SCORE.SYSTEM.SOLV>
0

>  <SCORE.SYSTEM.norm>
0

>  <SCORE.heavy>
22

>  <SCORE.norm>
-0.386665

>  <RMSD>
2.311

$$$$
2f4s_lig
 OpenBabel11021811433D
libRbt.so/2013.1/901 2013/11/27
 22 23  0  0  0  0  0  0  0  0999 V2000
   24.1597   17.9991   33.6916 N   0  0  0  0  0  0  0  0  0  0  0  0
   20.9764   14.1563   34.2169 N   0  0  0  0  0  0  0  0  0  0  0  0
   21.5296   10.5242   39.2120 N   0  0  0  0  0  0  0  0  0  0  0  0
   22.5438   16.7410   38.1986 O   0  0  0  0  0  0  0  0  0  0  0  0
   22.8917   16.2121   36.8863 C   0  0  2  0  0  0  0  0  0  0  0  0
   18.5689   15.4306   36.4313 N   0  0  0  0  0  0  0  0  0  0  0  0
   24.4558   18.0741   36.5015 O   0  0  0  0  0  0  0  0  0  0  0  0
   23.3395   17.3670   35.9486 C   0  0  1  0  0  0  0  0  0  0  0  0
   21.3126   14.3469   37.0757 O   0  0  0  0  0  0  0  0  0  0  0  0
   23.7395   16.8435   34.5746 C   0  0  1  0  0  0  0  0  0  0  0  0
   20.3338   12.3666   37.7581 O   0  0  0  0  0  0  0  0  0  0  0  0
   22.5336   16.0774   33.9327 C   0  0  0  0  0  0  0  0  0  0  0  0
   19.0471   13.6016   40.9682 O   0  0  0  0  0  0  0  0  0  0  0  0
   22.1285   14.8897   34.8879 C   0  0  1  0  0  0  0  0  0  0  0  0
   17.5575   15.1575   39.1053 O   0  0  0  0  0  0  0  0  0  0  0  0
   21.6675   15.4441   36.2481 C   0  0  2  0  0  0  0  0  0  0  0  0
   20.1795   13.5314   36.8352 C   0  0  1  0  0  0  0  0  0  0  0  0
   20.3625   12.6736   39.2162 C   0  0  2  0  0  0  0  0  0  0  0  0
   20.5544   11.3611   39.9821 C   0  0  0  0  0  0  0  0  0  0  0  0
   19.0393   13.3018   39.5927 C   0  0  2  0  0  0  0  0  0  0  0  0
   18.8136   14.5623   38.7596 C   0  0  1  0  0  0  0  0  0  0  0  0
   18.8211   14.1942   37.2554 C   0  0  1  0  0  0  0  0  0  0  0  0
  5  4  1  1  0  0  0
  5  8  1  0  0  0  0
  5 16  1  0  0  0  0
  8  7  1  1  0  0  0
  8 10  1  0  0  0  0
 10  1  1  6  0  0  0
 10 12  1  0  0  0  0
 11 18  1  0  0  0  0
 12 14  1  0  0  0  0
 14  2  1  6  0  0  0
 14 16  1  0  0  0  0
 16  9  1  1  0  0  0
 17  9  1  1  0  0  0
 17 11  1  0  0  0  0
 17 22  1  0  0  0  0
 18 19  1  1  0  0  0
 18 20  1  0  0  0  0
 19  3  1  0  0  0  0
 20 13  1  1  0  0  0
 20 21  1  0  0  0  0
 21 15  1  1  0  0  0
 21 22  1  0  0  0  0
 22  6  1  6  0  0  0
M  END
>  <CHROM.1>
174.39134728,169.17703546,39.18275825,21.10751426,14.77259308,37.19622008
-0.82394509,-0.61980143,2.82802359

>  <Name>
2f4s_lig

>  <RI>
0

>  <Rbt.Current_Directory>
/home/itssahil/PROJECTS/Mol_Feturizer/New_Systems/rnas/2f4s

>  <Rbt.Executable>
rbdock ($Id: //depot/dev/client3/rdock/2013.1/src/exe/rbdock.cxx#4 $)

>  <Rbt.Library>
libRbt.so (2013.1, Build901 2013/11/27)

>  <Rbt.Parameter_File>
/export/apps/rDock/src/rDock_2013.1_src/data/scripts/dock_solv.prm

>  <Rbt.Receptor>
prm/pocket_docking_2.prm

>  <SCORE>
-3.82584

>  <SCORE.INTER>
-6.49477

>  <SCORE.INTER.CONST>
1

>  <SCORE.INTER.POLAR>
-0.980529

>  <SCORE.INTER.ROT>
3

>  <SCORE.INTER.SOLV>
19.0277

>  <SCORE.INTER.VDW>
-13.004

>  <SCORE.INTER.norm>
-0.295217

>  <SCORE.INTRA>
2.41328

>  <SCORE.INTRA.DIHEDRAL>
0.584543

>  <SCORE.INTRA.DIHEDRAL.0>
1.67653

>  <SCORE.INTRA.POLAR>
0

>  <SCORE.INTRA.POLAR.0>
0

>  <SCORE.INTRA.REPUL>
0

>  <SCORE.INTRA.REPUL.0>
0

>  <SCORE.INTRA.SOLV>
3.26025

>  <SCORE.INTRA.SOLV.lig_0>
-76.6701

>  <SCORE.INTRA.VDW>
0.490885

>  <SCORE.INTRA.VDW.0>
-1.53273

>  <SCORE.INTRA.norm>
0.109695

>  <SCORE.RESTR>
0.255645

>  <SCORE.RESTR.CAVITY>
0.255645

>  <SCORE.RESTR.norm>
0.0116202

>  <SCORE.SYSTEM>
0

>  <SCORE.SYSTEM.CONST>
0

>  <SCORE.SYSTEM.DIHEDRAL>
0

>  <SCORE.SYSTEM.SOLV>
0

>  <SCORE.SYSTEM.norm>
0

>  <SCORE.heavy>
22

>  <SCORE.norm>
-0.173902

>  <RMSD>
2.336

$$$$
2f4s_lig
 OpenBabel11021811433D
libRbt.so/2013.1/901 2013/11/27
 22 23  0  0  0  0  0  0  0  0999 V2000
   24.9329   18.7769   35.1708 N   0  0  0  0  0  0  0  0  0  0  0  0
   21.3433   15.2717   35.1055 N   0  0  0  0  0  0  0  0  0  0  0  0
   22.4555   10.1220   40.4582 N   0  0  0  0  0  0  0  0  0  0  0  0
   24.0980   16.0345   39.2067 O   0  0  0  0  0  0  0  0  0  0  0  0
   24.0768   16.0162   37.7500 C   0  0  2  0  0  0  0  0  0  0  0  0
   19.5531   15.5730   38.0165 N   0  0  0  0  0  0  0  0  0  0  0  0
   25.8103   17.7621   37.6586 O   0  0  0  0  0  0  0  0  0  0  0  0
   24.5039   17.4025   37.1939 C   0  0  1  0  0  0  0  0  0  0  0  0
   22.2881   14.3421   37.6677 O   0  0  0  0  0  0  0  0  0  0  0  0
   24.5211   17.4085   35.6702 C   0  0  1  0  0  0  0  0  0  0  0  0
   21.3036   12.2510   37.6126 O   0  0  0  0  0  0  0  0  0  0  0  0
   23.1004   17.0348   35.1273 C   0  0  0  0  0  0  0  0  0  0  0  0
   20.6240   11.9958   41.2124 O   0  0  0  0  0  0  0  0  0  0  0  0
   22.7128   15.6083   35.6769 C   0  0  1  0  0  0  0  0  0  0  0  0
   18.9622   14.1822   40.4587 O   0  0  0  0  0  0  0  0  0  0  0  0
   22.6388   15.6406   37.2143 C   0  0  2  0  0  0  0  0  0  0  0  0
   21.0809   13.6960   37.3048 C   0  0  1  0  0  0  0  0  0  0  0  0
   21.5825   11.9105   39.0364 C   0  0  2  0  0  0  0  0  0  0  0  0
   21.8079   10.3987   39.1359 C   0  0  0  0  0  0  0  0  0  0  0  0
   20.3791   12.3080   39.8617 C   0  0  2  0  0  0  0  0  0  0  0  0
   20.1065   13.8009   39.6863 C   0  0  1  0  0  0  0  0  0  0  0  0
   19.8519   14.1060   38.1895 C   0  0  1  0  0  0  0  0  0  0  0  0
  5  4  1  1  0  0  0
  5  8  1  0  0  0  0
  5 16  1  0  0  0  0
  8  7  1  1  0  0  0
  8 10  1  0  0  0  0
 10  1  1  1  0  0  0
 10 12  1  0  0  0  0
 11 18  1  0  0  0  0
 12 14  1  0  0  0  0
 14  2  1  6  0  0  0
 14 16  1  0  0  0  0
 16  9  1  1  0  0  0
 17  9  1  1  0  0  0
 17 11  1  0  0  0  0
 17 22  1  0  0  0  0
 18 19  1  6  0  0  0
 18 20  1  0  0  0  0
 19  3  1  0  0  0  0
 20 13  1  1  0  0  0
 20 21  1  0  0  0  0
 21 15  1  1  0  0  0
 21 22  1  0  0  0  0
 22  6  1  1  0  0  0
M  END
>  <CHROM.1>
-177.09147772,162.45771457,164.34029389,22.17095765,14.60717973,37.97339655
1.04882127,-0.22815197,-0.71437697

>  <Name>
2f4s_lig

>  <RI>
2.46955e+07

>  <Rbt.Current_Directory>
/home/itssahil/PROJECTS/Mol_Feturizer/New_Systems/rnas/2f4s

>  <Rbt.Executable>
rbdock ($Id: //depot/dev/client3/rdock/2013.1/src/exe/rbdock.cxx#4 $)

>  <Rbt.Library>
libRbt.so (2013.1, Build901 2013/11/27)

>  <Rbt.Parameter_File>
/export/apps/rDock/src/rDock_2013.1_src/data/scripts/dock_solv.prm

>  <Rbt.Receptor>
prm/pocket_docking_3.prm

>  <SCORE>
-9.97041

>  <SCORE.INTER>
-13.1872

>  <SCORE.INTER.CONST>
1

>  <SCORE.INTER.POLAR>
-0.979796

>  <SCORE.INTER.ROT>
3

>  <SCORE.INTER.SOLV>
11.3028

>  <SCORE.INTER.VDW>
-14.8931

>  <SCORE.INTER.norm>
-0.599417

>  <SCORE.INTRA>
3.21676

>  <SCORE.INTRA.DIHEDRAL>
0.720895

>  <SCORE.INTRA.DIHEDRAL.0>
1.67653

>  <SCORE.INTRA.POLAR>
0

>  <SCORE.INTRA.POLAR.0>
0

>  <SCORE.INTRA.REPUL>
0

>  <SCORE.INTRA.REPUL.0>
0

>  <SCORE.INTRA.SOLV>
4.06242

>  <SCORE.INTRA.SOLV.lig_0>
-76.6701

>  <SCORE.INTRA.VDW>
0.825104

>  <SCORE.INTRA.VDW.0>
-1.53273

>  <SCORE.INTRA.norm>
0.146217

>  <SCORE.RESTR>
0

>  <SCORE.RESTR.CAVITY>
0

>  <SCORE.RESTR.norm>
0

>  <SCORE.SYSTEM>
0

>  <SCORE.SYSTEM.CONST>
0

>  <SCORE.SYSTEM.DIHEDRAL>
0

>  <SCORE.SYSTEM.SOLV>
0

>  <SCORE.SYSTEM.norm>
0

>  <SCORE.heavy>
22

>  <SCORE.norm>
-0.4532

>  <RMSD>
2.346

$$$$
2f4s_lig
 OpenBabel11021811433D
libRbt.so/2013.1/901 2013/11/27
 22 23  0  0  0  0  0  0  0  0999 V2000
   23.9722   17.8518   33.3754 N   0  0  0  0  0  0  0  0  0  0  0  0
   20.4868   14.3878   34.3896 N   0  0  0  0  0  0  0  0  0  0  0  0
   22.1005   11.0524   39.8879 N   0  0  0  0  0  0  0  0  0  0  0  0
   23.0478   16.5932   38.0731 O   0  0  0  0  0  0  0  0  0  0  0  0
   23.0872   16.0858   36.7079 C   0  0  2  0  0  0  0  0  0  0  0  0
   18.5706   15.2832   36.3488 N   0  0  0  0  0  0  0  0  0  0  0  0
   24.7739   17.7674   36.0845 O   0  0  0  0  0  0  0  0  0  0  0  0
   23.4983   17.2207   35.7299 C   0  0  1  0  0  0  0  0  0  0  0  0
   21.3505   14.4113   37.1420 O   0  0  0  0  0  0  0  0  0  0  0  0
   23.5782   16.7153   34.2946 C   0  0  1  0  0  0  0  0  0  0  0  0
   20.4817   12.3830   37.8320 O   0  0  0  0  0  0  0  0  0  0  0  0
   22.1919   16.1245   33.8677 C   0  0  0  0  0  0  0  0  0  0  0  0
   18.9659   13.5973   40.9486 O   0  0  0  0  0  0  0  0  0  0  0  0
   21.8217   14.9512   34.8543 C   0  0  1  0  0  0  0  0  0  0  0  0
   17.4588   15.0008   38.9816 O   0  0  0  0  0  0  0  0  0  0  0  0
   21.6835   15.4950   36.2879 C   0  0  2  0  0  0  0  0  0  0  0  0
   20.2892   13.5124   36.8730 C   0  0  1  0  0  0  0  0  0  0  0  0
   20.4218   12.7247   39.2813 C   0  0  2  0  0  0  0  0  0  0  0  0
   20.6693   11.4469   40.0891 C   0  0  0  0  0  0  0  0  0  0  0  0
   19.0422   13.2662   39.5824 C   0  0  2  0  0  0  0  0  0  0  0  0
   18.7678   14.4881   38.7075 C   0  0  1  0  0  0  0  0  0  0  0  0
   18.8701   14.0870   37.2152 C   0  0  1  0  0  0  0  0  0  0  0  0
  5  4  1  1  0  0  0
  5  8  1  0  0  0  0
  5 16  1  0  0  0  0
  8  7  1  1  0  0  0
  8 10  1  0  0  0  0
 10  1  1  6  0  0  0
 10 12  1  0  0  0  0
 11 18  1  0  0  0  0
 12 14  1  0  0  0  0
 14  2  1  6  0  0  0
 14 16  1  0  0  0  0
 16  9  1  1  0  0  0
 17  9  1  1  0  0  0
 17 11  1  0  0  0  0
 17 22  1  0  0  0  0
 18 19  1  1  0  0  0
 18 20  1  0  0  0  0
 19  3  1  0  0  0  0
 20 13  1  1  0  0  0
 20 21  1  0  0  0  0
 21 15  1  6  0  0  0
 21 22  1  0  0  0  0
 22  6  1  6  0  0  0
M  END
>  <CHROM.1>
-167.54242075,167.81531531,68.94914480,21.13847233,14.75214739,37.16214880
0.99110371,-0.14700731,-0.95568988

>  <Name>
2f4s_lig

>  <RI>
0

>  <Rbt.Current_Directory>
/home/itssahil/PROJECTS/Mol_Feturizer/New_Systems/rnas/2f4s

>  <Rbt.Executable>
rbdock ($Id: //depot/dev/client3/rdock/2013.1/src/exe/rbdock.cxx#4 $)

>  <Rbt.Library>
libRbt.so (2013.1, Build901 2013/11/27)

>  <Rbt.Parameter_File>
/export/apps/rDock/src/rDock_2013.1_src/data/scripts/dock_solv.prm

>  <Rbt.Receptor>
prm/pocket_docking_2.prm

>  <SCORE>
-8.10318

>  <SCORE.INTER>
-11.6258

>  <SCORE.INTER.CONST>
1

>  <SCORE.INTER.POLAR>
-0.979796

>  <SCORE.INTER.ROT>
3

>  <SCORE.INTER.SOLV>
13.1275

>  <SCORE.INTER.VDW>
-14.4604

>  <SCORE.INTER.norm>
-0.528444

>  <SCORE.INTRA>
3.52021

>  <SCORE.INTRA.DIHEDRAL>
0.190366

>  <SCORE.INTRA.DIHEDRAL.0>
1.67653

>  <SCORE.INTRA.POLAR>
0

>  <SCORE.INTRA.POLAR.0>
0

>  <SCORE.INTRA.REPUL>
0

>  <SCORE.INTRA.REPUL.0>
0

>  <SCORE.INTRA.SOLV>
4.22435

>  <SCORE.INTRA.SOLV.lig_0>
-76.6701

>  <SCORE.INTRA.VDW>
1.31285

>  <SCORE.INTRA.VDW.0>
-1.53273

>  <SCORE.INTRA.norm>
0.16001

>  <SCORE.RESTR>
0.00237643

>  <SCORE.RESTR.CAVITY>
0.00237643

>  <SCORE.RESTR.norm>
0.000108019

>  <SCORE.SYSTEM>
0

>  <SCORE.SYSTEM.CONST>
0

>  <SCORE.SYSTEM.DIHEDRAL>
0

>  <SCORE.SYSTEM.SOLV>
0

>  <SCORE.SYSTEM.norm>
0

>  <SCORE.heavy>
22

>  <SCORE.norm>
-0.368326

>  <RMSD>
2.361

$$$$
2f4s_lig
 OpenBabel11021811433D
libRbt.so/2013.1/901 2013/11/27
 22 23  0  0  0  0  0  0  0  0999 V2000
   25.0184   17.0368   34.3677 N   0  0  0  0  0  0  0  0  0  0  0  0
   20.2117   16.4771   35.6936 N   0  0  0  0  0  0  0  0  0  0  0  0
   22.7803   10.2143   39.1428 N   0  0  0  0  0  0  0  0  0  0  0  0
   23.8931   15.0846   38.7756 O   0  0  0  0  0  0  0  0  0  0  0  0
   23.4498   15.1925   37.3919 C   0  0  2  0  0  0  0  0  0  0  0  0
   18.2248   14.0117   38.1125 N   0  0  0  0  0  0  0  0  0  0  0  0
   25.7681   15.5140   36.6279 O   0  0  0  0  0  0  0  0  0  0  0  0
   24.4467   16.0649   36.5801 C   0  0  1  0  0  0  0  0  0  0  0  0
   21.0843   14.9745   37.9964 O   0  0  0  0  0  0  0  0  0  0  0  0
   24.0275   16.1735   35.1191 C   0  0  1  0  0  0  0  0  0  0  0  0
   21.7776   12.7825   37.7525 O   0  0  0  0  0  0  0  0  0  0  0  0
   22.5902   16.7891   35.0292 C   0  0  0  0  0  0  0  0  0  0  0  0
   21.2787   11.7774   41.2492 O   0  0  0  0  0  0  0  0  0  0  0  0
   21.5966   15.8615   35.8289 C   0  0  1  0  0  0  0  0  0  0  0  0
   18.6144   12.3474   40.4203 O   0  0  0  0  0  0  0  0  0  0  0  0
   22.0006   15.8167   37.3138 C   0  0  2  0  0  0  0  0  0  0  0  0
   20.6513   13.7268   37.4841 C   0  0  1  0  0  0  0  0  0  0  0  0
   22.1449   12.5759   39.1820 C   0  0  2  0  0  0  0  0  0  0  0  0
   23.3284   11.6052   39.2407 C   0  0  0  0  0  0  0  0  0  0  0  0
   20.9521   11.9788   39.8946 C   0  0  2  0  0  0  0  0  0  0  0  0
   19.7503   12.9116   39.7547 C   0  0  1  0  0  0  0  0  0  0  0  0
   19.4284   13.1158   38.2538 C   0  0  1  0  0  0  0  0  0  0  0  0
  5  4  1  1  0  0  0
  5  8  1  0  0  0  0
  5 16  1  0  0  0  0
  8  7  1  6  0  0  0
  8 10  1  0  0  0  0
 10  1  1  6  0  0  0
 10 12  1  0  0  0  0
 11 18  1  0  0  0  0
 12 14  1  0  0  0  0
 14  2  1  1  0  0  0
 14 16  1  0  0  0  0
 16  9  1  1  0  0  0
 17  9  1  1  0  0  0
 17 11  1  0  0  0  0
 17 22  1  0  0  0  0
 18 19  1  6  0  0  0
 18 20  1  0  0  0  0
 19  3  1  0  0  0  0
 20 13  1  1  0  0  0
 20 21  1  0  0  0  0
 21 15  1  1  0  0  0
 21 22  1  0  0  0  0
 22  6  1  1  0  0  0
M  END
>  <CHROM.1>
-72.90553437,78.01159342,-82.39544581,21.96342324,14.16143219,37.82486291
-1.03931321,-0.06922684,2.41140360

>  <Name>
2f4s_lig

>  <RI>
2.46955e+07

>  <Rbt.Current_Directory>
/home/itssahil/PROJECTS/Mol_Feturizer/New_Systems/rnas/2f4s

>  <Rbt.Executable>
rbdock ($Id: //depot/dev/client3/rdock/2013.1/src/exe/rbdock.cxx#4 $)

>  <Rbt.Library>
libRbt.so (2013.1, Build901 2013/11/27)

>  <Rbt.Parameter_File>
/export/apps/rDock/src/rDock_2013.1_src/data/scripts/dock_solv.prm

>  <Rbt.Receptor>
prm/pocket_docking_3.prm

>  <SCORE>
-8.50973

>  <SCORE.INTER>
-12.3689

>  <SCORE.INTER.CONST>
1

>  <SCORE.INTER.POLAR>
-0.942818

>  <SCORE.INTER.ROT>
3

>  <SCORE.INTER.SOLV>
18.4715

>  <SCORE.INTER.VDW>
-16.8604

>  <SCORE.INTER.norm>
-0.562223

>  <SCORE.INTRA>
3.7591

>  <SCORE.INTRA.DIHEDRAL>
2.30456

>  <SCORE.INTRA.DIHEDRAL.0>
1.67653

>  <SCORE.INTRA.POLAR>
0

>  <SCORE.INTRA.POLAR.0>
0

>  <SCORE.INTRA.REPUL>
0

>  <SCORE.INTRA.REPUL.0>
0

>  <SCORE.INTRA.SOLV>
3.14102

>  <SCORE.INTRA.SOLV.lig_0>
-76.6701

>  <SCORE.INTRA.VDW>
1.03631

>  <SCORE.INTRA.VDW.0>
-1.53273

>  <SCORE.INTRA.norm>
0.170868

>  <SCORE.RESTR>
0.100076

>  <SCORE.RESTR.CAVITY>
0.100076

>  <SCORE.RESTR.norm>
0.00454889

>  <SCORE.SYSTEM>
0

>  <SCORE.SYSTEM.CONST>
0

>  <SCORE.SYSTEM.DIHEDRAL>
0

>  <SCORE.SYSTEM.SOLV>
0

>  <SCORE.SYSTEM.norm>
0

>  <SCORE.heavy>
22

>  <SCORE.norm>
-0.386806

>  <RMSD>
2.377

$$$$
2f4s_lig
 OpenBabel11021811433D
libRbt.so/2013.1/901 2013/11/27
 22 23  0  0  0  0  0  0  0  0999 V2000
   24.6831   18.9871   35.3769 N   0  0  0  0  0  0  0  0  0  0  0  0
   21.1645   15.4118   35.2649 N   0  0  0  0  0  0  0  0  0  0  0  0
   22.4774   10.0886   40.4559 N   0  0  0  0  0  0  0  0  0  0  0  0
   24.1040   15.9820   39.2680 O   0  0  0  0  0  0  0  0  0  0  0  0
   24.0108   16.0533   37.8157 C   0  0  2  0  0  0  0  0  0  0  0  0
   19.5063   15.5378   38.1052 N   0  0  0  0  0  0  0  0  0  0  0  0
   25.7028   17.8406   37.7507 O   0  0  0  0  0  0  0  0  0  0  0  0
   24.3823   17.4808   37.3280 C   0  0  1  0  0  0  0  0  0  0  0  0
   22.2536   14.3473   37.7149 O   0  0  0  0  0  0  0  0  0  0  0  0
   24.3237   17.5814   35.8086 C   0  0  1  0  0  0  0  0  0  0  0  0
   21.2955   12.2445   37.6398 O   0  0  0  0  0  0  0  0  0  0  0  0
   22.8854   17.2097   35.3125 C   0  0  0  0  0  0  0  0  0  0  0  0
   20.6522   11.9312   41.2417 O   0  0  0  0  0  0  0  0  0  0  0  0
   22.5538   15.7435   35.7895 C   0  0  1  0  0  0  0  0  0  0  0  0
   18.9557   14.1061   40.5332 O   0  0  0  0  0  0  0  0  0  0  0  0
   22.5557   15.6790   37.3276 C   0  0  2  0  0  0  0  0  0  0  0  0
   21.0515   13.6906   37.3539 C   0  0  1  0  0  0  0  0  0  0  0  0
   21.5918   11.8882   39.0562 C   0  0  2  0  0  0  0  0  0  0  0  0
   21.8375   10.3782   39.1327 C   0  0  0  0  0  0  0  0  0  0  0  0
   20.3910   12.2588   39.8976 C   0  0  2  0  0  0  0  0  0  0  0  0
   20.0977   13.7503   39.7453 C   0  0  1  0  0  0  0  0  0  0  0  0
   19.8255   14.0725   38.2553 C   0  0  1  0  0  0  0  0  0  0  0  0
  5  4  1  1  0  0  0
  5  8  1  0  0  0  0
  5 16  1  0  0  0  0
  8  7  1  6  0  0  0
  8 10  1  0  0  0  0
 10  1  1  1  0  0  0
 10 12  1  0  0  0  0
 11 18  1  0  0  0  0
 12 14  1  0  0  0  0
 14  2  1  1  0  0  0
 14 16  1  0  0  0  0
 16  9  1  6  0  0  0
 17  9  1  1  0  0  0
 17 11  1  0  0  0  0
 17 22  1  0  0  0  0
 18 19  1  6  0  0  0
 18 20  1  0  0  0  0
 19  3  1  0  0  0  0
 20 13  1  1  0  0  0
 20 21  1  0  0  0  0
 21 15  1  1  0  0  0
 21 22  1  0  0  0  0
 22  6  1  1  0  0  0
M  END
>  <CHROM.1>
-176.11614164,165.47444327,165.37630081,22.10764516,14.63352769,38.05241174
1.07964380,-0.22816414,-0.67412050

>  <Name>
2f4s_lig

>  <RI>
2.46955e+07

>  <Rbt.Current_Directory>
/home/itssahil/PROJECTS/Mol_Feturizer/New_Systems/rnas/2f4s

>  <Rbt.Executable>
rbdock ($Id: //depot/dev/client3/rdock/2013.1/src/exe/rbdock.cxx#4 $)

>  <Rbt.Library>
libRbt.so (2013.1, Build901 2013/11/27)

>  <Rbt.Parameter_File>
/export/apps/rDock/src/rDock_2013.1_src/data/scripts/dock_solv.prm

>  <Rbt.Receptor>
prm/pocket_docking_3.prm

>  <SCORE>
-9.83242

>  <SCORE.INTER>
-13.0309

>  <SCORE.INTER.CONST>
1

>  <SCORE.INTER.POLAR>
-0.979796

>  <SCORE.INTER.ROT>
3

>  <SCORE.INTER.SOLV>
10.3114

>  <SCORE.INTER.VDW>
-14.4584

>  <SCORE.INTER.norm>
-0.592313

>  <SCORE.INTRA>
3.1968

>  <SCORE.INTRA.DIHEDRAL>
0.242997

>  <SCORE.INTRA.DIHEDRAL.0>
1.67653

>  <SCORE.INTRA.POLAR>
0

>  <SCORE.INTRA.POLAR.0>
0

>  <SCORE.INTRA.REPUL>
0

>  <SCORE.INTRA.REPUL.0>
0

>  <SCORE.INTRA.SOLV>
4.37218

>  <SCORE.INTRA.SOLV.lig_0>
-76.6701

>  <SCORE.INTRA.VDW>
0.889209

>  <SCORE.INTRA.VDW.0>
-1.53273

>  <SCORE.INTRA.norm>
0.145309

>  <SCORE.RESTR>
0.0016606

>  <SCORE.RESTR.CAVITY>
0.0016606

>  <SCORE.RESTR.norm>
7.54817e-05

>  <SCORE.SYSTEM>
0

>  <SCORE.SYSTEM.CONST>
0

>  <SCORE.SYSTEM.DIHEDRAL>
0

>  <SCORE.SYSTEM.SOLV>
0

>  <SCORE.SYSTEM.norm>
0

>  <SCORE.heavy>
22

>  <SCORE.norm>
-0.446928

>  <RMSD>
2.384

$$$$
2f4s_lig
 OpenBabel11021811433D
libRbt.so/2013.1/901 2013/11/27
 22 23  0  0  0  0  0  0  0  0999 V2000
   25.3637   17.0102   34.6211 N   0  0  0  0  0  0  0  0  0  0  0  0
   20.4974   16.0983   35.4354 N   0  0  0  0  0  0  0  0  0  0  0  0
   23.9201   11.3864   40.2706 N   0  0  0  0  0  0  0  0  0  0  0  0
   23.8476   15.5678   39.1075 O   0  0  0  0  0  0  0  0  0  0  0  0
   23.5856   15.4337   37.6806 C   0  0  2  0  0  0  0  0  0  0  0  0
   18.2867   14.2424   38.2493 N   0  0  0  0  0  0  0  0  0  0  0  0
   25.9444   15.9071   37.1579 O   0  0  0  0  0  0  0  0  0  0  0  0
   24.5952   16.2933   36.8709 C   0  0  1  0  0  0  0  0  0  0  0  0
   21.1917   15.0349   38.0255 O   0  0  0  0  0  0  0  0  0  0  0  0
   24.3673   16.1520   35.3709 C   0  0  1  0  0  0  0  0  0  0  0  0
   21.7275   12.8260   37.6025 O   0  0  0  0  0  0  0  0  0  0  0  0
   22.9032   16.5829   35.0191 C   0  0  0  0  0  0  0  0  0  0  0  0
   21.3579   11.6211   41.0518 O   0  0  0  0  0  0  0  0  0  0  0  0
   21.9037   15.6677   35.8256 C   0  0  1  0  0  0  0  0  0  0  0  0
   18.6945   12.4065   40.4198 O   0  0  0  0  0  0  0  0  0  0  0  0
   22.1075   15.8734   37.3377 C   0  0  2  0  0  0  0  0  0  0  0  0
   20.6515   13.8530   37.4617 C   0  0  1  0  0  0  0  0  0  0  0  0
   22.1588   12.5020   38.9918 C   0  0  2  0  0  0  0  0  0  0  0  0
   23.2785   11.4593   38.9188 C   0  0  0  0  0  0  0  0  0  0  0  0
   20.9709   11.9323   39.7345 C   0  0  2  0  0  0  0  0  0  0  0  0
   19.8261   12.9438   39.7253 C   0  0  1  0  0  0  0  0  0  0  0  0
   19.4359   13.2674   38.2620 C   0  0  1  0  0  0  0  0  0  0  0  0
  5  4  1  1  0  0  0
  5  8  1  0  0  0  0
  5 16  1  0  0  0  0
  8  7  1  6  0  0  0
  8 10  1  0  0  0  0
 10  1  1  6  0  0  0
 10 12  1  0  0  0  0
 11 18  1  0  0  0  0
 12 14  1  0  0  0  0
 14  2  1  6  0  0  0
 14 16  1  0  0  0  0
 16  9  1  1  0  0  0
 17  9  1  1  0  0  0
 17 11  1  0  0  0  0
 17 22  1  0  0  0  0
 18 19  1  6  0  0  0
 18 20  1  0  0  0  0
 19  3  1  0  0  0  0
 20 13  1  1  0  0  0
 20 21  1  0  0  0  0
 21 15  1  1  0  0  0
 21 22  1  0  0  0  0
 22  6  1  1  0  0  0
M  END
>  <CHROM.1>
-92.08054202,78.90995353,166.70494619,22.12439728,14.25707806,37.91394631
-0.98111472,0.04093087,2.35588142

>  <Name>
2f4s_lig

>  <RI>
0

>  <Rbt.Current_Directory>
/home/itssahil/PROJECTS/Mol_Feturizer/New_Systems/rnas/2f4s

>  <Rbt.Executable>
rbdock ($Id: //depot/dev/client3/rdock/2013.1/src/exe/rbdock.cxx#4 $)

>  <Rbt.Library>
libRbt.so (2013.1, Build901 2013/11/27)

>  <Rbt.Parameter_File>
/export/apps/rDock/src/rDock_2013.1_src/data/scripts/dock_solv.prm

>  <Rbt.Receptor>
prm/pocket_docking_2.prm

>  <SCORE>
-7.50688

>  <SCORE.INTER>
-12.9792

>  <SCORE.INTER.CONST>
1

>  <SCORE.INTER.POLAR>
-0.936695

>  <SCORE.INTER.ROT>
3

>  <SCORE.INTER.SOLV>
16.0432

>  <SCORE.INTER.VDW>
-16.4783

>  <SCORE.INTER.norm>
-0.589965

>  <SCORE.INTRA>
4.55697

>  <SCORE.INTRA.DIHEDRAL>
4.61472

>  <SCORE.INTRA.DIHEDRAL.0>
1.67653

>  <SCORE.INTRA.POLAR>
0

>  <SCORE.INTRA.POLAR.0>
0

>  <SCORE.INTRA.REPUL>
0

>  <SCORE.INTRA.REPUL.0>
0

>  <SCORE.INTRA.SOLV>
2.28406

>  <SCORE.INTRA.SOLV.lig_0>
-76.6701

>  <SCORE.INTRA.VDW>
1.10758

>  <SCORE.INTRA.VDW.0>
-1.53273

>  <SCORE.INTRA.norm>
0.207135

>  <SCORE.RESTR>
0.915382

>  <SCORE.RESTR.CAVITY>
0.915382

>  <SCORE.RESTR.norm>
0.0416083

>  <SCORE.SYSTEM>
0

>  <SCORE.SYSTEM.CONST>
0

>  <SCORE.SYSTEM.DIHEDRAL>
0

>  <SCORE.SYSTEM.SOLV>
0

>  <SCORE.SYSTEM.norm>
0

>  <SCORE.heavy>
22

>  <SCORE.norm>
-0.341222

>  <RMSD>
2.415

$$$$
2f4s_lig
 OpenBabel11021811433D
libRbt.so/2013.1/901 2013/11/27
 22 23  0  0  0  0  0  0  0  0999 V2000
   23.6792   19.2041   34.1011 N   0  0  0  0  0  0  0  0  0  0  0  0
   21.3959   14.7367   34.0353 N   0  0  0  0  0  0  0  0  0  0  0  0
   21.7930   11.3687   40.4110 N   0  0  0  0  0  0  0  0  0  0  0  0
   21.4878   17.5001   38.2000 O   0  0  0  0  0  0  0  0  0  0  0  0
   22.2088   17.0966   37.0000 C   0  0  2  0  0  0  0  0  0  0  0  0
   18.1108   15.3395   36.5551 N   0  0  0  0  0  0  0  0  0  0  0  0
   23.3629   19.2695   36.9091 O   0  0  0  0  0  0  0  0  0  0  0  0
   22.5718   18.3463   36.1515 C   0  0  1  0  0  0  0  0  0  0  0  0
   21.0817   14.9223   36.8968 O   0  0  0  0  0  0  0  0  0  0  0  0
   23.3541   17.9612   34.9018 C   0  0  1  0  0  0  0  0  0  0  0  0
   20.7079   12.6480   37.0787 O   0  0  0  0  0  0  0  0  0  0  0  0
   22.5093   16.9630   34.0400 C   0  0  0  0  0  0  0  0  0  0  0  0
   19.3786   12.6985   40.5016 O   0  0  0  0  0  0  0  0  0  0  0  0
   22.1907   15.6903   34.9151 C   0  0  1  0  0  0  0  0  0  0  0  0
   17.4026   14.1829   39.0865 O   0  0  0  0  0  0  0  0  0  0  0  0
   21.3462   16.0923   36.1380 C   0  0  2  0  0  0  0  0  0  0  0  0
   20.1874   13.9097   36.4707 C   0  0  1  0  0  0  0  0  0  0  0  0
   20.7606   12.6005   38.5673 C   0  0  2  0  0  0  0  0  0  0  0  0
   21.3446   11.2479   38.9866 C   0  0  0  0  0  0  0  0  0  0  0  0
   19.3500   12.7391   39.0946 C   0  0  2  0  0  0  0  0  0  0  0  0
   18.7423   14.0496   38.5976 C   0  0  1  0  0  0  0  0  0  0  0  0
   18.7370   14.0608   37.0491 C   0  0  1  0  0  0  0  0  0  0  0  0
  5  4  1  1  0  0  0
  5  8  1  0  0  0  0
  5 16  1  0  0  0  0
  8  7  1  1  0  0  0
  8 10  1  0  0  0  0
 10  1  1  6  0  0  0
 10 12  1  0  0  0  0
 11 18  1  0  0  0  0
 12 14  1  0  0  0  0
 14  2  1  6  0  0  0
 14 16  1  0  0  0  0
 16  9  1  1  0  0  0
 17  9  1  1  0  0  0
 17 11  1  0  0  0  0
 17 22  1  0  0  0  0
 18 19  1  6  0  0  0
 18 20  1  0  0  0  0
 19  3  1  0  0  0  0
 20 13  1  1  0  0  0
 20 21  1  0  0  0  0
 21 15  1  1  0  0  0
 21 22  1  0  0  0  0
 22  6  1  1  0  0  0
M  END
>  <CHROM.1>
171.45304148,150.81827484,162.42367721,20.97191156,15.11823920,37.12252241
-1.04954457,-0.52334734,2.80537822

>  <Name>
2f4s_lig

>  <RI>
0

>  <Rbt.Current_Directory>
/home/itssahil/PROJECTS/Mol_Feturizer/New_Systems/rnas/2f4s

>  <Rbt.Executable>
rbdock ($Id: //depot/dev/client3/rdock/2013.1/src/exe/rbdock.cxx#4 $)

>  <Rbt.Library>
libRbt.so (2013.1, Build901 2013/11/27)

>  <Rbt.Parameter_File>
/export/apps/rDock/src/rDock_2013.1_src/data/scripts/dock_solv.prm

>  <Rbt.Receptor>
prm/pocket_docking_4.prm

>  <SCORE>
-9.34687

>  <SCORE.INTER>
-12.5727

>  <SCORE.INTER.CONST>
1

>  <SCORE.INTER.POLAR>
-1.17568

>  <SCORE.INTER.ROT>
3

>  <SCORE.INTER.SOLV>
12.2138

>  <SCORE.INTER.VDW>
-14.1341

>  <SCORE.INTER.norm>
-0.571487

>  <SCORE.INTRA>
3.22585

>  <SCORE.INTRA.DIHEDRAL>
3.1961

>  <SCORE.INTRA.DIHEDRAL.0>
1.67653

>  <SCORE.INTRA.POLAR>
0

>  <SCORE.INTRA.POLAR.0>
0

>  <SCORE.INTRA.REPUL>
0

>  <SCORE.INTRA.REPUL.0>
0

>  <SCORE.INTRA.SOLV>
2.56807

>  <SCORE.INTRA.SOLV.lig_0>
-76.6701

>  <SCORE.INTRA.VDW>
0.343769

>  <SCORE.INTRA.VDW.0>
-1.53273

>  <SCORE.INTRA.norm>
0.14663

>  <SCORE.RESTR>
0

>  <SCORE.RESTR.CAVITY>
0

>  <SCORE.RESTR.norm>
0

>  <SCORE.SYSTEM>
0

>  <SCORE.SYSTEM.CONST>
0

>  <SCORE.SYSTEM.DIHEDRAL>
0

>  <SCORE.SYSTEM.SOLV>
0

>  <SCORE.SYSTEM.norm>
0

>  <SCORE.heavy>
22

>  <SCORE.norm>
-0.424858

>  <RMSD>
2.467

$$$$
2f4s_lig
 OpenBabel11021811433D
libRbt.so/2013.1/901 2013/11/27
 22 23  0  0  0  0  0  0  0  0999 V2000
   23.6834   18.9074   33.9447 N   0  0  0  0  0  0  0  0  0  0  0  0
   21.3093   14.4883   34.0485 N   0  0  0  0  0  0  0  0  0  0  0  0
   21.1966   11.5970   40.9969 N   0  0  0  0  0  0  0  0  0  0  0  0
   21.7876   17.2321   38.1998 O   0  0  0  0  0  0  0  0  0  0  0  0
   22.4030   16.8187   36.9455 C   0  0  2  0  0  0  0  0  0  0  0  0
   18.3387   15.3160   36.3259 N   0  0  0  0  0  0  0  0  0  0  0  0
   23.5913   18.9677   36.7690 O   0  0  0  0  0  0  0  0  0  0  0  0
   22.7238   18.0642   36.0741 C   0  0  1  0  0  0  0  0  0  0  0  0
   21.2261   14.6686   36.9264 O   0  0  0  0  0  0  0  0  0  0  0  0
   23.3967   17.6682   34.7655 C   0  0  1  0  0  0  0  0  0  0  0  0
   20.6042   12.4944   37.4074 O   0  0  0  0  0  0  0  0  0  0  0  0
   22.4658   16.6911   33.9707 C   0  0  0  0  0  0  0  0  0  0  0  0
   19.1071   13.1865   40.6885 O   0  0  0  0  0  0  0  0  0  0  0  0
   22.1909   15.4217   34.8651 C   0  0  1  0  0  0  0  0  0  0  0  0
   17.3779   14.6264   38.9430 O   0  0  0  0  0  0  0  0  0  0  0  0
   21.4542   15.8360   36.1519 C   0  0  2  0  0  0  0  0  0  0  0  0
   20.2536   13.6951   36.5901 C   0  0  1  0  0  0  0  0  0  0  0  0
   20.5722   12.6659   38.8874 C   0  0  2  0  0  0  0  0  0  0  0  0
   20.9863   11.3413   39.5358 C   0  0  0  0  0  0  0  0  0  0  0  0
   19.1580   13.0182   39.2917 C   0  0  2  0  0  0  0  0  0  0  0  0
   18.7201   14.2920   38.5710 C   0  0  1  0  0  0  0  0  0  0  0  0
   18.7985   14.0712   37.0403 C   0  0  1  0  0  0  0  0  0  0  0  0
  5  4  1  1  0  0  0
  5  8  1  0  0  0  0
  5 16  1  0  0  0  0
  8  7  1  1  0  0  0
  8 10  1  0  0  0  0
 10  1  1  6  0  0  0
 10 12  1  0  0  0  0
 11 18  1  0  0  0  0
 12 14  1  0  0  0  0
 14  2  1  6  0  0  0
 14 16  1  0  0  0  0
 16  9  1  1  0  0  0
 17  9  1  1  0  0  0
 17 11  1  0  0  0  0
 17 22  1  0  0  0  0
 18 19  1  1  0  0  0
 18 20  1  0  0  0  0
 19  3  1  0  0  0  0
 20 13  1  1  0  0  0
 20 21  1  0  0  0  0
 21 15  1  6  0  0  0
 21 22  1  0  0  0  0
 22  6  1  6  0  0  0
M  END
>  <CHROM.1>
169.60426810,164.43116248,169.64570091,20.95677858,15.05069971,37.17980209
-0.80242886,0.84334564,1.80509083

>  <Name>
2f4s_lig

>  <RI>
2.46955e+07

>  <Rbt.Current_Directory>
/home/itssahil/PROJECTS/Mol_Feturizer/New_Systems/rnas/2f4s

>  <Rbt.Executable>
rbdock ($Id: //depot/dev/client3/rdock/2013.1/src/exe/rbdock.cxx#4 $)

>  <Rbt.Library>
libRbt.so (2013.1, Build901 2013/11/27)

>  <Rbt.Parameter_File>
/export/apps/rDock/src/rDock_2013.1_src/data/scripts/dock_solv.prm

>  <Rbt.Receptor>
prm/pocket_docking_3.prm

>  <SCORE>
-9.48038

>  <SCORE.INTER>
-11.8534

>  <SCORE.INTER.CONST>
1

>  <SCORE.INTER.POLAR>
-1.10857

>  <SCORE.INTER.ROT>
3

>  <SCORE.INTER.SOLV>
13.3384

>  <SCORE.INTER.VDW>
-14.2532

>  <SCORE.INTER.norm>
-0.538793

>  <SCORE.INTRA>
2.37306

>  <SCORE.INTRA.DIHEDRAL>
0.464894

>  <SCORE.INTRA.DIHEDRAL.0>
1.67653

>  <SCORE.INTRA.POLAR>
0

>  <SCORE.INTRA.POLAR.0>
0

>  <SCORE.INTRA.REPUL>
0

>  <SCORE.INTRA.REPUL.0>
0

>  <SCORE.INTRA.SOLV>
3.48072

>  <SCORE.INTRA.SOLV.lig_0>
-76.6701

>  <SCORE.INTRA.VDW>
0.400251

>  <SCORE.INTRA.VDW.0>
-1.53273

>  <SCORE.INTRA.norm>
0.107866

>  <SCORE.RESTR>
0

>  <SCORE.RESTR.CAVITY>
0

>  <SCORE.RESTR.norm>
0

>  <SCORE.SYSTEM>
0

>  <SCORE.SYSTEM.CONST>
0

>  <SCORE.SYSTEM.DIHEDRAL>
0

>  <SCORE.SYSTEM.SOLV>
0

>  <SCORE.SYSTEM.norm>
0

>  <SCORE.heavy>
22

>  <SCORE.norm>
-0.430927

>  <RMSD>
2.476

$$$$
2f4s_lig
 OpenBabel11021811433D
libRbt.so/2013.1/901 2013/11/27
 22 23  0  0  0  0  0  0  0  0999 V2000
   23.4615   18.8574   33.8432 N   0  0  0  0  0  0  0  0  0  0  0  0
   21.0697   14.4549   34.1144 N   0  0  0  0  0  0  0  0  0  0  0  0
   22.1565   11.4109   39.8125 N   0  0  0  0  0  0  0  0  0  0  0  0
   21.8133   17.2176   38.2138 O   0  0  0  0  0  0  0  0  0  0  0  0
   22.3498   16.7934   36.9273 C   0  0  2  0  0  0  0  0  0  0  0  0
   18.3380   15.2329   36.0889 N   0  0  0  0  0  0  0  0  0  0  0  0
   23.5391   18.9334   36.6677 O   0  0  0  0  0  0  0  0  0  0  0  0
   22.6257   18.0320   36.0311 C   0  0  1  0  0  0  0  0  0  0  0  0
   21.1602   14.6511   36.9910 O   0  0  0  0  0  0  0  0  0  0  0  0
   23.2165   17.6245   34.6869 C   0  0  1  0  0  0  0  0  0  0  0  0
   20.4807   12.5403   37.6453 O   0  0  0  0  0  0  0  0  0  0  0  0
   22.2334   16.6495   33.9548 C   0  0  0  0  0  0  0  0  0  0  0  0
   18.7256   13.5763   40.7001 O   0  0  0  0  0  0  0  0  0  0  0  0
   22.0045   15.3867   34.8714 C   0  0  1  0  0  0  0  0  0  0  0  0
   17.1590   14.8244   38.6756 O   0  0  0  0  0  0  0  0  0  0  0  0
   21.3489   15.8128   36.1976 C   0  0  2  0  0  0  0  0  0  0  0  0
   20.2096   13.6480   36.6799 C   0  0  1  0  0  0  0  0  0  0  0  0
   20.3288   12.8673   39.0913 C   0  0  2  0  0  0  0  0  0  0  0  0
   20.6759   11.6186   39.9076 C   0  0  0  0  0  0  0  0  0  0  0  0
   18.8895   13.2612   39.3378 C   0  0  2  0  0  0  0  0  0  0  0  0
   18.5241   14.4519   38.4532 C   0  0  1  0  0  0  0  0  0  0  0  0
   18.7260   14.0703   36.9660 C   0  0  1  0  0  0  0  0  0  0  0  0
  5  4  1  1  0  0  0
  5  8  1  0  0  0  0
  5 16  1  0  0  0  0
  8  7  1  1  0  0  0
  8 10  1  0  0  0  0
 10  1  1  6  0  0  0
 10 12  1  0  0  0  0
 11 18  1  0  0  0  0
 12 14  1  0  0  0  0
 14  2  1  6  0  0  0
 14 16  1  0  0  0  0
 16  9  1  1  0  0  0
 17  9  1  1  0  0  0
 17 11  1  0  0  0  0
 17 22  1  0  0  0  0
 18 19  1  1  0  0  0
 18 20  1  0  0  0  0
 19  3  1  0  0  0  0
 20 13  1  1  0  0  0
 20 21  1  0  0  0  0
 21 15  1  6  0  0  0
 21 22  1  0  0  0  0
 22  6  1  6  0  0  0
M  END
>  <CHROM.1>
172.98092064,172.16971253,71.40863917,20.85187098,15.09135021,37.13052814
1.05268659,-0.28658133,-0.87492929

>  <Name>
2f4s_lig

>  <RI>
2.46955e+07

>  <Rbt.Current_Directory>
/home/itssahil/PROJECTS/Mol_Feturizer/New_Systems/rnas/2f4s

>  <Rbt.Executable>
rbdock ($Id: //depot/dev/client3/rdock/2013.1/src/exe/rbdock.cxx#4 $)

>  <Rbt.Library>
libRbt.so (2013.1, Build901 2013/11/27)

>  <Rbt.Parameter_File>
/export/apps/rDock/src/rDock_2013.1_src/data/scripts/dock_solv.prm

>  <Rbt.Receptor>
prm/pocket_docking_3.prm

>  <SCORE>
-10.5144

>  <SCORE.INTER>
-11.9997

>  <SCORE.INTER.CONST>
1

>  <SCORE.INTER.POLAR>
-1.01671

>  <SCORE.INTER.ROT>
3

>  <SCORE.INTER.SOLV>
12.1519

>  <SCORE.INTER.VDW>
-14.2614

>  <SCORE.INTER.norm>
-0.545442

>  <SCORE.INTRA>
1.48531

>  <SCORE.INTRA.DIHEDRAL>
-0.526643

>  <SCORE.INTRA.DIHEDRAL.0>
1.67653

>  <SCORE.INTRA.POLAR>
0

>  <SCORE.INTRA.POLAR.0>
0

>  <SCORE.INTRA.REPUL>
0

>  <SCORE.INTRA.REPUL.0>
0

>  <SCORE.INTRA.SOLV>
3.06331

>  <SCORE.INTRA.SOLV.lig_0>
-76.6701

>  <SCORE.INTRA.VDW>
0.216975

>  <SCORE.INTRA.VDW.0>
-1.53273

>  <SCORE.INTRA.norm>
0.067514

>  <SCORE.RESTR>
0

>  <SCORE.RESTR.CAVITY>
0

>  <SCORE.RESTR.norm>
0

>  <SCORE.SYSTEM>
0

>  <SCORE.SYSTEM.CONST>
0

>  <SCORE.SYSTEM.DIHEDRAL>
0

>  <SCORE.SYSTEM.SOLV>
0

>  <SCORE.SYSTEM.norm>
0

>  <SCORE.heavy>
22

>  <SCORE.norm>
-0.477928

>  <RMSD>
2.497

$$$$
2f4s_lig
 OpenBabel11021811433D
libRbt.so/2013.1/901 2013/11/27
 22 23  0  0  0  0  0  0  0  0999 V2000
   23.3123   18.8646   33.8467 N   0  0  0  0  0  0  0  0  0  0  0  0
   21.2441   14.3064   34.1952 N   0  0  0  0  0  0  0  0  0  0  0  0
   22.2846   11.4579   39.7508 N   0  0  0  0  0  0  0  0  0  0  0  0
   21.3459   17.3764   38.1393 O   0  0  0  0  0  0  0  0  0  0  0  0
   22.0441   16.9167   36.9459 C   0  0  2  0  0  0  0  0  0  0  0  0
   18.1405   15.1127   36.2370 N   0  0  0  0  0  0  0  0  0  0  0  0
   23.0891   19.1265   36.6522 O   0  0  0  0  0  0  0  0  0  0  0  0
   22.3177   18.1143   35.9948 C   0  0  1  0  0  0  0  0  0  0  0  0
   21.0193   14.6922   37.0452 O   0  0  0  0  0  0  0  0  0  0  0  0
   23.0744   17.6720   34.7483 C   0  0  1  0  0  0  0  0  0  0  0  0
   20.4866   12.5397   37.6994 O   0  0  0  0  0  0  0  0  0  0  0  0
   22.2493   16.5747   33.9945 C   0  0  0  0  0  0  0  0  0  0  0  0
   18.7708   13.4453   40.8174 O   0  0  0  0  0  0  0  0  0  0  0  0
   22.0220   15.3584   34.9721 C   0  0  1  0  0  0  0  0  0  0  0  0
   17.0701   14.6144   38.8550 O   0  0  0  0  0  0  0  0  0  0  0  0
   21.2015   15.8126   36.1930 C   0  0  2  0  0  0  0  0  0  0  0  0
   20.1202   13.6370   36.7539 C   0  0  1  0  0  0  0  0  0  0  0  0
   20.3614   12.8455   39.1526 C   0  0  2  0  0  0  0  0  0  0  0  0
   20.8073   11.6131   39.9454 C   0  0  0  0  0  0  0  0  0  0  0  0
   18.9100   13.1513   39.4476 C   0  0  2  0  0  0  0  0  0  0  0  0
   18.4471   14.3253   38.5866 C   0  0  1  0  0  0  0  0  0  0  0  0
   18.6241   13.9683   37.0902 C   0  0  1  0  0  0  0  0  0  0  0  0
  5  4  1  1  0  0  0
  5  8  1  0  0  0  0
  5 16  1  0  0  0  0
  8  7  1  1  0  0  0
  8 10  1  0  0  0  0
 10  1  1  6  0  0  0
 10 12  1  0  0  0  0
 11 18  1  0  0  0  0
 12 14  1  0  0  0  0
 14  2  1  6  0  0  0
 14 16  1  0  0  0  0
 16  9  1  1  0  0  0
 17  9  1  1  0  0  0
 17 11  1  0  0  0  0
 17 22  1  0  0  0  0
 18 19  1  1  0  0  0
 18 20  1  0  0  0  0
 19  3  1  0  0  0  0
 20 13  1  1  0  0  0
 20 21  1  0  0  0  0
 21 15  1  6  0  0  0
 21 22  1  0  0  0  0
 22  6  1  6  0  0  0
M  END
>  <CHROM.1>
168.83747819,166.24977589,68.85143621,20.75382515,15.07452886,37.18496271
-1.04918729,-0.45255540,2.67551649

>  <Name>
2f4s_lig

>  <RI>
0

>  <Rbt.Current_Directory>
/home/itssahil/PROJECTS/Mol_Feturizer/New_Systems/rnas/2f4s

>  <Rbt.Executable>
rbdock ($Id: //depot/dev/client3/rdock/2013.1/src/exe/rbdock.cxx#4 $)

>  <Rbt.Library>
libRbt.so (2013.1, Build901 2013/11/27)

>  <Rbt.Parameter_File>
/export/apps/rDock/src/rDock_2013.1_src/data/scripts/dock_solv.prm

>  <Rbt.Receptor>
prm/pocket_docking_5.prm

>  <SCORE>
-10.8901

>  <SCORE.INTER>
-12.3093

>  <SCORE.INTER.CONST>
1

>  <SCORE.INTER.POLAR>
-1.0421

>  <SCORE.INTER.ROT>
3

>  <SCORE.INTER.SOLV>
13.1849

>  <SCORE.INTER.VDW>
-14.7275

>  <SCORE.INTER.norm>
-0.559512

>  <SCORE.INTRA>
1.41919

>  <SCORE.INTRA.DIHEDRAL>
0.223269

>  <SCORE.INTRA.DIHEDRAL.0>
1.67653

>  <SCORE.INTRA.POLAR>
0

>  <SCORE.INTRA.POLAR.0>
0

>  <SCORE.INTRA.REPUL>
0

>  <SCORE.INTRA.REPUL.0>
0

>  <SCORE.INTRA.SOLV>
2.4023

>  <SCORE.INTRA.SOLV.lig_0>
-76.6701

>  <SCORE.INTRA.VDW>
0.106407

>  <SCORE.INTRA.VDW.0>
-1.53273

>  <SCORE.INTRA.norm>
0.0645086

>  <SCORE.RESTR>
0

>  <SCORE.RESTR.CAVITY>
0

>  <SCORE.RESTR.norm>
0

>  <SCORE.SYSTEM>
0

>  <SCORE.SYSTEM.CONST>
0

>  <SCORE.SYSTEM.DIHEDRAL>
0

>  <SCORE.SYSTEM.SOLV>
0

>  <SCORE.SYSTEM.norm>
0

>  <SCORE.heavy>
22

>  <SCORE.norm>
-0.495003

>  <RMSD>
2.510

$$$$
2f4s_lig
 OpenBabel11021811433D
libRbt.so/2013.1/901 2013/11/27
 22 23  0  0  0  0  0  0  0  0999 V2000
   23.4814   19.0906   33.7334 N   0  0  0  0  0  0  0  0  0  0  0  0
   21.2654   14.5928   33.9202 N   0  0  0  0  0  0  0  0  0  0  0  0
   21.7166   11.5451   40.4357 N   0  0  0  0  0  0  0  0  0  0  0  0
   21.2985   17.5949   37.9174 O   0  0  0  0  0  0  0  0  0  0  0  0
   22.0306   17.1332   36.7452 C   0  0  2  0  0  0  0  0  0  0  0  0
   17.9556   15.3205   36.4717 N   0  0  0  0  0  0  0  0  0  0  0  0
   23.1524   19.3144   36.5318 O   0  0  0  0  0  0  0  0  0  0  0  0
   22.3783   18.3369   35.8266 C   0  0  1  0  0  0  0  0  0  0  0  0
   20.9365   14.9397   36.7651 O   0  0  0  0  0  0  0  0  0  0  0  0
   23.1715   17.8916   34.6041 C   0  0  1  0  0  0  0  0  0  0  0  0
   20.5847   12.6738   37.0598 O   0  0  0  0  0  0  0  0  0  0  0  0
   22.3453   16.8322   33.7990 C   0  0  0  0  0  0  0  0  0  0  0  0
   19.3315   12.8733   40.5059 O   0  0  0  0  0  0  0  0  0  0  0  0
   22.0422   15.6079   34.7457 C   0  0  1  0  0  0  0  0  0  0  0  0
   17.3130   14.2773   39.0690 O   0  0  0  0  0  0  0  0  0  0  0  0
   21.1867   16.0675   35.9403 C   0  0  2  0  0  0  0  0  0  0  0  0
   20.0410   13.9025   36.4063 C   0  0  1  0  0  0  0  0  0  0  0  0
   20.6709   12.6955   38.5474 C   0  0  2  0  0  0  0  0  0  0  0  0
   21.2747   11.3677   39.0153 C   0  0  0  0  0  0  0  0  0  0  0  0
   19.2713   12.8487   39.0996 C   0  0  2  0  0  0  0  0  0  0  0  0
   18.6424   14.1307   38.5566 C   0  0  1  0  0  0  0  0  0  0  0  0
   18.6026   14.0702   37.0097 C   0  0  1  0  0  0  0  0  0  0  0  0
  5  4  1  1  0  0  0
  5  8  1  0  0  0  0
  5 16  1  0  0  0  0
  8  7  1  1  0  0  0
  8 10  1  0  0  0  0
 10  1  1  6  0  0  0
 10 12  1  0  0  0  0
 11 18  1  0  0  0  0
 12 14  1  0  0  0  0
 14  2  1  6  0  0  0
 14 16  1  0  0  0  0
 16  9  1  1  0  0  0
 17  9  1  1  0  0  0
 17 11  1  0  0  0  0
 17 22  1  0  0  0  0
 18 19  1  1  0  0  0
 18 20  1  0  0  0  0
 19  3  1  0  0  0  0
 20 13  1  1  0  0  0
 20 21  1  0  0  0  0
 21 15  1  1  0  0  0
 21 22  1  0  0  0  0
 22  6  1  6  0  0  0
M  END
>  <CHROM.1>
170.28089292,150.05786057,164.08108845,20.83532120,15.14234914,36.98709255
-0.97415836,-0.73413217,2.90090522

>  <Name>
2f4s_lig

>  <RI>
0

>  <Rbt.Current_Directory>
/home/itssahil/PROJECTS/Mol_Feturizer/New_Systems/rnas/2f4s

>  <Rbt.Executable>
rbdock ($Id: //depot/dev/client3/rdock/2013.1/src/exe/rbdock.cxx#4 $)

>  <Rbt.Library>
libRbt.so (2013.1, Build901 2013/11/27)

>  <Rbt.Parameter_File>
/export/apps/rDock/src/rDock_2013.1_src/data/scripts/dock_solv.prm

>  <Rbt.Receptor>
prm/pocket_docking_5.prm

>  <SCORE>
-9.43397

>  <SCORE.INTER>
-12.6581

>  <SCORE.INTER.CONST>
1

>  <SCORE.INTER.POLAR>
-1.18441

>  <SCORE.INTER.ROT>
3

>  <SCORE.INTER.SOLV>
13.0155

>  <SCORE.INTER.VDW>
-14.4292

>  <SCORE.INTER.norm>
-0.575368

>  <SCORE.INTRA>
3.22413

>  <SCORE.INTRA.DIHEDRAL>
3.26061

>  <SCORE.INTRA.DIHEDRAL.0>
1.67653

>  <SCORE.INTRA.POLAR>
0

>  <SCORE.INTRA.POLAR.0>
0

>  <SCORE.INTRA.REPUL>
0

>  <SCORE.INTRA.REPUL.0>
0

>  <SCORE.INTRA.SOLV>
2.51934

>  <SCORE.INTRA.SOLV.lig_0>
-76.6701

>  <SCORE.INTRA.VDW>
0.33416

>  <SCORE.INTRA.VDW.0>
-1.53273

>  <SCORE.INTRA.norm>
0.146552

>  <SCORE.RESTR>
0

>  <SCORE.RESTR.CAVITY>
0

>  <SCORE.RESTR.norm>
0

>  <SCORE.SYSTEM>
0

>  <SCORE.SYSTEM.CONST>
0

>  <SCORE.SYSTEM.DIHEDRAL>
0

>  <SCORE.SYSTEM.SOLV>
0

>  <SCORE.SYSTEM.norm>
0

>  <SCORE.heavy>
22

>  <SCORE.norm>
-0.428817

>  <RMSD>
2.535

$$$$
2f4s_lig
 OpenBabel11021811433D
libRbt.so/2013.1/901 2013/11/27
 22 23  0  0  0  0  0  0  0  0999 V2000
   23.4286   17.3686   32.1925 N   0  0  0  0  0  0  0  0  0  0  0  0
   19.2272   17.3913   34.9355 N   0  0  0  0  0  0  0  0  0  0  0  0
   21.5373   11.0191   38.2315 N   0  0  0  0  0  0  0  0  0  0  0  0
   23.3870   15.2106   36.6477 O   0  0  0  0  0  0  0  0  0  0  0  0
   22.5692   15.5054   35.4784 C   0  0  2  0  0  0  0  0  0  0  0  0
   17.5216   15.1157   36.5533 N   0  0  0  0  0  0  0  0  0  0  0  0
   24.5662   15.5565   34.0395 O   0  0  0  0  0  0  0  0  0  0  0  0
   23.4025   16.2943   34.4312 C   0  0  1  0  0  0  0  0  0  0  0  0
   20.4965   15.5775   36.7851 O   0  0  0  0  0  0  0  0  0  0  0  0
   22.5841   16.5933   33.1811 C   0  0  1  0  0  0  0  0  0  0  0  0
   20.7926   13.3043   37.0845 O   0  0  0  0  0  0  0  0  0  0  0  0
   21.3095   17.4153   33.5718 C   0  0  0  0  0  0  0  0  0  0  0  0
   19.6025   13.1645   40.5557 O   0  0  0  0  0  0  0  0  0  0  0  0
   20.4664   16.5727   34.6043 C   0  0  1  0  0  0  0  0  0  0  0  0
   17.2455   13.9472   39.1621 O   0  0  0  0  0  0  0  0  0  0  0  0
   21.2885   16.3366   35.8844 C   0  0  2  0  0  0  0  0  0  0  0  0
   19.9166   14.3310   36.4436 C   0  0  1  0  0  0  0  0  0  0  0  0
   20.8992   13.3558   38.5700 C   0  0  2  0  0  0  0  0  0  0  0  0
   21.8567   12.2497   39.0239 C   0  0  0  0  0  0  0  0  0  0  0  0
   19.5233   13.1176   39.1509 C   0  0  2  0  0  0  0  0  0  0  0  0
   18.5529   14.1726   38.6224 C   0  0  1  0  0  0  0  0  0  0  0  0
   18.5005   14.0963   37.0766 C   0  0  1  0  0  0  0  0  0  0  0  0
  5  4  1  1  0  0  0
  5  8  1  0  0  0  0
  5 16  1  0  0  0  0
  8  7  1  6  0  0  0
  8 10  1  0  0  0  0
 10  1  1  6  0  0  0
 10 12  1  0  0  0  0
 11 18  1  0  0  0  0
 12 14  1  0  0  0  0
 14  2  1  1  0  0  0
 14 16  1  0  0  0  0
 16  9  1  1  0  0  0
 17  9  1  1  0  0  0
 17 11  1  0  0  0  0
 17 22  1  0  0  0  0
 18 19  1  1  0  0  0
 18 20  1  0  0  0  0
 19  3  1  0  0  0  0
 20 13  1  1  0  0  0
 20 21  1  0  0  0  0
 21 15  1  1  0  0  0
 21 22  1  0  0  0  0
 22  6  1  6  0  0  0
M  END
>  <CHROM.1>
-61.60893482,102.12561458,-42.52395214,20.85783415,14.87395642,36.50386938
1.05473061,0.26568426,-0.83103853

>  <Name>
2f4s_lig

>  <RI>
2.46955e+07

>  <Rbt.Current_Directory>
/home/itssahil/PROJECTS/Mol_Feturizer/New_Systems/rnas/2f4s

>  <Rbt.Executable>
rbdock ($Id: //depot/dev/client3/rdock/2013.1/src/exe/rbdock.cxx#4 $)

>  <Rbt.Library>
libRbt.so (2013.1, Build901 2013/11/27)

>  <Rbt.Parameter_File>
/export/apps/rDock/src/rDock_2013.1_src/data/scripts/dock_solv.prm

>  <Rbt.Receptor>
prm/pocket_docking_3.prm

>  <SCORE>
-6.76298

>  <SCORE.INTER>
-11.5088

>  <SCORE.INTER.CONST>
1

>  <SCORE.INTER.POLAR>
-1.46293

>  <SCORE.INTER.ROT>
3

>  <SCORE.INTER.SOLV>
18.9576

>  <SCORE.INTER.VDW>
-14.7153

>  <SCORE.INTER.norm>
-0.523126

>  <SCORE.INTRA>
4.7458

>  <SCORE.INTRA.DIHEDRAL>
5.0799

>  <SCORE.INTRA.DIHEDRAL.0>
1.67653

>  <SCORE.INTRA.POLAR>
0

>  <SCORE.INTRA.POLAR.0>
0

>  <SCORE.INTRA.REPUL>
0

>  <SCORE.INTRA.REPUL.0>
0

>  <SCORE.INTRA.SOLV>
3.93059

>  <SCORE.INTRA.SOLV.lig_0>
-76.6701

>  <SCORE.INTRA.VDW>
0.240557

>  <SCORE.INTRA.VDW.0>
-1.53273

>  <SCORE.INTRA.norm>
0.215718

>  <SCORE.RESTR>
0

>  <SCORE.RESTR.CAVITY>
0

>  <SCORE.RESTR.norm>
0

>  <SCORE.SYSTEM>
0

>  <SCORE.SYSTEM.CONST>
0

>  <SCORE.SYSTEM.DIHEDRAL>
0

>  <SCORE.SYSTEM.SOLV>
0

>  <SCORE.SYSTEM.norm>
0

>  <SCORE.heavy>
22

>  <SCORE.norm>
-0.307408

>  <RMSD>
2.569

$$$$
2f4s_lig
 OpenBabel11021811433D
libRbt.so/2013.1/901 2013/11/27
 22 23  0  0  0  0  0  0  0  0999 V2000
   23.8746   19.0924   33.4883 N   0  0  0  0  0  0  0  0  0  0  0  0
   21.0831   14.9236   33.5556 N   0  0  0  0  0  0  0  0  0  0  0  0
   21.4074   11.1073   38.2545 N   0  0  0  0  0  0  0  0  0  0  0  0
   21.8398   17.5618   37.7338 O   0  0  0  0  0  0  0  0  0  0  0  0
   22.4079   17.1046   36.4724 C   0  0  2  0  0  0  0  0  0  0  0  0
   18.2397   16.0819   35.8538 N   0  0  0  0  0  0  0  0  0  0  0  0
   23.7986   19.1300   36.3135 O   0  0  0  0  0  0  0  0  0  0  0  0
   22.8450   18.3227   35.6129 C   0  0  1  0  0  0  0  0  0  0  0  0
   21.0278   15.0792   36.4356 O   0  0  0  0  0  0  0  0  0  0  0  0
   23.4718   17.8778   34.2971 C   0  0  1  0  0  0  0  0  0  0  0  0
   20.1400   13.0065   36.9465 O   0  0  0  0  0  0  0  0  0  0  0  0
   22.4477   17.0045   33.4961 C   0  0  0  0  0  0  0  0  0  0  0  0
   18.7768   13.9158   40.2329 O   0  0  0  0  0  0  0  0  0  0  0  0
   22.0539   15.7579   34.3781 C   0  0  1  0  0  0  0  0  0  0  0  0
   17.2263   15.5461   38.4870 O   0  0  0  0  0  0  0  0  0  0  0  0
   21.3654   16.2274   35.6726 C   0  0  2  0  0  0  0  0  0  0  0  0
   19.9361   14.2337   36.1190 C   0  0  1  0  0  0  0  0  0  0  0  0
   20.1453   13.1954   38.4248 C   0  0  2  0  0  0  0  0  0  0  0  0
   20.3947   11.8356   39.0842 C   0  0  0  0  0  0  0  0  0  0  0  0
   18.7915   13.7285   38.8377 C   0  0  2  0  0  0  0  0  0  0  0  0
   18.5113   15.0403   38.1068 C   0  0  1  0  0  0  0  0  0  0  0  0
   18.5453   14.7960   36.5780 C   0  0  1  0  0  0  0  0  0  0  0  0
  5  4  1  1  0  0  0
  5  8  1  0  0  0  0
  5 16  1  0  0  0  0
  8  7  1  1  0  0  0
  8 10  1  0  0  0  0
 10  1  1  6  0  0  0
 10 12  1  0  0  0  0
 11 18  1  0  0  0  0
 12 14  1  0  0  0  0
 14  2  1  6  0  0  0
 14 16  1  0  0  0  0
 16  9  1  1  0  0  0
 17  9  1  1  0  0  0
 17 11  1  0  0  0  0
 17 22  1  0  0  0  0
 18 19  1  1  0  0  0
 18 20  1  0  0  0  0
 19  3  1  0  0  0  0
 20 13  1  1  0  0  0
 20 21  1  0  0  0  0
 21 15  1  1  0  0  0
 21 22  1  0  0  0  0
 22  6  1  6  0  0  0
M  END
>  <CHROM.1>
167.39945603,166.72384901,38.87370264,20.82001917,15.48428790,36.60983605
-0.69942621,-0.79251487,-3.13304252

>  <Name>
2f4s_lig

>  <RI>
2.46955e+07

>  <Rbt.Current_Directory>
/home/itssahil/PROJECTS/Mol_Feturizer/New_Systems/rnas/2f4s

>  <Rbt.Executable>
rbdock ($Id: //depot/dev/client3/rdock/2013.1/src/exe/rbdock.cxx#4 $)

>  <Rbt.Library>
libRbt.so (2013.1, Build901 2013/11/27)

>  <Rbt.Parameter_File>
/export/apps/rDock/src/rDock_2013.1_src/data/scripts/dock_solv.prm

>  <Rbt.Receptor>
prm/pocket_docking_3.prm

>  <SCORE>
-8.83139

>  <SCORE.INTER>
-11.1734

>  <SCORE.INTER.CONST>
1

>  <SCORE.INTER.POLAR>
-1.78437

>  <SCORE.INTER.ROT>
3

>  <SCORE.INTER.SOLV>
17.5481

>  <SCORE.INTER.VDW>
-12.9504

>  <SCORE.INTER.norm>
-0.507882

>  <SCORE.INTRA>
2.34094

>  <SCORE.INTRA.DIHEDRAL>
1.4818

>  <SCORE.INTRA.DIHEDRAL.0>
1.67653

>  <SCORE.INTRA.POLAR>
0

>  <SCORE.INTRA.POLAR.0>
0

>  <SCORE.INTRA.REPUL>
0

>  <SCORE.INTRA.REPUL.0>
0

>  <SCORE.INTRA.SOLV>
2.66645

>  <SCORE.INTRA.SOLV.lig_0>
-76.6701

>  <SCORE.INTRA.VDW>
0.266817

>  <SCORE.INTRA.VDW.0>
-1.53273

>  <SCORE.INTRA.norm>
0.106406

>  <SCORE.RESTR>
0.00107575

>  <SCORE.RESTR.CAVITY>
0.00107575

>  <SCORE.RESTR.norm>
4.88976e-05

>  <SCORE.SYSTEM>
0

>  <SCORE.SYSTEM.CONST>
0

>  <SCORE.SYSTEM.DIHEDRAL>
0

>  <SCORE.SYSTEM.SOLV>
0

>  <SCORE.SYSTEM.norm>
0

>  <SCORE.heavy>
22

>  <SCORE.norm>
-0.401427

>  <RMSD>
2.622

$$$$
2f4s_lig
 OpenBabel11021811433D
libRbt.so/2013.1/901 2013/11/27
 22 23  0  0  0  0  0  0  0  0999 V2000
   22.7737   19.4331   33.9934 N   0  0  0  0  0  0  0  0  0  0  0  0
   21.2141   14.6657   33.8714 N   0  0  0  0  0  0  0  0  0  0  0  0
   22.2981   11.8308   40.0944 N   0  0  0  0  0  0  0  0  0  0  0  0
   21.1185   17.2790   38.1319 O   0  0  0  0  0  0  0  0  0  0  0  0
   21.8220   17.0315   36.8802 C   0  0  2  0  0  0  0  0  0  0  0  0
   18.1394   15.1928   36.0778 N   0  0  0  0  0  0  0  0  0  0  0  0
   22.6162   19.3609   36.8146 O   0  0  0  0  0  0  0  0  0  0  0  0
   21.9355   18.3485   36.0640 C   0  0  1  0  0  0  0  0  0  0  0  0
   21.0432   14.7109   36.7508 O   0  0  0  0  0  0  0  0  0  0  0  0
   22.6936   18.1303   34.7603 C   0  0  1  0  0  0  0  0  0  0  0  0
   20.5035   12.5550   37.3879 O   0  0  0  0  0  0  0  0  0  0  0  0
   21.9655   17.0385   33.9055 C   0  0  0  0  0  0  0  0  0  0  0  0
   18.9408   13.4278   40.5944 O   0  0  0  0  0  0  0  0  0  0  0  0
   21.9009   15.7051   34.7451 C   0  0  1  0  0  0  0  0  0  0  0  0
   17.1760   14.6614   38.7305 O   0  0  0  0  0  0  0  0  0  0  0  0
   21.0773   15.9308   36.0260 C   0  0  2  0  0  0  0  0  0  0  0  0
   20.1146   13.6760   36.4798 C   0  0  1  0  0  0  0  0  0  0  0  0
   20.4469   12.8348   38.8505 C   0  0  2  0  0  0  0  0  0  0  0  0
   20.9062   11.5804   39.6001 C   0  0  0  0  0  0  0  0  0  0  0  0
   19.0151   13.1580   39.2146 C   0  0  2  0  0  0  0  0  0  0  0  0
   18.5349   14.3556   38.3966 C   0  0  1  0  0  0  0  0  0  0  0  0
   18.6404   14.0246   36.8875 C   0  0  1  0  0  0  0  0  0  0  0  0
  5  4  1  1  0  0  0
  5  8  1  0  0  0  0
  5 16  1  0  0  0  0
  8  7  1  1  0  0  0
  8 10  1  0  0  0  0
 10  1  1  6  0  0  0
 10 12  1  0  0  0  0
 11 18  1  0  0  0  0
 12 14  1  0  0  0  0
 14  2  1  6  0  0  0
 14 16  1  0  0  0  0
 16  9  1  1  0  0  0
 17  9  1  1  0  0  0
 17 11  1  0  0  0  0
 17 22  1  0  0  0  0
 18 19  1  1  0  0  0
 18 20  1  0  0  0  0
 19  3  1  0  0  0  0
 20 13  1  1  0  0  0
 20 21  1  0  0  0  0
 21 15  1  1  0  0  0
 21 22  1  0  0  0  0
 22  6  1  6  0  0  0
M  END
>  <CHROM.1>
159.37412355,175.55319486,104.36947387,20.66107765,15.22517663,37.05815749
0.14836514,1.18595182,0.74437137

>  <Name>
2f4s_lig

>  <RI>
2.26097e+07

>  <Rbt.Current_Directory>
/home/itssahil/PROJECTS/Mol_Feturizer/New_Systems/rnas/2f4s

>  <Rbt.Executable>
rbdock ($Id: //depot/dev/client3/rdock/2013.1/src/exe/rbdock.cxx#4 $)

>  <Rbt.Library>
libRbt.so (2013.1, Build901 2013/11/27)

>  <Rbt.Parameter_File>
/export/apps/rDock/src/rDock_2013.1_src/data/scripts/dock_solv.prm

>  <Rbt.Receptor>
prm/pocket_docking_7.prm

>  <SCORE>
-9.31585

>  <SCORE.INTER>
-12.8084

>  <SCORE.INTER.CONST>
1

>  <SCORE.INTER.POLAR>
-1.22603

>  <SCORE.INTER.ROT>
3

>  <SCORE.INTER.SOLV>
10.5415

>  <SCORE.INTER.VDW>
-13.566

>  <SCORE.INTER.norm>
-0.582201

>  <SCORE.INTRA>
3.49257

>  <SCORE.INTRA.DIHEDRAL>
4.9012

>  <SCORE.INTRA.DIHEDRAL.0>
1.67653

>  <SCORE.INTRA.POLAR>
0

>  <SCORE.INTRA.POLAR.0>
0

>  <SCORE.INTRA.REPUL>
0

>  <SCORE.INTRA.REPUL.0>
0

>  <SCORE.INTRA.SOLV>
2.45218

>  <SCORE.INTRA.SOLV.lig_0>
-76.6701

>  <SCORE.INTRA.VDW>
-0.184117

>  <SCORE.INTRA.VDW.0>
-1.53273

>  <SCORE.INTRA.norm>
0.158753

>  <SCORE.RESTR>
0

>  <SCORE.RESTR.CAVITY>
0

>  <SCORE.RESTR.norm>
0

>  <SCORE.SYSTEM>
0

>  <SCORE.SYSTEM.CONST>
0

>  <SCORE.SYSTEM.DIHEDRAL>
0

>  <SCORE.SYSTEM.SOLV>
0

>  <SCORE.SYSTEM.norm>
0

>  <SCORE.heavy>
22

>  <SCORE.norm>
-0.423448

>  <RMSD>
2.692

$$$$
2f4s_lig
 OpenBabel11021811433D
libRbt.so/2013.1/901 2013/11/27
 22 23  0  0  0  0  0  0  0  0999 V2000
   22.5212   18.7086   33.2933 N   0  0  0  0  0  0  0  0  0  0  0  0
   20.4459   14.1891   33.9587 N   0  0  0  0  0  0  0  0  0  0  0  0
   22.1402   11.3938   39.5638 N   0  0  0  0  0  0  0  0  0  0  0  0
   21.3554   17.1841   37.8566 O   0  0  0  0  0  0  0  0  0  0  0  0
   21.8074   16.7317   36.5474 C   0  0  2  0  0  0  0  0  0  0  0  0
   17.8436   14.9906   36.2043 N   0  0  0  0  0  0  0  0  0  0  0  0
   22.8320   18.9240   36.0943 O   0  0  0  0  0  0  0  0  0  0  0  0
   21.9273   17.9403   35.5787 C   0  0  1  0  0  0  0  0  0  0  0  0
   20.7661   14.5276   36.8056 O   0  0  0  0  0  0  0  0  0  0  0  0
   22.4273   17.5050   34.2067 C   0  0  1  0  0  0  0  0  0  0  0  0
   20.2289   12.4415   37.6449 O   0  0  0  0  0  0  0  0  0  0  0  0
   21.4500   16.4391   33.6052 C   0  0  0  0  0  0  0  0  0  0  0  0
   18.8016   13.6057   40.8218 O   0  0  0  0  0  0  0  0  0  0  0  0
   21.3801   15.2102   34.5911 C   0  0  1  0  0  0  0  0  0  0  0  0
   16.9787   14.7005   38.9274 O   0  0  0  0  0  0  0  0  0  0  0  0
   20.8129   15.6593   35.9501 C   0  0  2  0  0  0  0  0  0  0  0  0
   19.8169   13.4864   36.6596 C   0  0  1  0  0  0  0  0  0  0  0  0
   20.2323   12.8456   39.0793 C   0  0  2  0  0  0  0  0  0  0  0  0
   20.7072   11.6533   39.9155 C   0  0  0  0  0  0  0  0  0  0  0  0
   18.8192   13.2184   39.4684 C   0  0  2  0  0  0  0  0  0  0  0  0
   18.3202   14.3485   38.5697 C   0  0  1  0  0  0  0  0  0  0  0  0
   18.3634   13.8888   37.0916 C   0  0  1  0  0  0  0  0  0  0  0  0
  5  4  1  1  0  0  0
  5  8  1  0  0  0  0
  5 16  1  0  0  0  0
  8  7  1  1  0  0  0
  8 10  1  0  0  0  0
 10  1  1  6  0  0  0
 10 12  1  0  0  0  0
 11 18  1  0  0  0  0
 12 14  1  0  0  0  0
 14  2  1  6  0  0  0
 14 16  1  0  0  0  0
 16  9  1  1  0  0  0
 17  9  1  1  0  0  0
 17 11  1  0  0  0  0
 17 22  1  0  0  0  0
 18 19  1  1  0  0  0
 18 20  1  0  0  0  0
 19  3  1  0  0  0  0
 20 13  1  1  0  0  0
 20 21  1  0  0  0  0
 21 15  1  1  0  0  0
 21 22  1  0  0  0  0
 22  6  1  6  0  0  0
M  END
>  <CHROM.1>
169.88349452,173.37114274,66.10760193,20.44432777,14.98769905,36.97597662
1.18223222,-0.01843740,-0.79077320

>  <Name>
2f4s_lig

>  <RI>
0

>  <Rbt.Current_Directory>
/home/itssahil/PROJECTS/Mol_Feturizer/New_Systems/rnas/2f4s

>  <Rbt.Executable>
rbdock ($Id: //depot/dev/client3/rdock/2013.1/src/exe/rbdock.cxx#4 $)

>  <Rbt.Library>
libRbt.so (2013.1, Build901 2013/11/27)

>  <Rbt.Parameter_File>
/export/apps/rDock/src/rDock_2013.1_src/data/scripts/dock_solv.prm

>  <Rbt.Receptor>
prm/pocket_docking_5.prm

>  <SCORE>
-11.0568

>  <SCORE.INTER>
-12.3099

>  <SCORE.INTER.CONST>
1

>  <SCORE.INTER.POLAR>
-0.979796

>  <SCORE.INTER.ROT>
3

>  <SCORE.INTER.SOLV>
12.6287

>  <SCORE.INTER.VDW>
-14.7502

>  <SCORE.INTER.norm>
-0.559543

>  <SCORE.INTRA>
1.25312

>  <SCORE.INTRA.DIHEDRAL>
-0.682181

>  <SCORE.INTRA.DIHEDRAL.0>
1.67653

>  <SCORE.INTRA.POLAR>
0

>  <SCORE.INTRA.POLAR.0>
0

>  <SCORE.INTRA.REPUL>
0

>  <SCORE.INTRA.REPUL.0>
0

>  <SCORE.INTRA.SOLV>
2.97411

>  <SCORE.INTRA.SOLV.lig_0>
-76.6701

>  <SCORE.INTRA.VDW>
0.107154

>  <SCORE.INTRA.VDW.0>
-1.53273

>  <SCORE.INTRA.norm>
0.0569598

>  <SCORE.RESTR>
0

>  <SCORE.RESTR.CAVITY>
0

>  <SCORE.RESTR.norm>
0

>  <SCORE.SYSTEM>
0

>  <SCORE.SYSTEM.CONST>
0

>  <SCORE.SYSTEM.DIHEDRAL>
0

>  <SCORE.SYSTEM.SOLV>
0

>  <SCORE.SYSTEM.norm>
0

>  <SCORE.heavy>
22

>  <SCORE.norm>
-0.502583

>  <RMSD>
2.766

$$$$
2f4s_lig
 OpenBabel11021811433D
libRbt.so/2013.1/901 2013/11/27
 22 23  0  0  0  0  0  0  0  0999 V2000
   22.5984   19.4288   33.8641 N   0  0  0  0  0  0  0  0  0  0  0  0
   21.2351   14.6001   33.8912 N   0  0  0  0  0  0  0  0  0  0  0  0
   22.1935   11.6459   39.5753 N   0  0  0  0  0  0  0  0  0  0  0  0
   20.8089   17.4005   38.0103 O   0  0  0  0  0  0  0  0  0  0  0  0
   21.5877   17.1251   36.8101 C   0  0  2  0  0  0  0  0  0  0  0  0
   18.0209   15.1748   35.9668 N   0  0  0  0  0  0  0  0  0  0  0  0
   22.2926   19.4801   36.6736 O   0  0  0  0  0  0  0  0  0  0  0  0
   21.6933   18.4067   35.9384 C   0  0  1  0  0  0  0  0  0  0  0  0
   20.9082   14.7706   36.7523 O   0  0  0  0  0  0  0  0  0  0  0  0
   22.5282   18.1605   34.6876 C   0  0  1  0  0  0  0  0  0  0  0  0
   20.3727   12.6506   37.5032 O   0  0  0  0  0  0  0  0  0  0  0  0
   21.8903   17.0011   33.8499 C   0  0  0  0  0  0  0  0  0  0  0  0
   18.7056   13.6960   40.6038 O   0  0  0  0  0  0  0  0  0  0  0  0
   21.8329   15.7062   34.7482 C   0  0  1  0  0  0  0  0  0  0  0  0
   16.9843   14.7927   38.6177 O   0  0  0  0  0  0  0  0  0  0  0  0
   20.9335   15.9563   35.9724 C   0  0  2  0  0  0  0  0  0  0  0  0
   19.9992   13.7097   36.5178 C   0  0  1  0  0  0  0  0  0  0  0  0
   20.2694   13.0176   38.9439 C   0  0  2  0  0  0  0  0  0  0  0  0
   20.7195   11.8166   39.7814 C   0  0  0  0  0  0  0  0  0  0  0  0
   18.8240   13.3443   39.2457 C   0  0  2  0  0  0  0  0  0  0  0  0
   18.3557   14.4842   38.3428 C   0  0  1  0  0  0  0  0  0  0  0  0
   18.5098   14.0640   36.8603 C   0  0  1  0  0  0  0  0  0  0  0  0
  5  4  1  1  0  0  0
  5  8  1  0  0  0  0
  5 16  1  0  0  0  0
  8  7  1  1  0  0  0
  8 10  1  0  0  0  0
 10  1  1  6  0  0  0
 10 12  1  0  0  0  0
 11 18  1  0  0  0  0
 12 14  1  0  0  0  0
 14  2  1  6  0  0  0
 14 16  1  0  0  0  0
 16  9  1  1  0  0  0
 17  9  1  1  0  0  0
 17 11  1  0  0  0  0
 17 22  1  0  0  0  0
 18 19  1  1  0  0  0
 18 20  1  0  0  0  0
 19  3  1  0  0  0  0
 20 13  1  1  0  0  0
 20 21  1  0  0  0  0
 21 15  1  1  0  0  0
 21 22  1  0  0  0  0
 22  6  1  6  0  0  0
M  END
>  <CHROM.1>
156.69042649,176.83040141,68.96011007,20.49466930,15.29557457,37.00764191
1.02770451,0.76615596,-0.28395360

>  <Name>
2f4s_lig

>  <RI>
0

>  <Rbt.Current_Directory>
/home/itssahil/PROJECTS/Mol_Feturizer/New_Systems/rnas/2f4s

>  <Rbt.Executable>
rbdock ($Id: //depot/dev/client3/rdock/2013.1/src/exe/rbdock.cxx#4 $)

>  <Rbt.Library>
libRbt.so (2013.1, Build901 2013/11/27)

>  <Rbt.Parameter_File>
/export/apps/rDock/src/rDock_2013.1_src/data/scripts/dock_solv.prm

>  <Rbt.Receptor>
prm/pocket_docking_5.prm

>  <SCORE>
-11.2584

>  <SCORE.INTER>
-12.8714

>  <SCORE.INTER.CONST>
1

>  <SCORE.INTER.POLAR>
-1.2439

>  <SCORE.INTER.ROT>
3

>  <SCORE.INTER.SOLV>
11.012

>  <SCORE.INTER.VDW>
-13.7052

>  <SCORE.INTER.norm>
-0.585062

>  <SCORE.INTRA>
1.61296

>  <SCORE.INTRA.DIHEDRAL>
1.16441

>  <SCORE.INTRA.DIHEDRAL.0>
1.67653

>  <SCORE.INTRA.POLAR>
0

>  <SCORE.INTRA.POLAR.0>
0

>  <SCORE.INTRA.REPUL>
0

>  <SCORE.INTRA.REPUL.0>
0

>  <SCORE.INTRA.SOLV>
2.49495

>  <SCORE.INTRA.SOLV.lig_0>
-76.6701

>  <SCORE.INTRA.VDW>
-0.216717

>  <SCORE.INTRA.VDW.0>
-1.53273

>  <SCORE.INTRA.norm>
0.0733166

>  <SCORE.RESTR>
0

>  <SCORE.RESTR.CAVITY>
0

>  <SCORE.RESTR.norm>
0

>  <SCORE.SYSTEM>
0

>  <SCORE.SYSTEM.CONST>
0

>  <SCORE.SYSTEM.DIHEDRAL>
0

>  <SCORE.SYSTEM.SOLV>
0

>  <SCORE.SYSTEM.norm>
0

>  <SCORE.heavy>
22

>  <SCORE.norm>
-0.511746

>  <RMSD>
2.767

$$$$
2f4s_lig
 OpenBabel11021811433D
libRbt.so/2013.1/901 2013/11/27
 22 23  0  0  0  0  0  0  0  0999 V2000
   22.5418   19.3670   33.7769 N   0  0  0  0  0  0  0  0  0  0  0  0
   21.2070   14.5316   33.8917 N   0  0  0  0  0  0  0  0  0  0  0  0
   22.2187   11.6573   39.5469 N   0  0  0  0  0  0  0  0  0  0  0  0
   20.7025   17.4203   37.9403 O   0  0  0  0  0  0  0  0  0  0  0  0
   21.5008   17.1231   36.7583 C   0  0  2  0  0  0  0  0  0  0  0  0
   17.9280   15.1493   36.0287 N   0  0  0  0  0  0  0  0  0  0  0  0
   22.1937   19.4788   36.5796 O   0  0  0  0  0  0  0  0  0  0  0  0
   21.6118   18.3856   35.8598 C   0  0  1  0  0  0  0  0  0  0  0  0
   20.8363   14.7637   36.7431 O   0  0  0  0  0  0  0  0  0  0  0  0
   22.4668   18.1169   34.6274 C   0  0  1  0  0  0  0  0  0  0  0  0
   20.3349   12.6364   37.4968 O   0  0  0  0  0  0  0  0  0  0  0  0
   21.8484   16.9352   33.8064 C   0  0  0  0  0  0  0  0  0  0  0  0
   18.7347   13.6553   40.6411 O   0  0  0  0  0  0  0  0  0  0  0  0
   21.7853   15.6603   34.7325 C   0  0  1  0  0  0  0  0  0  0  0  0
   16.9581   14.7476   38.7019 O   0  0  0  0  0  0  0  0  0  0  0  0
   20.8662   15.9319   35.9373 C   0  0  2  0  0  0  0  0  0  0  0  0
   19.9300   13.6970   36.5254 C   0  0  1  0  0  0  0  0  0  0  0  0
   20.2635   12.9962   38.9412 C   0  0  2  0  0  0  0  0  0  0  0  0
   20.7425   11.7949   39.7621 C   0  0  0  0  0  0  0  0  0  0  0  0
   18.8232   13.3105   39.2790 C   0  0  2  0  0  0  0  0  0  0  0  0
   18.3248   14.4507   38.3928 C   0  0  1  0  0  0  0  0  0  0  0  0
   18.4466   14.0383   36.9052 C   0  0  1  0  0  0  0  0  0  0  0  0
  5  4  1  1  0  0  0
  5  8  1  0  0  0  0
  5 16  1  0  0  0  0
  8  7  1  1  0  0  0
  8 10  1  0  0  0  0
 10  1  1  6  0  0  0
 10 12  1  0  0  0  0
 11 18  1  0  0  0  0
 12 14  1  0  0  0  0
 14  2  1  6  0  0  0
 14 16  1  0  0  0  0
 16  9  1  1  0  0  0
 17  9  1  1  0  0  0
 17 11  1  0  0  0  0
 17 22  1  0  0  0  0
 18 19  1  1  0  0  0
 18 20  1  0  0  0  0
 19  3  1  0  0  0  0
 20 13  1  1  0  0  0
 20 21  1  0  0  0  0
 21 15  1  1  0  0  0
 21 22  1  0  0  0  0
 22  6  1  6  0  0  0
M  END
>  <CHROM.1>
156.16358101,174.44736539,70.34341807,20.44926001,15.26945179,36.99485862
1.05134556,0.74585544,-0.32179681

>  <Name>
2f4s_lig

>  <RI>
0

>  <Rbt.Current_Directory>
/home/itssahil/PROJECTS/Mol_Feturizer/New_Systems/rnas/2f4s

>  <Rbt.Executable>
rbdock ($Id: //depot/dev/client3/rdock/2013.1/src/exe/rbdock.cxx#4 $)

>  <Rbt.Library>
libRbt.so (2013.1, Build901 2013/11/27)

>  <Rbt.Parameter_File>
/export/apps/rDock/src/rDock_2013.1_src/data/scripts/dock_solv.prm

>  <Rbt.Receptor>
prm/pocket_docking_5.prm

>  <SCORE>
-11.2639

>  <SCORE.INTER>
-12.9214

>  <SCORE.INTER.CONST>
1

>  <SCORE.INTER.POLAR>
-1.22662

>  <SCORE.INTER.ROT>
3

>  <SCORE.INTER.SOLV>
11.5226

>  <SCORE.INTER.VDW>
-13.9664

>  <SCORE.INTER.norm>
-0.587335

>  <SCORE.INTRA>
1.65751

>  <SCORE.INTRA.DIHEDRAL>
1.44855

>  <SCORE.INTRA.DIHEDRAL.0>
1.67653

>  <SCORE.INTRA.POLAR>
0

>  <SCORE.INTRA.POLAR.0>
0

>  <SCORE.INTRA.REPUL>
0

>  <SCORE.INTRA.REPUL.0>
0

>  <SCORE.INTRA.SOLV>
2.33841

>  <SCORE.INTRA.SOLV.lig_0>
-76.6701

>  <SCORE.INTRA.VDW>
-0.235969

>  <SCORE.INTRA.VDW.0>
-1.53273

>  <SCORE.INTRA.norm>
0.0753414

>  <SCORE.RESTR>
0

>  <SCORE.RESTR.CAVITY>
0

>  <SCORE.RESTR.norm>
0

>  <SCORE.SYSTEM>
0

>  <SCORE.SYSTEM.CONST>
0

>  <SCORE.SYSTEM.DIHEDRAL>
0

>  <SCORE.SYSTEM.SOLV>
0

>  <SCORE.SYSTEM.norm>
0

>  <SCORE.heavy>
22

>  <SCORE.norm>
-0.511993

>  <RMSD>
2.781

$$$$
2f4s_lig
 OpenBabel11021811433D
libRbt.so/2013.1/901 2013/11/27
 22 23  0  0  0  0  0  0  0  0999 V2000
   22.6555   19.7820   34.0719 N   0  0  0  0  0  0  0  0  0  0  0  0
   21.2573   14.9773   33.7036 N   0  0  0  0  0  0  0  0  0  0  0  0
   21.5558   11.7549   40.5314 N   0  0  0  0  0  0  0  0  0  0  0  0
   21.0074   17.3850   38.0776 O   0  0  0  0  0  0  0  0  0  0  0  0
   21.7385   17.2190   36.8282 C   0  0  2  0  0  0  0  0  0  0  0  0
   18.0839   15.2990   36.1213 N   0  0  0  0  0  0  0  0  0  0  0  0
   22.4558   19.5735   36.8836 O   0  0  0  0  0  0  0  0  0  0  0  0
   21.8211   18.5755   36.0755 C   0  0  1  0  0  0  0  0  0  0  0  0
   21.0394   14.8829   36.5786 O   0  0  0  0  0  0  0  0  0  0  0  0
   22.6066   18.4431   34.7765 C   0  0  1  0  0  0  0  0  0  0  0  0
   20.6226   12.6531   37.0253 O   0  0  0  0  0  0  0  0  0  0  0  0
   21.9288   17.3691   33.8599 C   0  0  0  0  0  0  0  0  0  0  0  0
   19.2233   13.1374   40.3858 O   0  0  0  0  0  0  0  0  0  0  0  0
   21.8953   15.9967   34.6360 C   0  0  1  0  0  0  0  0  0  0  0  0
   17.3032   14.4681   38.7572 O   0  0  0  0  0  0  0  0  0  0  0  0
   21.0444   16.1357   35.9115 C   0  0  2  0  0  0  0  0  0  0  0  0
   20.1368   13.8393   36.2576 C   0  0  1  0  0  0  0  0  0  0  0  0
   20.6435   12.7855   38.5096 C   0  0  2  0  0  0  0  0  0  0  0  0
   21.1952   11.4854   39.1025 C   0  0  0  0  0  0  0  0  0  0  0  0
   19.2247   13.0076   38.9840 C   0  0  2  0  0  0  0  0  0  0  0  0
   18.6503   14.2570   38.3186 C   0  0  1  0  0  0  0  0  0  0  0  0
   18.6774   14.0805   36.7803 C   0  0  1  0  0  0  0  0  0  0  0  0
  5  4  1  1  0  0  0
  5  8  1  0  0  0  0
  5 16  1  0  0  0  0
  8  7  1  1  0  0  0
  8 10  1  0  0  0  0
 10  1  1  6  0  0  0
 10 12  1  0  0  0  0
 11 18  1  0  0  0  0
 12 14  1  0  0  0  0
 14  2  1  6  0  0  0
 14 16  1  0  0  0  0
 16  9  1  1  0  0  0
 17  9  1  1  0  0  0
 17 11  1  0  0  0  0
 17 22  1  0  0  0  0
 18 19  1  1  0  0  0
 18 20  1  0  0  0  0
 19  3  1  0  0  0  0
 20 13  1  1  0  0  0
 20 21  1  0  0  0  0
 21 15  1  1  0  0  0
 21 22  1  0  0  0  0
 22  6  1  6  0  0  0
M  END
>  <CHROM.1>
158.39880938,170.86519690,165.04022908,20.65693791,15.32046478,36.96358231
-0.10208411,1.22722221,1.05945726

>  <Name>
2f4s_lig

>  <RI>
0

>  <Rbt.Current_Directory>
/home/itssahil/PROJECTS/Mol_Feturizer/New_Systems/rnas/2f4s

>  <Rbt.Executable>
rbdock ($Id: //depot/dev/client3/rdock/2013.1/src/exe/rbdock.cxx#4 $)

>  <Rbt.Library>
libRbt.so (2013.1, Build901 2013/11/27)

>  <Rbt.Parameter_File>
/export/apps/rDock/src/rDock_2013.1_src/data/scripts/dock_solv.prm

>  <Rbt.Receptor>
prm/pocket_docking_8.prm

>  <SCORE>
-10.6795

>  <SCORE.INTER>
-13.1202

>  <SCORE.INTER.CONST>
1

>  <SCORE.INTER.POLAR>
-1.37148

>  <SCORE.INTER.ROT>
3

>  <SCORE.INTER.SOLV>
9.98119

>  <SCORE.INTER.VDW>
-13.1022

>  <SCORE.INTER.norm>
-0.596372

>  <SCORE.INTRA>
2.4407

>  <SCORE.INTRA.DIHEDRAL>
1.68131

>  <SCORE.INTRA.DIHEDRAL.0>
1.67653

>  <SCORE.INTRA.POLAR>
0

>  <SCORE.INTRA.POLAR.0>
0

>  <SCORE.INTRA.REPUL>
0

>  <SCORE.INTRA.REPUL.0>
0

>  <SCORE.INTRA.SOLV>
3.2755

>  <SCORE.INTRA.SOLV.lig_0>
-76.6701

>  <SCORE.INTRA.VDW>
-0.0377011

>  <SCORE.INTRA.VDW.0>
-1.53273

>  <SCORE.INTRA.norm>
0.110941

>  <SCORE.RESTR>
0

>  <SCORE.RESTR.CAVITY>
0

>  <SCORE.RESTR.norm>
0

>  <SCORE.SYSTEM>
0

>  <SCORE.SYSTEM.CONST>
0

>  <SCORE.SYSTEM.DIHEDRAL>
0

>  <SCORE.SYSTEM.SOLV>
0

>  <SCORE.SYSTEM.norm>
0

>  <SCORE.heavy>
22

>  <SCORE.norm>
-0.48543

>  <RMSD>
2.787

$$$$
2f4s_lig
 OpenBabel11021811433D
libRbt.so/2013.1/901 2013/11/27
 22 23  0  0  0  0  0  0  0  0999 V2000
   22.5894   19.7571   34.0059 N   0  0  0  0  0  0  0  0  0  0  0  0
   21.2540   14.9293   33.7150 N   0  0  0  0  0  0  0  0  0  0  0  0
   21.6692   11.6632   40.4127 N   0  0  0  0  0  0  0  0  0  0  0  0
   20.8085   17.4513   38.0082 O   0  0  0  0  0  0  0  0  0  0  0  0
   21.5898   17.2596   36.7934 C   0  0  2  0  0  0  0  0  0  0  0  0
   17.9423   15.2957   36.3014 N   0  0  0  0  0  0  0  0  0  0  0  0
   22.2813   19.6224   36.8123 O   0  0  0  0  0  0  0  0  0  0  0  0
   21.6887   18.5961   36.0077 C   0  0  1  0  0  0  0  0  0  0  0  0
   20.9240   14.9101   36.5807 O   0  0  0  0  0  0  0  0  0  0  0  0
   22.5259   18.4372   34.7445 C   0  0  1  0  0  0  0  0  0  0  0  0
   20.5623   12.6621   36.9816 O   0  0  0  0  0  0  0  0  0  0  0  0
   21.8953   17.3316   33.8318 C   0  0  0  0  0  0  0  0  0  0  0  0
   19.3473   13.0252   40.4280 O   0  0  0  0  0  0  0  0  0  0  0  0
   21.8447   15.9803   34.6433 C   0  0  1  0  0  0  0  0  0  0  0  0
   17.3215   14.3752   38.9500 O   0  0  0  0  0  0  0  0  0  0  0  0
   20.9430   16.1445   35.8802 C   0  0  2  0  0  0  0  0  0  0  0  0
   20.0187   13.8632   36.2787 C   0  0  1  0  0  0  0  0  0  0  0  0
   20.6646   12.7506   38.4657 C   0  0  2  0  0  0  0  0  0  0  0  0
   21.2657   11.4417   38.9870 C   0  0  0  0  0  0  0  0  0  0  0  0
   19.2719   12.9373   39.0249 C   0  0  2  0  0  0  0  0  0  0  0  0
   18.6446   14.1973   38.4309 C   0  0  1  0  0  0  0  0  0  0  0  0
   18.5879   14.0671   36.8889 C   0  0  1  0  0  0  0  0  0  0  0  0
  5  4  1  1  0  0  0
  5  8  1  0  0  0  0
  5 16  1  0  0  0  0
  8  7  1  1  0  0  0
  8 10  1  0  0  0  0
 10  1  1  6  0  0  0
 10 12  1  0  0  0  0
 11 18  1  0  0  0  0
 12 14  1  0  0  0  0
 14  2  1  6  0  0  0
 14 16  1  0  0  0  0
 16  9  1  1  0  0  0
 17  9  1  1  0  0  0
 17 11  1  0  0  0  0
 17 22  1  0  0  0  0
 18 19  1  1  0  0  0
 18 20  1  0  0  0  0
 19  3  1  0  0  0  0
 20 13  1  1  0  0  0
 20 21  1  0  0  0  0
 21 15  1  1  0  0  0
 21 22  1  0  0  0  0
 22  6  1  6  0  0  0
M  END
>  <CHROM.1>
156.49750445,165.73790220,166.50878846,20.60559396,15.30196749,36.96350057
0.72660753,1.13236524,0.17473789

>  <Name>
2f4s_lig

>  <RI>
2.00194e+07

>  <Rbt.Current_Directory>
/home/itssahil/PROJECTS/Mol_Feturizer/New_Systems/rnas/2f4s

>  <Rbt.Executable>
rbdock ($Id: //depot/dev/client3/rdock/2013.1/src/exe/rbdock.cxx#4 $)

>  <Rbt.Library>
libRbt.so (2013.1, Build901 2013/11/27)

>  <Rbt.Parameter_File>
/export/apps/rDock/src/rDock_2013.1_src/data/scripts/dock_solv.prm

>  <Rbt.Receptor>
prm/pocket_docking_6.prm

>  <SCORE>
-10.6869

>  <SCORE.INTER>
-13.3574

>  <SCORE.INTER.CONST>
1

>  <SCORE.INTER.POLAR>
-1.382

>  <SCORE.INTER.ROT>
3

>  <SCORE.INTER.SOLV>
10.2775

>  <SCORE.INTER.VDW>
-13.3241

>  <SCORE.INTER.norm>
-0.607155

>  <SCORE.INTRA>
2.67054

>  <SCORE.INTRA.DIHEDRAL>
2.40897

>  <SCORE.INTRA.DIHEDRAL.0>
1.67653

>  <SCORE.INTRA.POLAR>
0

>  <SCORE.INTRA.POLAR.0>
0

>  <SCORE.INTRA.REPUL>
0

>  <SCORE.INTRA.REPUL.0>
0

>  <SCORE.INTRA.SOLV>
2.98039

>  <SCORE.INTRA.SOLV.lig_0>
-76.6701

>  <SCORE.INTRA.VDW>
-0.0241351

>  <SCORE.INTRA.VDW.0>
-1.53273

>  <SCORE.INTRA.norm>
0.121388

>  <SCORE.RESTR>
0

>  <SCORE.RESTR.CAVITY>
0

>  <SCORE.RESTR.norm>
0

>  <SCORE.SYSTEM>
0

>  <SCORE.SYSTEM.CONST>
0

>  <SCORE.SYSTEM.DIHEDRAL>
0

>  <SCORE.SYSTEM.SOLV>
0

>  <SCORE.SYSTEM.norm>
0

>  <SCORE.heavy>
22

>  <SCORE.norm>
-0.485767

>  <RMSD>
2.798

$$$$
2f4s_lig
 OpenBabel11021811433D
libRbt.so/2013.1/901 2013/11/27
 22 23  0  0  0  0  0  0  0  0999 V2000
   23.1138   20.6770   35.4267 N   0  0  0  0  0  0  0  0  0  0  0  0
   21.8848   15.9064   34.4745 N   0  0  0  0  0  0  0  0  0  0  0  0
   21.3112   10.7743   38.1695 N   0  0  0  0  0  0  0  0  0  0  0  0
   20.9614   17.9410   38.9465 O   0  0  0  0  0  0  0  0  0  0  0  0
   21.8669   17.8860   37.8063 C   0  0  2  0  0  0  0  0  0  0  0  0
   18.3844   15.6623   36.3552 N   0  0  0  0  0  0  0  0  0  0  0  0
   22.5188   20.2345   38.1542 O   0  0  0  0  0  0  0  0  0  0  0  0
   22.0274   19.3009   37.1852 C   0  0  1  0  0  0  0  0  0  0  0  0
   21.2603   15.5721   37.2709 O   0  0  0  0  0  0  0  0  0  0  0  0
   22.9931   19.2839   36.0066 C   0  0  1  0  0  0  0  0  0  0  0  0
   21.1521   13.2627   37.2744 O   0  0  0  0  0  0  0  0  0  0  0  0
   22.4762   18.2833   34.9183 C   0  0  0  0  0  0  0  0  0  0  0  0
   19.1860   12.9244   40.3575 O   0  0  0  0  0  0  0  0  0  0  0  0
   22.3612   16.8510   35.5682 C   0  0  1  0  0  0  0  0  0  0  0  0
   17.3504   14.2611   38.6389 O   0  0  0  0  0  0  0  0  0  0  0  0
   21.3340   16.8759   36.7147 C   0  0  2  0  0  0  0  0  0  0  0  0
   20.6032   14.4935   36.6294 C   0  0  1  0  0  0  0  0  0  0  0  0
   20.9195   13.1203   38.7395 C   0  0  2  0  0  0  0  0  0  0  0  0
   21.5786   11.8197   39.2087 C   0  0  0  0  0  0  0  0  0  0  0  0
   19.4272   13.0572   38.9769 C   0  0  2  0  0  0  0  0  0  0  0  0
   18.7655   14.3187   38.4250 C   0  0  1  0  0  0  0  0  0  0  0  0
   19.0606   14.4346   36.9092 C   0  0  1  0  0  0  0  0  0  0  0  0
  5  4  1  1  0  0  0
  5  8  1  0  0  0  0
  5 16  1  0  0  0  0
  8  7  1  1  0  0  0
  8 10  1  0  0  0  0
 10  1  1  6  0  0  0
 10 12  1  0  0  0  0
 11 18  1  0  0  0  0
 12 14  1  0  0  0  0
 14  2  1  6  0  0  0
 14 16  1  0  0  0  0
 16  9  1  1  0  0  0
 17  9  1  1  0  0  0
 17 11  1  0  0  0  0
 17 22  1  0  0  0  0
 18 19  1  6  0  0  0
 18 20  1  0  0  0  0
 19  3  1  0  0  0  0
 20 13  1  1  0  0  0
 20 21  1  0  0  0  0
 21 15  1  6  0  0  0
 21 22  1  0  0  0  0
 22  6  1  1  0  0  0
M  END
>  <CHROM.1>
168.50281632,160.88876660,-40.95982409,20.91316989,15.76109714,37.41430193
-0.99368236,-0.84277809,-3.03325941

>  <Name>
2f4s_lig

>  <RI>
2.26097e+07

>  <Rbt.Current_Directory>
/home/itssahil/PROJECTS/Mol_Feturizer/New_Systems/rnas/2f4s

>  <Rbt.Executable>
rbdock ($Id: //depot/dev/client3/rdock/2013.1/src/exe/rbdock.cxx#4 $)

>  <Rbt.Library>
libRbt.so (2013.1, Build901 2013/11/27)

>  <Rbt.Parameter_File>
/export/apps/rDock/src/rDock_2013.1_src/data/scripts/dock_solv.prm

>  <Rbt.Receptor>
prm/pocket_docking_7.prm

>  <SCORE>
-7.05849

>  <SCORE.INTER>
-10.0607

>  <SCORE.INTER.CONST>
1

>  <SCORE.INTER.POLAR>
-1.49503

>  <SCORE.INTER.ROT>
3

>  <SCORE.INTER.SOLV>
14.1575

>  <SCORE.INTER.VDW>
-12.0429

>  <SCORE.INTER.norm>
-0.457303

>  <SCORE.INTRA>
3.00217

>  <SCORE.INTRA.DIHEDRAL>
1.92649

>  <SCORE.INTRA.DIHEDRAL.0>
1.67653

>  <SCORE.INTRA.POLAR>
0

>  <SCORE.INTRA.POLAR.0>
0

>  <SCORE.INTRA.REPUL>
0

>  <SCORE.INTRA.REPUL.0>
0

>  <SCORE.INTRA.SOLV>
3.55261

>  <SCORE.INTRA.SOLV.lig_0>
-76.6701

>  <SCORE.INTRA.VDW>
0.262624

>  <SCORE.INTRA.VDW.0>
-1.53273

>  <SCORE.INTRA.norm>
0.136462

>  <SCORE.RESTR>
0

>  <SCORE.RESTR.CAVITY>
0

>  <SCORE.RESTR.norm>
0

>  <SCORE.SYSTEM>
0

>  <SCORE.SYSTEM.CONST>
0

>  <SCORE.SYSTEM.DIHEDRAL>
0

>  <SCORE.SYSTEM.SOLV>
0

>  <SCORE.SYSTEM.norm>
0

>  <SCORE.heavy>
22

>  <SCORE.norm>
-0.32084

>  <RMSD>
2.818

$$$$
2f4s_lig
 OpenBabel11021811433D
libRbt.so/2013.1/901 2013/11/27
 22 23  0  0  0  0  0  0  0  0999 V2000
   22.2657   18.4352   32.9038 N   0  0  0  0  0  0  0  0  0  0  0  0
   19.9932   14.0627   33.8488 N   0  0  0  0  0  0  0  0  0  0  0  0
   22.0434   11.3896   39.6047 N   0  0  0  0  0  0  0  0  0  0  0  0
   21.6410   16.9478   37.5840 O   0  0  0  0  0  0  0  0  0  0  0  0
   21.8743   16.4788   36.2244 C   0  0  2  0  0  0  0  0  0  0  0  0
   17.8161   14.9018   36.0475 N   0  0  0  0  0  0  0  0  0  0  0  0
   22.9762   18.6000   35.6345 O   0  0  0  0  0  0  0  0  0  0  0  0
   21.9426   17.6862   35.2492 C   0  0  1  0  0  0  0  0  0  0  0  0
   20.7281   14.3492   36.6236 O   0  0  0  0  0  0  0  0  0  0  0  0
   22.2158   17.2317   33.8207 C   0  0  1  0  0  0  0  0  0  0  0  0
   20.1189   12.3504   37.6130 O   0  0  0  0  0  0  0  0  0  0  0  0
   21.0928   16.2418   33.3604 C   0  0  0  0  0  0  0  0  0  0  0  0
   18.8134   13.7885   40.7297 O   0  0  0  0  0  0  0  0  0  0  0  0
   21.0749   15.0106   34.3457 C   0  0  1  0  0  0  0  0  0  0  0  0
   16.9991   14.8345   38.7998 O   0  0  0  0  0  0  0  0  0  0  0  0
   20.7344   15.4836   35.7706 C   0  0  2  0  0  0  0  0  0  0  0  0
   19.7314   13.3442   36.5668 C   0  0  1  0  0  0  0  0  0  0  0  0
   20.1713   12.8494   39.0163 C   0  0  2  0  0  0  0  0  0  0  0  0
   20.6118   11.6959   39.9226 C   0  0  0  0  0  0  0  0  0  0  0  0
   18.7846   13.3108   39.4057 C   0  0  2  0  0  0  0  0  0  0  0  0
   18.3158   14.3992   38.4417 C   0  0  1  0  0  0  0  0  0  0  0  0
   18.3066   13.8398   36.9977 C   0  0  1  0  0  0  0  0  0  0  0  0
  5  4  1  1  0  0  0
  5  8  1  0  0  0  0
  5 16  1  0  0  0  0
  8  7  1  1  0  0  0
  8 10  1  0  0  0  0
 10  1  1  6  0  0  0
 10 12  1  0  0  0  0
 11 18  1  0  0  0  0
 12 14  1  0  0  0  0
 14  2  1  6  0  0  0
 14 16  1  0  0  0  0
 16  9  1  1  0  0  0
 17  9  1  1  0  0  0
 17 11  1  0  0  0  0
 17 22  1  0  0  0  0
 18 19  1  1  0  0  0
 18 20  1  0  0  0  0
 19  3  1  0  0  0  0
 20 13  1  1  0  0  0
 20 21  1  0  0  0  0
 21 15  1  1  0  0  0
 21 22  1  0  0  0  0
 22  6  1  6  0  0  0
M  END
>  <CHROM.1>
172.98935912,179.38306483,68.58184725,20.37077715,14.88164903,36.79743366
1.17481866,-0.35043374,-0.98872854

>  <Name>
2f4s_lig

>  <RI>
2.46955e+07

>  <Rbt.Current_Directory>
/home/itssahil/PROJECTS/Mol_Feturizer/New_Systems/rnas/2f4s

>  <Rbt.Executable>
rbdock ($Id: //depot/dev/client3/rdock/2013.1/src/exe/rbdock.cxx#4 $)

>  <Rbt.Library>
libRbt.so (2013.1, Build901 2013/11/27)

>  <Rbt.Parameter_File>
/export/apps/rDock/src/rDock_2013.1_src/data/scripts/dock_solv.prm

>  <Rbt.Receptor>
prm/pocket_docking_3.prm

>  <SCORE>
-11.0689

>  <SCORE.INTER>
-12.6168

>  <SCORE.INTER.CONST>
1

>  <SCORE.INTER.POLAR>
-0.979796

>  <SCORE.INTER.ROT>
3

>  <SCORE.INTER.SOLV>
11.8642

>  <SCORE.INTER.VDW>
-14.7

>  <SCORE.INTER.norm>
-0.573492

>  <SCORE.INTRA>
1.54792

>  <SCORE.INTRA.DIHEDRAL>
-1.00993

>  <SCORE.INTRA.DIHEDRAL.0>
1.67653

>  <SCORE.INTRA.POLAR>
0

>  <SCORE.INTRA.POLAR.0>
0

>  <SCORE.INTRA.REPUL>
0

>  <SCORE.INTRA.REPUL.0>
0

>  <SCORE.INTRA.SOLV>
3.70855

>  <SCORE.INTRA.SOLV.lig_0>
-76.6701

>  <SCORE.INTRA.VDW>
0.198612

>  <SCORE.INTRA.VDW.0>
-1.53273

>  <SCORE.INTRA.norm>
0.07036

>  <SCORE.RESTR>
0

>  <SCORE.RESTR.CAVITY>
0

>  <SCORE.RESTR.norm>
0

>  <SCORE.SYSTEM>
0

>  <SCORE.SYSTEM.CONST>
0

>  <SCORE.SYSTEM.DIHEDRAL>
0

>  <SCORE.SYSTEM.SOLV>
0

>  <SCORE.SYSTEM.norm>
0

>  <SCORE.heavy>
22

>  <SCORE.norm>
-0.503132

>  <RMSD>
2.883

$$$$
2f4s_lig
 OpenBabel11021811433D
libRbt.so/2013.1/901 2013/11/27
 22 23  0  0  0  0  0  0  0  0999 V2000
   22.6007   19.8345   33.9465 N   0  0  0  0  0  0  0  0  0  0  0  0
   21.2326   15.0172   33.6328 N   0  0  0  0  0  0  0  0  0  0  0  0
   22.0770   11.8527   39.4662 N   0  0  0  0  0  0  0  0  0  0  0  0
   20.9663   17.4731   37.9788 O   0  0  0  0  0  0  0  0  0  0  0  0
   21.6988   17.2974   36.7317 C   0  0  2  0  0  0  0  0  0  0  0  0
   18.2248   15.2866   35.4015 N   0  0  0  0  0  0  0  0  0  0  0  0
   22.4014   19.6569   36.7603 O   0  0  0  0  0  0  0  0  0  0  0  0
   21.7732   18.6458   35.9635 C   0  0  1  0  0  0  0  0  0  0  0  0
   21.0143   14.9543   36.5086 O   0  0  0  0  0  0  0  0  0  0  0  0
   22.5599   18.5034   34.6663 C   0  0  1  0  0  0  0  0  0  0  0  0
   20.4707   12.7980   37.1411 O   0  0  0  0  0  0  0  0  0  0  0  0
   21.8892   17.4148   33.7618 C   0  0  0  0  0  0  0  0  0  0  0  0
   18.4200   13.7024   40.0501 O   0  0  0  0  0  0  0  0  0  0  0  0
   21.8639   16.0511   34.5536 C   0  0  1  0  0  0  0  0  0  0  0  0
   16.9025   14.7977   37.9035 O   0  0  0  0  0  0  0  0  0  0  0  0
   21.0118   16.1994   35.8271 C   0  0  2  0  0  0  0  0  0  0  0  0
   20.1767   13.8715   36.1443 C   0  0  1  0  0  0  0  0  0  0  0  0
   20.1885   13.1213   38.5682 C   0  0  2  0  0  0  0  0  0  0  0  0
   20.5807   11.9126   39.4235 C   0  0  0  0  0  0  0  0  0  0  0  0
   18.7072   13.3926   38.7071 C   0  0  2  0  0  0  0  0  0  0  0  0
   18.3066   14.5414   37.7832 C   0  0  1  0  0  0  0  0  0  0  0  0
   18.6460   14.1678   36.3192 C   0  0  1  0  0  0  0  0  0  0  0  0
  5  4  1  1  0  0  0
  5  8  1  0  0  0  0
  5 16  1  0  0  0  0
  8  7  1  1  0  0  0
  8 10  1  0  0  0  0
 10  1  1  6  0  0  0
 10 12  1  0  0  0  0
 11 18  1  0  0  0  0
 12 14  1  0  0  0  0
 14  2  1  6  0  0  0
 14 16  1  0  0  0  0
 16  9  1  1  0  0  0
 17  9  1  1  0  0  0
 17 11  1  0  0  0  0
 17 22  1  0  0  0  0
 18 19  1  1  0  0  0
 18 20  1  0  0  0  0
 19  3  1  0  0  0  0
 20 13  1  1  0  0  0
 20 21  1  0  0  0  0
 21 15  1  6  0  0  0
 21 22  1  0  0  0  0
 22  6  1  6  0  0  0
M  END
>  <CHROM.1>
162.52784390,-178.10746593,72.88935139,20.51435108,15.47693120,36.73769368
-0.86735739,0.92346008,1.94515977

>  <Name>
2f4s_lig

>  <RI>
2.00194e+07

>  <Rbt.Current_Directory>
/home/itssahil/PROJECTS/Mol_Feturizer/New_Systems/rnas/2f4s

>  <Rbt.Executable>
rbdock ($Id: //depot/dev/client3/rdock/2013.1/src/exe/rbdock.cxx#4 $)

>  <Rbt.Library>
libRbt.so (2013.1, Build901 2013/11/27)

>  <Rbt.Parameter_File>
/export/apps/rDock/src/rDock_2013.1_src/data/scripts/dock_solv.prm

>  <Rbt.Receptor>
prm/pocket_docking_6.prm

>  <SCORE>
-10.6738

>  <SCORE.INTER>
-12.3795

>  <SCORE.INTER.CONST>
1

>  <SCORE.INTER.POLAR>
-1.3996

>  <SCORE.INTER.ROT>
3

>  <SCORE.INTER.SOLV>
9.35925

>  <SCORE.INTER.VDW>
-12.3074

>  <SCORE.INTER.norm>
-0.562706

>  <SCORE.INTRA>
1.70569

>  <SCORE.INTRA.DIHEDRAL>
0.476894

>  <SCORE.INTRA.DIHEDRAL.0>
1.67653

>  <SCORE.INTRA.POLAR>
0

>  <SCORE.INTRA.POLAR.0>
0

>  <SCORE.INTRA.REPUL>
0

>  <SCORE.INTRA.REPUL.0>
0

>  <SCORE.INTRA.SOLV>
3.10916

>  <SCORE.INTRA.SOLV.lig_0>
-76.6701

>  <SCORE.INTRA.VDW>
-0.0873403

>  <SCORE.INTRA.VDW.0>
-1.53273

>  <SCORE.INTRA.norm>
0.0775312

>  <SCORE.RESTR>
0

>  <SCORE.RESTR.CAVITY>
0

>  <SCORE.RESTR.norm>
0

>  <SCORE.SYSTEM>
0

>  <SCORE.SYSTEM.CONST>
0

>  <SCORE.SYSTEM.DIHEDRAL>
0

>  <SCORE.SYSTEM.SOLV>
0

>  <SCORE.SYSTEM.norm>
0

>  <SCORE.heavy>
22

>  <SCORE.norm>
-0.485175

>  <RMSD>
2.898

$$$$
2f4s_lig
 OpenBabel11021811433D
libRbt.so/2013.1/901 2013/11/27
 22 23  0  0  0  0  0  0  0  0999 V2000
   28.0158   17.9176   35.5652 N   0  0  0  0  0  0  0  0  0  0  0  0
   23.0826   18.4881   34.8481 N   0  0  0  0  0  0  0  0  0  0  0  0
   21.4550   11.7766   38.2428 N   0  0  0  0  0  0  0  0  0  0  0  0
   24.8124   15.6647   38.5933 O   0  0  0  0  0  0  0  0  0  0  0  0
   25.0157   16.1110   37.2214 C   0  0  2  0  0  0  0  0  0  0  0  0
   20.6389   16.4066   34.5610 N   0  0  0  0  0  0  0  0  0  0  0  0
   27.4565   15.9048   37.4691 O   0  0  0  0  0  0  0  0  0  0  0  0
   26.4033   16.7963   37.0846 C   0  0  1  0  0  0  0  0  0  0  0  0
   22.6186   16.4540   36.8403 O   0  0  0  0  0  0  0  0  0  0  0  0
   26.6604   17.2491   35.6525 C   0  0  1  0  0  0  0  0  0  0  0  0
   22.3713   14.1658   37.0591 O   0  0  0  0  0  0  0  0  0  0  0  0
   25.5336   18.2404   35.2045 C   0  0  0  0  0  0  0  0  0  0  0  0
   19.0805   14.2382   38.6873 O   0  0  0  0  0  0  0  0  0  0  0  0
   24.1437   17.5038   35.3175 C   0  0  1  0  0  0  0  0  0  0  0  0
   18.4859   15.3221   36.1218 O   0  0  0  0  0  0  0  0  0  0  0  0
   23.8751   17.1118   36.7819 C   0  0  2  0  0  0  0  0  0  0  0  0
   22.3161   15.2957   36.0831 C   0  0  1  0  0  0  0  0  0  0  0  0
   21.4082   14.2216   38.1951 C   0  0  2  0  0  0  0  0  0  0  0  0
   21.6435   12.9993   39.0878 C   0  0  0  0  0  0  0  0  0  0  0  0
   20.0066   14.1843   37.6283 C   0  0  2  0  0  0  0  0  0  0  0  0
   19.8091   15.3567   36.6690 C   0  0  1  0  0  0  0  0  0  0  0  0
   20.8499   15.2681   35.5257 C   0  0  1  0  0  0  0  0  0  0  0  0
  5  4  1  1  0  0  0
  5  8  1  0  0  0  0
  5 16  1  0  0  0  0
  8  7  1  6  0  0  0
  8 10  1  0  0  0  0
 10  1  1  1  0  0  0
 10 12  1  0  0  0  0
 11 18  1  0  0  0  0
 12 14  1  0  0  0  0
 14  2  1  1  0  0  0
 14 16  1  0  0  0  0
 16  9  1  6  0  0  0
 17  9  1  1  0  0  0
 17 11  1  0  0  0  0
 17 22  1  0  0  0  0
 18 19  1  1  0  0  0
 18 20  1  0  0  0  0
 19  3  1  0  0  0  0
 20 13  1  1  0  0  0
 20 21  1  0  0  0  0
 21 15  1  6  0  0  0
 21 22  1  0  0  0  0
 22  6  1  6  0  0  0
M  END
>  <CHROM.1>
-59.77684618,104.46616163,-58.34014587,22.96380006,15.73519180,36.77901735
0.44550015,-0.18668379,-0.74973019

>  <Name>
2f4s_lig

>  <RI>
2.46955e+07

>  <Rbt.Current_Directory>
/home/itssahil/PROJECTS/Mol_Feturizer/New_Systems/rnas/2f4s

>  <Rbt.Executable>
rbdock ($Id: //depot/dev/client3/rdock/2013.1/src/exe/rbdock.cxx#4 $)

>  <Rbt.Library>
libRbt.so (2013.1, Build901 2013/11/27)

>  <Rbt.Parameter_File>
/export/apps/rDock/src/rDock_2013.1_src/data/scripts/dock_solv.prm

>  <Rbt.Receptor>
prm/pocket_docking_3.prm

>  <SCORE>
-6.97363

>  <SCORE.INTER>
-11.5144

>  <SCORE.INTER.CONST>
1

>  <SCORE.INTER.POLAR>
-1.70166

>  <SCORE.INTER.ROT>
3

>  <SCORE.INTER.SOLV>
13.1533

>  <SCORE.INTER.VDW>
-11.9885

>  <SCORE.INTER.norm>
-0.523382

>  <SCORE.INTRA>
4.54078

>  <SCORE.INTRA.DIHEDRAL>
4.36942

>  <SCORE.INTRA.DIHEDRAL.0>
1.67653

>  <SCORE.INTRA.POLAR>
0

>  <SCORE.INTRA.POLAR.0>
0

>  <SCORE.INTRA.REPUL>
0

>  <SCORE.INTRA.REPUL.0>
0

>  <SCORE.INTRA.SOLV>
4.24096

>  <SCORE.INTRA.SOLV.lig_0>
-76.6701

>  <SCORE.INTRA.VDW>
0.235592

>  <SCORE.INTRA.VDW.0>
-1.53273

>  <SCORE.INTRA.norm>
0.206399

>  <SCORE.RESTR>
0

>  <SCORE.RESTR.CAVITY>
0

>  <SCORE.RESTR.norm>
0

>  <SCORE.SYSTEM>
0

>  <SCORE.SYSTEM.CONST>
0

>  <SCORE.SYSTEM.DIHEDRAL>
0

>  <SCORE.SYSTEM.SOLV>
0

>  <SCORE.SYSTEM.norm>
0

>  <SCORE.heavy>
22

>  <SCORE.norm>
-0.316983

>  <RMSD>
2.993

$$$$
2f4s_lig
 OpenBabel11021811433D
libRbt.so/2013.1/901 2013/11/27
 22 23  0  0  0  0  0  0  0  0999 V2000
   22.9108   20.5311   33.2249 N   0  0  0  0  0  0  0  0  0  0  0  0
   21.5956   15.6894   33.1600 N   0  0  0  0  0  0  0  0  0  0  0  0
   21.3961   11.3848   38.2843 N   0  0  0  0  0  0  0  0  0  0  0  0
   21.9119   18.1955   37.4739 O   0  0  0  0  0  0  0  0  0  0  0  0
   22.4612   18.0156   36.1365 C   0  0  2  0  0  0  0  0  0  0  0  0
   18.9025   15.8603   35.1870 N   0  0  0  0  0  0  0  0  0  0  0  0
   23.1196   20.3860   36.0399 O   0  0  0  0  0  0  0  0  0  0  0  0
   22.4014   19.3551   35.3518 C   0  0  1  0  0  0  0  0  0  0  0  0
   21.7926   15.6594   36.0379 O   0  0  0  0  0  0  0  0  0  0  0  0
   22.9966   19.2087   33.9567 C   0  0  1  0  0  0  0  0  0  0  0  0
   21.4008   13.4917   36.7398 O   0  0  0  0  0  0  0  0  0  0  0  0
   22.2222   18.0984   33.1690 C   0  0  0  0  0  0  0  0  0  0  0  0
   19.5865   14.3518   39.8146 O   0  0  0  0  0  0  0  0  0  0  0  0
   22.3343   16.7446   33.9701 C   0  0  1  0  0  0  0  0  0  0  0  0
   17.8350   15.3528   37.8044 O   0  0  0  0  0  0  0  0  0  0  0  0
   21.6709   16.8956   35.3511 C   0  0  2  0  0  0  0  0  0  0  0  0
   20.9721   14.5378   35.7630 C   0  0  1  0  0  0  0  0  0  0  0  0
   21.2360   13.8233   38.1834 C   0  0  2  0  0  0  0  0  0  0  0  0
   21.7553   12.6442   39.0118 C   0  0  0  0  0  0  0  0  0  0  0  0
   19.7633   14.0351   38.4542 C   0  0  2  0  0  0  0  0  0  0  0  0
   19.2319   15.1531   37.5589 C   0  0  1  0  0  0  0  0  0  0  0  0
   19.4525   14.7730   36.0740 C   0  0  1  0  0  0  0  0  0  0  0  0
  5  4  1  1  0  0  0
  5  8  1  0  0  0  0
  5 16  1  0  0  0  0
  8  7  1  1  0  0  0
  8 10  1  0  0  0  0
 10  1  1  6  0  0  0
 10 12  1  0  0  0  0
 11 18  1  0  0  0  0
 12 14  1  0  0  0  0
 14  2  1  6  0  0  0
 14 16  1  0  0  0  0
 16  9  1  1  0  0  0
 17  9  1  1  0  0  0
 17 11  1  0  0  0  0
 17 22  1  0  0  0  0
 18 19  1  1  0  0  0
 18 20  1  0  0  0  0
 19  3  1  0  0  0  0
 20 13  1  1  0  0  0
 20 21  1  0  0  0  0
 21 15  1  6  0  0  0
 21 22  1  0  0  0  0
 22  6  1  6  0  0  0
M  END
>  <CHROM.1>
165.68649823,-177.78821165,-36.55871951,21.21325443,16.09980923,36.26259392
0.23579230,1.22537785,0.72127281

>  <Name>
2f4s_lig

>  <RI>
0

>  <Rbt.Current_Directory>
/home/itssahil/PROJECTS/Mol_Feturizer/New_Systems/rnas/2f4s

>  <Rbt.Executable>
rbdock ($Id: //depot/dev/client3/rdock/2013.1/src/exe/rbdock.cxx#4 $)

>  <Rbt.Library>
libRbt.so (2013.1, Build901 2013/11/27)

>  <Rbt.Parameter_File>
/export/apps/rDock/src/rDock_2013.1_src/data/scripts/dock_solv.prm

>  <Rbt.Receptor>
prm/pocket_docking_4.prm

>  <SCORE>
-6.58995

>  <SCORE.INTER>
-9.80102

>  <SCORE.INTER.CONST>
1

>  <SCORE.INTER.POLAR>
-2.01782

>  <SCORE.INTER.ROT>
3

>  <SCORE.INTER.SOLV>
14.94

>  <SCORE.INTER.VDW>
-10.3879

>  <SCORE.INTER.norm>
-0.445501

>  <SCORE.INTRA>
3.21107

>  <SCORE.INTRA.DIHEDRAL>
1.21961

>  <SCORE.INTRA.DIHEDRAL.0>
1.67653

>  <SCORE.INTRA.POLAR>
0

>  <SCORE.INTRA.POLAR.0>
0

>  <SCORE.INTRA.REPUL>
0

>  <SCORE.INTRA.REPUL.0>
0

>  <SCORE.INTRA.SOLV>
4.82336

>  <SCORE.INTRA.SOLV.lig_0>
-76.6701

>  <SCORE.INTRA.VDW>
0.189581

>  <SCORE.INTRA.VDW.0>
-1.53273

>  <SCORE.INTRA.norm>
0.145958

>  <SCORE.RESTR>
0

>  <SCORE.RESTR.CAVITY>
0

>  <SCORE.RESTR.norm>
0

>  <SCORE.SYSTEM>
0

>  <SCORE.SYSTEM.CONST>
0

>  <SCORE.SYSTEM.DIHEDRAL>
0

>  <SCORE.SYSTEM.SOLV>
0

>  <SCORE.SYSTEM.norm>
0

>  <SCORE.heavy>
22

>  <SCORE.norm>
-0.299543

>  <RMSD>
3.061

$$$$
2f4s_lig
 OpenBabel11021811433D
libRbt.so/2013.1/901 2013/11/27
 22 23  0  0  0  0  0  0  0  0999 V2000
   26.0163   18.1251   38.7771 N   0  0  0  0  0  0  0  0  0  0  0  0
   23.0165   14.1281   38.3288 N   0  0  0  0  0  0  0  0  0  0  0  0
   18.4092   14.0058   39.5029 N   0  0  0  0  0  0  0  0  0  0  0  0
   23.1954   17.6060   34.7422 O   0  0  0  0  0  0  0  0  0  0  0  0
   23.2574   17.3400   36.1734 C   0  0  2  0  0  0  0  0  0  0  0  0
   20.7597   14.4559   33.3216 N   0  0  0  0  0  0  0  0  0  0  0  0
   24.7653   19.2570   36.5093 O   0  0  0  0  0  0  0  0  0  0  0  0
   24.6039   17.8546   36.7526 C   0  0  1  0  0  0  0  0  0  0  0  0
   21.8371   15.3500   35.9968 O   0  0  0  0  0  0  0  0  0  0  0  0
   24.6885   17.6184   38.2557 C   0  0  1  0  0  0  0  0  0  0  0  0
   21.0566   13.3844   36.9308 O   0  0  0  0  0  0  0  0  0  0  0  0
   24.5322   16.0894   38.5568 C   0  0  0  0  0  0  0  0  0  0  0  0
   17.5055   14.3173   37.0023 O   0  0  0  0  0  0  0  0  0  0  0  0
   23.1412   15.6068   37.9919 C   0  0  1  0  0  0  0  0  0  0  0  0
   18.0348   14.2505   34.2049 O   0  0  0  0  0  0  0  0  0  0  0  0
   23.1012   15.7951   36.4645 C   0  0  2  0  0  0  0  0  0  0  0  0
   21.5660   13.9991   35.6679 C   0  0  1  0  0  0  0  0  0  0  0  0
   19.8065   13.9666   37.4959 C   0  0  2  0  0  0  0  0  0  0  0  0
   19.4710   13.2233   38.7925 C   0  0  0  0  0  0  0  0  0  0  0  0
   18.6966   13.7714   36.4873 C   0  0  2  0  0  0  0  0  0  0  0  0
   19.0785   14.4394   35.1675 C   0  0  1  0  0  0  0  0  0  0  0  0
   20.3956   13.8202   34.6386 C   0  0  1  0  0  0  0  0  0  0  0  0
  5  4  1  6  0  0  0
  5  8  1  0  0  0  0
  5 16  1  0  0  0  0
  8  7  1  1  0  0  0
  8 10  1  0  0  0  0
 10  1  1  6  0  0  0
 10 12  1  0  0  0  0
 11 18  1  0  0  0  0
 12 14  1  0  0  0  0
 14  2  1  6  0  0  0
 14 16  1  0  0  0  0
 16  9  1  1  0  0  0
 17  9  1  1  0  0  0
 17 11  1  0  0  0  0
 17 22  1  0  0  0  0
 18 19  1  1  0  0  0
 18 20  1  0  0  0  0
 19  3  1  0  0  0  0
 20 13  1  1  0  0  0
 20 21  1  0  0  0  0
 21 15  1  6  0  0  0
 21 22  1  0  0  0  0
 22  6  1  6  0  0  0
M  END
>  <CHROM.1>
156.89552697,90.81292339,167.45876037,21.65034857,15.39271485,36.69171105
0.00430157,0.59709404,1.82515207

>  <Name>
2f4s_lig

>  <RI>
0

>  <Rbt.Current_Directory>
/home/itssahil/PROJECTS/Mol_Feturizer/New_Systems/rnas/2f4s

>  <Rbt.Executable>
rbdock ($Id: //depot/dev/client3/rdock/2013.1/src/exe/rbdock.cxx#4 $)

>  <Rbt.Library>
libRbt.so (2013.1, Build901 2013/11/27)

>  <Rbt.Parameter_File>
/export/apps/rDock/src/rDock_2013.1_src/data/scripts/dock_solv.prm

>  <Rbt.Receptor>
prm/pocket_docking_4.prm

>  <SCORE>
-6.29547

>  <SCORE.INTER>
-10.8708

>  <SCORE.INTER.CONST>
1

>  <SCORE.INTER.POLAR>
-1.38653

>  <SCORE.INTER.ROT>
3

>  <SCORE.INTER.SOLV>
14.6496

>  <SCORE.INTER.VDW>
-13.1087

>  <SCORE.INTER.norm>
-0.494129

>  <SCORE.INTRA>
4.57536

>  <SCORE.INTRA.DIHEDRAL>
4.96059

>  <SCORE.INTRA.DIHEDRAL.0>
1.67653

>  <SCORE.INTRA.POLAR>
0

>  <SCORE.INTRA.POLAR.0>
0

>  <SCORE.INTRA.REPUL>
0

>  <SCORE.INTRA.REPUL.0>
0

>  <SCORE.INTRA.SOLV>
3.59857

>  <SCORE.INTRA.SOLV.lig_0>
-76.6701

>  <SCORE.INTRA.VDW>
0.295783

>  <SCORE.INTRA.VDW.0>
-1.53273

>  <SCORE.INTRA.norm>
0.207971

>  <SCORE.RESTR>
0

>  <SCORE.RESTR.CAVITY>
0

>  <SCORE.RESTR.norm>
0

>  <SCORE.SYSTEM>
0

>  <SCORE.SYSTEM.CONST>
0

>  <SCORE.SYSTEM.DIHEDRAL>
0

>  <SCORE.SYSTEM.SOLV>
0

>  <SCORE.SYSTEM.norm>
0

>  <SCORE.heavy>
22

>  <SCORE.norm>
-0.286158

>  <RMSD>
3.132

$$$$
2f4s_lig
 OpenBabel11021811433D
libRbt.so/2013.1/901 2013/11/27
 22 23  0  0  0  0  0  0  0  0999 V2000
   21.7494   19.9643   33.3374 N   0  0  0  0  0  0  0  0  0  0  0  0
   21.0121   15.0012   33.3470 N   0  0  0  0  0  0  0  0  0  0  0  0
   21.6676   11.5194   38.2654 N   0  0  0  0  0  0  0  0  0  0  0  0
   19.8333   17.7691   37.3395 O   0  0  0  0  0  0  0  0  0  0  0  0
   20.7545   17.5826   36.2262 C   0  0  2  0  0  0  0  0  0  0  0  0
   17.4363   15.3767   35.5580 N   0  0  0  0  0  0  0  0  0  0  0  0
   21.1657   20.0069   36.1027 O   0  0  0  0  0  0  0  0  0  0  0  0
   20.7820   18.8575   35.3388 C   0  0  1  0  0  0  0  0  0  0  0  0
   20.3875   15.1599   36.1589 O   0  0  0  0  0  0  0  0  0  0  0  0
   21.7599   18.7066   34.1799 C   0  0  1  0  0  0  0  0  0  0  0  0
   20.0475   12.9899   36.8804 O   0  0  0  0  0  0  0  0  0  0  0  0
   21.3590   17.4658   33.3123 C   0  0  0  0  0  0  0  0  0  0  0  0
   18.5049   13.8401   40.1027 O   0  0  0  0  0  0  0  0  0  0  0  0
   21.3782   16.1843   34.2312 C   0  0  1  0  0  0  0  0  0  0  0  0
   16.5932   14.8589   38.2541 O   0  0  0  0  0  0  0  0  0  0  0  0
   20.3388   16.3304   35.3574 C   0  0  2  0  0  0  0  0  0  0  0  0
   19.5417   14.0431   35.9490 C   0  0  1  0  0  0  0  0  0  0  0  0
   20.0075   13.3142   38.3344 C   0  0  2  0  0  0  0  0  0  0  0  0
   20.5903   12.1286   39.1096 C   0  0  0  0  0  0  0  0  0  0  0  0
   18.5640   13.5302   38.7307 C   0  0  2  0  0  0  0  0  0  0  0  0
   17.9633   14.6551   37.8896 C   0  0  1  0  0  0  0  0  0  0  0  0
   18.0551   14.2824   36.3894 C   0  0  1  0  0  0  0  0  0  0  0  0
  5  4  1  1  0  0  0
  5  8  1  0  0  0  0
  5 16  1  0  0  0  0
  8  7  1  1  0  0  0
  8 10  1  0  0  0  0
 10  1  1  6  0  0  0
 10 12  1  0  0  0  0
 11 18  1  0  0  0  0
 12 14  1  0  0  0  0
 14  2  1  6  0  0  0
 14 16  1  0  0  0  0
 16  9  1  1  0  0  0
 17  9  1  1  0  0  0
 17 11  1  0  0  0  0
 17 22  1  0  0  0  0
 18 19  1  1  0  0  0
 18 20  1  0  0  0  0
 19  3  1  0  0  0  0
 20 13  1  1  0  0  0
 20 21  1  0  0  0  0
 21 15  1  1  0  0  0
 21 22  1  0  0  0  0
 22  6  1  6  0  0  0
M  END
>  <CHROM.1>
149.60679144,172.72866797,33.61791450,19.95763373,15.61832026,36.42741289
-1.13158994,-0.78957708,2.82672953

>  <Name>
2f4s_lig

>  <RI>
0

>  <Rbt.Current_Directory>
/home/itssahil/PROJECTS/Mol_Feturizer/New_Systems/rnas/2f4s

>  <Rbt.Executable>
rbdock ($Id: //depot/dev/client3/rdock/2013.1/src/exe/rbdock.cxx#4 $)

>  <Rbt.Library>
libRbt.so (2013.1, Build901 2013/11/27)

>  <Rbt.Parameter_File>
/export/apps/rDock/src/rDock_2013.1_src/data/scripts/dock_solv.prm

>  <Rbt.Receptor>
prm/pocket_docking_5.prm

>  <SCORE>
-11.8726

>  <SCORE.INTER>
-15.2565

>  <SCORE.INTER.CONST>
1

>  <SCORE.INTER.POLAR>
-2.22727

>  <SCORE.INTER.ROT>
3

>  <SCORE.INTER.SOLV>
13.3172

>  <SCORE.INTER.VDW>
-12.7858

>  <SCORE.INTER.norm>
-0.693477

>  <SCORE.INTRA>
3.3839

>  <SCORE.INTRA.DIHEDRAL>
4.49718

>  <SCORE.INTRA.DIHEDRAL.0>
1.67653

>  <SCORE.INTRA.POLAR>
0

>  <SCORE.INTRA.POLAR.0>
0

>  <SCORE.INTRA.REPUL>
0

>  <SCORE.INTRA.REPUL.0>
0

>  <SCORE.INTRA.SOLV>
2.43121

>  <SCORE.INTRA.SOLV.lig_0>
-76.6701

>  <SCORE.INTRA.VDW>
-0.0802906

>  <SCORE.INTRA.VDW.0>
-1.53273

>  <SCORE.INTRA.norm>
0.153814

>  <SCORE.RESTR>
0

>  <SCORE.RESTR.CAVITY>
0

>  <SCORE.RESTR.norm>
0

>  <SCORE.SYSTEM>
0

>  <SCORE.SYSTEM.CONST>
0

>  <SCORE.SYSTEM.DIHEDRAL>
0

>  <SCORE.SYSTEM.SOLV>
0

>  <SCORE.SYSTEM.norm>
0

>  <SCORE.heavy>
22

>  <SCORE.norm>
-0.539663

>  <RMSD>
3.292

$$$$
2f4s_lig
 OpenBabel11021811433D
libRbt.so/2013.1/901 2013/11/27
 22 23  0  0  0  0  0  0  0  0999 V2000
   19.0144   17.9385   34.3145 N   0  0  0  0  0  0  0  0  0  0  0  0
   19.7521   16.3863   39.0286 N   0  0  0  0  0  0  0  0  0  0  0  0
   23.4003   10.2200   40.4044 N   0  0  0  0  0  0  0  0  0  0  0  0
   21.7095   13.8759   35.1741 O   0  0  0  0  0  0  0  0  0  0  0  0
   20.5818   14.6609   35.6590 C   0  0  2  0  0  0  0  0  0  0  0  0
   18.1948   14.1403   39.2429 N   0  0  0  0  0  0  0  0  0  0  0  0
   20.1474   15.5187   33.3925 O   0  0  0  0  0  0  0  0  0  0  0  0
   20.3712   15.9055   34.7535 C   0  0  1  0  0  0  0  0  0  0  0  0
   20.9344   13.9709   37.9846 O   0  0  0  0  0  0  0  0  0  0  0  0
   19.1787   16.7337   35.2163 C   0  0  1  0  0  0  0  0  0  0  0  0
   20.8136   11.6656   38.1109 O   0  0  0  0  0  0  0  0  0  0  0  0
   19.3985   17.1884   36.6988 C   0  0  0  0  0  0  0  0  0  0  0  0
   21.4327   11.3952   41.7205 O   0  0  0  0  0  0  0  0  0  0  0  0
   19.5699   15.9036   37.5971 C   0  0  1  0  0  0  0  0  0  0  0  0
   18.9437   12.7778   41.6576 O   0  0  0  0  0  0  0  0  0  0  0  0
   20.8160   15.1156   37.1537 C   0  0  2  0  0  0  0  0  0  0  0  0
   19.9965   12.9093   37.9770 C   0  0  1  0  0  0  0  0  0  0  0  0
   21.6263   11.5353   39.3533 C   0  0  2  0  0  0  0  0  0  0  0  0
   22.4050   10.2181   39.2847 C   0  0  0  0  0  0  0  0  0  0  0  0
   20.6829   11.5160   40.5351 C   0  0  2  0  0  0  0  0  0  0  0  0
   19.8459   12.7939   40.5452 C   0  0  1  0  0  0  0  0  0  0  0  0
   19.0446   12.8958   39.2240 C   0  0  1  0  0  0  0  0  0  0  0  0
  5  4  1  6  0  0  0
  5  8  1  0  0  0  0
  5 16  1  0  0  0  0
  8  7  1  6  0  0  0
  8 10  1  0  0  0  0
 10  1  1  6  0  0  0
 10 12  1  0  0  0  0
 11 18  1  0  0  0  0
 12 14  1  0  0  0  0
 14  2  1  1  0  0  0
 14 16  1  0  0  0  0
 16  9  1  1  0  0  0
 17  9  1  1  0  0  0
 17 11  1  0  0  0  0
 17 22  1  0  0  0  0
 18 19  1  6  0  0  0
 18 20  1  0  0  0  0
 19  3  1  0  0  0  0
 20 13  1  1  0  0  0
 20 21  1  0  0  0  0
 21 15  1  1  0  0  0
 21 22  1  0  0  0  0
 22  6  1  1  0  0  0
M  END
>  <CHROM.1>
-50.58889955,140.80719370,169.67112442,20.37507089,13.84579733,37.96271050
1.85833864,0.85299448,-1.04058491

>  <Name>
2f4s_lig

>  <RI>
2.26097e+07

>  <Rbt.Current_Directory>
/home/itssahil/PROJECTS/Mol_Feturizer/New_Systems/rnas/2f4s

>  <Rbt.Executable>
rbdock ($Id: //depot/dev/client3/rdock/2013.1/src/exe/rbdock.cxx#4 $)

>  <Rbt.Library>
libRbt.so (2013.1, Build901 2013/11/27)

>  <Rbt.Parameter_File>
/export/apps/rDock/src/rDock_2013.1_src/data/scripts/dock_solv.prm

>  <Rbt.Receptor>
prm/pocket_docking_7.prm

>  <SCORE>
-6.37819

>  <SCORE.INTER>
-12.3538

>  <SCORE.INTER.CONST>
1

>  <SCORE.INTER.POLAR>
-0.979796

>  <SCORE.INTER.ROT>
3

>  <SCORE.INTER.SOLV>
13.3708

>  <SCORE.INTER.VDW>
-15.0268

>  <SCORE.INTER.norm>
-0.561537

>  <SCORE.INTRA>
5.96664

>  <SCORE.INTRA.DIHEDRAL>
4.37147

>  <SCORE.INTRA.DIHEDRAL.0>
1.67653

>  <SCORE.INTRA.POLAR>
0

>  <SCORE.INTRA.POLAR.0>
0

>  <SCORE.INTRA.REPUL>
0

>  <SCORE.INTRA.REPUL.0>
0

>  <SCORE.INTRA.SOLV>
5.82509

>  <SCORE.INTRA.SOLV.lig_0>
-76.6701

>  <SCORE.INTRA.VDW>
0.868367

>  <SCORE.INTRA.VDW.0>
-1.53273

>  <SCORE.INTRA.norm>
0.271211

>  <SCORE.RESTR>
0.00898997

>  <SCORE.RESTR.CAVITY>
0.00898997

>  <SCORE.RESTR.norm>
0.000408635

>  <SCORE.SYSTEM>
0

>  <SCORE.SYSTEM.CONST>
0

>  <SCORE.SYSTEM.DIHEDRAL>
0

>  <SCORE.SYSTEM.SOLV>
0

>  <SCORE.SYSTEM.norm>
0

>  <SCORE.heavy>
22

>  <SCORE.norm>
-0.289918

>  <RMSD>
3.370

$$$$
2f4s_lig
 OpenBabel11021811433D
libRbt.so/2013.1/901 2013/11/27
 22 23  0  0  0  0  0  0  0  0999 V2000
   18.8548   18.9316   32.7908 N   0  0  0  0  0  0  0  0  0  0  0  0
   20.0196   17.3211   37.3979 N   0  0  0  0  0  0  0  0  0  0  0  0
   21.7554   11.8846   40.3185 N   0  0  0  0  0  0  0  0  0  0  0  0
   20.8804   14.4549   33.3936 O   0  0  0  0  0  0  0  0  0  0  0  0
   19.9994   15.4375   34.0110 C   0  0  2  0  0  0  0  0  0  0  0  0
   17.5792   15.0848   36.2746 N   0  0  0  0  0  0  0  0  0  0  0  0
   19.3817   16.3361   31.8036 O   0  0  0  0  0  0  0  0  0  0  0  0
   19.8777   16.6901   33.1000 C   0  0  1  0  0  0  0  0  0  0  0  0
   20.5765   14.7196   36.2826 O   0  0  0  0  0  0  0  0  0  0  0  0
   18.9380   17.7267   33.7035 C   0  0  1  0  0  0  0  0  0  0  0  0
   20.2742   12.5256   36.9458 O   0  0  0  0  0  0  0  0  0  0  0  0
   19.4608   18.1494   35.1181 C   0  0  0  0  0  0  0  0  0  0  0  0
   19.4180   13.2432   40.4440 O   0  0  0  0  0  0  0  0  0  0  0  0
   19.5361   16.8645   36.0294 C   0  0  1  0  0  0  0  0  0  0  0  0
   17.2412   14.4419   39.0531 O   0  0  0  0  0  0  0  0  0  0  0  0
   20.5381   15.8578   35.4354 C   0  0  2  0  0  0  0  0  0  0  0  0
   19.6525   13.6505   36.1839 C   0  0  1  0  0  0  0  0  0  0  0  0
   20.5282   12.7649   38.3947 C   0  0  2  0  0  0  0  0  0  0  0  0
   21.1891   11.5141   38.9819 C   0  0  0  0  0  0  0  0  0  0  0  0
   19.1991   13.0126   39.0726 C   0  0  2  0  0  0  0  0  0  0  0  0
   18.5050   14.2074   38.4211 C   0  0  1  0  0  0  0  0  0  0  0  0
   18.2907   13.9205   36.9145 C   0  0  1  0  0  0  0  0  0  0  0  0
  5  4  1  6  0  0  0
  5  8  1  0  0  0  0
  5 16  1  0  0  0  0
  8  7  1  6  0  0  0
  8 10  1  0  0  0  0
 10  1  1  6  0  0  0
 10 12  1  0  0  0  0
 11 18  1  0  0  0  0
 12 14  1  0  0  0  0
 14  2  1  1  0  0  0
 14 16  1  0  0  0  0
 16  9  1  1  0  0  0
 17  9  1  1  0  0  0
 17 11  1  0  0  0  0
 17 22  1  0  0  0  0
 18 19  1  1  0  0  0
 18 20  1  0  0  0  0
 19  3  1  0  0  0  0
 20 13  1  1  0  0  0
 20 21  1  0  0  0  0
 21 15  1  1  0  0  0
 21 22  1  0  0  0  0
 22  6  1  6  0  0  0
M  END
>  <CHROM.1>
-32.17157833,163.82537196,165.59888465,19.62655888,14.91517225,36.37279781
1.67943514,0.90517355,-1.00726165

>  <Name>
2f4s_lig

>  <RI>
2.26097e+07

>  <Rbt.Current_Directory>
/home/itssahil/PROJECTS/Mol_Feturizer/New_Systems/rnas/2f4s

>  <Rbt.Executable>
rbdock ($Id: //depot/dev/client3/rdock/2013.1/src/exe/rbdock.cxx#4 $)

>  <Rbt.Library>
libRbt.so (2013.1, Build901 2013/11/27)

>  <Rbt.Parameter_File>
/export/apps/rDock/src/rDock_2013.1_src/data/scripts/dock_solv.prm

>  <Rbt.Receptor>
prm/pocket_docking_7.prm

>  <SCORE>
-8.08919

>  <SCORE.INTER>
-14.1551

>  <SCORE.INTER.CONST>
1

>  <SCORE.INTER.POLAR>
-1.50077

>  <SCORE.INTER.ROT>
3

>  <SCORE.INTER.SOLV>
8.572

>  <SCORE.INTER.VDW>
-12.8915

>  <SCORE.INTER.norm>
-0.643415

>  <SCORE.INTRA>
6.06595

>  <SCORE.INTRA.DIHEDRAL>
3.52684

>  <SCORE.INTRA.DIHEDRAL.0>
1.67653

>  <SCORE.INTRA.POLAR>
0

>  <SCORE.INTRA.POLAR.0>
0

>  <SCORE.INTRA.REPUL>
0

>  <SCORE.INTRA.REPUL.0>
0

>  <SCORE.INTRA.SOLV>
6.28796

>  <SCORE.INTRA.SOLV.lig_0>
-76.6701

>  <SCORE.INTRA.VDW>
1.15855

>  <SCORE.INTRA.VDW.0>
-1.53273

>  <SCORE.INTRA.norm>
0.275725

>  <SCORE.RESTR>
0

>  <SCORE.RESTR.CAVITY>
0

>  <SCORE.RESTR.norm>
0

>  <SCORE.SYSTEM>
0

>  <SCORE.SYSTEM.CONST>
0

>  <SCORE.SYSTEM.DIHEDRAL>
0

>  <SCORE.SYSTEM.SOLV>
0

>  <SCORE.SYSTEM.norm>
0

>  <SCORE.heavy>
22

>  <SCORE.norm>
-0.367691

>  <RMSD>
3.479

$$$$
2f4s_lig
 OpenBabel11021811433D
libRbt.so/2013.1/901 2013/11/27
 22 23  0  0  0  0  0  0  0  0999 V2000
   25.0942   18.9119   39.7905 N   0  0  0  0  0  0  0  0  0  0  0  0
   20.5413   17.4436   38.2771 N   0  0  0  0  0  0  0  0  0  0  0  0
   20.5027   13.1662   39.5782 N   0  0  0  0  0  0  0  0  0  0  0  0
   24.6596   15.2153   36.5266 O   0  0  0  0  0  0  0  0  0  0  0  0
   24.0568   16.4646   36.9724 C   0  0  2  0  0  0  0  0  0  0  0  0
   21.3727   15.0381   33.3988 N   0  0  0  0  0  0  0  0  0  0  0  0
   26.2339   17.2758   37.7871 O   0  0  0  0  0  0  0  0  0  0  0  0
   24.8685   17.0536   38.1589 C   0  0  1  0  0  0  0  0  0  0  0  0
   21.8053   15.7704   36.2960 O   0  0  0  0  0  0  0  0  0  0  0  0
   24.2809   18.3780   38.6307 C   0  0  1  0  0  0  0  0  0  0  0  0
   21.3847   13.5734   36.8799 O   0  0  0  0  0  0  0  0  0  0  0  0
   22.7899   18.1676   39.0616 C   0  0  0  0  0  0  0  0  0  0  0  0
   17.7424   13.6931   36.4269 O   0  0  0  0  0  0  0  0  0  0  0  0
   21.9854   17.6068   37.8265 C   0  0  1  0  0  0  0  0  0  0  0  0
   18.6750   14.1263   33.7712 O   0  0  0  0  0  0  0  0  0  0  0  0
   22.5546   16.2393   37.4066 C   0  0  2  0  0  0  0  0  0  0  0  0
   21.9128   14.4509   35.7921 C   0  0  1  0  0  0  0  0  0  0  0  0
   19.9636   13.7869   37.2747 C   0  0  2  0  0  0  0  0  0  0  0  0
   19.6280   12.8182   38.4128 C   0  0  0  0  0  0  0  0  0  0  0  0
   19.0909   13.4949   36.0745 C   0  0  2  0  0  0  0  0  0  0  0  0
   19.4922   14.4040   34.9142 C   0  0  1  0  0  0  0  0  0  0  0  0
   20.9812   14.1643   34.5627 C   0  0  1  0  0  0  0  0  0  0  0  0
  5  4  1  1  0  0  0
  5  8  1  0  0  0  0
  5 16  1  0  0  0  0
  8  7  1  6  0  0  0
  8 10  1  0  0  0  0
 10  1  1  1  0  0  0
 10 12  1  0  0  0  0
 11 18  1  0  0  0  0
 12 14  1  0  0  0  0
 14  2  1  1  0  0  0
 14 16  1  0  0  0  0
 16  9  1  6  0  0  0
 17  9  1  1  0  0  0
 17 11  1  0  0  0  0
 17 22  1  0  0  0  0
 18 19  1  1  0  0  0
 18 20  1  0  0  0  0
 19  3  1  0  0  0  0
 20 13  1  1  0  0  0
 20 21  1  0  0  0  0
 21 15  1  6  0  0  0
 21 22  1  0  0  0  0
 22  6  1  6  0  0  0
M  END
>  <CHROM.1>
73.86258968,65.78303539,62.83216050,21.79497096,15.48616936,36.97199040,0.51030479
0.55831935,1.34957431

>  <Name>
2f4s_lig

>  <RI>
0

>  <Rbt.Current_Directory>
/home/itssahil/PROJECTS/Mol_Feturizer/New_Systems/rnas/2f4s

>  <Rbt.Executable>
rbdock ($Id: //depot/dev/client3/rdock/2013.1/src/exe/rbdock.cxx#4 $)

>  <Rbt.Library>
libRbt.so (2013.1, Build901 2013/11/27)

>  <Rbt.Parameter_File>
/export/apps/rDock/src/rDock_2013.1_src/data/scripts/dock_solv.prm

>  <Rbt.Receptor>
prm/pocket_docking_5.prm

>  <SCORE>
-6.99751

>  <SCORE.INTER>
-6.73665

>  <SCORE.INTER.CONST>
1

>  <SCORE.INTER.POLAR>
-0.864049

>  <SCORE.INTER.ROT>
3

>  <SCORE.INTER.SOLV>
10.9387

>  <SCORE.INTER.VDW>
-10.8572

>  <SCORE.INTER.norm>
-0.306211

>  <SCORE.INTRA>
-0.26086

>  <SCORE.INTRA.DIHEDRAL>
-0.427695

>  <SCORE.INTRA.DIHEDRAL.0>
1.67653

>  <SCORE.INTRA.POLAR>
0

>  <SCORE.INTRA.POLAR.0>
0

>  <SCORE.INTRA.REPUL>
0

>  <SCORE.INTRA.REPUL.0>
0

>  <SCORE.INTRA.SOLV>
0.16658

>  <SCORE.INTRA.SOLV.lig_0>
-76.6701

>  <SCORE.INTRA.VDW>
-0.130303

>  <SCORE.INTRA.VDW.0>
-1.53273

>  <SCORE.INTRA.norm>
-0.0118573

>  <SCORE.RESTR>
0

>  <SCORE.RESTR.CAVITY>
0

>  <SCORE.RESTR.norm>
0

>  <SCORE.SYSTEM>
0

>  <SCORE.SYSTEM.CONST>
0

>  <SCORE.SYSTEM.DIHEDRAL>
0

>  <SCORE.SYSTEM.SOLV>
0

>  <SCORE.SYSTEM.norm>
0

>  <SCORE.heavy>
22

>  <SCORE.norm>
-0.318069

>  <RMSD>
3.502

$$$$
2f4s_lig
 OpenBabel11021811433D
libRbt.so/2013.1/901 2013/11/27
 22 23  0  0  0  0  0  0  0  0999 V2000
   18.9509   18.7191   32.5279 N   0  0  0  0  0  0  0  0  0  0  0  0
   19.8472   17.4448   37.2975 N   0  0  0  0  0  0  0  0  0  0  0  0
   22.1219   11.7937   39.1900 N   0  0  0  0  0  0  0  0  0  0  0  0
   20.9263   14.2998   33.5646 O   0  0  0  0  0  0  0  0  0  0  0  0
   20.0143   15.3231   34.0587 C   0  0  2  0  0  0  0  0  0  0  0  0
   17.4939   15.0868   35.9316 N   0  0  0  0  0  0  0  0  0  0  0  0
   19.5258   16.0601   31.7609 O   0  0  0  0  0  0  0  0  0  0  0  0
   19.9482   16.5068   33.0548 C   0  0  1  0  0  0  0  0  0  0  0  0
   20.4592   14.7707   36.4051 O   0  0  0  0  0  0  0  0  0  0  0  0
   18.9787   17.5830   33.5279 C   0  0  1  0  0  0  0  0  0  0  0  0
   20.0599   12.6754   37.2969 O   0  0  0  0  0  0  0  0  0  0  0  0
   19.4214   18.1067   34.9360 C   0  0  0  0  0  0  0  0  0  0  0  0
   18.7233   13.8223   40.5193 O   0  0  0  0  0  0  0  0  0  0  0  0
   19.4410   16.8906   35.9399 C   0  0  1  0  0  0  0  0  0  0  0  0
   16.7671   14.8001   38.6952 O   0  0  0  0  0  0  0  0  0  0  0  0
   20.4723   15.8452   35.4777 C   0  0  2  0  0  0  0  0  0  0  0  0
   19.5548   13.6840   36.3171 C   0  0  1  0  0  0  0  0  0  0  0  0
   20.1087   13.1022   38.7240 C   0  0  2  0  0  0  0  0  0  0  0  0
   20.6767   11.9469   39.5540 C   0  0  0  0  0  0  0  0  0  0  0  0
   18.6984   13.4146   39.1720 C   0  0  2  0  0  0  0  0  0  0  0  0
   18.1063   14.5056   38.2814 C   0  0  1  0  0  0  0  0  0  0  0  0
   18.1048   14.0249   36.8094 C   0  0  1  0  0  0  0  0  0  0  0  0
  5  4  1  6  0  0  0
  5  8  1  0  0  0  0
  5 16  1  0  0  0  0
  8  7  1  6  0  0  0
  8 10  1  0  0  0  0
 10  1  1  6  0  0  0
 10 12  1  0  0  0  0
 11 18  1  0  0  0  0
 12 14  1  0  0  0  0
 14  2  1  1  0  0  0
 14 16  1  0  0  0  0
 16  9  1  1  0  0  0
 17  9  1  1  0  0  0
 17 11  1  0  0  0  0
 17 22  1  0  0  0  0
 18 19  1  1  0  0  0
 18 20  1  0  0  0  0
 19  3  1  0  0  0  0
 20 13  1  1  0  0  0
 20 21  1  0  0  0  0
 21 15  1  1  0  0  0
 21 22  1  0  0  0  0
 22  6  1  6  0  0  0
M  END
>  <CHROM.1>
-31.00745351,168.94561881,68.87560909,19.47458238,14.99260428,36.32812662
1.58969388,0.78815784,-0.98714332

>  <Name>
2f4s_lig

>  <RI>
0

>  <Rbt.Current_Directory>
/home/itssahil/PROJECTS/Mol_Feturizer/New_Systems/rnas/2f4s

>  <Rbt.Executable>
rbdock ($Id: //depot/dev/client3/rdock/2013.1/src/exe/rbdock.cxx#4 $)

>  <Rbt.Library>
libRbt.so (2013.1, Build901 2013/11/27)

>  <Rbt.Parameter_File>
/export/apps/rDock/src/rDock_2013.1_src/data/scripts/dock_solv.prm

>  <Rbt.Receptor>
prm/pocket_docking_8.prm

>  <SCORE>
-8.63445

>  <SCORE.INTER>
-13.8342

>  <SCORE.INTER.CONST>
1

>  <SCORE.INTER.POLAR>
-1.40753

>  <SCORE.INTER.ROT>
3

>  <SCORE.INTER.SOLV>
9.26527

>  <SCORE.INTER.VDW>
-13.2194

>  <SCORE.INTER.norm>
-0.628825

>  <SCORE.INTRA>
5.19971

>  <SCORE.INTRA.DIHEDRAL>
2.71439

>  <SCORE.INTRA.DIHEDRAL.0>
1.67653

>  <SCORE.INTRA.POLAR>
0

>  <SCORE.INTRA.POLAR.0>
0

>  <SCORE.INTRA.REPUL>
0

>  <SCORE.INTRA.REPUL.0>
0

>  <SCORE.INTRA.SOLV>
5.58535

>  <SCORE.INTRA.SOLV.lig_0>
-76.6701

>  <SCORE.INTRA.VDW>
1.04984

>  <SCORE.INTRA.VDW.0>
-1.53273

>  <SCORE.INTRA.norm>
0.23635

>  <SCORE.RESTR>
0

>  <SCORE.RESTR.CAVITY>
0

>  <SCORE.RESTR.norm>
0

>  <SCORE.SYSTEM>
0

>  <SCORE.SYSTEM.CONST>
0

>  <SCORE.SYSTEM.DIHEDRAL>
0

>  <SCORE.SYSTEM.SOLV>
0

>  <SCORE.SYSTEM.norm>
0

>  <SCORE.heavy>
22

>  <SCORE.norm>
-0.392475

>  <RMSD>
3.526

$$$$
2f4s_lig
 OpenBabel11021811433D
libRbt.so/2013.1/901 2013/11/27
 22 23  0  0  0  0  0  0  0  0999 V2000
   21.2660   17.9383   31.1784 N   0  0  0  0  0  0  0  0  0  0  0  0
   19.2373   13.7319   33.0131 N   0  0  0  0  0  0  0  0  0  0  0  0
   21.5959   11.3507   38.2752 N   0  0  0  0  0  0  0  0  0  0  0  0
   20.9751   17.2799   36.0762 O   0  0  0  0  0  0  0  0  0  0  0  0
   21.1492   16.5863   34.8068 C   0  0  2  0  0  0  0  0  0  0  0  0
   17.1461   15.0547   35.5843 N   0  0  0  0  0  0  0  0  0  0  0  0
   22.1253   18.6037   33.7876 O   0  0  0  0  0  0  0  0  0  0  0  0
   21.1104   17.6045   33.6341 C   0  0  1  0  0  0  0  0  0  0  0  0
   20.1182   14.5255   35.6430 O   0  0  0  0  0  0  0  0  0  0  0  0
   21.3196   16.9142   32.2919 C   0  0  1  0  0  0  0  0  0  0  0  0
   19.7209   12.6201   36.8906 O   0  0  0  0  0  0  0  0  0  0  0  0
   20.2144   15.8241   32.0837 C   0  0  0  0  0  0  0  0  0  0  0  0
   19.0187   14.3205   40.0689 O   0  0  0  0  0  0  0  0  0  0  0  0
   20.3051   14.7858   33.2672 C   0  0  1  0  0  0  0  0  0  0  0  0
   16.8649   15.2206   38.4375 O   0  0  0  0  0  0  0  0  0  0  0  0
   20.0278   15.4916   34.6070 C   0  0  2  0  0  0  0  0  0  0  0  0
   19.1357   13.5281   35.8584 C   0  0  1  0  0  0  0  0  0  0  0  0
   20.0343   13.2321   38.2128 C   0  0  2  0  0  0  0  0  0  0  0  0
   20.6463   12.1529   39.1112 C   0  0  0  0  0  0  0  0  0  0  0  0
   18.7432   13.7360   38.8181 C   0  0  2  0  0  0  0  0  0  0  0  0
   18.0931   14.7458   37.8739 C   0  0  1  0  0  0  0  0  0  0  0  0
   17.8148   14.0700   36.5087 C   0  0  1  0  0  0  0  0  0  0  0  0
  5  4  1  1  0  0  0
  5  8  1  0  0  0  0
  5 16  1  0  0  0  0
  8  7  1  1  0  0  0
  8 10  1  0  0  0  0
 10  1  1  6  0  0  0
 10 12  1  0  0  0  0
 11 18  1  0  0  0  0
 12 14  1  0  0  0  0
 14  2  1  6  0  0  0
 14 16  1  0  0  0  0
 16  9  1  1  0  0  0
 17  9  1  1  0  0  0
 17 11  1  0  0  0  0
 17 22  1  0  0  0  0
 18 19  1  1  0  0  0
 18 20  1  0  0  0  0
 19  3  1  0  0  0  0
 20 13  1  1  0  0  0
 20 21  1  0  0  0  0
 21 15  1  1  0  0  0
 21 22  1  0  0  0  0
 22  6  1  6  0  0  0
M  END
>  <CHROM.1>
170.40609194,171.67152413,41.50990672,19.84903067,14.98335596,35.77499540
-1.08202390,-0.97801826,2.56527918

>  <Name>
2f4s_lig

>  <RI>
0

>  <Rbt.Current_Directory>
/home/itssahil/PROJECTS/Mol_Feturizer/New_Systems/rnas/2f4s

>  <Rbt.Executable>
rbdock ($Id: //depot/dev/client3/rdock/2013.1/src/exe/rbdock.cxx#4 $)

>  <Rbt.Library>
libRbt.so (2013.1, Build901 2013/11/27)

>  <Rbt.Parameter_File>
/export/apps/rDock/src/rDock_2013.1_src/data/scripts/dock_solv.prm

>  <Rbt.Receptor>
prm/pocket_docking_5.prm

>  <SCORE>
-11.2715

>  <SCORE.INTER>
-13.332

>  <SCORE.INTER.CONST>
1

>  <SCORE.INTER.POLAR>
-1.55103

>  <SCORE.INTER.ROT>
3

>  <SCORE.INTER.SOLV>
13.3363

>  <SCORE.INTER.VDW>
-13.7633

>  <SCORE.INTER.norm>
-0.606

>  <SCORE.INTRA>
2.0605

>  <SCORE.INTRA.DIHEDRAL>
0.380318

>  <SCORE.INTRA.DIHEDRAL.0>
1.67653

>  <SCORE.INTRA.POLAR>
0

>  <SCORE.INTRA.POLAR.0>
0

>  <SCORE.INTRA.REPUL>
0

>  <SCORE.INTRA.REPUL.0>
0

>  <SCORE.INTRA.SOLV>
3.13854

>  <SCORE.INTRA.SOLV.lig_0>
-76.6701

>  <SCORE.INTRA.VDW>
0.30107

>  <SCORE.INTRA.VDW.0>
-1.53273

>  <SCORE.INTRA.norm>
0.0936592

>  <SCORE.RESTR>
0

>  <SCORE.RESTR.CAVITY>
0

>  <SCORE.RESTR.norm>
0

>  <SCORE.SYSTEM>
0

>  <SCORE.SYSTEM.CONST>
0

>  <SCORE.SYSTEM.DIHEDRAL>
0

>  <SCORE.SYSTEM.SOLV>
0

>  <SCORE.SYSTEM.norm>
0

>  <SCORE.heavy>
22

>  <SCORE.norm>
-0.512341

>  <RMSD>
3.638

$$$$
2f4s_lig
 OpenBabel11021811433D
libRbt.so/2013.1/901 2013/11/27
 22 23  0  0  0  0  0  0  0  0999 V2000
   21.0113   18.9672   30.8898 N   0  0  0  0  0  0  0  0  0  0  0  0
   19.1663   17.6822   35.3754 N   0  0  0  0  0  0  0  0  0  0  0  0
   21.2713   11.5913   38.2808 N   0  0  0  0  0  0  0  0  0  0  0  0
   23.5683   15.8993   33.8151 O   0  0  0  0  0  0  0  0  0  0  0  0
   22.2230   16.3058   33.4306 C   0  0  2  0  0  0  0  0  0  0  0  0
   19.3060   14.7173   33.5863 N   0  0  0  0  0  0  0  0  0  0  0  0
   23.0214   17.0059   31.2094 O   0  0  0  0  0  0  0  0  0  0  0  0
   22.2919   17.4344   32.3653 C   0  0  1  0  0  0  0  0  0  0  0  0
   21.2854   15.7407   35.6239 O   0  0  0  0  0  0  0  0  0  0  0  0
   20.8993   17.8626   31.9189 C   0  0  1  0  0  0  0  0  0  0  0  0
   21.4505   13.6028   36.4883 O   0  0  0  0  0  0  0  0  0  0  0  0
   20.0780   18.3539   33.1587 C   0  0  0  0  0  0  0  0  0  0  0  0
   18.2275   13.5957   38.2485 O   0  0  0  0  0  0  0  0  0  0  0  0
   19.9931   17.1752   34.2029 C   0  0  1  0  0  0  0  0  0  0  0  0
   17.4062   13.7863   35.5283 O   0  0  0  0  0  0  0  0  0  0  0  0
   21.4054   16.8014   34.6883 C   0  0  2  0  0  0  0  0  0  0  0  0
   21.1794   14.3807   35.2419 C   0  0  1  0  0  0  0  0  0  0  0  0
   20.5127   13.8222   37.6255 C   0  0  2  0  0  0  0  0  0  0  0  0
   20.9759   12.9629   38.8059 C   0  0  0  0  0  0  0  0  0  0  0  0
   19.1301   13.3941   37.1870 C   0  0  2  0  0  0  0  0  0  0  0  0
   18.7117   14.1934   35.9541 C   0  0  1  0  0  0  0  0  0  0  0  0
   19.7317   13.9537   34.8139 C   0  0  1  0  0  0  0  0  0  0  0  0
  5  4  1  1  0  0  0
  5  8  1  0  0  0  0
  5 16  1  0  0  0  0
  8  7  1  6  0  0  0
  8 10  1  0  0  0  0
 10  1  1  6  0  0  0
 10 12  1  0  0  0  0
 11 18  1  0  0  0  0
 12 14  1  0  0  0  0
 14  2  1  1  0  0  0
 14 16  1  0  0  0  0
 16  9  1  1  0  0  0
 17  9  1  1  0  0  0
 17 11  1  0  0  0  0
 17 22  1  0  0  0  0
 18 19  1  1  0  0  0
 18 20  1  0  0  0  0
 19  3  1  0  0  0  0
 20 13  1  1  0  0  0
 20 21  1  0  0  0  0
 21 15  1  6  0  0  0
 21 22  1  0  0  0  0
 22  6  1  6  0  0  0
M  END
>  <CHROM.1>
-33.35909818,164.94529171,-46.55723984,20.59249953,15.39740005,34.94370204
1.30806308,0.15366236,-0.82491218

>  <Name>
2f4s_lig

>  <RI>
0

>  <Rbt.Current_Directory>
/home/itssahil/PROJECTS/Mol_Feturizer/New_Systems/rnas/2f4s

>  <Rbt.Executable>
rbdock ($Id: //depot/dev/client3/rdock/2013.1/src/exe/rbdock.cxx#4 $)

>  <Rbt.Library>
libRbt.so (2013.1, Build901 2013/11/27)

>  <Rbt.Parameter_File>
/export/apps/rDock/src/rDock_2013.1_src/data/scripts/dock_solv.prm

>  <Rbt.Receptor>
prm/pocket_docking_8.prm

>  <SCORE>
-3.34401

>  <SCORE.INTER>
-9.6586

>  <SCORE.INTER.CONST>
1

>  <SCORE.INTER.POLAR>
-1.31184

>  <SCORE.INTER.ROT>
3

>  <SCORE.INTER.SOLV>
15.1262

>  <SCORE.INTER.VDW>
-12.7083

>  <SCORE.INTER.norm>
-0.439027

>  <SCORE.INTRA>
6.3146

>  <SCORE.INTRA.DIHEDRAL>
3.0867

>  <SCORE.INTRA.DIHEDRAL.0>
1.67653

>  <SCORE.INTRA.POLAR>
0

>  <SCORE.INTRA.POLAR.0>
0

>  <SCORE.INTRA.REPUL>
0

>  <SCORE.INTRA.REPUL.0>
0

>  <SCORE.INTRA.SOLV>
7.00984

>  <SCORE.INTRA.SOLV.lig_0>
-76.6701

>  <SCORE.INTRA.VDW>
1.26633

>  <SCORE.INTRA.VDW.0>
-1.53273

>  <SCORE.INTRA.norm>
0.287027

>  <SCORE.RESTR>
0

>  <SCORE.RESTR.CAVITY>
0

>  <SCORE.RESTR.norm>
0

>  <SCORE.SYSTEM>
0

>  <SCORE.SYSTEM.CONST>
0

>  <SCORE.SYSTEM.DIHEDRAL>
0

>  <SCORE.SYSTEM.SOLV>
0

>  <SCORE.SYSTEM.norm>
0

>  <SCORE.heavy>
22

>  <SCORE.norm>
-0.152

>  <RMSD>
3.758

$$$$
2f4s_lig
 OpenBabel11021811433D
libRbt.so/2013.1/901 2013/11/27
 22 23  0  0  0  0  0  0  0  0999 V2000
   21.1554   18.0103   30.9967 N   0  0  0  0  0  0  0  0  0  0  0  0
   19.2105   13.7474   32.7913 N   0  0  0  0  0  0  0  0  0  0  0  0
   21.6088   11.5418   38.2747 N   0  0  0  0  0  0  0  0  0  0  0  0
   20.9516   17.2657   35.8866 O   0  0  0  0  0  0  0  0  0  0  0  0
   21.1142   16.5959   34.6029 C   0  0  2  0  0  0  0  0  0  0  0  0
   17.1533   15.0288   35.2610 N   0  0  0  0  0  0  0  0  0  0  0  0
   22.0478   18.6428   33.6030 O   0  0  0  0  0  0  0  0  0  0  0  0
   21.0435   17.6332   33.4485 C   0  0  1  0  0  0  0  0  0  0  0  0
   20.1233   14.5081   35.4200 O   0  0  0  0  0  0  0  0  0  0  0  0
   21.2400   16.9684   32.0916 C   0  0  1  0  0  0  0  0  0  0  0  0
   19.6959   12.6693   36.7547 O   0  0  0  0  0  0  0  0  0  0  0  0
   20.1457   15.8676   31.8824 C   0  0  0  0  0  0  0  0  0  0  0  0
   18.9152   14.5310   39.8223 O   0  0  0  0  0  0  0  0  0  0  0  0
   20.2686   14.8107   33.0464 C   0  0  1  0  0  0  0  0  0  0  0  0
   16.8019   15.3420   38.0940 O   0  0  0  0  0  0  0  0  0  0  0  0
   20.0038   15.4902   34.4023 C   0  0  2  0  0  0  0  0  0  0  0  0
   19.1360   13.5217   35.6628 C   0  0  1  0  0  0  0  0  0  0  0  0
   19.9765   13.3495   38.0507 C   0  0  2  0  0  0  0  0  0  0  0  0
   20.5665   12.3193   39.0186 C   0  0  0  0  0  0  0  0  0  0  0  0
   18.6707   13.8821   38.5971 C   0  0  2  0  0  0  0  0  0  0  0  0
   18.0437   14.8406   37.5861 C   0  0  1  0  0  0  0  0  0  0  0  0
   17.7993   14.0944   36.2514 C   0  0  1  0  0  0  0  0  0  0  0  0
  5  4  1  1  0  0  0
  5  8  1  0  0  0  0
  5 16  1  0  0  0  0
  8  7  1  1  0  0  0
  8 10  1  0  0  0  0
 10  1  1  6  0  0  0
 10 12  1  0  0  0  0
 11 18  1  0  0  0  0
 12 14  1  0  0  0  0
 14  2  1  6  0  0  0
 14 16  1  0  0  0  0
 16  9  1  1  0  0  0
 17  9  1  1  0  0  0
 17 11  1  0  0  0  0
 17 22  1  0  0  0  0
 18 19  1  1  0  0  0
 18 20  1  0  0  0  0
 19  3  1  0  0  0  0
 20 13  1  1  0  0  0
 20 21  1  0  0  0  0
 21 15  1  1  0  0  0
 21 22  1  0  0  0  0
 22  6  1  6  0  0  0
M  END
>  <CHROM.1>
168.23829543,177.11256525,45.55765615,19.80387346,15.04494946,35.57087999
1.04309268,1.04084250,-0.53726519

>  <Name>
2f4s_lig

>  <RI>
0

>  <Rbt.Current_Directory>
/home/itssahil/PROJECTS/Mol_Feturizer/New_Systems/rnas/2f4s

>  <Rbt.Executable>
rbdock ($Id: //depot/dev/client3/rdock/2013.1/src/exe/rbdock.cxx#4 $)

>  <Rbt.Library>
libRbt.so (2013.1, Build901 2013/11/27)

>  <Rbt.Parameter_File>
/export/apps/rDock/src/rDock_2013.1_src/data/scripts/dock_solv.prm

>  <Rbt.Receptor>
prm/pocket_docking_5.prm

>  <SCORE>
-11.1258

>  <SCORE.INTER>
-12.9186

>  <SCORE.INTER.CONST>
1

>  <SCORE.INTER.POLAR>
-1.51908

>  <SCORE.INTER.ROT>
3

>  <SCORE.INTER.SOLV>
12.0488

>  <SCORE.INTER.VDW>
-13.1651

>  <SCORE.INTER.norm>
-0.58721

>  <SCORE.INTRA>
1.79286

>  <SCORE.INTRA.DIHEDRAL>
-0.112078

>  <SCORE.INTRA.DIHEDRAL.0>
1.67653

>  <SCORE.INTRA.POLAR>
0

>  <SCORE.INTRA.POLAR.0>
0

>  <SCORE.INTRA.REPUL>
0

>  <SCORE.INTRA.REPUL.0>
0

>  <SCORE.INTRA.SOLV>
3.38003

>  <SCORE.INTRA.SOLV.lig_0>
-76.6701

>  <SCORE.INTRA.VDW>
0.15888

>  <SCORE.INTRA.VDW.0>
-1.53273

>  <SCORE.INTRA.norm>
0.0814935

>  <SCORE.RESTR>
0

>  <SCORE.RESTR.CAVITY>
0

>  <SCORE.RESTR.norm>
0

>  <SCORE.SYSTEM>
0

>  <SCORE.SYSTEM.CONST>
0

>  <SCORE.SYSTEM.DIHEDRAL>
0

>  <SCORE.SYSTEM.SOLV>
0

>  <SCORE.SYSTEM.norm>
0

>  <SCORE.heavy>
22

>  <SCORE.norm>
-0.505716

>  <RMSD>
3.783

$$$$
2f4s_lig
 OpenBabel11021811433D
libRbt.so/2013.1/901 2013/11/27
 22 23  0  0  0  0  0  0  0  0999 V2000
   24.2654   19.5784   40.4752 N   0  0  0  0  0  0  0  0  0  0  0  0
   20.2561   18.3087   37.7385 N   0  0  0  0  0  0  0  0  0  0  0  0
   18.4881   13.8083   39.6824 N   0  0  0  0  0  0  0  0  0  0  0  0
   24.2855   15.3539   37.8944 O   0  0  0  0  0  0  0  0  0  0  0  0
   23.7891   16.7237   37.9001 C   0  0  2  0  0  0  0  0  0  0  0  0
   21.4492   14.9430   33.8578 N   0  0  0  0  0  0  0  0  0  0  0  0
   25.6953   17.4558   39.2755 O   0  0  0  0  0  0  0  0  0  0  0  0
   24.2658   17.4574   39.1838 C   0  0  1  0  0  0  0  0  0  0  0  0
   21.7887   16.1418   36.6082 O   0  0  0  0  0  0  0  0  0  0  0  0
   23.7878   18.9041   39.2068 C   0  0  1  0  0  0  0  0  0  0  0  0
   21.5345   14.0335   37.5223 O   0  0  0  0  0  0  0  0  0  0  0  0
   22.2242   18.9422   39.1246 C   0  0  0  0  0  0  0  0  0  0  0  0
   17.8997   13.7937   37.0574 O   0  0  0  0  0  0  0  0  0  0  0  0
   21.7745   18.2253   37.7939 C   0  0  1  0  0  0  0  0  0  0  0  0
   18.8270   13.8881   34.3664 O   0  0  0  0  0  0  0  0  0  0  0  0
   22.2115   16.7493   37.8194 C   0  0  2  0  0  0  0  0  0  0  0  0
   22.0052   14.7734   36.3126 C   0  0  1  0  0  0  0  0  0  0  0  0
   20.0965   14.1917   37.8801 C   0  0  2  0  0  0  0  0  0  0  0  0
   19.8243   13.3850   39.1534 C   0  0  0  0  0  0  0  0  0  0  0  0
   19.2637   13.6514   36.7391 C   0  0  2  0  0  0  0  0  0  0  0  0
   19.6063   14.4013   35.4530 C   0  0  1  0  0  0  0  0  0  0  0  0
   21.1136   14.2293   35.1421 C   0  0  1  0  0  0  0  0  0  0  0  0
  5  4  1  1  0  0  0
  5  8  1  0  0  0  0
  5 16  1  0  0  0  0
  8  7  1  6  0  0  0
  8 10  1  0  0  0  0
 10  1  1  1  0  0  0
 10 12  1  0  0  0  0
 11 18  1  0  0  0  0
 12 14  1  0  0  0  0
 14  2  1  1  0  0  0
 14 16  1  0  0  0  0
 16  9  1  6  0  0  0
 17  9  1  1  0  0  0
 17 11  1  0  0  0  0
 17 22  1  0  0  0  0
 18 19  1  1  0  0  0
 18 20  1  0  0  0  0
 19  3  1  0  0  0  0
 20 13  1  1  0  0  0
 20 21  1  0  0  0  0
 21 15  1  6  0  0  0
 21 22  1  0  0  0  0
 22  6  1  6  0  0  0
M  END
>  <CHROM.1>
64.49915059,49.26210793,166.62274605,21.56282871,15.82979763,37.54417675
0.67642244,0.54155355,1.15411241

>  <Name>
2f4s_lig

>  <RI>
2.00194e+07

>  <Rbt.Current_Directory>
/home/itssahil/PROJECTS/Mol_Feturizer/New_Systems/rnas/2f4s

>  <Rbt.Executable>
rbdock ($Id: //depot/dev/client3/rdock/2013.1/src/exe/rbdock.cxx#4 $)

>  <Rbt.Library>
libRbt.so (2013.1, Build901 2013/11/27)

>  <Rbt.Parameter_File>
/export/apps/rDock/src/rDock_2013.1_src/data/scripts/dock_solv.prm

>  <Rbt.Receptor>
prm/pocket_docking_6.prm

>  <SCORE>
-5.33669

>  <SCORE.INTER>
-6.05961

>  <SCORE.INTER.CONST>
1

>  <SCORE.INTER.POLAR>
-0.365835

>  <SCORE.INTER.ROT>
3

>  <SCORE.INTER.SOLV>
13.1739

>  <SCORE.INTER.VDW>
-12.8116

>  <SCORE.INTER.norm>
-0.275437

>  <SCORE.INTRA>
0.722913

>  <SCORE.INTRA.DIHEDRAL>
-0.269701

>  <SCORE.INTRA.DIHEDRAL.0>
1.67653

>  <SCORE.INTRA.POLAR>
0

>  <SCORE.INTRA.POLAR.0>
0

>  <SCORE.INTRA.REPUL>
0

>  <SCORE.INTRA.REPUL.0>
0

>  <SCORE.INTRA.SOLV>
0.827028

>  <SCORE.INTRA.SOLV.lig_0>
-76.6701

>  <SCORE.INTRA.VDW>
0.444249

>  <SCORE.INTRA.VDW.0>
-1.53273

>  <SCORE.INTRA.norm>
0.0328597

>  <SCORE.RESTR>
0

>  <SCORE.RESTR.CAVITY>
0

>  <SCORE.RESTR.norm>
0

>  <SCORE.SYSTEM>
0

>  <SCORE.SYSTEM.CONST>
0

>  <SCORE.SYSTEM.DIHEDRAL>
0

>  <SCORE.SYSTEM.SOLV>
0

>  <SCORE.SYSTEM.norm>
0

>  <SCORE.heavy>
22

>  <SCORE.norm>
-0.242577

>  <RMSD>
3.848

$$$$
2f4s_lig
 OpenBabel11021811433D
libRbt.so/2013.1/901 2013/11/27
 22 23  0  0  0  0  0  0  0  0999 V2000
   22.0841   17.5688   31.5822 N   0  0  0  0  0  0  0  0  0  0  0  0
   18.9489   14.8178   34.3711 N   0  0  0  0  0  0  0  0  0  0  0  0
   19.3273   18.1100   37.9655 N   0  0  0  0  0  0  0  0  0  0  0  0
   23.4294   16.1624   36.1340 O   0  0  0  0  0  0  0  0  0  0  0  0
   22.6600   15.7656   34.9621 C   0  0  2  0  0  0  0  0  0  0  0  0
   21.7497   12.0631   38.0087 N   0  0  0  0  0  0  0  0  0  0  0  0
   24.1110   17.1124   33.4985 O   0  0  0  0  0  0  0  0  0  0  0  0
   22.7495   16.8659   33.8690 C   0  0  1  0  0  0  0  0  0  0  0  0
   21.0727   14.4506   36.2886 O   0  0  0  0  0  0  0  0  0  0  0  0
   21.9787   16.4682   32.6161 C   0  0  1  0  0  0  0  0  0  0  0  0
   20.9293   15.7447   38.1991 O   0  0  0  0  0  0  0  0  0  0  0  0
   20.4787   16.2066   32.9829 C   0  0  0  0  0  0  0  0  0  0  0  0
   17.6791   14.4734   39.3420 O   0  0  0  0  0  0  0  0  0  0  0  0
   20.4194   15.0600   34.0640 C   0  0  1  0  0  0  0  0  0  0  0  0
   19.3122   12.1475   39.5250 O   0  0  0  0  0  0  0  0  0  0  0  0
   21.1490   15.5072   35.3438 C   0  0  2  0  0  0  0  0  0  0  0  0
   21.5951   14.5480   37.6017 C   0  0  1  0  0  0  0  0  0  0  0  0
   19.4442   15.6916   38.3116 C   0  0  2  0  0  0  0  0  0  0  0  0
   18.9584   17.0125   38.9161 C   0  0  0  0  0  0  0  0  0  0  0  0
   19.0804   14.5418   39.2242 C   0  0  2  0  0  0  0  0  0  0  0  0
   19.6459   13.2395   38.6603 C   0  0  1  0  0  0  0  0  0  0  0  0
   21.1851   13.3568   38.5368 C   0  0  1  0  0  0  0  0  0  0  0  0
  5  4  1  1  0  0  0
  5  8  1  0  0  0  0
  5 16  1  0  0  0  0
  8  7  1  6  0  0  0
  8 10  1  0  0  0  0
 10  1  1  6  0  0  0
 10 12  1  0  0  0  0
 11 18  1  0  0  0  0
 12 14  1  0  0  0  0
 14  2  1  1  0  0  0
 14 16  1  0  0  0  0
 16  9  1  1  0  0  0
 17  9  1  6  0  0  0
 17 11  1  0  0  0  0
 17 22  1  0  0  0  0
 18 19  1  1  0  0  0
 18 20  1  0  0  0  0
 19  3  1  0  0  0  0
 20 13  1  6  0  0  0
 20 21  1  0  0  0  0
 21 15  1  1  0  0  0
 21 22  1  0  0  0  0
 22  6  1  6  0  0  0
M  END
>  <CHROM.1>
65.90116970,56.29521794,62.69058686,20.82245130,15.30960907,36.39603185,1.00233328
0.68980906,-0.75836236

>  <Name>
2f4s_lig

>  <RI>
0

>  <Rbt.Current_Directory>
/home/itssahil/PROJECTS/Mol_Feturizer/New_Systems/rnas/2f4s

>  <Rbt.Executable>
rbdock ($Id: //depot/dev/client3/rdock/2013.1/src/exe/rbdock.cxx#4 $)

>  <Rbt.Library>
libRbt.so (2013.1, Build901 2013/11/27)

>  <Rbt.Parameter_File>
/export/apps/rDock/src/rDock_2013.1_src/data/scripts/dock_solv.prm

>  <Rbt.Receptor>
prm/pocket_docking_5.prm

>  <SCORE>
-9.74097

>  <SCORE.INTER>
-9.31978

>  <SCORE.INTER.CONST>
1

>  <SCORE.INTER.POLAR>
-0.926739

>  <SCORE.INTER.ROT>
3

>  <SCORE.INTER.SOLV>
12.1362

>  <SCORE.INTER.VDW>
-12.7694

>  <SCORE.INTER.norm>
-0.423626

>  <SCORE.INTRA>
-0.421186

>  <SCORE.INTRA.DIHEDRAL>
-1.2538

>  <SCORE.INTRA.DIHEDRAL.0>
1.67653

>  <SCORE.INTRA.POLAR>
0

>  <SCORE.INTRA.POLAR.0>
0

>  <SCORE.INTRA.REPUL>
0

>  <SCORE.INTRA.REPUL.0>
0

>  <SCORE.INTRA.SOLV>
0.106042

>  <SCORE.INTRA.SOLV.lig_0>
-76.6701

>  <SCORE.INTRA.VDW>
0.152691

>  <SCORE.INTRA.VDW.0>
-1.53273

>  <SCORE.INTRA.norm>
-0.0191448

>  <SCORE.RESTR>
0

>  <SCORE.RESTR.CAVITY>
0

>  <SCORE.RESTR.norm>
0

>  <SCORE.SYSTEM>
0

>  <SCORE.SYSTEM.CONST>
0

>  <SCORE.SYSTEM.DIHEDRAL>
0

>  <SCORE.SYSTEM.SOLV>
0

>  <SCORE.SYSTEM.norm>
0

>  <SCORE.heavy>
22

>  <SCORE.norm>
-0.442771

>  <RMSD>
4.003

$$$$
2f4s_lig
 OpenBabel11021811433D
libRbt.so/2013.1/901 2013/11/27
 22 23  0  0  0  0  0  0  0  0999 V2000
   22.0833   17.5660   31.5705 N   0  0  0  0  0  0  0  0  0  0  0  0
   18.9487   14.8112   34.3564 N   0  0  0  0  0  0  0  0  0  0  0  0
   19.2942   18.1099   37.9377 N   0  0  0  0  0  0  0  0  0  0  0  0
   23.4229   16.1674   36.1264 O   0  0  0  0  0  0  0  0  0  0  0  0
   22.6566   15.7676   34.9534 C   0  0  2  0  0  0  0  0  0  0  0  0
   21.7474   12.0610   37.9950 N   0  0  0  0  0  0  0  0  0  0  0  0
   24.1075   17.1161   33.4912 O   0  0  0  0  0  0  0  0  0  0  0  0
   22.7458   16.8670   33.8593 C   0  0  1  0  0  0  0  0  0  0  0  0
   21.0696   14.4507   36.2784 O   0  0  0  0  0  0  0  0  0  0  0  0
   21.9783   16.4662   32.6054 C   0  0  1  0  0  0  0  0  0  0  0  0
   20.9419   15.7456   38.1894 O   0  0  0  0  0  0  0  0  0  0  0  0
   20.4781   16.2019   32.9697 C   0  0  0  0  0  0  0  0  0  0  0  0
   17.6935   14.4868   39.3510 O   0  0  0  0  0  0  0  0  0  0  0  0
   20.4193   15.0562   34.0518 C   0  0  1  0  0  0  0  0  0  0  0  0
   19.3189   12.1548   39.5251 O   0  0  0  0  0  0  0  0  0  0  0  0
   21.1454   15.5064   35.3326 C   0  0  2  0  0  0  0  0  0  0  0  0
   21.5998   14.5463   37.5884 C   0  0  1  0  0  0  0  0  0  0  0  0
   19.4573   15.6981   38.3102 C   0  0  2  0  0  0  0  0  0  0  0  0
   18.9799   17.0209   38.9173 C   0  0  0  0  0  0  0  0  0  0  0  0
   19.0943   14.5499   39.2252 C   0  0  2  0  0  0  0  0  0  0  0  0
   19.6518   13.2454   38.6583 C   0  0  1  0  0  0  0  0  0  0  0  0
   21.1907   13.3569   38.5260 C   0  0  1  0  0  0  0  0  0  0  0  0
  5  4  1  1  0  0  0
  5  8  1  0  0  0  0
  5 16  1  0  0  0  0
  8  7  1  6  0  0  0
  8 10  1  0  0  0  0
 10  1  1  6  0  0  0
 10 12  1  0  0  0  0
 11 18  1  0  0  0  0
 12 14  1  0  0  0  0
 14  2  1  1  0  0  0
 14 16  1  0  0  0  0
 16  9  1  1  0  0  0
 17  9  1  6  0  0  0
 17 11  1  0  0  0  0
 17 22  1  0  0  0  0
 18 19  1  1  0  0  0
 18 20  1  0  0  0  0
 19  3  1  0  0  0  0
 20 13  1  6  0  0  0
 20 21  1  0  0  0  0
 21 15  1  1  0  0  0
 21 22  1  0  0  0  0
 22  6  1  6  0  0  0
M  END
>  <CHROM.1>
65.32078034,56.34626248,65.10028023,20.82415831,15.31147633,36.38777237,1.00223487
0.69561063,-0.75756092

>  <Name>
2f4s_lig

>  <RI>
0

>  <Rbt.Current_Directory>
/home/itssahil/PROJECTS/Mol_Feturizer/New_Systems/rnas/2f4s

>  <Rbt.Executable>
rbdock ($Id: //depot/dev/client3/rdock/2013.1/src/exe/rbdock.cxx#4 $)

>  <Rbt.Library>
libRbt.so (2013.1, Build901 2013/11/27)

>  <Rbt.Parameter_File>
/export/apps/rDock/src/rDock_2013.1_src/data/scripts/dock_solv.prm

>  <Rbt.Receptor>
prm/pocket_docking_4.prm

>  <SCORE>
-9.7215

>  <SCORE.INTER>
-9.29584

>  <SCORE.INTER.CONST>
1

>  <SCORE.INTER.POLAR>
-0.92696

>  <SCORE.INTER.ROT>
3

>  <SCORE.INTER.SOLV>
12.1557

>  <SCORE.INTER.VDW>
-12.7593

>  <SCORE.INTER.norm>
-0.422538

>  <SCORE.INTRA>
-0.425659

>  <SCORE.INTRA.DIHEDRAL>
-1.21828

>  <SCORE.INTRA.DIHEDRAL.0>
1.67653

>  <SCORE.INTRA.POLAR>
0

>  <SCORE.INTRA.POLAR.0>
0

>  <SCORE.INTRA.REPUL>
0

>  <SCORE.INTRA.REPUL.0>
0

>  <SCORE.INTRA.SOLV>
0.0737679

>  <SCORE.INTRA.SOLV.lig_0>
-76.6701

>  <SCORE.INTRA.VDW>
0.146597

>  <SCORE.INTRA.VDW.0>
-1.53273

>  <SCORE.INTRA.norm>
-0.0193482

>  <SCORE.RESTR>
0

>  <SCORE.RESTR.CAVITY>
0

>  <SCORE.RESTR.norm>
0

>  <SCORE.SYSTEM>
0

>  <SCORE.SYSTEM.CONST>
0

>  <SCORE.SYSTEM.DIHEDRAL>
0

>  <SCORE.SYSTEM.SOLV>
0

>  <SCORE.SYSTEM.norm>
0

>  <SCORE.heavy>
22

>  <SCORE.norm>
-0.441886

>  <RMSD>
4.007

$$$$
2f4s_lig
 OpenBabel11021811433D
libRbt.so/2013.1/901 2013/11/27
 22 23  0  0  0  0  0  0  0  0999 V2000
   23.5136   16.7188   30.9199 N   0  0  0  0  0  0  0  0  0  0  0  0
   23.9793   16.6971   35.9158 N   0  0  0  0  0  0  0  0  0  0  0  0
   17.4882   18.2502   39.1924 N   0  0  0  0  0  0  0  0  0  0  0  0
   19.5691   15.7641   33.7547 O   0  0  0  0  0  0  0  0  0  0  0  0
   20.8120   16.5216   33.6893 C   0  0  2  0  0  0  0  0  0  0  0  0
   21.4063   13.5336   36.6428 N   0  0  0  0  0  0  0  0  0  0  0  0
   20.7084   16.5639   31.2298 O   0  0  0  0  0  0  0  0  0  0  0  0
   21.5408   16.2337   32.3478 C   0  0  1  0  0  0  0  0  0  0  0  0
   21.1092   16.4930   36.1223 O   0  0  0  0  0  0  0  0  0  0  0  0
   22.8322   17.0346   32.2343 C   0  0  1  0  0  0  0  0  0  0  0  0
   20.8516   16.8331   38.3945 O   0  0  0  0  0  0  0  0  0  0  0  0
   23.7749   16.6845   33.4350 C   0  0  0  0  0  0  0  0  0  0  0  0
   17.4069   15.5829   38.6333 O   0  0  0  0  0  0  0  0  0  0  0  0
   23.0223   17.0238   34.7788 C   0  0  1  0  0  0  0  0  0  0  0  0
   18.8280   13.2353   37.8719 O   0  0  0  0  0  0  0  0  0  0  0  0
   21.7552   16.1584   34.9035 C   0  0  2  0  0  0  0  0  0  0  0  0
   21.4873   15.9468   37.3734 C   0  0  1  0  0  0  0  0  0  0  0  0
   19.3635   16.9113   38.3721 C   0  0  2  0  0  0  0  0  0  0  0  0
   18.9148   17.8842   39.4669 C   0  0  0  0  0  0  0  0  0  0  0  0
   18.8137   15.5306   38.6520 C   0  0  2  0  0  0  0  0  0  0  0  0
   19.3383   14.5472   37.6072 C   0  0  1  0  0  0  0  0  0  0  0  0
   20.8860   14.5248   37.6519 C   0  0  1  0  0  0  0  0  0  0  0  0
  5  4  1  1  0  0  0
  5  8  1  0  0  0  0
  5 16  1  0  0  0  0
  8  7  1  6  0  0  0
  8 10  1  0  0  0  0
 10  1  1  6  0  0  0
 10 12  1  0  0  0  0
 11 18  1  0  0  0  0
 12 14  1  0  0  0  0
 14  2  1  1  0  0  0
 14 16  1  0  0  0  0
 16  9  1  1  0  0  0
 17  9  1  6  0  0  0
 17 11  1  0  0  0  0
 17 22  1  0  0  0  0
 18 19  1  1  0  0  0
 18 20  1  0  0  0  0
 19  3  1  0  0  0  0
 20 13  1  6  0  0  0
 20 21  1  0  0  0  0
 21 15  1  1  0  0  0
 21 22  1  0  0  0  0
 22  6  1  6  0  0  0
M  END
>  <CHROM.1>
160.51952047,164.07418544,164.35022239,20.74457828,16.10966932,35.88084553
1.00272312,-0.32789298,-1.68003150

>  <Name>
2f4s_lig

>  <RI>
0

>  <Rbt.Current_Directory>
/home/itssahil/PROJECTS/Mol_Feturizer/New_Systems/rnas/2f4s

>  <Rbt.Executable>
rbdock ($Id: //depot/dev/client3/rdock/2013.1/src/exe/rbdock.cxx#4 $)

>  <Rbt.Library>
libRbt.so (2013.1, Build901 2013/11/27)

>  <Rbt.Parameter_File>
/export/apps/rDock/src/rDock_2013.1_src/data/scripts/dock_solv.prm

>  <Rbt.Receptor>
prm/pocket_docking_5.prm

>  <SCORE>
-1.05729

>  <SCORE.INTER>
-3.64097

>  <SCORE.INTER.CONST>
1

>  <SCORE.INTER.POLAR>
-0.596872

>  <SCORE.INTER.ROT>
3

>  <SCORE.INTER.SOLV>
12.6813

>  <SCORE.INTER.VDW>
-10.2648

>  <SCORE.INTER.norm>
-0.165499

>  <SCORE.INTRA>
2.58368

>  <SCORE.INTRA.DIHEDRAL>
2.15225

>  <SCORE.INTRA.DIHEDRAL.0>
1.67653

>  <SCORE.INTRA.POLAR>
0

>  <SCORE.INTRA.POLAR.0>
0

>  <SCORE.INTRA.REPUL>
0

>  <SCORE.INTRA.REPUL.0>
0

>  <SCORE.INTRA.SOLV>
2.96861

>  <SCORE.INTRA.SOLV.lig_0>
-76.6701

>  <SCORE.INTRA.VDW>
0.0232462

>  <SCORE.INTRA.VDW.0>
-1.53273

>  <SCORE.INTRA.norm>
0.11744

>  <SCORE.RESTR>
0

>  <SCORE.RESTR.CAVITY>
0

>  <SCORE.RESTR.norm>
0

>  <SCORE.SYSTEM>
0

>  <SCORE.SYSTEM.CONST>
0

>  <SCORE.SYSTEM.DIHEDRAL>
0

>  <SCORE.SYSTEM.SOLV>
0

>  <SCORE.SYSTEM.norm>
0

>  <SCORE.heavy>
22

>  <SCORE.norm>
-0.0480587

>  <RMSD>
4.008

$$$$
2f4s_lig
 OpenBabel11021811433D
libRbt.so/2013.1/901 2013/11/27
 22 23  0  0  0  0  0  0  0  0999 V2000
   22.0054   17.5729   31.4496 N   0  0  0  0  0  0  0  0  0  0  0  0
   18.9968   14.5344   34.0747 N   0  0  0  0  0  0  0  0  0  0  0  0
   19.4440   17.3540   39.8944 N   0  0  0  0  0  0  0  0  0  0  0  0
   23.1337   16.4403   36.1348 O   0  0  0  0  0  0  0  0  0  0  0  0
   22.5127   15.9284   34.9202 C   0  0  2  0  0  0  0  0  0  0  0  0
   21.7065   12.1692   37.9858 N   0  0  0  0  0  0  0  0  0  0  0  0
   23.9105   17.4038   33.5307 O   0  0  0  0  0  0  0  0  0  0  0  0
   22.5614   17.0063   33.8025 C   0  0  1  0  0  0  0  0  0  0  0  0
   20.9872   14.4654   36.1616 O   0  0  0  0  0  0  0  0  0  0  0  0
   21.9456   16.4915   32.5072 C   0  0  1  0  0  0  0  0  0  0  0  0
   20.7384   15.8196   38.0188 O   0  0  0  0  0  0  0  0  0  0  0  0
   20.4616   16.0626   32.7651 C   0  0  0  0  0  0  0  0  0  0  0  0
   17.5084   14.4611   39.1176 O   0  0  0  0  0  0  0  0  0  0  0  0
   20.4491   14.9420   33.8747 C   0  0  1  0  0  0  0  0  0  0  0  0
   19.2246   12.2101   39.4303 O   0  0  0  0  0  0  0  0  0  0  0  0
   21.0161   15.5016   35.1921 C   0  0  2  0  0  0  0  0  0  0  0  0
   21.4673   14.6300   37.4842 C   0  0  1  0  0  0  0  0  0  0  0  0
   19.2539   15.7114   38.0922 C   0  0  2  0  0  0  0  0  0  0  0  0
   18.6999   17.0324   38.6345 C   0  0  0  0  0  0  0  0  0  0  0  0
   18.9088   14.5811   39.0360 C   0  0  2  0  0  0  0  0  0  0  0  0
   19.5406   13.2832   38.5358 C   0  0  1  0  0  0  0  0  0  0  0  0
   21.0770   13.4573   38.4505 C   0  0  1  0  0  0  0  0  0  0  0  0
  5  4  1  1  0  0  0
  5  8  1  0  0  0  0
  5 16  1  0  0  0  0
  8  7  1  6  0  0  0
  8 10  1  0  0  0  0
 10  1  1  6  0  0  0
 10 12  1  0  0  0  0
 11 18  1  0  0  0  0
 12 14  1  0  0  0  0
 14  2  1  1  0  0  0
 14 16  1  0  0  0  0
 16  9  1  1  0  0  0
 17  9  1  6  0  0  0
 17 11  1  0  0  0  0
 17 22  1  0  0  0  0
 18 19  1  1  0  0  0
 18 20  1  0  0  0  0
 19  3  1  0  0  0  0
 20 13  1  6  0  0  0
 20 21  1  0  0  0  0
 21 15  1  1  0  0  0
 21 22  1  0  0  0  0
 22  6  1  6  0  0  0
M  END
>  <CHROM.1>
61.71343311,54.50249555,-51.37820928,20.70945150,15.31911508,36.35522494
0.44114041,1.09717365,-0.09911136

>  <Name>
2f4s_lig

>  <RI>
0

>  <Rbt.Current_Directory>
/home/itssahil/PROJECTS/Mol_Feturizer/New_Systems/rnas/2f4s

>  <Rbt.Executable>
rbdock ($Id: //depot/dev/client3/rdock/2013.1/src/exe/rbdock.cxx#4 $)

>  <Rbt.Library>
libRbt.so (2013.1, Build901 2013/11/27)

>  <Rbt.Parameter_File>
/export/apps/rDock/src/rDock_2013.1_src/data/scripts/dock_solv.prm

>  <Rbt.Receptor>
prm/pocket_docking_4.prm

>  <SCORE>
-8.34335

>  <SCORE.INTER>
-8.89515

>  <SCORE.INTER.CONST>
1

>  <SCORE.INTER.POLAR>
-0.96959

>  <SCORE.INTER.ROT>
3

>  <SCORE.INTER.SOLV>
14.1355

>  <SCORE.INTER.VDW>
-13.01

>  <SCORE.INTER.norm>
-0.404325

>  <SCORE.INTRA>
0.551802

>  <SCORE.INTRA.DIHEDRAL>
-1.08934

>  <SCORE.INTRA.DIHEDRAL.0>
1.67653

>  <SCORE.INTRA.POLAR>
0

>  <SCORE.INTRA.POLAR.0>
0

>  <SCORE.INTRA.REPUL>
0

>  <SCORE.INTRA.REPUL.0>
0

>  <SCORE.INTRA.SOLV>
1.31188

>  <SCORE.INTRA.SOLV.lig_0>
-76.6701

>  <SCORE.INTRA.VDW>
0.440532

>  <SCORE.INTRA.VDW.0>
-1.53273

>  <SCORE.INTRA.norm>
0.0250819

>  <SCORE.RESTR>
0

>  <SCORE.RESTR.CAVITY>
0

>  <SCORE.RESTR.norm>
0

>  <SCORE.SYSTEM>
0

>  <SCORE.SYSTEM.CONST>
0

>  <SCORE.SYSTEM.DIHEDRAL>
0

>  <SCORE.SYSTEM.SOLV>
0

>  <SCORE.SYSTEM.norm>
0

>  <SCORE.heavy>
22

>  <SCORE.norm>
-0.379243

>  <RMSD>
4.029

$$$$
2f4s_lig
 OpenBabel11021811433D
libRbt.so/2013.1/901 2013/11/27
 22 23  0  0  0  0  0  0  0  0999 V2000
   27.7156   18.0666   35.4846 N   0  0  0  0  0  0  0  0  0  0  0  0
   23.1361   16.5244   34.1336 N   0  0  0  0  0  0  0  0  0  0  0  0
   20.6512   19.1026   37.1833 N   0  0  0  0  0  0  0  0  0  0  0  0
   24.6936   16.0757   38.8626 O   0  0  0  0  0  0  0  0  0  0  0  0
   25.0708   16.0353   37.4558 C   0  0  2  0  0  0  0  0  0  0  0  0
   21.7222   12.7323   37.8052 N   0  0  0  0  0  0  0  0  0  0  0  0
   27.3394   16.8249   37.9957 O   0  0  0  0  0  0  0  0  0  0  0  0
   26.1918   17.0736   37.1752 C   0  0  1  0  0  0  0  0  0  0  0  0
   22.8341   15.3306   36.7423 O   0  0  0  0  0  0  0  0  0  0  0  0
   26.6311   17.0363   35.7166 C   0  0  1  0  0  0  0  0  0  0  0  0
   21.2724   16.4768   38.0043 O   0  0  0  0  0  0  0  0  0  0  0  0
   25.4010   17.3214   34.7900 C   0  0  0  0  0  0  0  0  0  0  0  0
   18.3753   15.7631   35.8636 O   0  0  0  0  0  0  0  0  0  0  0  0
   24.2982   16.2295   35.0704 C   0  0  1  0  0  0  0  0  0  0  0  0
   19.0696   13.1618   36.7917 O   0  0  0  0  0  0  0  0  0  0  0  0
   23.8231   16.3266   36.5316 C   0  0  2  0  0  0  0  0  0  0  0  0
   22.0856   15.2250   37.9404 C   0  0  1  0  0  0  0  0  0  0  0  0
   20.3063   16.6988   36.8916 C   0  0  2  0  0  0  0  0  0  0  0  0
   19.5994   18.0373   37.1261 C   0  0  0  0  0  0  0  0  0  0  0  0
   19.2973   15.5724   36.9102 C   0  0  2  0  0  0  0  0  0  0  0  0
   20.0192   14.2338   36.7660 C   0  0  1  0  0  0  0  0  0  0  0  0
   21.0294   14.0651   37.9275 C   0  0  1  0  0  0  0  0  0  0  0  0
  5  4  1  1  0  0  0
  5  8  1  0  0  0  0
  5 16  1  0  0  0  0
  8  7  1  1  0  0  0
  8 10  1  0  0  0  0
 10  1  1  1  0  0  0
 10 12  1  0  0  0  0
 11 18  1  0  0  0  0
 12 14  1  0  0  0  0
 14  2  1  6  0  0  0
 14 16  1  0  0  0  0
 16  9  1  6  0  0  0
 17  9  1  6  0  0  0
 17 11  1  0  0  0  0
 17 22  1  0  0  0  0
 18 19  1  1  0  0  0
 18 20  1  0  0  0  0
 19  3  1  0  0  0  0
 20 13  1  6  0  0  0
 20 21  1  0  0  0  0
 21 15  1  1  0  0  0
 21 22  1  0  0  0  0
 22  6  1  6  0  0  0
M  END
>  <CHROM.1>
69.72216963,64.74827535,58.44478704,22.73007744,16.07620830,36.80141191,0.27707939
-0.04862033,-0.43831188

>  <Name>
2f4s_lig

>  <RI>
0

>  <Rbt.Current_Directory>
/home/itssahil/PROJECTS/Mol_Feturizer/New_Systems/rnas/2f4s

>  <Rbt.Executable>
rbdock ($Id: //depot/dev/client3/rdock/2013.1/src/exe/rbdock.cxx#4 $)

>  <Rbt.Library>
libRbt.so (2013.1, Build901 2013/11/27)

>  <Rbt.Parameter_File>
/export/apps/rDock/src/rDock_2013.1_src/data/scripts/dock_solv.prm

>  <Rbt.Receptor>
prm/pocket_docking_4.prm

>  <SCORE>
-7.66109

>  <SCORE.INTER>
-7.27539

>  <SCORE.INTER.CONST>
1

>  <SCORE.INTER.POLAR>
-1.41791

>  <SCORE.INTER.ROT>
3

>  <SCORE.INTER.SOLV>
13.5615

>  <SCORE.INTER.VDW>
-10.2444

>  <SCORE.INTER.norm>
-0.3307

>  <SCORE.INTRA>
-0.388322

>  <SCORE.INTRA.DIHEDRAL>
-0.948754

>  <SCORE.INTRA.DIHEDRAL.0>
1.67653

>  <SCORE.INTRA.POLAR>
0

>  <SCORE.INTRA.POLAR.0>
0

>  <SCORE.INTRA.REPUL>
0

>  <SCORE.INTRA.REPUL.0>
0

>  <SCORE.INTRA.SOLV>
0.0892083

>  <SCORE.INTRA.SOLV.lig_0>
-76.6701

>  <SCORE.INTRA.VDW>
0.0414504

>  <SCORE.INTRA.VDW.0>
-1.53273

>  <SCORE.INTRA.norm>
-0.017651

>  <SCORE.RESTR>
0.00262802

>  <SCORE.RESTR.CAVITY>
0.00262802

>  <SCORE.RESTR.norm>
0.000119455

>  <SCORE.SYSTEM>
0

>  <SCORE.SYSTEM.CONST>
0

>  <SCORE.SYSTEM.DIHEDRAL>
0

>  <SCORE.SYSTEM.SOLV>
0

>  <SCORE.SYSTEM.norm>
0

>  <SCORE.heavy>
22

>  <SCORE.norm>
-0.348231

>  <RMSD>
4.135

$$$$
2f4s_lig
 OpenBabel11021811433D
libRbt.so/2013.1/901 2013/11/27
 22 23  0  0  0  0  0  0  0  0999 V2000
   28.8686   19.7934   36.1171 N   0  0  0  0  0  0  0  0  0  0  0  0
   26.9425   15.2969   37.2340 N   0  0  0  0  0  0  0  0  0  0  0  0
   21.0110   14.7778   33.5438 N   0  0  0  0  0  0  0  0  0  0  0  0
   24.5341   18.4184   34.1604 O   0  0  0  0  0  0  0  0  0  0  0  0
   25.3816   18.2958   35.3392 C   0  0  2  0  0  0  0  0  0  0  0  0
   24.4335   16.4126   38.8960 N   0  0  0  0  0  0  0  0  0  0  0  0
   26.4256   20.4755   34.8699 O   0  0  0  0  0  0  0  0  0  0  0  0
   26.6983   19.0942   35.1336 C   0  0  1  0  0  0  0  0  0  0  0  0
   24.5077   16.0744   35.8964 O   0  0  0  0  0  0  0  0  0  0  0  0
   27.5959   19.0112   36.3622 C   0  0  1  0  0  0  0  0  0  0  0  0
   22.1987   16.1865   35.8598 O   0  0  0  0  0  0  0  0  0  0  0  0
   27.9281   17.5119   36.6698 C   0  0  0  0  0  0  0  0  0  0  0  0
   21.5792   12.8080   37.1590 O   0  0  0  0  0  0  0  0  0  0  0  0
   26.5755   16.7380   36.9117 C   0  0  1  0  0  0  0  0  0  0  0  0
   22.8584   14.0593   39.3744 O   0  0  0  0  0  0  0  0  0  0  0  0
   25.7118   16.7800   35.6379 C   0  0  2  0  0  0  0  0  0  0  0  0
   23.4154   16.6400   36.5991 C   0  0  1  0  0  0  0  0  0  0  0  0
   21.9729   14.7150   35.7917 C   0  0  2  0  0  0  0  0  0  0  0  0
   20.7027   14.4589   34.9748 C   0  0  0  0  0  0  0  0  0  0  0  0
   21.7922   14.1990   37.2018 C   0  0  2  0  0  0  0  0  0  0  0  0
   23.0270   14.5378   38.0349 C   0  0  1  0  0  0  0  0  0  0  0  0
   23.2333   16.0725   38.0503 C   0  0  1  0  0  0  0  0  0  0  0  0
  5  4  1  6  0  0  0
  5  8  1  0  0  0  0
  5 16  1  0  0  0  0
  8  7  1  1  0  0  0
  8 10  1  0  0  0  0
 10  1  1  6  0  0  0
 10 12  1  0  0  0  0
 11 18  1  0  0  0  0
 12 14  1  0  0  0  0
 14  2  1  6  0  0  0
 14 16  1  0  0  0  0
 16  9  1  1  0  0  0
 17  9  1  6  0  0  0
 17 11  1  0  0  0  0
 17 22  1  0  0  0  0
 18 19  1  6  0  0  0
 18 20  1  0  0  0  0
 19  3  1  0  0  0  0
 20 13  1  6  0  0  0
 20 21  1  0  0  0  0
 21 15  1  1  0  0  0
 21 22  1  0  0  0  0
 22  6  1  1  0  0  0
M  END
>  <CHROM.1>
-36.72927895,138.85044890,71.08505476,24.39473713,16.46117850,36.34526667
-0.50091869,0.53566099,2.20200339

>  <Name>
2f4s_lig

>  <RI>
0

>  <Rbt.Current_Directory>
/home/itssahil/PROJECTS/Mol_Feturizer/New_Systems/rnas/2f4s

>  <Rbt.Executable>
rbdock ($Id: //depot/dev/client3/rdock/2013.1/src/exe/rbdock.cxx#4 $)

>  <Rbt.Library>
libRbt.so (2013.1, Build901 2013/11/27)

>  <Rbt.Parameter_File>
/export/apps/rDock/src/rDock_2013.1_src/data/scripts/dock_solv.prm

>  <Rbt.Receptor>
prm/pocket_docking_4.prm

>  <SCORE>
-5.75271

>  <SCORE.INTER>
-11.61

>  <SCORE.INTER.CONST>
1

>  <SCORE.INTER.POLAR>
-1.82581

>  <SCORE.INTER.ROT>
3

>  <SCORE.INTER.SOLV>
18.8549

>  <SCORE.INTER.VDW>
-13.5389

>  <SCORE.INTER.norm>
-0.527726

>  <SCORE.INTRA>
5.66385

>  <SCORE.INTRA.DIHEDRAL>
6.65837

>  <SCORE.INTRA.DIHEDRAL.0>
1.67653

>  <SCORE.INTRA.POLAR>
0

>  <SCORE.INTRA.POLAR.0>
0

>  <SCORE.INTRA.REPUL>
0

>  <SCORE.INTRA.REPUL.0>
0

>  <SCORE.INTRA.SOLV>
3.70643

>  <SCORE.INTRA.SOLV.lig_0>
-76.6701

>  <SCORE.INTRA.VDW>
0.481453

>  <SCORE.INTRA.VDW.0>
-1.53273

>  <SCORE.INTRA.norm>
0.257448

>  <SCORE.RESTR>
0.193404

>  <SCORE.RESTR.CAVITY>
0.193404

>  <SCORE.RESTR.norm>
0.00879109

>  <SCORE.SYSTEM>
0

>  <SCORE.SYSTEM.CONST>
0

>  <SCORE.SYSTEM.DIHEDRAL>
0

>  <SCORE.SYSTEM.SOLV>
0

>  <SCORE.SYSTEM.norm>
0

>  <SCORE.heavy>
22

>  <SCORE.norm>
-0.261487

>  <RMSD>
4.142

$$$$
2f4s_lig
 OpenBabel11021811433D
libRbt.so/2013.1/901 2013/11/27
 22 23  0  0  0  0  0  0  0  0999 V2000
   27.8908   18.0559   35.4837 N   0  0  0  0  0  0  0  0  0  0  0  0
   23.2503   16.6812   34.1601 N   0  0  0  0  0  0  0  0  0  0  0  0
   21.0436   19.3713   37.4597 N   0  0  0  0  0  0  0  0  0  0  0  0
   24.8307   16.1422   38.8720 O   0  0  0  0  0  0  0  0  0  0  0  0
   25.1947   16.1001   37.4619 C   0  0  2  0  0  0  0  0  0  0  0  0
   21.6683   12.9099   37.7283 N   0  0  0  0  0  0  0  0  0  0  0  0
   27.4933   16.8078   37.9883 O   0  0  0  0  0  0  0  0  0  0  0  0
   26.3481   17.1019   37.1797 C   0  0  1  0  0  0  0  0  0  0  0  0
   22.9294   15.4777   36.7621 O   0  0  0  0  0  0  0  0  0  0  0  0
   26.7737   17.0613   35.7171 C   0  0  1  0  0  0  0  0  0  0  0  0
   21.5027   16.6599   38.1449 O   0  0  0  0  0  0  0  0  0  0  0  0
   25.5465   17.3954   34.8032 C   0  0  0  0  0  0  0  0  0  0  0  0
   18.4858   16.2764   36.0865 O   0  0  0  0  0  0  0  0  0  0  0  0
   24.4095   16.3394   35.0847 C   0  0  1  0  0  0  0  0  0  0  0  0
   19.0198   13.5841   36.8459 O   0  0  0  0  0  0  0  0  0  0  0  0
   23.9501   16.4411   36.5506 C   0  0  2  0  0  0  0  0  0  0  0  0
   22.2188   15.3587   37.9818 C   0  0  1  0  0  0  0  0  0  0  0  0
   20.5161   17.0125   37.0851 C   0  0  2  0  0  0  0  0  0  0  0  0
   19.9185   18.3829   37.4187 C   0  0  0  0  0  0  0  0  0  0  0  0
   19.4284   15.9618   37.0838 C   0  0  2  0  0  0  0  0  0  0  0  0
   20.0442   14.5853   36.8396 C   0  0  1  0  0  0  0  0  0  0  0  0
   21.0803   14.2798   37.9492 C   0  0  1  0  0  0  0  0  0  0  0  0
  5  4  1  1  0  0  0
  5  8  1  0  0  0  0
  5 16  1  0  0  0  0
  8  7  1  1  0  0  0
  8 10  1  0  0  0  0
 10  1  1  1  0  0  0
 10 12  1  0  0  0  0
 11 18  1  0  0  0  0
 12 14  1  0  0  0  0
 14  2  1  6  0  0  0
 14 16  1  0  0  0  0
 16  9  1  6  0  0  0
 17  9  1  6  0  0  0
 17 11  1  0  0  0  0
 17 22  1  0  0  0  0
 18 19  1  1  0  0  0
 18 20  1  0  0  0  0
 19  3  1  0  0  0  0
 20 13  1  6  0  0  0
 20 21  1  0  0  0  0
 21 15  1  1  0  0  0
 21 22  1  0  0  0  0
 22  6  1  6  0  0  0
M  END
>  <CHROM.1>
67.51821315,62.54176317,59.71963310,22.86517840,16.26297918,36.87105402,0.24761177
0.00842567,-0.36356694

>  <Name>
2f4s_lig

>  <RI>
2.26097e+07

>  <Rbt.Current_Directory>
/home/itssahil/PROJECTS/Mol_Feturizer/New_Systems/rnas/2f4s

>  <Rbt.Executable>
rbdock ($Id: //depot/dev/client3/rdock/2013.1/src/exe/rbdock.cxx#4 $)

>  <Rbt.Library>
libRbt.so (2013.1, Build901 2013/11/27)

>  <Rbt.Parameter_File>
/export/apps/rDock/src/rDock_2013.1_src/data/scripts/dock_solv.prm

>  <Rbt.Receptor>
prm/pocket_docking_7.prm

>  <SCORE>
-7.85135

>  <SCORE.INTER>
-7.38105

>  <SCORE.INTER.CONST>
1

>  <SCORE.INTER.POLAR>
-1.64552

>  <SCORE.INTER.ROT>
3

>  <SCORE.INTER.SOLV>
12.9799

>  <SCORE.INTER.VDW>
-9.36228

>  <SCORE.INTER.norm>
-0.335502

>  <SCORE.INTRA>
-0.4703

>  <SCORE.INTRA.DIHEDRAL>
-1.21207

>  <SCORE.INTRA.DIHEDRAL.0>
1.67653

>  <SCORE.INTRA.POLAR>
0

>  <SCORE.INTRA.POLAR.0>
0

>  <SCORE.INTRA.REPUL>
0

>  <SCORE.INTRA.REPUL.0>
0

>  <SCORE.INTRA.SOLV>
0.0590665

>  <SCORE.INTRA.SOLV.lig_0>
-76.6701

>  <SCORE.INTRA.VDW>
0.106204

>  <SCORE.INTRA.VDW.0>
-1.53273

>  <SCORE.INTRA.norm>
-0.0213773

>  <SCORE.RESTR>
0

>  <SCORE.RESTR.CAVITY>
0

>  <SCORE.RESTR.norm>
0

>  <SCORE.SYSTEM>
0

>  <SCORE.SYSTEM.CONST>
0

>  <SCORE.SYSTEM.DIHEDRAL>
0

>  <SCORE.SYSTEM.SOLV>
0

>  <SCORE.SYSTEM.norm>
0

>  <SCORE.heavy>
22

>  <SCORE.norm>
-0.35688

>  <RMSD>
4.204

$$$$
2f4s_lig
 OpenBabel11021811433D
libRbt.so/2013.1/901 2013/11/27
 22 23  0  0  0  0  0  0  0  0999 V2000
   25.1622   21.3068   35.4222 N   0  0  0  0  0  0  0  0  0  0  0  0
   21.9209   17.7017   34.1286 N   0  0  0  0  0  0  0  0  0  0  0  0
   18.6740   18.6550   37.7190 N   0  0  0  0  0  0  0  0  0  0  0  0
   23.6593   18.0195   38.8048 O   0  0  0  0  0  0  0  0  0  0  0  0
   23.9567   18.1948   37.3893 C   0  0  2  0  0  0  0  0  0  0  0  0
   22.8184   13.6247   37.5773 N   0  0  0  0  0  0  0  0  0  0  0  0
   25.5449   20.0049   37.9016 O   0  0  0  0  0  0  0  0  0  0  0  0
   24.3986   19.6588   37.1155 C   0  0  1  0  0  0  0  0  0  0  0  0
   22.3474   16.4769   36.7054 O   0  0  0  0  0  0  0  0  0  0  0  0
   24.7462   19.8687   35.6468 C   0  0  1  0  0  0  0  0  0  0  0  0
   20.6507   16.6394   38.2673 O   0  0  0  0  0  0  0  0  0  0  0  0
   23.5065   19.5145   34.7576 C   0  0  0  0  0  0  0  0  0  0  0  0
   18.1617   14.6790   36.4106 O   0  0  0  0  0  0  0  0  0  0  0  0
   23.1071   18.0132   35.0292 C   0  0  1  0  0  0  0  0  0  0  0  0
   20.1665   12.7264   36.9383 O   0  0  0  0  0  0  0  0  0  0  0  0
   22.6987   17.8372   36.5031 C   0  0  2  0  0  0  0  0  0  0  0  0
   21.9460   15.9603   37.9618 C   0  0  1  0  0  0  0  0  0  0  0  0
   19.5342   16.4024   37.3091 C   0  0  2  0  0  0  0  0  0  0  0  0
   18.3156   17.2017   37.7806 C   0  0  0  0  0  0  0  0  0  0  0  0
   19.2144   14.9242   37.3126 C   0  0  2  0  0  0  0  0  0  0  0  0
   20.4604   14.1282   36.9283 C   0  0  1  0  0  0  0  0  0  0  0  0
   21.5967   14.4311   37.9359 C   0  0  1  0  0  0  0  0  0  0  0  0
  5  4  1  1  0  0  0
  5  8  1  0  0  0  0
  5 16  1  0  0  0  0
  8  7  1  1  0  0  0
  8 10  1  0  0  0  0
 10  1  1  1  0  0  0
 10 12  1  0  0  0  0
 11 18  1  0  0  0  0
 12 14  1  0  0  0  0
 14  2  1  6  0  0  0
 14 16  1  0  0  0  0
 16  9  1  6  0  0  0
 17  9  1  6  0  0  0
 17 11  1  0  0  0  0
 17 22  1  0  0  0  0
 18 19  1  1  0  0  0
 18 20  1  0  0  0  0
 19  3  1  0  0  0  0
 20 13  1  6  0  0  0
 20 21  1  0  0  0  0
 21 15  1  1  0  0  0
 21 22  1  0  0  0  0
 22  6  1  6  0  0  0
M  END
>  <CHROM.1>
61.91395348,65.56378202,63.56455589,21.92135706,17.06874707,36.91128358,0.80859994
-0.07694437,-0.25667893

>  <Name>
2f4s_lig

>  <RI>
2.26097e+07

>  <Rbt.Current_Directory>
/home/itssahil/PROJECTS/Mol_Feturizer/New_Systems/rnas/2f4s

>  <Rbt.Executable>
rbdock ($Id: //depot/dev/client3/rdock/2013.1/src/exe/rbdock.cxx#4 $)

>  <Rbt.Library>
libRbt.so (2013.1, Build901 2013/11/27)

>  <Rbt.Parameter_File>
/export/apps/rDock/src/rDock_2013.1_src/data/scripts/dock_solv.prm

>  <Rbt.Receptor>
prm/pocket_docking_7.prm

>  <SCORE>
-5.81843

>  <SCORE.INTER>
-5.44029

>  <SCORE.INTER.CONST>
1

>  <SCORE.INTER.POLAR>
-1.88698

>  <SCORE.INTER.ROT>
3

>  <SCORE.INTER.SOLV>
9.60468

>  <SCORE.INTER.VDW>
-6.13849

>  <SCORE.INTER.norm>
-0.247286

>  <SCORE.INTRA>
-0.378143

>  <SCORE.INTRA.DIHEDRAL>
-1.30324

>  <SCORE.INTRA.DIHEDRAL.0>
1.67653

>  <SCORE.INTRA.POLAR>
0

>  <SCORE.INTRA.POLAR.0>
0

>  <SCORE.INTRA.REPUL>
0

>  <SCORE.INTRA.REPUL.0>
0

>  <SCORE.INTRA.SOLV>
-0.117638

>  <SCORE.INTRA.SOLV.lig_0>
-76.6701

>  <SCORE.INTRA.VDW>
0.332295

>  <SCORE.INTRA.VDW.0>
-1.53273

>  <SCORE.INTRA.norm>
-0.0171883

>  <SCORE.RESTR>
0

>  <SCORE.RESTR.CAVITY>
0

>  <SCORE.RESTR.norm>
0

>  <SCORE.SYSTEM>
0

>  <SCORE.SYSTEM.CONST>
0

>  <SCORE.SYSTEM.DIHEDRAL>
0

>  <SCORE.SYSTEM.SOLV>
0

>  <SCORE.SYSTEM.norm>
0

>  <SCORE.heavy>
22

>  <SCORE.norm>
-0.264474

>  <RMSD>
4.366

$$$$
2f4s_lig
 OpenBabel11021811433D
libRbt.so/2013.1/901 2013/11/27
 22 23  0  0  0  0  0  0  0  0999 V2000
   18.4818   15.5059   31.2193 N   0  0  0  0  0  0  0  0  0  0  0  0
   16.9978   14.3939   35.8816 N   0  0  0  0  0  0  0  0  0  0  0  0
   18.9302   17.6740   38.5337 N   0  0  0  0  0  0  0  0  0  0  0  0
   21.8570   14.7349   34.7578 O   0  0  0  0  0  0  0  0  0  0  0  0
   20.5326   14.3434   34.2934 C   0  0  2  0  0  0  0  0  0  0  0  0
   21.3426   11.6429   37.8848 N   0  0  0  0  0  0  0  0  0  0  0  0
   21.1365   14.8917   31.9704 O   0  0  0  0  0  0  0  0  0  0  0  0
   20.1692   15.1250   33.0008 C   0  0  1  0  0  0  0  0  0  0  0  0
   19.7459   13.8359   36.5588 O   0  0  0  0  0  0  0  0  0  0  0  0
   18.8000   14.7165   32.4712 C   0  0  1  0  0  0  0  0  0  0  0  0
   20.5792   15.3348   38.1093 O   0  0  0  0  0  0  0  0  0  0  0  0
   17.7135   14.9745   33.5693 C   0  0  0  0  0  0  0  0  0  0  0  0
   18.4950   14.2459   40.9299 O   0  0  0  0  0  0  0  0  0  0  0  0
   18.0893   14.1385   34.8526 C   0  0  1  0  0  0  0  0  0  0  0  0
   20.0815   11.9302   40.4489 O   0  0  0  0  0  0  0  0  0  0  0  0
   19.4454   14.6105   35.4080 C   0  0  2  0  0  0  0  0  0  0  0  0
   20.8807   14.0697   37.3738 C   0  0  1  0  0  0  0  0  0  0  0  0
   19.3848   15.3165   39.0004 C   0  0  2  0  0  0  0  0  0  0  0  0
   19.2338   16.7031   39.6335 C   0  0  0  0  0  0  0  0  0  0  0  0
   19.6148   14.2800   40.0774 C   0  0  2  0  0  0  0  0  0  0  0  0
   19.8542   12.9152   39.4341 C   0  0  1  0  0  0  0  0  0  0  0  0
   21.0854   12.9952   38.4984 C   0  0  1  0  0  0  0  0  0  0  0  0
  5  4  1  1  0  0  0
  5  8  1  0  0  0  0
  5 16  1  0  0  0  0
  8  7  1  6  0  0  0
  8 10  1  0  0  0  0
 10  1  1  6  0  0  0
 10 12  1  0  0  0  0
 11 18  1  0  0  0  0
 12 14  1  0  0  0  0
 14  2  1  1  0  0  0
 14 16  1  0  0  0  0
 16  9  1  1  0  0  0
 17  9  1  6  0  0  0
 17 11  1  0  0  0  0
 17 22  1  0  0  0  0
 18 19  1  1  0  0  0
 18 20  1  0  0  0  0
 19  3  1  0  0  0  0
 20 13  1  1  0  0  0
 20 21  1  0  0  0  0
 21 15  1  1  0  0  0
 21 22  1  0  0  0  0
 22  6  1  6  0  0  0
M  END
>  <CHROM.1>
67.67561783,72.11902269,65.14961203,19.67802450,14.46700683,36.56710446,1.62902167
0.85882342,-1.48398998

>  <Name>
2f4s_lig

>  <RI>
2.00194e+07

>  <Rbt.Current_Directory>
/home/itssahil/PROJECTS/Mol_Feturizer/New_Systems/rnas/2f4s

>  <Rbt.Executable>
rbdock ($Id: //depot/dev/client3/rdock/2013.1/src/exe/rbdock.cxx#4 $)

>  <Rbt.Library>
libRbt.so (2013.1, Build901 2013/11/27)

>  <Rbt.Parameter_File>
/export/apps/rDock/src/rDock_2013.1_src/data/scripts/dock_solv.prm

>  <Rbt.Receptor>
prm/pocket_docking_6.prm

>  <SCORE>
-12.1716

>  <SCORE.INTER>
-11.9689

>  <SCORE.INTER.CONST>
1

>  <SCORE.INTER.POLAR>
-1.70396

>  <SCORE.INTER.ROT>
3

>  <SCORE.INTER.SOLV>
15.5621

>  <SCORE.INTER.VDW>
-13.0868

>  <SCORE.INTER.norm>
-0.544041

>  <SCORE.INTRA>
-0.202691

>  <SCORE.INTRA.DIHEDRAL>
-0.45554

>  <SCORE.INTRA.DIHEDRAL.0>
1.67653

>  <SCORE.INTRA.POLAR>
0

>  <SCORE.INTRA.POLAR.0>
0

>  <SCORE.INTRA.REPUL>
0

>  <SCORE.INTRA.REPUL.0>
0

>  <SCORE.INTRA.SOLV>
-0.123405

>  <SCORE.INTRA.SOLV.lig_0>
-76.6701

>  <SCORE.INTRA.VDW>
0.0867808

>  <SCORE.INTRA.VDW.0>
-1.53273

>  <SCORE.INTRA.norm>
-0.00921324

>  <SCORE.RESTR>
0

>  <SCORE.RESTR.CAVITY>
0

>  <SCORE.RESTR.norm>
0

>  <SCORE.SYSTEM>
0

>  <SCORE.SYSTEM.CONST>
0

>  <SCORE.SYSTEM.DIHEDRAL>
0

>  <SCORE.SYSTEM.SOLV>
0

>  <SCORE.SYSTEM.norm>
0

>  <SCORE.heavy>
22

>  <SCORE.norm>
-0.553254

>  <RMSD>
4.931

$$$$
2f4s_lig
 OpenBabel11021811433D
libRbt.so/2013.1/901 2013/11/27
 22 23  0  0  0  0  0  0  0  0999 V2000
   20.4674   14.3569   28.8277 N   0  0  0  0  0  0  0  0  0  0  0  0
   19.7109   11.5062   32.8869 N   0  0  0  0  0  0  0  0  0  0  0  0
   21.9217   12.3799   38.0146 N   0  0  0  0  0  0  0  0  0  0  0  0
   19.5366   16.4927   33.1956 O   0  0  0  0  0  0  0  0  0  0  0  0
   20.1659   15.3412   32.5623 C   0  0  2  0  0  0  0  0  0  0  0  0
   16.7990   14.3320   34.7939 N   0  0  0  0  0  0  0  0  0  0  0  0
   20.5568   16.6319   30.5025 O   0  0  0  0  0  0  0  0  0  0  0  0
   19.9930   15.4213   31.0204 C   0  0  1  0  0  0  0  0  0  0  0  0
   19.7725   13.8955   34.5023 O   0  0  0  0  0  0  0  0  0  0  0  0
   20.6667   14.2452   30.3242 C   0  0  1  0  0  0  0  0  0  0  0  0
   19.7902   12.8625   36.5706 O   0  0  0  0  0  0  0  0  0  0  0  0
   20.0608   12.9024   30.8561 C   0  0  0  0  0  0  0  0  0  0  0  0
   19.4946   15.9186   38.5851 O   0  0  0  0  0  0  0  0  0  0  0  0
   20.2864   12.8335   32.4154 C   0  0  1  0  0  0  0  0  0  0  0  0
   17.0094   15.8940   37.1946 O   0  0  0  0  0  0  0  0  0  0  0  0
   19.5451   13.9935   33.1046 C   0  0  2  0  0  0  0  0  0  0  0  0
   18.9460   13.1390   35.3692 C   0  0  1  0  0  0  0  0  0  0  0  0
   20.2697   14.0498   37.3330 C   0  0  2  0  0  0  0  0  0  0  0  0
   21.1333   13.5582   38.4987 C   0  0  0  0  0  0  0  0  0  0  0  0
   19.0621   14.7906   37.8623 C   0  0  2  0  0  0  0  0  0  0  0  0
   18.1598   15.1993   36.6992 C   0  0  1  0  0  0  0  0  0  0  0  0
   17.7134   13.9351   35.9242 C   0  0  1  0  0  0  0  0  0  0  0  0
  5  4  1  1  0  0  0
  5  8  1  0  0  0  0
  5 16  1  0  0  0  0
  8  7  1  6  0  0  0
  8 10  1  0  0  0  0
 10  1  1  6  0  0  0
 10 12  1  0  0  0  0
 11 18  1  0  0  0  0
 12 14  1  0  0  0  0
 14  2  1  1  0  0  0
 14 16  1  0  0  0  0
 16  9  1  1  0  0  0
 17  9  1  6  0  0  0
 17 11  1  0  0  0  0
 17 22  1  0  0  0  0
 18 19  1  1  0  0  0
 18 20  1  0  0  0  0
 19  3  1  0  0  0  0
 20 13  1  6  0  0  0
 20 21  1  0  0  0  0
 21 15  1  1  0  0  0
 21 22  1  0  0  0  0
 22  6  1  6  0  0  0
M  END
>  <CHROM.1>
154.45777533,158.49313885,37.43306786,19.58841487,14.29631771,34.44209849
-1.35790769,-0.98179362,1.78070800

>  <Name>
2f4s_lig

>  <RI>
2.26097e+07

>  <Rbt.Current_Directory>
/home/itssahil/PROJECTS/Mol_Feturizer/New_Systems/rnas/2f4s

>  <Rbt.Executable>
rbdock ($Id: //depot/dev/client3/rdock/2013.1/src/exe/rbdock.cxx#4 $)

>  <Rbt.Library>
libRbt.so (2013.1, Build901 2013/11/27)

>  <Rbt.Parameter_File>
/export/apps/rDock/src/rDock_2013.1_src/data/scripts/dock_solv.prm

>  <Rbt.Receptor>
prm/pocket_docking_7.prm

>  <SCORE>
-8.29825

>  <SCORE.INTER>
-11.7329

>  <SCORE.INTER.CONST>
1

>  <SCORE.INTER.POLAR>
-1.92293

>  <SCORE.INTER.ROT>
3

>  <SCORE.INTER.SOLV>
15.3848

>  <SCORE.INTER.VDW>
-12.1404

>  <SCORE.INTER.norm>
-0.533313

>  <SCORE.INTRA>
3.43463

>  <SCORE.INTRA.DIHEDRAL>
4.83128

>  <SCORE.INTRA.DIHEDRAL.0>
1.67653

>  <SCORE.INTRA.POLAR>
0

>  <SCORE.INTRA.POLAR.0>
0

>  <SCORE.INTRA.REPUL>
0

>  <SCORE.INTRA.REPUL.0>
0

>  <SCORE.INTRA.SOLV>
1.92111

>  <SCORE.INTRA.SOLV.lig_0>
-76.6701

>  <SCORE.INTRA.VDW>
0.0584408

>  <SCORE.INTRA.VDW.0>
-1.53273

>  <SCORE.INTRA.norm>
0.15612

>  <SCORE.RESTR>
0

>  <SCORE.RESTR.CAVITY>
0

>  <SCORE.RESTR.norm>
0

>  <SCORE.SYSTEM>
0

>  <SCORE.SYSTEM.CONST>
0

>  <SCORE.SYSTEM.DIHEDRAL>
0

>  <SCORE.SYSTEM.SOLV>
0

>  <SCORE.SYSTEM.norm>
0

>  <SCORE.heavy>
22

>  <SCORE.norm>
-0.377193

>  <RMSD>
4.960

$$$$
2f4s_lig
 OpenBabel11021811433D
libRbt.so/2013.1/901 2013/11/27
 22 23  0  0  0  0  0  0  0  0999 V2000
   19.6658   15.8084   30.0269 N   0  0  0  0  0  0  0  0  0  0  0  0
   20.3108   16.9181   34.8775 N   0  0  0  0  0  0  0  0  0  0  0  0
   17.6074   17.5164   36.5132 N   0  0  0  0  0  0  0  0  0  0  0  0
   20.4135   12.1742   33.3041 O   0  0  0  0  0  0  0  0  0  0  0  0
   19.8214   13.4940   33.1295 C   0  0  2  0  0  0  0  0  0  0  0  0
   21.6677   12.5284   37.5724 N   0  0  0  0  0  0  0  0  0  0  0  0
   19.4889   13.0755   30.7262 O   0  0  0  0  0  0  0  0  0  0  0  0
   20.0484   13.9911   31.6752 C   0  0  1  0  0  0  0  0  0  0  0  0
   20.1624   14.1009   35.4798 O   0  0  0  0  0  0  0  0  0  0  0  0
   19.4143   15.3583   31.4502 C   0  0  1  0  0  0  0  0  0  0  0  0
   19.8504   15.7933   37.0236 O   0  0  0  0  0  0  0  0  0  0  0  0
   20.0170   16.3900   32.4628 C   0  0  0  0  0  0  0  0  0  0  0  0
   17.2357   14.1173   38.9832 O   0  0  0  0  0  0  0  0  0  0  0  0
   19.7365   15.8774   33.9276 C   0  0  1  0  0  0  0  0  0  0  0  0
   19.4767   12.4166   39.4257 O   0  0  0  0  0  0  0  0  0  0  0  0
   20.4385   14.5261   34.1540 C   0  0  2  0  0  0  0  0  0  0  0  0
   20.7665   14.6840   36.6207 C   0  0  1  0  0  0  0  0  0  0  0  0
   18.4624   15.4043   37.4021 C   0  0  2  0  0  0  0  0  0  0  0  0
   17.6829   16.6758   37.7510 C   0  0  0  0  0  0  0  0  0  0  0  0
   18.5388   14.4981   38.6105 C   0  0  2  0  0  0  0  0  0  0  0  0
   19.3931   13.2749   38.2821 C   0  0  1  0  0  0  0  0  0  0  0  0
   20.8130   13.7340   37.8684 C   0  0  1  0  0  0  0  0  0  0  0  0
  5  4  1  6  0  0  0
  5  8  1  0  0  0  0
  5 16  1  0  0  0  0
  8  7  1  6  0  0  0
  8 10  1  0  0  0  0
 10  1  1  6  0  0  0
 10 12  1  0  0  0  0
 11 18  1  0  0  0  0
 12 14  1  0  0  0  0
 14  2  1  1  0  0  0
 14 16  1  0  0  0  0
 16  9  1  1  0  0  0
 17  9  1  6  0  0  0
 17 11  1  0  0  0  0
 17 22  1  0  0  0  0
 18 19  1  1  0  0  0
 18 20  1  0  0  0  0
 19  3  1  0  0  0  0
 20 13  1  6  0  0  0
 20 21  1  0  0  0  0
 21 15  1  1  0  0  0
 21 22  1  0  0  0  0
 22  6  1  6  0  0  0
M  END
>  <CHROM.1>
169.12088715,90.42735042,63.40062336,19.58062019,14.61812268,35.34987944
1.29102716,1.12594125,-1.25772039

>  <Name>
2f4s_lig

>  <RI>
2.26097e+07

>  <Rbt.Current_Directory>
/home/itssahil/PROJECTS/Mol_Feturizer/New_Systems/rnas/2f4s

>  <Rbt.Executable>
rbdock ($Id: //depot/dev/client3/rdock/2013.1/src/exe/rbdock.cxx#4 $)

>  <Rbt.Library>
libRbt.so (2013.1, Build901 2013/11/27)

>  <Rbt.Parameter_File>
/export/apps/rDock/src/rDock_2013.1_src/data/scripts/dock_solv.prm

>  <Rbt.Receptor>
prm/pocket_docking_7.prm

>  <SCORE>
-8.38228

>  <SCORE.INTER>
-12.3766

>  <SCORE.INTER.CONST>
1

>  <SCORE.INTER.POLAR>
-1.95857

>  <SCORE.INTER.ROT>
3

>  <SCORE.INTER.SOLV>
10.8709

>  <SCORE.INTER.VDW>
-10.9462

>  <SCORE.INTER.norm>
-0.562574

>  <SCORE.INTRA>
3.99434

>  <SCORE.INTRA.DIHEDRAL>
2.6508

>  <SCORE.INTRA.DIHEDRAL.0>
1.67653

>  <SCORE.INTRA.POLAR>
0

>  <SCORE.INTRA.POLAR.0>
0

>  <SCORE.INTRA.REPUL>
0

>  <SCORE.INTRA.REPUL.0>
0

>  <SCORE.INTRA.SOLV>
4.47544

>  <SCORE.INTRA.SOLV.lig_0>
-76.6701

>  <SCORE.INTRA.VDW>
0.431219

>  <SCORE.INTRA.VDW.0>
-1.53273

>  <SCORE.INTRA.norm>
0.181561

>  <SCORE.RESTR>
0

>  <SCORE.RESTR.CAVITY>
0

>  <SCORE.RESTR.norm>
0

>  <SCORE.SYSTEM>
0

>  <SCORE.SYSTEM.CONST>
0

>  <SCORE.SYSTEM.DIHEDRAL>
0

>  <SCORE.SYSTEM.SOLV>
0

>  <SCORE.SYSTEM.norm>
0

>  <SCORE.heavy>
22

>  <SCORE.norm>
-0.381013

>  <RMSD>
5.050

$$$$
2f4s_lig
 OpenBabel11021811433D
libRbt.so/2013.1/901 2013/11/27
 22 23  0  0  0  0  0  0  0  0999 V2000
   19.5191   15.7957   30.0820 N   0  0  0  0  0  0  0  0  0  0  0  0
   20.2597   16.9026   34.9196 N   0  0  0  0  0  0  0  0  0  0  0  0
   17.6283   17.5113   36.5693 N   0  0  0  0  0  0  0  0  0  0  0  0
   20.3806   12.1634   33.3334 O   0  0  0  0  0  0  0  0  0  0  0  0
   19.7700   13.4768   33.1751 C   0  0  2  0  0  0  0  0  0  0  0  0
   21.6904   12.5230   37.5999 N   0  0  0  0  0  0  0  0  0  0  0  0
   19.3887   13.0595   30.7788 O   0  0  0  0  0  0  0  0  0  0  0  0
   19.9589   13.9794   31.7172 C   0  0  1  0  0  0  0  0  0  0  0  0
   20.1565   14.0826   35.5186 O   0  0  0  0  0  0  0  0  0  0  0  0
   19.3046   15.3398   31.5095 C   0  0  1  0  0  0  0  0  0  0  0  0
   19.8660   15.7847   37.0559 O   0  0  0  0  0  0  0  0  0  0  0  0
   19.9181   16.3762   32.5108 C   0  0  0  0  0  0  0  0  0  0  0  0
   17.2785   14.1214   39.0619 O   0  0  0  0  0  0  0  0  0  0  0  0
   19.6761   15.8574   33.9803 C   0  0  1  0  0  0  0  0  0  0  0  0
   19.5252   12.4231   39.4840 O   0  0  0  0  0  0  0  0  0  0  0  0
   20.3982   14.5136   34.1880 C   0  0  2  0  0  0  0  0  0  0  0  0
   20.7764   14.6727   36.6474 C   0  0  1  0  0  0  0  0  0  0  0  0
   18.4834   15.3983   37.4560 C   0  0  2  0  0  0  0  0  0  0  0  0
   17.7089   16.6722   37.8077 C   0  0  0  0  0  0  0  0  0  0  0  0
   18.5764   14.4997   38.6689 C   0  0  2  0  0  0  0  0  0  0  0  0
   19.4259   13.2743   38.3363 C   0  0  1  0  0  0  0  0  0  0  0  0
   20.8401   13.7305   37.9002 C   0  0  1  0  0  0  0  0  0  0  0  0
  5  4  1  6  0  0  0
  5  8  1  0  0  0  0
  5 16  1  0  0  0  0
  8  7  1  6  0  0  0
  8 10  1  0  0  0  0
 10  1  1  6  0  0  0
 10 12  1  0  0  0  0
 11 18  1  0  0  0  0
 12 14  1  0  0  0  0
 14  2  1  1  0  0  0
 14 16  1  0  0  0  0
 16  9  1  1  0  0  0
 17  9  1  6  0  0  0
 17 11  1  0  0  0  0
 17 22  1  0  0  0  0
 18 19  1  1  0  0  0
 18 20  1  0  0  0  0
 19  3  1  0  0  0  0
 20 13  1  6  0  0  0
 20 21  1  0  0  0  0
 21 15  1  1  0  0  0
 21 22  1  0  0  0  0
 22  6  1  6  0  0  0
M  END
>  <CHROM.1>
169.30847829,89.39015328,62.84468580,19.55935350,14.60919992,35.39696595
1.33970755,1.12724209,-1.30355856

>  <Name>
2f4s_lig

>  <RI>
2.26097e+07

>  <Rbt.Current_Directory>
/home/itssahil/PROJECTS/Mol_Feturizer/New_Systems/rnas/2f4s

>  <Rbt.Executable>
rbdock ($Id: //depot/dev/client3/rdock/2013.1/src/exe/rbdock.cxx#4 $)

>  <Rbt.Library>
libRbt.so (2013.1, Build901 2013/11/27)

>  <Rbt.Parameter_File>
/export/apps/rDock/src/rDock_2013.1_src/data/scripts/dock_solv.prm

>  <Rbt.Receptor>
prm/pocket_docking_7.prm

>  <SCORE>
-8.27741

>  <SCORE.INTER>
-12.3584

>  <SCORE.INTER.CONST>
1

>  <SCORE.INTER.POLAR>
-1.95317

>  <SCORE.INTER.ROT>
3

>  <SCORE.INTER.SOLV>
10.6159

>  <SCORE.INTER.VDW>
-10.867

>  <SCORE.INTER.norm>
-0.561745

>  <SCORE.INTRA>
4.08098

>  <SCORE.INTRA.DIHEDRAL>
2.43018

>  <SCORE.INTRA.DIHEDRAL.0>
1.67653

>  <SCORE.INTRA.POLAR>
0

>  <SCORE.INTRA.POLAR.0>
0

>  <SCORE.INTRA.REPUL>
0

>  <SCORE.INTRA.REPUL.0>
0

>  <SCORE.INTRA.SOLV>
4.62003

>  <SCORE.INTRA.SOLV.lig_0>
-76.6701

>  <SCORE.INTRA.VDW>
0.555873

>  <SCORE.INTRA.VDW.0>
-1.53273

>  <SCORE.INTRA.norm>
0.185499

>  <SCORE.RESTR>
0

>  <SCORE.RESTR.CAVITY>
0

>  <SCORE.RESTR.norm>
0

>  <SCORE.SYSTEM>
0

>  <SCORE.SYSTEM.CONST>
0

>  <SCORE.SYSTEM.DIHEDRAL>
0

>  <SCORE.SYSTEM.SOLV>
0

>  <SCORE.SYSTEM.norm>
0

>  <SCORE.heavy>
22

>  <SCORE.norm>
-0.376246

>  <RMSD>
5.062

$$$$
2f4s_lig
 OpenBabel11021811433D
libRbt.so/2013.1/901 2013/11/27
 22 23  0  0  0  0  0  0  0  0999 V2000
   18.2114   15.0598   31.1174 N   0  0  0  0  0  0  0  0  0  0  0  0
   16.8518   14.2439   35.8778 N   0  0  0  0  0  0  0  0  0  0  0  0
   18.7665   17.6304   38.4135 N   0  0  0  0  0  0  0  0  0  0  0  0
   21.6787   14.5545   34.6145 O   0  0  0  0  0  0  0  0  0  0  0  0
   20.3478   14.1212   34.2096 C   0  0  2  0  0  0  0  0  0  0  0  0
   21.3247   11.6466   37.8495 N   0  0  0  0  0  0  0  0  0  0  0  0
   20.8899   14.5207   31.8415 O   0  0  0  0  0  0  0  0  0  0  0  0
   19.9451   14.8125   32.8779 C   0  0  1  0  0  0  0  0  0  0  0  0
   19.6212   13.7568   36.5222 O   0  0  0  0  0  0  0  0  0  0  0  0
   18.5681   14.3576   32.4101 C   0  0  1  0  0  0  0  0  0  0  0  0
   20.4756   15.3238   37.9918 O   0  0  0  0  0  0  0  0  0  0  0  0
   17.5055   14.6774   33.5154 C   0  0  0  0  0  0  0  0  0  0  0  0
   18.5323   14.2732   40.9253 O   0  0  0  0  0  0  0  0  0  0  0  0
   17.9210   13.9312   34.8412 C   0  0  1  0  0  0  0  0  0  0  0  0
   20.1580   11.9834   40.4520 O   0  0  0  0  0  0  0  0  0  0  0  0
   19.2848   14.4512   35.3307 C   0  0  2  0  0  0  0  0  0  0  0  0
   20.7807   14.0440   37.2836 C   0  0  1  0  0  0  0  0  0  0  0  0
   19.3179   15.3042   38.9300 C   0  0  2  0  0  0  0  0  0  0  0  0
   19.1560   16.7059   39.5261 C   0  0  0  0  0  0  0  0  0  0  0  0
   19.6167   14.3080   40.0281 C   0  0  2  0  0  0  0  0  0  0  0  0
   19.8658   12.9300   39.4176 C   0  0  1  0  0  0  0  0  0  0  0  0
   21.0570   13.0108   38.4314 C   0  0  1  0  0  0  0  0  0  0  0  0
  5  4  1  1  0  0  0
  5  8  1  0  0  0  0
  5 16  1  0  0  0  0
  8  7  1  6  0  0  0
  8 10  1  0  0  0  0
 10  1  1  6  0  0  0
 10 12  1  0  0  0  0
 11 18  1  0  0  0  0
 12 14  1  0  0  0  0
 14  2  1  1  0  0  0
 14 16  1  0  0  0  0
 16  9  1  1  0  0  0
 17  9  1  1  0  0  0
 17 11  1  0  0  0  0
 17 22  1  0  0  0  0
 18 19  1  1  0  0  0
 18 20  1  0  0  0  0
 19  3  1  0  0  0  0
 20 13  1  1  0  0  0
 20 21  1  0  0  0  0
 21 15  1  1  0  0  0
 21 22  1  0  0  0  0
 22  6  1  6  0  0  0
M  END
>  <CHROM.1>
66.93840300,74.78640434,65.90060317,19.56197348,14.34403382,36.49868533,1.67210677
0.83450836,-1.57120294

>  <Name>
2f4s_lig

>  <RI>
2.00194e+07

>  <Rbt.Current_Directory>
/home/itssahil/PROJECTS/Mol_Feturizer/New_Systems/rnas/2f4s

>  <Rbt.Executable>
rbdock ($Id: //depot/dev/client3/rdock/2013.1/src/exe/rbdock.cxx#4 $)

>  <Rbt.Library>
libRbt.so (2013.1, Build901 2013/11/27)

>  <Rbt.Parameter_File>
/export/apps/rDock/src/rDock_2013.1_src/data/scripts/dock_solv.prm

>  <Rbt.Receptor>
prm/pocket_docking_6.prm

>  <SCORE>
-12.1816

>  <SCORE.INTER>
-12.1505

>  <SCORE.INTER.CONST>
1

>  <SCORE.INTER.POLAR>
-1.68143

>  <SCORE.INTER.ROT>
3

>  <SCORE.INTER.SOLV>
15.7894

>  <SCORE.INTER.VDW>
-13.3587

>  <SCORE.INTER.norm>
-0.552295

>  <SCORE.INTRA>
-0.0310911

>  <SCORE.INTRA.DIHEDRAL>
-0.162331

>  <SCORE.INTRA.DIHEDRAL.0>
1.67653

>  <SCORE.INTRA.POLAR>
0

>  <SCORE.INTRA.POLAR.0>
0

>  <SCORE.INTRA.REPUL>
0

>  <SCORE.INTRA.REPUL.0>
0

>  <SCORE.INTRA.SOLV>
-0.14889

>  <SCORE.INTRA.SOLV.lig_0>
-76.6701

>  <SCORE.INTRA.VDW>
0.124519

>  <SCORE.INTRA.VDW.0>
-1.53273

>  <SCORE.INTRA.norm>
-0.00141323

>  <SCORE.RESTR>
0

>  <SCORE.RESTR.CAVITY>
0

>  <SCORE.RESTR.norm>
0

>  <SCORE.SYSTEM>
0

>  <SCORE.SYSTEM.CONST>
0

>  <SCORE.SYSTEM.DIHEDRAL>
0

>  <SCORE.SYSTEM.SOLV>
0

>  <SCORE.SYSTEM.norm>
0

>  <SCORE.heavy>
22

>  <SCORE.norm>
-0.553708

>  <RMSD>
5.086

$$$$
2f4s_lig
 OpenBabel11021811433D
libRbt.so/2013.1/901 2013/11/27
 22 23  0  0  0  0  0  0  0  0999 V2000
   24.6618   16.2002   37.2611 N   0  0  0  0  0  0  0  0  0  0  0  0
   20.7994   12.9996   37.3776 N   0  0  0  0  0  0  0  0  0  0  0  0
   15.3400   15.3923   36.7273 N   0  0  0  0  0  0  0  0  0  0  0  0
   20.9912   16.6526   33.9704 O   0  0  0  0  0  0  0  0  0  0  0  0
   21.2992   16.2572   35.3385 C   0  0  2  0  0  0  0  0  0  0  0  0
   20.1130   12.4765   33.4280 N   0  0  0  0  0  0  0  0  0  0  0  0
   23.2435   17.7669   35.3842 O   0  0  0  0  0  0  0  0  0  0  0  0
   22.8207   16.4169   35.6090 C   0  0  1  0  0  0  0  0  0  0  0  0
   19.4558   14.6438   35.4249 O   0  0  0  0  0  0  0  0  0  0  0  0
   23.1725   16.0392   37.0427 C   0  0  1  0  0  0  0  0  0  0  0  0
   17.3652   13.6994   35.7121 O   0  0  0  0  0  0  0  0  0  0  0  0
   22.7379   14.5600   37.3182 C   0  0  0  0  0  0  0  0  0  0  0  0
   15.9168   14.8807   32.5510 O   0  0  0  0  0  0  0  0  0  0  0  0
   21.1847   14.4398   37.0730 C   0  0  1  0  0  0  0  0  0  0  0  0
   17.9669   13.1291   31.6347 O   0  0  0  0  0  0  0  0  0  0  0  0
   20.8588   14.7634   35.6035 C   0  0  2  0  0  0  0  0  0  0  0  0
   18.7869   13.3965   35.3668 C   0  0  1  0  0  0  0  0  0  0  0  0
   16.6456   14.6354   34.8026 C   0  0  2  0  0  0  0  0  0  0  0  0
   15.2257   14.8356   35.3411 C   0  0  0  0  0  0  0  0  0  0  0  0
   16.5921   14.0095   33.4268 C   0  0  2  0  0  0  0  0  0  0  0  0
   18.0109   13.7301   32.9341 C   0  0  1  0  0  0  0  0  0  0  0  0
   18.7231   12.7782   33.9264 C   0  0  1  0  0  0  0  0  0  0  0  0
  5  4  1  6  0  0  0
  5  8  1  0  0  0  0
  5 16  1  0  0  0  0
  8  7  1  1  0  0  0
  8 10  1  0  0  0  0
 10  1  1  6  0  0  0
 10 12  1  0  0  0  0
 11 18  1  0  0  0  0
 12 14  1  0  0  0  0
 14  2  1  6  0  0  0
 14 16  1  0  0  0  0
 16  9  1  1  0  0  0
 17  9  1  6  0  0  0
 17 11  1  0  0  0  0
 17 22  1  0  0  0  0
 18 19  1  1  0  0  0
 18 20  1  0  0  0  0
 19  3  1  0  0  0  0
 20 13  1  6  0  0  0
 20 21  1  0  0  0  0
 21 15  1  6  0  0  0
 21 22  1  0  0  0  0
 22  6  1  6  0  0  0
M  END
>  <CHROM.1>
168.94196804,158.38175561,59.15941963,19.60828792,14.73189736,35.10930485
0.38832981,0.24278878,1.45343936

>  <Name>
2f4s_lig

>  <RI>
2.00194e+07

>  <Rbt.Current_Directory>
/home/itssahil/PROJECTS/Mol_Feturizer/New_Systems/rnas/2f4s

>  <Rbt.Executable>
rbdock ($Id: //depot/dev/client3/rdock/2013.1/src/exe/rbdock.cxx#4 $)

>  <Rbt.Library>
libRbt.so (2013.1, Build901 2013/11/27)

>  <Rbt.Parameter_File>
/export/apps/rDock/src/rDock_2013.1_src/data/scripts/dock_solv.prm

>  <Rbt.Receptor>
prm/pocket_docking_6.prm

>  <SCORE>
-7.19428

>  <SCORE.INTER>
-8.88353

>  <SCORE.INTER.CONST>
1

>  <SCORE.INTER.POLAR>
-1.78714

>  <SCORE.INTER.ROT>
3

>  <SCORE.INTER.SOLV>
13.2187

>  <SCORE.INTER.VDW>
-9.97146

>  <SCORE.INTER.norm>
-0.403797

>  <SCORE.INTRA>
1.68926

>  <SCORE.INTRA.DIHEDRAL>
1.06988

>  <SCORE.INTRA.DIHEDRAL.0>
1.67653

>  <SCORE.INTRA.POLAR>
0

>  <SCORE.INTRA.POLAR.0>
0

>  <SCORE.INTRA.REPUL>
0

>  <SCORE.INTRA.REPUL.0>
0

>  <SCORE.INTRA.SOLV>
2.0066

>  <SCORE.INTRA.SOLV.lig_0>
-76.6701

>  <SCORE.INTRA.VDW>
0.151017

>  <SCORE.INTRA.VDW.0>
-1.53273

>  <SCORE.INTRA.norm>
0.0767844

>  <SCORE.RESTR>
0

>  <SCORE.RESTR.CAVITY>
0

>  <SCORE.RESTR.norm>
0

>  <SCORE.SYSTEM>
0

>  <SCORE.SYSTEM.CONST>
0

>  <SCORE.SYSTEM.DIHEDRAL>
0

>  <SCORE.SYSTEM.SOLV>
0

>  <SCORE.SYSTEM.norm>
0

>  <SCORE.heavy>
22

>  <SCORE.norm>
-0.327013

>  <RMSD>
5.110

$$$$
2f4s_lig
 OpenBabel11021811433D
libRbt.so/2013.1/901 2013/11/27
 22 23  0  0  0  0  0  0  0  0999 V2000
   17.7395   18.6956   32.4727 N   0  0  0  0  0  0  0  0  0  0  0  0
   19.7735   18.1218   37.0235 N   0  0  0  0  0  0  0  0  0  0  0  0
   24.8379   18.6245   37.7662 N   0  0  0  0  0  0  0  0  0  0  0  0
   21.1313   15.1690   33.2250 O   0  0  0  0  0  0  0  0  0  0  0  0
   20.0438   15.9054   33.8557 C   0  0  2  0  0  0  0  0  0  0  0  0
   21.4278   12.9635   37.3138 N   0  0  0  0  0  0  0  0  0  0  0  0
   18.9727   16.2819   31.6711 O   0  0  0  0  0  0  0  0  0  0  0  0
   19.4467   16.9334   32.8555 C   0  0  1  0  0  0  0  0  0  0  0  0
   21.0250   15.6952   36.0921 O   0  0  0  0  0  0  0  0  0  0  0  0
   18.2853   17.7011   33.4750 C   0  0  1  0  0  0  0  0  0  0  0  0
   23.3088   15.8506   35.7681 O   0  0  0  0  0  0  0  0  0  0  0  0
   18.7736   18.4407   34.7663 C   0  0  0  0  0  0  0  0  0  0  0  0
   24.1995   16.5216   39.2670 O   0  0  0  0  0  0  0  0  0  0  0  0
   19.3372   17.3680   35.7757 C   0  0  1  0  0  0  0  0  0  0  0  0
   23.1348   13.8854   39.4314 O   0  0  0  0  0  0  0  0  0  0  0  0
   20.5487   16.6489   35.1549 C   0  0  2  0  0  0  0  0  0  0  0  0
   22.1681   14.8904   35.8637 C   0  0  1  0  0  0  0  0  0  0  0  0
   23.5808   16.6814   36.9751 C   0  0  2  0  0  0  0  0  0  0  0  0
   24.7583   17.6109   36.6659 C   0  0  0  0  0  0  0  0  0  0  0  0
   23.9404   15.7549   38.1150 C   0  0  2  0  0  0  0  0  0  0  0  0
   22.7967   14.7717   38.3582 C   0  0  1  0  0  0  0  0  0  0  0  0
   22.5357   13.9553   37.0685 C   0  0  1  0  0  0  0  0  0  0  0  0
  5  4  1  6  0  0  0
  5  8  1  0  0  0  0
  5 16  1  0  0  0  0
  8  7  1  6  0  0  0
  8 10  1  0  0  0  0
 10  1  1  6  0  0  0
 10 12  1  0  0  0  0
 11 18  1  0  0  0  0
 12 14  1  0  0  0  0
 14  2  1  1  0  0  0
 14 16  1  0  0  0  0
 16  9  1  1  0  0  0
 17  9  1  1  0  0  0
 17 11  1  0  0  0  0
 17 22  1  0  0  0  0
 18 19  1  6  0  0  0
 18 20  1  0  0  0  0
 19  3  1  0  0  0  0
 20 13  1  1  0  0  0
 20 21  1  0  0  0  0
 21 15  1  1  0  0  0
 21 22  1  0  0  0  0
 22  6  1  1  0  0  0
M  END
>  <CHROM.1>
65.73996460,63.51816869,168.47689394,21.46950546,16.27376997,35.86721005
-2.85768594,0.78920019,3.07256135

>  <Name>
2f4s_lig

>  <RI>
2.26097e+07

>  <Rbt.Current_Directory>
/home/itssahil/PROJECTS/Mol_Feturizer/New_Systems/rnas/2f4s

>  <Rbt.Executable>
rbdock ($Id: //depot/dev/client3/rdock/2013.1/src/exe/rbdock.cxx#4 $)

>  <Rbt.Library>
libRbt.so (2013.1, Build901 2013/11/27)

>  <Rbt.Parameter_File>
/export/apps/rDock/src/rDock_2013.1_src/data/scripts/dock_solv.prm

>  <Rbt.Receptor>
prm/pocket_docking_7.prm

>  <SCORE>
-5.79589

>  <SCORE.INTER>
-6.20289

>  <SCORE.INTER.CONST>
1

>  <SCORE.INTER.POLAR>
-1.52656

>  <SCORE.INTER.ROT>
3

>  <SCORE.INTER.SOLV>
8.1808

>  <SCORE.INTER.VDW>
-7.37366

>  <SCORE.INTER.norm>
-0.281949

>  <SCORE.INTRA>
0.406996

>  <SCORE.INTRA.DIHEDRAL>
-0.839351

>  <SCORE.INTRA.DIHEDRAL.0>
1.67653

>  <SCORE.INTRA.POLAR>
0

>  <SCORE.INTRA.POLAR.0>
0

>  <SCORE.INTRA.REPUL>
0

>  <SCORE.INTRA.REPUL.0>
0

>  <SCORE.INTRA.SOLV>
0.800877

>  <SCORE.INTRA.SOLV.lig_0>
-76.6701

>  <SCORE.INTRA.VDW>
0.426232

>  <SCORE.INTRA.VDW.0>
-1.53273

>  <SCORE.INTRA.norm>
0.0184998

>  <SCORE.RESTR>
0

>  <SCORE.RESTR.CAVITY>
0

>  <SCORE.RESTR.norm>
0

>  <SCORE.SYSTEM>
0

>  <SCORE.SYSTEM.CONST>
0

>  <SCORE.SYSTEM.DIHEDRAL>
0

>  <SCORE.SYSTEM.SOLV>
0

>  <SCORE.SYSTEM.norm>
0

>  <SCORE.heavy>
22

>  <SCORE.norm>
-0.26345

>  <RMSD>
5.227

$$$$
2f4s_lig
 OpenBabel11021811433D
libRbt.so/2013.1/901 2013/11/27
 22 23  0  0  0  0  0  0  0  0999 V2000
   17.9386   16.5316   31.8402 N   0  0  0  0  0  0  0  0  0  0  0  0
   20.2867   12.5290   33.7486 N   0  0  0  0  0  0  0  0  0  0  0  0
   19.8883   17.1721   39.3314 N   0  0  0  0  0  0  0  0  0  0  0  0
   17.0690   15.1676   36.5190 O   0  0  0  0  0  0  0  0  0  0  0  0
   18.0886   15.2111   35.4791 C   0  0  2  0  0  0  0  0  0  0  0  0
   21.3259   11.5876   37.7861 N   0  0  0  0  0  0  0  0  0  0  0  0
   17.0014   17.1565   34.4326 O   0  0  0  0  0  0  0  0  0  0  0  0
   17.5018   15.8375   34.1841 C   0  0  1  0  0  0  0  0  0  0  0  0
   19.2409   13.2283   36.3446 O   0  0  0  0  0  0  0  0  0  0  0  0
   18.5526   15.9252   33.0840 C   0  0  1  0  0  0  0  0  0  0  0  0
   19.9772   15.1020   37.4812 O   0  0  0  0  0  0  0  0  0  0  0  0
   19.1104   14.4948   32.7749 C   0  0  0  0  0  0  0  0  0  0  0  0
   18.4399   14.2815   40.7137 O   0  0  0  0  0  0  0  0  0  0  0  0
   19.7329   13.9027   34.0974 C   0  0  1  0  0  0  0  0  0  0  0  0
   20.3318   12.1738   40.4159 O   0  0  0  0  0  0  0  0  0  0  0  0
   18.6416   13.7630   35.1743 C   0  0  2  0  0  0  0  0  0  0  0  0
   20.4041   13.7773   36.9379 C   0  0  1  0  0  0  0  0  0  0  0  0
   18.9116   15.0806   38.5228 C   0  0  2  0  0  0  0  0  0  0  0  0
   18.5997   16.5256   38.9240 C   0  0  0  0  0  0  0  0  0  0  0  0
   19.4342   14.3148   39.7176 C   0  0  2  0  0  0  0  0  0  0  0  0
   19.8276   12.9019   39.2901 C   0  0  1  0  0  0  0  0  0  0  0  0
   20.9139   12.9801   38.1892 C   0  0  1  0  0  0  0  0  0  0  0  0
  5  4  1  1  0  0  0
  5  8  1  0  0  0  0
  5 16  1  0  0  0  0
  8  7  1  1  0  0  0
  8 10  1  0  0  0  0
 10  1  1  6  0  0  0
 10 12  1  0  0  0  0
 11 18  1  0  0  0  0
 12 14  1  0  0  0  0
 14  2  1  6  0  0  0
 14 16  1  0  0  0  0
 16  9  1  1  0  0  0
 17  9  1  1  0  0  0
 17 11  1  0  0  0  0
 17 22  1  0  0  0  0
 18 19  1  1  0  0  0
 18 20  1  0  0  0  0
 19  3  1  0  0  0  0
 20 13  1  1  0  0  0
 20 21  1  0  0  0  0
 21 15  1  1  0  0  0
 21 22  1  0  0  0  0
 22  6  1  6  0  0  0
M  END
>  <CHROM.1>
-65.21400577,68.41450778,-54.37866287,19.12643504,14.53409008,36.63508778
2.03886130,1.01469620,-1.69098841

>  <Name>
2f4s_lig

>  <RI>
0

>  <Rbt.Current_Directory>
/home/itssahil/PROJECTS/Mol_Feturizer/New_Systems/rnas/2f4s

>  <Rbt.Executable>
rbdock ($Id: //depot/dev/client3/rdock/2013.1/src/exe/rbdock.cxx#4 $)

>  <Rbt.Library>
libRbt.so (2013.1, Build901 2013/11/27)

>  <Rbt.Parameter_File>
/export/apps/rDock/src/rDock_2013.1_src/data/scripts/dock_solv.prm

>  <Rbt.Receptor>
prm/pocket_docking_5.prm

>  <SCORE>
-5.09023

>  <SCORE.INTER>
-7.07133

>  <SCORE.INTER.CONST>
1

>  <SCORE.INTER.POLAR>
-1.32416

>  <SCORE.INTER.ROT>
3

>  <SCORE.INTER.SOLV>
17.6151

>  <SCORE.INTER.VDW>
-11.772

>  <SCORE.INTER.norm>
-0.321424

>  <SCORE.INTRA>
1.81591

>  <SCORE.INTRA.DIHEDRAL>
-0.934535

>  <SCORE.INTRA.DIHEDRAL.0>
1.67653

>  <SCORE.INTRA.POLAR>
0

>  <SCORE.INTRA.POLAR.0>
0

>  <SCORE.INTRA.REPUL>
0

>  <SCORE.INTRA.REPUL.0>
0

>  <SCORE.INTRA.SOLV>
2.44037

>  <SCORE.INTRA.SOLV.lig_0>
-76.6701

>  <SCORE.INTRA.VDW>
1.063

>  <SCORE.INTRA.VDW.0>
-1.53273

>  <SCORE.INTRA.norm>
0.0825416

>  <SCORE.RESTR>
0.165192

>  <SCORE.RESTR.CAVITY>
0.165192

>  <SCORE.RESTR.norm>
0.00750875

>  <SCORE.SYSTEM>
0

>  <SCORE.SYSTEM.CONST>
0

>  <SCORE.SYSTEM.DIHEDRAL>
0

>  <SCORE.SYSTEM.SOLV>
0

>  <SCORE.SYSTEM.norm>
0

>  <SCORE.heavy>
22

>  <SCORE.norm>
-0.231374

>  <RMSD>
5.234

$$$$
2f4s_lig
 OpenBabel11021811433D
libRbt.so/2013.1/901 2013/11/27
 22 23  0  0  0  0  0  0  0  0999 V2000
   18.3210   18.2913   30.3738 N   0  0  0  0  0  0  0  0  0  0  0  0
   21.0371   14.9556   32.9566 N   0  0  0  0  0  0  0  0  0  0  0  0
   17.6561   14.2035   36.2149 N   0  0  0  0  0  0  0  0  0  0  0  0
   19.1739   19.0182   35.1958 O   0  0  0  0  0  0  0  0  0  0  0  0
   19.7414   18.4636   33.9738 C   0  0  2  0  0  0  0  0  0  0  0  0
   23.1419   17.5344   37.2299 N   0  0  0  0  0  0  0  0  0  0  0  0
   18.4278   20.0289   32.6006 O   0  0  0  0  0  0  0  0  0  0  0  0
   18.7467   18.6459   32.7944 C   0  0  1  0  0  0  0  0  0  0  0  0
   21.0474   16.7825   35.1891 O   0  0  0  0  0  0  0  0  0  0  0  0
   19.3229   18.1022   31.4927 C   0  0  1  0  0  0  0  0  0  0  0  0
   19.6766   16.0677   36.9081 O   0  0  0  0  0  0  0  0  0  0  0  0
   19.6683   16.5843   31.6645 C   0  0  0  0  0  0  0  0  0  0  0  0
   21.4567   12.9329   37.6083 O   0  0  0  0  0  0  0  0  0  0  0  0
   20.7076   16.4366   32.8414 C   0  0  1  0  0  0  0  0  0  0  0  0
   23.4153   14.8822   38.2970 O   0  0  0  0  0  0  0  0  0  0  0  0
   20.0831   16.9323   34.1584 C   0  0  2  0  0  0  0  0  0  0  0  0
   20.7643   17.0293   36.5550 C   0  0  1  0  0  0  0  0  0  0  0  0
   20.0008   14.6193   36.7732 C   0  0  2  0  0  0  0  0  0  0  0  0
   18.7571   13.8091   37.1513 C   0  0  0  0  0  0  0  0  0  0  0  0
   21.1337   14.2984   37.7223 C   0  0  2  0  0  0  0  0  0  0  0  0
   22.3414   15.1751   37.3956 C   0  0  1  0  0  0  0  0  0  0  0  0
   21.9449   16.6667   37.5224 C   0  0  1  0  0  0  0  0  0  0  0  0
  5  4  1  1  0  0  0
  5  8  1  0  0  0  0
  5 16  1  0  0  0  0
  8  7  1  6  0  0  0
  8 10  1  0  0  0  0
 10  1  1  6  0  0  0
 10 12  1  0  0  0  0
 11 18  1  0  0  0  0
 12 14  1  0  0  0  0
 14  2  1  1  0  0  0
 14 16  1  0  0  0  0
 16  9  1  1  0  0  0
 17  9  1  6  0  0  0
 17 11  1  0  0  0  0
 17 22  1  0  0  0  0
 18 19  1  1  0  0  0
 18 20  1  0  0  0  0
 19  3  1  0  0  0  0
 20 13  1  6  0  0  0
 20 21  1  0  0  0  0
 21 15  1  1  0  0  0
 21 22  1  0  0  0  0
 22  6  1  6  0  0  0
M  END
>  <CHROM.1>
69.09008582,60.54192680,59.82078989,20.30161801,16.43051979,35.15149587,2.10224860
-0.80269829,-0.58550203

>  <Name>
2f4s_lig

>  <RI>
0

>  <Rbt.Current_Directory>
/home/itssahil/PROJECTS/Mol_Feturizer/New_Systems/rnas/2f4s

>  <Rbt.Executable>
rbdock ($Id: //depot/dev/client3/rdock/2013.1/src/exe/rbdock.cxx#4 $)

>  <Rbt.Library>
libRbt.so (2013.1, Build901 2013/11/27)

>  <Rbt.Parameter_File>
/export/apps/rDock/src/rDock_2013.1_src/data/scripts/dock_solv.prm

>  <Rbt.Receptor>
prm/pocket_docking_8.prm

>  <SCORE>
-6.69096

>  <SCORE.INTER>
-6.2536

>  <SCORE.INTER.CONST>
1

>  <SCORE.INTER.POLAR>
-1.72813

>  <SCORE.INTER.ROT>
3

>  <SCORE.INTER.SOLV>
9.70983

>  <SCORE.INTER.VDW>
-7.24525

>  <SCORE.INTER.norm>
-0.284254

>  <SCORE.INTRA>
-0.437364

>  <SCORE.INTRA.DIHEDRAL>
-1.11795

>  <SCORE.INTRA.DIHEDRAL.0>
1.67653

>  <SCORE.INTRA.POLAR>
0

>  <SCORE.INTRA.POLAR.0>
0

>  <SCORE.INTRA.REPUL>
0

>  <SCORE.INTRA.REPUL.0>
0

>  <SCORE.INTRA.SOLV>
0.117578

>  <SCORE.INTRA.SOLV.lig_0>
-76.6701

>  <SCORE.INTRA.VDW>
0.0628207

>  <SCORE.INTRA.VDW.0>
-1.53273

>  <SCORE.INTRA.norm>
-0.0198802

>  <SCORE.RESTR>
0

>  <SCORE.RESTR.CAVITY>
0

>  <SCORE.RESTR.norm>
0

>  <SCORE.SYSTEM>
0

>  <SCORE.SYSTEM.CONST>
0

>  <SCORE.SYSTEM.DIHEDRAL>
0

>  <SCORE.SYSTEM.SOLV>
0

>  <SCORE.SYSTEM.norm>
0

>  <SCORE.heavy>
22

>  <SCORE.norm>
-0.304135

>  <RMSD>
5.259

$$$$
2f4s_lig
 OpenBabel11021811433D
libRbt.so/2013.1/901 2013/11/27
 22 23  0  0  0  0  0  0  0  0999 V2000
   23.3262   12.0490   41.8870 N   0  0  0  0  0  0  0  0  0  0  0  0
   23.2183   14.4637   37.4900 N   0  0  0  0  0  0  0  0  0  0  0  0
   20.0052   11.9017   32.8806 N   0  0  0  0  0  0  0  0  0  0  0  0
   19.1756   12.0636   39.1889 O   0  0  0  0  0  0  0  0  0  0  0  0
   20.6301   12.0737   39.1052 C   0  0  2  0  0  0  0  0  0  0  0  0
   19.5367   15.9600   37.8965 N   0  0  0  0  0  0  0  0  0  0  0  0
   20.8072   10.9227   41.2744 O   0  0  0  0  0  0  0  0  0  0  0  0
   21.2455   12.0665   40.5317 C   0  0  1  0  0  0  0  0  0  0  0  0
   20.6291   13.2979   36.9816 O   0  0  0  0  0  0  0  0  0  0  0  0
   22.7683   12.0467   40.4797 C   0  0  1  0  0  0  0  0  0  0  0  0
   20.2081   13.9145   34.7935 O   0  0  0  0  0  0  0  0  0  0  0  0
   23.2832   13.2955   39.6870 C   0  0  0  0  0  0  0  0  0  0  0  0
   16.5687   13.4365   34.8998 O   0  0  0  0  0  0  0  0  0  0  0  0
   22.6730   13.2532   38.2334 C   0  0  1  0  0  0  0  0  0  0  0  0
   16.9314   15.5677   36.7536 O   0  0  0  0  0  0  0  0  0  0  0  0
   21.1376   13.3385   38.3061 C   0  0  2  0  0  0  0  0  0  0  0  0
   20.5428   14.4420   36.1508 C   0  0  1  0  0  0  0  0  0  0  0  0
   18.9219   13.1725   34.6677 C   0  0  2  0  0  0  0  0  0  0  0  0
   18.7800   12.6945   33.2194 C   0  0  0  0  0  0  0  0  0  0  0  0
   17.7943   14.1201   35.0110 C   0  0  2  0  0  0  0  0  0  0  0  0
   17.9917   14.6624   36.4255 C   0  0  1  0  0  0  0  0  0  0  0  0
   19.3519   15.3978   36.5104 C   0  0  1  0  0  0  0  0  0  0  0  0
  5  4  1  1  0  0  0
  5  8  1  0  0  0  0
  5 16  1  0  0  0  0
  8  7  1  1  0  0  0
  8 10  1  0  0  0  0
 10  1  1  1  0  0  0
 10 12  1  0  0  0  0
 11 18  1  0  0  0  0
 12 14  1  0  0  0  0
 14  2  1  6  0  0  0
 14 16  1  0  0  0  0
 16  9  1  6  0  0  0
 17  9  1  1  0  0  0
 17 11  1  0  0  0  0
 17 22  1  0  0  0  0
 18 19  1  6  0  0  0
 18 20  1  0  0  0  0
 19  3  1  0  0  0  0
 20 13  1  1  0  0  0
 20 21  1  0  0  0  0
 21 15  1  6  0  0  0
 21 22  1  0  0  0  0
 22  6  1  1  0  0  0
M  END
>  <CHROM.1>
159.84964731,169.60018037,54.98990481,20.20340583,13.36066824,37.37284875
-0.96109673,0.26564309,-1.48443634

>  <Name>
2f4s_lig

>  <RI>
0

>  <Rbt.Current_Directory>
/home/itssahil/PROJECTS/Mol_Feturizer/New_Systems/rnas/2f4s

>  <Rbt.Executable>
rbdock ($Id: //depot/dev/client3/rdock/2013.1/src/exe/rbdock.cxx#4 $)

>  <Rbt.Library>
libRbt.so (2013.1, Build901 2013/11/27)

>  <Rbt.Parameter_File>
/export/apps/rDock/src/rDock_2013.1_src/data/scripts/dock_solv.prm

>  <Rbt.Receptor>
prm/pocket_docking_5.prm

>  <SCORE>
-12.6574

>  <SCORE.INTER>
-14.1747

>  <SCORE.INTER.CONST>
1

>  <SCORE.INTER.POLAR>
-1.90619

>  <SCORE.INTER.ROT>
3

>  <SCORE.INTER.SOLV>
17.898

>  <SCORE.INTER.VDW>
-14.6619

>  <SCORE.INTER.norm>
-0.644307

>  <SCORE.INTRA>
1.51734

>  <SCORE.INTRA.DIHEDRAL>
0.882367

>  <SCORE.INTRA.DIHEDRAL.0>
1.67653

>  <SCORE.INTRA.POLAR>
0

>  <SCORE.INTRA.POLAR.0>
0

>  <SCORE.INTRA.REPUL>
0

>  <SCORE.INTRA.REPUL.0>
0

>  <SCORE.INTRA.SOLV>
2.35033

>  <SCORE.INTRA.SOLV.lig_0>
-76.6701

>  <SCORE.INTRA.VDW>
-0.0990091

>  <SCORE.INTRA.VDW.0>
-1.53273

>  <SCORE.INTRA.norm>
0.0689699

>  <SCORE.RESTR>
0

>  <SCORE.RESTR.CAVITY>
0

>  <SCORE.RESTR.norm>
0

>  <SCORE.SYSTEM>
0

>  <SCORE.SYSTEM.CONST>
0

>  <SCORE.SYSTEM.DIHEDRAL>
0

>  <SCORE.SYSTEM.SOLV>
0

>  <SCORE.SYSTEM.norm>
0

>  <SCORE.heavy>
22

>  <SCORE.norm>
-0.575337

>  <RMSD>
5.368

$$$$
2f4s_lig
 OpenBabel11021811433D
libRbt.so/2013.1/901 2013/11/27
 22 23  0  0  0  0  0  0  0  0999 V2000
   23.3442   12.0542   41.8823 N   0  0  0  0  0  0  0  0  0  0  0  0
   23.1999   14.4388   37.4699 N   0  0  0  0  0  0  0  0  0  0  0  0
   20.1041   11.7193   32.9256 N   0  0  0  0  0  0  0  0  0  0  0  0
   19.1673   12.0621   39.2251 O   0  0  0  0  0  0  0  0  0  0  0  0
   20.6210   12.0674   39.1270 C   0  0  2  0  0  0  0  0  0  0  0  0
   19.3739   15.8938   37.8664 N   0  0  0  0  0  0  0  0  0  0  0  0
   20.8162   10.9310   41.3023 O   0  0  0  0  0  0  0  0  0  0  0  0
   21.2503   12.0683   40.5475 C   0  0  1  0  0  0  0  0  0  0  0  0
   20.6025   13.2769   36.9950 O   0  0  0  0  0  0  0  0  0  0  0  0
   22.7725   12.0438   40.4806 C   0  0  1  0  0  0  0  0  0  0  0  0
   20.2394   13.8779   34.7923 O   0  0  0  0  0  0  0  0  0  0  0  0
   23.2831   13.2856   39.6743 C   0  0  0  0  0  0  0  0  0  0  0  0
   16.6199   13.2581   34.7638 O   0  0  0  0  0  0  0  0  0  0  0  0
   22.6586   13.2350   38.2271 C   0  0  1  0  0  0  0  0  0  0  0  0
   16.8301   15.4008   36.6279 O   0  0  0  0  0  0  0  0  0  0  0  0
   21.1242   13.3252   38.3142 C   0  0  2  0  0  0  0  0  0  0  0  0
   20.5025   14.4172   36.1606 C   0  0  1  0  0  0  0  0  0  0  0  0
   18.9886   13.0863   34.6195 C   0  0  2  0  0  0  0  0  0  0  0  0
   18.9194   12.6039   33.1673 C   0  0  0  0  0  0  0  0  0  0  0  0
   17.8130   13.9890   34.9198 C   0  0  2  0  0  0  0  0  0  0  0  0
   17.9364   14.5378   36.3402 C   0  0  1  0  0  0  0  0  0  0  0  0
   19.2627   15.3257   36.4749 C   0  0  1  0  0  0  0  0  0  0  0  0
  5  4  1  1  0  0  0
  5  8  1  0  0  0  0
  5 16  1  0  0  0  0
  8  7  1  1  0  0  0
  8 10  1  0  0  0  0
 10  1  1  1  0  0  0
 10 12  1  0  0  0  0
 11 18  1  0  0  0  0
 12 14  1  0  0  0  0
 14  2  1  6  0  0  0
 14 16  1  0  0  0  0
 16  9  1  6  0  0  0
 17  9  1  1  0  0  0
 17 11  1  0  0  0  0
 17 22  1  0  0  0  0
 18 19  1  6  0  0  0
 18 20  1  0  0  0  0
 19  3  1  0  0  0  0
 20 13  1  1  0  0  0
 20 21  1  0  0  0  0
 21 15  1  6  0  0  0
 21 22  1  0  0  0  0
 22  6  1  1  0  0  0
M  END
>  <CHROM.1>
159.38930492,166.24414918,61.83660809,20.19917426,13.30355083,37.35110023
-0.96271329,0.27432116,-1.50895658

>  <Name>
2f4s_lig

>  <RI>
2.26097e+07

>  <Rbt.Current_Directory>
/home/itssahil/PROJECTS/Mol_Feturizer/New_Systems/rnas/2f4s

>  <Rbt.Executable>
rbdock ($Id: //depot/dev/client3/rdock/2013.1/src/exe/rbdock.cxx#4 $)

>  <Rbt.Library>
libRbt.so (2013.1, Build901 2013/11/27)

>  <Rbt.Parameter_File>
/export/apps/rDock/src/rDock_2013.1_src/data/scripts/dock_solv.prm

>  <Rbt.Receptor>
prm/pocket_docking_7.prm

>  <SCORE>
-12.7977

>  <SCORE.INTER>
-14.3551

>  <SCORE.INTER.CONST>
1

>  <SCORE.INTER.POLAR>
-1.91856

>  <SCORE.INTER.ROT>
3

>  <SCORE.INTER.SOLV>
18.8519

>  <SCORE.INTER.VDW>
-15.0588

>  <SCORE.INTER.norm>
-0.652503

>  <SCORE.INTRA>
1.55736

>  <SCORE.INTRA.DIHEDRAL>
1.24527

>  <SCORE.INTRA.DIHEDRAL.0>
1.67653

>  <SCORE.INTRA.POLAR>
0

>  <SCORE.INTRA.POLAR.0>
0

>  <SCORE.INTRA.REPUL>
0

>  <SCORE.INTRA.REPUL.0>
0

>  <SCORE.INTRA.SOLV>
2.08707

>  <SCORE.INTRA.SOLV.lig_0>
-76.6701

>  <SCORE.INTRA.VDW>
-0.108809

>  <SCORE.INTRA.VDW.0>
-1.53273

>  <SCORE.INTRA.norm>
0.0707891

>  <SCORE.RESTR>
0

>  <SCORE.RESTR.CAVITY>
0

>  <SCORE.RESTR.norm>
0

>  <SCORE.SYSTEM>
0

>  <SCORE.SYSTEM.CONST>
0

>  <SCORE.SYSTEM.DIHEDRAL>
0

>  <SCORE.SYSTEM.SOLV>
0

>  <SCORE.SYSTEM.norm>
0

>  <SCORE.heavy>
22

>  <SCORE.norm>
-0.581714

>  <RMSD>
5.376

$$$$
2f4s_lig
 OpenBabel11021811433D
libRbt.so/2013.1/901 2013/11/27
 22 23  0  0  0  0  0  0  0  0999 V2000
   23.4074   12.0442   41.8615 N   0  0  0  0  0  0  0  0  0  0  0  0
   23.1890   14.3913   37.4322 N   0  0  0  0  0  0  0  0  0  0  0  0
   19.5592   11.6647   33.0691 N   0  0  0  0  0  0  0  0  0  0  0  0
   19.1733   12.0700   39.2966 O   0  0  0  0  0  0  0  0  0  0  0  0
   20.6244   12.0601   39.1667 C   0  0  2  0  0  0  0  0  0  0  0  0
   19.8370   16.0676   37.8282 N   0  0  0  0  0  0  0  0  0  0  0  0
   20.8564   10.9409   41.3473 O   0  0  0  0  0  0  0  0  0  0  0  0
   21.2848   12.0673   40.5729 C   0  0  1  0  0  0  0  0  0  0  0  0
   20.5707   13.2510   37.0248 O   0  0  0  0  0  0  0  0  0  0  0  0
   22.8048   12.0271   40.4729 C   0  0  1  0  0  0  0  0  0  0  0  0
   20.1271   13.7989   34.8230 O   0  0  0  0  0  0  0  0  0  0  0  0
   23.3096   13.2567   39.6444 C   0  0  0  0  0  0  0  0  0  0  0  0
   16.4651   13.7616   35.0952 O   0  0  0  0  0  0  0  0  0  0  0  0
   22.6528   13.1997   38.2118 C   0  0  1  0  0  0  0  0  0  0  0  0
   17.1554   15.9281   36.8098 O   0  0  0  0  0  0  0  0  0  0  0  0
   21.1217   13.3057   38.3318 C   0  0  2  0  0  0  0  0  0  0  0  0
   20.5810   14.3526   36.1343 C   0  0  1  0  0  0  0  0  0  0  0  0
   18.7590   13.2090   34.7887 C   0  0  2  0  0  0  0  0  0  0  0  0
   18.4981   12.6767   33.3763 C   0  0  0  0  0  0  0  0  0  0  0  0
   17.7657   14.3001   35.1204 C   0  0  2  0  0  0  0  0  0  0  0  0
   18.0876   14.8878   36.4933 C   0  0  1  0  0  0  0  0  0  0  0  0
   19.5265   15.4602   36.4844 C   0  0  1  0  0  0  0  0  0  0  0  0
  5  4  1  1  0  0  0
  5  8  1  0  0  0  0
  5 16  1  0  0  0  0
  8  7  1  1  0  0  0
  8 10  1  0  0  0  0
 10  1  1  1  0  0  0
 10 12  1  0  0  0  0
 11 18  1  0  0  0  0
 12 14  1  0  0  0  0
 14  2  1  6  0  0  0
 14 16  1  0  0  0  0
 16  9  1  6  0  0  0
 17  9  1  1  0  0  0
 17 11  1  0  0  0  0
 17 22  1  0  0  0  0
 18 19  1  6  0  0  0
 18 20  1  0  0  0  0
 19  3  1  0  0  0  0
 20 13  1  1  0  0  0
 20 21  1  0  0  0  0
 21 15  1  6  0  0  0
 21 22  1  0  0  0  0
 22  6  1  1  0  0  0
M  END
>  <CHROM.1>
165.72405871,170.55154156,58.41412102,20.19541858,13.38945549,37.42063921
-0.89582115,0.42801985,-1.59817048

>  <Name>
2f4s_lig

>  <RI>
2.26097e+07

>  <Rbt.Current_Directory>
/home/itssahil/PROJECTS/Mol_Feturizer/New_Systems/rnas/2f4s

>  <Rbt.Executable>
rbdock ($Id: //depot/dev/client3/rdock/2013.1/src/exe/rbdock.cxx#4 $)

>  <Rbt.Library>
libRbt.so (2013.1, Build901 2013/11/27)

>  <Rbt.Parameter_File>
/export/apps/rDock/src/rDock_2013.1_src/data/scripts/dock_solv.prm

>  <Rbt.Receptor>
prm/pocket_docking_7.prm

>  <SCORE>
-12.6398

>  <SCORE.INTER>
-13.9201

>  <SCORE.INTER.CONST>
1

>  <SCORE.INTER.POLAR>
-1.93949

>  <SCORE.INTER.ROT>
3

>  <SCORE.INTER.SOLV>
17.3595

>  <SCORE.INTER.VDW>
-14.2016

>  <SCORE.INTER.norm>
-0.632731

>  <SCORE.INTRA>
1.28024

>  <SCORE.INTRA.DIHEDRAL>
-0.139379

>  <SCORE.INTRA.DIHEDRAL.0>
1.67653

>  <SCORE.INTRA.POLAR>
0

>  <SCORE.INTRA.POLAR.0>
0

>  <SCORE.INTRA.REPUL>
0

>  <SCORE.INTRA.REPUL.0>
0

>  <SCORE.INTRA.SOLV>
2.59426

>  <SCORE.INTRA.SOLV.lig_0>
-76.6701

>  <SCORE.INTRA.VDW>
0.0528014

>  <SCORE.INTRA.VDW.0>
-1.53273

>  <SCORE.INTRA.norm>
0.0581928

>  <SCORE.RESTR>
0

>  <SCORE.RESTR.CAVITY>
0

>  <SCORE.RESTR.norm>
0

>  <SCORE.SYSTEM>
0

>  <SCORE.SYSTEM.CONST>
0

>  <SCORE.SYSTEM.DIHEDRAL>
0

>  <SCORE.SYSTEM.SOLV>
0

>  <SCORE.SYSTEM.norm>
0

>  <SCORE.heavy>
22

>  <SCORE.norm>
-0.574538

>  <RMSD>
5.377

$$$$
2f4s_lig
 OpenBabel11021811433D
libRbt.so/2013.1/901 2013/11/27
 22 23  0  0  0  0  0  0  0  0999 V2000
   23.3809   12.0408   41.9187 N   0  0  0  0  0  0  0  0  0  0  0  0
   23.1778   14.4339   37.5133 N   0  0  0  0  0  0  0  0  0  0  0  0
   20.0698   11.6809   32.9930 N   0  0  0  0  0  0  0  0  0  0  0  0
   19.1852   12.0075   39.2915 O   0  0  0  0  0  0  0  0  0  0  0  0
   20.6380   12.0295   39.1831 C   0  0  2  0  0  0  0  0  0  0  0  0
   19.4320   15.9034   37.8916 N   0  0  0  0  0  0  0  0  0  0  0  0
   20.8616   10.8903   41.3542 O   0  0  0  0  0  0  0  0  0  0  0  0
   21.2775   12.0343   40.5990 C   0  0  1  0  0  0  0  0  0  0  0  0
   20.5904   13.2437   37.0542 O   0  0  0  0  0  0  0  0  0  0  0  0
   22.7993   12.0271   40.5212 C   0  0  1  0  0  0  0  0  0  0  0  0
   20.2396   13.8242   34.8440 O   0  0  0  0  0  0  0  0  0  0  0  0
   23.2900   13.2765   39.7142 C   0  0  0  0  0  0  0  0  0  0  0  0
   16.6051   13.2990   34.8285 O   0  0  0  0  0  0  0  0  0  0  0  0
   22.6556   13.2223   38.2714 C   0  0  1  0  0  0  0  0  0  0  0  0
   16.8742   15.4605   36.6631 O   0  0  0  0  0  0  0  0  0  0  0  0
   21.1210   13.2949   38.3698 C   0  0  2  0  0  0  0  0  0  0  0  0
   20.5190   14.3749   36.2045 C   0  0  1  0  0  0  0  0  0  0  0  0
   18.9683   13.0633   34.6835 C   0  0  2  0  0  0  0  0  0  0  0  0
   18.8842   12.5633   33.2381 C   0  0  0  0  0  0  0  0  0  0  0  0
   17.8171   14.0005   34.9730 C   0  0  2  0  0  0  0  0  0  0  0  0
   17.9571   14.5649   36.3857 C   0  0  1  0  0  0  0  0  0  0  0  0
   19.3038   15.3196   36.5081 C   0  0  1  0  0  0  0  0  0  0  0  0
  5  4  1  1  0  0  0
  5  8  1  0  0  0  0
  5 16  1  0  0  0  0
  8  7  1  1  0  0  0
  8 10  1  0  0  0  0
 10  1  1  1  0  0  0
 10 12  1  0  0  0  0
 11 18  1  0  0  0  0
 12 14  1  0  0  0  0
 14  2  1  6  0  0  0
 14 16  1  0  0  0  0
 16  9  1  6  0  0  0
 17  9  1  1  0  0  0
 17 11  1  0  0  0  0
 17 22  1  0  0  0  0
 18 19  1  6  0  0  0
 18 20  1  0  0  0  0
 19  3  1  0  0  0  0
 20 13  1  1  0  0  0
 20 21  1  0  0  0  0
 21 15  1  6  0  0  0
 21 22  1  0  0  0  0
 22  6  1  1  0  0  0
M  END
>  <CHROM.1>
161.89804602,165.94301366,59.99267732,20.20910316,13.28806115,37.40131811
-0.95368144,0.30152025,-1.52430239

>  <Name>
2f4s_lig

>  <RI>
0

>  <Rbt.Current_Directory>
/home/itssahil/PROJECTS/Mol_Feturizer/New_Systems/rnas/2f4s

>  <Rbt.Executable>
rbdock ($Id: //depot/dev/client3/rdock/2013.1/src/exe/rbdock.cxx#4 $)

>  <Rbt.Library>
libRbt.so (2013.1, Build901 2013/11/27)

>  <Rbt.Parameter_File>
/export/apps/rDock/src/rDock_2013.1_src/data/scripts/dock_solv.prm

>  <Rbt.Receptor>
prm/pocket_docking_8.prm

>  <SCORE>
-12.6956

>  <SCORE.INTER>
-14.1702

>  <SCORE.INTER.CONST>
1

>  <SCORE.INTER.POLAR>
-1.95432

>  <SCORE.INTER.ROT>
3

>  <SCORE.INTER.SOLV>
18.943

>  <SCORE.INTER.VDW>
-14.8467

>  <SCORE.INTER.norm>
-0.644101

>  <SCORE.INTRA>
1.47464

>  <SCORE.INTRA.DIHEDRAL>
0.871159

>  <SCORE.INTRA.DIHEDRAL.0>
1.67653

>  <SCORE.INTRA.POLAR>
0

>  <SCORE.INTRA.POLAR.0>
0

>  <SCORE.INTRA.REPUL>
0

>  <SCORE.INTRA.REPUL.0>
0

>  <SCORE.INTRA.SOLV>
2.17416

>  <SCORE.INTRA.SOLV.lig_0>
-76.6701

>  <SCORE.INTRA.VDW>
-0.048013

>  <SCORE.INTRA.VDW.0>
-1.53273

>  <SCORE.INTRA.norm>
0.0670293

>  <SCORE.RESTR>
0

>  <SCORE.RESTR.CAVITY>
0

>  <SCORE.RESTR.norm>
0

>  <SCORE.SYSTEM>
0

>  <SCORE.SYSTEM.CONST>
0

>  <SCORE.SYSTEM.DIHEDRAL>
0

>  <SCORE.SYSTEM.SOLV>
0

>  <SCORE.SYSTEM.norm>
0

>  <SCORE.heavy>
22

>  <SCORE.norm>
-0.577071

>  <RMSD>
5.380

$$$$
2f4s_lig
 OpenBabel11021811433D
libRbt.so/2013.1/901 2013/11/27
 22 23  0  0  0  0  0  0  0  0999 V2000
   23.3954   11.9991   41.8839 N   0  0  0  0  0  0  0  0  0  0  0  0
   23.1831   14.3748   37.4695 N   0  0  0  0  0  0  0  0  0  0  0  0
   19.5782   11.6732   33.0790 N   0  0  0  0  0  0  0  0  0  0  0  0
   19.1661   12.0376   39.3112 O   0  0  0  0  0  0  0  0  0  0  0  0
   20.6175   12.0300   39.1840 C   0  0  2  0  0  0  0  0  0  0  0  0
   19.8373   16.0507   37.8593 N   0  0  0  0  0  0  0  0  0  0  0  0
   20.8465   10.8968   41.3577 O   0  0  0  0  0  0  0  0  0  0  0  0
   21.2753   12.0286   40.5914 C   0  0  1  0  0  0  0  0  0  0  0  0
   20.5666   13.2347   37.0498 O   0  0  0  0  0  0  0  0  0  0  0  0
   22.7955   11.9905   40.4941 C   0  0  1  0  0  0  0  0  0  0  0  0
   20.1370   13.7918   34.8475 O   0  0  0  0  0  0  0  0  0  0  0  0
   23.3006   13.2259   39.6746 C   0  0  0  0  0  0  0  0  0  0  0  0
   16.4735   13.7651   35.0992 O   0  0  0  0  0  0  0  0  0  0  0  0
   22.6466   13.1776   38.2403 C   0  0  1  0  0  0  0  0  0  0  0  0
   17.1610   15.9233   36.8254 O   0  0  0  0  0  0  0  0  0  0  0  0
   21.1151   13.2814   38.3581 C   0  0  2  0  0  0  0  0  0  0  0  0
   20.5853   14.3395   36.1634 C   0  0  1  0  0  0  0  0  0  0  0  0
   18.7673   13.2063   34.8035 C   0  0  2  0  0  0  0  0  0  0  0  0
   18.5126   12.6799   33.3878 C   0  0  0  0  0  0  0  0  0  0  0  0
   17.7755   14.2994   35.1337 C   0  0  2  0  0  0  0  0  0  0  0  0
   18.0917   14.8812   36.5104 C   0  0  1  0  0  0  0  0  0  0  0  0
   19.5324   15.4491   36.5115 C   0  0  1  0  0  0  0  0  0  0  0  0
  5  4  1  1  0  0  0
  5  8  1  0  0  0  0
  5 16  1  0  0  0  0
  8  7  1  1  0  0  0
  8 10  1  0  0  0  0
 10  1  1  1  0  0  0
 10 12  1  0  0  0  0
 11 18  1  0  0  0  0
 12 14  1  0  0  0  0
 14  2  1  6  0  0  0
 14 16  1  0  0  0  0
 16  9  1  6  0  0  0
 17  9  1  1  0  0  0
 17 11  1  0  0  0  0
 17 22  1  0  0  0  0
 18 19  1  6  0  0  0
 18 20  1  0  0  0  0
 19  3  1  0  0  0  0
 20 13  1  1  0  0  0
 20 21  1  0  0  0  0
 21 15  1  6  0  0  0
 21 22  1  0  0  0  0
 22  6  1  1  0  0  0
M  END
>  <CHROM.1>
166.15017526,170.29911930,58.00039168,20.19560666,13.37202759,37.44087563
-0.89657481,0.43797612,-1.59794599

>  <Name>
2f4s_lig

>  <RI>
2.00194e+07

>  <Rbt.Current_Directory>
/home/itssahil/PROJECTS/Mol_Feturizer/New_Systems/rnas/2f4s

>  <Rbt.Executable>
rbdock ($Id: //depot/dev/client3/rdock/2013.1/src/exe/rbdock.cxx#4 $)

>  <Rbt.Library>
libRbt.so (2013.1, Build901 2013/11/27)

>  <Rbt.Parameter_File>
/export/apps/rDock/src/rDock_2013.1_src/data/scripts/dock_solv.prm

>  <Rbt.Receptor>
prm/pocket_docking_6.prm

>  <SCORE>
-12.6463

>  <SCORE.INTER>
-13.912

>  <SCORE.INTER.CONST>
1

>  <SCORE.INTER.POLAR>
-1.95511

>  <SCORE.INTER.ROT>
3

>  <SCORE.INTER.SOLV>
17.3744

>  <SCORE.INTER.VDW>
-14.1491

>  <SCORE.INTER.norm>
-0.632362

>  <SCORE.INTRA>
1.26561

>  <SCORE.INTRA.DIHEDRAL>
-0.165623

>  <SCORE.INTRA.DIHEDRAL.0>
1.67653

>  <SCORE.INTRA.POLAR>
0

>  <SCORE.INTRA.POLAR.0>
0

>  <SCORE.INTRA.REPUL>
0

>  <SCORE.INTRA.REPUL.0>
0

>  <SCORE.INTRA.SOLV>
2.60103

>  <SCORE.INTRA.SOLV.lig_0>
-76.6701

>  <SCORE.INTRA.VDW>
0.0479061

>  <SCORE.INTRA.VDW.0>
-1.53273

>  <SCORE.INTRA.norm>
0.0575277

>  <SCORE.RESTR>
0

>  <SCORE.RESTR.CAVITY>
0

>  <SCORE.RESTR.norm>
0

>  <SCORE.SYSTEM>
0

>  <SCORE.SYSTEM.CONST>
0

>  <SCORE.SYSTEM.DIHEDRAL>
0

>  <SCORE.SYSTEM.SOLV>
0

>  <SCORE.SYSTEM.norm>
0

>  <SCORE.heavy>
22

>  <SCORE.norm>
-0.574834

>  <RMSD>
5.390

$$$$
2f4s_lig
 OpenBabel11021811433D
libRbt.so/2013.1/901 2013/11/27
 22 23  0  0  0  0  0  0  0  0999 V2000
   23.4809   11.0399   41.7100 N   0  0  0  0  0  0  0  0  0  0  0  0
   22.7309   14.2858   37.9581 N   0  0  0  0  0  0  0  0  0  0  0  0
   18.9619   12.9747   33.8189 N   0  0  0  0  0  0  0  0  0  0  0  0
   18.8657   12.2051   40.3500 O   0  0  0  0  0  0  0  0  0  0  0  0
   20.2238   12.0202   39.8559 C   0  0  2  0  0  0  0  0  0  0  0  0
   19.1451   16.2036   39.4259 N   0  0  0  0  0  0  0  0  0  0  0  0
   20.7190   10.4399   41.6777 O   0  0  0  0  0  0  0  0  0  0  0  0
   21.1686   11.6344   41.0273 C   0  0  1  0  0  0  0  0  0  0  0  0
   19.9212   13.6367   38.0381 O   0  0  0  0  0  0  0  0  0  0  0  0
   22.5935   11.4042   40.5389 C   0  0  1  0  0  0  0  0  0  0  0  0
   19.4627   14.6362   36.0045 O   0  0  0  0  0  0  0  0  0  0  0  0
   23.1235   12.6994   39.8356 C   0  0  0  0  0  0  0  0  0  0  0  0
   15.8025   14.4822   36.2602 O   0  0  0  0  0  0  0  0  0  0  0  0
   22.1671   13.0422   38.6295 C   0  0  1  0  0  0  0  0  0  0  0  0
   16.4631   16.2421   38.3995 O   0  0  0  0  0  0  0  0  0  0  0  0
   20.7482   13.3333   39.1512 C   0  0  2  0  0  0  0  0  0  0  0  0
   19.9114   14.9035   37.4043 C   0  0  1  0  0  0  0  0  0  0  0  0
   18.1040   14.0452   35.8438 C   0  0  2  0  0  0  0  0  0  0  0  0
   17.8476   13.8237   34.3500 C   0  0  0  0  0  0  0  0  0  0  0  0
   17.0944   15.0238   36.4010 C   0  0  2  0  0  0  0  0  0  0  0  0
   17.4109   15.3089   37.8681 C   0  0  1  0  0  0  0  0  0  0  0  0
   18.8404   15.8932   37.9829 C   0  0  1  0  0  0  0  0  0  0  0  0
  5  4  1  1  0  0  0
  5  8  1  0  0  0  0
  5 16  1  0  0  0  0
  8  7  1  6  0  0  0
  8 10  1  0  0  0  0
 10  1  1  1  0  0  0
 10 12  1  0  0  0  0
 11 18  1  0  0  0  0
 12 14  1  0  0  0  0
 14  2  1  1  0  0  0
 14 16  1  0  0  0  0
 16  9  1  6  0  0  0
 17  9  1  1  0  0  0
 17 11  1  0  0  0  0
 17 22  1  0  0  0  0
 18 19  1  6  0  0  0
 18 20  1  0  0  0  0
 19  3  1  0  0  0  0
 20 13  1  1  0  0  0
 20 21  1  0  0  0  0
 21 15  1  6  0  0  0
 21 22  1  0  0  0  0
 22  6  1  1  0  0  0
M  END
>  <CHROM.1>
163.77444654,154.31133223,55.62184705,19.71392799,13.60181448,38.29730092
-0.76556076,0.48530613,-1.41754499

>  <Name>
2f4s_lig

>  <RI>
0

>  <Rbt.Current_Directory>
/home/itssahil/PROJECTS/Mol_Feturizer/New_Systems/rnas/2f4s

>  <Rbt.Executable>
rbdock ($Id: //depot/dev/client3/rdock/2013.1/src/exe/rbdock.cxx#4 $)

>  <Rbt.Library>
libRbt.so (2013.1, Build901 2013/11/27)

>  <Rbt.Parameter_File>
/export/apps/rDock/src/rDock_2013.1_src/data/scripts/dock_solv.prm

>  <Rbt.Receptor>
prm/pocket_docking_4.prm

>  <SCORE>
-6.31502

>  <SCORE.INTER>
-8.45451

>  <SCORE.INTER.CONST>
1

>  <SCORE.INTER.POLAR>
0

>  <SCORE.INTER.ROT>
3

>  <SCORE.INTER.SOLV>
13.16

>  <SCORE.INTER.VDW>
-15.623

>  <SCORE.INTER.norm>
-0.384296

>  <SCORE.INTRA>
2.13948

>  <SCORE.INTRA.DIHEDRAL>
2.46431

>  <SCORE.INTRA.DIHEDRAL.0>
1.67653

>  <SCORE.INTRA.POLAR>
0

>  <SCORE.INTRA.POLAR.0>
0

>  <SCORE.INTRA.REPUL>
0

>  <SCORE.INTRA.REPUL.0>
0

>  <SCORE.INTRA.SOLV>
1.65445

>  <SCORE.INTRA.SOLV.lig_0>
-76.6701

>  <SCORE.INTRA.VDW>
0.0801044

>  <SCORE.INTRA.VDW.0>
-1.53273

>  <SCORE.INTRA.norm>
0.0972492

>  <SCORE.RESTR>
0

>  <SCORE.RESTR.CAVITY>
0

>  <SCORE.RESTR.norm>
0

>  <SCORE.SYSTEM>
0

>  <SCORE.SYSTEM.CONST>
0

>  <SCORE.SYSTEM.DIHEDRAL>
0

>  <SCORE.SYSTEM.SOLV>
0

>  <SCORE.SYSTEM.norm>
0

>  <SCORE.heavy>
22

>  <SCORE.norm>
-0.287046

>  <RMSD>
5.601

$$$$
2f4s_lig
 OpenBabel11021811433D
libRbt.so/2013.1/901 2013/11/27
 22 23  0  0  0  0  0  0  0  0999 V2000
   15.9181   15.0061   33.6674 N   0  0  0  0  0  0  0  0  0  0  0  0
   16.8992   15.8972   38.5067 N   0  0  0  0  0  0  0  0  0  0  0  0
   18.7864   11.2072   42.9216 N   0  0  0  0  0  0  0  0  0  0  0  0
   19.7318   12.7385   35.8630 O   0  0  0  0  0  0  0  0  0  0  0  0
   18.3912   13.2632   36.0868 C   0  0  2  0  0  0  0  0  0  0  0  0
   21.6106   13.2710   37.3494 N   0  0  0  0  0  0  0  0  0  0  0  0
   17.8082   12.9052   33.7217 O   0  0  0  0  0  0  0  0  0  0  0  0
   17.8338   13.8776   34.7732 C   0  0  1  0  0  0  0  0  0  0  0  0
   18.8400   13.7639   38.4440 O   0  0  0  0  0  0  0  0  0  0  0  0
   16.4190   14.4098   34.9655 C   0  0  1  0  0  0  0  0  0  0  0  0
   19.7480   13.9651   40.5606 O   0  0  0  0  0  0  0  0  0  0  0  0
   16.4135   15.4900   36.0996 C   0  0  0  0  0  0  0  0  0  0  0  0
   20.3430   10.3849   41.1205 O   0  0  0  0  0  0  0  0  0  0  0  0
   16.9469   14.8261   37.4269 C   0  0  1  0  0  0  0  0  0  0  0  0
   22.0993   10.9352   38.9472 O   0  0  0  0  0  0  0  0  0  0  0  0
   18.3987   14.3531   37.2304 C   0  0  2  0  0  0  0  0  0  0  0  0
   20.0300   14.1548   39.1057 C   0  0  1  0  0  0  0  0  0  0  0  0
   19.4273   12.5776   40.9998 C   0  0  2  0  0  0  0  0  0  0  0  0
   19.1445   12.6010   42.5050 C   0  0  0  0  0  0  0  0  0  0  0  0
   20.6271   11.7024   40.7138 C   0  0  2  0  0  0  0  0  0  0  0  0
   20.9580   11.7555   39.2234 C   0  0  1  0  0  0  0  0  0  0  0  0
   21.2546   13.2189   38.8129 C   0  0  1  0  0  0  0  0  0  0  0  0
  5  4  1  6  0  0  0
  5  8  1  0  0  0  0
  5 16  1  0  0  0  0
  8  7  1  6  0  0  0
  8 10  1  0  0  0  0
 10  1  1  6  0  0  0
 10 12  1  0  0  0  0
 11 18  1  0  0  0  0
 12 14  1  0  0  0  0
 14  2  1  1  0  0  0
 14 16  1  0  0  0  0
 16  9  1  1  0  0  0
 17  9  1  6  0  0  0
 17 11  1  0  0  0  0
 17 22  1  0  0  0  0
 18 19  1  1  0  0  0
 18 20  1  0  0  0  0
 19  3  1  0  0  0  0
 20 13  1  6  0  0  0
 20 21  1  0  0  0  0
 21 15  1  1  0  0  0
 21 22  1  0  0  0  0
 22  6  1  6  0  0  0
M  END
>  <CHROM.1>
116.32231720,147.74916870,178.41994521,19.01155629,13.25031099,38.14397297
2.14233119,0.63555844,-1.53324779

>  <Name>
2f4s_lig

>  <RI>
2.00194e+07

>  <Rbt.Current_Directory>
/home/itssahil/PROJECTS/Mol_Feturizer/New_Systems/rnas/2f4s

>  <Rbt.Executable>
rbdock ($Id: //depot/dev/client3/rdock/2013.1/src/exe/rbdock.cxx#4 $)

>  <Rbt.Library>
libRbt.so (2013.1, Build901 2013/11/27)

>  <Rbt.Parameter_File>
/export/apps/rDock/src/rDock_2013.1_src/data/scripts/dock_solv.prm

>  <Rbt.Receptor>
prm/pocket_docking_6.prm

>  <SCORE>
-5.15791

>  <SCORE.INTER>
-12.7042

>  <SCORE.INTER.CONST>
1

>  <SCORE.INTER.POLAR>
-1.18297

>  <SCORE.INTER.ROT>
3

>  <SCORE.INTER.SOLV>
16.8466

>  <SCORE.INTER.VDW>
-15.7417

>  <SCORE.INTER.norm>
-0.577461

>  <SCORE.INTRA>
7.54624

>  <SCORE.INTRA.DIHEDRAL>
9.45076

>  <SCORE.INTRA.DIHEDRAL.0>
1.67653

>  <SCORE.INTRA.POLAR>
0

>  <SCORE.INTRA.POLAR.0>
0

>  <SCORE.INTRA.REPUL>
0

>  <SCORE.INTRA.REPUL.0>
0

>  <SCORE.INTRA.SOLV>
3.72853

>  <SCORE.INTRA.SOLV.lig_0>
-76.6701

>  <SCORE.INTRA.VDW>
0.956593

>  <SCORE.INTRA.VDW.0>
-1.53273

>  <SCORE.INTRA.norm>
0.343011

>  <SCORE.RESTR>
0

>  <SCORE.RESTR.CAVITY>
0

>  <SCORE.RESTR.norm>
0

>  <SCORE.SYSTEM>
0

>  <SCORE.SYSTEM.CONST>
0

>  <SCORE.SYSTEM.DIHEDRAL>
0

>  <SCORE.SYSTEM.SOLV>
0

>  <SCORE.SYSTEM.norm>
0

>  <SCORE.heavy>
22

>  <SCORE.norm>
-0.234451

>  <RMSD>
5.631

$$$$
2f4s_lig
 OpenBabel11021811433D
libRbt.so/2013.1/901 2013/11/27
 22 23  0  0  0  0  0  0  0  0999 V2000
   19.4325   14.0785   28.6779 N   0  0  0  0  0  0  0  0  0  0  0  0
   18.7221   16.4635   33.0348 N   0  0  0  0  0  0  0  0  0  0  0  0
   19.2014   14.1634   39.3999 N   0  0  0  0  0  0  0  0  0  0  0  0
   21.0512   12.0425   32.8900 O   0  0  0  0  0  0  0  0  0  0  0  0
   20.0039   12.8773   32.3163 C   0  0  2  0  0  0  0  0  0  0  0  0
   21.5966   16.4190   34.4172 N   0  0  0  0  0  0  0  0  0  0  0  0
   20.2898   11.8034   30.1194 O   0  0  0  0  0  0  0  0  0  0  0  0
   20.2481   13.0665   30.7937 C   0  0  1  0  0  0  0  0  0  0  0  0
   19.6564   14.1054   34.4090 O   0  0  0  0  0  0  0  0  0  0  0  0
   19.1523   13.9117   30.1562 C   0  0  1  0  0  0  0  0  0  0  0  0
   19.1566   14.5598   36.6201 O   0  0  0  0  0  0  0  0  0  0  0  0
   19.0900   15.3094   30.8603 C   0  0  0  0  0  0  0  0  0  0  0  0
   22.2413   13.1782   38.0557 O   0  0  0  0  0  0  0  0  0  0  0  0
   18.8027   15.0854   32.3947 C   0  0  1  0  0  0  0  0  0  0  0  0
   23.2382   15.3618   36.5232 O   0  0  0  0  0  0  0  0  0  0  0  0
   19.9525   14.2845   33.0325 C   0  0  2  0  0  0  0  0  0  0  0  0
   19.6016   15.1768   35.3342 C   0  0  1  0  0  0  0  0  0  0  0  0
   20.0474   13.5145   37.1987 C   0  0  2  0  0  0  0  0  0  0  0  0
   19.4052   12.9926   38.4877 C   0  0  0  0  0  0  0  0  0  0  0  0
   21.3835   14.1515   37.5091 C   0  0  2  0  0  0  0  0  0  0  0  0
   21.9762   14.7490   36.2342 C   0  0  1  0  0  0  0  0  0  0  0  0
   21.0016   15.8059   35.6588 C   0  0  1  0  0  0  0  0  0  0  0  0
  5  4  1  1  0  0  0
  5  8  1  0  0  0  0
  5 16  1  0  0  0  0
  8  7  1  6  0  0  0
  8 10  1  0  0  0  0
 10  1  1  6  0  0  0
 10 12  1  0  0  0  0
 11 18  1  0  0  0  0
 12 14  1  0  0  0  0
 14  2  1  1  0  0  0
 14 16  1  0  0  0  0
 16  9  1  1  0  0  0
 17  9  1  6  0  0  0
 17 11  1  0  0  0  0
 17 22  1  0  0  0  0
 18 19  1  1  0  0  0
 18 20  1  0  0  0  0
 19  3  1  0  0  0  0
 20 13  1  6  0  0  0
 20 21  1  0  0  0  0
 21 15  1  1  0  0  0
 21 22  1  0  0  0  0
 22  6  1  6  0  0  0
M  END
>  <CHROM.1>
177.04234080,175.58166177,-57.29713804,20.26623301,14.20297366,34.30418824
2.00296282,1.18350410,-2.03905186

>  <Name>
2f4s_lig

>  <RI>
2.26097e+07

>  <Rbt.Current_Directory>
/home/itssahil/PROJECTS/Mol_Feturizer/New_Systems/rnas/2f4s

>  <Rbt.Executable>
rbdock ($Id: //depot/dev/client3/rdock/2013.1/src/exe/rbdock.cxx#4 $)

>  <Rbt.Library>
libRbt.so (2013.1, Build901 2013/11/27)

>  <Rbt.Parameter_File>
/export/apps/rDock/src/rDock_2013.1_src/data/scripts/dock_solv.prm

>  <Rbt.Receptor>
prm/pocket_docking_7.prm

>  <SCORE>
-6.04346

>  <SCORE.INTER>
-8.59935

>  <SCORE.INTER.CONST>
1

>  <SCORE.INTER.POLAR>
-0.979796

>  <SCORE.INTER.ROT>
3

>  <SCORE.INTER.SOLV>
9.88253

>  <SCORE.INTER.VDW>
-11.3611

>  <SCORE.INTER.norm>
-0.39088

>  <SCORE.INTRA>
2.55589

>  <SCORE.INTRA.DIHEDRAL>
-1.35232

>  <SCORE.INTRA.DIHEDRAL.0>
1.67653

>  <SCORE.INTRA.POLAR>
0

>  <SCORE.INTRA.POLAR.0>
0

>  <SCORE.INTRA.REPUL>
0

>  <SCORE.INTRA.REPUL.0>
0

>  <SCORE.INTRA.SOLV>
5.42476

>  <SCORE.INTRA.SOLV.lig_0>
-76.6701

>  <SCORE.INTRA.VDW>
0.519664

>  <SCORE.INTRA.VDW.0>
-1.53273

>  <SCORE.INTRA.norm>
0.116177

>  <SCORE.RESTR>
0

>  <SCORE.RESTR.CAVITY>
0

>  <SCORE.RESTR.norm>
0

>  <SCORE.SYSTEM>
0

>  <SCORE.SYSTEM.CONST>
0

>  <SCORE.SYSTEM.DIHEDRAL>
0

>  <SCORE.SYSTEM.SOLV>
0

>  <SCORE.SYSTEM.norm>
0

>  <SCORE.heavy>
22

>  <SCORE.norm>
-0.274703

>  <RMSD>
5.643

$$$$
2f4s_lig
 OpenBabel11021811433D
libRbt.so/2013.1/901 2013/11/27
 22 23  0  0  0  0  0  0  0  0999 V2000
   23.3269   12.1454   41.7152 N   0  0  0  0  0  0  0  0  0  0  0  0
   23.1829   14.6233   37.3546 N   0  0  0  0  0  0  0  0  0  0  0  0
   19.0460   16.8372   38.9881 N   0  0  0  0  0  0  0  0  0  0  0  0
   19.2069   12.0608   38.9720 O   0  0  0  0  0  0  0  0  0  0  0  0
   20.6611   12.1217   38.9045 C   0  0  2  0  0  0  0  0  0  0  0  0
   19.5076   12.4805   34.1489 N   0  0  0  0  0  0  0  0  0  0  0  0
   20.8545   10.9438   41.0578 O   0  0  0  0  0  0  0  0  0  0  0  0
   21.2612   12.1132   40.3375 C   0  0  1  0  0  0  0  0  0  0  0  0
   20.6405   13.3782   36.7999 O   0  0  0  0  0  0  0  0  0  0  0  0
   22.7843   12.1460   40.3020 C   0  0  1  0  0  0  0  0  0  0  0  0
   18.7221   14.6163   37.1629 O   0  0  0  0  0  0  0  0  0  0  0  0
   23.2645   13.4238   39.5342 C   0  0  0  0  0  0  0  0  0  0  0  0
   19.5210   17.3465   34.8406 O   0  0  0  0  0  0  0  0  0  0  0  0
   22.6715   13.3835   38.0735 C   0  0  1  0  0  0  0  0  0  0  0  0
   19.2648   15.1309   33.0699 O   0  0  0  0  0  0  0  0  0  0  0  0
   21.1334   13.4154   38.1305 C   0  0  2  0  0  0  0  0  0  0  0  0
   19.2593   13.3976   36.4858 C   0  0  1  0  0  0  0  0  0  0  0  0
   19.2967   15.9225   36.7336 C   0  0  2  0  0  0  0  0  0  0  0  0
   18.6405   17.0333   37.5593 C   0  0  0  0  0  0  0  0  0  0  0  0
   18.9840   16.1169   35.2667 C   0  0  2  0  0  0  0  0  0  0  0  0
   19.5652   14.9573   34.4596 C   0  0  1  0  0  0  0  0  0  0  0  0
   18.9590   13.6241   34.9628 C   0  0  1  0  0  0  0  0  0  0  0  0
  5  4  1  1  0  0  0
  5  8  1  0  0  0  0
  5 16  1  0  0  0  0
  8  7  1  6  0  0  0
  8 10  1  0  0  0  0
 10  1  1  1  0  0  0
 10 12  1  0  0  0  0
 11 18  1  0  0  0  0
 12 14  1  0  0  0  0
 14  2  1  6  0  0  0
 14 16  1  0  0  0  0
 16  9  1  6  0  0  0
 17  9  1  6  0  0  0
 17 11  1  0  0  0  0
 17 22  1  0  0  0  0
 18 19  1  1  0  0  0
 18 20  1  0  0  0  0
 19  3  1  0  0  0  0
 20 13  1  6  0  0  0
 20 21  1  0  0  0  0
 21 15  1  6  0  0  0
 21 22  1  0  0  0  0
 22  6  1  6  0  0  0
M  END
>  <CHROM.1>
63.36418645,54.98136518,65.10590271,20.41438419,13.97042287,37.47819539,-0.02210633
-1.13910587,0.53889827

>  <Name>
2f4s_lig

>  <RI>
2.00194e+07

>  <Rbt.Current_Directory>
/home/itssahil/PROJECTS/Mol_Feturizer/New_Systems/rnas/2f4s

>  <Rbt.Executable>
rbdock ($Id: //depot/dev/client3/rdock/2013.1/src/exe/rbdock.cxx#4 $)

>  <Rbt.Library>
libRbt.so (2013.1, Build901 2013/11/27)

>  <Rbt.Parameter_File>
/export/apps/rDock/src/rDock_2013.1_src/data/scripts/dock_solv.prm

>  <Rbt.Receptor>
prm/pocket_docking_6.prm

>  <SCORE>
-9.4293

>  <SCORE.INTER>
-9.0483

>  <SCORE.INTER.CONST>
1

>  <SCORE.INTER.POLAR>
-1.27294

>  <SCORE.INTER.ROT>
3

>  <SCORE.INTER.SOLV>
17.0215

>  <SCORE.INTER.VDW>
-13.0629

>  <SCORE.INTER.norm>
-0.411286

>  <SCORE.INTRA>
-0.381002

>  <SCORE.INTRA.DIHEDRAL>
-1.2444

>  <SCORE.INTRA.DIHEDRAL.0>
1.67653

>  <SCORE.INTRA.POLAR>
0

>  <SCORE.INTRA.POLAR.0>
0

>  <SCORE.INTRA.REPUL>
0

>  <SCORE.INTRA.REPUL.0>
0

>  <SCORE.INTRA.SOLV>
0.0713536

>  <SCORE.INTRA.SOLV.lig_0>
-76.6701

>  <SCORE.INTRA.VDW>
0.205524

>  <SCORE.INTRA.VDW.0>
-1.53273

>  <SCORE.INTRA.norm>
-0.0173183

>  <SCORE.RESTR>
0

>  <SCORE.RESTR.CAVITY>
0

>  <SCORE.RESTR.norm>
0

>  <SCORE.SYSTEM>
0

>  <SCORE.SYSTEM.CONST>
0

>  <SCORE.SYSTEM.DIHEDRAL>
0

>  <SCORE.SYSTEM.SOLV>
0

>  <SCORE.SYSTEM.norm>
0

>  <SCORE.heavy>
22

>  <SCORE.norm>
-0.428605

>  <RMSD>
5.666

$$$$
2f4s_lig
 OpenBabel11021811433D
libRbt.so/2013.1/901 2013/11/27
 22 23  0  0  0  0  0  0  0  0999 V2000
   23.0186   10.3425   40.1575 N   0  0  0  0  0  0  0  0  0  0  0  0
   21.6641   14.1582   37.1942 N   0  0  0  0  0  0  0  0  0  0  0  0
   18.0182   13.0025   34.7335 N   0  0  0  0  0  0  0  0  0  0  0  0
   19.0214   13.0359   41.2865 O   0  0  0  0  0  0  0  0  0  0  0  0
   19.8136   12.5185   40.1786 C   0  0  2  0  0  0  0  0  0  0  0  0
   18.8225   17.2576   39.5678 N   0  0  0  0  0  0  0  0  0  0  0  0
   20.5755   10.6219   41.5512 O   0  0  0  0  0  0  0  0  0  0  0  0
   21.0188   11.7022   40.7216 C   0  0  1  0  0  0  0  0  0  0  0  0
   19.2210   14.3899   38.7106 O   0  0  0  0  0  0  0  0  0  0  0  0
   21.8527   11.1209   39.5864 C   0  0  1  0  0  0  0  0  0  0  0  0
   18.8380   15.0259   36.5211 O   0  0  0  0  0  0  0  0  0  0  0  0
   22.3685   12.2792   38.6669 C   0  0  0  0  0  0  0  0  0  0  0  0
   15.1974   15.4100   36.8107 O   0  0  0  0  0  0  0  0  0  0  0  0
   21.1225   13.0633   38.1014 C   0  0  1  0  0  0  0  0  0  0  0  0
   16.1401   17.4498   38.5603 O   0  0  0  0  0  0  0  0  0  0  0  0
   20.3302   13.6955   39.2602 C   0  0  2  0  0  0  0  0  0  0  0  0
   19.3570   15.4990   37.8399 C   0  0  1  0  0  0  0  0  0  0  0  0
   17.4104   14.5999   36.4831 C   0  0  2  0  0  0  0  0  0  0  0  0
   17.0854   14.1276   35.0627 C   0  0  0  0  0  0  0  0  0  0  0  0
   16.5518   15.7930   36.8391 C   0  0  2  0  0  0  0  0  0  0  0  0
   16.9439   16.3139   38.2207 C   0  0  1  0  0  0  0  0  0  0  0  0
   18.4396   16.7152   38.2149 C   0  0  1  0  0  0  0  0  0  0  0  0
  5  4  1  1  0  0  0
  5  8  1  0  0  0  0
  5 16  1  0  0  0  0
  8  7  1  1  0  0  0
  8 10  1  0  0  0  0
 10  1  1  1  0  0  0
 10 12  1  0  0  0  0
 11 18  1  0  0  0  0
 12 14  1  0  0  0  0
 14  2  1  6  0  0  0
 14 16  1  0  0  0  0
 16  9  1  6  0  0  0
 17  9  1  1  0  0  0
 17 11  1  0  0  0  0
 17 22  1  0  0  0  0
 18 19  1  6  0  0  0
 18 20  1  0  0  0  0
 19  3  1  0  0  0  0
 20 13  1  1  0  0  0
 20 21  1  0  0  0  0
 21 15  1  6  0  0  0
 21 22  1  0  0  0  0
 22  6  1  1  0  0  0
M  END
>  <CHROM.1>
-179.87145869,112.97264354,58.55613223,19.17609475,14.01458754,38.39074743
-0.27927616,0.81686694,-1.80669419

>  <Name>
2f4s_lig

>  <RI>
2.26097e+07

>  <Rbt.Current_Directory>
/home/itssahil/PROJECTS/Mol_Feturizer/New_Systems/rnas/2f4s

>  <Rbt.Executable>
rbdock ($Id: //depot/dev/client3/rdock/2013.1/src/exe/rbdock.cxx#4 $)

>  <Rbt.Library>
libRbt.so (2013.1, Build901 2013/11/27)

>  <Rbt.Parameter_File>
/export/apps/rDock/src/rDock_2013.1_src/data/scripts/dock_solv.prm

>  <Rbt.Receptor>
prm/pocket_docking_7.prm

>  <SCORE>
-5.12632

>  <SCORE.INTER>
-9.01637

>  <SCORE.INTER.CONST>
1

>  <SCORE.INTER.POLAR>
0

>  <SCORE.INTER.ROT>
3

>  <SCORE.INTER.SOLV>
14.3343

>  <SCORE.INTER.VDW>
-16.389

>  <SCORE.INTER.norm>
-0.409835

>  <SCORE.INTRA>
3.89005

>  <SCORE.INTRA.DIHEDRAL>
5.22138

>  <SCORE.INTRA.DIHEDRAL.0>
1.67653

>  <SCORE.INTRA.POLAR>
0

>  <SCORE.INTRA.POLAR.0>
0

>  <SCORE.INTRA.REPUL>
0

>  <SCORE.INTRA.REPUL.0>
0

>  <SCORE.INTRA.SOLV>
1.50623

>  <SCORE.INTRA.SOLV.lig_0>
-76.6701

>  <SCORE.INTRA.VDW>
0.526245

>  <SCORE.INTRA.VDW.0>
-1.53273

>  <SCORE.INTRA.norm>
0.17682

>  <SCORE.RESTR>
0

>  <SCORE.RESTR.CAVITY>
0

>  <SCORE.RESTR.norm>
0

>  <SCORE.SYSTEM>
0

>  <SCORE.SYSTEM.CONST>
0

>  <SCORE.SYSTEM.DIHEDRAL>
0

>  <SCORE.SYSTEM.SOLV>
0

>  <SCORE.SYSTEM.norm>
0

>  <SCORE.heavy>
22

>  <SCORE.norm>
-0.233014

>  <RMSD>
5.779

$$$$
2f4s_lig
 OpenBabel11021811433D
libRbt.so/2013.1/901 2013/11/27
 22 23  0  0  0  0  0  0  0  0999 V2000
   23.3795   10.7125   41.2726 N   0  0  0  0  0  0  0  0  0  0  0  0
   22.7206   14.3600   37.8906 N   0  0  0  0  0  0  0  0  0  0  0  0
   20.4351   18.7301   39.9556 N   0  0  0  0  0  0  0  0  0  0  0  0
   18.8351   12.4765   40.4099 O   0  0  0  0  0  0  0  0  0  0  0  0
   20.1239   12.1987   39.7895 C   0  0  2  0  0  0  0  0  0  0  0  0
   17.7182   14.1337   36.0352 N   0  0  0  0  0  0  0  0  0  0  0  0
   20.5731   10.4098   41.4203 O   0  0  0  0  0  0  0  0  0  0  0  0
   21.1037   11.6071   40.8399 C   0  0  1  0  0  0  0  0  0  0  0  0
   19.8697   14.0029   38.1497 O   0  0  0  0  0  0  0  0  0  0  0  0
   22.4541   11.2769   40.2158 C   0  0  1  0  0  0  0  0  0  0  0  0
   18.6459   15.4807   39.4394 O   0  0  0  0  0  0  0  0  0  0  0  0
   23.0717   12.5705   39.5848 C   0  0  0  0  0  0  0  0  0  0  0  0
   19.4310   18.5005   37.5029 O   0  0  0  0  0  0  0  0  0  0  0  0
   22.0728   13.1239   38.4972 C   0  0  1  0  0  0  0  0  0  0  0  0
   17.9521   16.9650   35.6147 O   0  0  0  0  0  0  0  0  0  0  0  0
   20.7378   13.5108   39.1592 C   0  0  2  0  0  0  0  0  0  0  0  0
   18.5365   14.4074   38.4058 C   0  0  1  0  0  0  0  0  0  0  0  0
   19.4162   16.6971   39.0549 C   0  0  2  0  0  0  0  0  0  0  0  0
   19.4348   17.6545   40.2504 C   0  0  0  0  0  0  0  0  0  0  0  0
   18.7164   17.3486   37.8831 C   0  0  2  0  0  0  0  0  0  0  0  0
   18.6220   16.3567   36.7251 C   0  0  1  0  0  0  0  0  0  0  0  0
   17.8392   15.1017   37.1839 C   0  0  1  0  0  0  0  0  0  0  0  0
  5  4  1  1  0  0  0
  5  8  1  0  0  0  0
  5 16  1  0  0  0  0
  8  7  1  6  0  0  0
  8 10  1  0  0  0  0
 10  1  1  1  0  0  0
 10 12  1  0  0  0  0
 11 18  1  0  0  0  0
 12 14  1  0  0  0  0
 14  2  1  1  0  0  0
 14 16  1  0  0  0  0
 16  9  1  6  0  0  0
 17  9  1  6  0  0  0
 17 11  1  0  0  0  0
 17 22  1  0  0  0  0
 18 19  1  1  0  0  0
 18 20  1  0  0  0  0
 19  3  1  0  0  0  0
 20 13  1  6  0  0  0
 20 21  1  0  0  0  0
 21 15  1  6  0  0  0
 21 22  1  0  0  0  0
 22  6  1  6  0  0  0
M  END
>  <CHROM.1>
60.97439342,57.84671795,168.54981997,20.04748639,14.45412820,38.87510221
-0.97503039,-0.68703531,-0.06424488

>  <Name>
2f4s_lig

>  <RI>
2.00194e+07

>  <Rbt.Current_Directory>
/home/itssahil/PROJECTS/Mol_Feturizer/New_Systems/rnas/2f4s

>  <Rbt.Executable>
rbdock ($Id: //depot/dev/client3/rdock/2013.1/src/exe/rbdock.cxx#4 $)

>  <Rbt.Library>
libRbt.so (2013.1, Build901 2013/11/27)

>  <Rbt.Parameter_File>
/export/apps/rDock/src/rDock_2013.1_src/data/scripts/dock_solv.prm

>  <Rbt.Receptor>
prm/pocket_docking_6.prm

>  <SCORE>
-8.34008

>  <SCORE.INTER>
-8.80347

>  <SCORE.INTER.CONST>
1

>  <SCORE.INTER.POLAR>
0

>  <SCORE.INTER.ROT>
3

>  <SCORE.INTER.SOLV>
12.0078

>  <SCORE.INTER.VDW>
-15.4716

>  <SCORE.INTER.norm>
-0.400158

>  <SCORE.INTRA>
0.463392

>  <SCORE.INTRA.DIHEDRAL>
-1.03703

>  <SCORE.INTRA.DIHEDRAL.0>
1.67653

>  <SCORE.INTRA.POLAR>
0

>  <SCORE.INTRA.POLAR.0>
0

>  <SCORE.INTRA.REPUL>
0

>  <SCORE.INTRA.REPUL.0>
0

>  <SCORE.INTRA.SOLV>
0.753488

>  <SCORE.INTRA.SOLV.lig_0>
-76.6701

>  <SCORE.INTRA.VDW>
0.605163

>  <SCORE.INTRA.VDW.0>
-1.53273

>  <SCORE.INTRA.norm>
0.0210633

>  <SCORE.RESTR>
0

>  <SCORE.RESTR.CAVITY>
0

>  <SCORE.RESTR.norm>
0

>  <SCORE.SYSTEM>
0

>  <SCORE.SYSTEM.CONST>
0

>  <SCORE.SYSTEM.DIHEDRAL>
0

>  <SCORE.SYSTEM.SOLV>
0

>  <SCORE.SYSTEM.norm>
0

>  <SCORE.heavy>
22

>  <SCORE.norm>
-0.379095

>  <RMSD>
5.826

$$$$
2f4s_lig
 OpenBabel11021811433D
libRbt.so/2013.1/901 2013/11/27
 22 23  0  0  0  0  0  0  0  0999 V2000
   23.3314   10.5083   40.9606 N   0  0  0  0  0  0  0  0  0  0  0  0
   22.6629   14.3034   37.7471 N   0  0  0  0  0  0  0  0  0  0  0  0
   20.6621   18.9015   39.7799 N   0  0  0  0  0  0  0  0  0  0  0  0
   18.8604   12.5829   40.4987 O   0  0  0  0  0  0  0  0  0  0  0  0
   20.0787   12.2460   39.7741 C   0  0  2  0  0  0  0  0  0  0  0  0
   17.4876   14.2536   36.3017 N   0  0  0  0  0  0  0  0  0  0  0  0
   20.5300   10.3777   41.3127 O   0  0  0  0  0  0  0  0  0  0  0  0
   21.0931   11.5584   40.7290 C   0  0  1  0  0  0  0  0  0  0  0  0
   19.8219   14.1175   38.2121 O   0  0  0  0  0  0  0  0  0  0  0  0
   22.3690   11.1655   39.9944 C   0  0  1  0  0  0  0  0  0  0  0  0
   18.7685   15.6744   39.5580 O   0  0  0  0  0  0  0  0  0  0  0  0
   23.0212   12.4385   39.3564 C   0  0  0  0  0  0  0  0  0  0  0  0
   19.4601   18.6050   37.4558 O   0  0  0  0  0  0  0  0  0  0  0  0
   21.9827   13.0905   38.3647 C   0  0  1  0  0  0  0  0  0  0  0  0
   17.7662   17.0611   35.7653 O   0  0  0  0  0  0  0  0  0  0  0  0
   20.7285   13.5376   39.1376 C   0  0  2  0  0  0  0  0  0  0  0  0
   18.5311   14.5736   38.5760 C   0  0  1  0  0  0  0  0  0  0  0  0
   19.5359   16.8522   39.0630 C   0  0  2  0  0  0  0  0  0  0  0  0
   19.6945   17.8452   40.2184 C   0  0  0  0  0  0  0  0  0  0  0  0
   18.7498   17.4897   37.9392 C   0  0  2  0  0  0  0  0  0  0  0  0
   18.5181   16.4659   36.8292 C   0  0  1  0  0  0  0  0  0  0  0  0
   17.7442   15.2524   37.4007 C   0  0  1  0  0  0  0  0  0  0  0  0
  5  4  1  1  0  0  0
  5  8  1  0  0  0  0
  5 16  1  0  0  0  0
  8  7  1  6  0  0  0
  8 10  1  0  0  0  0
 10  1  1  1  0  0  0
 10 12  1  0  0  0  0
 11 18  1  0  0  0  0
 12 14  1  0  0  0  0
 14  2  1  1  0  0  0
 14 16  1  0  0  0  0
 16  9  1  6  0  0  0
 17  9  1  6  0  0  0
 17 11  1  0  0  0  0
 17 22  1  0  0  0  0
 18 19  1  1  0  0  0
 18 20  1  0  0  0  0
 19  3  1  0  0  0  0
 20 13  1  6  0  0  0
 20 21  1  0  0  0  0
 21 15  1  6  0  0  0
 21 22  1  0  0  0  0
 22  6  1  6  0  0  0
M  END
>  <CHROM.1>
59.77772927,62.63620842,170.30921211,20.03461730,14.51353658,38.86280743
-1.05116982,-0.56987094,-0.11429947

>  <Name>
2f4s_lig

>  <RI>
2.00194e+07

>  <Rbt.Current_Directory>
/home/itssahil/PROJECTS/Mol_Feturizer/New_Systems/rnas/2f4s

>  <Rbt.Executable>
rbdock ($Id: //depot/dev/client3/rdock/2013.1/src/exe/rbdock.cxx#4 $)

>  <Rbt.Library>
libRbt.so (2013.1, Build901 2013/11/27)

>  <Rbt.Parameter_File>
/export/apps/rDock/src/rDock_2013.1_src/data/scripts/dock_solv.prm

>  <Rbt.Receptor>
prm/pocket_docking_6.prm

>  <SCORE>
-8.08859

>  <SCORE.INTER>
-8.64576

>  <SCORE.INTER.CONST>
1

>  <SCORE.INTER.POLAR>
0

>  <SCORE.INTER.ROT>
3

>  <SCORE.INTER.SOLV>
11.5747

>  <SCORE.INTER.VDW>
-15.2221

>  <SCORE.INTER.norm>
-0.392989

>  <SCORE.INTRA>
0.557177

>  <SCORE.INTRA.DIHEDRAL>
-1.15682

>  <SCORE.INTRA.DIHEDRAL.0>
1.67653

>  <SCORE.INTRA.POLAR>
0

>  <SCORE.INTRA.POLAR.0>
0

>  <SCORE.INTRA.REPUL>
0

>  <SCORE.INTRA.REPUL.0>
0

>  <SCORE.INTRA.SOLV>
0.756117

>  <SCORE.INTRA.SOLV.lig_0>
-76.6701

>  <SCORE.INTRA.VDW>
0.757529

>  <SCORE.INTRA.VDW.0>
-1.53273

>  <SCORE.INTRA.norm>
0.0253262

>  <SCORE.RESTR>
0

>  <SCORE.RESTR.CAVITY>
0

>  <SCORE.RESTR.norm>
0

>  <SCORE.SYSTEM>
0

>  <SCORE.SYSTEM.CONST>
0

>  <SCORE.SYSTEM.DIHEDRAL>
0

>  <SCORE.SYSTEM.SOLV>
0

>  <SCORE.SYSTEM.norm>
0

>  <SCORE.heavy>
22

>  <SCORE.norm>
-0.367663

>  <RMSD>
5.845

$$$$
2f4s_lig
 OpenBabel11021811433D
libRbt.so/2013.1/901 2013/11/27
 22 23  0  0  0  0  0  0  0  0999 V2000
   23.4046   10.7410   41.5033 N   0  0  0  0  0  0  0  0  0  0  0  0
   22.7301   14.2807   38.0116 N   0  0  0  0  0  0  0  0  0  0  0  0
   20.4020   18.6194   39.8555 N   0  0  0  0  0  0  0  0  0  0  0  0
   18.8334   12.3310   40.4622 O   0  0  0  0  0  0  0  0  0  0  0  0
   20.1488   12.0812   39.8874 C   0  0  2  0  0  0  0  0  0  0  0  0
   17.7809   13.8870   36.0313 N   0  0  0  0  0  0  0  0  0  0  0  0
   20.6064   10.3486   41.5757 O   0  0  0  0  0  0  0  0  0  0  0  0
   21.1151   11.5484   40.9810 C   0  0  1  0  0  0  0  0  0  0  0  0
   19.8859   13.8352   38.1954 O   0  0  0  0  0  0  0  0  0  0  0  0
   22.4938   11.2482   40.4056 C   0  0  1  0  0  0  0  0  0  0  0  0
   18.6298   15.3511   39.4075 O   0  0  0  0  0  0  0  0  0  0  0  0
   23.0878   12.5458   39.7605 C   0  0  0  0  0  0  0  0  0  0  0  0
   19.4485   18.3070   37.3880 O   0  0  0  0  0  0  0  0  0  0  0  0
   22.1049   13.0389   38.6301 C   0  0  1  0  0  0  0  0  0  0  0  0
   18.0159   16.7034   35.5208 O   0  0  0  0  0  0  0  0  0  0  0  0
   20.7385   13.3971   39.2423 C   0  0  2  0  0  0  0  0  0  0  0  0
   18.5462   14.2432   38.4085 C   0  0  1  0  0  0  0  0  0  0  0  0
   19.4049   16.5567   38.9992 C   0  0  2  0  0  0  0  0  0  0  0  0
   19.3945   17.5539   40.1619 C   0  0  0  0  0  0  0  0  0  0  0  0
   18.7291   17.1659   37.7911 C   0  0  2  0  0  0  0  0  0  0  0  0
   18.6629   16.1352   36.6654 C   0  0  1  0  0  0  0  0  0  0  0  0
   17.8740   14.8936   37.1491 C   0  0  1  0  0  0  0  0  0  0  0  0
  5  4  1  1  0  0  0
  5  8  1  0  0  0  0
  5 16  1  0  0  0  0
  8  7  1  6  0  0  0
  8 10  1  0  0  0  0
 10  1  1  1  0  0  0
 10 12  1  0  0  0  0
 11 18  1  0  0  0  0
 12 14  1  0  0  0  0
 14  2  1  1  0  0  0
 14 16  1  0  0  0  0
 16  9  1  6  0  0  0
 17  9  1  6  0  0  0
 17 11  1  0  0  0  0
 17 22  1  0  0  0  0
 18 19  1  1  0  0  0
 18 20  1  0  0  0  0
 19  3  1  0  0  0  0
 20 13  1  6  0  0  0
 20 21  1  0  0  0  0
 21 15  1  6  0  0  0
 21 22  1  0  0  0  0
 22  6  1  6  0  0  0
M  END
>  <CHROM.1>
63.12878426,56.99125768,168.31859759,20.06332662,14.32517848,38.90788947
-0.97021888,-0.69463891,-0.10461287

>  <Name>
2f4s_lig

>  <RI>
2.26097e+07

>  <Rbt.Current_Directory>
/home/itssahil/PROJECTS/Mol_Feturizer/New_Systems/rnas/2f4s

>  <Rbt.Executable>
rbdock ($Id: //depot/dev/client3/rdock/2013.1/src/exe/rbdock.cxx#4 $)

>  <Rbt.Library>
libRbt.so (2013.1, Build901 2013/11/27)

>  <Rbt.Parameter_File>
/export/apps/rDock/src/rDock_2013.1_src/data/scripts/dock_solv.prm

>  <Rbt.Receptor>
prm/pocket_docking_7.prm

>  <SCORE>
-8.2628

>  <SCORE.INTER>
-8.66264

>  <SCORE.INTER.CONST>
1

>  <SCORE.INTER.POLAR>
0

>  <SCORE.INTER.ROT>
3

>  <SCORE.INTER.SOLV>
12.737

>  <SCORE.INTER.VDW>
-15.6207

>  <SCORE.INTER.norm>
-0.393756

>  <SCORE.INTRA>
0.399836

>  <SCORE.INTRA.DIHEDRAL>
-0.954897

>  <SCORE.INTRA.DIHEDRAL.0>
1.67653

>  <SCORE.INTRA.POLAR>
0

>  <SCORE.INTRA.POLAR.0>
0

>  <SCORE.INTRA.REPUL>
0

>  <SCORE.INTRA.REPUL.0>
0

>  <SCORE.INTRA.SOLV>
0.779547

>  <SCORE.INTRA.SOLV.lig_0>
-76.6701

>  <SCORE.INTRA.VDW>
0.487511

>  <SCORE.INTRA.VDW.0>
-1.53273

>  <SCORE.INTRA.norm>
0.0181743

>  <SCORE.RESTR>
0

>  <SCORE.RESTR.CAVITY>
0

>  <SCORE.RESTR.norm>
0

>  <SCORE.SYSTEM>
0

>  <SCORE.SYSTEM.CONST>
0

>  <SCORE.SYSTEM.DIHEDRAL>
0

>  <SCORE.SYSTEM.SOLV>
0

>  <SCORE.SYSTEM.norm>
0

>  <SCORE.heavy>
22

>  <SCORE.norm>
-0.375582

>  <RMSD>
5.855

$$$$
2f4s_lig
 OpenBabel11021811433D
libRbt.so/2013.1/901 2013/11/27
 22 23  0  0  0  0  0  0  0  0999 V2000
   15.0069   17.3332   36.5171 N   0  0  0  0  0  0  0  0  0  0  0  0
   19.2367   17.1033   39.2064 N   0  0  0  0  0  0  0  0  0  0  0  0
   21.8299   16.5809   35.1608 N   0  0  0  0  0  0  0  0  0  0  0  0
   18.0499   13.4640   35.9912 O   0  0  0  0  0  0  0  0  0  0  0  0
   17.5508   14.4434   36.9474 C   0  0  2  0  0  0  0  0  0  0  0  0
   20.7616   11.9786   39.6532 N   0  0  0  0  0  0  0  0  0  0  0  0
   15.4474   14.6673   35.6877 O   0  0  0  0  0  0  0  0  0  0  0  0
   16.5415   15.3988   36.2532 C   0  0  1  0  0  0  0  0  0  0  0  0
   19.6179   14.4034   38.2643 O   0  0  0  0  0  0  0  0  0  0  0  0
   15.9769   16.4188   37.2345 C   0  0  1  0  0  0  0  0  0  0  0  0
   21.2222   14.1747   36.6154 O   0  0  0  0  0  0  0  0  0  0  0  0
   17.1478   17.2494   37.8606 C   0  0  0  0  0  0  0  0  0  0  0  0
   24.0453   15.4726   38.5729 O   0  0  0  0  0  0  0  0  0  0  0  0
   18.1327   16.2569   38.5899 C   0  0  1  0  0  0  0  0  0  0  0  0
   23.3793   13.1051   40.0088 O   0  0  0  0  0  0  0  0  0  0  0  0
   18.7401   15.2764   37.5700 C   0  0  2  0  0  0  0  0  0  0  0  0
   20.4059   13.4217   37.6148 C   0  0  1  0  0  0  0  0  0  0  0  0
   22.1509   15.2062   37.1581 C   0  0  2  0  0  0  0  0  0  0  0  0
   22.8668   15.8777   35.9822 C   0  0  0  0  0  0  0  0  0  0  0  0
   23.1586   14.5133   38.0479 C   0  0  2  0  0  0  0  0  0  0  0  0
   22.4307   13.7710   39.1673 C   0  0  1  0  0  0  0  0  0  0  0  0
   21.4597   12.7336   38.5514 C   0  0  1  0  0  0  0  0  0  0  0  0
  5  4  1  6  0  0  0
  5  8  1  0  0  0  0
  5 16  1  0  0  0  0
  8  7  1  1  0  0  0
  8 10  1  0  0  0  0
 10  1  1  6  0  0  0
 10 12  1  0  0  0  0
 11 18  1  0  0  0  0
 12 14  1  0  0  0  0
 14  2  1  6  0  0  0
 14 16  1  0  0  0  0
 16  9  1  1  0  0  0
 17  9  1  1  0  0  0
 17 11  1  0  0  0  0
 17 22  1  0  0  0  0
 18 19  1  6  0  0  0
 18 20  1  0  0  0  0
 19  3  1  0  0  0  0
 20 13  1  1  0  0  0
 20 21  1  0  0  0  0
 21 15  1  1  0  0  0
 21 22  1  0  0  0  0
 22  6  1  1  0  0  0
M  END
>  <CHROM.1>
66.90083979,56.87410310,63.63587336,19.80379662,14.92617568,37.56875550,-2.79349579
0.08858397,2.63411848

>  <Name>
2f4s_lig

>  <RI>
0

>  <Rbt.Current_Directory>
/home/itssahil/PROJECTS/Mol_Feturizer/New_Systems/rnas/2f4s

>  <Rbt.Executable>
rbdock ($Id: //depot/dev/client3/rdock/2013.1/src/exe/rbdock.cxx#4 $)

>  <Rbt.Library>
libRbt.so (2013.1, Build901 2013/11/27)

>  <Rbt.Parameter_File>
/export/apps/rDock/src/rDock_2013.1_src/data/scripts/dock_solv.prm

>  <Rbt.Receptor>
prm/pocket_docking_5.prm

>  <SCORE>
-6.72051

>  <SCORE.INTER>
-6.30998

>  <SCORE.INTER.CONST>
1

>  <SCORE.INTER.POLAR>
0

>  <SCORE.INTER.ROT>
3

>  <SCORE.INTER.SOLV>
10.4393

>  <SCORE.INTER.VDW>
-13.2864

>  <SCORE.INTER.norm>
-0.286817

>  <SCORE.INTRA>
-0.410538

>  <SCORE.INTRA.DIHEDRAL>
-1.18911

>  <SCORE.INTRA.DIHEDRAL.0>
1.67653

>  <SCORE.INTRA.POLAR>
0

>  <SCORE.INTRA.POLAR.0>
0

>  <SCORE.INTRA.REPUL>
0

>  <SCORE.INTRA.REPUL.0>
0

>  <SCORE.INTRA.SOLV>
0.10479

>  <SCORE.INTRA.SOLV.lig_0>
-76.6701

>  <SCORE.INTRA.VDW>
0.131624

>  <SCORE.INTRA.VDW.0>
-1.53273

>  <SCORE.INTRA.norm>
-0.0186608

>  <SCORE.RESTR>
0

>  <SCORE.RESTR.CAVITY>
0

>  <SCORE.RESTR.norm>
0

>  <SCORE.SYSTEM>
0

>  <SCORE.SYSTEM.CONST>
0

>  <SCORE.SYSTEM.DIHEDRAL>
0

>  <SCORE.SYSTEM.SOLV>
0

>  <SCORE.SYSTEM.norm>
0

>  <SCORE.heavy>
22

>  <SCORE.norm>
-0.305478

>  <RMSD>
5.856

$$$$
2f4s_lig
 OpenBabel11021811433D
libRbt.so/2013.1/901 2013/11/27
 22 23  0  0  0  0  0  0  0  0999 V2000
   19.4948   11.8104   40.9574 N   0  0  0  0  0  0  0  0  0  0  0  0
   17.4339   15.6681   38.4985 N   0  0  0  0  0  0  0  0  0  0  0  0
   24.8891   15.6007   36.9739 N   0  0  0  0  0  0  0  0  0  0  0  0
   21.5641   13.4461   36.7682 O   0  0  0  0  0  0  0  0  0  0  0  0
   20.8179   13.8610   37.9488 C   0  0  2  0  0  0  0  0  0  0  0  0
   19.1057   18.4162   35.5597 N   0  0  0  0  0  0  0  0  0  0  0  0
   21.7372   11.9806   39.2452 O   0  0  0  0  0  0  0  0  0  0  0  0
   20.5234   12.6315   38.8517 C   0  0  1  0  0  0  0  0  0  0  0  0
   19.7468   15.7276   36.7754 O   0  0  0  0  0  0  0  0  0  0  0  0
   19.7687   13.0360   40.1121 C   0  0  1  0  0  0  0  0  0  0  0  0
   21.4497   16.7179   37.9856 O   0  0  0  0  0  0  0  0  0  0  0  0
   18.4251   13.7375   39.7177 C   0  0  0  0  0  0  0  0  0  0  0  0
   23.8175   17.0645   35.2001 O   0  0  0  0  0  0  0  0  0  0  0  0
   18.7594   15.0014   38.8357 C   0  0  1  0  0  0  0  0  0  0  0  0
   21.6993   18.7834   34.3823 O   0  0  0  0  0  0  0  0  0  0  0  0
   19.4643   14.5647   37.5386 C   0  0  2  0  0  0  0  0  0  0  0  0
   20.1161   16.9646   37.3586 C   0  0  1  0  0  0  0  0  0  0  0  0
   22.5503   16.3101   37.0672 C   0  0  2  0  0  0  0  0  0  0  0  0
   23.8144   16.0800   37.9011 C   0  0  0  0  0  0  0  0  0  0  0  0
   22.7810   17.4317   36.0792 C   0  0  2  0  0  0  0  0  0  0  0  0
   21.4897   17.7158   35.3139 C   0  0  1  0  0  0  0  0  0  0  0  0
   20.3733   18.1061   36.3136 C   0  0  1  0  0  0  0  0  0  0  0  0
  5  4  1  6  0  0  0
  5  8  1  0  0  0  0
  5 16  1  0  0  0  0
  8  7  1  1  0  0  0
  8 10  1  0  0  0  0
 10  1  1  1  0  0  0
 10 12  1  0  0  0  0
 11 18  1  0  0  0  0
 12 14  1  0  0  0  0
 14  2  1  6  0  0  0
 14 16  1  0  0  0  0
 16  9  1  6  0  0  0
 17  9  1  6  0  0  0
 17 11  1  0  0  0  0
 17 22  1  0  0  0  0
 18 19  1  1  0  0  0
 18 20  1  0  0  0  0
 19  3  1  0  0  0  0
 20 13  1  6  0  0  0
 20 21  1  0  0  0  0
 21 15  1  6  0  0  0
 21 22  1  0  0  0  0
 22  6  1  6  0  0  0
M  END
>  <CHROM.1>
-80.98134386,66.22782615,177.01983448,20.93815712,15.48703125,37.48637233
-1.96235147,0.19369153,-0.61008050

>  <Name>
2f4s_lig

>  <RI>
0

>  <Rbt.Current_Directory>
/home/itssahil/PROJECTS/Mol_Feturizer/New_Systems/rnas/2f4s

>  <Rbt.Executable>
rbdock ($Id: //depot/dev/client3/rdock/2013.1/src/exe/rbdock.cxx#4 $)

>  <Rbt.Library>
libRbt.so (2013.1, Build901 2013/11/27)

>  <Rbt.Parameter_File>
/export/apps/rDock/src/rDock_2013.1_src/data/scripts/dock_solv.prm

>  <Rbt.Receptor>
prm/pocket_docking_5.prm

>  <SCORE>
-4.48021

>  <SCORE.INTER>
-7.06533

>  <SCORE.INTER.CONST>
1

>  <SCORE.INTER.POLAR>
-0.579617

>  <SCORE.INTER.ROT>
3

>  <SCORE.INTER.SOLV>
13.5663

>  <SCORE.INTER.VDW>
-12.9003

>  <SCORE.INTER.norm>
-0.321151

>  <SCORE.INTRA>
2.58512

>  <SCORE.INTRA.DIHEDRAL>
0.642119

>  <SCORE.INTRA.DIHEDRAL.0>
1.67653

>  <SCORE.INTRA.POLAR>
0

>  <SCORE.INTRA.POLAR.0>
0

>  <SCORE.INTRA.REPUL>
0

>  <SCORE.INTRA.REPUL.0>
0

>  <SCORE.INTRA.SOLV>
2.40734

>  <SCORE.INTRA.SOLV.lig_0>
-76.6701

>  <SCORE.INTRA.VDW>
1.06039

>  <SCORE.INTRA.VDW.0>
-1.53273

>  <SCORE.INTRA.norm>
0.117505

>  <SCORE.RESTR>
0

>  <SCORE.RESTR.CAVITY>
0

>  <SCORE.RESTR.norm>
0

>  <SCORE.SYSTEM>
0

>  <SCORE.SYSTEM.CONST>
0

>  <SCORE.SYSTEM.DIHEDRAL>
0

>  <SCORE.SYSTEM.SOLV>
0

>  <SCORE.SYSTEM.norm>
0

>  <SCORE.heavy>
22

>  <SCORE.norm>
-0.203646

>  <RMSD>
5.879

$$$$
2f4s_lig
 OpenBabel11021811433D
libRbt.so/2013.1/901 2013/11/27
 22 23  0  0  0  0  0  0  0  0999 V2000
   21.5739   11.1317   42.4186 N   0  0  0  0  0  0  0  0  0  0  0  0
   23.0156   12.4340   37.7925 N   0  0  0  0  0  0  0  0  0  0  0  0
   19.7422   11.9161   32.9427 N   0  0  0  0  0  0  0  0  0  0  0  0
   18.3229   13.2217   39.3250 O   0  0  0  0  0  0  0  0  0  0  0  0
   19.4858   12.3463   39.3901 C   0  0  2  0  0  0  0  0  0  0  0  0
   19.2657   15.6372   38.2160 N   0  0  0  0  0  0  0  0  0  0  0  0
   18.8974   11.6613   41.6805 O   0  0  0  0  0  0  0  0  0  0  0  0
   19.9504   12.1870   40.8640 C   0  0  1  0  0  0  0  0  0  0  0  0
   20.2578   12.9903   37.1545 O   0  0  0  0  0  0  0  0  0  0  0  0
   21.1488   11.2520   40.9707 C   0  0  1  0  0  0  0  0  0  0  0  0
   19.9688   13.7828   35.0020 O   0  0  0  0  0  0  0  0  0  0  0  0
   22.3272   11.8068   40.1009 C   0  0  0  0  0  0  0  0  0  0  0  0
   16.3082   13.5004   34.9229 O   0  0  0  0  0  0  0  0  0  0  0  0
   21.8371   11.9200   38.6062 C   0  0  1  0  0  0  0  0  0  0  0  0
   16.6977   15.4716   36.9410 O   0  0  0  0  0  0  0  0  0  0  0  0
   20.6680   12.9173   38.5114 C   0  0  2  0  0  0  0  0  0  0  0  0
   20.2689   14.1934   36.4068 C   0  0  1  0  0  0  0  0  0  0  0  0
   18.6525   13.1238   34.7693 C   0  0  2  0  0  0  0  0  0  0  0  0
   18.5514   12.7582   33.2853 C   0  0  0  0  0  0  0  0  0  0  0  0
   17.5616   14.1057   35.1342 C   0  0  2  0  0  0  0  0  0  0  0  0
   17.7231   14.5346   36.5915 C   0  0  1  0  0  0  0  0  0  0  0  0
   19.1145   15.1858   36.7861 C   0  0  1  0  0  0  0  0  0  0  0  0
  5  4  1  1  0  0  0
  5  8  1  0  0  0  0
  5 16  1  0  0  0  0
  8  7  1  1  0  0  0
  8 10  1  0  0  0  0
 10  1  1  1  0  0  0
 10 12  1  0  0  0  0
 11 18  1  0  0  0  0
 12 14  1  0  0  0  0
 14  2  1  6  0  0  0
 14 16  1  0  0  0  0
 16  9  1  6  0  0  0
 17  9  1  1  0  0  0
 17 11  1  0  0  0  0
 17 22  1  0  0  0  0
 18 19  1  6  0  0  0
 18 20  1  0  0  0  0
 19  3  1  0  0  0  0
 20 13  1  1  0  0  0
 20 21  1  0  0  0  0
 21 15  1  6  0  0  0
 21 22  1  0  0  0  0
 22  6  1  1  0  0  0
M  END
>  <CHROM.1>
122.47611344,171.64546040,55.41795110,19.55919345,13.10496748,37.61736629
-1.10142035,0.49722583,-1.49530093

>  <Name>
2f4s_lig

>  <RI>
0

>  <Rbt.Current_Directory>
/home/itssahil/PROJECTS/Mol_Feturizer/New_Systems/rnas/2f4s

>  <Rbt.Executable>
rbdock ($Id: //depot/dev/client3/rdock/2013.1/src/exe/rbdock.cxx#4 $)

>  <Rbt.Library>
libRbt.so (2013.1, Build901 2013/11/27)

>  <Rbt.Parameter_File>
/export/apps/rDock/src/rDock_2013.1_src/data/scripts/dock_solv.prm

>  <Rbt.Receptor>
prm/pocket_docking_5.prm

>  <SCORE>
-13.5014

>  <SCORE.INTER>
-17.2344

>  <SCORE.INTER.CONST>
1

>  <SCORE.INTER.POLAR>
-1.95959

>  <SCORE.INTER.ROT>
3

>  <SCORE.INTER.SOLV>
19.2918

>  <SCORE.INTER.VDW>
-16.9883

>  <SCORE.INTER.norm>
-0.783383

>  <SCORE.INTRA>
3.733

>  <SCORE.INTRA.DIHEDRAL>
5.98793

>  <SCORE.INTRA.DIHEDRAL.0>
1.67653

>  <SCORE.INTRA.POLAR>
0

>  <SCORE.INTRA.POLAR.0>
0

>  <SCORE.INTRA.REPUL>
0

>  <SCORE.INTRA.REPUL.0>
0

>  <SCORE.INTRA.SOLV>
2.66478

>  <SCORE.INTRA.SOLV.lig_0>
-76.6701

>  <SCORE.INTRA.VDW>
-0.593357

>  <SCORE.INTRA.VDW.0>
-1.53273

>  <SCORE.INTRA.norm>
0.169682

>  <SCORE.RESTR>
0

>  <SCORE.RESTR.CAVITY>
0

>  <SCORE.RESTR.norm>
0

>  <SCORE.SYSTEM>
0

>  <SCORE.SYSTEM.CONST>
0

>  <SCORE.SYSTEM.DIHEDRAL>
0

>  <SCORE.SYSTEM.SOLV>
0

>  <SCORE.SYSTEM.norm>
0

>  <SCORE.heavy>
22

>  <SCORE.norm>
-0.613702

>  <RMSD>
5.905

$$$$
2f4s_lig
 OpenBabel11021811433D
libRbt.so/2013.1/901 2013/11/27
 22 23  0  0  0  0  0  0  0  0999 V2000
   21.6163   11.1322   42.4741 N   0  0  0  0  0  0  0  0  0  0  0  0
   22.9970   12.3826   37.8151 N   0  0  0  0  0  0  0  0  0  0  0  0
   19.5405   11.6687   33.0704 N   0  0  0  0  0  0  0  0  0  0  0  0
   18.3236   13.1836   39.3989 O   0  0  0  0  0  0  0  0  0  0  0  0
   19.4882   12.3100   39.4590 C   0  0  2  0  0  0  0  0  0  0  0  0
   19.5849   15.7348   38.1163 N   0  0  0  0  0  0  0  0  0  0  0  0
   18.9300   11.6510   41.7645 O   0  0  0  0  0  0  0  0  0  0  0  0
   19.9718   12.1681   40.9285 C   0  0  1  0  0  0  0  0  0  0  0  0
   20.2307   12.9290   37.2064 O   0  0  0  0  0  0  0  0  0  0  0  0
   21.1726   11.2355   41.0305 C   0  0  1  0  0  0  0  0  0  0  0  0
   20.0333   13.6306   35.0123 O   0  0  0  0  0  0  0  0  0  0  0  0
   22.3391   11.7814   40.1393 C   0  0  0  0  0  0  0  0  0  0  0  0
   16.3660   13.8077   34.9411 O   0  0  0  0  0  0  0  0  0  0  0  0
   21.8296   11.8770   38.6498 C   0  0  1  0  0  0  0  0  0  0  0  0
   17.0103   15.8234   36.8469 O   0  0  0  0  0  0  0  0  0  0  0  0
   20.6584   12.8720   38.5587 C   0  0  2  0  0  0  0  0  0  0  0  0
   20.3895   14.0777   36.3928 C   0  0  1  0  0  0  0  0  0  0  0  0
   18.6434   13.1308   34.8139 C   0  0  2  0  0  0  0  0  0  0  0  0
   18.4899   12.6988   33.3524 C   0  0  0  0  0  0  0  0  0  0  0  0
   17.6866   14.2610   35.1211 C   0  0  2  0  0  0  0  0  0  0  0  0
   17.9078   14.7466   36.5525 C   0  0  1  0  0  0  0  0  0  0  0  0
   19.3711   15.2272   36.7135 C   0  0  1  0  0  0  0  0  0  0  0  0
  5  4  1  1  0  0  0
  5  8  1  0  0  0  0
  5 16  1  0  0  0  0
  8  7  1  1  0  0  0
  8 10  1  0  0  0  0
 10  1  1  1  0  0  0
 10 12  1  0  0  0  0
 11 18  1  0  0  0  0
 12 14  1  0  0  0  0
 14  2  1  6  0  0  0
 14 16  1  0  0  0  0
 16  9  1  6  0  0  0
 17  9  1  1  0  0  0
 17 11  1  0  0  0  0
 17 22  1  0  0  0  0
 18 19  1  6  0  0  0
 18 20  1  0  0  0  0
 19  3  1  0  0  0  0
 20 13  1  1  0  0  0
 20 21  1  0  0  0  0
 21 15  1  6  0  0  0
 21 22  1  0  0  0  0
 22  6  1  1  0  0  0
M  END
>  <CHROM.1>
130.84460347,170.39176607,56.90010117,19.61579410,13.11844445,37.64233468
-1.08522685,0.57899425,-1.52316911

>  <Name>
2f4s_lig

>  <RI>
2.00194e+07

>  <Rbt.Current_Directory>
/home/itssahil/PROJECTS/Mol_Feturizer/New_Systems/rnas/2f4s

>  <Rbt.Executable>
rbdock ($Id: //depot/dev/client3/rdock/2013.1/src/exe/rbdock.cxx#4 $)

>  <Rbt.Library>
libRbt.so (2013.1, Build901 2013/11/27)

>  <Rbt.Parameter_File>
/export/apps/rDock/src/rDock_2013.1_src/data/scripts/dock_solv.prm

>  <Rbt.Receptor>
prm/pocket_docking_6.prm

>  <SCORE>
-13.5715

>  <SCORE.INTER>
-16.9159

>  <SCORE.INTER.CONST>
1

>  <SCORE.INTER.POLAR>
-1.95959

>  <SCORE.INTER.ROT>
3

>  <SCORE.INTER.SOLV>
19.4002

>  <SCORE.INTER.VDW>
-16.812

>  <SCORE.INTER.norm>
-0.768906

>  <SCORE.INTRA>
3.34443

>  <SCORE.INTRA.DIHEDRAL>
5.52185

>  <SCORE.INTRA.DIHEDRAL.0>
1.67653

>  <SCORE.INTRA.POLAR>
0

>  <SCORE.INTRA.POLAR.0>
0

>  <SCORE.INTRA.REPUL>
0

>  <SCORE.INTRA.REPUL.0>
0

>  <SCORE.INTRA.SOLV>
2.26498

>  <SCORE.INTRA.SOLV.lig_0>
-76.6701

>  <SCORE.INTRA.VDW>
-0.548992

>  <SCORE.INTRA.VDW.0>
-1.53273

>  <SCORE.INTRA.norm>
0.152019

>  <SCORE.RESTR>
0

>  <SCORE.RESTR.CAVITY>
0

>  <SCORE.RESTR.norm>
0

>  <SCORE.SYSTEM>
0

>  <SCORE.SYSTEM.CONST>
0

>  <SCORE.SYSTEM.DIHEDRAL>
0

>  <SCORE.SYSTEM.SOLV>
0

>  <SCORE.SYSTEM.norm>
0

>  <SCORE.heavy>
22

>  <SCORE.norm>
-0.616886

>  <RMSD>
5.929

$$$$
2f4s_lig
 OpenBabel11021811433D
libRbt.so/2013.1/901 2013/11/27
 22 23  0  0  0  0  0  0  0  0999 V2000
   21.5412   11.0384   42.5129 N   0  0  0  0  0  0  0  0  0  0  0  0
   23.0233   12.3035   37.8893 N   0  0  0  0  0  0  0  0  0  0  0  0
   19.5638   11.7232   33.0956 N   0  0  0  0  0  0  0  0  0  0  0  0
   18.3548   13.2266   39.4201 O   0  0  0  0  0  0  0  0  0  0  0  0
   19.4915   12.3174   39.4847 C   0  0  2  0  0  0  0  0  0  0  0  0
   19.4422   15.6435   38.3025 N   0  0  0  0  0  0  0  0  0  0  0  0
   18.8818   11.6472   41.7740 O   0  0  0  0  0  0  0  0  0  0  0  0
   19.9503   12.1427   40.9587 C   0  0  1  0  0  0  0  0  0  0  0  0
   20.2834   12.9412   37.2504 O   0  0  0  0  0  0  0  0  0  0  0  0
   21.1207   11.1728   41.0649 C   0  0  1  0  0  0  0  0  0  0  0  0
   20.0263   13.7371   35.0951 O   0  0  0  0  0  0  0  0  0  0  0  0
   22.3154   11.6940   40.1965 C   0  0  0  0  0  0  0  0  0  0  0  0
   16.3554   13.6536   35.0361 O   0  0  0  0  0  0  0  0  0  0  0  0
   21.8297   11.8233   38.7017 C   0  0  1  0  0  0  0  0  0  0  0  0
   16.8622   15.6111   37.0415 O   0  0  0  0  0  0  0  0  0  0  0  0
   20.6905   12.8545   38.6074 C   0  0  2  0  0  0  0  0  0  0  0  0
   20.3558   14.1381   36.4961 C   0  0  1  0  0  0  0  0  0  0  0  0
   18.6750   13.1494   34.8727 C   0  0  2  0  0  0  0  0  0  0  0  0
   18.5462   12.7822   33.3912 C   0  0  0  0  0  0  0  0  0  0  0  0
   17.6410   14.1910   35.2378 C   0  0  2  0  0  0  0  0  0  0  0  0
   17.8333   14.6180   36.6919 C   0  0  1  0  0  0  0  0  0  0  0  0
   19.2590   15.1936   36.8758 C   0  0  1  0  0  0  0  0  0  0  0  0
  5  4  1  1  0  0  0
  5  8  1  0  0  0  0
  5 16  1  0  0  0  0
  8  7  1  1  0  0  0
  8 10  1  0  0  0  0
 10  1  1  1  0  0  0
 10 12  1  0  0  0  0
 11 18  1  0  0  0  0
 12 14  1  0  0  0  0
 14  2  1  6  0  0  0
 14 16  1  0  0  0  0
 16  9  1  6  0  0  0
 17  9  1  1  0  0  0
 17 11  1  0  0  0  0
 17 22  1  0  0  0  0
 18 19  1  6  0  0  0
 18 20  1  0  0  0  0
 19  3  1  0  0  0  0
 20 13  1  1  0  0  0
 20 21  1  0  0  0  0
 21 15  1  6  0  0  0
 21 22  1  0  0  0  0
 22  6  1  1  0  0  0
M  END
>  <CHROM.1>
123.80553944,171.95038555,63.52370874,19.59154364,13.08524438,37.71673495
-1.09282054,0.55102873,-1.50543104

>  <Name>
2f4s_lig

>  <RI>
2.26097e+07

>  <Rbt.Current_Directory>
/home/itssahil/PROJECTS/Mol_Feturizer/New_Systems/rnas/2f4s

>  <Rbt.Executable>
rbdock ($Id: //depot/dev/client3/rdock/2013.1/src/exe/rbdock.cxx#4 $)

>  <Rbt.Library>
libRbt.so (2013.1, Build901 2013/11/27)

>  <Rbt.Parameter_File>
/export/apps/rDock/src/rDock_2013.1_src/data/scripts/dock_solv.prm

>  <Rbt.Receptor>
prm/pocket_docking_7.prm

>  <SCORE>
-13.5266

>  <SCORE.INTER>
-17.0946

>  <SCORE.INTER.CONST>
1

>  <SCORE.INTER.POLAR>
-1.95169

>  <SCORE.INTER.ROT>
3

>  <SCORE.INTER.SOLV>
19.4494

>  <SCORE.INTER.VDW>
-16.9739

>  <SCORE.INTER.norm>
-0.777026

>  <SCORE.INTRA>
3.56797

>  <SCORE.INTRA.DIHEDRAL>
5.89854

>  <SCORE.INTRA.DIHEDRAL.0>
1.67653

>  <SCORE.INTRA.POLAR>
0

>  <SCORE.INTRA.POLAR.0>
0

>  <SCORE.INTRA.REPUL>
0

>  <SCORE.INTRA.REPUL.0>
0

>  <SCORE.INTRA.SOLV>
2.53259

>  <SCORE.INTRA.SOLV.lig_0>
-76.6701

>  <SCORE.INTRA.VDW>
-0.647594

>  <SCORE.INTRA.VDW.0>
-1.53273

>  <SCORE.INTRA.norm>
0.16218

>  <SCORE.RESTR>
0

>  <SCORE.RESTR.CAVITY>
0

>  <SCORE.RESTR.norm>
0

>  <SCORE.SYSTEM>
0

>  <SCORE.SYSTEM.CONST>
0

>  <SCORE.SYSTEM.DIHEDRAL>
0

>  <SCORE.SYSTEM.SOLV>
0

>  <SCORE.SYSTEM.norm>
0

>  <SCORE.heavy>
22

>  <SCORE.norm>
-0.614845

>  <RMSD>
5.933

$$$$
2f4s_lig
 OpenBabel11021811433D
libRbt.so/2013.1/901 2013/11/27
 22 23  0  0  0  0  0  0  0  0999 V2000
   21.5570   11.1665   42.4870 N   0  0  0  0  0  0  0  0  0  0  0  0
   22.9705   12.3671   37.8248 N   0  0  0  0  0  0  0  0  0  0  0  0
   19.6220   11.6376   33.0514 N   0  0  0  0  0  0  0  0  0  0  0  0
   18.2920   13.2049   39.3738 O   0  0  0  0  0  0  0  0  0  0  0  0
   19.4519   12.3264   39.4488 C   0  0  2  0  0  0  0  0  0  0  0  0
   19.5196   15.7274   38.0691 N   0  0  0  0  0  0  0  0  0  0  0  0
   18.8773   11.6914   41.7570 O   0  0  0  0  0  0  0  0  0  0  0  0
   19.9264   12.1959   40.9223 C   0  0  1  0  0  0  0  0  0  0  0  0
   20.2104   12.9210   37.1949 O   0  0  0  0  0  0  0  0  0  0  0  0
   21.1221   11.2585   41.0399 C   0  0  1  0  0  0  0  0  0  0  0  0
   20.0441   13.6018   34.9918 O   0  0  0  0  0  0  0  0  0  0  0  0
   22.2963   11.7906   40.1505 C   0  0  0  0  0  0  0  0  0  0  0  0
   16.3769   13.7395   34.8552 O   0  0  0  0  0  0  0  0  0  0  0  0
   21.7959   11.8748   38.6573 C   0  0  1  0  0  0  0  0  0  0  0  0
   16.9668   15.7780   36.7544 O   0  0  0  0  0  0  0  0  0  0  0  0
   20.6300   12.8745   38.5501 C   0  0  2  0  0  0  0  0  0  0  0  0
   20.3715   14.0644   36.3742 C   0  0  1  0  0  0  0  0  0  0  0  0
   18.6632   13.0856   34.7736 C   0  0  2  0  0  0  0  0  0  0  0  0
   18.5397   12.6397   33.3134 C   0  0  0  0  0  0  0  0  0  0  0  0
   17.6894   14.2083   35.0542 C   0  0  2  0  0  0  0  0  0  0  0  0
   17.8805   14.7083   36.4850 C   0  0  1  0  0  0  0  0  0  0  0  0
   19.3357   15.2056   36.6672 C   0  0  1  0  0  0  0  0  0  0  0  0
  5  4  1  1  0  0  0
  5  8  1  0  0  0  0
  5 16  1  0  0  0  0
  8  7  1  1  0  0  0
  8 10  1  0  0  0  0
 10  1  1  1  0  0  0
 10 12  1  0  0  0  0
 11 18  1  0  0  0  0
 12 14  1  0  0  0  0
 14  2  1  6  0  0  0
 14 16  1  0  0  0  0
 16  9  1  6  0  0  0
 17  9  1  1  0  0  0
 17 11  1  0  0  0  0
 17 22  1  0  0  0  0
 18 19  1  6  0  0  0
 18 20  1  0  0  0  0
 19  3  1  0  0  0  0
 20 13  1  1  0  0  0
 20 21  1  0  0  0  0
 21 15  1  6  0  0  0
 21 22  1  0  0  0  0
 22  6  1  1  0  0  0
M  END
>  <CHROM.1>
130.41310130,169.58701846,55.84949767,19.59585334,13.10637390,37.61619042
-1.09927886,0.57556260,-1.52573014

>  <Name>
2f4s_lig

>  <RI>
2.00194e+07

>  <Rbt.Current_Directory>
/home/itssahil/PROJECTS/Mol_Feturizer/New_Systems/rnas/2f4s

>  <Rbt.Executable>
rbdock ($Id: //depot/dev/client3/rdock/2013.1/src/exe/rbdock.cxx#4 $)

>  <Rbt.Library>
libRbt.so (2013.1, Build901 2013/11/27)

>  <Rbt.Parameter_File>
/export/apps/rDock/src/rDock_2013.1_src/data/scripts/dock_solv.prm

>  <Rbt.Receptor>
prm/pocket_docking_6.prm

>  <SCORE>
-13.5364

>  <SCORE.INTER>
-16.96

>  <SCORE.INTER.CONST>
1

>  <SCORE.INTER.POLAR>
-1.95959

>  <SCORE.INTER.ROT>
3

>  <SCORE.INTER.SOLV>
19.7233

>  <SCORE.INTER.VDW>
-16.9491

>  <SCORE.INTER.norm>
-0.770907

>  <SCORE.INTRA>
3.42353

>  <SCORE.INTRA.DIHEDRAL>
5.66449

>  <SCORE.INTRA.DIHEDRAL.0>
1.67653

>  <SCORE.INTRA.POLAR>
0

>  <SCORE.INTRA.POLAR.0>
0

>  <SCORE.INTRA.REPUL>
0

>  <SCORE.INTRA.REPUL.0>
0

>  <SCORE.INTRA.SOLV>
2.28076

>  <SCORE.INTRA.SOLV.lig_0>
-76.6701

>  <SCORE.INTRA.VDW>
-0.549097

>  <SCORE.INTRA.VDW.0>
-1.53273

>  <SCORE.INTRA.norm>
0.155615

>  <SCORE.RESTR>
0

>  <SCORE.RESTR.CAVITY>
0

>  <SCORE.RESTR.norm>
0

>  <SCORE.SYSTEM>
0

>  <SCORE.SYSTEM.CONST>
0

>  <SCORE.SYSTEM.DIHEDRAL>
0

>  <SCORE.SYSTEM.SOLV>
0

>  <SCORE.SYSTEM.norm>
0

>  <SCORE.heavy>
22

>  <SCORE.norm>
-0.615292

>  <RMSD>
5.940

$$$$
2f4s_lig
 OpenBabel11021811433D
libRbt.so/2013.1/901 2013/11/27
 22 23  0  0  0  0  0  0  0  0999 V2000
   21.5697   11.1199   42.4847 N   0  0  0  0  0  0  0  0  0  0  0  0
   22.9841   12.3594   37.8330 N   0  0  0  0  0  0  0  0  0  0  0  0
   19.5414   11.6706   33.0703 N   0  0  0  0  0  0  0  0  0  0  0  0
   18.3082   13.1943   39.3917 O   0  0  0  0  0  0  0  0  0  0  0  0
   19.4661   12.3124   39.4582 C   0  0  2  0  0  0  0  0  0  0  0  0
   19.5750   15.7281   38.1264 N   0  0  0  0  0  0  0  0  0  0  0  0
   18.8909   11.6578   41.7608 O   0  0  0  0  0  0  0  0  0  0  0  0
   19.9409   12.1673   40.9303 C   0  0  1  0  0  0  0  0  0  0  0  0
   20.2250   12.9256   37.2095 O   0  0  0  0  0  0  0  0  0  0  0  0
   21.1344   11.2260   41.0388 C   0  0  1  0  0  0  0  0  0  0  0  0
   20.0340   13.6341   35.0171 O   0  0  0  0  0  0  0  0  0  0  0  0
   22.3095   11.7634   40.1537 C   0  0  0  0  0  0  0  0  0  0  0  0
   16.3668   13.8096   34.9351 O   0  0  0  0  0  0  0  0  0  0  0  0
   21.8087   11.8623   38.6616 C   0  0  1  0  0  0  0  0  0  0  0  0
   17.0043   15.8195   36.8494 O   0  0  0  0  0  0  0  0  0  0  0  0
   20.6451   12.8657   38.5640 C   0  0  2  0  0  0  0  0  0  0  0  0
   20.3858   14.0769   36.4000 C   0  0  1  0  0  0  0  0  0  0  0  0
   18.6450   13.1342   34.8128 C   0  0  2  0  0  0  0  0  0  0  0  0
   18.4962   12.7069   33.3494 C   0  0  0  0  0  0  0  0  0  0  0  0
   17.6867   14.2630   35.1206 C   0  0  2  0  0  0  0  0  0  0  0  0
   17.9033   14.7441   36.5543 C   0  0  1  0  0  0  0  0  0  0  0  0
   19.3658   15.2248   36.7213 C   0  0  1  0  0  0  0  0  0  0  0  0
  5  4  1  1  0  0  0
  5  8  1  0  0  0  0
  5 16  1  0  0  0  0
  8  7  1  1  0  0  0
  8 10  1  0  0  0  0
 10  1  1  1  0  0  0
 10 12  1  0  0  0  0
 11 18  1  0  0  0  0
 12 14  1  0  0  0  0
 14  2  1  6  0  0  0
 14 16  1  0  0  0  0
 16  9  1  6  0  0  0
 17  9  1  1  0  0  0
 17 11  1  0  0  0  0
 17 22  1  0  0  0  0
 18 19  1  6  0  0  0
 18 20  1  0  0  0  0
 19  3  1  0  0  0  0
 20 13  1  1  0  0  0
 20 21  1  0  0  0  0
 21 15  1  6  0  0  0
 21 22  1  0  0  0  0
 22  6  1  1  0  0  0
M  END
>  <CHROM.1>
130.26876758,170.58073990,57.32293849,19.60255586,13.11574350,37.64598945
-1.09080970,0.58119048,-1.51979617

>  <Name>
2f4s_lig

>  <RI>
2.00194e+07

>  <Rbt.Current_Directory>
/home/itssahil/PROJECTS/Mol_Feturizer/New_Systems/rnas/2f4s

>  <Rbt.Executable>
rbdock ($Id: //depot/dev/client3/rdock/2013.1/src/exe/rbdock.cxx#4 $)

>  <Rbt.Library>
libRbt.so (2013.1, Build901 2013/11/27)

>  <Rbt.Parameter_File>
/export/apps/rDock/src/rDock_2013.1_src/data/scripts/dock_solv.prm

>  <Rbt.Receptor>
prm/pocket_docking_6.prm

>  <SCORE>
-13.6226

>  <SCORE.INTER>
-16.9867

>  <SCORE.INTER.CONST>
1

>  <SCORE.INTER.POLAR>
-1.95763

>  <SCORE.INTER.ROT>
3

>  <SCORE.INTER.SOLV>
19.3886

>  <SCORE.INTER.VDW>
-16.8619

>  <SCORE.INTER.norm>
-0.772121

>  <SCORE.INTRA>
3.36401

>  <SCORE.INTRA.DIHEDRAL>
5.55334

>  <SCORE.INTRA.DIHEDRAL.0>
1.67653

>  <SCORE.INTRA.POLAR>
0

>  <SCORE.INTRA.POLAR.0>
0

>  <SCORE.INTRA.REPUL>
0

>  <SCORE.INTRA.REPUL.0>
0

>  <SCORE.INTRA.SOLV>
2.28751

>  <SCORE.INTRA.SOLV.lig_0>
-76.6701

>  <SCORE.INTRA.VDW>
-0.556411

>  <SCORE.INTRA.VDW.0>
-1.53273

>  <SCORE.INTRA.norm>
0.15291

>  <SCORE.RESTR>
0

>  <SCORE.RESTR.CAVITY>
0

>  <SCORE.RESTR.norm>
0

>  <SCORE.SYSTEM>
0

>  <SCORE.SYSTEM.CONST>
0

>  <SCORE.SYSTEM.DIHEDRAL>
0

>  <SCORE.SYSTEM.SOLV>
0

>  <SCORE.SYSTEM.norm>
0

>  <SCORE.heavy>
22

>  <SCORE.norm>
-0.619211

>  <RMSD>
5.940

$$$$
2f4s_lig
 OpenBabel11021811433D
libRbt.so/2013.1/901 2013/11/27
 22 23  0  0  0  0  0  0  0  0999 V2000
   21.5658   11.1101   42.5108 N   0  0  0  0  0  0  0  0  0  0  0  0
   22.9903   12.3329   37.8577 N   0  0  0  0  0  0  0  0  0  0  0  0
   19.5435   11.6913   33.0795 N   0  0  0  0  0  0  0  0  0  0  0  0
   18.3142   13.1841   39.4071 O   0  0  0  0  0  0  0  0  0  0  0  0
   19.4698   12.2994   39.4778 C   0  0  2  0  0  0  0  0  0  0  0  0
   19.5710   15.6976   38.1645 N   0  0  0  0  0  0  0  0  0  0  0  0
   18.8895   11.6528   41.7814 O   0  0  0  0  0  0  0  0  0  0  0  0
   19.9420   12.1573   40.9510 C   0  0  1  0  0  0  0  0  0  0  0  0
   20.2336   12.9043   37.2285 O   0  0  0  0  0  0  0  0  0  0  0  0
   21.1329   11.2133   41.0639 C   0  0  1  0  0  0  0  0  0  0  0  0
   20.0157   13.6212   35.0413 O   0  0  0  0  0  0  0  0  0  0  0  0
   22.3107   11.7452   40.1791 C   0  0  0  0  0  0  0  0  0  0  0  0
   16.3467   13.7687   34.9959 O   0  0  0  0  0  0  0  0  0  0  0  0
   21.8123   11.8412   38.6859 C   0  0  1  0  0  0  0  0  0  0  0  0
   16.9874   15.7748   36.9130 O   0  0  0  0  0  0  0  0  0  0  0  0
   20.6515   12.8472   38.5838 C   0  0  2  0  0  0  0  0  0  0  0  0
   20.3776   14.0605   36.4228 C   0  0  1  0  0  0  0  0  0  0  0  0
   18.6287   13.1115   34.8483 C   0  0  2  0  0  0  0  0  0  0  0  0
   18.4688   12.6896   33.3845 C   0  0  0  0  0  0  0  0  0  0  0  0
   17.6648   14.2315   35.1705 C   0  0  2  0  0  0  0  0  0  0  0  0
   17.8916   14.7078   36.6042 C   0  0  1  0  0  0  0  0  0  0  0  0
   19.3520   15.1990   36.7592 C   0  0  1  0  0  0  0  0  0  0  0  0
  5  4  1  1  0  0  0
  5  8  1  0  0  0  0
  5 16  1  0  0  0  0
  8  7  1  1  0  0  0
  8 10  1  0  0  0  0
 10  1  1  1  0  0  0
 10 12  1  0  0  0  0
 11 18  1  0  0  0  0
 12 14  1  0  0  0  0
 14  2  1  6  0  0  0
 14 16  1  0  0  0  0
 16  9  1  6  0  0  0
 17  9  1  1  0  0  0
 17 11  1  0  0  0  0
 17 22  1  0  0  0  0
 18 19  1  6  0  0  0
 18 20  1  0  0  0  0
 19  3  1  0  0  0  0
 20 13  1  1  0  0  0
 20 21  1  0  0  0  0
 21 15  1  6  0  0  0
 21 22  1  0  0  0  0
 22  6  1  1  0  0  0
M  END
>  <CHROM.1>
129.14771063,171.42701216,55.75636080,19.59674779,13.09637092,37.67647746
-1.08989921,0.57232233,-1.51878047

>  <Name>
2f4s_lig

>  <RI>
2.26097e+07

>  <Rbt.Current_Directory>
/home/itssahil/PROJECTS/Mol_Feturizer/New_Systems/rnas/2f4s

>  <Rbt.Executable>
rbdock ($Id: //depot/dev/client3/rdock/2013.1/src/exe/rbdock.cxx#4 $)

>  <Rbt.Library>
libRbt.so (2013.1, Build901 2013/11/27)

>  <Rbt.Parameter_File>
/export/apps/rDock/src/rDock_2013.1_src/data/scripts/dock_solv.prm

>  <Rbt.Receptor>
prm/pocket_docking_7.prm

>  <SCORE>
-13.6218

>  <SCORE.INTER>
-17.0417

>  <SCORE.INTER.CONST>
1

>  <SCORE.INTER.POLAR>
-1.95959

>  <SCORE.INTER.ROT>
3

>  <SCORE.INTER.SOLV>
19.4403

>  <SCORE.INTER.VDW>
-16.9093

>  <SCORE.INTER.norm>
-0.774624

>  <SCORE.INTRA>
3.41997

>  <SCORE.INTRA.DIHEDRAL>
5.62311

>  <SCORE.INTRA.DIHEDRAL.0>
1.67653

>  <SCORE.INTRA.POLAR>
0

>  <SCORE.INTRA.POLAR.0>
0

>  <SCORE.INTRA.REPUL>
0

>  <SCORE.INTRA.REPUL.0>
0

>  <SCORE.INTRA.SOLV>
2.36269

>  <SCORE.INTRA.SOLV.lig_0>
-76.6701

>  <SCORE.INTRA.VDW>
-0.572929

>  <SCORE.INTRA.VDW.0>
-1.53273

>  <SCORE.INTRA.norm>
0.155453

>  <SCORE.RESTR>
0

>  <SCORE.RESTR.CAVITY>
0

>  <SCORE.RESTR.norm>
0

>  <SCORE.SYSTEM>
0

>  <SCORE.SYSTEM.CONST>
0

>  <SCORE.SYSTEM.DIHEDRAL>
0

>  <SCORE.SYSTEM.SOLV>
0

>  <SCORE.SYSTEM.norm>
0

>  <SCORE.heavy>
22

>  <SCORE.norm>
-0.61917

>  <RMSD>
5.941

$$$$
2f4s_lig
 OpenBabel11021811433D
libRbt.so/2013.1/901 2013/11/27
 22 23  0  0  0  0  0  0  0  0999 V2000
   23.6499   11.2574   39.9581 N   0  0  0  0  0  0  0  0  0  0  0  0
   21.6353   15.4506   38.0780 N   0  0  0  0  0  0  0  0  0  0  0  0
   15.5525   17.2421   38.9854 N   0  0  0  0  0  0  0  0  0  0  0  0
   18.9761   12.4537   41.0677 O   0  0  0  0  0  0  0  0  0  0  0  0
   19.9920   12.5309   40.0261 C   0  0  2  0  0  0  0  0  0  0  0  0
   19.7830   12.7354   36.8440 N   0  0  0  0  0  0  0  0  0  0  0  0
   21.0888   10.5003   40.8835 O   0  0  0  0  0  0  0  0  0  0  0  0
   21.3084   11.8674   40.5162 C   0  0  1  0  0  0  0  0  0  0  0  0
   19.0740   14.6083   39.1038 O   0  0  0  0  0  0  0  0  0  0  0  0
   22.3843   11.9047   39.4377 C   0  0  1  0  0  0  0  0  0  0  0  0
   16.9321   14.7748   38.2498 O   0  0  0  0  0  0  0  0  0  0  0  0
   22.6618   13.3894   39.0236 C   0  0  0  0  0  0  0  0  0  0  0  0
   17.7567   16.9863   35.4364 O   0  0  0  0  0  0  0  0  0  0  0  0
   21.3174   14.0221   38.4950 C   0  0  1  0  0  0  0  0  0  0  0  0
   19.1937   14.6222   34.7607 O   0  0  0  0  0  0  0  0  0  0  0  0
   20.2650   14.0327   39.6186 C   0  0  2  0  0  0  0  0  0  0  0  0
   18.1184   13.8733   38.3601 C   0  0  1  0  0  0  0  0  0  0  0  0
   17.1458   16.0709   37.5460 C   0  0  2  0  0  0  0  0  0  0  0  0
   15.8292   16.8535   37.5652 C   0  0  0  0  0  0  0  0  0  0  0  0
   17.5479   15.7727   36.1188 C   0  0  2  0  0  0  0  0  0  0  0  0
   18.8125   14.9156   36.1098 C   0  0  1  0  0  0  0  0  0  0  0  0
   18.5466   13.5966   36.8764 C   0  0  1  0  0  0  0  0  0  0  0  0
  5  4  1  1  0  0  0
  5  8  1  0  0  0  0
  5 16  1  0  0  0  0
  8  7  1  6  0  0  0
  8 10  1  0  0  0  0
 10  1  1  1  0  0  0
 10 12  1  0  0  0  0
 11 18  1  0  0  0  0
 12 14  1  0  0  0  0
 14  2  1  1  0  0  0
 14 16  1  0  0  0  0
 16  9  1  6  0  0  0
 17  9  1  1  0  0  0
 17 11  1  0  0  0  0
 17 22  1  0  0  0  0
 18 19  1  6  0  0  0
 18 20  1  0  0  0  0
 19  3  1  0  0  0  0
 20 13  1  6  0  0  0
 20 21  1  0  0  0  0
 21 15  1  6  0  0  0
 21 22  1  0  0  0  0
 22  6  1  1  0  0  0
M  END
>  <CHROM.1>
-33.71961688,169.45572682,67.62992111,19.40852766,14.07024912,38.31856377
-0.72408344,0.46986952,-1.10915679

>  <Name>
2f4s_lig

>  <RI>
2.00194e+07

>  <Rbt.Current_Directory>
/home/itssahil/PROJECTS/Mol_Feturizer/New_Systems/rnas/2f4s

>  <Rbt.Executable>
rbdock ($Id: //depot/dev/client3/rdock/2013.1/src/exe/rbdock.cxx#4 $)

>  <Rbt.Library>
libRbt.so (2013.1, Build901 2013/11/27)

>  <Rbt.Parameter_File>
/export/apps/rDock/src/rDock_2013.1_src/data/scripts/dock_solv.prm

>  <Rbt.Receptor>
prm/pocket_docking_6.prm

>  <SCORE>
-7.64854

>  <SCORE.INTER>
-12.9821

>  <SCORE.INTER.CONST>
1

>  <SCORE.INTER.POLAR>
-0.844697

>  <SCORE.INTER.ROT>
3

>  <SCORE.INTER.SOLV>
16.9803

>  <SCORE.INTER.VDW>
-17.0992

>  <SCORE.INTER.norm>
-0.590098

>  <SCORE.INTRA>
5.33361

>  <SCORE.INTRA.DIHEDRAL>
2.0898

>  <SCORE.INTRA.DIHEDRAL.0>
1.67653

>  <SCORE.INTRA.POLAR>
0

>  <SCORE.INTRA.POLAR.0>
0

>  <SCORE.INTRA.REPUL>
0

>  <SCORE.INTRA.REPUL.0>
0

>  <SCORE.INTRA.SOLV>
5.86942

>  <SCORE.INTRA.SOLV.lig_0>
-76.6701

>  <SCORE.INTRA.VDW>
1.354

>  <SCORE.INTRA.VDW.0>
-1.53273

>  <SCORE.INTRA.norm>
0.242437

>  <SCORE.RESTR>
0

>  <SCORE.RESTR.CAVITY>
0

>  <SCORE.RESTR.norm>
0

>  <SCORE.SYSTEM>
0

>  <SCORE.SYSTEM.CONST>
0

>  <SCORE.SYSTEM.DIHEDRAL>
0

>  <SCORE.SYSTEM.SOLV>
0

>  <SCORE.SYSTEM.norm>
0

>  <SCORE.heavy>
22

>  <SCORE.norm>
-0.347661

>  <RMSD>
5.950

$$$$
2f4s_lig
 OpenBabel11021811433D
libRbt.so/2013.1/901 2013/11/27
 22 23  0  0  0  0  0  0  0  0999 V2000
   23.6117   11.2325   39.8639 N   0  0  0  0  0  0  0  0  0  0  0  0
   21.6042   15.4931   38.1338 N   0  0  0  0  0  0  0  0  0  0  0  0
   15.6016   17.3575   38.9444 N   0  0  0  0  0  0  0  0  0  0  0  0
   18.9421   12.3999   41.0211 O   0  0  0  0  0  0  0  0  0  0  0  0
   19.9568   12.5111   39.9814 C   0  0  2  0  0  0  0  0  0  0  0  0
   19.7525   12.7384   36.8823 N   0  0  0  0  0  0  0  0  0  0  0  0
   21.0501   10.4494   40.7660 O   0  0  0  0  0  0  0  0  0  0  0  0
   21.2724   11.8279   40.4462 C   0  0  1  0  0  0  0  0  0  0  0  0
   19.0424   14.6214   39.1333 O   0  0  0  0  0  0  0  0  0  0  0  0
   22.3468   11.9003   39.3682 C   0  0  1  0  0  0  0  0  0  0  0  0
   16.9259   14.8489   38.2311 O   0  0  0  0  0  0  0  0  0  0  0  0
   22.6272   13.3980   39.0055 C   0  0  0  0  0  0  0  0  0  0  0  0
   17.8744   17.0476   35.4470 O   0  0  0  0  0  0  0  0  0  0  0  0
   21.2836   14.0517   38.5012 C   0  0  1  0  0  0  0  0  0  0  0  0
   19.2624   14.6482   34.7942 O   0  0  0  0  0  0  0  0  0  0  0  0
   20.2327   14.0255   39.6260 C   0  0  2  0  0  0  0  0  0  0  0  0
   18.0847   13.9152   38.3647 C   0  0  1  0  0  0  0  0  0  0  0  0
   17.1907   16.1413   37.5380 C   0  0  2  0  0  0  0  0  0  0  0  0
   15.8955   16.9591   37.5304 C   0  0  0  0  0  0  0  0  0  0  0  0
   17.6173   15.8376   36.1191 C   0  0  2  0  0  0  0  0  0  0  0  0
   18.8582   14.9467   36.1354 C   0  0  1  0  0  0  0  0  0  0  0  0
   18.5394   13.6326   36.8900 C   0  0  1  0  0  0  0  0  0  0  0  0
  5  4  1  1  0  0  0
  5  8  1  0  0  0  0
  5 16  1  0  0  0  0
  8  7  1  6  0  0  0
  8 10  1  0  0  0  0
 10  1  1  1  0  0  0
 10 12  1  0  0  0  0
 11 18  1  0  0  0  0
 12 14  1  0  0  0  0
 14  2  1  1  0  0  0
 14 16  1  0  0  0  0
 16  9  1  6  0  0  0
 17  9  1  1  0  0  0
 17 11  1  0  0  0  0
 17 22  1  0  0  0  0
 18 19  1  6  0  0  0
 18 20  1  0  0  0  0
 19  3  1  0  0  0  0
 20 13  1  1  0  0  0
 20 21  1  0  0  0  0
 21 15  1  6  0  0  0
 21 22  1  0  0  0  0
 22  6  1  1  0  0  0
M  END
>  <CHROM.1>
-33.78503858,172.14958442,68.00371037,19.40924284,14.09366443,38.30303139
-0.73715851,0.47838444,-1.07962395

>  <Name>
2f4s_lig

>  <RI>
0

>  <Rbt.Current_Directory>
/home/itssahil/PROJECTS/Mol_Feturizer/New_Systems/rnas/2f4s

>  <Rbt.Executable>
rbdock ($Id: //depot/dev/client3/rdock/2013.1/src/exe/rbdock.cxx#4 $)

>  <Rbt.Library>
libRbt.so (2013.1, Build901 2013/11/27)

>  <Rbt.Parameter_File>
/export/apps/rDock/src/rDock_2013.1_src/data/scripts/dock_solv.prm

>  <Rbt.Receptor>
prm/pocket_docking_8.prm

>  <SCORE>
-7.61705

>  <SCORE.INTER>
-13.068

>  <SCORE.INTER.CONST>
1

>  <SCORE.INTER.POLAR>
-0.855778

>  <SCORE.INTER.ROT>
3

>  <SCORE.INTER.SOLV>
16.7135

>  <SCORE.INTER.VDW>
-17.0306

>  <SCORE.INTER.norm>
-0.593999

>  <SCORE.INTRA>
5.45092

>  <SCORE.INTRA.DIHEDRAL>
1.87125

>  <SCORE.INTRA.DIHEDRAL.0>
1.67653

>  <SCORE.INTRA.POLAR>
0

>  <SCORE.INTRA.POLAR.0>
0

>  <SCORE.INTRA.REPUL>
0

>  <SCORE.INTRA.REPUL.0>
0

>  <SCORE.INTRA.SOLV>
6.17551

>  <SCORE.INTRA.SOLV.lig_0>
-76.6701

>  <SCORE.INTRA.VDW>
1.42754

>  <SCORE.INTRA.VDW.0>
-1.53273

>  <SCORE.INTRA.norm>
0.247769

>  <SCORE.RESTR>
0

>  <SCORE.RESTR.CAVITY>
0

>  <SCORE.RESTR.norm>
0

>  <SCORE.SYSTEM>
0

>  <SCORE.SYSTEM.CONST>
0

>  <SCORE.SYSTEM.DIHEDRAL>
0

>  <SCORE.SYSTEM.SOLV>
0

>  <SCORE.SYSTEM.norm>
0

>  <SCORE.heavy>
22

>  <SCORE.norm>
-0.346229

>  <RMSD>
5.950

$$$$
2f4s_lig
 OpenBabel11021811433D
libRbt.so/2013.1/901 2013/11/27
 22 23  0  0  0  0  0  0  0  0999 V2000
   16.0463   20.4376   39.0761 N   0  0  0  0  0  0  0  0  0  0  0  0
   19.6226   19.1996   35.7817 N   0  0  0  0  0  0  0  0  0  0  0  0
   25.2029   17.4601   38.3593 N   0  0  0  0  0  0  0  0  0  0  0  0
   19.3292   16.9123   40.2171 O   0  0  0  0  0  0  0  0  0  0  0  0
   19.1530   18.1599   39.4855 C   0  0  2  0  0  0  0  0  0  0  0  0
   19.4242   15.5565   36.0945 N   0  0  0  0  0  0  0  0  0  0  0  0
   17.3568   18.8567   41.0183 O   0  0  0  0  0  0  0  0  0  0  0  0
   17.6920   18.6652   39.6389 C   0  0  1  0  0  0  0  0  0  0  0  0
   20.8566   17.5764   37.8224 O   0  0  0  0  0  0  0  0  0  0  0  0
   17.4815   19.9862   38.9090 C   0  0  1  0  0  0  0  0  0  0  0  0
   22.8603   16.9139   36.8782 O   0  0  0  0  0  0  0  0  0  0  0  0
   17.8238   19.8081   37.3911 C   0  0  0  0  0  0  0  0  0  0  0  0
   23.1737   13.7432   38.7041 O   0  0  0  0  0  0  0  0  0  0  0  0
   19.3225   19.3330   37.2674 C   0  0  1  0  0  0  0  0  0  0  0  0
   20.8397   13.2859   37.1377 O   0  0  0  0  0  0  0  0  0  0  0  0
   19.4986   17.9674   37.9560 C   0  0  2  0  0  0  0  0  0  0  0  0
   21.3932   17.0415   36.6255 C   0  0  1  0  0  0  0  0  0  0  0  0
   23.2664   16.0118   37.9927 C   0  0  2  0  0  0  0  0  0  0  0  0
   24.7937   16.0415   38.1056 C   0  0  0  0  0  0  0  0  0  0  0  0
   22.8007   14.6117   37.6607 C   0  0  2  0  0  0  0  0  0  0  0  0
   21.2862   14.6079   37.4611 C   0  0  1  0  0  0  0  0  0  0  0  0
   20.9150   15.5801   36.3143 C   0  0  1  0  0  0  0  0  0  0  0  0
  5  4  1  1  0  0  0
  5  8  1  0  0  0  0
  5 16  1  0  0  0  0
  8  7  1  1  0  0  0
  8 10  1  0  0  0  0
 10  1  1  6  0  0  0
 10 12  1  0  0  0  0
 11 18  1  0  0  0  0
 12 14  1  0  0  0  0
 14  2  1  6  0  0  0
 14 16  1  0  0  0  0
 16  9  1  1  0  0  0
 17  9  1  1  0  0  0
 17 11  1  0  0  0  0
 17 22  1  0  0  0  0
 18 19  1  6  0  0  0
 18 20  1  0  0  0  0
 19  3  1  0  0  0  0
 20 13  1  1  0  0  0
 20 21  1  0  0  0  0
 21 15  1  6  0  0  0
 21 22  1  0  0  0  0
 22  6  1  1  0  0  0
M  END
>  <CHROM.1>
165.50291076,174.02382130,58.86036629,20.47730267,17.13317497,38.02177628
2.53524583,0.30656031,-0.10943634

>  <Name>
2f4s_lig

>  <RI>
2.26097e+07

>  <Rbt.Current_Directory>
/home/itssahil/PROJECTS/Mol_Feturizer/New_Systems/rnas/2f4s

>  <Rbt.Executable>
rbdock ($Id: //depot/dev/client3/rdock/2013.1/src/exe/rbdock.cxx#4 $)

>  <Rbt.Library>
libRbt.so (2013.1, Build901 2013/11/27)

>  <Rbt.Parameter_File>
/export/apps/rDock/src/rDock_2013.1_src/data/scripts/dock_solv.prm

>  <Rbt.Receptor>
prm/pocket_docking_7.prm

>  <SCORE>
-4.61512

>  <SCORE.INTER>
-5.84475

>  <SCORE.INTER.CONST>
1

>  <SCORE.INTER.POLAR>
-0.979163

>  <SCORE.INTER.ROT>
3

>  <SCORE.INTER.SOLV>
4.9049

>  <SCORE.INTER.VDW>
-7.86759

>  <SCORE.INTER.norm>
-0.265671

>  <SCORE.INTRA>
1.22963

>  <SCORE.INTRA.DIHEDRAL>
-0.363616

>  <SCORE.INTRA.DIHEDRAL.0>
1.67653

>  <SCORE.INTRA.POLAR>
0

>  <SCORE.INTRA.POLAR.0>
0

>  <SCORE.INTRA.REPUL>
0

>  <SCORE.INTRA.REPUL.0>
0

>  <SCORE.INTRA.SOLV>
2.79709

>  <SCORE.INTRA.SOLV.lig_0>
-76.6701

>  <SCORE.INTRA.VDW>
0.0128944

>  <SCORE.INTRA.VDW.0>
-1.53273

>  <SCORE.INTRA.norm>
0.0558924

>  <SCORE.RESTR>
0

>  <SCORE.RESTR.CAVITY>
0

>  <SCORE.RESTR.norm>
0

>  <SCORE.SYSTEM>
0

>  <SCORE.SYSTEM.CONST>
0

>  <SCORE.SYSTEM.DIHEDRAL>
0

>  <SCORE.SYSTEM.SOLV>
0

>  <SCORE.SYSTEM.norm>
0

>  <SCORE.heavy>
22

>  <SCORE.norm>
-0.209778

>  <RMSD>
5.963

$$$$
2f4s_lig
 OpenBabel11021811433D
libRbt.so/2013.1/901 2013/11/27
 22 23  0  0  0  0  0  0  0  0999 V2000
   23.5721   11.2097   40.0162 N   0  0  0  0  0  0  0  0  0  0  0  0
   21.6001   15.4093   38.1056 N   0  0  0  0  0  0  0  0  0  0  0  0
   15.5001   17.2115   38.9350 N   0  0  0  0  0  0  0  0  0  0  0  0
   18.8868   12.4229   41.0568 O   0  0  0  0  0  0  0  0  0  0  0  0
   19.9180   12.4962   40.0302 C   0  0  2  0  0  0  0  0  0  0  0  0
   19.7898   12.7437   36.8209 N   0  0  0  0  0  0  0  0  0  0  0  0
   20.9950   10.4620   40.9042 O   0  0  0  0  0  0  0  0  0  0  0  0
   21.2248   11.8282   40.5398 C   0  0  1  0  0  0  0  0  0  0  0  0
   19.0211   14.5765   39.0940 O   0  0  0  0  0  0  0  0  0  0  0  0
   22.3165   11.8613   39.4772 C   0  0  1  0  0  0  0  0  0  0  0  0
   16.8989   14.7495   38.1931 O   0  0  0  0  0  0  0  0  0  0  0  0
   22.6053   13.3449   39.0667 C   0  0  0  0  0  0  0  0  0  0  0  0
   17.7802   17.0101   35.4364 O   0  0  0  0  0  0  0  0  0  0  0  0
   21.2710   13.9822   38.5183 C   0  0  1  0  0  0  0  0  0  0  0  0
   19.2418   14.6626   34.7557 O   0  0  0  0  0  0  0  0  0  0  0  0
   20.2023   13.9968   39.6263 C   0  0  2  0  0  0  0  0  0  0  0  0
   18.0859   13.8504   38.3162 C   0  0  1  0  0  0  0  0  0  0  0  0
   17.1240   16.0578   37.5158 C   0  0  2  0  0  0  0  0  0  0  0  0
   15.8042   16.8353   37.5171 C   0  0  0  0  0  0  0  0  0  0  0  0
   17.5603   15.7846   36.0937 C   0  0  2  0  0  0  0  0  0  0  0  0
   18.8281   14.9323   36.1002 C   0  0  1  0  0  0  0  0  0  0  0  0
   18.5497   13.5999   36.8385 C   0  0  1  0  0  0  0  0  0  0  0  0
  5  4  1  1  0  0  0
  5  8  1  0  0  0  0
  5 16  1  0  0  0  0
  8  7  1  6  0  0  0
  8 10  1  0  0  0  0
 10  1  1  1  0  0  0
 10 12  1  0  0  0  0
 11 18  1  0  0  0  0
 12 14  1  0  0  0  0
 14  2  1  1  0  0  0
 14 16  1  0  0  0  0
 16  9  1  6  0  0  0
 17  9  1  1  0  0  0
 17 11  1  0  0  0  0
 17 22  1  0  0  0  0
 18 19  1  6  0  0  0
 18 20  1  0  0  0  0
 19  3  1  0  0  0  0
 20 13  1  1  0  0  0
 20 21  1  0  0  0  0
 21 15  1  6  0  0  0
 21 22  1  0  0  0  0
 22  6  1  1  0  0  0
M  END
>  <CHROM.1>
-34.89943433,169.49007289,68.19991438,19.37247763,14.05091276,38.31365821
-0.74684433,0.46178355,-1.09012727

>  <Name>
2f4s_lig

>  <RI>
2.26097e+07

>  <Rbt.Current_Directory>
/home/itssahil/PROJECTS/Mol_Feturizer/New_Systems/rnas/2f4s

>  <Rbt.Executable>
rbdock ($Id: //depot/dev/client3/rdock/2013.1/src/exe/rbdock.cxx#4 $)

>  <Rbt.Library>
libRbt.so (2013.1, Build901 2013/11/27)

>  <Rbt.Parameter_File>
/export/apps/rDock/src/rDock_2013.1_src/data/scripts/dock_solv.prm

>  <Rbt.Receptor>
prm/pocket_docking_7.prm

>  <SCORE>
-7.64759

>  <SCORE.INTER>
-13.1111

>  <SCORE.INTER.CONST>
1

>  <SCORE.INTER.POLAR>
-0.835128

>  <SCORE.INTER.ROT>
3

>  <SCORE.INTER.SOLV>
16.8128

>  <SCORE.INTER.VDW>
-17.1612

>  <SCORE.INTER.norm>
-0.59596

>  <SCORE.INTRA>
5.46353

>  <SCORE.INTRA.DIHEDRAL>
1.90375

>  <SCORE.INTRA.DIHEDRAL.0>
1.67653

>  <SCORE.INTRA.POLAR>
0

>  <SCORE.INTRA.POLAR.0>
0

>  <SCORE.INTRA.REPUL>
0

>  <SCORE.INTRA.REPUL.0>
0

>  <SCORE.INTRA.SOLV>
5.97338

>  <SCORE.INTRA.SOLV.lig_0>
-76.6701

>  <SCORE.INTRA.VDW>
1.52496

>  <SCORE.INTRA.VDW.0>
-1.53273

>  <SCORE.INTRA.norm>
0.248342

>  <SCORE.RESTR>
0

>  <SCORE.RESTR.CAVITY>
0

>  <SCORE.RESTR.norm>
0

>  <SCORE.SYSTEM>
0

>  <SCORE.SYSTEM.CONST>
0

>  <SCORE.SYSTEM.DIHEDRAL>
0

>  <SCORE.SYSTEM.SOLV>
0

>  <SCORE.SYSTEM.norm>
0

>  <SCORE.heavy>
22

>  <SCORE.norm>
-0.347618

>  <RMSD>
5.988

$$$$
2f4s_lig
 OpenBabel11021811433D
libRbt.so/2013.1/901 2013/11/27
 22 23  0  0  0  0  0  0  0  0999 V2000
   21.8867   13.5787   36.5118 N   0  0  0  0  0  0  0  0  0  0  0  0
   23.0219   10.9614   40.6394 N   0  0  0  0  0  0  0  0  0  0  0  0
   21.9005    7.5835   41.4267 N   0  0  0  0  0  0  0  0  0  0  0  0
   18.4381   12.8467   39.9872 O   0  0  0  0  0  0  0  0  0  0  0  0
   19.8665   13.0380   39.7727 C   0  0  2  0  0  0  0  0  0  0  0  0
   18.7161   12.6526   44.0258 N   0  0  0  0  0  0  0  0  0  0  0  0
   19.4316   14.3068   37.7081 O   0  0  0  0  0  0  0  0  0  0  0  0
   20.1598   13.2015   38.2559 C   0  0  1  0  0  0  0  0  0  0  0  0
   20.4716   11.7238   41.7515 O   0  0  0  0  0  0  0  0  0  0  0  0
   21.6437   13.4336   37.9989 C   0  0  1  0  0  0  0  0  0  0  0  0
   19.9515    9.5358   42.2873 O   0  0  0  0  0  0  0  0  0  0  0  0
   22.4702   12.2328   38.5718 C   0  0  0  0  0  0  0  0  0  0  0  0
   22.0879    9.2980   45.2647 O   0  0  0  0  0  0  0  0  0  0  0  0
   22.1813   12.1176   40.1178 C   0  0  1  0  0  0  0  0  0  0  0  0
   20.1918   11.2671   46.0631 O   0  0  0  0  0  0  0  0  0  0  0  0
   20.6891   11.8200   40.3521 C   0  0  2  0  0  0  0  0  0  0  0  0
   19.4393   10.9390   42.3216 C   0  0  1  0  0  0  0  0  0  0  0  0
   21.1975    9.2644   43.0585 C   0  0  2  0  0  0  0  0  0  0  0  0
   21.5684    7.7898   42.8730 C   0  0  0  0  0  0  0  0  0  0  0  0
   20.9205    9.5469   44.5182 C   0  0  2  0  0  0  0  0  0  0  0  0
   20.4643   10.9955   44.6834 C   0  0  1  0  0  0  0  0  0  0  0  0
   19.1862   11.2326   43.8418 C   0  0  1  0  0  0  0  0  0  0  0  0
  5  4  1  6  0  0  0
  5  8  1  0  0  0  0
  5 16  1  0  0  0  0
  8  7  1  1  0  0  0
  8 10  1  0  0  0  0
 10  1  1  6  0  0  0
 10 12  1  0  0  0  0
 11 18  1  0  0  0  0
 12 14  1  0  0  0  0
 14  2  1  6  0  0  0
 14 16  1  0  0  0  0
 16  9  1  1  0  0  0
 17  9  1  1  0  0  0
 17 11  1  0  0  0  0
 17 22  1  0  0  0  0
 18 19  1  1  0  0  0
 18 20  1  0  0  0  0
 19  3  1  0  0  0  0
 20 13  1  1  0  0  0
 20 21  1  0  0  0  0
 21 15  1  1  0  0  0
 21 22  1  0  0  0  0
 22  6  1  6  0  0  0
M  END
>  <CHROM.1>
90.93864311,79.00738881,64.82554720,20.70273228,11.33374168,41.48250712,-1.56117616
-0.80107696,2.08988274

>  <Name>
2f4s_lig

>  <RI>
2.26097e+07

>  <Rbt.Current_Directory>
/home/itssahil/PROJECTS/Mol_Feturizer/New_Systems/rnas/2f4s

>  <Rbt.Executable>
rbdock ($Id: //depot/dev/client3/rdock/2013.1/src/exe/rbdock.cxx#4 $)

>  <Rbt.Library>
libRbt.so (2013.1, Build901 2013/11/27)

>  <Rbt.Parameter_File>
/export/apps/rDock/src/rDock_2013.1_src/data/scripts/dock_solv.prm

>  <Rbt.Receptor>
prm/pocket_docking_7.prm

>  <SCORE>
-9.48984

>  <SCORE.INTER>
-11.9953

>  <SCORE.INTER.CONST>
1

>  <SCORE.INTER.POLAR>
-0.982007

>  <SCORE.INTER.ROT>
3

>  <SCORE.INTER.SOLV>
19.385

>  <SCORE.INTER.VDW>
-16.7852

>  <SCORE.INTER.norm>
-0.545242

>  <SCORE.INTRA>
2.49855

>  <SCORE.INTRA.DIHEDRAL>
3.89924

>  <SCORE.INTRA.DIHEDRAL.0>
1.67653

>  <SCORE.INTRA.POLAR>
0

>  <SCORE.INTRA.POLAR.0>
0

>  <SCORE.INTRA.REPUL>
0

>  <SCORE.INTRA.REPUL.0>
0

>  <SCORE.INTRA.SOLV>
2.09694

>  <SCORE.INTRA.SOLV.lig_0>
-76.6701

>  <SCORE.INTRA.VDW>
-0.499547

>  <SCORE.INTRA.VDW.0>
-1.53273

>  <SCORE.INTRA.norm>
0.11357

>  <SCORE.RESTR>
0.00693509

>  <SCORE.RESTR.CAVITY>
0.00693509

>  <SCORE.RESTR.norm>
0.000315232

>  <SCORE.SYSTEM>
0

>  <SCORE.SYSTEM.CONST>
0

>  <SCORE.SYSTEM.DIHEDRAL>
0

>  <SCORE.SYSTEM.SOLV>
0

>  <SCORE.SYSTEM.norm>
0

>  <SCORE.heavy>
22

>  <SCORE.norm>
-0.431357

>  <RMSD>
6.081

$$$$
2f4s_lig
 OpenBabel11021811433D
libRbt.so/2013.1/901 2013/11/27
 22 23  0  0  0  0  0  0  0  0999 V2000
   21.1348   10.6052   42.6317 N   0  0  0  0  0  0  0  0  0  0  0  0
   23.2723   12.0207   38.3186 N   0  0  0  0  0  0  0  0  0  0  0  0
   20.5100   14.2649   32.6074 N   0  0  0  0  0  0  0  0  0  0  0  0
   18.5856   13.3719   39.4139 O   0  0  0  0  0  0  0  0  0  0  0  0
   19.6016   12.3331   39.5219 C   0  0  2  0  0  0  0  0  0  0  0  0
   20.9357   15.8980   38.3342 N   0  0  0  0  0  0  0  0  0  0  0  0
   18.6611   11.5744   41.6670 O   0  0  0  0  0  0  0  0  0  0  0  0
   19.8644   11.9990   41.0162 C   0  0  1  0  0  0  0  0  0  0  0  0
   20.7106   13.0206   37.4468 O   0  0  0  0  0  0  0  0  0  0  0  0
   20.9024   10.8932   41.1638 C   0  0  1  0  0  0  0  0  0  0  0  0
   21.1185   13.6937   35.2730 O   0  0  0  0  0  0  0  0  0  0  0  0
   22.2393   11.3322   40.4761 C   0  0  0  0  0  0  0  0  0  0  0  0
   17.7980   15.1247   34.6309 O   0  0  0  0  0  0  0  0  0  0  0  0
   21.9474   11.6262   38.9544 C   0  0  1  0  0  0  0  0  0  0  0  0
   18.7860   16.8394   36.6788 O   0  0  0  0  0  0  0  0  0  0  0  0
   20.9455   12.7882   38.8272 C   0  0  2  0  0  0  0  0  0  0  0  0
   21.3828   14.0237   36.7060 C   0  0  1  0  0  0  0  0  0  0  0  0
   19.6919   13.7000   34.8421 C   0  0  2  0  0  0  0  0  0  0  0  0
   19.6333   13.3124   33.3614 C   0  0  0  0  0  0  0  0  0  0  0  0
   19.1475   15.0983   35.0312 C   0  0  2  0  0  0  0  0  0  0  0  0
   19.2920   15.5122   36.4946 C   0  0  1  0  0  0  0  0  0  0  0  0
   20.7859   15.4615   36.8995 C   0  0  1  0  0  0  0  0  0  0  0  0
  5  4  1  1  0  0  0
  5  8  1  0  0  0  0
  5 16  1  0  0  0  0
  8  7  1  6  0  0  0
  8 10  1  0  0  0  0
 10  1  1  1  0  0  0
 10 12  1  0  0  0  0
 11 18  1  0  0  0  0
 12 14  1  0  0  0  0
 14  2  1  6  0  0  0
 14 16  1  0  0  0  0
 16  9  1  6  0  0  0
 17  9  1  1  0  0  0
 17 11  1  0  0  0  0
 17 22  1  0  0  0  0
 18 19  1  6  0  0  0
 18 20  1  0  0  0  0
 19  3  1  0  0  0  0
 20 13  1  1  0  0  0
 20 21  1  0  0  0  0
 21 15  1  6  0  0  0
 21 22  1  0  0  0  0
 22  6  1  1  0  0  0
M  END
>  <CHROM.1>
146.06807006,165.58869560,-55.86248106,20.27449654,13.40853308,37.72556541
-1.37419943,0.66045915,-1.20463290

>  <Name>
2f4s_lig

>  <RI>
2.00194e+07

>  <Rbt.Current_Directory>
/home/itssahil/PROJECTS/Mol_Feturizer/New_Systems/rnas/2f4s

>  <Rbt.Executable>
rbdock ($Id: //depot/dev/client3/rdock/2013.1/src/exe/rbdock.cxx#4 $)

>  <Rbt.Library>
libRbt.so (2013.1, Build901 2013/11/27)

>  <Rbt.Parameter_File>
/export/apps/rDock/src/rDock_2013.1_src/data/scripts/dock_solv.prm

>  <Rbt.Receptor>
prm/pocket_docking_6.prm

>  <SCORE>
-9.18578

>  <SCORE.INTER>
-12.5674

>  <SCORE.INTER.CONST>
1

>  <SCORE.INTER.POLAR>
-1.68427

>  <SCORE.INTER.ROT>
3

>  <SCORE.INTER.SOLV>
17.5595

>  <SCORE.INTER.VDW>
-14.2172

>  <SCORE.INTER.norm>
-0.571247

>  <SCORE.INTRA>
3.38165

>  <SCORE.INTRA.DIHEDRAL>
3.78917

>  <SCORE.INTRA.DIHEDRAL.0>
1.67653

>  <SCORE.INTRA.POLAR>
0

>  <SCORE.INTRA.POLAR.0>
0

>  <SCORE.INTRA.REPUL>
0

>  <SCORE.INTRA.REPUL.0>
0

>  <SCORE.INTRA.SOLV>
3.4721

>  <SCORE.INTRA.SOLV.lig_0>
-76.6701

>  <SCORE.INTRA.VDW>
-0.248977

>  <SCORE.INTRA.VDW.0>
-1.53273

>  <SCORE.INTRA.norm>
0.153712

>  <SCORE.RESTR>
0

>  <SCORE.RESTR.CAVITY>
0

>  <SCORE.RESTR.norm>
0

>  <SCORE.SYSTEM>
0

>  <SCORE.SYSTEM.CONST>
0

>  <SCORE.SYSTEM.DIHEDRAL>
0

>  <SCORE.SYSTEM.SOLV>
0

>  <SCORE.SYSTEM.norm>
0

>  <SCORE.heavy>
22

>  <SCORE.norm>
-0.417535

>  <RMSD>
6.103

$$$$
2f4s_lig
 OpenBabel11021811433D
libRbt.so/2013.1/901 2013/11/27
 22 23  0  0  0  0  0  0  0  0999 V2000
   25.2168   16.0219   27.2881 N   0  0  0  0  0  0  0  0  0  0  0  0
   21.1103   16.4267   30.1427 N   0  0  0  0  0  0  0  0  0  0  0  0
   19.4100   13.0010   32.4963 N   0  0  0  0  0  0  0  0  0  0  0  0
   25.6395   16.0263   32.2204 O   0  0  0  0  0  0  0  0  0  0  0  0
   24.7756   15.6286   31.1166 C   0  0  2  0  0  0  0  0  0  0  0  0
   23.0825   17.9512   34.6098 N   0  0  0  0  0  0  0  0  0  0  0  0
   26.7142   15.4327   29.6117 O   0  0  0  0  0  0  0  0  0  0  0  0
   25.4220   16.0320   29.7627 C   0  0  1  0  0  0  0  0  0  0  0  0
   22.7368   15.8620   32.4573 O   0  0  0  0  0  0  0  0  0  0  0  0
   24.5565   15.6031   28.5843 C   0  0  1  0  0  0  0  0  0  0  0  0
   20.5569   15.5467   33.1597 O   0  0  0  0  0  0  0  0  0  0  0  0
   23.1381   16.2554   28.7092 C   0  0  0  0  0  0  0  0  0  0  0  0
   21.3498   13.6323   36.1915 O   0  0  0  0  0  0  0  0  0  0  0  0
   22.4935   15.7963   30.0733 C   0  0  1  0  0  0  0  0  0  0  0  0
   22.5021   16.1682   36.7850 O   0  0  0  0  0  0  0  0  0  0  0  0
   23.3494   16.2944   31.2521 C   0  0  2  0  0  0  0  0  0  0  0  0
   21.6598   16.5505   33.0678 C   0  0  1  0  0  0  0  0  0  0  0  0
   20.8313   14.3312   33.9771 C   0  0  2  0  0  0  0  0  0  0  0  0
   19.5987   13.4235   33.9212 C   0  0  0  0  0  0  0  0  0  0  0  0
   21.0861   14.7680   35.4024 C   0  0  2  0  0  0  0  0  0  0  0  0
   22.2611   15.7437   35.4384 C   0  0  1  0  0  0  0  0  0  0  0  0
   21.9379   16.9724   34.5530 C   0  0  1  0  0  0  0  0  0  0  0  0
  5  4  1  1  0  0  0
  5  8  1  0  0  0  0
  5 16  1  0  0  0  0
  8  7  1  6  0  0  0
  8 10  1  0  0  0  0
 10  1  1  6  0  0  0
 10 12  1  0  0  0  0
 11 18  1  0  0  0  0
 12 14  1  0  0  0  0
 14  2  1  1  0  0  0
 14 16  1  0  0  0  0
 16  9  1  1  0  0  0
 17  9  1  1  0  0  0
 17 11  1  0  0  0  0
 17 22  1  0  0  0  0
 18 19  1  1  0  0  0
 18 20  1  0  0  0  0
 19  3  1  0  0  0  0
 20 13  1  1  0  0  0
 20 21  1  0  0  0  0
 21 15  1  1  0  0  0
 21 22  1  0  0  0  0
 22  6  1  6  0  0  0
M  END
>  <CHROM.1>
160.81440113,122.35491877,63.02077174,22.71794962,15.60054852,32.35167409
0.95008454,-0.42854137,-1.69589435

>  <Name>
2f4s_lig

>  <RI>
0

>  <Rbt.Current_Directory>
/home/itssahil/PROJECTS/Mol_Feturizer/New_Systems/rnas/2f4s

>  <Rbt.Executable>
rbdock ($Id: //depot/dev/client3/rdock/2013.1/src/exe/rbdock.cxx#4 $)

>  <Rbt.Library>
libRbt.so (2013.1, Build901 2013/11/27)

>  <Rbt.Parameter_File>
/export/apps/rDock/src/rDock_2013.1_src/data/scripts/dock_solv.prm

>  <Rbt.Receptor>
prm/blind_docking_80.prm

>  <SCORE>
-4.07088

>  <SCORE.INTER>
-8.78827

>  <SCORE.INTER.CONST>
1

>  <SCORE.INTER.POLAR>
-0.713886

>  <SCORE.INTER.ROT>
3

>  <SCORE.INTER.SOLV>
15.652

>  <SCORE.INTER.VDW>
-14.2966

>  <SCORE.INTER.norm>
-0.399467

>  <SCORE.INTRA>
4.12008

>  <SCORE.INTRA.DIHEDRAL>
7.10933

>  <SCORE.INTRA.DIHEDRAL.0>
1.67653

>  <SCORE.INTRA.POLAR>
0

>  <SCORE.INTRA.POLAR.0>
0

>  <SCORE.INTRA.REPUL>
0

>  <SCORE.INTRA.REPUL.0>
0

>  <SCORE.INTRA.SOLV>
1.35679

>  <SCORE.INTRA.SOLV.lig_0>
-76.6701

>  <SCORE.INTRA.VDW>
-0.112975

>  <SCORE.INTRA.VDW.0>
-1.53273

>  <SCORE.INTRA.norm>
0.187276

>  <SCORE.RESTR>
0.597314

>  <SCORE.RESTR.CAVITY>
0.597314

>  <SCORE.RESTR.norm>
0.0271506

>  <SCORE.SYSTEM>
0

>  <SCORE.SYSTEM.CONST>
0

>  <SCORE.SYSTEM.DIHEDRAL>
0

>  <SCORE.SYSTEM.SOLV>
0

>  <SCORE.SYSTEM.norm>
0

>  <SCORE.heavy>
22

>  <SCORE.norm>
-0.18504

>  <RMSD>
6.117

$$$$
2f4s_lig
 OpenBabel11021811433D
libRbt.so/2013.1/901 2013/11/27
 22 23  0  0  0  0  0  0  0  0999 V2000
   19.9937    9.9668   42.0601 N   0  0  0  0  0  0  0  0  0  0  0  0
   18.4912   14.2630   39.9479 N   0  0  0  0  0  0  0  0  0  0  0  0
   19.9298   12.8435   33.7922 N   0  0  0  0  0  0  0  0  0  0  0  0
   22.5090   11.8361   38.2279 O   0  0  0  0  0  0  0  0  0  0  0  0
   21.7209   12.1919   39.4006 C   0  0  2  0  0  0  0  0  0  0  0  0
   22.6047   16.6373   37.5524 N   0  0  0  0  0  0  0  0  0  0  0  0
   22.3614   10.0956   40.5218 O   0  0  0  0  0  0  0  0  0  0  0  0
   21.2464   10.9065   40.1330 C   0  0  1  0  0  0  0  0  0  0  0  0
   20.9192   14.2764   38.3903 O   0  0  0  0  0  0  0  0  0  0  0  0
   20.4430   11.2440   41.3830 C   0  0  1  0  0  0  0  0  0  0  0  0
   20.9052   13.5496   36.1956 O   0  0  0  0  0  0  0  0  0  0  0  0
   19.2040   12.1183   40.9912 C   0  0  0  0  0  0  0  0  0  0  0  0
   18.4901   16.0134   34.9374 O   0  0  0  0  0  0  0  0  0  0  0  0
   19.7197   13.4313   40.2860 C   0  0  1  0  0  0  0  0  0  0  0  0
   20.6773   17.6736   35.6926 O   0  0  0  0  0  0  0  0  0  0  0  0
   20.4733   13.0710   38.9927 C   0  0  2  0  0  0  0  0  0  0  0  0
   21.6998   14.3078   37.2086 C   0  0  1  0  0  0  0  0  0  0  0  0
   19.5615   14.0991   35.8586 C   0  0  2  0  0  0  0  0  0  0  0  0
   18.9035   13.1704   34.8335 C   0  0  0  0  0  0  0  0  0  0  0  0
   19.7502   15.4756   35.2613 C   0  0  2  0  0  0  0  0  0  0  0  0
   20.4875   16.3705   36.2559 C   0  0  1  0  0  0  0  0  0  0  0  0
   21.8619   15.7422   36.5942 C   0  0  1  0  0  0  0  0  0  0  0  0
  5  4  1  6  0  0  0
  5  8  1  0  0  0  0
  5 16  1  0  0  0  0
  8  7  1  1  0  0  0
  8 10  1  0  0  0  0
 10  1  1  6  0  0  0
 10 12  1  0  0  0  0
 11 18  1  0  0  0  0
 12 14  1  0  0  0  0
 14  2  1  6  0  0  0
 14 16  1  0  0  0  0
 16  9  1  1  0  0  0
 17  9  1  1  0  0  0
 17 11  1  0  0  0  0
 17 22  1  0  0  0  0
 18 19  1  6  0  0  0
 18 20  1  0  0  0  0
 19  3  1  0  0  0  0
 20 13  1  1  0  0  0
 20 21  1  0  0  0  0
 21 15  1  6  0  0  0
 21 22  1  0  0  0  0
 22  6  1  1  0  0  0
M  END
>  <CHROM.1>
60.41391297,55.94273047,-45.26807124,20.55498318,13.61284236,37.90273366
1.24060202,1.30299858,2.58987570

>  <Name>
2f4s_lig

>  <RI>
0

>  <Rbt.Current_Directory>
/home/itssahil/PROJECTS/Mol_Feturizer/New_Systems/rnas/2f4s

>  <Rbt.Executable>
rbdock ($Id: //depot/dev/client3/rdock/2013.1/src/exe/rbdock.cxx#4 $)

>  <Rbt.Library>
libRbt.so (2013.1, Build901 2013/11/27)

>  <Rbt.Parameter_File>
/export/apps/rDock/src/rDock_2013.1_src/data/scripts/dock_solv.prm

>  <Rbt.Receptor>
prm/pocket_docking_4.prm

>  <SCORE>
-10.5865

>  <SCORE.INTER>
-11.3564

>  <SCORE.INTER.CONST>
1

>  <SCORE.INTER.POLAR>
-1.2037

>  <SCORE.INTER.ROT>
3

>  <SCORE.INTER.SOLV>
17.7872

>  <SCORE.INTER.VDW>
-15.0877

>  <SCORE.INTER.norm>
-0.516199

>  <SCORE.INTRA>
0.769883

>  <SCORE.INTRA.DIHEDRAL>
-0.683601

>  <SCORE.INTRA.DIHEDRAL.0>
1.67653

>  <SCORE.INTRA.POLAR>
0

>  <SCORE.INTRA.POLAR.0>
0

>  <SCORE.INTRA.REPUL>
0

>  <SCORE.INTRA.REPUL.0>
0

>  <SCORE.INTRA.SOLV>
1.19823

>  <SCORE.INTRA.SOLV.lig_0>
-76.6701

>  <SCORE.INTRA.VDW>
0.512568

>  <SCORE.INTRA.VDW.0>
-1.53273

>  <SCORE.INTRA.norm>
0.0349947

>  <SCORE.RESTR>
0

>  <SCORE.RESTR.CAVITY>
0

>  <SCORE.RESTR.norm>
0

>  <SCORE.SYSTEM>
0

>  <SCORE.SYSTEM.CONST>
0

>  <SCORE.SYSTEM.DIHEDRAL>
0

>  <SCORE.SYSTEM.SOLV>
0

>  <SCORE.SYSTEM.norm>
0

>  <SCORE.heavy>
22

>  <SCORE.norm>
-0.481204

>  <RMSD>
6.121

$$$$
2f4s_lig
 OpenBabel11021811433D
libRbt.so/2013.1/901 2013/11/27
 22 23  0  0  0  0  0  0  0  0999 V2000
   17.3786   10.7998   31.8327 N   0  0  0  0  0  0  0  0  0  0  0  0
   15.0276   14.6682   33.9969 N   0  0  0  0  0  0  0  0  0  0  0  0
   20.7006   12.8855   37.2856 N   0  0  0  0  0  0  0  0  0  0  0  0
   19.9245   13.9401   34.6900 O   0  0  0  0  0  0  0  0  0  0  0  0
   18.6225   13.3127   34.5058 C   0  0  2  0  0  0  0  0  0  0  0  0
   15.4209   16.6988   37.1998 N   0  0  0  0  0  0  0  0  0  0  0  0
   19.6627   11.3778   33.3941 O   0  0  0  0  0  0  0  0  0  0  0  0
   18.6508   12.3830   33.2614 C   0  0  1  0  0  0  0  0  0  0  0  0
   17.4255   15.2018   35.5093 O   0  0  0  0  0  0  0  0  0  0  0  0
   17.3107   11.6870   33.0574 C   0  0  1  0  0  0  0  0  0  0  0  0
   18.0685   14.0119   37.3844 O   0  0  0  0  0  0  0  0  0  0  0  0
   16.1815   12.7595   32.8917 C   0  0  0  0  0  0  0  0  0  0  0  0
   20.0095   16.7012   38.9610 O   0  0  0  0  0  0  0  0  0  0  0  0
   16.1526   13.6611   34.1853 C   0  0  1  0  0  0  0  0  0  0  0  0
   17.3744   17.7804   39.0058 O   0  0  0  0  0  0  0  0  0  0  0  0
   17.4925   14.4038   34.3374 C   0  0  2  0  0  0  0  0  0  0  0  0
   16.9212   14.7228   36.7434 C   0  0  1  0  0  0  0  0  0  0  0  0
   19.2756   14.8332   37.6831 C   0  0  2  0  0  0  0  0  0  0  0  0
   20.3379   13.9216   38.3051 C   0  0  0  0  0  0  0  0  0  0  0  0
   18.8814   15.9119   38.6671 C   0  0  2  0  0  0  0  0  0  0  0  0
   17.7586   16.7619   38.0748 C   0  0  1  0  0  0  0  0  0  0  0  0
   16.5415   15.8588   37.7565 C   0  0  1  0  0  0  0  0  0  0  0  0
  5  4  1  6  0  0  0
  5  8  1  0  0  0  0
  5 16  1  0  0  0  0
  8  7  1  1  0  0  0
  8 10  1  0  0  0  0
 10  1  1  6  0  0  0
 10 12  1  0  0  0  0
 11 18  1  0  0  0  0
 12 14  1  0  0  0  0
 14  2  1  6  0  0  0
 14 16  1  0  0  0  0
 16  9  1  1  0  0  0
 17  9  1  6  0  0  0
 17 11  1  0  0  0  0
 17 22  1  0  0  0  0
 18 19  1  1  0  0  0
 18 20  1  0  0  0  0
 19  3  1  0  0  0  0
 20 13  1  6  0  0  0
 20 21  1  0  0  0  0
 21 15  1  1  0  0  0
 21 22  1  0  0  0  0
 22  6  1  6  0  0  0
M  END
>  <CHROM.1>
-71.22130397,83.45311555,62.54723580,17.99658626,14.30447592,35.87667417
1.66539848,0.43464023,-2.26702824

>  <Name>
2f4s_lig

>  <RI>
0

>  <Rbt.Current_Directory>
/home/itssahil/PROJECTS/Mol_Feturizer/New_Systems/rnas/2f4s

>  <Rbt.Executable>
rbdock ($Id: //depot/dev/client3/rdock/2013.1/src/exe/rbdock.cxx#4 $)

>  <Rbt.Library>
libRbt.so (2013.1, Build901 2013/11/27)

>  <Rbt.Parameter_File>
/export/apps/rDock/src/rDock_2013.1_src/data/scripts/dock_solv.prm

>  <Rbt.Receptor>
prm/pocket_docking_8.prm

>  <SCORE>
-11.7308

>  <SCORE.INTER>
-14.0274

>  <SCORE.INTER.CONST>
1

>  <SCORE.INTER.POLAR>
-1.95959

>  <SCORE.INTER.ROT>
3

>  <SCORE.INTER.SOLV>
11.4682

>  <SCORE.INTER.VDW>
-12.2423

>  <SCORE.INTER.norm>
-0.637609

>  <SCORE.INTRA>
2.29656

>  <SCORE.INTRA.DIHEDRAL>
1.41879

>  <SCORE.INTRA.DIHEDRAL.0>
1.67653

>  <SCORE.INTRA.POLAR>
0

>  <SCORE.INTRA.POLAR.0>
0

>  <SCORE.INTRA.REPUL>
0

>  <SCORE.INTRA.REPUL.0>
0

>  <SCORE.INTRA.SOLV>
3.41648

>  <SCORE.INTRA.SOLV.lig_0>
-76.6701

>  <SCORE.INTRA.VDW>
-0.121076

>  <SCORE.INTRA.VDW.0>
-1.53273

>  <SCORE.INTRA.norm>
0.104389

>  <SCORE.RESTR>
0

>  <SCORE.RESTR.CAVITY>
0

>  <SCORE.RESTR.norm>
0

>  <SCORE.SYSTEM>
0

>  <SCORE.SYSTEM.CONST>
0

>  <SCORE.SYSTEM.DIHEDRAL>
0

>  <SCORE.SYSTEM.SOLV>
0

>  <SCORE.SYSTEM.norm>
0

>  <SCORE.heavy>
22

>  <SCORE.norm>
-0.53322

>  <RMSD>
6.135

$$$$
2f4s_lig
 OpenBabel11021811433D
libRbt.so/2013.1/901 2013/11/27
 22 23  0  0  0  0  0  0  0  0999 V2000
   19.9288   10.1155   42.0941 N   0  0  0  0  0  0  0  0  0  0  0  0
   18.4526   14.2575   39.6773 N   0  0  0  0  0  0  0  0  0  0  0  0
   19.8845   12.7666   33.7064 N   0  0  0  0  0  0  0  0  0  0  0  0
   22.5887   11.8205   38.2829 O   0  0  0  0  0  0  0  0  0  0  0  0
   21.7401   12.2245   39.3963 C   0  0  2  0  0  0  0  0  0  0  0  0
   22.7772   16.4846   37.3897 N   0  0  0  0  0  0  0  0  0  0  0  0
   22.3637   10.2067   40.6616 O   0  0  0  0  0  0  0  0  0  0  0  0
   21.2542   10.9724   40.1770 C   0  0  1  0  0  0  0  0  0  0  0  0
   20.9507   14.2336   38.2348 O   0  0  0  0  0  0  0  0  0  0  0  0
   20.3871   11.3622   41.3678 C   0  0  1  0  0  0  0  0  0  0  0  0
   20.8849   13.5075   36.0408 O   0  0  0  0  0  0  0  0  0  0  0  0
   19.1529   12.1885   40.8709 C   0  0  0  0  0  0  0  0  0  0  0  0
   18.6239   16.1157   34.7875 O   0  0  0  0  0  0  0  0  0  0  0  0
   19.6782   13.4706   40.1177 C   0  0  1  0  0  0  0  0  0  0  0  0
   20.9123   17.6373   35.5347 O   0  0  0  0  0  0  0  0  0  0  0  0
   20.4980   13.0546   38.8827 C   0  0  2  0  0  0  0  0  0  0  0  0
   21.7281   14.2155   37.0508 C   0  0  1  0  0  0  0  0  0  0  0  0
   19.5769   14.1391   35.7073 C   0  0  2  0  0  0  0  0  0  0  0  0
   18.8594   13.2524   34.6850 C   0  0  0  0  0  0  0  0  0  0  0  0
   19.8491   15.5008   35.1081 C   0  0  2  0  0  0  0  0  0  0  0  0
   20.6436   16.3489   36.0998 C   0  0  1  0  0  0  0  0  0  0  0  0
   21.9772   15.6366   36.4345 C   0  0  1  0  0  0  0  0  0  0  0  0
  5  4  1  6  0  0  0
  5  8  1  0  0  0  0
  5 16  1  0  0  0  0
  8  7  1  1  0  0  0
  8 10  1  0  0  0  0
 10  1  1  6  0  0  0
 10 12  1  0  0  0  0
 11 18  1  0  0  0  0
 12 14  1  0  0  0  0
 14  2  1  6  0  0  0
 14 16  1  0  0  0  0
 16  9  1  1  0  0  0
 17  9  1  1  0  0  0
 17 11  1  0  0  0  0
 17 22  1  0  0  0  0
 18 19  1  6  0  0  0
 18 20  1  0  0  0  0
 19  3  1  0  0  0  0
 20 13  1  1  0  0  0
 20 21  1  0  0  0  0
 21 15  1  6  0  0  0
 21 22  1  0  0  0  0
 22  6  1  1  0  0  0
M  END
>  <CHROM.1>
63.77454387,59.72584408,-40.53908772,20.59102360,13.62333676,37.80355824
1.45593662,0.87920790,2.33136574

>  <Name>
2f4s_lig

>  <RI>
0

>  <Rbt.Current_Directory>
/home/itssahil/PROJECTS/Mol_Feturizer/New_Systems/rnas/2f4s

>  <Rbt.Executable>
rbdock ($Id: //depot/dev/client3/rdock/2013.1/src/exe/rbdock.cxx#4 $)

>  <Rbt.Library>
libRbt.so (2013.1, Build901 2013/11/27)

>  <Rbt.Parameter_File>
/export/apps/rDock/src/rDock_2013.1_src/data/scripts/dock_solv.prm

>  <Rbt.Receptor>
prm/pocket_docking_8.prm

>  <SCORE>
-10.5927

>  <SCORE.INTER>
-11.4983

>  <SCORE.INTER.CONST>
1

>  <SCORE.INTER.POLAR>
-1.13378

>  <SCORE.INTER.ROT>
3

>  <SCORE.INTER.SOLV>
16.9596

>  <SCORE.INTER.VDW>
-15.1395

>  <SCORE.INTER.norm>
-0.522652

>  <SCORE.INTRA>
0.905672

>  <SCORE.INTRA.DIHEDRAL>
-0.18404

>  <SCORE.INTRA.DIHEDRAL.0>
1.67653

>  <SCORE.INTRA.POLAR>
0

>  <SCORE.INTRA.POLAR.0>
0

>  <SCORE.INTRA.REPUL>
0

>  <SCORE.INTRA.REPUL.0>
0

>  <SCORE.INTRA.SOLV>
1.14962

>  <SCORE.INTRA.SOLV.lig_0>
-76.6701

>  <SCORE.INTRA.VDW>
0.422883

>  <SCORE.INTRA.VDW.0>
-1.53273

>  <SCORE.INTRA.norm>
0.0411669

>  <SCORE.RESTR>
0

>  <SCORE.RESTR.CAVITY>
0

>  <SCORE.RESTR.norm>
0

>  <SCORE.SYSTEM>
0

>  <SCORE.SYSTEM.CONST>
0

>  <SCORE.SYSTEM.DIHEDRAL>
0

>  <SCORE.SYSTEM.SOLV>
0

>  <SCORE.SYSTEM.norm>
0

>  <SCORE.heavy>
22

>  <SCORE.norm>
-0.481485

>  <RMSD>
6.156

$$$$
2f4s_lig
 OpenBabel11021811433D
libRbt.so/2013.1/901 2013/11/27
 22 23  0  0  0  0  0  0  0  0999 V2000
   21.5627   10.3773   41.2668 N   0  0  0  0  0  0  0  0  0  0  0  0
   22.5999   13.6804   37.6350 N   0  0  0  0  0  0  0  0  0  0  0  0
   14.9379   14.9035   37.1763 N   0  0  0  0  0  0  0  0  0  0  0  0
   18.3933   14.0578   40.3095 O   0  0  0  0  0  0  0  0  0  0  0  0
   19.3638   13.1566   39.7022 C   0  0  2  0  0  0  0  0  0  0  0  0
   20.4979   15.1579   34.9976 N   0  0  0  0  0  0  0  0  0  0  0  0
   18.9645   11.4741   41.4547 O   0  0  0  0  0  0  0  0  0  0  0  0
   19.9809   12.2301   40.7860 C   0  0  1  0  0  0  0  0  0  0  0  0
   19.9411   14.7577   37.9382 O   0  0  0  0  0  0  0  0  0  0  0  0
   20.9801   11.2532   40.1783 C   0  0  1  0  0  0  0  0  0  0  0  0
   17.7401   14.2742   37.4219 O   0  0  0  0  0  0  0  0  0  0  0  0
   22.1169   12.0485   39.4515 C   0  0  0  0  0  0  0  0  0  0  0  0
   16.6856   17.7250   36.7396 O   0  0  0  0  0  0  0  0  0  0  0  0
   21.4634   12.9484   38.3335 C   0  0  1  0  0  0  0  0  0  0  0  0
   18.5859   17.2751   34.6666 O   0  0  0  0  0  0  0  0  0  0  0  0
   20.5064   13.9697   38.9747 C   0  0  2  0  0  0  0  0  0  0  0  0
   19.1401   14.2153   36.9034 C   0  0  1  0  0  0  0  0  0  0  0  0
   17.2052   15.6288   37.7380 C   0  0  2  0  0  0  0  0  0  0  0  0
   15.7803   15.4712   38.2775 C   0  0  0  0  0  0  0  0  0  0  0  0
   17.1868   16.4391   36.4612 C   0  0  2  0  0  0  0  0  0  0  0  0
   18.5980   16.5159   35.8812 C   0  0  1  0  0  0  0  0  0  0  0  0
   19.1174   15.0848   35.5978 C   0  0  1  0  0  0  0  0  0  0  0  0
  5  4  1  1  0  0  0
  5  8  1  0  0  0  0
  5 16  1  0  0  0  0
  8  7  1  6  0  0  0
  8 10  1  0  0  0  0
 10  1  1  1  0  0  0
 10 12  1  0  0  0  0
 11 18  1  0  0  0  0
 12 14  1  0  0  0  0
 14  2  1  1  0  0  0
 14 16  1  0  0  0  0
 16  9  1  6  0  0  0
 17  9  1  1  0  0  0
 17 11  1  0  0  0  0
 17 22  1  0  0  0  0
 18 19  1  6  0  0  0
 18 20  1  0  0  0  0
 19  3  1  0  0  0  0
 20 13  1  1  0  0  0
 20 21  1  0  0  0  0
 21 15  1  6  0  0  0
 21 22  1  0  0  0  0
 22  6  1  1  0  0  0
M  END
>  <CHROM.1>
-55.07643221,89.92466057,-64.16994812,19.11616046,14.24079629,38.08715261
1.02783939,-0.31179477,2.22616897

>  <Name>
2f4s_lig

>  <RI>
2.00194e+07

>  <Rbt.Current_Directory>
/home/itssahil/PROJECTS/Mol_Feturizer/New_Systems/rnas/2f4s

>  <Rbt.Executable>
rbdock ($Id: //depot/dev/client3/rdock/2013.1/src/exe/rbdock.cxx#4 $)

>  <Rbt.Library>
libRbt.so (2013.1, Build901 2013/11/27)

>  <Rbt.Parameter_File>
/export/apps/rDock/src/rDock_2013.1_src/data/scripts/dock_solv.prm

>  <Rbt.Receptor>
prm/pocket_docking_6.prm

>  <SCORE>
-5.70949

>  <SCORE.INTER>
-8.75684

>  <SCORE.INTER.CONST>
1

>  <SCORE.INTER.POLAR>
0

>  <SCORE.INTER.ROT>
3

>  <SCORE.INTER.SOLV>
17.2422

>  <SCORE.INTER.VDW>
-17.1853

>  <SCORE.INTER.norm>
-0.398038

>  <SCORE.INTRA>
3.04736

>  <SCORE.INTRA.DIHEDRAL>
2.12996

>  <SCORE.INTRA.DIHEDRAL.0>
1.67653

>  <SCORE.INTRA.POLAR>
0

>  <SCORE.INTRA.POLAR.0>
0

>  <SCORE.INTRA.REPUL>
0

>  <SCORE.INTRA.REPUL.0>
0

>  <SCORE.INTRA.SOLV>
3.44643

>  <SCORE.INTRA.SOLV.lig_0>
-76.6701

>  <SCORE.INTRA.VDW>
0.25916

>  <SCORE.INTRA.VDW.0>
-1.53273

>  <SCORE.INTRA.norm>
0.138516

>  <SCORE.RESTR>
0

>  <SCORE.RESTR.CAVITY>
0

>  <SCORE.RESTR.norm>
0

>  <SCORE.SYSTEM>
0

>  <SCORE.SYSTEM.CONST>
0

>  <SCORE.SYSTEM.DIHEDRAL>
0

>  <SCORE.SYSTEM.SOLV>
0

>  <SCORE.SYSTEM.norm>
0

>  <SCORE.heavy>
22

>  <SCORE.norm>
-0.259522

>  <RMSD>
6.166

$$$$
2f4s_lig
 OpenBabel11021811433D
libRbt.so/2013.1/901 2013/11/27
 22 23  0  0  0  0  0  0  0  0999 V2000
   21.2865   11.0924   42.6659 N   0  0  0  0  0  0  0  0  0  0  0  0
   23.1918   12.1695   38.1508 N   0  0  0  0  0  0  0  0  0  0  0  0
   22.5647   17.4317   37.9291 N   0  0  0  0  0  0  0  0  0  0  0  0
   18.4222   13.2095   39.2277 O   0  0  0  0  0  0  0  0  0  0  0  0
   19.5335   12.2881   39.4248 C   0  0  2  0  0  0  0  0  0  0  0  0
   19.6248   12.6748   34.3723 N   0  0  0  0  0  0  0  0  0  0  0  0
   18.7131   11.7095   41.6728 O   0  0  0  0  0  0  0  0  0  0  0  0
   19.8575   12.1609   40.9389 C   0  0  1  0  0  0  0  0  0  0  0  0
   20.5299   12.8200   37.2492 O   0  0  0  0  0  0  0  0  0  0  0  0
   20.9978   11.1800   41.1824 C   0  0  1  0  0  0  0  0  0  0  0  0
   19.7764   15.0038   37.3415 O   0  0  0  0  0  0  0  0  0  0  0  0
   22.2730   11.6534   40.4059 C   0  0  0  0  0  0  0  0  0  0  0  0
   22.5317   16.4955   35.4260 O   0  0  0  0  0  0  0  0  0  0  0  0
   21.9234   11.7350   38.8703 C   0  0  1  0  0  0  0  0  0  0  0  0
   21.3001   14.8275   33.4738 O   0  0  0  0  0  0  0  0  0  0  0  0
   20.8140   12.7771   38.6393 C   0  0  2  0  0  0  0  0  0  0  0  0
   19.5557   13.6799   36.6851 C   0  0  1  0  0  0  0  0  0  0  0  0
   21.1086   15.6369   37.1287 C   0  0  2  0  0  0  0  0  0  0  0  0
   21.1431   16.9598   37.9001 C   0  0  0  0  0  0  0  0  0  0  0  0
   21.2763   15.8983   35.6485 C   0  0  2  0  0  0  0  0  0  0  0  0
   21.1509   14.5854   34.8776 C   0  0  1  0  0  0  0  0  0  0  0  0
   19.7637   13.9554   35.1547 C   0  0  1  0  0  0  0  0  0  0  0  0
  5  4  1  1  0  0  0
  5  8  1  0  0  0  0
  5 16  1  0  0  0  0
  8  7  1  1  0  0  0
  8 10  1  0  0  0  0
 10  1  1  1  0  0  0
 10 12  1  0  0  0  0
 11 18  1  0  0  0  0
 12 14  1  0  0  0  0
 14  2  1  6  0  0  0
 14 16  1  0  0  0  0
 16  9  1  6  0  0  0
 17  9  1  1  0  0  0
 17 11  1  0  0  0  0
 17 22  1  0  0  0  0
 18 19  1  1  0  0  0
 18 20  1  0  0  0  0
 19  3  1  0  0  0  0
 20 13  1  1  0  0  0
 20 21  1  0  0  0  0
 21 15  1  6  0  0  0
 21 22  1  0  0  0  0
 22  6  1  6  0  0  0
M  END
>  <CHROM.1>
63.37236168,44.61189518,167.74285430,20.77208363,13.65622017,37.90779314
-1.76045167,-0.95490056,-1.13928244

>  <Name>
2f4s_lig

>  <RI>
0

>  <Rbt.Current_Directory>
/home/itssahil/PROJECTS/Mol_Feturizer/New_Systems/rnas/2f4s

>  <Rbt.Executable>
rbdock ($Id: //depot/dev/client3/rdock/2013.1/src/exe/rbdock.cxx#4 $)

>  <Rbt.Library>
libRbt.so (2013.1, Build901 2013/11/27)

>  <Rbt.Parameter_File>
/export/apps/rDock/src/rDock_2013.1_src/data/scripts/dock_solv.prm

>  <Rbt.Receptor>
prm/pocket_docking_5.prm

>  <SCORE>
-10.7376

>  <SCORE.INTER>
-11.8388

>  <SCORE.INTER.CONST>
1

>  <SCORE.INTER.POLAR>
-1.48714

>  <SCORE.INTER.ROT>
3

>  <SCORE.INTER.SOLV>
19.1416

>  <SCORE.INTER.VDW>
-14.9159

>  <SCORE.INTER.norm>
-0.538126

>  <SCORE.INTRA>
1.10115

>  <SCORE.INTRA.DIHEDRAL>
0.126225

>  <SCORE.INTRA.DIHEDRAL.0>
1.67653

>  <SCORE.INTRA.POLAR>
0

>  <SCORE.INTRA.POLAR.0>
0

>  <SCORE.INTRA.REPUL>
0

>  <SCORE.INTRA.REPUL.0>
0

>  <SCORE.INTRA.SOLV>
0.891856

>  <SCORE.INTRA.SOLV.lig_0>
-76.6701

>  <SCORE.INTRA.VDW>
0.592111

>  <SCORE.INTRA.VDW.0>
-1.53273

>  <SCORE.INTRA.norm>
0.0500524

>  <SCORE.RESTR>
0

>  <SCORE.RESTR.CAVITY>
0

>  <SCORE.RESTR.norm>
0

>  <SCORE.SYSTEM>
0

>  <SCORE.SYSTEM.CONST>
0

>  <SCORE.SYSTEM.DIHEDRAL>
0

>  <SCORE.SYSTEM.SOLV>
0

>  <SCORE.SYSTEM.norm>
0

>  <SCORE.heavy>
22

>  <SCORE.norm>
-0.488074

>  <RMSD>
6.185

$$$$
2f4s_lig
 OpenBabel11021811433D
libRbt.so/2013.1/901 2013/11/27
 22 23  0  0  0  0  0  0  0  0999 V2000
   20.1125    9.8697   42.0692 N   0  0  0  0  0  0  0  0  0  0  0  0
   18.3984   14.2253   40.2618 N   0  0  0  0  0  0  0  0  0  0  0  0
   17.7117   13.5062   34.3294 N   0  0  0  0  0  0  0  0  0  0  0  0
   22.1971   11.8530   38.0408 O   0  0  0  0  0  0  0  0  0  0  0  0
   21.5432   12.1735   39.3028 C   0  0  2  0  0  0  0  0  0  0  0  0
   22.3094   16.7239   37.8222 N   0  0  0  0  0  0  0  0  0  0  0  0
   22.2975   10.0455   40.2849 O   0  0  0  0  0  0  0  0  0  0  0  0
   21.1487   10.8668   40.0447 C   0  0  1  0  0  0  0  0  0  0  0  0
   20.6409   14.2863   38.4482 O   0  0  0  0  0  0  0  0  0  0  0  0
   20.4881   11.1667   41.3848 C   0  0  1  0  0  0  0  0  0  0  0  0
   20.9222   13.5743   36.2667 O   0  0  0  0  0  0  0  0  0  0  0  0
   19.2159   12.0513   41.1571 C   0  0  0  0  0  0  0  0  0  0  0  0
   18.5695   15.9391   34.7311 O   0  0  0  0  0  0  0  0  0  0  0  0
   19.6545   13.3848   40.4385 C   0  0  1  0  0  0  0  0  0  0  0  0
   20.5753   17.6878   35.7458 O   0  0  0  0  0  0  0  0  0  0  0  0
   20.2607   13.0634   39.0603 C   0  0  2  0  0  0  0  0  0  0  0  0
   21.5555   14.3595   37.3689 C   0  0  1  0  0  0  0  0  0  0  0  0
   19.6058   14.0671   35.7716 C   0  0  2  0  0  0  0  0  0  0  0  0
   19.1170   13.1175   34.6735 C   0  0  0  0  0  0  0  0  0  0  0  0
   19.8041   15.4545   35.2032 C   0  0  2  0  0  0  0  0  0  0  0  0
   20.3768   16.3739   36.2805 C   0  0  1  0  0  0  0  0  0  0  0  0
   21.7269   15.8036   36.7804 C   0  0  1  0  0  0  0  0  0  0  0  0
  5  4  1  6  0  0  0
  5  8  1  0  0  0  0
  5 16  1  0  0  0  0
  8  7  1  1  0  0  0
  8 10  1  0  0  0  0
 10  1  1  6  0  0  0
 10 12  1  0  0  0  0
 11 18  1  0  0  0  0
 12 14  1  0  0  0  0
 14  2  1  6  0  0  0
 14 16  1  0  0  0  0
 16  9  1  1  0  0  0
 17  9  1  1  0  0  0
 17 11  1  0  0  0  0
 17 22  1  0  0  0  0
 18 19  1  6  0  0  0
 18 20  1  0  0  0  0
 19  3  1  0  0  0  0
 20 13  1  1  0  0  0
 20 21  1  0  0  0  0
 21 15  1  6  0  0  0
 21 22  1  0  0  0  0
 22  6  1  1  0  0  0
M  END
>  <CHROM.1>
44.78318415,61.09562884,171.81834072,20.38528981,13.62685043,37.94189645
1.37636412,0.91116961,2.43249009

>  <Name>
2f4s_lig

>  <RI>
0

>  <Rbt.Current_Directory>
/home/itssahil/PROJECTS/Mol_Feturizer/New_Systems/rnas/2f4s

>  <Rbt.Executable>
rbdock ($Id: //depot/dev/client3/rdock/2013.1/src/exe/rbdock.cxx#4 $)

>  <Rbt.Library>
libRbt.so (2013.1, Build901 2013/11/27)

>  <Rbt.Parameter_File>
/export/apps/rDock/src/rDock_2013.1_src/data/scripts/dock_solv.prm

>  <Rbt.Receptor>
prm/pocket_docking_5.prm

>  <SCORE>
-8.14163

>  <SCORE.INTER>
-9.94806

>  <SCORE.INTER.CONST>
1

>  <SCORE.INTER.POLAR>
-0.965277

>  <SCORE.INTER.ROT>
3

>  <SCORE.INTER.SOLV>
17.2644

>  <SCORE.INTER.VDW>
-14.7692

>  <SCORE.INTER.norm>
-0.452185

>  <SCORE.INTRA>
1.80643

>  <SCORE.INTRA.DIHEDRAL>
-0.203889

>  <SCORE.INTRA.DIHEDRAL.0>
1.67653

>  <SCORE.INTRA.POLAR>
0

>  <SCORE.INTRA.POLAR.0>
0

>  <SCORE.INTRA.REPUL>
0

>  <SCORE.INTRA.REPUL.0>
0

>  <SCORE.INTRA.SOLV>
0.689581

>  <SCORE.INTRA.SOLV.lig_0>
-76.6701

>  <SCORE.INTRA.VDW>
1.56358

>  <SCORE.INTRA.VDW.0>
-1.53273

>  <SCORE.INTRA.norm>
0.0821105

>  <SCORE.RESTR>
0

>  <SCORE.RESTR.CAVITY>
0

>  <SCORE.RESTR.norm>
0

>  <SCORE.SYSTEM>
0

>  <SCORE.SYSTEM.CONST>
0

>  <SCORE.SYSTEM.DIHEDRAL>
0

>  <SCORE.SYSTEM.SOLV>
0

>  <SCORE.SYSTEM.norm>
0

>  <SCORE.heavy>
22

>  <SCORE.norm>
-0.370074

>  <RMSD>
6.186

$$$$
2f4s_lig
 OpenBabel11021811433D
libRbt.so/2013.1/901 2013/11/27
 22 23  0  0  0  0  0  0  0  0999 V2000
   21.5849   10.5751   41.4042 N   0  0  0  0  0  0  0  0  0  0  0  0
   22.5579   13.6182   37.5352 N   0  0  0  0  0  0  0  0  0  0  0  0
   15.3401   16.7628   38.7803 N   0  0  0  0  0  0  0  0  0  0  0  0
   18.3331   14.0959   40.1645 O   0  0  0  0  0  0  0  0  0  0  0  0
   19.3270   13.1748   39.6292 C   0  0  2  0  0  0  0  0  0  0  0  0
   20.2237   14.8320   34.7568 N   0  0  0  0  0  0  0  0  0  0  0  0
   18.9607   11.6205   41.5031 O   0  0  0  0  0  0  0  0  0  0  0  0
   19.9616   12.3479   40.7812 C   0  0  1  0  0  0  0  0  0  0  0  0
   19.8731   14.6515   37.7504 O   0  0  0  0  0  0  0  0  0  0  0  0
   20.9859   11.3521   40.2513 C   0  0  1  0  0  0  0  0  0  0  0  0
   17.6434   14.1343   37.4249 O   0  0  0  0  0  0  0  0  0  0  0  0
   22.1065   12.1171   39.4689 C   0  0  0  0  0  0  0  0  0  0  0  0
   16.5317   17.5266   36.5637 O   0  0  0  0  0  0  0  0  0  0  0  0
   21.4362   12.9142   38.2846 C   0  0  1  0  0  0  0  0  0  0  0  0
   18.2857   16.9216   34.4032 O   0  0  0  0  0  0  0  0  0  0  0  0
   20.4528   13.9578   38.8447 C   0  0  2  0  0  0  0  0  0  0  0  0
   19.0045   14.0351   36.8165 C   0  0  1  0  0  0  0  0  0  0  0  0
   17.1267   15.5093   37.6762 C   0  0  2  0  0  0  0  0  0  0  0  0
   15.7431   15.3942   38.3232 C   0  0  0  0  0  0  0  0  0  0  0  0
   17.0171   16.2229   36.3473 C   0  0  2  0  0  0  0  0  0  0  0  0
   18.3845   16.2545   35.6668 C   0  0  1  0  0  0  0  0  0  0  0  0
   18.8883   14.8056   35.4549 C   0  0  1  0  0  0  0  0  0  0  0  0
  5  4  1  1  0  0  0
  5  8  1  0  0  0  0
  5 16  1  0  0  0  0
  8  7  1  6  0  0  0
  8 10  1  0  0  0  0
 10  1  1  1  0  0  0
 10 12  1  0  0  0  0
 11 18  1  0  0  0  0
 12 14  1  0  0  0  0
 14  2  1  1  0  0  0
 14 16  1  0  0  0  0
 16  9  1  6  0  0  0
 17  9  1  1  0  0  0
 17 11  1  0  0  0  0
 17 22  1  0  0  0  0
 18 19  1  6  0  0  0
 18 20  1  0  0  0  0
 19  3  1  0  0  0  0
 20 13  1  1  0  0  0
 20 21  1  0  0  0  0
 21 15  1  6  0  0  0
 21 22  1  0  0  0  0
 22  6  1  1  0  0  0
M  END
>  <CHROM.1>
-49.99063229,86.30264953,170.53934073,19.04350537,14.24771839,38.08235129
0.95898622,-0.45869014,2.10402754

>  <Name>
2f4s_lig

>  <RI>
2.26097e+07

>  <Rbt.Current_Directory>
/home/itssahil/PROJECTS/Mol_Feturizer/New_Systems/rnas/2f4s

>  <Rbt.Executable>
rbdock ($Id: //depot/dev/client3/rdock/2013.1/src/exe/rbdock.cxx#4 $)

>  <Rbt.Library>
libRbt.so (2013.1, Build901 2013/11/27)

>  <Rbt.Parameter_File>
/export/apps/rDock/src/rDock_2013.1_src/data/scripts/dock_solv.prm

>  <Rbt.Receptor>
prm/pocket_docking_7.prm

>  <SCORE>
-6.3682

>  <SCORE.INTER>
-9.14358

>  <SCORE.INTER.CONST>
1

>  <SCORE.INTER.POLAR>
0

>  <SCORE.INTER.ROT>
3

>  <SCORE.INTER.SOLV>
17.5356

>  <SCORE.INTER.VDW>
-17.5409

>  <SCORE.INTER.norm>
-0.415617

>  <SCORE.INTRA>
2.77538

>  <SCORE.INTRA.DIHEDRAL>
2.08535

>  <SCORE.INTRA.DIHEDRAL.0>
1.67653

>  <SCORE.INTRA.POLAR>
0

>  <SCORE.INTRA.POLAR.0>
0

>  <SCORE.INTRA.REPUL>
0

>  <SCORE.INTRA.REPUL.0>
0

>  <SCORE.INTRA.SOLV>
2.59215

>  <SCORE.INTRA.SOLV.lig_0>
-76.6701

>  <SCORE.INTRA.VDW>
0.436633

>  <SCORE.INTRA.VDW.0>
-1.53273

>  <SCORE.INTRA.norm>
0.126154

>  <SCORE.RESTR>
0

>  <SCORE.RESTR.CAVITY>
0

>  <SCORE.RESTR.norm>
0

>  <SCORE.SYSTEM>
0

>  <SCORE.SYSTEM.CONST>
0

>  <SCORE.SYSTEM.DIHEDRAL>
0

>  <SCORE.SYSTEM.SOLV>
0

>  <SCORE.SYSTEM.norm>
0

>  <SCORE.heavy>
22

>  <SCORE.norm>
-0.289464

>  <RMSD>
6.193

$$$$
2f4s_lig
 OpenBabel11021811433D
libRbt.so/2013.1/901 2013/11/27
 22 23  0  0  0  0  0  0  0  0999 V2000
   26.0405   15.7626   27.9729 N   0  0  0  0  0  0  0  0  0  0  0  0
   21.3833   16.5605   29.6609 N   0  0  0  0  0  0  0  0  0  0  0  0
   18.9495   15.6831   36.0013 N   0  0  0  0  0  0  0  0  0  0  0  0
   25.2097   16.0851   32.8425 O   0  0  0  0  0  0  0  0  0  0  0  0
   24.6272   15.6548   31.5782 C   0  0  2  0  0  0  0  0  0  0  0  0
   23.2290   18.8132   33.2565 N   0  0  0  0  0  0  0  0  0  0  0  0
   26.8651   15.2625   30.6298 O   0  0  0  0  0  0  0  0  0  0  0  0
   25.6176   15.9326   30.4139 C   0  0  1  0  0  0  0  0  0  0  0  0
   22.3363   16.0780   32.3406 O   0  0  0  0  0  0  0  0  0  0  0  0
   25.0502   15.4661   29.0788 C   0  0  1  0  0  0  0  0  0  0  0  0
   20.5102   16.2387   33.7492 O   0  0  0  0  0  0  0  0  0  0  0  0
   23.6908   16.1933   28.8028 C   0  0  0  0  0  0  0  0  0  0  0  0
   22.3229   15.6216   36.8827 O   0  0  0  0  0  0  0  0  0  0  0  0
   22.6961   15.8607   29.9804 C   0  0  1  0  0  0  0  0  0  0  0  0
   23.4631   18.0863   36.0249 O   0  0  0  0  0  0  0  0  0  0  0  0
   23.2585   16.3965   31.3096 C   0  0  2  0  0  0  0  0  0  0  0  0
   21.4711   17.0342   32.9269 C   0  0  1  0  0  0  0  0  0  0  0  0
   21.0946   15.4274   34.8543 C   0  0  2  0  0  0  0  0  0  0  0  0
   19.9588   14.6717   35.5510 C   0  0  0  0  0  0  0  0  0  0  0  0
   21.7619   16.3701   35.8305 C   0  0  2  0  0  0  0  0  0  0  0  0
   22.8330   17.1848   35.1074 C   0  0  1  0  0  0  0  0  0  0  0  0
   22.1803   17.9852   33.9535 C   0  0  1  0  0  0  0  0  0  0  0  0
  5  4  1  1  0  0  0
  5  8  1  0  0  0  0
  5 16  1  0  0  0  0
  8  7  1  1  0  0  0
  8 10  1  0  0  0  0
 10  1  1  6  0  0  0
 10 12  1  0  0  0  0
 11 18  1  0  0  0  0
 12 14  1  0  0  0  0
 14  2  1  6  0  0  0
 14 16  1  0  0  0  0
 16  9  1  1  0  0  0
 17  9  1  1  0  0  0
 17 11  1  0  0  0  0
 17 22  1  0  0  0  0
 18 19  1  1  0  0  0
 18 20  1  0  0  0  0
 19  3  1  0  0  0  0
 20 13  1  1  0  0  0
 20 21  1  0  0  0  0
 21 15  1  1  0  0  0
 21 22  1  0  0  0  0
 22  6  1  6  0  0  0
M  END
>  <CHROM.1>
138.71051232,169.21709130,-56.10172528,22.94989512,16.28572945,32.71705017
0.99478918,-0.11663331,-1.71275701

>  <Name>
2f4s_lig

>  <RI>
0

>  <Rbt.Current_Directory>
/home/itssahil/PROJECTS/Mol_Feturizer/New_Systems/rnas/2f4s

>  <Rbt.Executable>
rbdock ($Id: //depot/dev/client3/rdock/2013.1/src/exe/rbdock.cxx#4 $)

>  <Rbt.Library>
libRbt.so (2013.1, Build901 2013/11/27)

>  <Rbt.Parameter_File>
/export/apps/rDock/src/rDock_2013.1_src/data/scripts/dock_solv.prm

>  <Rbt.Receptor>
prm/pocket_docking_8.prm

>  <SCORE>
-9.67198

>  <SCORE.INTER>
-13.4182

>  <SCORE.INTER.CONST>
1

>  <SCORE.INTER.POLAR>
-1.57127

>  <SCORE.INTER.ROT>
3

>  <SCORE.INTER.SOLV>
16.3252

>  <SCORE.INTER.VDW>
-14.7497

>  <SCORE.INTER.norm>
-0.609919

>  <SCORE.INTRA>
3.74623

>  <SCORE.INTRA.DIHEDRAL>
4.63595

>  <SCORE.INTRA.DIHEDRAL.0>
1.67653

>  <SCORE.INTRA.POLAR>
0

>  <SCORE.INTRA.POLAR.0>
0

>  <SCORE.INTRA.REPUL>
0

>  <SCORE.INTRA.REPUL.0>
0

>  <SCORE.INTRA.SOLV>
3.60524

>  <SCORE.INTRA.SOLV.lig_0>
-76.6701

>  <SCORE.INTRA.VDW>
-0.37436

>  <SCORE.INTRA.VDW.0>
-1.53273

>  <SCORE.INTRA.norm>
0.170283

>  <SCORE.RESTR>
0

>  <SCORE.RESTR.CAVITY>
0

>  <SCORE.RESTR.norm>
0

>  <SCORE.SYSTEM>
0

>  <SCORE.SYSTEM.CONST>
0

>  <SCORE.SYSTEM.DIHEDRAL>
0

>  <SCORE.SYSTEM.SOLV>
0

>  <SCORE.SYSTEM.norm>
0

>  <SCORE.heavy>
22

>  <SCORE.norm>
-0.439635

>  <RMSD>
6.206

$$$$
2f4s_lig
 OpenBabel11021811433D
libRbt.so/2013.1/901 2013/11/27
 22 23  0  0  0  0  0  0  0  0999 V2000
   19.0043   11.8766   41.5645 N   0  0  0  0  0  0  0  0  0  0  0  0
   18.3545   15.5183   38.1745 N   0  0  0  0  0  0  0  0  0  0  0  0
   19.7808   12.1803   33.0688 N   0  0  0  0  0  0  0  0  0  0  0  0
   22.0639   12.2028   37.6864 O   0  0  0  0  0  0  0  0  0  0  0  0
   21.2541   12.9843   38.6117 C   0  0  2  0  0  0  0  0  0  0  0  0
   23.0073   16.4858   35.7190 N   0  0  0  0  0  0  0  0  0  0  0  0
   21.4731   11.2458   40.3412 O   0  0  0  0  0  0  0  0  0  0  0  0
   20.5309   12.0419   39.6129 C   0  0  1  0  0  0  0  0  0  0  0  0
   20.8661   14.7648   36.9722 O   0  0  0  0  0  0  0  0  0  0  0  0
   19.6973   12.8308   40.6153 C   0  0  1  0  0  0  0  0  0  0  0  0
   20.7874   13.5085   35.0330 O   0  0  0  0  0  0  0  0  0  0  0  0
   18.6431   13.7018   39.8518 C   0  0  0  0  0  0  0  0  0  0  0  0
   18.9438   15.9533   33.0059 O   0  0  0  0  0  0  0  0  0  0  0  0
   19.4091   14.6732   38.8737 C   0  0  1  0  0  0  0  0  0  0  0  0
   21.3847   17.3326   33.5059 O   0  0  0  0  0  0  0  0  0  0  0  0
   20.1933   13.8564   37.8306 C   0  0  2  0  0  0  0  0  0  0  0  0
   21.6786   14.3482   35.8891 C   0  0  1  0  0  0  0  0  0  0  0  0
   19.5890   14.1834   34.4592 C   0  0  2  0  0  0  0  0  0  0  0  0
   18.7990   13.1542   33.6450 C   0  0  0  0  0  0  0  0  0  0  0  0
   20.0629   15.3010   33.5571 C   0  0  2  0  0  0  0  0  0  0  0  0
   20.9252   16.2760   34.3569 C   0  0  1  0  0  0  0  0  0  0  0  0
   22.1383   15.5210   34.9540 C   0  0  1  0  0  0  0  0  0  0  0  0
  5  4  1  6  0  0  0
  5  8  1  0  0  0  0
  5 16  1  0  0  0  0
  8  7  1  1  0  0  0
  8 10  1  0  0  0  0
 10  1  1  1  0  0  0
 10 12  1  0  0  0  0
 11 18  1  0  0  0  0
 12 14  1  0  0  0  0
 14  2  1  6  0  0  0
 14 16  1  0  0  0  0
 16  9  1  6  0  0  0
 17  9  1  1  0  0  0
 17 11  1  0  0  0  0
 17 22  1  0  0  0  0
 18 19  1  6  0  0  0
 18 20  1  0  0  0  0
 19  3  1  0  0  0  0
 20 13  1  1  0  0  0
 20 21  1  0  0  0  0
 21 15  1  6  0  0  0
 21 22  1  0  0  0  0
 22  6  1  1  0  0  0
M  END
>  <CHROM.1>
63.54200360,57.16214241,-31.77183835,20.40547859,14.08760026,36.66770652
1.68160088,0.98026670,1.91132117

>  <Name>
2f4s_lig

>  <RI>
0

>  <Rbt.Current_Directory>
/home/itssahil/PROJECTS/Mol_Feturizer/New_Systems/rnas/2f4s

>  <Rbt.Executable>
rbdock ($Id: //depot/dev/client3/rdock/2013.1/src/exe/rbdock.cxx#4 $)

>  <Rbt.Library>
libRbt.so (2013.1, Build901 2013/11/27)

>  <Rbt.Parameter_File>
/export/apps/rDock/src/rDock_2013.1_src/data/scripts/dock_solv.prm

>  <Rbt.Receptor>
prm/pocket_docking_8.prm

>  <SCORE>
-10.1974

>  <SCORE.INTER>
-11.7269

>  <SCORE.INTER.CONST>
1

>  <SCORE.INTER.POLAR>
-1.02673

>  <SCORE.INTER.ROT>
3

>  <SCORE.INTER.SOLV>
15.6921

>  <SCORE.INTER.VDW>
-15.2262

>  <SCORE.INTER.norm>
-0.53304

>  <SCORE.INTRA>
1.52947

>  <SCORE.INTRA.DIHEDRAL>
0.982916

>  <SCORE.INTRA.DIHEDRAL.0>
1.67653

>  <SCORE.INTRA.POLAR>
0

>  <SCORE.INTRA.POLAR.0>
0

>  <SCORE.INTRA.REPUL>
0

>  <SCORE.INTRA.REPUL.0>
0

>  <SCORE.INTRA.SOLV>
1.00762

>  <SCORE.INTRA.SOLV.lig_0>
-76.6701

>  <SCORE.INTRA.VDW>
0.534202

>  <SCORE.INTRA.VDW.0>
-1.53273

>  <SCORE.INTRA.norm>
0.0695213

>  <SCORE.RESTR>
0

>  <SCORE.RESTR.CAVITY>
0

>  <SCORE.RESTR.norm>
0

>  <SCORE.SYSTEM>
0

>  <SCORE.SYSTEM.CONST>
0

>  <SCORE.SYSTEM.DIHEDRAL>
0

>  <SCORE.SYSTEM.SOLV>
0

>  <SCORE.SYSTEM.norm>
0

>  <SCORE.heavy>
22

>  <SCORE.norm>
-0.463519

>  <RMSD>
6.211

$$$$
2f4s_lig
 OpenBabel11021811433D
libRbt.so/2013.1/901 2013/11/27
 22 23  0  0  0  0  0  0  0  0999 V2000
   20.0807   10.3307   42.4717 N   0  0  0  0  0  0  0  0  0  0  0  0
   18.4186   14.3747   40.0101 N   0  0  0  0  0  0  0  0  0  0  0  0
   18.6827   13.0091   33.6217 N   0  0  0  0  0  0  0  0  0  0  0  0
   22.0907   11.5595   38.1177 O   0  0  0  0  0  0  0  0  0  0  0  0
   21.4829   12.1030   39.3252 C   0  0  2  0  0  0  0  0  0  0  0  0
   22.5813   16.0340   36.9877 N   0  0  0  0  0  0  0  0  0  0  0  0
   22.2148   10.1460   40.6276 O   0  0  0  0  0  0  0  0  0  0  0  0
   21.0794   10.9489   40.2838 C   0  0  1  0  0  0  0  0  0  0  0  0
   20.6066   14.0704   38.1548 O   0  0  0  0  0  0  0  0  0  0  0  0
   20.4667   11.4852   41.5719 C   0  0  1  0  0  0  0  0  0  0  0  0
   20.1823   13.2811   36.0237 O   0  0  0  0  0  0  0  0  0  0  0  0
   19.2099   12.3562   41.2330 C   0  0  0  0  0  0  0  0  0  0  0  0
   18.1267   16.1140   34.9124 O   0  0  0  0  0  0  0  0  0  0  0  0
   19.6588   13.5393   40.2918 C   0  0  1  0  0  0  0  0  0  0  0  0
   20.6608   17.3518   35.3076 O   0  0  0  0  0  0  0  0  0  0  0  0
   20.2155   12.9771   38.9712 C   0  0  2  0  0  0  0  0  0  0  0  0
   21.2245   13.9094   36.8904 C   0  0  1  0  0  0  0  0  0  0  0  0
   18.9321   14.0647   35.8139 C   0  0  2  0  0  0  0  0  0  0  0  0
   17.9898   13.2425   34.9293 C   0  0  0  0  0  0  0  0  0  0  0  0
   19.2959   15.3573   35.1182 C   0  0  2  0  0  0  0  0  0  0  0  0
   20.3053   16.1301   35.9653 C   0  0  1  0  0  0  0  0  0  0  0  0
   21.5710   15.2633   36.1774 C   0  0  1  0  0  0  0  0  0  0  0  0
  5  4  1  6  0  0  0
  5  8  1  0  0  0  0
  5 16  1  0  0  0  0
  8  7  1  1  0  0  0
  8 10  1  0  0  0  0
 10  1  1  1  0  0  0
 10 12  1  0  0  0  0
 11 18  1  0  0  0  0
 12 14  1  0  0  0  0
 14  2  1  6  0  0  0
 14 16  1  0  0  0  0
 16  9  1  6  0  0  0
 17  9  1  1  0  0  0
 17 11  1  0  0  0  0
 17 22  1  0  0  0  0
 18 19  1  6  0  0  0
 18 20  1  0  0  0  0
 19  3  1  0  0  0  0
 20 13  1  1  0  0  0
 20 21  1  0  0  0  0
 21 15  1  6  0  0  0
 21 22  1  0  0  0  0
 22  6  1  1  0  0  0
M  END
>  <CHROM.1>
59.97241631,66.28619541,-60.70060182,20.24047376,13.53647327,37.82334845
1.39299205,0.55126040,2.27754423

>  <Name>
2f4s_lig

>  <RI>
0

>  <Rbt.Current_Directory>
/home/itssahil/PROJECTS/Mol_Feturizer/New_Systems/rnas/2f4s

>  <Rbt.Executable>
rbdock ($Id: //depot/dev/client3/rdock/2013.1/src/exe/rbdock.cxx#4 $)

>  <Rbt.Library>
libRbt.so (2013.1, Build901 2013/11/27)

>  <Rbt.Parameter_File>
/export/apps/rDock/src/rDock_2013.1_src/data/scripts/dock_solv.prm

>  <Rbt.Receptor>
prm/pocket_docking_5.prm

>  <SCORE>
-8.17594

>  <SCORE.INTER>
-8.82981

>  <SCORE.INTER.CONST>
1

>  <SCORE.INTER.POLAR>
-0.672435

>  <SCORE.INTER.ROT>
3

>  <SCORE.INTER.SOLV>
14.9138

>  <SCORE.INTER.VDW>
-14.2164

>  <SCORE.INTER.norm>
-0.401355

>  <SCORE.INTRA>
0.653867

>  <SCORE.INTRA.DIHEDRAL>
-1.32753

>  <SCORE.INTRA.DIHEDRAL.0>
1.67653

>  <SCORE.INTRA.POLAR>
0

>  <SCORE.INTRA.POLAR.0>
0

>  <SCORE.INTRA.REPUL>
0

>  <SCORE.INTRA.REPUL.0>
0

>  <SCORE.INTRA.SOLV>
1.35008

>  <SCORE.INTRA.SOLV.lig_0>
-76.6701

>  <SCORE.INTRA.VDW>
0.642595

>  <SCORE.INTRA.VDW.0>
-1.53273

>  <SCORE.INTRA.norm>
0.0297212

>  <SCORE.RESTR>
0

>  <SCORE.RESTR.CAVITY>
0

>  <SCORE.RESTR.norm>
0

>  <SCORE.SYSTEM>
0

>  <SCORE.SYSTEM.CONST>
0

>  <SCORE.SYSTEM.DIHEDRAL>
0

>  <SCORE.SYSTEM.SOLV>
0

>  <SCORE.SYSTEM.norm>
0

>  <SCORE.heavy>
22

>  <SCORE.norm>
-0.371634

>  <RMSD>
6.222

$$$$
2f4s_lig
 OpenBabel11021811433D
libRbt.so/2013.1/901 2013/11/27
 22 23  0  0  0  0  0  0  0  0999 V2000
   19.6043   11.7613   41.0863 N   0  0  0  0  0  0  0  0  0  0  0  0
   18.0621   14.8085   37.4105 N   0  0  0  0  0  0  0  0  0  0  0  0
   19.6427   12.0326   33.2869 N   0  0  0  0  0  0  0  0  0  0  0  0
   22.6825   12.9003   37.3803 O   0  0  0  0  0  0  0  0  0  0  0  0
   21.5900   13.4110   38.1980 C   0  0  2  0  0  0  0  0  0  0  0  0
   22.7231   17.1064   35.8377 N   0  0  0  0  0  0  0  0  0  0  0  0
   22.2316   11.9313   40.0582 O   0  0  0  0  0  0  0  0  0  0  0  0
   21.1406   12.3312   39.2205 C   0  0  1  0  0  0  0  0  0  0  0  0
   20.7685   14.8783   36.4145 O   0  0  0  0  0  0  0  0  0  0  0  0
   20.0173   12.8446   40.1130 C   0  0  1  0  0  0  0  0  0  0  0  0
   21.3700   13.8785   34.4186 O   0  0  0  0  0  0  0  0  0  0  0  0
   18.7990   13.2761   39.2283 C   0  0  0  0  0  0  0  0  0  0  0  0
   19.5368   16.1727   32.2137 O   0  0  0  0  0  0  0  0  0  0  0  0
   19.2774   14.3985   38.2292 C   0  0  1  0  0  0  0  0  0  0  0  0
   21.4726   17.9061   33.3791 O   0  0  0  0  0  0  0  0  0  0  0  0
   20.3666   13.8404   37.2954 C   0  0  2  0  0  0  0  0  0  0  0  0
   21.8626   14.7559   35.5231 C   0  0  1  0  0  0  0  0  0  0  0  0
   20.2090   14.3864   33.6344 C   0  0  2  0  0  0  0  0  0  0  0  0
   19.8432   13.3378   32.5795 C   0  0  0  0  0  0  0  0  0  0  0  0
   20.6223   15.6750   32.9592 C   0  0  2  0  0  0  0  0  0  0  0  0
   21.0714   16.6859   34.0129 C   0  0  1  0  0  0  0  0  0  0  0  0
   22.2580   16.0998   34.8169 C   0  0  1  0  0  0  0  0  0  0  0  0
  5  4  1  6  0  0  0
  5  8  1  0  0  0  0
  5 16  1  0  0  0  0
  8  7  1  1  0  0  0
  8 10  1  0  0  0  0
 10  1  1  1  0  0  0
 10 12  1  0  0  0  0
 11 18  1  0  0  0  0
 12 14  1  0  0  0  0
 14  2  1  6  0  0  0
 14 16  1  0  0  0  0
 16  9  1  6  0  0  0
 17  9  1  1  0  0  0
 17 11  1  0  0  0  0
 17 22  1  0  0  0  0
 18 19  1  6  0  0  0
 18 20  1  0  0  0  0
 19  3  1  0  0  0  0
 20 13  1  1  0  0  0
 20 21  1  0  0  0  0
 21 15  1  6  0  0  0
 21 22  1  0  0  0  0
 22  6  1  1  0  0  0
M  END
>  <CHROM.1>
55.74775230,75.19445026,53.60242624,20.70890304,14.29913158,36.21261787,1.62986037
0.82753609,1.99170740

>  <Name>
2f4s_lig

>  <RI>
0

>  <Rbt.Current_Directory>
/home/itssahil/PROJECTS/Mol_Feturizer/New_Systems/rnas/2f4s

>  <Rbt.Executable>
rbdock ($Id: //depot/dev/client3/rdock/2013.1/src/exe/rbdock.cxx#4 $)

>  <Rbt.Library>
libRbt.so (2013.1, Build901 2013/11/27)

>  <Rbt.Parameter_File>
/export/apps/rDock/src/rDock_2013.1_src/data/scripts/dock_solv.prm

>  <Rbt.Receptor>
prm/pocket_docking_5.prm

>  <SCORE>
-10.7089

>  <SCORE.INTER>
-11.1277

>  <SCORE.INTER.CONST>
1

>  <SCORE.INTER.POLAR>
-0.97091

>  <SCORE.INTER.ROT>
3

>  <SCORE.INTER.SOLV>
15.381

>  <SCORE.INTER.VDW>
-14.9091

>  <SCORE.INTER.norm>
-0.505803

>  <SCORE.INTRA>
0.418746

>  <SCORE.INTRA.DIHEDRAL>
-0.240503

>  <SCORE.INTRA.DIHEDRAL.0>
1.67653

>  <SCORE.INTRA.POLAR>
0

>  <SCORE.INTRA.POLAR.0>
0

>  <SCORE.INTRA.REPUL>
0

>  <SCORE.INTRA.REPUL.0>
0

>  <SCORE.INTRA.SOLV>
-0.215545

>  <SCORE.INTRA.SOLV.lig_0>
-76.6701

>  <SCORE.INTRA.VDW>
0.64677

>  <SCORE.INTRA.VDW.0>
-1.53273

>  <SCORE.INTRA.norm>
0.0190339

>  <SCORE.RESTR>
0

>  <SCORE.RESTR.CAVITY>
0

>  <SCORE.RESTR.norm>
0

>  <SCORE.SYSTEM>
0

>  <SCORE.SYSTEM.CONST>
0

>  <SCORE.SYSTEM.DIHEDRAL>
0

>  <SCORE.SYSTEM.SOLV>
0

>  <SCORE.SYSTEM.norm>
0

>  <SCORE.heavy>
22

>  <SCORE.norm>
-0.486769

>  <RMSD>
6.226

$$$$
2f4s_lig
 OpenBabel11021811433D
libRbt.so/2013.1/901 2013/11/27
 22 23  0  0  0  0  0  0  0  0999 V2000
   19.8280   10.4719   41.6568 N   0  0  0  0  0  0  0  0  0  0  0  0
   18.5282   14.7266   39.3364 N   0  0  0  0  0  0  0  0  0  0  0  0
   23.6908   18.4673   37.6958 N   0  0  0  0  0  0  0  0  0  0  0  0
   22.9273   12.5445   38.4001 O   0  0  0  0  0  0  0  0  0  0  0  0
   21.9105   12.8357   39.4022 C   0  0  2  0  0  0  0  0  0  0  0  0
   19.4100   13.8152   36.1031 N   0  0  0  0  0  0  0  0  0  0  0  0
   22.4366   10.7531   40.6054 O   0  0  0  0  0  0  0  0  0  0  0  0
   21.3747   11.5132   40.0167 C   0  0  1  0  0  0  0  0  0  0  0  0
   21.2059   14.8960   38.2765 O   0  0  0  0  0  0  0  0  0  0  0  0
   20.3290   11.7838   41.0915 C   0  0  1  0  0  0  0  0  0  0  0  0
   21.3569   16.8891   37.1147 O   0  0  0  0  0  0  0  0  0  0  0  0
   19.1427   12.6010   40.4766 C   0  0  0  0  0  0  0  0  0  0  0  0
   23.6607   15.7019   34.5130 O   0  0  0  0  0  0  0  0  0  0  0  0
   19.7122   13.9526   39.8970 C   0  0  1  0  0  0  0  0  0  0  0  0
   21.3431   14.1277   34.0024 O   0  0  0  0  0  0  0  0  0  0  0  0
   20.7186   13.6575   38.7699 C   0  0  2  0  0  0  0  0  0  0  0  0
   20.4745   15.7129   37.3796 C   0  0  1  0  0  0  0  0  0  0  0  0
   22.6758   16.6013   36.4834 C   0  0  2  0  0  0  0  0  0  0  0  0
   23.4334   17.9230   36.3240 C   0  0  0  0  0  0  0  0  0  0  0  0
   22.4250   15.9835   35.1259 C   0  0  2  0  0  0  0  0  0  0  0  0
   21.5917   14.7131   35.2858 C   0  0  1  0  0  0  0  0  0  0  0  0
   20.2472   15.0613   35.9707 C   0  0  1  0  0  0  0  0  0  0  0  0
  5  4  1  6  0  0  0
  5  8  1  0  0  0  0
  5 16  1  0  0  0  0
  8  7  1  1  0  0  0
  8 10  1  0  0  0  0
 10  1  1  6  0  0  0
 10 12  1  0  0  0  0
 11 18  1  0  0  0  0
 12 14  1  0  0  0  0
 14  2  1  6  0  0  0
 14 16  1  0  0  0  0
 16  9  1  1  0  0  0
 17  9  1  1  0  0  0
 17 11  1  0  0  0  0
 17 22  1  0  0  0  0
 18 19  1  6  0  0  0
 18 20  1  0  0  0  0
 19  3  1  0  0  0  0
 20 13  1  1  0  0  0
 20 21  1  0  0  0  0
 21 15  1  6  0  0  0
 21 22  1  0  0  0  0
 22  6  1  1  0  0  0
M  END
>  <CHROM.1>
164.38841386,-179.25745952,63.63742282,21.32986076,14.30415600,37.87565654
-1.85387782,-0.03933817,-0.81617066

>  <Name>
2f4s_lig

>  <RI>
2.46955e+07

>  <Rbt.Current_Directory>
/home/itssahil/PROJECTS/Mol_Feturizer/New_Systems/rnas/2f4s

>  <Rbt.Executable>
rbdock ($Id: //depot/dev/client3/rdock/2013.1/src/exe/rbdock.cxx#4 $)

>  <Rbt.Library>
libRbt.so (2013.1, Build901 2013/11/27)

>  <Rbt.Parameter_File>
/export/apps/rDock/src/rDock_2013.1_src/data/scripts/dock_solv.prm

>  <Rbt.Receptor>
prm/pocket_docking_3.prm

>  <SCORE>
-4.73487

>  <SCORE.INTER>
-6.14246

>  <SCORE.INTER.CONST>
1

>  <SCORE.INTER.POLAR>
-0.206488

>  <SCORE.INTER.ROT>
3

>  <SCORE.INTER.SOLV>
15.334

>  <SCORE.INTER.VDW>
-14.118

>  <SCORE.INTER.norm>
-0.279203

>  <SCORE.INTRA>
1.40758

>  <SCORE.INTRA.DIHEDRAL>
-0.336587

>  <SCORE.INTRA.DIHEDRAL.0>
1.67653

>  <SCORE.INTRA.POLAR>
0

>  <SCORE.INTRA.POLAR.0>
0

>  <SCORE.INTRA.REPUL>
0

>  <SCORE.INTRA.REPUL.0>
0

>  <SCORE.INTRA.SOLV>
3.21647

>  <SCORE.INTRA.SOLV.lig_0>
-76.6701

>  <SCORE.INTRA.VDW>
-0.0323621

>  <SCORE.INTRA.VDW.0>
-1.53273

>  <SCORE.INTRA.norm>
0.0639809

>  <SCORE.RESTR>
0

>  <SCORE.RESTR.CAVITY>
0

>  <SCORE.RESTR.norm>
0

>  <SCORE.SYSTEM>
0

>  <SCORE.SYSTEM.CONST>
0

>  <SCORE.SYSTEM.DIHEDRAL>
0

>  <SCORE.SYSTEM.SOLV>
0

>  <SCORE.SYSTEM.norm>
0

>  <SCORE.heavy>
22

>  <SCORE.norm>
-0.215222

>  <RMSD>
6.243

$$$$
2f4s_lig
 OpenBabel11021811433D
libRbt.so/2013.1/901 2013/11/27
 22 23  0  0  0  0  0  0  0  0999 V2000
   21.0542   10.5690   42.5923 N   0  0  0  0  0  0  0  0  0  0  0  0
   21.7776   11.8303   37.7901 N   0  0  0  0  0  0  0  0  0  0  0  0
   23.3055   15.5298   37.6374 N   0  0  0  0  0  0  0  0  0  0  0  0
   18.3398   14.1756   40.5598 O   0  0  0  0  0  0  0  0  0  0  0  0
   19.0134   12.9142   40.2809 C   0  0  2  0  0  0  0  0  0  0  0  0
   17.0601   14.4467   36.3299 N   0  0  0  0  0  0  0  0  0  0  0  0
   18.7488   12.2040   42.6234 O   0  0  0  0  0  0  0  0  0  0  0  0
   19.7012   12.3820   41.5683 C   0  0  1  0  0  0  0  0  0  0  0  0
   19.4353   13.5075   37.9403 O   0  0  0  0  0  0  0  0  0  0  0  0
   20.3911   11.0466   41.3180 C   0  0  1  0  0  0  0  0  0  0  0  0
   20.5249   15.4795   37.4217 O   0  0  0  0  0  0  0  0  0  0  0  0
   21.4533   11.2094   40.1787 C   0  0  0  0  0  0  0  0  0  0  0  0
   21.3577   14.6160   33.9509 O   0  0  0  0  0  0  0  0  0  0  0  0
   20.7191   11.7126   38.8768 C   0  0  1  0  0  0  0  0  0  0  0  0
   18.5123   14.6976   33.8649 O   0  0  0  0  0  0  0  0  0  0  0  0
   20.0837   13.0913   39.1325 C   0  0  2  0  0  0  0  0  0  0  0  0
   19.1789   14.8664   37.6332 C   0  0  1  0  0  0  0  0  0  0  0  0
   21.3440   14.9169   36.3110 C   0  0  2  0  0  0  0  0  0  0  0  0
   22.6858   15.6550   36.2792 C   0  0  0  0  0  0  0  0  0  0  0  0
   20.5999   15.1431   35.0139 C   0  0  2  0  0  0  0  0  0  0  0  0
   19.2258   14.4796   35.0876 C   0  0  1  0  0  0  0  0  0  0  0  0
   18.4276   15.0776   36.2722 C   0  0  1  0  0  0  0  0  0  0  0  0
  5  4  1  1  0  0  0
  5  8  1  0  0  0  0
  5 16  1  0  0  0  0
  8  7  1  1  0  0  0
  8 10  1  0  0  0  0
 10  1  1  1  0  0  0
 10 12  1  0  0  0  0
 11 18  1  0  0  0  0
 12 14  1  0  0  0  0
 14  2  1  6  0  0  0
 14 16  1  0  0  0  0
 16  9  1  6  0  0  0
 17  9  1  6  0  0  0
 17 11  1  0  0  0  0
 17 22  1  0  0  0  0
 18 19  1  6  0  0  0
 18 20  1  0  0  0  0
 19  3  1  0  0  0  0
 20 13  1  6  0  0  0
 20 21  1  0  0  0  0
 21 15  1  6  0  0  0
 21 22  1  0  0  0  0
 22  6  1  1  0  0  0
M  END
>  <CHROM.1>
87.10837283,67.08141042,55.49800771,20.11738986,13.63676452,38.10496295,-1.59692602
0.10545179,-1.09247519

>  <Name>
2f4s_lig

>  <RI>
0

>  <Rbt.Current_Directory>
/home/itssahil/PROJECTS/Mol_Feturizer/New_Systems/rnas/2f4s

>  <Rbt.Executable>
rbdock ($Id: //depot/dev/client3/rdock/2013.1/src/exe/rbdock.cxx#4 $)

>  <Rbt.Library>
libRbt.so (2013.1, Build901 2013/11/27)

>  <Rbt.Parameter_File>
/export/apps/rDock/src/rDock_2013.1_src/data/scripts/dock_solv.prm

>  <Rbt.Receptor>
prm/pocket_docking_4.prm

>  <SCORE>
-9.73756

>  <SCORE.INTER>
-11.0684

>  <SCORE.INTER.CONST>
1

>  <SCORE.INTER.POLAR>
-1.12645

>  <SCORE.INTER.ROT>
3

>  <SCORE.INTER.SOLV>
17.7758

>  <SCORE.INTER.VDW>
-15.1494

>  <SCORE.INTER.norm>
-0.503111

>  <SCORE.INTRA>
1.33089

>  <SCORE.INTRA.DIHEDRAL>
1.81947

>  <SCORE.INTRA.DIHEDRAL.0>
1.67653

>  <SCORE.INTRA.POLAR>
0

>  <SCORE.INTRA.POLAR.0>
0

>  <SCORE.INTRA.REPUL>
0

>  <SCORE.INTRA.REPUL.0>
0

>  <SCORE.INTRA.SOLV>
1.56398

>  <SCORE.INTRA.SOLV.lig_0>
-76.6701

>  <SCORE.INTRA.VDW>
-0.360842

>  <SCORE.INTRA.VDW.0>
-1.53273

>  <SCORE.INTRA.norm>
0.0604948

>  <SCORE.RESTR>
0

>  <SCORE.RESTR.CAVITY>
0

>  <SCORE.RESTR.norm>
0

>  <SCORE.SYSTEM>
0

>  <SCORE.SYSTEM.CONST>
0

>  <SCORE.SYSTEM.DIHEDRAL>
0

>  <SCORE.SYSTEM.SOLV>
0

>  <SCORE.SYSTEM.norm>
0

>  <SCORE.heavy>
22

>  <SCORE.norm>
-0.442616

>  <RMSD>
6.244

$$$$
2f4s_lig
 OpenBabel11021811433D
libRbt.so/2013.1/901 2013/11/27
 22 23  0  0  0  0  0  0  0  0999 V2000
   23.2983    9.9629   40.8053 N   0  0  0  0  0  0  0  0  0  0  0  0
   22.2527   14.2423   38.4033 N   0  0  0  0  0  0  0  0  0  0  0  0
   15.3209   15.9159   37.3950 N   0  0  0  0  0  0  0  0  0  0  0  0
   18.9447   12.2000   41.5461 O   0  0  0  0  0  0  0  0  0  0  0  0
   19.9839   11.9528   40.5552 C   0  0  2  0  0  0  0  0  0  0  0  0
   20.1657   12.4612   36.8921 N   0  0  0  0  0  0  0  0  0  0  0  0
   20.6103    9.8499   41.6719 O   0  0  0  0  0  0  0  0  0  0  0  0
   21.1193   11.0942   41.1776 C   0  0  1  0  0  0  0  0  0  0  0  0
   19.5440   14.0576   39.3785 O   0  0  0  0  0  0  0  0  0  0  0  0
   22.2100   10.7919   40.1572 C   0  0  1  0  0  0  0  0  0  0  0  0
   17.4095   14.4241   38.5694 O   0  0  0  0  0  0  0  0  0  0  0  0
   22.8014   12.1337   39.6071 C   0  0  0  0  0  0  0  0  0  0  0  0
   18.3236   16.9405   36.0560 O   0  0  0  0  0  0  0  0  0  0  0  0
   21.6333   12.9637   38.9484 C   0  0  1  0  0  0  0  0  0  0  0  0
   19.6547   14.6232   35.0721 O   0  0  0  0  0  0  0  0  0  0  0  0
   20.5743   13.3128   40.0098 C   0  0  2  0  0  0  0  0  0  0  0  0
   18.5556   13.4657   38.5542 C   0  0  1  0  0  0  0  0  0  0  0  0
   17.6780   15.7893   38.0356 C   0  0  2  0  0  0  0  0  0  0  0  0
   16.3968   16.6188   38.1651 C   0  0  0  0  0  0  0  0  0  0  0  0
   18.0636   15.6596   36.5790 C   0  0  2  0  0  0  0  0  0  0  0  0
   19.2896   14.7572   36.4506 C   0  0  1  0  0  0  0  0  0  0  0  0
   18.9682   13.3635   37.0440 C   0  0  1  0  0  0  0  0  0  0  0  0
  5  4  1  1  0  0  0
  5  8  1  0  0  0  0
  5 16  1  0  0  0  0
  8  7  1  6  0  0  0
  8 10  1  0  0  0  0
 10  1  1  1  0  0  0
 10 12  1  0  0  0  0
 11 18  1  0  0  0  0
 12 14  1  0  0  0  0
 14  2  1  1  0  0  0
 14 16  1  0  0  0  0
 16  9  1  6  0  0  0
 17  9  1  1  0  0  0
 17 11  1  0  0  0  0
 17 22  1  0  0  0  0
 18 19  1  6  0  0  0
 18 20  1  0  0  0  0
 19  3  1  0  0  0  0
 20 13  1  1  0  0  0
 20 21  1  0  0  0  0
 21 15  1  6  0  0  0
 21 22  1  0  0  0  0
 22  6  1  1  0  0  0
M  END
>  <CHROM.1>
-40.33387714,157.32345843,-58.64534323,19.64553723,13.49410696,38.68424988
-0.90369990,0.42280990,-0.98293428

>  <Name>
2f4s_lig

>  <RI>
0

>  <Rbt.Current_Directory>
/home/itssahil/PROJECTS/Mol_Feturizer/New_Systems/rnas/2f4s

>  <Rbt.Executable>
rbdock ($Id: //depot/dev/client3/rdock/2013.1/src/exe/rbdock.cxx#4 $)

>  <Rbt.Library>
libRbt.so (2013.1, Build901 2013/11/27)

>  <Rbt.Parameter_File>
/export/apps/rDock/src/rDock_2013.1_src/data/scripts/dock_solv.prm

>  <Rbt.Receptor>
prm/pocket_docking_5.prm

>  <SCORE>
-7.76265

>  <SCORE.INTER>
-14.0726

>  <SCORE.INTER.CONST>
1

>  <SCORE.INTER.POLAR>
-1.05509

>  <SCORE.INTER.ROT>
3

>  <SCORE.INTER.SOLV>
15.6884

>  <SCORE.INTER.VDW>
-16.6942

>  <SCORE.INTER.norm>
-0.639664

>  <SCORE.INTRA>
6.30996

>  <SCORE.INTRA.DIHEDRAL>
2.40045

>  <SCORE.INTRA.DIHEDRAL.0>
1.67653

>  <SCORE.INTRA.POLAR>
0

>  <SCORE.INTRA.POLAR.0>
0

>  <SCORE.INTRA.REPUL>
0

>  <SCORE.INTRA.REPUL.0>
0

>  <SCORE.INTRA.SOLV>
7.06407

>  <SCORE.INTRA.SOLV.lig_0>
-76.6701

>  <SCORE.INTRA.VDW>
1.5777

>  <SCORE.INTRA.VDW.0>
-1.53273

>  <SCORE.INTRA.norm>
0.286816

>  <SCORE.RESTR>
0

>  <SCORE.RESTR.CAVITY>
0

>  <SCORE.RESTR.norm>
0

>  <SCORE.SYSTEM>
0

>  <SCORE.SYSTEM.CONST>
0

>  <SCORE.SYSTEM.DIHEDRAL>
0

>  <SCORE.SYSTEM.SOLV>
0

>  <SCORE.SYSTEM.norm>
0

>  <SCORE.heavy>
22

>  <SCORE.norm>
-0.352848

>  <RMSD>
6.248

$$$$
2f4s_lig
 OpenBabel11021811433D
libRbt.so/2013.1/901 2013/11/27
 22 23  0  0  0  0  0  0  0  0999 V2000
   21.0337   10.5829   42.6060 N   0  0  0  0  0  0  0  0  0  0  0  0
   21.7863   11.8156   37.8008 N   0  0  0  0  0  0  0  0  0  0  0  0
   23.2736   15.6068   37.7134 N   0  0  0  0  0  0  0  0  0  0  0  0
   18.3358   14.1813   40.5372 O   0  0  0  0  0  0  0  0  0  0  0  0
   19.0093   12.9174   40.2695 C   0  0  2  0  0  0  0  0  0  0  0  0
   17.0837   14.4009   36.2781 N   0  0  0  0  0  0  0  0  0  0  0  0
   18.7303   12.2210   42.6144 O   0  0  0  0  0  0  0  0  0  0  0  0
   19.6890   12.3917   41.5638 C   0  0  1  0  0  0  0  0  0  0  0  0
   19.4454   13.4966   37.9279 O   0  0  0  0  0  0  0  0  0  0  0  0
   20.3786   11.0540   41.3252 C   0  0  1  0  0  0  0  0  0  0  0  0
   20.5078   15.4912   37.4401 O   0  0  0  0  0  0  0  0  0  0  0  0
   21.4475   11.2089   40.1910 C   0  0  0  0  0  0  0  0  0  0  0  0
   21.4211   14.6624   33.9811 O   0  0  0  0  0  0  0  0  0  0  0  0
   20.7214   11.7055   38.8821 C   0  0  1  0  0  0  0  0  0  0  0  0
   18.5768   14.6922   33.8422 O   0  0  0  0  0  0  0  0  0  0  0  0
   20.0863   13.0865   39.1261 C   0  0  2  0  0  0  0  0  0  0  0  0
   19.1697   14.8522   37.6231 C   0  0  1  0  0  0  0  0  0  0  0  0
   21.3578   14.9500   36.3421 C   0  0  2  0  0  0  0  0  0  0  0  0
   22.6861   15.7127   36.3393 C   0  0  0  0  0  0  0  0  0  0  0  0
   20.6340   15.1695   35.0325 C   0  0  2  0  0  0  0  0  0  0  0  0
   19.2713   14.4806   35.0769 C   0  0  1  0  0  0  0  0  0  0  0  0
   18.4402   15.0571   36.2494 C   0  0  1  0  0  0  0  0  0  0  0  0
  5  4  1  1  0  0  0
  5  8  1  0  0  0  0
  5 16  1  0  0  0  0
  8  7  1  1  0  0  0
  8 10  1  0  0  0  0
 10  1  1  1  0  0  0
 10 12  1  0  0  0  0
 11 18  1  0  0  0  0
 12 14  1  0  0  0  0
 14  2  1  6  0  0  0
 14 16  1  0  0  0  0
 16  9  1  6  0  0  0
 17  9  1  6  0  0  0
 17 11  1  0  0  0  0
 17 22  1  0  0  0  0
 18 19  1  6  0  0  0
 18 20  1  0  0  0  0
 19  3  1  0  0  0  0
 20 13  1  6  0  0  0
 20 21  1  0  0  0  0
 21 15  1  6  0  0  0
 21 22  1  0  0  0  0
 22  6  1  1  0  0  0
M  END
>  <CHROM.1>
85.86801151,66.68058256,54.75451384,20.12437057,13.64549967,38.10934811,-1.60202304
0.08516559,-1.09056311

>  <Name>
2f4s_lig

>  <RI>
0

>  <Rbt.Current_Directory>
/home/itssahil/PROJECTS/Mol_Feturizer/New_Systems/rnas/2f4s

>  <Rbt.Executable>
rbdock ($Id: //depot/dev/client3/rdock/2013.1/src/exe/rbdock.cxx#4 $)

>  <Rbt.Library>
libRbt.so (2013.1, Build901 2013/11/27)

>  <Rbt.Parameter_File>
/export/apps/rDock/src/rDock_2013.1_src/data/scripts/dock_solv.prm

>  <Rbt.Receptor>
prm/pocket_docking_5.prm

>  <SCORE>
-9.79564

>  <SCORE.INTER>
-10.9654

>  <SCORE.INTER.CONST>
1

>  <SCORE.INTER.POLAR>
-1.10438

>  <SCORE.INTER.ROT>
3

>  <SCORE.INTER.SOLV>
17.6464

>  <SCORE.INTER.VDW>
-15.1112

>  <SCORE.INTER.norm>
-0.498429

>  <SCORE.INTRA>
1.16979

>  <SCORE.INTRA.DIHEDRAL>
1.59141

>  <SCORE.INTRA.DIHEDRAL.0>
1.67653

>  <SCORE.INTRA.POLAR>
0

>  <SCORE.INTRA.POLAR.0>
0

>  <SCORE.INTRA.REPUL>
0

>  <SCORE.INTRA.REPUL.0>
0

>  <SCORE.INTRA.SOLV>
1.40955

>  <SCORE.INTRA.SOLV.lig_0>
-76.6701

>  <SCORE.INTRA.VDW>
-0.330689

>  <SCORE.INTRA.VDW.0>
-1.53273

>  <SCORE.INTRA.norm>
0.0531725

>  <SCORE.RESTR>
0

>  <SCORE.RESTR.CAVITY>
0

>  <SCORE.RESTR.norm>
0

>  <SCORE.SYSTEM>
0

>  <SCORE.SYSTEM.CONST>
0

>  <SCORE.SYSTEM.DIHEDRAL>
0

>  <SCORE.SYSTEM.SOLV>
0

>  <SCORE.SYSTEM.norm>
0

>  <SCORE.heavy>
22

>  <SCORE.norm>
-0.445256

>  <RMSD>
6.249

$$$$
2f4s_lig
 OpenBabel11021811433D
libRbt.so/2013.1/901 2013/11/27
 22 23  0  0  0  0  0  0  0  0999 V2000
   21.1646   10.9920   42.6051 N   0  0  0  0  0  0  0  0  0  0  0  0
   21.7726   11.8552   37.6999 N   0  0  0  0  0  0  0  0  0  0  0  0
   19.4303   12.0335   33.5042 N   0  0  0  0  0  0  0  0  0  0  0  0
   18.0796   14.0619   40.2460 O   0  0  0  0  0  0  0  0  0  0  0  0
   18.8905   12.8619   40.0873 C   0  0  2  0  0  0  0  0  0  0  0  0
   18.2267   16.0047   38.4528 N   0  0  0  0  0  0  0  0  0  0  0  0
   18.6921   12.3567   42.4888 O   0  0  0  0  0  0  0  0  0  0  0  0
   19.6252   12.5363   41.4169 C   0  0  1  0  0  0  0  0  0  0  0  0
   19.2581   13.2690   37.6982 O   0  0  0  0  0  0  0  0  0  0  0  0
   20.4604   11.2676   41.2937 C   0  0  1  0  0  0  0  0  0  0  0  0
   19.3668   13.9547   35.4930 O   0  0  0  0  0  0  0  0  0  0  0  0
   21.5048   11.4362   40.1389 C   0  0  0  0  0  0  0  0  0  0  0  0
   15.7610   13.8063   34.8135 O   0  0  0  0  0  0  0  0  0  0  0  0
   20.7272   11.7266   38.7980 C   0  0  1  0  0  0  0  0  0  0  0  0
   15.9008   15.8673   36.7738 O   0  0  0  0  0  0  0  0  0  0  0  0
   19.9414   13.0446   38.9219 C   0  0  2  0  0  0  0  0  0  0  0  0
   19.4484   14.4289   36.9075 C   0  0  1  0  0  0  0  0  0  0  0  0
   18.0784   13.3341   35.0737 C   0  0  2  0  0  0  0  0  0  0  0  0
   18.2081   12.8931   33.6125 C   0  0  0  0  0  0  0  0  0  0  0  0
   16.9885   14.3745   35.2038 C   0  0  2  0  0  0  0  0  0  0  0  0
   16.9256   14.8749   36.6458 C   0  0  1  0  0  0  0  0  0  0  0  0
   18.2941   15.4829   37.0405 C   0  0  1  0  0  0  0  0  0  0  0  0
  5  4  1  1  0  0  0
  5  8  1  0  0  0  0
  5 16  1  0  0  0  0
  8  7  1  1  0  0  0
  8 10  1  0  0  0  0
 10  1  1  1  0  0  0
 10 12  1  0  0  0  0
 11 18  1  0  0  0  0
 12 14  1  0  0  0  0
 14  2  1  6  0  0  0
 14 16  1  0  0  0  0
 16  9  1  6  0  0  0
 17  9  1  1  0  0  0
 17 11  1  0  0  0  0
 17 22  1  0  0  0  0
 18 19  1  6  0  0  0
 18 20  1  0  0  0  0
 19  3  1  0  0  0  0
 20 13  1  1  0  0  0
 20 21  1  0  0  0  0
 21 15  1  6  0  0  0
 21 22  1  0  0  0  0
 22  6  1  1  0  0  0
M  END
>  <CHROM.1>
121.57442341,143.45127154,53.21663086,18.90084701,13.31327970,37.94335628
-1.03042709,0.72015596,-1.60765563

>  <Name>
2f4s_lig

>  <RI>
2.00194e+07

>  <Rbt.Current_Directory>
/home/itssahil/PROJECTS/Mol_Feturizer/New_Systems/rnas/2f4s

>  <Rbt.Executable>
rbdock ($Id: //depot/dev/client3/rdock/2013.1/src/exe/rbdock.cxx#4 $)

>  <Rbt.Library>
libRbt.so (2013.1, Build901 2013/11/27)

>  <Rbt.Parameter_File>
/export/apps/rDock/src/rDock_2013.1_src/data/scripts/dock_solv.prm

>  <Rbt.Receptor>
prm/pocket_docking_6.prm

>  <SCORE>
-8.83661

>  <SCORE.INTER>
-15.0164

>  <SCORE.INTER.CONST>
1

>  <SCORE.INTER.POLAR>
-1.66884

>  <SCORE.INTER.ROT>
3

>  <SCORE.INTER.SOLV>
18.8463

>  <SCORE.INTER.VDW>
-16.3302

>  <SCORE.INTER.norm>
-0.682564

>  <SCORE.INTRA>
6.17979

>  <SCORE.INTRA.DIHEDRAL>
10.4178

>  <SCORE.INTRA.DIHEDRAL.0>
1.67653

>  <SCORE.INTRA.POLAR>
0

>  <SCORE.INTRA.POLAR.0>
0

>  <SCORE.INTRA.REPUL>
0

>  <SCORE.INTRA.REPUL.0>
0

>  <SCORE.INTRA.SOLV>
2.34188

>  <SCORE.INTRA.SOLV.lig_0>
-76.6701

>  <SCORE.INTRA.VDW>
-0.200037

>  <SCORE.INTRA.VDW.0>
-1.53273

>  <SCORE.INTRA.norm>
0.2809

>  <SCORE.RESTR>
0

>  <SCORE.RESTR.CAVITY>
0

>  <SCORE.RESTR.norm>
0

>  <SCORE.SYSTEM>
0

>  <SCORE.SYSTEM.CONST>
0

>  <SCORE.SYSTEM.DIHEDRAL>
0

>  <SCORE.SYSTEM.SOLV>
0

>  <SCORE.SYSTEM.norm>
0

>  <SCORE.heavy>
22

>  <SCORE.norm>
-0.401664

>  <RMSD>
6.251

$$$$
2f4s_lig
 OpenBabel11021811433D
libRbt.so/2013.1/901 2013/11/27
 22 23  0  0  0  0  0  0  0  0999 V2000
   21.1993   10.9235   42.5992 N   0  0  0  0  0  0  0  0  0  0  0  0
   21.7723   11.8705   37.7053 N   0  0  0  0  0  0  0  0  0  0  0  0
   19.4101   12.0790   33.5392 N   0  0  0  0  0  0  0  0  0  0  0  0
   18.0949   14.0296   40.3140 O   0  0  0  0  0  0  0  0  0  0  0  0
   18.9059   12.8333   40.1294 C   0  0  2  0  0  0  0  0  0  0  0  0
   18.2024   15.9948   38.5473 N   0  0  0  0  0  0  0  0  0  0  0  0
   18.7247   12.2872   42.5232 O   0  0  0  0  0  0  0  0  0  0  0  0
   19.6502   12.4860   41.4481 C   0  0  1  0  0  0  0  0  0  0  0  0
   19.2565   13.2814   37.7450 O   0  0  0  0  0  0  0  0  0  0  0  0
   20.4857   11.2205   41.2976 C   0  0  1  0  0  0  0  0  0  0  0  0
   19.3597   14.0064   35.5522 O   0  0  0  0  0  0  0  0  0  0  0  0
   21.5219   11.4098   40.1386 C   0  0  0  0  0  0  0  0  0  0  0  0
   15.7553   13.8402   34.8694 O   0  0  0  0  0  0  0  0  0  0  0  0
   20.7347   11.7221   38.8082 C   0  0  1  0  0  0  0  0  0  0  0  0
   15.8779   15.8677   36.8655 O   0  0  0  0  0  0  0  0  0  0  0  0
   19.9484   13.0370   38.9600 C   0  0  2  0  0  0  0  0  0  0  0  0
   19.4373   14.4564   36.9748 C   0  0  1  0  0  0  0  0  0  0  0  0
   18.0765   13.3827   35.1218 C   0  0  2  0  0  0  0  0  0  0  0  0
   18.2100   12.9685   33.6531 C   0  0  0  0  0  0  0  0  0  0  0  0
   16.9781   14.4116   35.2698 C   0  0  2  0  0  0  0  0  0  0  0  0
   16.9109   14.8862   36.7204 C   0  0  1  0  0  0  0  0  0  0  0  0
   18.2742   15.4984   37.1261 C   0  0  1  0  0  0  0  0  0  0  0  0
  5  4  1  1  0  0  0
  5  8  1  0  0  0  0
  5 16  1  0  0  0  0
  8  7  1  1  0  0  0
  8 10  1  0  0  0  0
 10  1  1  1  0  0  0
 10 12  1  0  0  0  0
 11 18  1  0  0  0  0
 12 14  1  0  0  0  0
 14  2  1  6  0  0  0
 14 16  1  0  0  0  0
 16  9  1  6  0  0  0
 17  9  1  1  0  0  0
 17 11  1  0  0  0  0
 17 22  1  0  0  0  0
 18 19  1  6  0  0  0
 18 20  1  0  0  0  0
 19  3  1  0  0  0  0
 20 13  1  1  0  0  0
 20 21  1  0  0  0  0
 21 15  1  6  0  0  0
 21 22  1  0  0  0  0
 22  6  1  1  0  0  0
M  END
>  <CHROM.1>
121.38533938,142.99508795,55.30015998,18.90273350,13.31459666,37.98895461
-1.02353126,0.71808467,-1.59730021

>  <Name>
2f4s_lig

>  <RI>
2.00194e+07

>  <Rbt.Current_Directory>
/home/itssahil/PROJECTS/Mol_Feturizer/New_Systems/rnas/2f4s

>  <Rbt.Executable>
rbdock ($Id: //depot/dev/client3/rdock/2013.1/src/exe/rbdock.cxx#4 $)

>  <Rbt.Library>
libRbt.so (2013.1, Build901 2013/11/27)

>  <Rbt.Parameter_File>
/export/apps/rDock/src/rDock_2013.1_src/data/scripts/dock_solv.prm

>  <Rbt.Receptor>
prm/pocket_docking_6.prm

>  <SCORE>
-8.9103

>  <SCORE.INTER>
-15.0696

>  <SCORE.INTER.CONST>
1

>  <SCORE.INTER.POLAR>
-1.64876

>  <SCORE.INTER.ROT>
3

>  <SCORE.INTER.SOLV>
18.8661

>  <SCORE.INTER.VDW>
-16.4393

>  <SCORE.INTER.norm>
-0.684984

>  <SCORE.INTRA>
6.15934

>  <SCORE.INTRA.DIHEDRAL>
10.4148

>  <SCORE.INTRA.DIHEDRAL.0>
1.67653

>  <SCORE.INTRA.POLAR>
0

>  <SCORE.INTRA.POLAR.0>
0

>  <SCORE.INTRA.REPUL>
0

>  <SCORE.INTRA.REPUL.0>
0

>  <SCORE.INTRA.SOLV>
2.31819

>  <SCORE.INTRA.SOLV.lig_0>
-76.6701

>  <SCORE.INTRA.VDW>
-0.207164

>  <SCORE.INTRA.VDW.0>
-1.53273

>  <SCORE.INTRA.norm>
0.27997

>  <SCORE.RESTR>
0

>  <SCORE.RESTR.CAVITY>
0

>  <SCORE.RESTR.norm>
0

>  <SCORE.SYSTEM>
0

>  <SCORE.SYSTEM.CONST>
0

>  <SCORE.SYSTEM.DIHEDRAL>
0

>  <SCORE.SYSTEM.SOLV>
0

>  <SCORE.SYSTEM.norm>
0

>  <SCORE.heavy>
22

>  <SCORE.norm>
-0.405014

>  <RMSD>
6.257

$$$$
2f4s_lig
 OpenBabel11021811433D
libRbt.so/2013.1/901 2013/11/27
 22 23  0  0  0  0  0  0  0  0999 V2000
   19.9024    9.8500   42.3504 N   0  0  0  0  0  0  0  0  0  0  0  0
   18.5588   13.9999   39.8707 N   0  0  0  0  0  0  0  0  0  0  0  0
   19.8858   12.8305   33.9400 N   0  0  0  0  0  0  0  0  0  0  0  0
   22.7556   11.5574   38.6828 O   0  0  0  0  0  0  0  0  0  0  0  0
   21.8524   11.9609   39.7525 C   0  0  2  0  0  0  0  0  0  0  0  0
   23.0514   16.1595   37.7593 N   0  0  0  0  0  0  0  0  0  0  0  0
   22.4070    9.9392   41.0435 O   0  0  0  0  0  0  0  0  0  0  0  0
   21.3251   10.7081   40.5049 C   0  0  1  0  0  0  0  0  0  0  0  0
   21.1268   13.9739   38.5568 O   0  0  0  0  0  0  0  0  0  0  0  0
   20.3994   11.0972   41.6510 C   0  0  1  0  0  0  0  0  0  0  0  0
   20.9844   13.3357   36.3392 O   0  0  0  0  0  0  0  0  0  0  0  0
   19.1936   11.9270   41.0939 C   0  0  0  0  0  0  0  0  0  0  0  0
   18.8386   16.1010   35.2281 O   0  0  0  0  0  0  0  0  0  0  0  0
   19.7589   13.2096   40.3711 C   0  0  1  0  0  0  0  0  0  0  0  0
   21.2154   17.4749   35.9854 O   0  0  0  0  0  0  0  0  0  0  0  0
   20.6395   12.7945   39.1784 C   0  0  2  0  0  0  0  0  0  0  0  0
   21.8809   13.9612   37.3577 C   0  0  1  0  0  0  0  0  0  0  0  0
   19.7049   14.0451   36.0553 C   0  0  2  0  0  0  0  0  0  0  0  0
   18.9245   13.2353   35.0154 C   0  0  0  0  0  0  0  0  0  0  0  0
   20.0361   15.4129   35.5015 C   0  0  2  0  0  0  0  0  0  0  0  0
   20.8909   16.1814   36.5078 C   0  0  1  0  0  0  0  0  0  0  0  0
   22.1918   15.3901   36.7895 C   0  0  1  0  0  0  0  0  0  0  0  0
  5  4  1  6  0  0  0
  5  8  1  0  0  0  0
  5 16  1  0  0  0  0
  8  7  1  1  0  0  0
  8 10  1  0  0  0  0
 10  1  1  6  0  0  0
 10 12  1  0  0  0  0
 11 18  1  0  0  0  0
 12 14  1  0  0  0  0
 14  2  1  6  0  0  0
 14 16  1  0  0  0  0
 16  9  1  1  0  0  0
 17  9  1  1  0  0  0
 17 11  1  0  0  0  0
 17 22  1  0  0  0  0
 18 19  1  6  0  0  0
 18 20  1  0  0  0  0
 19  3  1  0  0  0  0
 20 13  1  1  0  0  0
 20 21  1  0  0  0  0
 21 15  1  6  0  0  0
 21 22  1  0  0  0  0
 22  6  1  1  0  0  0
M  END
>  <CHROM.1>
68.58950670,60.51802584,-45.10482849,20.72014257,13.42577918,38.13400212
1.50452246,0.52690616,2.29845333

>  <Name>
2f4s_lig

>  <RI>
0

>  <Rbt.Current_Directory>
/home/itssahil/PROJECTS/Mol_Feturizer/New_Systems/rnas/2f4s

>  <Rbt.Executable>
rbdock ($Id: //depot/dev/client3/rdock/2013.1/src/exe/rbdock.cxx#4 $)

>  <Rbt.Library>
libRbt.so (2013.1, Build901 2013/11/27)

>  <Rbt.Parameter_File>
/export/apps/rDock/src/rDock_2013.1_src/data/scripts/dock_solv.prm

>  <Rbt.Receptor>
prm/pocket_docking_4.prm

>  <SCORE>
-10.849

>  <SCORE.INTER>
-11.5252

>  <SCORE.INTER.CONST>
1

>  <SCORE.INTER.POLAR>
-1.20767

>  <SCORE.INTER.ROT>
3

>  <SCORE.INTER.SOLV>
17.6158

>  <SCORE.INTER.VDW>
-15.1298

>  <SCORE.INTER.norm>
-0.523871

>  <SCORE.INTRA>
0.676181

>  <SCORE.INTRA.DIHEDRAL>
-0.390934

>  <SCORE.INTRA.DIHEDRAL.0>
1.67653

>  <SCORE.INTRA.POLAR>
0

>  <SCORE.INTRA.POLAR.0>
0

>  <SCORE.INTRA.REPUL>
0

>  <SCORE.INTRA.REPUL.0>
0

>  <SCORE.INTRA.SOLV>
1.29783

>  <SCORE.INTRA.SOLV.lig_0>
-76.6701

>  <SCORE.INTRA.VDW>
0.222735

>  <SCORE.INTRA.VDW.0>
-1.53273

>  <SCORE.INTRA.norm>
0.0307355

>  <SCORE.RESTR>
0

>  <SCORE.RESTR.CAVITY>
0

>  <SCORE.RESTR.norm>
0

>  <SCORE.SYSTEM>
0

>  <SCORE.SYSTEM.CONST>
0

>  <SCORE.SYSTEM.DIHEDRAL>
0

>  <SCORE.SYSTEM.SOLV>
0

>  <SCORE.SYSTEM.norm>
0

>  <SCORE.heavy>
22

>  <SCORE.norm>
-0.493135

>  <RMSD>
6.261

$$$$
2f4s_lig
 OpenBabel11021811433D
libRbt.so/2013.1/901 2013/11/27
 22 23  0  0  0  0  0  0  0  0999 V2000
   21.2765   10.5994   42.8242 N   0  0  0  0  0  0  0  0  0  0  0  0
   23.2057   11.8547   38.3656 N   0  0  0  0  0  0  0  0  0  0  0  0
   23.8528   16.7309   37.6506 N   0  0  0  0  0  0  0  0  0  0  0  0
   18.5764   13.2522   39.6336 O   0  0  0  0  0  0  0  0  0  0  0  0
   19.5965   12.2164   39.7306 C   0  0  2  0  0  0  0  0  0  0  0  0
   19.2583   12.8337   34.8791 N   0  0  0  0  0  0  0  0  0  0  0  0
   18.7595   11.5371   41.9441 O   0  0  0  0  0  0  0  0  0  0  0  0
   19.9304   11.9360   41.2217 C   0  0  1  0  0  0  0  0  0  0  0  0
   20.6052   12.8266   37.5815 O   0  0  0  0  0  0  0  0  0  0  0  0
   20.9744   10.8345   41.3596 C   0  0  1  0  0  0  0  0  0  0  0  0
   20.4693   15.1343   37.6184 O   0  0  0  0  0  0  0  0  0  0  0  0
   22.2769   11.2462   40.5934 C   0  0  0  0  0  0  0  0  0  0  0  0
   23.1858   15.7679   35.2299 O   0  0  0  0  0  0  0  0  0  0  0  0
   21.9127   11.4855   39.0778 C   0  0  1  0  0  0  0  0  0  0  0  0
   21.2753   14.4271   33.5982 O   0  0  0  0  0  0  0  0  0  0  0  0
   20.9057   12.6438   38.9566 C   0  0  2  0  0  0  0  0  0  0  0  0
   19.8128   13.8969   37.0986 C   0  0  1  0  0  0  0  0  0  0  0  0
   21.8706   15.3795   37.1743 C   0  0  2  0  0  0  0  0  0  0  0  0
   22.3672   16.6696   37.8340 C   0  0  0  0  0  0  0  0  0  0  0  0
   21.8686   15.5370   35.6701 C   0  0  2  0  0  0  0  0  0  0  0  0
   21.2880   14.2808   35.0229 C   0  0  1  0  0  0  0  0  0  0  0  0
   19.8452   14.0555   35.5381 C   0  0  1  0  0  0  0  0  0  0  0  0
  5  4  1  1  0  0  0
  5  8  1  0  0  0  0
  5 16  1  0  0  0  0
  8  7  1  1  0  0  0
  8 10  1  0  0  0  0
 10  1  1  1  0  0  0
 10 12  1  0  0  0  0
 11 18  1  0  0  0  0
 12 14  1  0  0  0  0
 14  2  1  6  0  0  0
 14 16  1  0  0  0  0
 16  9  1  6  0  0  0
 17  9  1  6  0  0  0
 17 11  1  0  0  0  0
 17 22  1  0  0  0  0
 18 19  1  1  0  0  0
 18 20  1  0  0  0  0
 19  3  1  0  0  0  0
 20 13  1  6  0  0  0
 20 21  1  0  0  0  0
 21 15  1  6  0  0  0
 21 22  1  0  0  0  0
 22  6  1  6  0  0  0
M  END
>  <CHROM.1>
69.65449237,54.80207440,166.68510416,21.03671984,13.43755019,38.09957103
-1.78861549,-0.52382856,-1.09584637

>  <Name>
2f4s_lig

>  <RI>
2.26097e+07

>  <Rbt.Current_Directory>
/home/itssahil/PROJECTS/Mol_Feturizer/New_Systems/rnas/2f4s

>  <Rbt.Executable>
rbdock ($Id: //depot/dev/client3/rdock/2013.1/src/exe/rbdock.cxx#4 $)

>  <Rbt.Library>
libRbt.so (2013.1, Build901 2013/11/27)

>  <Rbt.Parameter_File>
/export/apps/rDock/src/rDock_2013.1_src/data/scripts/dock_solv.prm

>  <Rbt.Receptor>
prm/pocket_docking_7.prm

>  <SCORE>
-10.7412

>  <SCORE.INTER>
-11.2959

>  <SCORE.INTER.CONST>
1

>  <SCORE.INTER.POLAR>
-1.05533

>  <SCORE.INTER.ROT>
3

>  <SCORE.INTER.SOLV>
19.1311

>  <SCORE.INTER.VDW>
-15.9899

>  <SCORE.INTER.norm>
-0.513448

>  <SCORE.INTRA>
0.554644

>  <SCORE.INTRA.DIHEDRAL>
-0.335423

>  <SCORE.INTRA.DIHEDRAL.0>
1.67653

>  <SCORE.INTRA.POLAR>
0

>  <SCORE.INTRA.POLAR.0>
0

>  <SCORE.INTRA.REPUL>
0

>  <SCORE.INTRA.REPUL.0>
0

>  <SCORE.INTRA.SOLV>
0.8838

>  <SCORE.INTRA.SOLV.lig_0>
-76.6701

>  <SCORE.INTRA.VDW>
0.280456

>  <SCORE.INTRA.VDW.0>
-1.53273

>  <SCORE.INTRA.norm>
0.0252111

>  <SCORE.RESTR>
0

>  <SCORE.RESTR.CAVITY>
0

>  <SCORE.RESTR.norm>
0

>  <SCORE.SYSTEM>
0

>  <SCORE.SYSTEM.CONST>
0

>  <SCORE.SYSTEM.DIHEDRAL>
0

>  <SCORE.SYSTEM.SOLV>
0

>  <SCORE.SYSTEM.norm>
0

>  <SCORE.heavy>
22

>  <SCORE.norm>
-0.488237

>  <RMSD>
6.271

$$$$
2f4s_lig
 OpenBabel11021811433D
libRbt.so/2013.1/901 2013/11/27
 22 23  0  0  0  0  0  0  0  0999 V2000
   20.8992   10.1926   42.2718 N   0  0  0  0  0  0  0  0  0  0  0  0
   21.6856   12.0549   37.6795 N   0  0  0  0  0  0  0  0  0  0  0  0
   23.9861   16.2247   37.1324 N   0  0  0  0  0  0  0  0  0  0  0  0
   18.5758   14.3311   40.8637 O   0  0  0  0  0  0  0  0  0  0  0  0
   19.0992   13.0580   40.3858 C   0  0  2  0  0  0  0  0  0  0  0  0
   17.4999   15.1737   36.3012 N   0  0  0  0  0  0  0  0  0  0  0  0
   18.7926   12.0467   42.6095 O   0  0  0  0  0  0  0  0  0  0  0  0
   19.7426   12.2720   41.5613 C   0  0  1  0  0  0  0  0  0  0  0  0
   19.5490   13.9371   38.1423 O   0  0  0  0  0  0  0  0  0  0  0  0
   20.2743   10.9204   41.1006 C   0  0  1  0  0  0  0  0  0  0  0  0
   20.4856   16.0282   38.4503 O   0  0  0  0  0  0  0  0  0  0  0  0
   21.3304   11.1311   39.9634 C   0  0  0  0  0  0  0  0  0  0  0  0
   22.1695   16.2342   35.1934 O   0  0  0  0  0  0  0  0  0  0  0  0
   20.6374   11.8958   38.7709 C   0  0  1  0  0  0  0  0  0  0  0  0
   19.4263   16.1912   34.4300 O   0  0  0  0  0  0  0  0  0  0  0  0
   20.1647   13.2834   39.2414 C   0  0  2  0  0  0  0  0  0  0  0  0
   19.2087   15.3122   38.1519 C   0  0  1  0  0  0  0  0  0  0  0  0
   21.5930   15.8484   37.4693 C   0  0  2  0  0  0  0  0  0  0  0  0
   22.8109   16.6326   37.9673 C   0  0  0  0  0  0  0  0  0  0  0  0
   21.1364   16.3967   36.1358 C   0  0  2  0  0  0  0  0  0  0  0  0
   19.8690   15.6704   35.6886 C   0  0  1  0  0  0  0  0  0  0  0  0
   18.7611   15.8640   36.7532 C   0  0  1  0  0  0  0  0  0  0  0  0
  5  4  1  1  0  0  0
  5  8  1  0  0  0  0
  5 16  1  0  0  0  0
  8  7  1  1  0  0  0
  8 10  1  0  0  0  0
 10  1  1  1  0  0  0
 10 12  1  0  0  0  0
 11 18  1  0  0  0  0
 12 14  1  0  0  0  0
 14  2  1  6  0  0  0
 14 16  1  0  0  0  0
 16  9  1  6  0  0  0
 17  9  1  6  0  0  0
 17 11  1  0  0  0  0
 17 22  1  0  0  0  0
 18 19  1  1  0  0  0
 18 20  1  0  0  0  0
 19  3  1  0  0  0  0
 20 13  1  6  0  0  0
 20 21  1  0  0  0  0
 21 15  1  6  0  0  0
 21 22  1  0  0  0  0
 22  6  1  6  0  0  0
M  END
>  <CHROM.1>
74.51160210,56.40942112,168.75277781,20.33978696,14.15081791,38.45757832
-1.69940503,0.08052101,-0.85030587

>  <Name>
2f4s_lig

>  <RI>
2.46955e+07

>  <Rbt.Current_Directory>
/home/itssahil/PROJECTS/Mol_Feturizer/New_Systems/rnas/2f4s

>  <Rbt.Executable>
rbdock ($Id: //depot/dev/client3/rdock/2013.1/src/exe/rbdock.cxx#4 $)

>  <Rbt.Library>
libRbt.so (2013.1, Build901 2013/11/27)

>  <Rbt.Parameter_File>
/export/apps/rDock/src/rDock_2013.1_src/data/scripts/dock_solv.prm

>  <Rbt.Receptor>
prm/pocket_docking_3.prm

>  <SCORE>
-7.79695

>  <SCORE.INTER>
-9.13222

>  <SCORE.INTER.CONST>
1

>  <SCORE.INTER.POLAR>
-0.946512

>  <SCORE.INTER.ROT>
3

>  <SCORE.INTER.SOLV>
15.1844

>  <SCORE.INTER.VDW>
-13.5946

>  <SCORE.INTER.norm>
-0.415101

>  <SCORE.INTRA>
0.73402

>  <SCORE.INTRA.DIHEDRAL>
-0.0369871

>  <SCORE.INTRA.DIHEDRAL.0>
1.67653

>  <SCORE.INTRA.POLAR>
0

>  <SCORE.INTRA.POLAR.0>
0

>  <SCORE.INTRA.REPUL>
0

>  <SCORE.INTRA.REPUL.0>
0

>  <SCORE.INTRA.SOLV>
1.10948

>  <SCORE.INTRA.SOLV.lig_0>
-76.6701

>  <SCORE.INTRA.VDW>
0.197772

>  <SCORE.INTRA.VDW.0>
-1.53273

>  <SCORE.INTRA.norm>
0.0333645

>  <SCORE.RESTR>
0.601253

>  <SCORE.RESTR.CAVITY>
0.601253

>  <SCORE.RESTR.norm>
0.0273297

>  <SCORE.SYSTEM>
0

>  <SCORE.SYSTEM.CONST>
0

>  <SCORE.SYSTEM.DIHEDRAL>
0

>  <SCORE.SYSTEM.SOLV>
0

>  <SCORE.SYSTEM.norm>
0

>  <SCORE.heavy>
22

>  <SCORE.norm>
-0.354407

>  <RMSD>
6.274

$$$$
2f4s_lig
 OpenBabel11021811433D
libRbt.so/2013.1/901 2013/11/27
 22 23  0  0  0  0  0  0  0  0999 V2000
   18.9734   12.0567   42.0928 N   0  0  0  0  0  0  0  0  0  0  0  0
   18.4129   15.8508   38.8576 N   0  0  0  0  0  0  0  0  0  0  0  0
   22.0147   17.6125   33.4792 N   0  0  0  0  0  0  0  0  0  0  0  0
   21.2188   11.8833   37.6842 O   0  0  0  0  0  0  0  0  0  0  0  0
   20.7777   12.7825   38.7424 C   0  0  2  0  0  0  0  0  0  0  0  0
   17.5777   14.7175   36.2321 N   0  0  0  0  0  0  0  0  0  0  0  0
   20.9794   10.9860   40.4138 O   0  0  0  0  0  0  0  0  0  0  0  0
   20.0910   11.9731   39.8769 C   0  0  1  0  0  0  0  0  0  0  0  0
   20.4397   14.6508   37.1920 O   0  0  0  0  0  0  0  0  0  0  0  0
   19.6436   12.8820   41.0152 C   0  0  1  0  0  0  0  0  0  0  0  0
   20.9297   16.3888   35.7483 O   0  0  0  0  0  0  0  0  0  0  0  0
   18.6557   13.9657   40.4649 C   0  0  0  0  0  0  0  0  0  0  0  0
   20.9403   14.3997   32.6614 O   0  0  0  0  0  0  0  0  0  0  0  0
   19.3938   14.7943   39.3443 C   0  0  1  0  0  0  0  0  0  0  0  0
   18.2225   14.1843   33.4848 O   0  0  0  0  0  0  0  0  0  0  0  0
   19.7803   13.8689   38.1762 C   0  0  2  0  0  0  0  0  0  0  0  0
   19.8431   15.7748   36.5697 C   0  0  1  0  0  0  0  0  0  0  0  0
   21.5104   15.5375   34.6718 C   0  0  2  0  0  0  0  0  0  0  0  0
   22.6171   16.3324   33.9720 C   0  0  0  0  0  0  0  0  0  0  0  0
   20.4115   15.2064   33.6869 C   0  0  2  0  0  0  0  0  0  0  0  0
   19.2708   14.4930   34.4107 C   0  0  1  0  0  0  0  0  0  0  0  0
   18.7229   15.4060   35.5351 C   0  0  1  0  0  0  0  0  0  0  0  0
  5  4  1  6  0  0  0
  5  8  1  0  0  0  0
  5 16  1  0  0  0  0
  8  7  1  1  0  0  0
  8 10  1  0  0  0  0
 10  1  1  1  0  0  0
 10 12  1  0  0  0  0
 11 18  1  0  0  0  0
 12 14  1  0  0  0  0
 14  2  1  6  0  0  0
 14 16  1  0  0  0  0
 16  9  1  6  0  0  0
 17  9  1  6  0  0  0
 17 11  1  0  0  0  0
 17 22  1  0  0  0  0
 18 19  1  6  0  0  0
 18 20  1  0  0  0  0
 19  3  1  0  0  0  0
 20 13  1  6  0  0  0
 20 21  1  0  0  0  0
 21 15  1  6  0  0  0
 21 22  1  0  0  0  0
 22  6  1  1  0  0  0
M  END
>  <CHROM.1>
-175.01302832,173.05335934,-56.23155731,20.03867172,14.33154588,36.97674777
1.73329083,-0.59437113,2.10458474

>  <Name>
2f4s_lig

>  <RI>
2.00194e+07

>  <Rbt.Current_Directory>
/home/itssahil/PROJECTS/Mol_Feturizer/New_Systems/rnas/2f4s

>  <Rbt.Executable>
rbdock ($Id: //depot/dev/client3/rdock/2013.1/src/exe/rbdock.cxx#4 $)

>  <Rbt.Library>
libRbt.so (2013.1, Build901 2013/11/27)

>  <Rbt.Parameter_File>
/export/apps/rDock/src/rDock_2013.1_src/data/scripts/dock_solv.prm

>  <Rbt.Receptor>
prm/pocket_docking_6.prm

>  <SCORE>
-9.57273

>  <SCORE.INTER>
-12.851

>  <SCORE.INTER.CONST>
1

>  <SCORE.INTER.POLAR>
-1.72813

>  <SCORE.INTER.ROT>
3

>  <SCORE.INTER.SOLV>
13.7393

>  <SCORE.INTER.VDW>
-12.9867

>  <SCORE.INTER.norm>
-0.584138

>  <SCORE.INTRA>
3.27831

>  <SCORE.INTRA.DIHEDRAL>
-1.11366

>  <SCORE.INTRA.DIHEDRAL.0>
1.67653

>  <SCORE.INTRA.POLAR>
0

>  <SCORE.INTRA.POLAR.0>
0

>  <SCORE.INTRA.REPUL>
0

>  <SCORE.INTRA.REPUL.0>
0

>  <SCORE.INTRA.SOLV>
5.82265

>  <SCORE.INTRA.SOLV.lig_0>
-76.6701

>  <SCORE.INTRA.VDW>
0.923821

>  <SCORE.INTRA.VDW.0>
-1.53273

>  <SCORE.INTRA.norm>
0.149014

>  <SCORE.RESTR>
0

>  <SCORE.RESTR.CAVITY>
0

>  <SCORE.RESTR.norm>
0

>  <SCORE.SYSTEM>
0

>  <SCORE.SYSTEM.CONST>
0

>  <SCORE.SYSTEM.DIHEDRAL>
0

>  <SCORE.SYSTEM.SOLV>
0

>  <SCORE.SYSTEM.norm>
0

>  <SCORE.heavy>
22

>  <SCORE.norm>
-0.435124

>  <RMSD>
6.276

$$$$
2f4s_lig
 OpenBabel11021811433D
libRbt.so/2013.1/901 2013/11/27
 22 23  0  0  0  0  0  0  0  0999 V2000
   18.9294   12.0790   42.1080 N   0  0  0  0  0  0  0  0  0  0  0  0
   18.5028   15.8489   38.8244 N   0  0  0  0  0  0  0  0  0  0  0  0
   18.4213   12.5206   33.1036 N   0  0  0  0  0  0  0  0  0  0  0  0
   21.2002   11.7879   37.7188 O   0  0  0  0  0  0  0  0  0  0  0  0
   20.7779   12.7121   38.7630 C   0  0  2  0  0  0  0  0  0  0  0  0
   22.7137   15.8545   35.5779 N   0  0  0  0  0  0  0  0  0  0  0  0
   20.9153   10.9306   40.4568 O   0  0  0  0  0  0  0  0  0  0  0  0
   20.0599   11.9366   39.9017 C   0  0  1  0  0  0  0  0  0  0  0  0
   20.5056   14.5708   37.1883 O   0  0  0  0  0  0  0  0  0  0  0  0
   19.6310   12.8717   41.0259 C   0  0  1  0  0  0  0  0  0  0  0  0
   19.9563   13.2841   35.3477 O   0  0  0  0  0  0  0  0  0  0  0  0
   18.6790   13.9769   40.4556 C   0  0  0  0  0  0  0  0  0  0  0  0
   18.2883   15.9428   33.4412 O   0  0  0  0  0  0  0  0  0  0  0  0
   19.4490   14.7702   39.3309 C   0  0  1  0  0  0  0  0  0  0  0  0
   20.9699   16.8957   33.5474 O   0  0  0  0  0  0  0  0  0  0  0  0
   19.8167   13.8202   38.1766 C   0  0  2  0  0  0  0  0  0  0  0  0
   21.0828   13.9850   36.0349 C   0  0  1  0  0  0  0  0  0  0  0  0
   18.8206   14.1366   34.8956 C   0  0  2  0  0  0  0  0  0  0  0  0
   17.7670   13.2331   34.2476 C   0  0  0  0  0  0  0  0  0  0  0  0
   19.3474   15.1255   33.8798 C   0  0  2  0  0  0  0  0  0  0  0  0
   20.4605   15.9627   34.5074 C   0  0  1  0  0  0  0  0  0  0  0  0
   21.6004   15.0297   34.9851 C   0  0  1  0  0  0  0  0  0  0  0  0
  5  4  1  6  0  0  0
  5  8  1  0  0  0  0
  5 16  1  0  0  0  0
  8  7  1  1  0  0  0
  8 10  1  0  0  0  0
 10  1  1  1  0  0  0
 10 12  1  0  0  0  0
 11 18  1  0  0  0  0
 12 14  1  0  0  0  0
 14  2  1  6  0  0  0
 14 16  1  0  0  0  0
 16  9  1  6  0  0  0
 17  9  1  1  0  0  0
 17 11  1  0  0  0  0
 17 22  1  0  0  0  0
 18 19  1  6  0  0  0
 18 20  1  0  0  0  0
 19  3  1  0  0  0  0
 20 13  1  1  0  0  0
 20 21  1  0  0  0  0
 21 15  1  6  0  0  0
 21 22  1  0  0  0  0
 22  6  1  1  0  0  0
M  END
>  <CHROM.1>
58.02653241,57.33928080,-58.78076161,19.91320062,13.96234025,36.94589348
1.56694943,0.98304694,1.96039091

>  <Name>
2f4s_lig

>  <RI>
2.26097e+07

>  <Rbt.Current_Directory>
/home/itssahil/PROJECTS/Mol_Feturizer/New_Systems/rnas/2f4s

>  <Rbt.Executable>
rbdock ($Id: //depot/dev/client3/rdock/2013.1/src/exe/rbdock.cxx#4 $)

>  <Rbt.Library>
libRbt.so (2013.1, Build901 2013/11/27)

>  <Rbt.Parameter_File>
/export/apps/rDock/src/rDock_2013.1_src/data/scripts/dock_solv.prm

>  <Rbt.Receptor>
prm/pocket_docking_7.prm

>  <SCORE>
-9.58194

>  <SCORE.INTER>
-10.2079

>  <SCORE.INTER.CONST>
1

>  <SCORE.INTER.POLAR>
-1.00729

>  <SCORE.INTER.ROT>
3

>  <SCORE.INTER.SOLV>
15.4165

>  <SCORE.INTER.VDW>
-14.1865

>  <SCORE.INTER.norm>
-0.463997

>  <SCORE.INTRA>
0.625988

>  <SCORE.INTRA.DIHEDRAL>
-1.45688

>  <SCORE.INTRA.DIHEDRAL.0>
1.67653

>  <SCORE.INTRA.POLAR>
0

>  <SCORE.INTRA.POLAR.0>
0

>  <SCORE.INTRA.REPUL>
0

>  <SCORE.INTRA.REPUL.0>
0

>  <SCORE.INTRA.SOLV>
1.34597

>  <SCORE.INTRA.SOLV.lig_0>
-76.6701

>  <SCORE.INTRA.VDW>
0.68144

>  <SCORE.INTRA.VDW.0>
-1.53273

>  <SCORE.INTRA.norm>
0.028454

>  <SCORE.RESTR>
0

>  <SCORE.RESTR.CAVITY>
0

>  <SCORE.RESTR.norm>
0

>  <SCORE.SYSTEM>
0

>  <SCORE.SYSTEM.CONST>
0

>  <SCORE.SYSTEM.DIHEDRAL>
0

>  <SCORE.SYSTEM.SOLV>
0

>  <SCORE.SYSTEM.norm>
0

>  <SCORE.heavy>
22

>  <SCORE.norm>
-0.435543

>  <RMSD>
6.289

$$$$
2f4s_lig
 OpenBabel11021811433D
libRbt.so/2013.1/901 2013/11/27
 22 23  0  0  0  0  0  0  0  0999 V2000
   20.5987    9.8035   41.7768 N   0  0  0  0  0  0  0  0  0  0  0  0
   18.3462   14.1534   40.6904 N   0  0  0  0  0  0  0  0  0  0  0  0
   20.0186   19.3471   37.3542 N   0  0  0  0  0  0  0  0  0  0  0  0
   21.7170   12.1716   37.5758 O   0  0  0  0  0  0  0  0  0  0  0  0
   21.3213   12.3676   38.9643 C   0  0  2  0  0  0  0  0  0  0  0  0
   18.1220   13.7736   36.3613 N   0  0  0  0  0  0  0  0  0  0  0  0
   22.3608   10.2308   39.6085 O   0  0  0  0  0  0  0  0  0  0  0  0
   21.1495   10.9932   39.6679 C   0  0  1  0  0  0  0  0  0  0  0  0
   20.1640   14.4719   38.4732 O   0  0  0  0  0  0  0  0  0  0  0  0
   20.7642   11.1632   41.1324 C   0  0  1  0  0  0  0  0  0  0  0  0
   19.6387   16.7061   38.1953 O   0  0  0  0  0  0  0  0  0  0  0  0
   19.4319   11.9803   41.2336 C   0  0  0  0  0  0  0  0  0  0  0  0
   21.4028   17.1743   35.0087 O   0  0  0  0  0  0  0  0  0  0  0  0
   19.6502   13.3827   40.5460 C   0  0  1  0  0  0  0  0  0  0  0  0
   19.3741   15.3116   34.2841 O   0  0  0  0  0  0  0  0  0  0  0  0
   19.9756   13.1903   39.0536 C   0  0  2  0  0  0  0  0  0  0  0  0
   19.0905   15.3192   38.1041 C   0  0  1  0  0  0  0  0  0  0  0  0
   20.7882   17.0261   37.3025 C   0  0  2  0  0  0  0  0  0  0  0  0
   21.2164   18.4729   37.5667 C   0  0  0  0  0  0  0  0  0  0  0  0
   20.3288   16.8777   35.8693 C   0  0  2  0  0  0  0  0  0  0  0  0
   19.8190   15.4562   35.6379 C   0  0  1  0  0  0  0  0  0  0  0  0
   18.6471   15.1647   36.6072 C   0  0  1  0  0  0  0  0  0  0  0  0
  5  4  1  6  0  0  0
  5  8  1  0  0  0  0
  5 16  1  0  0  0  0
  8  7  1  1  0  0  0
  8 10  1  0  0  0  0
 10  1  1  6  0  0  0
 10 12  1  0  0  0  0
 11 18  1  0  0  0  0
 12 14  1  0  0  0  0
 14  2  1  6  0  0  0
 14 16  1  0  0  0  0
 16  9  1  1  0  0  0
 17  9  1  6  0  0  0
 17 11  1  0  0  0  0
 17 22  1  0  0  0  0
 18 19  1  6  0  0  0
 18 20  1  0  0  0  0
 19  3  1  0  0  0  0
 20 13  1  6  0  0  0
 20 21  1  0  0  0  0
 21 15  1  6  0  0  0
 21 22  1  0  0  0  0
 22  6  1  1  0  0  0
M  END
>  <CHROM.1>
164.23164897,152.78739247,-56.28133306,20.20229298,14.30558783,38.18614764
1.31230194,-1.25882780,2.28164551

>  <Name>
2f4s_lig

>  <RI>
0

>  <Rbt.Current_Directory>
/home/itssahil/PROJECTS/Mol_Feturizer/New_Systems/rnas/2f4s

>  <Rbt.Executable>
rbdock ($Id: //depot/dev/client3/rdock/2013.1/src/exe/rbdock.cxx#4 $)

>  <Rbt.Library>
libRbt.so (2013.1, Build901 2013/11/27)

>  <Rbt.Parameter_File>
/export/apps/rDock/src/rDock_2013.1_src/data/scripts/dock_solv.prm

>  <Rbt.Receptor>
prm/pocket_docking_5.prm

>  <SCORE>
-3.57612

>  <SCORE.INTER>
-6.677

>  <SCORE.INTER.CONST>
1

>  <SCORE.INTER.POLAR>
-0.951427

>  <SCORE.INTER.ROT>
3

>  <SCORE.INTER.SOLV>
17.9619

>  <SCORE.INTER.VDW>
-12.8672

>  <SCORE.INTER.norm>
-0.3035

>  <SCORE.INTRA>
3.10087

>  <SCORE.INTRA.DIHEDRAL>
2.65981

>  <SCORE.INTRA.DIHEDRAL.0>
1.67653

>  <SCORE.INTRA.POLAR>
0

>  <SCORE.INTRA.POLAR.0>
0

>  <SCORE.INTRA.REPUL>
0

>  <SCORE.INTRA.REPUL.0>
0

>  <SCORE.INTRA.SOLV>
3.19039

>  <SCORE.INTRA.SOLV.lig_0>
-76.6701

>  <SCORE.INTRA.VDW>
0.175773

>  <SCORE.INTRA.VDW.0>
-1.53273

>  <SCORE.INTRA.norm>
0.140949

>  <SCORE.RESTR>
0

>  <SCORE.RESTR.CAVITY>
0

>  <SCORE.RESTR.norm>
0

>  <SCORE.SYSTEM>
0

>  <SCORE.SYSTEM.CONST>
0

>  <SCORE.SYSTEM.DIHEDRAL>
0

>  <SCORE.SYSTEM.SOLV>
0

>  <SCORE.SYSTEM.norm>
0

>  <SCORE.heavy>
22

>  <SCORE.norm>
-0.162551

>  <RMSD>
6.297

$$$$
2f4s_lig
 OpenBabel11021811433D
libRbt.so/2013.1/901 2013/11/27
 22 23  0  0  0  0  0  0  0  0999 V2000
   22.2942    9.4263   41.8542 N   0  0  0  0  0  0  0  0  0  0  0  0
   21.8176   12.4761   37.8985 N   0  0  0  0  0  0  0  0  0  0  0  0
   18.6528   14.3501   34.2577 N   0  0  0  0  0  0  0  0  0  0  0  0
   18.9780   13.1003   41.9651 O   0  0  0  0  0  0  0  0  0  0  0  0
   19.6422   12.1445   41.0887 C   0  0  2  0  0  0  0  0  0  0  0  0
   19.1342   16.5501   39.7872 N   0  0  0  0  0  0  0  0  0  0  0  0
   19.9660   10.5825   42.9640 O   0  0  0  0  0  0  0  0  0  0  0  0
   20.6378   11.2757   41.9057 C   0  0  1  0  0  0  0  0  0  0  0  0
   19.4785   13.6212   39.1391 O   0  0  0  0  0  0  0  0  0  0  0  0
   21.3287   10.2437   41.0227 C   0  0  1  0  0  0  0  0  0  0  0  0
   19.5716   14.1630   36.8934 O   0  0  0  0  0  0  0  0  0  0  0  0
   22.0888   10.9702   39.8618 C   0  0  0  0  0  0  0  0  0  0  0  0
   15.9814   14.7952   36.4499 O   0  0  0  0  0  0  0  0  0  0  0  0
   21.0464   11.8111   39.0291 C   0  0  1  0  0  0  0  0  0  0  0  0
   16.7171   16.8604   38.2676 O   0  0  0  0  0  0  0  0  0  0  0  0
   20.4071   12.8886   39.9238 C   0  0  2  0  0  0  0  0  0  0  0  0
   19.8604   14.6713   38.2684 C   0  0  1  0  0  0  0  0  0  0  0  0
   18.1506   13.8283   36.5939 C   0  0  2  0  0  0  0  0  0  0  0  0
   18.0710   13.3029   35.1573 C   0  0  0  0  0  0  0  0  0  0  0  0
   17.3295   15.0913   36.7275 C   0  0  2  0  0  0  0  0  0  0  0  0
   17.4856   15.6588   38.1372 C   0  0  1  0  0  0  0  0  0  0  0  0
   18.9798   15.9622   38.4081 C   0  0  1  0  0  0  0  0  0  0  0  0
  5  4  1  1  0  0  0
  5  8  1  0  0  0  0
  5 16  1  0  0  0  0
  8  7  1  1  0  0  0
  8 10  1  0  0  0  0
 10  1  1  1  0  0  0
 10 12  1  0  0  0  0
 11 18  1  0  0  0  0
 12 14  1  0  0  0  0
 14  2  1  6  0  0  0
 14 16  1  0  0  0  0
 16  9  1  6  0  0  0
 17  9  1  1  0  0  0
 17 11  1  0  0  0  0
 17 22  1  0  0  0  0
 18 19  1  6  0  0  0
 18 20  1  0  0  0  0
 19  3  1  0  0  0  0
 20 13  1  1  0  0  0
 20 21  1  0  0  0  0
 21 15  1  6  0  0  0
 21 22  1  0  0  0  0
 22  6  1  1  0  0  0
M  END
>  <CHROM.1>
161.89109741,113.07791885,-56.27390975,19.39764348,13.37234601,38.89877195
-0.73373929,0.89422031,-1.54831711

>  <Name>
2f4s_lig

>  <RI>
2.00194e+07

>  <Rbt.Current_Directory>
/home/itssahil/PROJECTS/Mol_Feturizer/New_Systems/rnas/2f4s

>  <Rbt.Executable>
rbdock ($Id: //depot/dev/client3/rdock/2013.1/src/exe/rbdock.cxx#4 $)

>  <Rbt.Library>
libRbt.so (2013.1, Build901 2013/11/27)

>  <Rbt.Parameter_File>
/export/apps/rDock/src/rDock_2013.1_src/data/scripts/dock_solv.prm

>  <Rbt.Receptor>
prm/pocket_docking_6.prm

>  <SCORE>
-7.76755

>  <SCORE.INTER>
-12.7304

>  <SCORE.INTER.CONST>
1

>  <SCORE.INTER.POLAR>
-0.678353

>  <SCORE.INTER.ROT>
3

>  <SCORE.INTER.SOLV>
13.5148

>  <SCORE.INTER.VDW>
-16.3307

>  <SCORE.INTER.norm>
-0.578653

>  <SCORE.INTRA>
4.96255

>  <SCORE.INTRA.DIHEDRAL>
6.76052

>  <SCORE.INTRA.DIHEDRAL.0>
1.67653

>  <SCORE.INTRA.POLAR>
0

>  <SCORE.INTRA.POLAR.0>
0

>  <SCORE.INTRA.REPUL>
0

>  <SCORE.INTRA.REPUL.0>
0

>  <SCORE.INTRA.SOLV>
3.14078

>  <SCORE.INTRA.SOLV.lig_0>
-76.6701

>  <SCORE.INTRA.VDW>
0.0119013

>  <SCORE.INTRA.VDW.0>
-1.53273

>  <SCORE.INTRA.norm>
0.225571

>  <SCORE.RESTR>
0.000260129

>  <SCORE.RESTR.CAVITY>
0.000260129

>  <SCORE.RESTR.norm>
1.1824e-05

>  <SCORE.SYSTEM>
0

>  <SCORE.SYSTEM.CONST>
0

>  <SCORE.SYSTEM.DIHEDRAL>
0

>  <SCORE.SYSTEM.SOLV>
0

>  <SCORE.SYSTEM.norm>
0

>  <SCORE.heavy>
22

>  <SCORE.norm>
-0.35307

>  <RMSD>
6.299

$$$$
2f4s_lig
 OpenBabel11021811433D
libRbt.so/2013.1/901 2013/11/27
 22 23  0  0  0  0  0  0  0  0999 V2000
   19.3054   12.6216   42.1550 N   0  0  0  0  0  0  0  0  0  0  0  0
   17.6451   15.3628   38.2943 N   0  0  0  0  0  0  0  0  0  0  0  0
   20.1230   11.9599   32.6845 N   0  0  0  0  0  0  0  0  0  0  0  0
   20.5661   11.3782   37.5321 O   0  0  0  0  0  0  0  0  0  0  0  0
   20.2618   12.5060   38.4028 C   0  0  2  0  0  0  0  0  0  0  0  0
   20.9948   16.3077   37.3188 N   0  0  0  0  0  0  0  0  0  0  0  0
   21.0158   11.2426   40.3768 O   0  0  0  0  0  0  0  0  0  0  0  0
   19.9280   11.9995   39.8330 C   0  0  1  0  0  0  0  0  0  0  0  0
   19.3932   13.8643   36.5564 O   0  0  0  0  0  0  0  0  0  0  0  0
   19.6335   13.1581   40.7780 C   0  0  1  0  0  0  0  0  0  0  0  0
   20.8132   13.5341   34.7620 O   0  0  0  0  0  0  0  0  0  0  0  0
   18.4354   13.9990   40.2208 C   0  0  0  0  0  0  0  0  0  0  0  0
   19.4717   16.2195   32.6466 O   0  0  0  0  0  0  0  0  0  0  0  0
   18.8199   14.5305   38.7867 C   0  0  1  0  0  0  0  0  0  0  0  0
   20.5452   17.6856   34.8395 O   0  0  0  0  0  0  0  0  0  0  0  0
   19.0508   13.3448   37.8322 C   0  0  2  0  0  0  0  0  0  0  0  0
   20.7303   14.0897   36.1465 C   0  0  1  0  0  0  0  0  0  0  0  0
   19.9219   14.1560   33.7422 C   0  0  2  0  0  0  0  0  0  0  0  0
   20.1353   13.4324   32.4091 C   0  0  0  0  0  0  0  0  0  0  0  0
   20.3049   15.6127   33.6056 C   0  0  2  0  0  0  0  0  0  0  0  0
   20.1754   16.3071   34.9602 C   0  0  1  0  0  0  0  0  0  0  0  0
   21.0974   15.6068   35.9886 C   0  0  1  0  0  0  0  0  0  0  0  0
  5  4  1  6  0  0  0
  5  8  1  0  0  0  0
  5 16  1  0  0  0  0
  8  7  1  1  0  0  0
  8 10  1  0  0  0  0
 10  1  1  1  0  0  0
 10 12  1  0  0  0  0
 11 18  1  0  0  0  0
 12 14  1  0  0  0  0
 14  2  1  6  0  0  0
 14 16  1  0  0  0  0
 16  9  1  6  0  0  0
 17  9  1  6  0  0  0
 17 11  1  0  0  0  0
 17 22  1  0  0  0  0
 18 19  1  6  0  0  0
 18 20  1  0  0  0  0
 19  3  1  0  0  0  0
 20 13  1  6  0  0  0
 20 21  1  0  0  0  0
 21 15  1  6  0  0  0
 21 22  1  0  0  0  0
 22  6  1  1  0  0  0
M  END
>  <CHROM.1>
-24.78084685,134.57097747,46.14845212,19.93807768,14.03678298,36.77934074
1.96979388,-1.36679369,2.30921347

>  <Name>
2f4s_lig

>  <RI>
2.26097e+07

>  <Rbt.Current_Directory>
/home/itssahil/PROJECTS/Mol_Feturizer/New_Systems/rnas/2f4s

>  <Rbt.Executable>
rbdock ($Id: //depot/dev/client3/rdock/2013.1/src/exe/rbdock.cxx#4 $)

>  <Rbt.Library>
libRbt.so (2013.1, Build901 2013/11/27)

>  <Rbt.Parameter_File>
/export/apps/rDock/src/rDock_2013.1_src/data/scripts/dock_solv.prm

>  <Rbt.Receptor>
prm/pocket_docking_7.prm

>  <SCORE>
-5.68777

>  <SCORE.INTER>
-12.8616

>  <SCORE.INTER.CONST>
1

>  <SCORE.INTER.POLAR>
-1.92527

>  <SCORE.INTER.ROT>
3

>  <SCORE.INTER.SOLV>
18.4701

>  <SCORE.INTER.VDW>
-13.9135

>  <SCORE.INTER.norm>
-0.584616

>  <SCORE.INTRA>
7.16686

>  <SCORE.INTRA.DIHEDRAL>
9.66598

>  <SCORE.INTRA.DIHEDRAL.0>
1.67653

>  <SCORE.INTRA.POLAR>
0

>  <SCORE.INTRA.POLAR.0>
0

>  <SCORE.INTRA.REPUL>
0

>  <SCORE.INTRA.REPUL.0>
0

>  <SCORE.INTRA.SOLV>
2.89287

>  <SCORE.INTRA.SOLV.lig_0>
-76.6701

>  <SCORE.INTRA.VDW>
0.887438

>  <SCORE.INTRA.VDW.0>
-1.53273

>  <SCORE.INTRA.norm>
0.325766

>  <SCORE.RESTR>
0.00692771

>  <SCORE.RESTR.CAVITY>
0.00692771

>  <SCORE.RESTR.norm>
0.000314896

>  <SCORE.SYSTEM>
0

>  <SCORE.SYSTEM.CONST>
0

>  <SCORE.SYSTEM.DIHEDRAL>
0

>  <SCORE.SYSTEM.SOLV>
0

>  <SCORE.SYSTEM.norm>
0

>  <SCORE.heavy>
22

>  <SCORE.norm>
-0.258535

>  <RMSD>
6.300

$$$$
2f4s_lig
 OpenBabel11021811433D
libRbt.so/2013.1/901 2013/11/27
 22 23  0  0  0  0  0  0  0  0999 V2000
   21.1371   10.0764   42.5127 N   0  0  0  0  0  0  0  0  0  0  0  0
   21.7759   11.9024   37.8830 N   0  0  0  0  0  0  0  0  0  0  0  0
   23.3733   15.7815   38.3847 N   0  0  0  0  0  0  0  0  0  0  0  0
   18.5518   14.0372   41.0513 O   0  0  0  0  0  0  0  0  0  0  0  0
   19.1501   12.7909   40.5914 C   0  0  2  0  0  0  0  0  0  0  0  0
   17.1102   14.7297   36.8766 N   0  0  0  0  0  0  0  0  0  0  0  0
   18.9217   11.8019   42.8345 O   0  0  0  0  0  0  0  0  0  0  0  0
   19.8489   12.0672   41.7754 C   0  0  1  0  0  0  0  0  0  0  0  0
   19.5296   13.6563   38.3296 O   0  0  0  0  0  0  0  0  0  0  0  0
   20.4605   10.7432   41.3340 C   0  0  1  0  0  0  0  0  0  0  0  0
   20.4857   15.7585   38.2221 O   0  0  0  0  0  0  0  0  0  0  0  0
   21.4940   10.9988   40.1852 C   0  0  0  0  0  0  0  0  0  0  0  0
   21.4074   15.6353   34.6695 O   0  0  0  0  0  0  0  0  0  0  0  0
   20.7469   11.6978   38.9851 C   0  0  1  0  0  0  0  0  0  0  0  0
   18.5640   15.5450   34.5379 O   0  0  0  0  0  0  0  0  0  0  0  0
   20.1920   13.0615   39.4352 C   0  0  2  0  0  0  0  0  0  0  0  0
   19.1832   15.0290   38.2826 C   0  0  1  0  0  0  0  0  0  0  0  0
   21.3516   15.4751   37.0427 C   0  0  2  0  0  0  0  0  0  0  0  0
   22.6398   16.2920   37.1823 C   0  0  0  0  0  0  0  0  0  0  0  0
   20.6056   15.8971   35.7967 C   0  0  2  0  0  0  0  0  0  0  0  0
   19.2797   15.1431   35.7117 C   0  0  1  0  0  0  0  0  0  0  0  0
   18.4316   15.4483   36.9709 C   0  0  1  0  0  0  0  0  0  0  0  0
  5  4  1  1  0  0  0
  5  8  1  0  0  0  0
  5 16  1  0  0  0  0
  8  7  1  1  0  0  0
  8 10  1  0  0  0  0
 10  1  1  1  0  0  0
 10 12  1  0  0  0  0
 11 18  1  0  0  0  0
 12 14  1  0  0  0  0
 14  2  1  6  0  0  0
 14 16  1  0  0  0  0
 16  9  1  6  0  0  0
 17  9  1  6  0  0  0
 17 11  1  0  0  0  0
 17 22  1  0  0  0  0
 18 19  1  1  0  0  0
 18 20  1  0  0  0  0
 19  3  1  0  0  0  0
 20 13  1  6  0  0  0
 20 21  1  0  0  0  0
 21 15  1  6  0  0  0
 21 22  1  0  0  0  0
 22  6  1  6  0  0  0
M  END
>  <CHROM.1>
78.80621376,67.19401224,65.05440107,20.17778006,13.82394780,38.56037494,-1.57998635
0.07352901,-0.92540198

>  <Name>
2f4s_lig

>  <RI>
0

>  <Rbt.Current_Directory>
/home/itssahil/PROJECTS/Mol_Feturizer/New_Systems/rnas/2f4s

>  <Rbt.Executable>
rbdock ($Id: //depot/dev/client3/rdock/2013.1/src/exe/rbdock.cxx#4 $)

>  <Rbt.Library>
libRbt.so (2013.1, Build901 2013/11/27)

>  <Rbt.Parameter_File>
/export/apps/rDock/src/rDock_2013.1_src/data/scripts/dock_solv.prm

>  <Rbt.Receptor>
prm/pocket_docking_5.prm

>  <SCORE>
-9.78287

>  <SCORE.INTER>
-10.0712

>  <SCORE.INTER.CONST>
1

>  <SCORE.INTER.POLAR>
-0.867448

>  <SCORE.INTER.ROT>
3

>  <SCORE.INTER.SOLV>
16.9434

>  <SCORE.INTER.VDW>
-15.0705

>  <SCORE.INTER.norm>
-0.457783

>  <SCORE.INTRA>
0.288364

>  <SCORE.INTRA.DIHEDRAL>
0.416953

>  <SCORE.INTRA.DIHEDRAL.0>
1.67653

>  <SCORE.INTRA.POLAR>
0

>  <SCORE.INTRA.POLAR.0>
0

>  <SCORE.INTRA.REPUL>
0

>  <SCORE.INTRA.REPUL.0>
0

>  <SCORE.INTRA.SOLV>
0.622238

>  <SCORE.INTRA.SOLV.lig_0>
-76.6701

>  <SCORE.INTRA.VDW>
-0.231232

>  <SCORE.INTRA.VDW.0>
-1.53273

>  <SCORE.INTRA.norm>
0.0131075

>  <SCORE.RESTR>
0

>  <SCORE.RESTR.CAVITY>
0

>  <SCORE.RESTR.norm>
0

>  <SCORE.SYSTEM>
0

>  <SCORE.SYSTEM.CONST>
0

>  <SCORE.SYSTEM.DIHEDRAL>
0

>  <SCORE.SYSTEM.SOLV>
0

>  <SCORE.SYSTEM.norm>
0

>  <SCORE.heavy>
22

>  <SCORE.norm>
-0.444676

>  <RMSD>
6.301

$$$$
2f4s_lig
 OpenBabel11021811433D
libRbt.so/2013.1/901 2013/11/27
 22 23  0  0  0  0  0  0  0  0999 V2000
   18.9340   12.0279   41.9650 N   0  0  0  0  0  0  0  0  0  0  0  0
   18.5183   15.9148   38.8193 N   0  0  0  0  0  0  0  0  0  0  0  0
   17.5256   12.9429   34.6890 N   0  0  0  0  0  0  0  0  0  0  0  0
   21.3810   11.9834   37.6618 O   0  0  0  0  0  0  0  0  0  0  0  0
   20.8902   12.8513   38.7242 C   0  0  2  0  0  0  0  0  0  0  0  0
   23.1211   16.0045   36.0613 N   0  0  0  0  0  0  0  0  0  0  0  0
   21.0170   11.0069   40.3501 O   0  0  0  0  0  0  0  0  0  0  0  0
   20.1530   12.0092   39.8016 C   0  0  1  0  0  0  0  0  0  0  0  0
   20.6216   14.7641   37.2150 O   0  0  0  0  0  0  0  0  0  0  0  0
   19.6521   12.8844   40.9440 C   0  0  1  0  0  0  0  0  0  0  0  0
   20.2669   13.6858   35.2009 O   0  0  0  0  0  0  0  0  0  0  0  0
   18.6892   13.9836   40.3805 C   0  0  0  0  0  0  0  0  0  0  0  0
   19.0735   16.6192   33.3418 O   0  0  0  0  0  0  0  0  0  0  0  0
   19.4772   14.8446   39.3199 C   0  0  1  0  0  0  0  0  0  0  0  0
   21.7663   17.3477   33.9147 O   0  0  0  0  0  0  0  0  0  0  0  0
   19.9185   13.9538   38.1444 C   0  0  2  0  0  0  0  0  0  0  0  0
   21.3230   14.2356   36.1035 C   0  0  1  0  0  0  0  0  0  0  0  0
   19.2677   14.6596   34.6772 C   0  0  2  0  0  0  0  0  0  0  0  0
   18.2647   13.8995   33.8041 C   0  0  0  0  0  0  0  0  0  0  0  0
   20.0012   15.6874   33.8449 C   0  0  2  0  0  0  0  0  0  0  0  0
   21.0618   16.3788   34.6998 C   0  0  1  0  0  0  0  0  0  0  0  0
   22.0561   15.3224   35.2417 C   0  0  1  0  0  0  0  0  0  0  0  0
  5  4  1  6  0  0  0
  5  8  1  0  0  0  0
  5 16  1  0  0  0  0
  8  7  1  1  0  0  0
  8 10  1  0  0  0  0
 10  1  1  1  0  0  0
 10 12  1  0  0  0  0
 11 18  1  0  0  0  0
 12 14  1  0  0  0  0
 14  2  1  6  0  0  0
 14 16  1  0  0  0  0
 16  9  1  6  0  0  0
 17  9  1  1  0  0  0
 17 11  1  0  0  0  0
 17 22  1  0  0  0  0
 18 19  1  6  0  0  0
 18 20  1  0  0  0  0
 19  3  1  0  0  0  0
 20 13  1  1  0  0  0
 20 21  1  0  0  0  0
 21 15  1  6  0  0  0
 21 22  1  0  0  0  0
 22  6  1  1  0  0  0
M  END
>  <CHROM.1>
54.42952231,67.66393514,64.48222847,20.14874782,14.22608404,37.00836058,1.65183331
0.40296295,2.02353814

>  <Name>
2f4s_lig

>  <RI>
0

>  <Rbt.Current_Directory>
/home/itssahil/PROJECTS/Mol_Feturizer/New_Systems/rnas/2f4s

>  <Rbt.Executable>
rbdock ($Id: //depot/dev/client3/rdock/2013.1/src/exe/rbdock.cxx#4 $)

>  <Rbt.Library>
libRbt.so (2013.1, Build901 2013/11/27)

>  <Rbt.Parameter_File>
/export/apps/rDock/src/rDock_2013.1_src/data/scripts/dock_solv.prm

>  <Rbt.Receptor>
prm/pocket_docking_8.prm

>  <SCORE>
-8.24827

>  <SCORE.INTER>
-8.26049

>  <SCORE.INTER.CONST>
1

>  <SCORE.INTER.POLAR>
-0.821803

>  <SCORE.INTER.ROT>
3

>  <SCORE.INTER.SOLV>
17.3273

>  <SCORE.INTER.VDW>
-14.1434

>  <SCORE.INTER.norm>
-0.375477

>  <SCORE.INTRA>
0.012217

>  <SCORE.INTRA.DIHEDRAL>
-1.01361

>  <SCORE.INTRA.DIHEDRAL.0>
1.67653

>  <SCORE.INTRA.POLAR>
0

>  <SCORE.INTRA.POLAR.0>
0

>  <SCORE.INTRA.REPUL>
0

>  <SCORE.INTRA.REPUL.0>
0

>  <SCORE.INTRA.SOLV>
-0.270715

>  <SCORE.INTRA.SOLV.lig_0>
-76.6701

>  <SCORE.INTRA.VDW>
0.654379

>  <SCORE.INTRA.VDW.0>
-1.53273

>  <SCORE.INTRA.norm>
0.000555316

>  <SCORE.RESTR>
0

>  <SCORE.RESTR.CAVITY>
0

>  <SCORE.RESTR.norm>
0

>  <SCORE.SYSTEM>
0

>  <SCORE.SYSTEM.CONST>
0

>  <SCORE.SYSTEM.DIHEDRAL>
0

>  <SCORE.SYSTEM.SOLV>
0

>  <SCORE.SYSTEM.norm>
0

>  <SCORE.heavy>
22

>  <SCORE.norm>
-0.374922

>  <RMSD>
6.303

$$$$
2f4s_lig
 OpenBabel11021811433D
libRbt.so/2013.1/901 2013/11/27
 22 23  0  0  0  0  0  0  0  0999 V2000
   18.9175   11.7000   41.4158 N   0  0  0  0  0  0  0  0  0  0  0  0
   18.6930   16.1990   39.2057 N   0  0  0  0  0  0  0  0  0  0  0  0
   22.9294   19.0444   34.7485 N   0  0  0  0  0  0  0  0  0  0  0  0
   21.6142   12.5864   37.3601 O   0  0  0  0  0  0  0  0  0  0  0  0
   21.0626   13.2009   38.5605 C   0  0  2  0  0  0  0  0  0  0  0  0
   19.0532   14.5337   35.2720 N   0  0  0  0  0  0  0  0  0  0  0  0
   21.0909   11.0372   39.7347 O   0  0  0  0  0  0  0  0  0  0  0  0
   20.2620   12.1493   39.3770 C   0  0  1  0  0  0  0  0  0  0  0  0
   20.8860   15.4072   37.5069 O   0  0  0  0  0  0  0  0  0  0  0  0
   19.6957   12.7532   40.6563 C   0  0  1  0  0  0  0  0  0  0  0  0
   21.3790   17.3225   36.3096 O   0  0  0  0  0  0  0  0  0  0  0  0
   18.7691   13.9646   40.3001 C   0  0  0  0  0  0  0  0  0  0  0  0
   23.6018   15.7389   33.8526 O   0  0  0  0  0  0  0  0  0  0  0  0
   19.6193   15.0300   39.5070 C   0  0  1  0  0  0  0  0  0  0  0  0
   21.1054   14.5017   33.2632 O   0  0  0  0  0  0  0  0  0  0  0  0
   20.1282   14.4193   38.1886 C   0  0  2  0  0  0  0  0  0  0  0  0
   20.3233   16.2944   36.5567 C   0  0  1  0  0  0  0  0  0  0  0  0
   22.6693   16.8287   35.7511 C   0  0  2  0  0  0  0  0  0  0  0  0
   23.6179   18.0218   35.5998 C   0  0  0  0  0  0  0  0  0  0  0  0
   22.3935   16.2140   34.3970 C   0  0  2  0  0  0  0  0  0  0  0  0
   21.3776   15.0826   34.5439 C   0  0  1  0  0  0  0  0  0  0  0  0
   20.0683   15.6414   35.1533 C   0  0  1  0  0  0  0  0  0  0  0  0
  5  4  1  6  0  0  0
  5  8  1  0  0  0  0
  5 16  1  0  0  0  0
  8  7  1  1  0  0  0
  8 10  1  0  0  0  0
 10  1  1  6  0  0  0
 10 12  1  0  0  0  0
 11 18  1  0  0  0  0
 12 14  1  0  0  0  0
 14  2  1  6  0  0  0
 14 16  1  0  0  0  0
 16  9  1  1  0  0  0
 17  9  1  1  0  0  0
 17 11  1  0  0  0  0
 17 22  1  0  0  0  0
 18 19  1  6  0  0  0
 18 20  1  0  0  0  0
 19  3  1  0  0  0  0
 20 13  1  1  0  0  0
 20 21  1  0  0  0  0
 21 15  1  6  0  0  0
 21 22  1  0  0  0  0
 22  6  1  1  0  0  0
M  END
>  <CHROM.1>
151.42462871,168.63768711,-55.93021258,20.90747746,14.88073164,37.11322139
2.47878936,-1.09666604,3.07230992

>  <Name>
2f4s_lig

>  <RI>
2.46955e+07

>  <Rbt.Current_Directory>
/home/itssahil/PROJECTS/Mol_Feturizer/New_Systems/rnas/2f4s

>  <Rbt.Executable>
rbdock ($Id: //depot/dev/client3/rdock/2013.1/src/exe/rbdock.cxx#4 $)

>  <Rbt.Library>
libRbt.so (2013.1, Build901 2013/11/27)

>  <Rbt.Parameter_File>
/export/apps/rDock/src/rDock_2013.1_src/data/scripts/dock_solv.prm

>  <Rbt.Receptor>
prm/pocket_docking_3.prm

>  <SCORE>
-6.3888

>  <SCORE.INTER>
-9.24156

>  <SCORE.INTER.CONST>
1

>  <SCORE.INTER.POLAR>
-1.13973

>  <SCORE.INTER.ROT>
3

>  <SCORE.INTER.SOLV>
15.2942

>  <SCORE.INTER.VDW>
-13.06

>  <SCORE.INTER.norm>
-0.420071

>  <SCORE.INTRA>
2.85276

>  <SCORE.INTRA.DIHEDRAL>
2.44535

>  <SCORE.INTRA.DIHEDRAL.0>
1.67653

>  <SCORE.INTRA.POLAR>
0

>  <SCORE.INTRA.POLAR.0>
0

>  <SCORE.INTRA.REPUL>
0

>  <SCORE.INTRA.REPUL.0>
0

>  <SCORE.INTRA.SOLV>
3.61539

>  <SCORE.INTRA.SOLV.lig_0>
-76.6701

>  <SCORE.INTRA.VDW>
-0.177609

>  <SCORE.INTRA.VDW.0>
-1.53273

>  <SCORE.INTRA.norm>
0.129671

>  <SCORE.RESTR>
0

>  <SCORE.RESTR.CAVITY>
0

>  <SCORE.RESTR.norm>
0

>  <SCORE.SYSTEM>
0

>  <SCORE.SYSTEM.CONST>
0

>  <SCORE.SYSTEM.DIHEDRAL>
0

>  <SCORE.SYSTEM.SOLV>
0

>  <SCORE.SYSTEM.norm>
0

>  <SCORE.heavy>
22

>  <SCORE.norm>
-0.2904

>  <RMSD>
6.304

$$$$
2f4s_lig
 OpenBabel11021811433D
libRbt.so/2013.1/901 2013/11/27
 22 23  0  0  0  0  0  0  0  0999 V2000
   18.9759   11.6715   41.3500 N   0  0  0  0  0  0  0  0  0  0  0  0
   18.6394   15.8315   38.5648 N   0  0  0  0  0  0  0  0  0  0  0  0
   20.4859   14.2514   32.3606 N   0  0  0  0  0  0  0  0  0  0  0  0
   22.1404   12.3926   37.6119 O   0  0  0  0  0  0  0  0  0  0  0  0
   21.3605   13.0728   38.6376 C   0  0  2  0  0  0  0  0  0  0  0  0
   23.6751   16.6513   36.8062 N   0  0  0  0  0  0  0  0  0  0  0  0
   21.4276   11.0757   40.0758 O   0  0  0  0  0  0  0  0  0  0  0  0
   20.5554   12.0364   39.4689 C   0  0  1  0  0  0  0  0  0  0  0  0
   21.1255   15.1086   37.2926 O   0  0  0  0  0  0  0  0  0  0  0  0
   19.7505   12.7134   40.5715 C   0  0  1  0  0  0  0  0  0  0  0  0
   21.2251   14.3236   35.1203 O   0  0  0  0  0  0  0  0  0  0  0  0
   18.7722   13.7610   39.9402 C   0  0  0  0  0  0  0  0  0  0  0  0
   20.1343   17.4264   33.4867 O   0  0  0  0  0  0  0  0  0  0  0  0
   19.6214   14.8195   39.1367 C   0  0  1  0  0  0  0  0  0  0  0  0
   22.6118   18.2178   34.6467 O   0  0  0  0  0  0  0  0  0  0  0  0
   20.3762   14.1245   37.9889 C   0  0  2  0  0  0  0  0  0  0  0  0
   22.0546   14.7937   36.2707 C   0  0  1  0  0  0  0  0  0  0  0  0
   20.2552   15.3044   34.5561 C   0  0  2  0  0  0  0  0  0  0  0  0
   19.4904   14.6255   33.4157 C   0  0  0  0  0  0  0  0  0  0  0  0
   21.0343   16.4860   34.0231 C   0  0  2  0  0  0  0  0  0  0  0  0
   21.8645   17.1031   35.1472 C   0  0  1  0  0  0  0  0  0  0  0  0
   22.8334   16.0379   35.7169 C   0  0  1  0  0  0  0  0  0  0  0  0
  5  4  1  6  0  0  0
  5  8  1  0  0  0  0
  5 16  1  0  0  0  0
  8  7  1  1  0  0  0
  8 10  1  0  0  0  0
 10  1  1  6  0  0  0
 10 12  1  0  0  0  0
 11 18  1  0  0  0  0
 12 14  1  0  0  0  0
 14  2  1  6  0  0  0
 14 16  1  0  0  0  0
 16  9  1  1  0  0  0
 17  9  1  1  0  0  0
 17 11  1  0  0  0  0
 17 22  1  0  0  0  0
 18 19  1  6  0  0  0
 18 20  1  0  0  0  0
 19  3  1  0  0  0  0
 20 13  1  1  0  0  0
 20 21  1  0  0  0  0
 21 15  1  6  0  0  0
 21 22  1  0  0  0  0
 22  6  1  1  0  0  0
M  END
>  <CHROM.1>
55.89036908,70.03456781,-61.91523287,20.85572609,14.63283200,36.88919118
1.79810523,0.71427884,2.01046210

>  <Name>
2f4s_lig

>  <RI>
0

>  <Rbt.Current_Directory>
/home/itssahil/PROJECTS/Mol_Feturizer/New_Systems/rnas/2f4s

>  <Rbt.Executable>
rbdock ($Id: //depot/dev/client3/rdock/2013.1/src/exe/rbdock.cxx#4 $)

>  <Rbt.Library>
libRbt.so (2013.1, Build901 2013/11/27)

>  <Rbt.Parameter_File>
/export/apps/rDock/src/rDock_2013.1_src/data/scripts/dock_solv.prm

>  <Rbt.Receptor>
prm/pocket_docking_8.prm

>  <SCORE>
-9.01349

>  <SCORE.INTER>
-9.97536

>  <SCORE.INTER.CONST>
1

>  <SCORE.INTER.POLAR>
-0.922057

>  <SCORE.INTER.ROT>
3

>  <SCORE.INTER.SOLV>
14.922

>  <SCORE.INTER.VDW>
-14.1507

>  <SCORE.INTER.norm>
-0.453426

>  <SCORE.INTRA>
0.961869

>  <SCORE.INTRA.DIHEDRAL>
-0.951884

>  <SCORE.INTRA.DIHEDRAL.0>
1.67653

>  <SCORE.INTRA.POLAR>
0

>  <SCORE.INTRA.POLAR.0>
0

>  <SCORE.INTRA.REPUL>
0

>  <SCORE.INTRA.REPUL.0>
0

>  <SCORE.INTRA.SOLV>
1.29439

>  <SCORE.INTRA.SOLV.lig_0>
-76.6701

>  <SCORE.INTRA.VDW>
0.790615

>  <SCORE.INTRA.VDW.0>
-1.53273

>  <SCORE.INTRA.norm>
0.0437213

>  <SCORE.RESTR>
0

>  <SCORE.RESTR.CAVITY>
0

>  <SCORE.RESTR.norm>
0

>  <SCORE.SYSTEM>
0

>  <SCORE.SYSTEM.CONST>
0

>  <SCORE.SYSTEM.DIHEDRAL>
0

>  <SCORE.SYSTEM.SOLV>
0

>  <SCORE.SYSTEM.norm>
0

>  <SCORE.heavy>
22

>  <SCORE.norm>
-0.409704

>  <RMSD>
6.308

$$$$
2f4s_lig
 OpenBabel11021811433D
libRbt.so/2013.1/901 2013/11/27
 22 23  0  0  0  0  0  0  0  0999 V2000
   18.9173   12.0025   42.0777 N   0  0  0  0  0  0  0  0  0  0  0  0
   18.6021   15.9192   38.9575 N   0  0  0  0  0  0  0  0  0  0  0  0
   16.8119   13.8404   33.9701 N   0  0  0  0  0  0  0  0  0  0  0  0
   21.2170   11.8494   37.6965 O   0  0  0  0  0  0  0  0  0  0  0  0
   20.8069   12.7371   38.7767 C   0  0  2  0  0  0  0  0  0  0  0  0
   22.7881   16.0686   35.7592 N   0  0  0  0  0  0  0  0  0  0  0  0
   20.8905   10.8816   40.3928 O   0  0  0  0  0  0  0  0  0  0  0  0
   20.0624   11.9297   39.8755 C   0  0  1  0  0  0  0  0  0  0  0  0
   20.5892   14.6677   37.2821 O   0  0  0  0  0  0  0  0  0  0  0  0
   19.6453   12.8249   41.0360 C   0  0  1  0  0  0  0  0  0  0  0  0
   20.2169   13.3209   35.4402 O   0  0  0  0  0  0  0  0  0  0  0  0
   18.7230   13.9751   40.5072 C   0  0  0  0  0  0  0  0  0  0  0  0
   18.4791   15.8368   33.4065 O   0  0  0  0  0  0  0  0  0  0  0  0
   19.5197   14.7985   39.4236 C   0  0  1  0  0  0  0  0  0  0  0  0
   21.0851   16.9638   33.6271 O   0  0  0  0  0  0  0  0  0  0  0  0
   19.8756   13.8910   38.2319 C   0  0  2  0  0  0  0  0  0  0  0  0
   21.2600   14.1037   36.1691 C   0  0  1  0  0  0  0  0  0  0  0  0
   19.0528   14.0908   34.9176 C   0  0  2  0  0  0  0  0  0  0  0  0
   18.0934   13.1111   34.2350 C   0  0  0  0  0  0  0  0  0  0  0  0
   19.5652   15.0968   33.9112 C   0  0  2  0  0  0  0  0  0  0  0  0
   20.5892   16.0139   34.5775 C   0  0  1  0  0  0  0  0  0  0  0  0
   21.7613   15.1643   35.1274 C   0  0  1  0  0  0  0  0  0  0  0  0
  5  4  1  6  0  0  0
  5  8  1  0  0  0  0
  5 16  1  0  0  0  0
  8  7  1  1  0  0  0
  8 10  1  0  0  0  0
 10  1  1  1  0  0  0
 10 12  1  0  0  0  0
 11 18  1  0  0  0  0
 12 14  1  0  0  0  0
 14  2  1  6  0  0  0
 14 16  1  0  0  0  0
 16  9  1  6  0  0  0
 17  9  1  1  0  0  0
 17 11  1  0  0  0  0
 17 22  1  0  0  0  0
 18 19  1  6  0  0  0
 18 20  1  0  0  0  0
 19  3  1  0  0  0  0
 20 13  1  1  0  0  0
 20 21  1  0  0  0  0
 21 15  1  6  0  0  0
 21 22  1  0  0  0  0
 22  6  1  1  0  0  0
M  END
>  <CHROM.1>
52.43561591,55.85491926,168.47394225,19.94353115,14.04388661,37.02997316
1.57037837,0.38566097,1.99490509

>  <Name>
2f4s_lig

>  <RI>
0

>  <Rbt.Current_Directory>
/home/itssahil/PROJECTS/Mol_Feturizer/New_Systems/rnas/2f4s

>  <Rbt.Executable>
rbdock ($Id: //depot/dev/client3/rdock/2013.1/src/exe/rbdock.cxx#4 $)

>  <Rbt.Library>
libRbt.so (2013.1, Build901 2013/11/27)

>  <Rbt.Parameter_File>
/export/apps/rDock/src/rDock_2013.1_src/data/scripts/dock_solv.prm

>  <Rbt.Receptor>
prm/pocket_docking_8.prm

>  <SCORE>
-9.92871

>  <SCORE.INTER>
-10.9747

>  <SCORE.INTER.CONST>
1

>  <SCORE.INTER.POLAR>
-1.08297

>  <SCORE.INTER.ROT>
3

>  <SCORE.INTER.SOLV>
14.7156

>  <SCORE.INTER.VDW>
-14.2117

>  <SCORE.INTER.norm>
-0.498848

>  <SCORE.INTRA>
1.04595

>  <SCORE.INTRA.DIHEDRAL>
-0.700105

>  <SCORE.INTRA.DIHEDRAL.0>
1.67653

>  <SCORE.INTRA.POLAR>
0

>  <SCORE.INTRA.POLAR.0>
0

>  <SCORE.INTRA.REPUL>
0

>  <SCORE.INTRA.REPUL.0>
0

>  <SCORE.INTRA.SOLV>
0.675548

>  <SCORE.INTRA.SOLV.lig_0>
-76.6701

>  <SCORE.INTRA.VDW>
1.05822

>  <SCORE.INTRA.VDW.0>
-1.53273

>  <SCORE.INTRA.norm>
0.047543

>  <SCORE.RESTR>
0

>  <SCORE.RESTR.CAVITY>
0

>  <SCORE.RESTR.norm>
0

>  <SCORE.SYSTEM>
0

>  <SCORE.SYSTEM.CONST>
0

>  <SCORE.SYSTEM.DIHEDRAL>
0

>  <SCORE.SYSTEM.SOLV>
0

>  <SCORE.SYSTEM.norm>
0

>  <SCORE.heavy>
22

>  <SCORE.norm>
-0.451305

>  <RMSD>
6.308

$$$$
2f4s_lig
 OpenBabel11021811433D
libRbt.so/2013.1/901 2013/11/27
 22 23  0  0  0  0  0  0  0  0999 V2000
   18.8980   11.6319   41.5940 N   0  0  0  0  0  0  0  0  0  0  0  0
   18.8209   16.1193   39.3505 N   0  0  0  0  0  0  0  0  0  0  0  0
   23.0293   18.9565   35.0305 N   0  0  0  0  0  0  0  0  0  0  0  0
   21.5403   12.3683   37.4729 O   0  0  0  0  0  0  0  0  0  0  0  0
   21.0427   13.0156   38.6797 C   0  0  2  0  0  0  0  0  0  0  0  0
   19.0696   14.4999   35.3519 N   0  0  0  0  0  0  0  0  0  0  0  0
   21.0027   10.8618   39.8717 O   0  0  0  0  0  0  0  0  0  0  0  0
   20.2153   12.0063   39.5226 C   0  0  1  0  0  0  0  0  0  0  0  0
   20.9391   15.2193   37.6113 O   0  0  0  0  0  0  0  0  0  0  0  0
   19.7043   12.6442   40.8086 C   0  0  1  0  0  0  0  0  0  0  0  0
   21.4602   17.1843   36.5103 O   0  0  0  0  0  0  0  0  0  0  0  0
   18.8237   13.8922   40.4623 C   0  0  0  0  0  0  0  0  0  0  0  0
   23.6291   15.6875   33.9528 O   0  0  0  0  0  0  0  0  0  0  0  0
   19.7018   14.9133   39.6417 C   0  0  1  0  0  0  0  0  0  0  0  0
   21.1032   14.5322   33.3243 O   0  0  0  0  0  0  0  0  0  0  0  0
   20.1543   14.2708   38.3178 C   0  0  2  0  0  0  0  0  0  0  0  0
   20.3862   16.1658   36.7140 C   0  0  1  0  0  0  0  0  0  0  0  0
   22.7354   16.6949   35.9143 C   0  0  2  0  0  0  0  0  0  0  0  0
   23.7066   17.8754   35.8160 C   0  0  0  0  0  0  0  0  0  0  0  0
   22.4355   16.1573   34.5329 C   0  0  2  0  0  0  0  0  0  0  0  0
   21.3982   15.0399   34.6307 C   0  0  1  0  0  0  0  0  0  0  0  0
   20.1058   15.5919   35.2810 C   0  0  1  0  0  0  0  0  0  0  0  0
  5  4  1  6  0  0  0
  5  8  1  0  0  0  0
  5 16  1  0  0  0  0
  8  7  1  1  0  0  0
  8 10  1  0  0  0  0
 10  1  1  6  0  0  0
 10 12  1  0  0  0  0
 11 18  1  0  0  0  0
 12 14  1  0  0  0  0
 14  2  1  6  0  0  0
 14 16  1  0  0  0  0
 16  9  1  6  0  0  0
 17  9  1  1  0  0  0
 17 11  1  0  0  0  0
 17 22  1  0  0  0  0
 18 19  1  6  0  0  0
 18 20  1  0  0  0  0
 19  3  1  0  0  0  0
 20 13  1  1  0  0  0
 20 21  1  0  0  0  0
 21 15  1  6  0  0  0
 21 22  1  0  0  0  0
 22  6  1  1  0  0  0
M  END
>  <CHROM.1>
154.55902868,164.20653534,-55.70063404,20.93568690,14.77373586,37.25490797
2.59566657,-1.13182457,-3.07729669

>  <Name>
2f4s_lig

>  <RI>
2.46955e+07

>  <Rbt.Current_Directory>
/home/itssahil/PROJECTS/Mol_Feturizer/New_Systems/rnas/2f4s

>  <Rbt.Executable>
rbdock ($Id: //depot/dev/client3/rdock/2013.1/src/exe/rbdock.cxx#4 $)

>  <Rbt.Library>
libRbt.so (2013.1, Build901 2013/11/27)

>  <Rbt.Parameter_File>
/export/apps/rDock/src/rDock_2013.1_src/data/scripts/dock_solv.prm

>  <Rbt.Receptor>
prm/pocket_docking_3.prm

>  <SCORE>
-5.99678

>  <SCORE.INTER>
-8.83143

>  <SCORE.INTER.CONST>
1

>  <SCORE.INTER.POLAR>
-1.12014

>  <SCORE.INTER.ROT>
3

>  <SCORE.INTER.SOLV>
15.8137

>  <SCORE.INTER.VDW>
-13.0251

>  <SCORE.INTER.norm>
-0.401429

>  <SCORE.INTRA>
2.83465

>  <SCORE.INTRA.DIHEDRAL>
2.40079

>  <SCORE.INTRA.DIHEDRAL.0>
1.67653

>  <SCORE.INTRA.POLAR>
0

>  <SCORE.INTRA.POLAR.0>
0

>  <SCORE.INTRA.REPUL>
0

>  <SCORE.INTRA.REPUL.0>
0

>  <SCORE.INTRA.SOLV>
3.48586

>  <SCORE.INTRA.SOLV.lig_0>
-76.6701

>  <SCORE.INTRA.VDW>
-0.108677

>  <SCORE.INTRA.VDW.0>
-1.53273

>  <SCORE.INTRA.norm>
0.128848

>  <SCORE.RESTR>
0

>  <SCORE.RESTR.CAVITY>
0

>  <SCORE.RESTR.norm>
0

>  <SCORE.SYSTEM>
0

>  <SCORE.SYSTEM.CONST>
0

>  <SCORE.SYSTEM.DIHEDRAL>
0

>  <SCORE.SYSTEM.SOLV>
0

>  <SCORE.SYSTEM.norm>
0

>  <SCORE.heavy>
22

>  <SCORE.norm>
-0.272581

>  <RMSD>
6.309

$$$$
2f4s_lig
 OpenBabel11021811433D
libRbt.so/2013.1/901 2013/11/27
 22 23  0  0  0  0  0  0  0  0999 V2000
   21.3325   10.6705   42.7584 N   0  0  0  0  0  0  0  0  0  0  0  0
   23.1614   11.9232   38.2571 N   0  0  0  0  0  0  0  0  0  0  0  0
   21.6643   17.7276   36.9747 N   0  0  0  0  0  0  0  0  0  0  0  0
   18.5413   13.2743   39.6061 O   0  0  0  0  0  0  0  0  0  0  0  0
   19.5750   12.2509   39.6890 C   0  0  2  0  0  0  0  0  0  0  0  0
   18.9642   12.8049   34.9399 N   0  0  0  0  0  0  0  0  0  0  0  0
   18.7884   11.5743   41.9217 O   0  0  0  0  0  0  0  0  0  0  0  0
   19.9406   11.9826   41.1749 C   0  0  1  0  0  0  0  0  0  0  0  0
   20.5354   12.8608   37.5177 O   0  0  0  0  0  0  0  0  0  0  0  0
   20.9997   10.8940   41.2986 C   0  0  1  0  0  0  0  0  0  0  0  0
   20.5442   15.1708   37.4237 O   0  0  0  0  0  0  0  0  0  0  0  0
   22.2825   11.3164   40.5055 C   0  0  0  0  0  0  0  0  0  0  0  0
   23.0790   15.4886   34.7856 O   0  0  0  0  0  0  0  0  0  0  0  0
   21.8866   11.5431   38.9959 C   0  0  1  0  0  0  0  0  0  0  0  0
   20.9571   14.1873   33.4020 O   0  0  0  0  0  0  0  0  0  0  0  0
   20.8642   12.6891   38.8878 C   0  0  2  0  0  0  0  0  0  0  0  0
   19.7712   13.9522   37.0367 C   0  0  1  0  0  0  0  0  0  0  0  0
   21.9145   15.2977   36.8517 C   0  0  2  0  0  0  0  0  0  0  0  0
   22.5437   16.5873   37.3877 C   0  0  0  0  0  0  0  0  0  0  0  0
   21.7929   15.3702   35.3459 C   0  0  2  0  0  0  0  0  0  0  0  0
   21.0833   14.1208   34.8272 C   0  0  1  0  0  0  0  0  0  0  0  0
   19.6789   14.0204   35.4720 C   0  0  1  0  0  0  0  0  0  0  0  0
  5  4  1  1  0  0  0
  5  8  1  0  0  0  0
  5 16  1  0  0  0  0
  8  7  1  1  0  0  0
  8 10  1  0  0  0  0
 10  1  1  1  0  0  0
 10 12  1  0  0  0  0
 11 18  1  0  0  0  0
 12 14  1  0  0  0  0
 14  2  1  6  0  0  0
 14 16  1  0  0  0  0
 16  9  1  6  0  0  0
 17  9  1  6  0  0  0
 17 11  1  0  0  0  0
 17 22  1  0  0  0  0
 18 19  1  1  0  0  0
 18 20  1  0  0  0  0
 19  3  1  0  0  0  0
 20 13  1  6  0  0  0
 20 21  1  0  0  0  0
 21 15  1  6  0  0  0
 21 22  1  0  0  0  0
 22  6  1  6  0  0  0
M  END
>  <CHROM.1>
72.55891669,59.21543322,-59.08712106,20.89052208,13.46085306,37.93753454
-1.72993230,-0.56388998,-1.08810869

>  <Name>
2f4s_lig

>  <RI>
2.26097e+07

>  <Rbt.Current_Directory>
/home/itssahil/PROJECTS/Mol_Feturizer/New_Systems/rnas/2f4s

>  <Rbt.Executable>
rbdock ($Id: //depot/dev/client3/rdock/2013.1/src/exe/rbdock.cxx#4 $)

>  <Rbt.Library>
libRbt.so (2013.1, Build901 2013/11/27)

>  <Rbt.Parameter_File>
/export/apps/rDock/src/rDock_2013.1_src/data/scripts/dock_solv.prm

>  <Rbt.Receptor>
prm/pocket_docking_7.prm

>  <SCORE>
-10.5693

>  <SCORE.INTER>
-11.1459

>  <SCORE.INTER.CONST>
1

>  <SCORE.INTER.POLAR>
-0.998249

>  <SCORE.INTER.ROT>
3

>  <SCORE.INTER.SOLV>
19.0413

>  <SCORE.INTER.VDW>
-16.0502

>  <SCORE.INTER.norm>
-0.506631

>  <SCORE.INTRA>
0.576581

>  <SCORE.INTRA.DIHEDRAL>
-0.765499

>  <SCORE.INTRA.DIHEDRAL.0>
1.67653

>  <SCORE.INTRA.POLAR>
0

>  <SCORE.INTRA.POLAR.0>
0

>  <SCORE.INTRA.REPUL>
0

>  <SCORE.INTRA.REPUL.0>
0

>  <SCORE.INTRA.SOLV>
1.62387

>  <SCORE.INTRA.SOLV.lig_0>
-76.6701

>  <SCORE.INTRA.VDW>
0.147397

>  <SCORE.INTRA.VDW.0>
-1.53273

>  <SCORE.INTRA.norm>
0.0262082

>  <SCORE.RESTR>
0

>  <SCORE.RESTR.CAVITY>
0

>  <SCORE.RESTR.norm>
0

>  <SCORE.SYSTEM>
0

>  <SCORE.SYSTEM.CONST>
0

>  <SCORE.SYSTEM.DIHEDRAL>
0

>  <SCORE.SYSTEM.SOLV>
0

>  <SCORE.SYSTEM.norm>
0

>  <SCORE.heavy>
22

>  <SCORE.norm>
-0.480423

>  <RMSD>
6.312

$$$$
2f4s_lig
 OpenBabel11021811433D
libRbt.so/2013.1/901 2013/11/27
 22 23  0  0  0  0  0  0  0  0999 V2000
   19.0900   11.9828   41.4428 N   0  0  0  0  0  0  0  0  0  0  0  0
   17.9962   16.0289   38.6845 N   0  0  0  0  0  0  0  0  0  0  0  0
   22.8899   18.6080   35.6247 N   0  0  0  0  0  0  0  0  0  0  0  0
   21.4388   12.7440   37.1520 O   0  0  0  0  0  0  0  0  0  0  0  0
   20.8317   13.4161   38.2933 C   0  0  2  0  0  0  0  0  0  0  0  0
   17.9509   14.3865   35.2700 N   0  0  0  0  0  0  0  0  0  0  0  0
   21.2835   11.4720   39.7349 O   0  0  0  0  0  0  0  0  0  0  0  0
   20.2591   12.3672   39.2860 C   0  0  1  0  0  0  0  0  0  0  0  0
   20.2309   15.3931   36.9746 O   0  0  0  0  0  0  0  0  0  0  0  0
   19.6423   13.0373   40.5077 C   0  0  1  0  0  0  0  0  0  0  0  0
   20.3755   17.2609   35.6198 O   0  0  0  0  0  0  0  0  0  0  0  0
   18.5045   14.0129   40.0533 C   0  0  0  0  0  0  0  0  0  0  0  0
   22.0048   15.6082   32.7738 O   0  0  0  0  0  0  0  0  0  0  0  0
   19.1243   15.0870   39.0790 C   0  0  1  0  0  0  0  0  0  0  0  0
   19.4756   14.3008   32.8378 O   0  0  0  0  0  0  0  0  0  0  0  0
   19.6844   14.3950   37.8230 C   0  0  2  0  0  0  0  0  0  0  0  0
   19.4366   16.2262   36.1490 C   0  0  1  0  0  0  0  0  0  0  0  0
   21.5126   16.7657   34.7934 C   0  0  2  0  0  0  0  0  0  0  0  0
   22.3653   17.9677   34.3760 C   0  0  0  0  0  0  0  0  0  0  0  0
   20.9447   16.0856   33.5678 C   0  0  2  0  0  0  0  0  0  0  0  0
   20.0238   14.9438   33.9943 C   0  0  1  0  0  0  0  0  0  0  0  0
   18.8784   15.5058   34.8720 C   0  0  1  0  0  0  0  0  0  0  0  0
  5  4  1  6  0  0  0
  5  8  1  0  0  0  0
  5 16  1  0  0  0  0
  8  7  1  1  0  0  0
  8 10  1  0  0  0  0
 10  1  1  1  0  0  0
 10 12  1  0  0  0  0
 11 18  1  0  0  0  0
 12 14  1  0  0  0  0
 14  2  1  6  0  0  0
 14 16  1  0  0  0  0
 16  9  1  6  0  0  0
 17  9  1  1  0  0  0
 17 11  1  0  0  0  0
 17 22  1  0  0  0  0
 18 19  1  6  0  0  0
 18 20  1  0  0  0  0
 19  3  1  0  0  0  0
 20 13  1  6  0  0  0
 20 21  1  0  0  0  0
 21 15  1  6  0  0  0
 21 22  1  0  0  0  0
 22  6  1  1  0  0  0
M  END
>  <CHROM.1>
165.00371289,170.67436747,61.42614268,20.20790738,14.87779922,36.73106660
-2.66997430,-1.34371900,-2.10836691

>  <Name>
2f4s_lig

>  <RI>
0

>  <Rbt.Current_Directory>
/home/itssahil/PROJECTS/Mol_Feturizer/New_Systems/rnas/2f4s

>  <Rbt.Executable>
rbdock ($Id: //depot/dev/client3/rdock/2013.1/src/exe/rbdock.cxx#4 $)

>  <Rbt.Library>
libRbt.so (2013.1, Build901 2013/11/27)

>  <Rbt.Parameter_File>
/export/apps/rDock/src/rDock_2013.1_src/data/scripts/dock_solv.prm

>  <Rbt.Receptor>
prm/pocket_docking_5.prm

>  <SCORE>
-7.67121

>  <SCORE.INTER>
-8.93615

>  <SCORE.INTER.CONST>
1

>  <SCORE.INTER.POLAR>
-1.24455

>  <SCORE.INTER.ROT>
3

>  <SCORE.INTER.SOLV>
12.5115

>  <SCORE.INTER.VDW>
-11.5794

>  <SCORE.INTER.norm>
-0.406189

>  <SCORE.INTRA>
1.26494

>  <SCORE.INTRA.DIHEDRAL>
-0.0564862

>  <SCORE.INTRA.DIHEDRAL.0>
1.67653

>  <SCORE.INTRA.POLAR>
0

>  <SCORE.INTRA.POLAR.0>
0

>  <SCORE.INTRA.REPUL>
0

>  <SCORE.INTRA.REPUL.0>
0

>  <SCORE.INTRA.SOLV>
2.54369

>  <SCORE.INTRA.SOLV.lig_0>
-76.6701

>  <SCORE.INTRA.VDW>
0.0213434

>  <SCORE.INTRA.VDW.0>
-1.53273

>  <SCORE.INTRA.norm>
0.0574974

>  <SCORE.RESTR>
0

>  <SCORE.RESTR.CAVITY>
0

>  <SCORE.RESTR.norm>
0

>  <SCORE.SYSTEM>
0

>  <SCORE.SYSTEM.CONST>
0

>  <SCORE.SYSTEM.DIHEDRAL>
0

>  <SCORE.SYSTEM.SOLV>
0

>  <SCORE.SYSTEM.norm>
0

>  <SCORE.heavy>
22

>  <SCORE.norm>
-0.348691

>  <RMSD>
6.314

$$$$
2f4s_lig
 OpenBabel11021811433D
libRbt.so/2013.1/901 2013/11/27
 22 23  0  0  0  0  0  0  0  0999 V2000
   22.1135   13.3536   36.8216 N   0  0  0  0  0  0  0  0  0  0  0  0
   22.9581   10.6873   40.9874 N   0  0  0  0  0  0  0  0  0  0  0  0
   20.8426    7.1981   41.7174 N   0  0  0  0  0  0  0  0  0  0  0  0
   18.4834   12.7456   40.1323 O   0  0  0  0  0  0  0  0  0  0  0  0
   19.9264   12.8832   39.9843 C   0  0  2  0  0  0  0  0  0  0  0  0
   18.6337   12.6988   44.1514 N   0  0  0  0  0  0  0  0  0  0  0  0
   19.6350   14.1716   37.9066 O   0  0  0  0  0  0  0  0  0  0  0  0
   20.2951   13.0385   38.4831 C   0  0  1  0  0  0  0  0  0  0  0  0
   20.3898   11.5433   41.9839 O   0  0  0  0  0  0  0  0  0  0  0  0
   21.7970   13.2149   38.2955 C   0  0  1  0  0  0  0  0  0  0  0  0
   19.5802    9.4391   42.4956 O   0  0  0  0  0  0  0  0  0  0  0  0
   22.5505   11.9827   38.9013 C   0  0  0  0  0  0  0  0  0  0  0  0
   21.5009    8.9753   45.5910 O   0  0  0  0  0  0  0  0  0  0  0  0
   22.1866   11.8754   40.4320 C   0  0  1  0  0  0  0  0  0  0  0  0
   19.8142   11.1660   46.2738 O   0  0  0  0  0  0  0  0  0  0  0  0
   20.6750   11.6339   40.5964 C   0  0  2  0  0  0  0  0  0  0  0  0
   19.2399   10.8939   42.4964 C   0  0  1  0  0  0  0  0  0  0  0  0
   20.7388    9.0274   43.3376 C   0  0  2  0  0  0  0  0  0  0  0  0
   20.9390    7.5172   43.1779 C   0  0  0  0  0  0  0  0  0  0  0  0
   20.4160    9.3555   44.7782 C   0  0  2  0  0  0  0  0  0  0  0  0
   20.1293   10.8500   44.9128 C   0  0  1  0  0  0  0  0  0  0  0  0
   18.9387   11.2308   43.9987 C   0  0  1  0  0  0  0  0  0  0  0  0
  5  4  1  6  0  0  0
  5  8  1  0  0  0  0
  5 16  1  0  0  0  0
  8  7  1  1  0  0  0
  8 10  1  0  0  0  0
 10  1  1  6  0  0  0
 10 12  1  0  0  0  0
 11 18  1  0  0  0  0
 12 14  1  0  0  0  0
 14  2  1  6  0  0  0
 14 16  1  0  0  0  0
 16  9  1  1  0  0  0
 17  9  1  1  0  0  0
 17 11  1  0  0  0  0
 17 22  1  0  0  0  0
 18 19  1  1  0  0  0
 18 20  1  0  0  0  0
 19  3  1  0  0  0  0
 20 13  1  1  0  0  0
 20 21  1  0  0  0  0
 21 15  1  1  0  0  0
 21 22  1  0  0  0  0
 22  6  1  6  0  0  0
M  END
>  <CHROM.1>
85.32174001,80.97996143,45.17246065,20.51453204,11.15737939,41.72826963,-1.41738410
-0.87856185,2.20487782

>  <Name>
2f4s_lig

>  <RI>
2.26097e+07

>  <Rbt.Current_Directory>
/home/itssahil/PROJECTS/Mol_Feturizer/New_Systems/rnas/2f4s

>  <Rbt.Executable>
rbdock ($Id: //depot/dev/client3/rdock/2013.1/src/exe/rbdock.cxx#4 $)

>  <Rbt.Library>
libRbt.so (2013.1, Build901 2013/11/27)

>  <Rbt.Parameter_File>
/export/apps/rDock/src/rDock_2013.1_src/data/scripts/dock_solv.prm

>  <Rbt.Receptor>
prm/pocket_docking_7.prm

>  <SCORE>
-10.3882

>  <SCORE.INTER>
-12.7857

>  <SCORE.INTER.CONST>
1

>  <SCORE.INTER.POLAR>
-1.46117

>  <SCORE.INTER.ROT>
3

>  <SCORE.INTER.SOLV>
20.5649

>  <SCORE.INTER.VDW>
-16.1082

>  <SCORE.INTER.norm>
-0.581169

>  <SCORE.INTRA>
2.38382

>  <SCORE.INTRA.DIHEDRAL>
3.82911

>  <SCORE.INTRA.DIHEDRAL.0>
1.67653

>  <SCORE.INTRA.POLAR>
0

>  <SCORE.INTRA.POLAR.0>
0

>  <SCORE.INTRA.REPUL>
0

>  <SCORE.INTRA.REPUL.0>
0

>  <SCORE.INTRA.SOLV>
1.36998

>  <SCORE.INTRA.SOLV.lig_0>
-76.6701

>  <SCORE.INTRA.VDW>
-0.215728

>  <SCORE.INTRA.VDW.0>
-1.53273

>  <SCORE.INTRA.norm>
0.108355

>  <SCORE.RESTR>
0.0137111

>  <SCORE.RESTR.CAVITY>
0.0137111

>  <SCORE.RESTR.norm>
0.000623234

>  <SCORE.SYSTEM>
0

>  <SCORE.SYSTEM.CONST>
0

>  <SCORE.SYSTEM.DIHEDRAL>
0

>  <SCORE.SYSTEM.SOLV>
0

>  <SCORE.SYSTEM.norm>
0

>  <SCORE.heavy>
22

>  <SCORE.norm>
-0.472191

>  <RMSD>
6.318

$$$$
2f4s_lig
 OpenBabel11021811433D
libRbt.so/2013.1/901 2013/11/27
 22 23  0  0  0  0  0  0  0  0999 V2000
   21.3237   10.0874   42.2597 N   0  0  0  0  0  0  0  0  0  0  0  0
   21.6600   12.1355   37.6915 N   0  0  0  0  0  0  0  0  0  0  0  0
   23.2196   16.6800   36.7222 N   0  0  0  0  0  0  0  0  0  0  0  0
   18.5092   13.9915   41.1002 O   0  0  0  0  0  0  0  0  0  0  0  0
   19.1352   12.7930   40.5574 C   0  0  2  0  0  0  0  0  0  0  0  0
   16.8998   14.6868   36.8428 N   0  0  0  0  0  0  0  0  0  0  0  0
   19.0575   11.7001   42.7622 O   0  0  0  0  0  0  0  0  0  0  0  0
   19.9201   12.0503   41.6736 C   0  0  1  0  0  0  0  0  0  0  0  0
   19.3678   13.7699   38.3213 O   0  0  0  0  0  0  0  0  0  0  0  0
   20.5635   10.7740   41.1451 C   0  0  1  0  0  0  0  0  0  0  0  0
   20.0202   15.9776   38.5342 O   0  0  0  0  0  0  0  0  0  0  0  0
   21.5282   11.1231   39.9617 C   0  0  0  0  0  0  0  0  0  0  0  0
   21.1344   16.4378   35.0654 O   0  0  0  0  0  0  0  0  0  0  0  0
   20.6952   11.8398   38.8305 C   0  0  1  0  0  0  0  0  0  0  0  0
   18.3435   15.9841   34.7261 O   0  0  0  0  0  0  0  0  0  0  0  0
   20.1073   13.1577   39.3667 C   0  0  2  0  0  0  0  0  0  0  0  0
   18.8330   15.0782   38.4157 C   0  0  1  0  0  0  0  0  0  0  0  0
   20.9780   15.9673   37.3925 C   0  0  2  0  0  0  0  0  0  0  0  0
   22.1281   16.9249   37.7187 C   0  0  0  0  0  0  0  0  0  0  0  0
   20.2458   16.4422   36.1573 C   0  0  2  0  0  0  0  0  0  0  0  0
   19.0466   15.5343   35.8901 C   0  0  1  0  0  0  0  0  0  0  0  0
   18.0991   15.5581   37.1148 C   0  0  1  0  0  0  0  0  0  0  0  0
  5  4  1  1  0  0  0
  5  8  1  0  0  0  0
  5 16  1  0  0  0  0
  8  7  1  1  0  0  0
  8 10  1  0  0  0  0
 10  1  1  1  0  0  0
 10 12  1  0  0  0  0
 11 18  1  0  0  0  0
 12 14  1  0  0  0  0
 14  2  1  6  0  0  0
 14 16  1  0  0  0  0
 16  9  1  6  0  0  0
 17  9  1  6  0  0  0
 17 11  1  0  0  0  0
 17 22  1  0  0  0  0
 18 19  1  1  0  0  0
 18 20  1  0  0  0  0
 19  3  1  0  0  0  0
 20 13  1  6  0  0  0
 20 21  1  0  0  0  0
 21 15  1  6  0  0  0
 21 22  1  0  0  0  0
 22  6  1  6  0  0  0
M  END
>  <CHROM.1>
71.41485866,63.92344838,167.63842972,20.02170999,14.05868151,38.54839610
-1.55507013,0.06890811,-0.83684798

>  <Name>
2f4s_lig

>  <RI>
0

>  <Rbt.Current_Directory>
/home/itssahil/PROJECTS/Mol_Feturizer/New_Systems/rnas/2f4s

>  <Rbt.Executable>
rbdock ($Id: //depot/dev/client3/rdock/2013.1/src/exe/rbdock.cxx#4 $)

>  <Rbt.Library>
libRbt.so (2013.1, Build901 2013/11/27)

>  <Rbt.Parameter_File>
/export/apps/rDock/src/rDock_2013.1_src/data/scripts/dock_solv.prm

>  <Rbt.Receptor>
prm/pocket_docking_5.prm

>  <SCORE>
-9.84634

>  <SCORE.INTER>
-10.3644

>  <SCORE.INTER.CONST>
1

>  <SCORE.INTER.POLAR>
-0.97949

>  <SCORE.INTER.ROT>
3

>  <SCORE.INTER.SOLV>
14.4781

>  <SCORE.INTER.VDW>
-14.0707

>  <SCORE.INTER.norm>
-0.471111

>  <SCORE.INTRA>
0.517895

>  <SCORE.INTRA.DIHEDRAL>
-0.299447

>  <SCORE.INTRA.DIHEDRAL.0>
1.67653

>  <SCORE.INTRA.POLAR>
0

>  <SCORE.INTRA.POLAR.0>
0

>  <SCORE.INTRA.REPUL>
0

>  <SCORE.INTRA.REPUL.0>
0

>  <SCORE.INTRA.SOLV>
0.914092

>  <SCORE.INTRA.SOLV.lig_0>
-76.6701

>  <SCORE.INTRA.VDW>
0.210573

>  <SCORE.INTRA.VDW.0>
-1.53273

>  <SCORE.INTRA.norm>
0.0235407

>  <SCORE.RESTR>
0.000218103

>  <SCORE.RESTR.CAVITY>
0.000218103

>  <SCORE.RESTR.norm>
9.91379e-06

>  <SCORE.SYSTEM>
0

>  <SCORE.SYSTEM.CONST>
0

>  <SCORE.SYSTEM.DIHEDRAL>
0

>  <SCORE.SYSTEM.SOLV>
0

>  <SCORE.SYSTEM.norm>
0

>  <SCORE.heavy>
22

>  <SCORE.norm>
-0.447561

>  <RMSD>
6.319

$$$$
2f4s_lig
 OpenBabel11021811433D
libRbt.so/2013.1/901 2013/11/27
 22 23  0  0  0  0  0  0  0  0999 V2000
   18.9208   12.0429   42.0877 N   0  0  0  0  0  0  0  0  0  0  0  0
   18.5794   15.8956   38.8915 N   0  0  0  0  0  0  0  0  0  0  0  0
   16.5856   13.9966   34.1002 N   0  0  0  0  0  0  0  0  0  0  0  0
   21.2095   11.8135   37.7041 O   0  0  0  0  0  0  0  0  0  0  0  0
   20.7983   12.7205   38.7677 C   0  0  2  0  0  0  0  0  0  0  0  0
   22.7203   15.9644   35.5996 N   0  0  0  0  0  0  0  0  0  0  0  0
   20.8946   10.8978   40.4199 O   0  0  0  0  0  0  0  0  0  0  0  0
   20.0603   11.9317   39.8843 C   0  0  1  0  0  0  0  0  0  0  0  0
   20.5678   14.6202   37.2357 O   0  0  0  0  0  0  0  0  0  0  0  0
   19.6423   12.8478   41.0280 C   0  0  1  0  0  0  0  0  0  0  0  0
   20.0346   13.3165   35.4024 O   0  0  0  0  0  0  0  0  0  0  0  0
   18.7134   13.9831   40.4791 C   0  0  0  0  0  0  0  0  0  0  0  0
   18.2705   15.9248   33.5128 O   0  0  0  0  0  0  0  0  0  0  0  0
   19.5034   14.7885   39.3772 C   0  0  1  0  0  0  0  0  0  0  0  0
   20.9250   16.9535   33.5881 O   0  0  0  0  0  0  0  0  0  0  0  0
   19.8602   13.8593   38.2027 C   0  0  2  0  0  0  0  0  0  0  0  0
   21.1483   14.0498   36.0763 C   0  0  1  0  0  0  0  0  0  0  0  0
   18.8701   14.1360   34.9625 C   0  0  2  0  0  0  0  0  0  0  0  0
   17.8354   13.2023   34.3271 C   0  0  0  0  0  0  0  0  0  0  0  0
   19.3572   15.1384   33.9401 C   0  0  2  0  0  0  0  0  0  0  0  0
   20.4531   16.0075   34.5545 C   0  0  1  0  0  0  0  0  0  0  0  0
   21.6242   15.1076   35.0200 C   0  0  1  0  0  0  0  0  0  0  0  0
  5  4  1  6  0  0  0
  5  8  1  0  0  0  0
  5 16  1  0  0  0  0
  8  7  1  1  0  0  0
  8 10  1  0  0  0  0
 10  1  1  1  0  0  0
 10 12  1  0  0  0  0
 11 18  1  0  0  0  0
 12 14  1  0  0  0  0
 14  2  1  6  0  0  0
 14 16  1  0  0  0  0
 16  9  1  6  0  0  0
 17  9  1  1  0  0  0
 17 11  1  0  0  0  0
 17 22  1  0  0  0  0
 18 19  1  6  0  0  0
 18 20  1  0  0  0  0
 19  3  1  0  0  0  0
 20 13  1  1  0  0  0
 20 21  1  0  0  0  0
 21 15  1  6  0  0  0
 21 22  1  0  0  0  0
 22  6  1  1  0  0  0
M  END
>  <CHROM.1>
57.58497281,54.45808409,170.71625135,19.85314632,14.04913480,37.02014352
1.54123993,0.22356846,2.00881219

>  <Name>
2f4s_lig

>  <RI>
2.26097e+07

>  <Rbt.Current_Directory>
/home/itssahil/PROJECTS/Mol_Feturizer/New_Systems/rnas/2f4s

>  <Rbt.Executable>
rbdock ($Id: //depot/dev/client3/rdock/2013.1/src/exe/rbdock.cxx#4 $)

>  <Rbt.Library>
libRbt.so (2013.1, Build901 2013/11/27)

>  <Rbt.Parameter_File>
/export/apps/rDock/src/rDock_2013.1_src/data/scripts/dock_solv.prm

>  <Rbt.Receptor>
prm/pocket_docking_7.prm

>  <SCORE>
-9.94623

>  <SCORE.INTER>
-10.6615

>  <SCORE.INTER.CONST>
1

>  <SCORE.INTER.POLAR>
-1.03287

>  <SCORE.INTER.ROT>
3

>  <SCORE.INTER.SOLV>
14.8142

>  <SCORE.INTER.VDW>
-14.2028

>  <SCORE.INTER.norm>
-0.484612

>  <SCORE.INTRA>
0.715246

>  <SCORE.INTRA.DIHEDRAL>
-1.04264

>  <SCORE.INTRA.DIHEDRAL.0>
1.67653

>  <SCORE.INTRA.POLAR>
0

>  <SCORE.INTRA.POLAR.0>
0

>  <SCORE.INTRA.REPUL>
0

>  <SCORE.INTRA.REPUL.0>
0

>  <SCORE.INTRA.SOLV>
0.793748

>  <SCORE.INTRA.SOLV.lig_0>
-76.6701

>  <SCORE.INTRA.VDW>
0.83969

>  <SCORE.INTRA.VDW.0>
-1.53273

>  <SCORE.INTRA.norm>
0.0325112

>  <SCORE.RESTR>
0

>  <SCORE.RESTR.CAVITY>
0

>  <SCORE.RESTR.norm>
0

>  <SCORE.SYSTEM>
0

>  <SCORE.SYSTEM.CONST>
0

>  <SCORE.SYSTEM.DIHEDRAL>
0

>  <SCORE.SYSTEM.SOLV>
0

>  <SCORE.SYSTEM.norm>
0

>  <SCORE.heavy>
22

>  <SCORE.norm>
-0.452101

>  <RMSD>
6.321

$$$$
2f4s_lig
 OpenBabel11021811433D
libRbt.so/2013.1/901 2013/11/27
 22 23  0  0  0  0  0  0  0  0999 V2000
   19.0060   12.1157   42.0946 N   0  0  0  0  0  0  0  0  0  0  0  0
   18.2060   15.7540   38.7333 N   0  0  0  0  0  0  0  0  0  0  0  0
   20.0734   12.3044   32.8972 N   0  0  0  0  0  0  0  0  0  0  0  0
   21.2320   11.9175   37.6772 O   0  0  0  0  0  0  0  0  0  0  0  0
   20.7453   12.8264   38.7068 C   0  0  2  0  0  0  0  0  0  0  0  0
   22.8858   16.0815   36.6157 N   0  0  0  0  0  0  0  0  0  0  0  0
   21.0613   11.1049   40.4383 O   0  0  0  0  0  0  0  0  0  0  0  0
   20.1137   12.0191   39.8742 C   0  0  1  0  0  0  0  0  0  0  0  0
   20.2897   14.6159   37.0948 O   0  0  0  0  0  0  0  0  0  0  0  0
   19.6205   12.9400   40.9835 C   0  0  1  0  0  0  0  0  0  0  0  0
   20.6283   13.4424   35.1318 O   0  0  0  0  0  0  0  0  0  0  0  0
   18.5679   13.9443   40.4035 C   0  0  0  0  0  0  0  0  0  0  0  0
   19.7439   16.1696   32.8371 O   0  0  0  0  0  0  0  0  0  0  0  0
   19.2498   14.7743   39.2489 C   0  0  1  0  0  0  0  0  0  0  0  0
   22.0797   17.2021   34.0973 O   0  0  0  0  0  0  0  0  0  0  0  0
   19.6828   13.8323   38.1108 C   0  0  2  0  0  0  0  0  0  0  0  0
   21.3259   14.1312   36.2593 C   0  0  1  0  0  0  0  0  0  0  0  0
   19.7330   14.2857   34.2903 C   0  0  2  0  0  0  0  0  0  0  0  0
   19.0974   13.3946   33.2187 C   0  0  0  0  0  0  0  0  0  0  0  0
   20.5731   15.3598   33.6362 C   0  0  2  0  0  0  0  0  0  0  0  0
   21.2752   16.1882   34.7107 C   0  0  1  0  0  0  0  0  0  0  0  0
   22.1684   15.2630   35.5733 C   0  0  1  0  0  0  0  0  0  0  0  0
  5  4  1  6  0  0  0
  5  8  1  0  0  0  0
  5 16  1  0  0  0  0
  8  7  1  1  0  0  0
  8 10  1  0  0  0  0
 10  1  1  1  0  0  0
 10 12  1  0  0  0  0
 11 18  1  0  0  0  0
 12 14  1  0  0  0  0
 14  2  1  6  0  0  0
 14 16  1  0  0  0  0
 16  9  1  6  0  0  0
 17  9  1  1  0  0  0
 17 11  1  0  0  0  0
 17 22  1  0  0  0  0
 18 19  1  6  0  0  0
 18 20  1  0  0  0  0
 19  3  1  0  0  0  0
 20 13  1  1  0  0  0
 20 21  1  0  0  0  0
 21 15  1  6  0  0  0
 21 22  1  0  0  0  0
 22  6  1  1  0  0  0
M  END
>  <CHROM.1>
31.99438830,85.98395765,-30.71530429,20.35012534,14.07295516,36.90350212
-2.53774785,-1.39998948,-2.16048773

>  <Name>
2f4s_lig

>  <RI>
2.26097e+07

>  <Rbt.Current_Directory>
/home/itssahil/PROJECTS/Mol_Feturizer/New_Systems/rnas/2f4s

>  <Rbt.Executable>
rbdock ($Id: //depot/dev/client3/rdock/2013.1/src/exe/rbdock.cxx#4 $)

>  <Rbt.Library>
libRbt.so (2013.1, Build901 2013/11/27)

>  <Rbt.Parameter_File>
/export/apps/rDock/src/rDock_2013.1_src/data/scripts/dock_solv.prm

>  <Rbt.Receptor>
prm/pocket_docking_7.prm

>  <SCORE>
-7.69645

>  <SCORE.INTER>
-13.7344

>  <SCORE.INTER.CONST>
1

>  <SCORE.INTER.POLAR>
-1.9376

>  <SCORE.INTER.ROT>
3

>  <SCORE.INTER.SOLV>
17.0673

>  <SCORE.INTER.VDW>
-13.9867

>  <SCORE.INTER.norm>
-0.624291

>  <SCORE.INTRA>
6.03796

>  <SCORE.INTRA.DIHEDRAL>
6.97852

>  <SCORE.INTRA.DIHEDRAL.0>
1.67653

>  <SCORE.INTRA.POLAR>
0

>  <SCORE.INTRA.POLAR.0>
0

>  <SCORE.INTRA.REPUL>
0

>  <SCORE.INTRA.REPUL.0>
0

>  <SCORE.INTRA.SOLV>
0.905744

>  <SCORE.INTRA.SOLV.lig_0>
-76.6701

>  <SCORE.INTRA.VDW>
2.09583

>  <SCORE.INTRA.VDW.0>
-1.53273

>  <SCORE.INTRA.norm>
0.274453

>  <SCORE.RESTR>
0

>  <SCORE.RESTR.CAVITY>
0

>  <SCORE.RESTR.norm>
0

>  <SCORE.SYSTEM>
0

>  <SCORE.SYSTEM.CONST>
0

>  <SCORE.SYSTEM.DIHEDRAL>
0

>  <SCORE.SYSTEM.SOLV>
0

>  <SCORE.SYSTEM.norm>
0

>  <SCORE.heavy>
22

>  <SCORE.norm>
-0.349838

>  <RMSD>
6.324

$$$$
2f4s_lig
 OpenBabel11021811433D
libRbt.so/2013.1/901 2013/11/27
 22 23  0  0  0  0  0  0  0  0999 V2000
   21.0092   10.5054   42.6206 N   0  0  0  0  0  0  0  0  0  0  0  0
   21.7668   11.7751   37.8258 N   0  0  0  0  0  0  0  0  0  0  0  0
   22.4836   17.0193   36.0717 N   0  0  0  0  0  0  0  0  0  0  0  0
   18.3883   14.1913   40.6076 O   0  0  0  0  0  0  0  0  0  0  0  0
   19.0298   12.9147   40.3218 C   0  0  2  0  0  0  0  0  0  0  0  0
   17.0710   14.5285   36.4564 N   0  0  0  0  0  0  0  0  0  0  0  0
   18.7460   12.1982   42.6601 O   0  0  0  0  0  0  0  0  0  0  0  0
   19.7032   12.3580   41.6064 C   0  0  1  0  0  0  0  0  0  0  0  0
   19.4678   13.5104   37.9847 O   0  0  0  0  0  0  0  0  0  0  0  0
   20.3590   11.0069   41.3488 C   0  0  1  0  0  0  0  0  0  0  0  0
   20.6041   15.4448   37.4263 O   0  0  0  0  0  0  0  0  0  0  0  0
   21.4256   11.1491   40.2107 C   0  0  0  0  0  0  0  0  0  0  0  0
   21.2867   14.5537   33.9297 O   0  0  0  0  0  0  0  0  0  0  0  0
   20.7051   11.6781   38.9115 C   0  0  1  0  0  0  0  0  0  0  0  0
   18.4444   14.7306   33.9423 O   0  0  0  0  0  0  0  0  0  0  0  0
   20.1048   13.0711   39.1747 C   0  0  2  0  0  0  0  0  0  0  0  0
   19.2465   14.8771   37.6850 C   0  0  1  0  0  0  0  0  0  0  0  0
   21.3649   14.8551   36.2886 C   0  0  2  0  0  0  0  0  0  0  0  0
   22.7288   15.5478   36.2094 C   0  0  0  0  0  0  0  0  0  0  0  0
   20.5843   15.1059   35.0178 C   0  0  2  0  0  0  0  0  0  0  0  0
   19.1922   14.4889   35.1398 C   0  0  1  0  0  0  0  0  0  0  0  0
   18.4560   15.1133   36.3507 C   0  0  1  0  0  0  0  0  0  0  0  0
  5  4  1  1  0  0  0
  5  8  1  0  0  0  0
  5 16  1  0  0  0  0
  8  7  1  1  0  0  0
  8 10  1  0  0  0  0
 10  1  1  1  0  0  0
 10 12  1  0  0  0  0
 11 18  1  0  0  0  0
 12 14  1  0  0  0  0
 14  2  1  6  0  0  0
 14 16  1  0  0  0  0
 16  9  1  6  0  0  0
 17  9  1  6  0  0  0
 17 11  1  0  0  0  0
 17 22  1  0  0  0  0
 18 19  1  6  0  0  0
 18 20  1  0  0  0  0
 19  3  1  0  0  0  0
 20 13  1  6  0  0  0
 20 21  1  0  0  0  0
 21 15  1  6  0  0  0
 21 22  1  0  0  0  0
 22  6  1  1  0  0  0
M  END
>  <CHROM.1>
87.12776991,69.16603975,-56.61627099,20.08246591,13.68537070,38.06566966
-1.62178728,0.17248455,-1.05605870

>  <Name>
2f4s_lig

>  <RI>
0

>  <Rbt.Current_Directory>
/home/itssahil/PROJECTS/Mol_Feturizer/New_Systems/rnas/2f4s

>  <Rbt.Executable>
rbdock ($Id: //depot/dev/client3/rdock/2013.1/src/exe/rbdock.cxx#4 $)

>  <Rbt.Library>
libRbt.so (2013.1, Build901 2013/11/27)

>  <Rbt.Parameter_File>
/export/apps/rDock/src/rDock_2013.1_src/data/scripts/dock_solv.prm

>  <Rbt.Receptor>
prm/pocket_docking_5.prm

>  <SCORE>
-9.39124

>  <SCORE.INTER>
-11.3925

>  <SCORE.INTER.CONST>
1

>  <SCORE.INTER.POLAR>
-1.11602

>  <SCORE.INTER.ROT>
3

>  <SCORE.INTER.SOLV>
15.6413

>  <SCORE.INTER.VDW>
-14.6887

>  <SCORE.INTER.norm>
-0.517843

>  <SCORE.INTRA>
2.0013

>  <SCORE.INTRA.DIHEDRAL>
1.95318

>  <SCORE.INTRA.DIHEDRAL.0>
1.67653

>  <SCORE.INTRA.POLAR>
0

>  <SCORE.INTRA.POLAR.0>
0

>  <SCORE.INTRA.REPUL>
0

>  <SCORE.INTRA.REPUL.0>
0

>  <SCORE.INTRA.SOLV>
2.41488

>  <SCORE.INTRA.SOLV.lig_0>
-76.6701

>  <SCORE.INTRA.VDW>
-0.182729

>  <SCORE.INTRA.VDW.0>
-1.53273

>  <SCORE.INTRA.norm>
0.0909682

>  <SCORE.RESTR>
0

>  <SCORE.RESTR.CAVITY>
0

>  <SCORE.RESTR.norm>
0

>  <SCORE.SYSTEM>
0

>  <SCORE.SYSTEM.CONST>
0

>  <SCORE.SYSTEM.DIHEDRAL>
0

>  <SCORE.SYSTEM.SOLV>
0

>  <SCORE.SYSTEM.norm>
0

>  <SCORE.heavy>
22

>  <SCORE.norm>
-0.426874

>  <RMSD>
6.329

$$$$
2f4s_lig
 OpenBabel11021811433D
libRbt.so/2013.1/901 2013/11/27
 22 23  0  0  0  0  0  0  0  0999 V2000
   18.8312   11.0784   41.8231 N   0  0  0  0  0  0  0  0  0  0  0  0
   19.0814   15.2592   39.0602 N   0  0  0  0  0  0  0  0  0  0  0  0
   19.5007   13.0067   34.8987 N   0  0  0  0  0  0  0  0  0  0  0  0
   22.7119   11.8295   38.8427 O   0  0  0  0  0  0  0  0  0  0  0  0
   21.7316   12.5015   39.6855 C   0  0  2  0  0  0  0  0  0  0  0  0
   24.3166   16.1581   38.0261 N   0  0  0  0  0  0  0  0  0  0  0  0
   21.4978   10.4935   41.0908 O   0  0  0  0  0  0  0  0  0  0  0  0
   20.7714   11.4584   40.3206 C   0  0  1  0  0  0  0  0  0  0  0  0
   21.7815   14.5473   38.3362 O   0  0  0  0  0  0  0  0  0  0  0  0
   19.7504   12.1266   41.2333 C   0  0  1  0  0  0  0  0  0  0  0  0
   22.0331   13.7952   36.1645 O   0  0  0  0  0  0  0  0  0  0  0  0
   18.9252   13.1784   40.4173 C   0  0  0  0  0  0  0  0  0  0  0  0
   20.9665   16.8929   34.5055 O   0  0  0  0  0  0  0  0  0  0  0  0
   19.9226   14.2434   39.8190 C   0  0  1  0  0  0  0  0  0  0  0  0
   23.3481   17.7281   35.8250 O   0  0  0  0  0  0  0  0  0  0  0  0
   20.9042   13.5576   38.8514 C   0  0  2  0  0  0  0  0  0  0  0  0
   22.7788   14.2692   37.3693 C   0  0  1  0  0  0  0  0  0  0  0  0
   21.0751   14.7599   35.5541 C   0  0  2  0  0  0  0  0  0  0  0  0
   20.3986   14.0785   34.3607 C   0  0  0  0  0  0  0  0  0  0  0  0
   21.8554   15.9673   35.0845 C   0  0  2  0  0  0  0  0  0  0  0  0
   22.5998   16.5888   36.2649 C   0  0  1  0  0  0  0  0  0  0  0  0
   23.5585   15.5395   36.8798 C   0  0  1  0  0  0  0  0  0  0  0  0
  5  4  1  6  0  0  0
  5  8  1  0  0  0  0
  5 16  1  0  0  0  0
  8  7  1  1  0  0  0
  8 10  1  0  0  0  0
 10  1  1  6  0  0  0
 10 12  1  0  0  0  0
 11 18  1  0  0  0  0
 12 14  1  0  0  0  0
 14  2  1  6  0  0  0
 14 16  1  0  0  0  0
 16  9  1  1  0  0  0
 17  9  1  1  0  0  0
 17 11  1  0  0  0  0
 17 22  1  0  0  0  0
 18 19  1  6  0  0  0
 18 20  1  0  0  0  0
 19  3  1  0  0  0  0
 20 13  1  1  0  0  0
 20 21  1  0  0  0  0
 21 15  1  6  0  0  0
 21 22  1  0  0  0  0
 22  6  1  1  0  0  0
M  END
>  <CHROM.1>
65.93534464,61.99680102,69.24814936,21.31101716,14.05276715,37.90412963,1.87842642
0.43440115,2.12165958

>  <Name>
2f4s_lig

>  <RI>
2.46955e+07

>  <Rbt.Current_Directory>
/home/itssahil/PROJECTS/Mol_Feturizer/New_Systems/rnas/2f4s

>  <Rbt.Executable>
rbdock ($Id: //depot/dev/client3/rdock/2013.1/src/exe/rbdock.cxx#4 $)

>  <Rbt.Library>
libRbt.so (2013.1, Build901 2013/11/27)

>  <Rbt.Parameter_File>
/export/apps/rDock/src/rDock_2013.1_src/data/scripts/dock_solv.prm

>  <Rbt.Receptor>
prm/pocket_docking_3.prm

>  <SCORE>
-6.80146

>  <SCORE.INTER>
-6.38161

>  <SCORE.INTER.CONST>
1

>  <SCORE.INTER.POLAR>
-0.0615991

>  <SCORE.INTER.ROT>
3

>  <SCORE.INTER.SOLV>
19.573

>  <SCORE.INTER.VDW>
-16.1734

>  <SCORE.INTER.norm>
-0.290073

>  <SCORE.INTRA>
-0.419852

>  <SCORE.INTRA.DIHEDRAL>
-1.01781

>  <SCORE.INTRA.DIHEDRAL.0>
1.67653

>  <SCORE.INTRA.POLAR>
0

>  <SCORE.INTRA.POLAR.0>
0

>  <SCORE.INTRA.REPUL>
0

>  <SCORE.INTRA.REPUL.0>
0

>  <SCORE.INTRA.SOLV>
-0.0478461

>  <SCORE.INTRA.SOLV.lig_0>
-76.6701

>  <SCORE.INTRA.VDW>
0.112977

>  <SCORE.INTRA.VDW.0>
-1.53273

>  <SCORE.INTRA.norm>
-0.0190842

>  <SCORE.RESTR>
0

>  <SCORE.RESTR.CAVITY>
0

>  <SCORE.RESTR.norm>
0

>  <SCORE.SYSTEM>
0

>  <SCORE.SYSTEM.CONST>
0

>  <SCORE.SYSTEM.DIHEDRAL>
0

>  <SCORE.SYSTEM.SOLV>
0

>  <SCORE.SYSTEM.norm>
0

>  <SCORE.heavy>
22

>  <SCORE.norm>
-0.309157

>  <RMSD>
6.331

$$$$
2f4s_lig
 OpenBabel11021811433D
libRbt.so/2013.1/901 2013/11/27
 22 23  0  0  0  0  0  0  0  0999 V2000
   18.9393   12.0740   42.0981 N   0  0  0  0  0  0  0  0  0  0  0  0
   18.4828   15.8449   38.8198 N   0  0  0  0  0  0  0  0  0  0  0  0
   16.3772   13.9474   34.2280 N   0  0  0  0  0  0  0  0  0  0  0  0
   21.2006   11.8006   37.7028 O   0  0  0  0  0  0  0  0  0  0  0  0
   20.7757   12.7213   38.7491 C   0  0  2  0  0  0  0  0  0  0  0  0
   22.5765   15.9179   35.4541 N   0  0  0  0  0  0  0  0  0  0  0  0
   20.9276   10.9388   40.4406 O   0  0  0  0  0  0  0  0  0  0  0  0
   20.0650   11.9404   39.8888 C   0  0  1  0  0  0  0  0  0  0  0  0
   20.4888   14.5801   37.1772 O   0  0  0  0  0  0  0  0  0  0  0  0
   19.6336   12.8718   41.0150 C   0  0  1  0  0  0  0  0  0  0  0  0
   19.8819   13.2730   35.3694 O   0  0  0  0  0  0  0  0  0  0  0  0
   18.6739   13.9722   40.4484 C   0  0  0  0  0  0  0  0  0  0  0  0
   18.0475   15.8792   33.5451 O   0  0  0  0  0  0  0  0  0  0  0  0
   19.4364   14.7711   39.3227 C   0  0  1  0  0  0  0  0  0  0  0  0
   20.7041   16.9048   33.5130 O   0  0  0  0  0  0  0  0  0  0  0  0
   19.8067   13.8245   38.1664 C   0  0  2  0  0  0  0  0  0  0  0  0
   21.0224   14.0064   35.9970 C   0  0  1  0  0  0  0  0  0  0  0  0
   18.7020   14.0929   34.9740 C   0  0  2  0  0  0  0  0  0  0  0  0
   17.6418   13.1591   34.3821 C   0  0  0  0  0  0  0  0  0  0  0  0
   19.1493   15.0924   33.9309 C   0  0  2  0  0  0  0  0  0  0  0  0
   20.2697   15.9615   34.4994 C   0  0  1  0  0  0  0  0  0  0  0  0
   21.4573   15.0612   34.9203 C   0  0  1  0  0  0  0  0  0  0  0  0
  5  4  1  6  0  0  0
  5  8  1  0  0  0  0
  5 16  1  0  0  0  0
  8  7  1  1  0  0  0
  8 10  1  0  0  0  0
 10  1  1  1  0  0  0
 10 12  1  0  0  0  0
 11 18  1  0  0  0  0
 12 14  1  0  0  0  0
 14  2  1  6  0  0  0
 14 16  1  0  0  0  0
 16  9  1  6  0  0  0
 17  9  1  1  0  0  0
 17 11  1  0  0  0  0
 17 22  1  0  0  0  0
 18 19  1  6  0  0  0
 18 20  1  0  0  0  0
 19  3  1  0  0  0  0
 20 13  1  1  0  0  0
 20 21  1  0  0  0  0
 21 15  1  6  0  0  0
 21 22  1  0  0  0  0
 22  6  1  1  0  0  0
M  END
>  <CHROM.1>
60.48907120,53.76573949,169.63216375,19.74765745,14.02353232,36.99707965
1.51246060,0.16109639,2.00553031

>  <Name>
2f4s_lig

>  <RI>
2.00194e+07

>  <Rbt.Current_Directory>
/home/itssahil/PROJECTS/Mol_Feturizer/New_Systems/rnas/2f4s

>  <Rbt.Executable>
rbdock ($Id: //depot/dev/client3/rdock/2013.1/src/exe/rbdock.cxx#4 $)

>  <Rbt.Library>
libRbt.so (2013.1, Build901 2013/11/27)

>  <Rbt.Parameter_File>
/export/apps/rDock/src/rDock_2013.1_src/data/scripts/dock_solv.prm

>  <Rbt.Receptor>
prm/pocket_docking_6.prm

>  <SCORE>
-9.93687

>  <SCORE.INTER>
-10.5284

>  <SCORE.INTER.CONST>
1

>  <SCORE.INTER.POLAR>
-1.00549

>  <SCORE.INTER.ROT>
3

>  <SCORE.INTER.SOLV>
15.2243

>  <SCORE.INTER.VDW>
-14.3421

>  <SCORE.INTER.norm>
-0.478565

>  <SCORE.INTRA>
0.591561

>  <SCORE.INTRA.DIHEDRAL>
-0.958771

>  <SCORE.INTRA.DIHEDRAL.0>
1.67653

>  <SCORE.INTRA.POLAR>
0

>  <SCORE.INTRA.POLAR.0>
0

>  <SCORE.INTRA.REPUL>
0

>  <SCORE.INTRA.REPUL.0>
0

>  <SCORE.INTRA.SOLV>
0.803947

>  <SCORE.INTRA.SOLV.lig_0>
-76.6701

>  <SCORE.INTRA.VDW>
0.668973

>  <SCORE.INTRA.VDW.0>
-1.53273

>  <SCORE.INTRA.norm>
0.0268891

>  <SCORE.RESTR>
0

>  <SCORE.RESTR.CAVITY>
0

>  <SCORE.RESTR.norm>
0

>  <SCORE.SYSTEM>
0

>  <SCORE.SYSTEM.CONST>
0

>  <SCORE.SYSTEM.DIHEDRAL>
0

>  <SCORE.SYSTEM.SOLV>
0

>  <SCORE.SYSTEM.norm>
0

>  <SCORE.heavy>
22

>  <SCORE.norm>
-0.451676

>  <RMSD>
6.331

$$$$
2f4s_lig
 OpenBabel11021811433D
libRbt.so/2013.1/901 2013/11/27
 22 23  0  0  0  0  0  0  0  0999 V2000
   19.0741   12.4740   40.6817 N   0  0  0  0  0  0  0  0  0  0  0  0
   17.7814   15.5472   36.9320 N   0  0  0  0  0  0  0  0  0  0  0  0
   19.5633   11.9379   33.2481 N   0  0  0  0  0  0  0  0  0  0  0  0
   22.1811   13.1742   36.8918 O   0  0  0  0  0  0  0  0  0  0  0  0
   21.1624   13.8198   37.7094 C   0  0  2  0  0  0  0  0  0  0  0  0
   22.3539   17.4898   35.0132 N   0  0  0  0  0  0  0  0  0  0  0  0
   21.6849   12.3408   39.6070 O   0  0  0  0  0  0  0  0  0  0  0  0
   20.6246   12.8243   38.7740 C   0  0  1  0  0  0  0  0  0  0  0  0
   20.4612   15.3073   35.8916 O   0  0  0  0  0  0  0  0  0  0  0  0
   19.5769   13.4782   39.6667 C   0  0  1  0  0  0  0  0  0  0  0  0
   21.1743   14.0176   34.1102 O   0  0  0  0  0  0  0  0  0  0  0  0
   18.3924   14.0047   38.7877 C   0  0  0  0  0  0  0  0  0  0  0  0
   19.3440   15.8362   31.4970 O   0  0  0  0  0  0  0  0  0  0  0  0
   18.9638   15.0403   37.7445 C   0  0  1  0  0  0  0  0  0  0  0  0
   21.1698   17.8185   32.4175 O   0  0  0  0  0  0  0  0  0  0  0  0
   19.9723   14.3442   36.8125 C   0  0  2  0  0  0  0  0  0  0  0  0
   21.5922   15.0854   35.0679 C   0  0  1  0  0  0  0  0  0  0  0  0
   20.0262   14.3393   33.2161 C   0  0  2  0  0  0  0  0  0  0  0  0
   19.7393   13.1162   32.3398 C   0  0  0  0  0  0  0  0  0  0  0  0
   20.4178   15.5149   32.3489 C   0  0  2  0  0  0  0  0  0  0  0  0
   20.7893   16.7041   33.2330 C   0  0  1  0  0  0  0  0  0  0  0  0
   21.9650   16.3096   34.1604 C   0  0  1  0  0  0  0  0  0  0  0  0
  5  4  1  6  0  0  0
  5  8  1  0  0  0  0
  5 16  1  0  0  0  0
  8  7  1  1  0  0  0
  8 10  1  0  0  0  0
 10  1  1  1  0  0  0
 10 12  1  0  0  0  0
 11 18  1  0  0  0  0
 12 14  1  0  0  0  0
 14  2  1  6  0  0  0
 14 16  1  0  0  0  0
 16  9  1  6  0  0  0
 17  9  1  1  0  0  0
 17 11  1  0  0  0  0
 17 22  1  0  0  0  0
 18 19  1  6  0  0  0
 18 20  1  0  0  0  0
 19  3  1  0  0  0  0
 20 13  1  6  0  0  0
 20 21  1  0  0  0  0
 21 15  1  6  0  0  0
 21 22  1  0  0  0  0
 22  6  1  1  0  0  0
M  END
>  <CHROM.1>
50.17092497,67.60646040,53.45161435,20.38392210,14.57045612,35.70405615,1.79689235
1.16445445,1.74536015

>  <Name>
2f4s_lig

>  <RI>
2.26097e+07

>  <Rbt.Current_Directory>
/home/itssahil/PROJECTS/Mol_Feturizer/New_Systems/rnas/2f4s

>  <Rbt.Executable>
rbdock ($Id: //depot/dev/client3/rdock/2013.1/src/exe/rbdock.cxx#4 $)

>  <Rbt.Library>
libRbt.so (2013.1, Build901 2013/11/27)

>  <Rbt.Parameter_File>
/export/apps/rDock/src/rDock_2013.1_src/data/scripts/dock_solv.prm

>  <Rbt.Receptor>
prm/pocket_docking_7.prm

>  <SCORE>
-9.95357

>  <SCORE.INTER>
-10.4629

>  <SCORE.INTER.CONST>
1

>  <SCORE.INTER.POLAR>
-1.15451

>  <SCORE.INTER.ROT>
3

>  <SCORE.INTER.SOLV>
14.4645

>  <SCORE.INTER.VDW>
-13.5484

>  <SCORE.INTER.norm>
-0.475585

>  <SCORE.INTRA>
0.5093

>  <SCORE.INTRA.DIHEDRAL>
-0.632186

>  <SCORE.INTRA.DIHEDRAL.0>
1.67653

>  <SCORE.INTRA.POLAR>
0

>  <SCORE.INTRA.POLAR.0>
0

>  <SCORE.INTRA.REPUL>
0

>  <SCORE.INTRA.REPUL.0>
0

>  <SCORE.INTRA.SOLV>
-0.207906

>  <SCORE.INTRA.SOLV.lig_0>
-76.6701

>  <SCORE.INTRA.VDW>
0.929346

>  <SCORE.INTRA.VDW.0>
-1.53273

>  <SCORE.INTRA.norm>
0.02315

>  <SCORE.RESTR>
0

>  <SCORE.RESTR.CAVITY>
0

>  <SCORE.RESTR.norm>
0

>  <SCORE.SYSTEM>
0

>  <SCORE.SYSTEM.CONST>
0

>  <SCORE.SYSTEM.DIHEDRAL>
0

>  <SCORE.SYSTEM.SOLV>
0

>  <SCORE.SYSTEM.norm>
0

>  <SCORE.heavy>
22

>  <SCORE.norm>
-0.452435

>  <RMSD>
6.334

$$$$
2f4s_lig
 OpenBabel11021811433D
libRbt.so/2013.1/901 2013/11/27
 22 23  0  0  0  0  0  0  0  0999 V2000
   21.1034   10.1353   42.7312 N   0  0  0  0  0  0  0  0  0  0  0  0
   23.3840   11.5955   38.5072 N   0  0  0  0  0  0  0  0  0  0  0  0
   24.3044   16.6241   37.8286 N   0  0  0  0  0  0  0  0  0  0  0  0
   18.8214   13.2799   39.6635 O   0  0  0  0  0  0  0  0  0  0  0  0
   19.7447   12.1540   39.7169 C   0  0  2  0  0  0  0  0  0  0  0  0
   19.4995   12.9993   35.0262 N   0  0  0  0  0  0  0  0  0  0  0  0
   18.7279   11.3628   41.8150 O   0  0  0  0  0  0  0  0  0  0  0  0
   19.9676   11.7180   41.1913 C   0  0  1  0  0  0  0  0  0  0  0  0
   20.9228   12.8561   37.6853 O   0  0  0  0  0  0  0  0  0  0  0  0
   20.9067   10.5213   41.2807 C   0  0  1  0  0  0  0  0  0  0  0  0
   20.8645   15.1643   37.8033 O   0  0  0  0  0  0  0  0  0  0  0  0
   22.2809   10.8814   40.6213 C   0  0  0  0  0  0  0  0  0  0  0  0
   23.5305   15.7919   35.3570 O   0  0  0  0  0  0  0  0  0  0  0  0
   22.0259   11.2815   39.1173 C   0  0  1  0  0  0  0  0  0  0  0  0
   21.5303   14.5701   33.7393 O   0  0  0  0  0  0  0  0  0  0  0  0
   21.1273   12.5298   39.0514 C   0  0  2  0  0  0  0  0  0  0  0  0
   20.1527   13.9673   37.2623 C   0  0  1  0  0  0  0  0  0  0  0  0
   22.2598   15.3795   37.3258 C   0  0  2  0  0  0  0  0  0  0  0  0
   22.8177   16.6296   38.0131 C   0  0  0  0  0  0  0  0  0  0  0  0
   22.2196   15.5885   35.8285 C   0  0  2  0  0  0  0  0  0  0  0  0
   21.5793   14.3746   35.1574 C   0  0  1  0  0  0  0  0  0  0  0  0
   20.1452   14.1782   35.7077 C   0  0  1  0  0  0  0  0  0  0  0  0
  5  4  1  1  0  0  0
  5  8  1  0  0  0  0
  5 16  1  0  0  0  0
  8  7  1  6  0  0  0
  8 10  1  0  0  0  0
 10  1  1  1  0  0  0
 10 12  1  0  0  0  0
 11 18  1  0  0  0  0
 12 14  1  0  0  0  0
 14  2  1  1  0  0  0
 14 16  1  0  0  0  0
 16  9  1  6  0  0  0
 17  9  1  6  0  0  0
 17 11  1  0  0  0  0
 17 22  1  0  0  0  0
 18 19  1  1  0  0  0
 18 20  1  0  0  0  0
 19  3  1  0  0  0  0
 20 13  1  6  0  0  0
 20 21  1  0  0  0  0
 21 15  1  6  0  0  0
 21 22  1  0  0  0  0
 22  6  1  6  0  0  0
M  END
>  <CHROM.1>
64.02689579,62.31956094,164.73402911,21.25657913,13.36930966,38.18251495
-1.84431126,-0.48510381,-1.04745819

>  <Name>
2f4s_lig

>  <RI>
0

>  <Rbt.Current_Directory>
/home/itssahil/PROJECTS/Mol_Feturizer/New_Systems/rnas/2f4s

>  <Rbt.Executable>
rbdock ($Id: //depot/dev/client3/rdock/2013.1/src/exe/rbdock.cxx#4 $)

>  <Rbt.Library>
libRbt.so (2013.1, Build901 2013/11/27)

>  <Rbt.Parameter_File>
/export/apps/rDock/src/rDock_2013.1_src/data/scripts/dock_solv.prm

>  <Rbt.Receptor>
prm/pocket_docking_4.prm

>  <SCORE>
-9.66056

>  <SCORE.INTER>
-10.2143

>  <SCORE.INTER.CONST>
1

>  <SCORE.INTER.POLAR>
-1.07459

>  <SCORE.INTER.ROT>
3

>  <SCORE.INTER.SOLV>
19.6375

>  <SCORE.INTER.VDW>
-15.3734

>  <SCORE.INTER.norm>
-0.464285

>  <SCORE.INTRA>
0.422511

>  <SCORE.INTRA.DIHEDRAL>
-0.623164

>  <SCORE.INTRA.DIHEDRAL.0>
1.67653

>  <SCORE.INTRA.POLAR>
0

>  <SCORE.INTRA.POLAR.0>
0

>  <SCORE.INTRA.REPUL>
0

>  <SCORE.INTRA.REPUL.0>
0

>  <SCORE.INTRA.SOLV>
0.682895

>  <SCORE.INTRA.SOLV.lig_0>
-76.6701

>  <SCORE.INTRA.VDW>
0.392645

>  <SCORE.INTRA.VDW.0>
-1.53273

>  <SCORE.INTRA.norm>
0.019205

>  <SCORE.RESTR>
0.131203

>  <SCORE.RESTR.CAVITY>
0.131203

>  <SCORE.RESTR.norm>
0.00596378

>  <SCORE.SYSTEM>
0

>  <SCORE.SYSTEM.CONST>
0

>  <SCORE.SYSTEM.DIHEDRAL>
0

>  <SCORE.SYSTEM.SOLV>
0

>  <SCORE.SYSTEM.norm>
0

>  <SCORE.heavy>
22

>  <SCORE.norm>
-0.439116

>  <RMSD>
6.335

$$$$
2f4s_lig
 OpenBabel11021811433D
libRbt.so/2013.1/901 2013/11/27
 22 23  0  0  0  0  0  0  0  0999 V2000
   20.8831   10.1877   42.2307 N   0  0  0  0  0  0  0  0  0  0  0  0
   21.6616   12.0895   37.6533 N   0  0  0  0  0  0  0  0  0  0  0  0
   22.4881   18.0048   38.1085 N   0  0  0  0  0  0  0  0  0  0  0  0
   18.5656   14.3439   40.8661 O   0  0  0  0  0  0  0  0  0  0  0  0
   19.0847   13.0741   40.3754 C   0  0  2  0  0  0  0  0  0  0  0  0
   17.4981   15.2610   36.3150 N   0  0  0  0  0  0  0  0  0  0  0  0
   18.7817   12.0434   42.5907 O   0  0  0  0  0  0  0  0  0  0  0  0
   19.7295   12.2760   41.5421 C   0  0  1  0  0  0  0  0  0  0  0  0
   19.5305   13.9722   38.1387 O   0  0  0  0  0  0  0  0  0  0  0  0
   20.2568   10.9274   41.0678 C   0  0  1  0  0  0  0  0  0  0  0  0
   20.5322   16.0360   38.4262 O   0  0  0  0  0  0  0  0  0  0  0  0
   21.3104   11.1459   39.9297 C   0  0  0  0  0  0  0  0  0  0  0  0
   22.1842   16.1775   35.1495 O   0  0  0  0  0  0  0  0  0  0  0  0
   20.6159   11.9229   38.7460 C   0  0  1  0  0  0  0  0  0  0  0  0
   19.4323   16.2126   34.4173 O   0  0  0  0  0  0  0  0  0  0  0  0
   20.1477   13.3072   39.2303 C   0  0  2  0  0  0  0  0  0  0  0  0
   19.2313   15.3568   38.1456 C   0  0  1  0  0  0  0  0  0  0  0  0
   21.6225   15.8191   37.4336 C   0  0  2  0  0  0  0  0  0  0  0  0
   22.8687   16.5690   37.9141 C   0  0  0  0  0  0  0  0  0  0  0  0
   21.1671   16.3748   36.1028 C   0  0  2  0  0  0  0  0  0  0  0  0
   19.8737   15.6844   35.6734 C   0  0  1  0  0  0  0  0  0  0  0  0
   18.7843   15.9155   36.7494 C   0  0  1  0  0  0  0  0  0  0  0  0
  5  4  1  1  0  0  0
  5  8  1  0  0  0  0
  5 16  1  0  0  0  0
  8  7  1  1  0  0  0
  8 10  1  0  0  0  0
 10  1  1  1  0  0  0
 10 12  1  0  0  0  0
 11 18  1  0  0  0  0
 12 14  1  0  0  0  0
 14  2  1  6  0  0  0
 14 16  1  0  0  0  0
 16  9  1  6  0  0  0
 17  9  1  6  0  0  0
 17 11  1  0  0  0  0
 17 22  1  0  0  0  0
 18 19  1  1  0  0  0
 18 20  1  0  0  0  0
 19  3  1  0  0  0  0
 20 13  1  6  0  0  0
 20 21  1  0  0  0  0
 21 15  1  6  0  0  0
 21 22  1  0  0  0  0
 22  6  1  6  0  0  0
M  END
>  <CHROM.1>
76.54004279,55.95353261,-55.87603511,20.27453557,14.24087437,38.48203244
-1.67842984,-0.02070048,-0.82650402

>  <Name>
2f4s_lig

>  <RI>
2.46955e+07

>  <Rbt.Current_Directory>
/home/itssahil/PROJECTS/Mol_Feturizer/New_Systems/rnas/2f4s

>  <Rbt.Executable>
rbdock ($Id: //depot/dev/client3/rdock/2013.1/src/exe/rbdock.cxx#4 $)

>  <Rbt.Library>
libRbt.so (2013.1, Build901 2013/11/27)

>  <Rbt.Parameter_File>
/export/apps/rDock/src/rDock_2013.1_src/data/scripts/dock_solv.prm

>  <Rbt.Receptor>
prm/pocket_docking_3.prm

>  <SCORE>
-7.86585

>  <SCORE.INTER>
-9.33922

>  <SCORE.INTER.CONST>
1

>  <SCORE.INTER.POLAR>
-0.968305

>  <SCORE.INTER.ROT>
3

>  <SCORE.INTER.SOLV>
14.2977

>  <SCORE.INTER.VDW>
-13.3644

>  <SCORE.INTER.norm>
-0.42451

>  <SCORE.INTRA>
0.913603

>  <SCORE.INTRA.DIHEDRAL>
-0.118237

>  <SCORE.INTRA.DIHEDRAL.0>
1.67653

>  <SCORE.INTRA.POLAR>
0

>  <SCORE.INTRA.POLAR.0>
0

>  <SCORE.INTRA.REPUL>
0

>  <SCORE.INTRA.REPUL.0>
0

>  <SCORE.INTRA.SOLV>
1.82549

>  <SCORE.INTRA.SOLV.lig_0>
-76.6701

>  <SCORE.INTRA.VDW>
0.059974

>  <SCORE.INTRA.VDW.0>
-1.53273

>  <SCORE.INTRA.norm>
0.0415274

>  <SCORE.RESTR>
0.559768

>  <SCORE.RESTR.CAVITY>
0.559768

>  <SCORE.RESTR.norm>
0.025444

>  <SCORE.SYSTEM>
0

>  <SCORE.SYSTEM.CONST>
0

>  <SCORE.SYSTEM.DIHEDRAL>
0

>  <SCORE.SYSTEM.SOLV>
0

>  <SCORE.SYSTEM.norm>
0

>  <SCORE.heavy>
22

>  <SCORE.norm>
-0.357539

>  <RMSD>
6.336

$$$$
2f4s_lig
 OpenBabel11021811433D
libRbt.so/2013.1/901 2013/11/27
 22 23  0  0  0  0  0  0  0  0999 V2000
   18.9333   12.0809   42.0973 N   0  0  0  0  0  0  0  0  0  0  0  0
   18.5048   15.8497   38.8127 N   0  0  0  0  0  0  0  0  0  0  0  0
   16.4125   14.0300   34.1977 N   0  0  0  0  0  0  0  0  0  0  0  0
   21.1991   11.7870   37.7057 O   0  0  0  0  0  0  0  0  0  0  0  0
   20.7784   12.7118   38.7500 C   0  0  2  0  0  0  0  0  0  0  0  0
   22.6452   15.8699   35.4873 N   0  0  0  0  0  0  0  0  0  0  0  0
   20.9168   10.9309   40.4444 O   0  0  0  0  0  0  0  0  0  0  0  0
   20.0613   11.9371   39.8898 C   0  0  1  0  0  0  0  0  0  0  0  0
   20.5053   14.5700   37.1749 O   0  0  0  0  0  0  0  0  0  0  0  0
   19.6341   12.8728   41.0140 C   0  0  1  0  0  0  0  0  0  0  0  0
   19.8957   13.2844   35.3526 O   0  0  0  0  0  0  0  0  0  0  0  0
   18.6820   13.9782   40.4444 C   0  0  0  0  0  0  0  0  0  0  0  0
   18.1436   15.9378   33.5154 O   0  0  0  0  0  0  0  0  0  0  0  0
   19.4511   14.7708   39.3185 C   0  0  1  0  0  0  0  0  0  0  0  0
   20.8219   16.9057   33.5250 O   0  0  0  0  0  0  0  0  0  0  0  0
   19.8171   13.8201   38.1642 C   0  0  2  0  0  0  0  0  0  0  0  0
   21.0428   13.9901   35.9995 C   0  0  1  0  0  0  0  0  0  0  0  0
   18.7393   14.1314   34.9448 C   0  0  2  0  0  0  0  0  0  0  0  0
   17.6676   13.2233   34.3339 C   0  0  0  0  0  0  0  0  0  0  0  0
   19.2227   15.1255   33.9127 C   0  0  2  0  0  0  0  0  0  0  0  0
   20.3535   15.9677   34.5009 C   0  0  1  0  0  0  0  0  0  0  0  0
   21.5154   15.0401   34.9339 C   0  0  1  0  0  0  0  0  0  0  0  0
  5  4  1  6  0  0  0
  5  8  1  0  0  0  0
  5 16  1  0  0  0  0
  8  7  1  1  0  0  0
  8 10  1  0  0  0  0
 10  1  1  1  0  0  0
 10 12  1  0  0  0  0
 11 18  1  0  0  0  0
 12 14  1  0  0  0  0
 14  2  1  6  0  0  0
 14 16  1  0  0  0  0
 16  9  1  6  0  0  0
 17  9  1  1  0  0  0
 17 11  1  0  0  0  0
 17 22  1  0  0  0  0
 18 19  1  6  0  0  0
 18 20  1  0  0  0  0
 19  3  1  0  0  0  0
 20 13  1  1  0  0  0
 20 21  1  0  0  0  0
 21 15  1  6  0  0  0
 21 22  1  0  0  0  0
 22  6  1  1  0  0  0
M  END
>  <CHROM.1>
60.16428044,55.10069475,168.24327576,19.77903651,14.03181923,36.99145662
1.52184603,0.13875392,2.00478002

>  <Name>
2f4s_lig

>  <RI>
2.00194e+07

>  <Rbt.Current_Directory>
/home/itssahil/PROJECTS/Mol_Feturizer/New_Systems/rnas/2f4s

>  <Rbt.Executable>
rbdock ($Id: //depot/dev/client3/rdock/2013.1/src/exe/rbdock.cxx#4 $)

>  <Rbt.Library>
libRbt.so (2013.1, Build901 2013/11/27)

>  <Rbt.Parameter_File>
/export/apps/rDock/src/rDock_2013.1_src/data/scripts/dock_solv.prm

>  <Rbt.Receptor>
prm/pocket_docking_6.prm

>  <SCORE>
-9.98376

>  <SCORE.INTER>
-10.5262

>  <SCORE.INTER.CONST>
1

>  <SCORE.INTER.POLAR>
-0.999762

>  <SCORE.INTER.ROT>
3

>  <SCORE.INTER.SOLV>
15.1328

>  <SCORE.INTER.VDW>
-14.3292

>  <SCORE.INTER.norm>
-0.478464

>  <SCORE.INTRA>
0.542443

>  <SCORE.INTRA.DIHEDRAL>
-0.925766

>  <SCORE.INTRA.DIHEDRAL.0>
1.67653

>  <SCORE.INTRA.POLAR>
0

>  <SCORE.INTRA.POLAR.0>
0

>  <SCORE.INTRA.REPUL>
0

>  <SCORE.INTRA.REPUL.0>
0

>  <SCORE.INTRA.SOLV>
0.755729

>  <SCORE.INTRA.SOLV.lig_0>
-76.6701

>  <SCORE.INTRA.VDW>
0.627461

>  <SCORE.INTRA.VDW.0>
-1.53273

>  <SCORE.INTRA.norm>
0.0246565

>  <SCORE.RESTR>
0

>  <SCORE.RESTR.CAVITY>
0

>  <SCORE.RESTR.norm>
0

>  <SCORE.SYSTEM>
0

>  <SCORE.SYSTEM.CONST>
0

>  <SCORE.SYSTEM.DIHEDRAL>
0

>  <SCORE.SYSTEM.SOLV>
0

>  <SCORE.SYSTEM.norm>
0

>  <SCORE.heavy>
22

>  <SCORE.norm>
-0.453807

>  <RMSD>
6.342

$$$$
2f4s_lig
 OpenBabel11021811433D
libRbt.so/2013.1/901 2013/11/27
 22 23  0  0  0  0  0  0  0  0999 V2000
   15.4837   12.4759   30.9407 N   0  0  0  0  0  0  0  0  0  0  0  0
   19.7946   12.3824   33.5066 N   0  0  0  0  0  0  0  0  0  0  0  0
   21.5453   11.8934   38.1064 N   0  0  0  0  0  0  0  0  0  0  0  0
   15.5837   14.0269   35.6409 O   0  0  0  0  0  0  0  0  0  0  0  0
   16.3664   13.9455   34.4146 C   0  0  2  0  0  0  0  0  0  0  0  0
   16.9884   16.2909   36.5572 N   0  0  0  0  0  0  0  0  0  0  0  0
   14.3153   13.9466   33.0528 O   0  0  0  0  0  0  0  0  0  0  0  0
   15.5397   13.2457   33.3009 C   0  0  1  0  0  0  0  0  0  0  0  0
   18.4950   13.8453   35.6262 O   0  0  0  0  0  0  0  0  0  0  0  0
   16.3198   13.1709   31.9941 C   0  0  1  0  0  0  0  0  0  0  0  0
   19.1503   13.4587   37.8094 O   0  0  0  0  0  0  0  0  0  0  0  0
   17.6601   12.3945   32.2259 C   0  0  0  0  0  0  0  0  0  0  0  0
   21.6906   16.1054   37.9757 O   0  0  0  0  0  0  0  0  0  0  0  0
   18.4924   13.1501   33.3320 C   0  0  1  0  0  0  0  0  0  0  0  0
   19.2988   17.6131   37.6348 O   0  0  0  0  0  0  0  0  0  0  0  0
   17.7140   13.1585   34.6602 C   0  0  2  0  0  0  0  0  0  0  0  0
   18.0699   14.0480   36.9622 C   0  0  1  0  0  0  0  0  0  0  0  0
   20.5052   14.0645   37.6744 C   0  0  2  0  0  0  0  0  0  0  0  0
   21.4665   13.3072   38.5956 C   0  0  0  0  0  0  0  0  0  0  0  0
   20.4190   15.5138   38.0980 C   0  0  2  0  0  0  0  0  0  0  0  0
   19.3917   16.2416   37.2327 C   0  0  1  0  0  0  0  0  0  0  0  0
   18.0110   15.5573   37.3863 C   0  0  1  0  0  0  0  0  0  0  0  0
  5  4  1  1  0  0  0
  5  8  1  0  0  0  0
  5 16  1  0  0  0  0
  8  7  1  6  0  0  0
  8 10  1  0  0  0  0
 10  1  1  6  0  0  0
 10 12  1  0  0  0  0
 11 18  1  0  0  0  0
 12 14  1  0  0  0  0
 14  2  1  1  0  0  0
 14 16  1  0  0  0  0
 16  9  1  1  0  0  0
 17  9  1  6  0  0  0
 17 11  1  0  0  0  0
 17 22  1  0  0  0  0
 18 19  1  1  0  0  0
 18 20  1  0  0  0  0
 19  3  1  0  0  0  0
 20 13  1  6  0  0  0
 20 21  1  0  0  0  0
 21 15  1  1  0  0  0
 21 22  1  0  0  0  0
 22  6  1  6  0  0  0
M  END
>  <CHROM.1>
62.62811947,123.82882469,63.62658623,18.28547225,14.10815959,35.60825235
-2.37843256,-0.53852588,0.75394123

>  <Name>
2f4s_lig

>  <RI>
0

>  <Rbt.Current_Directory>
/home/itssahil/PROJECTS/Mol_Feturizer/New_Systems/rnas/2f4s

>  <Rbt.Executable>
rbdock ($Id: //depot/dev/client3/rdock/2013.1/src/exe/rbdock.cxx#4 $)

>  <Rbt.Library>
libRbt.so (2013.1, Build901 2013/11/27)

>  <Rbt.Parameter_File>
/export/apps/rDock/src/rDock_2013.1_src/data/scripts/dock_solv.prm

>  <Rbt.Receptor>
prm/pocket_docking_8.prm

>  <SCORE>
-7.43591

>  <SCORE.INTER>
-11.1105

>  <SCORE.INTER.CONST>
1

>  <SCORE.INTER.POLAR>
-1.77413

>  <SCORE.INTER.ROT>
3

>  <SCORE.INTER.SOLV>
12.1563

>  <SCORE.INTER.VDW>
-11.1454

>  <SCORE.INTER.norm>
-0.505024

>  <SCORE.INTRA>
3.67462

>  <SCORE.INTRA.DIHEDRAL>
5.4613

>  <SCORE.INTRA.DIHEDRAL.0>
1.67653

>  <SCORE.INTRA.POLAR>
0

>  <SCORE.INTRA.POLAR.0>
0

>  <SCORE.INTRA.REPUL>
0

>  <SCORE.INTRA.REPUL.0>
0

>  <SCORE.INTRA.SOLV>
1.53793

>  <SCORE.INTRA.SOLV.lig_0>
-76.6701

>  <SCORE.INTRA.VDW>
0.175002

>  <SCORE.INTRA.VDW.0>
-1.53273

>  <SCORE.INTRA.norm>
0.167028

>  <SCORE.RESTR>
0

>  <SCORE.RESTR.CAVITY>
0

>  <SCORE.RESTR.norm>
0

>  <SCORE.SYSTEM>
0

>  <SCORE.SYSTEM.CONST>
0

>  <SCORE.SYSTEM.DIHEDRAL>
0

>  <SCORE.SYSTEM.SOLV>
0

>  <SCORE.SYSTEM.norm>
0

>  <SCORE.heavy>
22

>  <SCORE.norm>
-0.337996

>  <RMSD>
6.344

$$$$
2f4s_lig
 OpenBabel11021811433D
libRbt.so/2013.1/901 2013/11/27
 22 23  0  0  0  0  0  0  0  0999 V2000
   19.7287    9.9740   42.1227 N   0  0  0  0  0  0  0  0  0  0  0  0
   18.8728   14.1929   39.5451 N   0  0  0  0  0  0  0  0  0  0  0  0
   18.4857   14.2453   34.5858 N   0  0  0  0  0  0  0  0  0  0  0  0
   23.1256   11.6386   38.9295 O   0  0  0  0  0  0  0  0  0  0  0  0
   22.0902   12.0562   39.8655 C   0  0  2  0  0  0  0  0  0  0  0  0
   23.7214   16.2020   38.1400 N   0  0  0  0  0  0  0  0  0  0  0  0
   22.3963   10.0030   41.1891 O   0  0  0  0  0  0  0  0  0  0  0  0
   21.4251   10.8109   40.5140 C   0  0  1  0  0  0  0  0  0  0  0  0
   21.6009   14.1049   38.6116 O   0  0  0  0  0  0  0  0  0  0  0  0
   20.3560   11.2140   41.5222 C   0  0  1  0  0  0  0  0  0  0  0  0
   21.7029   13.5452   36.3708 O   0  0  0  0  0  0  0  0  0  0  0  0
   19.2665   12.0869   40.8122 C   0  0  0  0  0  0  0  0  0  0  0  0
   19.8598   16.4606   35.1104 O   0  0  0  0  0  0  0  0  0  0  0  0
   19.9658   13.3604   40.1988 C   0  0  1  0  0  0  0  0  0  0  0  0
   22.1921   17.6738   36.2053 O   0  0  0  0  0  0  0  0  0  0  0  0
   20.9963   12.9334   39.1377 C   0  0  2  0  0  0  0  0  0  0  0  0
   22.4970   14.0869   37.5146 C   0  0  1  0  0  0  0  0  0  0  0  0
   20.5077   14.3343   35.9590 C   0  0  2  0  0  0  0  0  0  0  0  0
   19.8217   13.6028   34.8012 C   0  0  0  0  0  0  0  0  0  0  0  0
   20.9763   15.6978   35.5024 C   0  0  2  0  0  0  0  0  0  0  0  0
   21.7379   16.3850   36.6344 C   0  0  1  0  0  0  0  0  0  0  0  0
   22.9505   15.5130   37.0435 C   0  0  1  0  0  0  0  0  0  0  0  0
  5  4  1  6  0  0  0
  5  8  1  0  0  0  0
  5 16  1  0  0  0  0
  8  7  1  1  0  0  0
  8 10  1  0  0  0  0
 10  1  1  6  0  0  0
 10 12  1  0  0  0  0
 11 18  1  0  0  0  0
 12 14  1  0  0  0  0
 14  2  1  6  0  0  0
 14 16  1  0  0  0  0
 16  9  1  1  0  0  0
 17  9  1  1  0  0  0
 17 11  1  0  0  0  0
 17 22  1  0  0  0  0
 18 19  1  6  0  0  0
 18 20  1  0  0  0  0
 19  3  1  0  0  0  0
 20 13  1  1  0  0  0
 20 21  1  0  0  0  0
 21 15  1  6  0  0  0
 21 22  1  0  0  0  0
 22  6  1  1  0  0  0
M  END
>  <CHROM.1>
69.95738647,61.60191199,168.61467824,21.12278794,13.65199992,38.17224625
1.59195036,0.34316590,2.30378713

>  <Name>
2f4s_lig

>  <RI>
0

>  <Rbt.Current_Directory>
/home/itssahil/PROJECTS/Mol_Feturizer/New_Systems/rnas/2f4s

>  <Rbt.Executable>
rbdock ($Id: //depot/dev/client3/rdock/2013.1/src/exe/rbdock.cxx#4 $)

>  <Rbt.Library>
libRbt.so (2013.1, Build901 2013/11/27)

>  <Rbt.Parameter_File>
/export/apps/rDock/src/rDock_2013.1_src/data/scripts/dock_solv.prm

>  <Rbt.Receptor>
prm/pocket_docking_5.prm

>  <SCORE>
-10.6047

>  <SCORE.INTER>
-11.0476

>  <SCORE.INTER.CONST>
1

>  <SCORE.INTER.POLAR>
-0.73241

>  <SCORE.INTER.ROT>
3

>  <SCORE.INTER.SOLV>
14.0613

>  <SCORE.INTER.VDW>
-15.2108

>  <SCORE.INTER.norm>
-0.502165

>  <SCORE.INTRA>
0.442952

>  <SCORE.INTRA.DIHEDRAL>
-0.582663

>  <SCORE.INTRA.DIHEDRAL.0>
1.67653

>  <SCORE.INTRA.POLAR>
0

>  <SCORE.INTRA.POLAR.0>
0

>  <SCORE.INTRA.REPUL>
0

>  <SCORE.INTRA.REPUL.0>
0

>  <SCORE.INTRA.SOLV>
0.894011

>  <SCORE.INTRA.SOLV.lig_0>
-76.6701

>  <SCORE.INTRA.VDW>
0.287278

>  <SCORE.INTRA.VDW.0>
-1.53273

>  <SCORE.INTRA.norm>
0.0201342

>  <SCORE.RESTR>
0

>  <SCORE.RESTR.CAVITY>
0

>  <SCORE.RESTR.norm>
0

>  <SCORE.SYSTEM>
0

>  <SCORE.SYSTEM.CONST>
0

>  <SCORE.SYSTEM.DIHEDRAL>
0

>  <SCORE.SYSTEM.SOLV>
0

>  <SCORE.SYSTEM.norm>
0

>  <SCORE.heavy>
22

>  <SCORE.norm>
-0.482031

>  <RMSD>
6.349

$$$$
2f4s_lig
 OpenBabel11021811433D
libRbt.so/2013.1/901 2013/11/27
 22 23  0  0  0  0  0  0  0  0999 V2000
   19.7844    9.9812   42.0992 N   0  0  0  0  0  0  0  0  0  0  0  0
   18.9707   14.1764   39.4697 N   0  0  0  0  0  0  0  0  0  0  0  0
   20.7998   13.9510   33.5149 N   0  0  0  0  0  0  0  0  0  0  0  0
   23.1877   11.5596   38.8691 O   0  0  0  0  0  0  0  0  0  0  0  0
   22.1620   12.0029   39.8041 C   0  0  2  0  0  0  0  0  0  0  0  0
   23.9993   15.9548   38.1563 N   0  0  0  0  0  0  0  0  0  0  0  0
   22.4479    9.9635   41.1534 O   0  0  0  0  0  0  0  0  0  0  0  0
   21.4840   10.7749   40.4720 C   0  0  1  0  0  0  0  0  0  0  0  0
   21.6932   14.0409   38.5254 O   0  0  0  0  0  0  0  0  0  0  0  0
   20.4248   11.2049   41.4795 C   0  0  1  0  0  0  0  0  0  0  0  0
   21.7478   13.5899   36.2585 O   0  0  0  0  0  0  0  0  0  0  0  0
   19.3433   12.0823   40.7628 C   0  0  0  0  0  0  0  0  0  0  0  0
   20.1844   16.7239   35.1542 O   0  0  0  0  0  0  0  0  0  0  0  0
   20.0561   13.3385   40.1296 C   0  0  1  0  0  0  0  0  0  0  0  0
   22.6165   17.6588   36.3037 O   0  0  0  0  0  0  0  0  0  0  0  0
   21.0760   12.8844   39.0696 C   0  0  2  0  0  0  0  0  0  0  0  0
   22.5861   13.9967   37.4265 C   0  0  1  0  0  0  0  0  0  0  0  0
   20.6314   14.5062   35.8910 C   0  0  2  0  0  0  0  0  0  0  0  0
   19.8833   13.9014   34.6989 C   0  0  0  0  0  0  0  0  0  0  0  0
   21.2248   15.8422   35.5036 C   0  0  2  0  0  0  0  0  0  0  0  0
   22.0442   16.3971   36.6674 C   0  0  1  0  0  0  0  0  0  0  0  0
   23.1703   15.3971   37.0280 C   0  0  1  0  0  0  0  0  0  0  0  0
  5  4  1  6  0  0  0
  5  8  1  0  0  0  0
  5 16  1  0  0  0  0
  8  7  1  1  0  0  0
  8 10  1  0  0  0  0
 10  1  1  6  0  0  0
 10 12  1  0  0  0  0
 11 18  1  0  0  0  0
 12 14  1  0  0  0  0
 14  2  1  6  0  0  0
 14 16  1  0  0  0  0
 16  9  1  1  0  0  0
 17  9  1  1  0  0  0
 17 11  1  0  0  0  0
 17 22  1  0  0  0  0
 18 19  1  6  0  0  0
 18 20  1  0  0  0  0
 19  3  1  0  0  0  0
 20 13  1  1  0  0  0
 20 21  1  0  0  0  0
 21 15  1  6  0  0  0
 21 22  1  0  0  0  0
 22  6  1  1  0  0  0
M  END
>  <CHROM.1>
69.82025045,67.55763500,-68.01582894,21.36148549,13.64415548,38.08780202
1.65558961,0.36469852,2.26538347

>  <Name>
2f4s_lig

>  <RI>
2.00194e+07

>  <Rbt.Current_Directory>
/home/itssahil/PROJECTS/Mol_Feturizer/New_Systems/rnas/2f4s

>  <Rbt.Executable>
rbdock ($Id: //depot/dev/client3/rdock/2013.1/src/exe/rbdock.cxx#4 $)

>  <Rbt.Library>
libRbt.so (2013.1, Build901 2013/11/27)

>  <Rbt.Parameter_File>
/export/apps/rDock/src/rDock_2013.1_src/data/scripts/dock_solv.prm

>  <Rbt.Receptor>
prm/pocket_docking_6.prm

>  <SCORE>
-10.4012

>  <SCORE.INTER>
-11.2925

>  <SCORE.INTER.CONST>
1

>  <SCORE.INTER.POLAR>
-1.02759

>  <SCORE.INTER.ROT>
3

>  <SCORE.INTER.SOLV>
17.8994

>  <SCORE.INTER.VDW>
-15.6695

>  <SCORE.INTER.norm>
-0.513297

>  <SCORE.INTRA>
0.891316

>  <SCORE.INTRA.DIHEDRAL>
-0.562099

>  <SCORE.INTRA.DIHEDRAL.0>
1.67653

>  <SCORE.INTRA.POLAR>
0

>  <SCORE.INTRA.POLAR.0>
0

>  <SCORE.INTRA.REPUL>
0

>  <SCORE.INTRA.REPUL.0>
0

>  <SCORE.INTRA.SOLV>
1.60921

>  <SCORE.INTRA.SOLV.lig_0>
-76.6701

>  <SCORE.INTRA.VDW>
0.367763

>  <SCORE.INTRA.VDW.0>
-1.53273

>  <SCORE.INTRA.norm>
0.0405144

>  <SCORE.RESTR>
0

>  <SCORE.RESTR.CAVITY>
0

>  <SCORE.RESTR.norm>
0

>  <SCORE.SYSTEM>
0

>  <SCORE.SYSTEM.CONST>
0

>  <SCORE.SYSTEM.DIHEDRAL>
0

>  <SCORE.SYSTEM.SOLV>
0

>  <SCORE.SYSTEM.norm>
0

>  <SCORE.heavy>
22

>  <SCORE.norm>
-0.472783

>  <RMSD>
6.357

$$$$
2f4s_lig
 OpenBabel11021811433D
libRbt.so/2013.1/901 2013/11/27
 22 23  0  0  0  0  0  0  0  0999 V2000
   19.7872    9.9722   42.1060 N   0  0  0  0  0  0  0  0  0  0  0  0
   18.9670   14.1552   39.4591 N   0  0  0  0  0  0  0  0  0  0  0  0
   20.7998   13.9766   33.5164 N   0  0  0  0  0  0  0  0  0  0  0  0
   23.1971   11.5539   38.8845 O   0  0  0  0  0  0  0  0  0  0  0  0
   22.1658   11.9960   39.8139 C   0  0  2  0  0  0  0  0  0  0  0  0
   24.0146   15.9263   38.1699 N   0  0  0  0  0  0  0  0  0  0  0  0
   22.4546    9.9624   41.1712 O   0  0  0  0  0  0  0  0  0  0  0  0
   21.4902   10.7675   40.4831 C   0  0  1  0  0  0  0  0  0  0  0  0
   21.6939   14.0278   38.5263 O   0  0  0  0  0  0  0  0  0  0  0  0
   20.4251   11.1966   41.4849 C   0  0  1  0  0  0  0  0  0  0  0  0
   21.7445   13.5922   36.2564 O   0  0  0  0  0  0  0  0  0  0  0  0
   19.3430   12.0670   40.7608 C   0  0  0  0  0  0  0  0  0  0  0  0
   20.2051   16.7458   35.1743 O   0  0  0  0  0  0  0  0  0  0  0  0
   20.0531   13.3241   40.1262 C   0  0  1  0  0  0  0  0  0  0  0  0
   22.6446   17.6538   36.3296 O   0  0  0  0  0  0  0  0  0  0  0  0
   21.0793   12.8705   39.0719 C   0  0  2  0  0  0  0  0  0  0  0  0
   22.5861   13.9843   37.4269 C   0  0  1  0  0  0  0  0  0  0  0  0
   20.6351   14.5196   35.8955 C   0  0  2  0  0  0  0  0  0  0  0  0
   19.8820   13.9289   34.6995 C   0  0  0  0  0  0  0  0  0  0  0  0
   21.2388   15.8536   35.5173 C   0  0  2  0  0  0  0  0  0  0  0  0
   22.0627   16.3941   36.6847 C   0  0  1  0  0  0  0  0  0  0  0  0
   23.1811   15.3829   37.0380 C   0  0  1  0  0  0  0  0  0  0  0  0
  5  4  1  6  0  0  0
  5  8  1  0  0  0  0
  5 16  1  0  0  0  0
  8  7  1  1  0  0  0
  8 10  1  0  0  0  0
 10  1  1  6  0  0  0
 10 12  1  0  0  0  0
 11 18  1  0  0  0  0
 12 14  1  0  0  0  0
 14  2  1  6  0  0  0
 14 16  1  0  0  0  0
 16  9  1  1  0  0  0
 17  9  1  1  0  0  0
 17 11  1  0  0  0  0
 17 22  1  0  0  0  0
 18 19  1  6  0  0  0
 18 20  1  0  0  0  0
 19  3  1  0  0  0  0
 20 13  1  1  0  0  0
 20 21  1  0  0  0  0
 21 15  1  6  0  0  0
 21 22  1  0  0  0  0
 22  6  1  1  0  0  0
M  END
>  <CHROM.1>
70.15234306,68.26864567,-67.88217141,21.36770026,13.64083723,38.09524050
1.65572200,0.35553700,2.26749602

>  <Name>
2f4s_lig

>  <RI>
2.00194e+07

>  <Rbt.Current_Directory>
/home/itssahil/PROJECTS/Mol_Feturizer/New_Systems/rnas/2f4s

>  <Rbt.Executable>
rbdock ($Id: //depot/dev/client3/rdock/2013.1/src/exe/rbdock.cxx#4 $)

>  <Rbt.Library>
libRbt.so (2013.1, Build901 2013/11/27)

>  <Rbt.Parameter_File>
/export/apps/rDock/src/rDock_2013.1_src/data/scripts/dock_solv.prm

>  <Rbt.Receptor>
prm/pocket_docking_6.prm

>  <SCORE>
-10.4094

>  <SCORE.INTER>
-11.3103

>  <SCORE.INTER.CONST>
1

>  <SCORE.INTER.POLAR>
-1.03425

>  <SCORE.INTER.ROT>
3

>  <SCORE.INTER.SOLV>
17.8925

>  <SCORE.INTER.VDW>
-15.6569

>  <SCORE.INTER.norm>
-0.514103

>  <SCORE.INTRA>
0.900859

>  <SCORE.INTRA.DIHEDRAL>
-0.486316

>  <SCORE.INTRA.DIHEDRAL.0>
1.67653

>  <SCORE.INTRA.POLAR>
0

>  <SCORE.INTRA.POLAR.0>
0

>  <SCORE.INTRA.REPUL>
0

>  <SCORE.INTRA.REPUL.0>
0

>  <SCORE.INTRA.SOLV>
1.61756

>  <SCORE.INTRA.SOLV.lig_0>
-76.6701

>  <SCORE.INTRA.VDW>
0.335234

>  <SCORE.INTRA.VDW.0>
-1.53273

>  <SCORE.INTRA.norm>
0.0409481

>  <SCORE.RESTR>
0

>  <SCORE.RESTR.CAVITY>
0

>  <SCORE.RESTR.norm>
0

>  <SCORE.SYSTEM>
0

>  <SCORE.SYSTEM.CONST>
0

>  <SCORE.SYSTEM.DIHEDRAL>
0

>  <SCORE.SYSTEM.SOLV>
0

>  <SCORE.SYSTEM.norm>
0

>  <SCORE.heavy>
22

>  <SCORE.norm>
-0.473155

>  <RMSD>
6.364

$$$$
2f4s_lig
 OpenBabel11021811433D
libRbt.so/2013.1/901 2013/11/27
 22 23  0  0  0  0  0  0  0  0999 V2000
   20.3927   10.6606   42.8673 N   0  0  0  0  0  0  0  0  0  0  0  0
   18.1316   14.0670   39.9587 N   0  0  0  0  0  0  0  0  0  0  0  0
   19.4121   17.2157   40.0157 N   0  0  0  0  0  0  0  0  0  0  0  0
   21.6191   11.0151   38.0843 O   0  0  0  0  0  0  0  0  0  0  0  0
   21.1778   11.7805   39.2428 C   0  0  2  0  0  0  0  0  0  0  0  0
   19.4702   13.1844   34.9066 N   0  0  0  0  0  0  0  0  0  0  0  0
   22.2180   10.1532   40.7697 O   0  0  0  0  0  0  0  0  0  0  0  0
   20.9978   10.8391   40.4656 C   0  0  1  0  0  0  0  0  0  0  0  0
   20.0153   13.4416   37.8652 O   0  0  0  0  0  0  0  0  0  0  0  0
   20.5647   11.6140   41.7041 C   0  0  1  0  0  0  0  0  0  0  0  0
   18.8131   15.4164   37.8814 O   0  0  0  0  0  0  0  0  0  0  0  0
   19.2216   12.3646   41.4112 C   0  0  0  0  0  0  0  0  0  0  0  0
   21.3788   17.5001   36.2810 O   0  0  0  0  0  0  0  0  0  0  0  0
   19.4473   13.3391   40.1920 C   0  0  1  0  0  0  0  0  0  0  0  0
   20.7396   15.6621   34.2017 O   0  0  0  0  0  0  0  0  0  0  0  0
   19.8216   12.5307   38.9364 C   0  0  2  0  0  0  0  0  0  0  0  0
   18.9469   14.0929   37.2011 C   0  0  1  0  0  0  0  0  0  0  0  0
   19.9969   16.3194   37.8164 C   0  0  2  0  0  0  0  0  0  0  0  0
   19.6702   17.5999   38.5908 C   0  0  0  0  0  0  0  0  0  0  0  0
   20.2611   16.6481   36.3640 C   0  0  2  0  0  0  0  0  0  0  0  0
   20.4973   15.3582   35.5802 C   0  0  1  0  0  0  0  0  0  0  0  0
   19.2527   14.4451   35.7032 C   0  0  1  0  0  0  0  0  0  0  0  0
  5  4  1  6  0  0  0
  5  8  1  0  0  0  0
  5 16  1  0  0  0  0
  8  7  1  1  0  0  0
  8 10  1  0  0  0  0
 10  1  1  1  0  0  0
 10 12  1  0  0  0  0
 11 18  1  0  0  0  0
 12 14  1  0  0  0  0
 14  2  1  6  0  0  0
 14 16  1  0  0  0  0
 16  9  1  6  0  0  0
 17  9  1  1  0  0  0
 17 11  1  0  0  0  0
 17 22  1  0  0  0  0
 18 19  1  1  0  0  0
 18 20  1  0  0  0  0
 19  3  1  0  0  0  0
 20 13  1  1  0  0  0
 20 21  1  0  0  0  0
 21 15  1  6  0  0  0
 21 22  1  0  0  0  0
 22  6  1  6  0  0  0
M  END
>  <CHROM.1>
168.67372652,94.96535882,61.66440263,20.11995800,13.88032076,38.42453594
1.30297015,-1.24348020,2.12084347

>  <Name>
2f4s_lig

>  <RI>
0

>  <Rbt.Current_Directory>
/home/itssahil/PROJECTS/Mol_Feturizer/New_Systems/rnas/2f4s

>  <Rbt.Executable>
rbdock ($Id: //depot/dev/client3/rdock/2013.1/src/exe/rbdock.cxx#4 $)

>  <Rbt.Library>
libRbt.so (2013.1, Build901 2013/11/27)

>  <Rbt.Parameter_File>
/export/apps/rDock/src/rDock_2013.1_src/data/scripts/dock_solv.prm

>  <Rbt.Receptor>
prm/pocket_docking_4.prm

>  <SCORE>
-4.66514

>  <SCORE.INTER>
-8.46759

>  <SCORE.INTER.CONST>
1

>  <SCORE.INTER.POLAR>
-0.600537

>  <SCORE.INTER.ROT>
3

>  <SCORE.INTER.SOLV>
18.0314

>  <SCORE.INTER.VDW>
-15.2537

>  <SCORE.INTER.norm>
-0.38489

>  <SCORE.INTRA>
3.80245

>  <SCORE.INTRA.DIHEDRAL>
3.4811

>  <SCORE.INTRA.DIHEDRAL.0>
1.67653

>  <SCORE.INTRA.POLAR>
0

>  <SCORE.INTRA.POLAR.0>
0

>  <SCORE.INTRA.REPUL>
0

>  <SCORE.INTRA.REPUL.0>
0

>  <SCORE.INTRA.SOLV>
3.9296

>  <SCORE.INTRA.SOLV.lig_0>
-76.6701

>  <SCORE.INTRA.VDW>
0.0971009

>  <SCORE.INTRA.VDW.0>
-1.53273

>  <SCORE.INTRA.norm>
0.172839

>  <SCORE.RESTR>
0

>  <SCORE.RESTR.CAVITY>
0

>  <SCORE.RESTR.norm>
0

>  <SCORE.SYSTEM>
0

>  <SCORE.SYSTEM.CONST>
0

>  <SCORE.SYSTEM.DIHEDRAL>
0

>  <SCORE.SYSTEM.SOLV>
0

>  <SCORE.SYSTEM.norm>
0

>  <SCORE.heavy>
22

>  <SCORE.norm>
-0.212052

>  <RMSD>
6.368

$$$$
2f4s_lig
 OpenBabel11021811433D
libRbt.so/2013.1/901 2013/11/27
 22 23  0  0  0  0  0  0  0  0999 V2000
   22.4304    9.2738   42.2960 N   0  0  0  0  0  0  0  0  0  0  0  0
   21.5523   11.9364   38.1348 N   0  0  0  0  0  0  0  0  0  0  0  0
   23.0180   14.5623   37.7143 N   0  0  0  0  0  0  0  0  0  0  0  0
   18.9911   12.8343   42.3330 O   0  0  0  0  0  0  0  0  0  0  0  0
   19.6269   11.8250   41.4964 C   0  0  2  0  0  0  0  0  0  0  0  0
   16.6596   14.5500   38.9333 N   0  0  0  0  0  0  0  0  0  0  0  0
   20.1452   10.4502   43.4720 O   0  0  0  0  0  0  0  0  0  0  0  0
   20.7117   11.0660   42.3094 C   0  0  1  0  0  0  0  0  0  0  0  0
   19.2661   13.1133   39.4425 O   0  0  0  0  0  0  0  0  0  0  0  0
   21.3766    9.9812   41.4709 C   0  0  1  0  0  0  0  0  0  0  0  0
   20.4015   14.9482   38.6124 O   0  0  0  0  0  0  0  0  0  0  0  0
   22.0223   10.6237   40.1968 C   0  0  0  0  0  0  0  0  0  0  0  0
   19.6825   14.3351   35.0637 O   0  0  0  0  0  0  0  0  0  0  0  0
   20.8909   11.3520   39.3743 C   0  0  1  0  0  0  0  0  0  0  0  0
   17.0811   14.8394   36.1073 O   0  0  0  0  0  0  0  0  0  0  0  0
   20.2765   12.4849   40.2164 C   0  0  2  0  0  0  0  0  0  0  0  0
   19.1534   14.5195   39.3129 C   0  0  1  0  0  0  0  0  0  0  0  0
   20.6231   14.3898   37.2485 C   0  0  2  0  0  0  0  0  0  0  0  0
   21.9578   14.9236   36.7194 C   0  0  0  0  0  0  0  0  0  0  0  0
   19.4922   14.8546   36.3583 C   0  0  2  0  0  0  0  0  0  0  0  0
   18.1572   14.3947   36.9414 C   0  0  1  0  0  0  0  0  0  0  0  0
   17.9890   14.9772   38.3663 C   0  0  1  0  0  0  0  0  0  0  0  0
  5  4  1  1  0  0  0
  5  8  1  0  0  0  0
  5 16  1  0  0  0  0
  8  7  1  1  0  0  0
  8 10  1  0  0  0  0
 10  1  1  1  0  0  0
 10 12  1  0  0  0  0
 11 18  1  0  0  0  0
 12 14  1  0  0  0  0
 14  2  1  6  0  0  0
 14 16  1  0  0  0  0
 16  9  1  6  0  0  0
 17  9  1  6  0  0  0
 17 11  1  0  0  0  0
 17 22  1  0  0  0  0
 18 19  1  6  0  0  0
 18 20  1  0  0  0  0
 19  3  1  0  0  0  0
 20 13  1  6  0  0  0
 20 21  1  0  0  0  0
 21 15  1  6  0  0  0
 21 22  1  0  0  0  0
 22  6  1  1  0  0  0
M  END
>  <CHROM.1>
110.27711521,63.99390328,55.84966134,20.04517168,13.02727064,39.18271116
-1.28564562,0.36498976,-1.00831992

>  <Name>
2f4s_lig

>  <RI>
0

>  <Rbt.Current_Directory>
/home/itssahil/PROJECTS/Mol_Feturizer/New_Systems/rnas/2f4s

>  <Rbt.Executable>
rbdock ($Id: //depot/dev/client3/rdock/2013.1/src/exe/rbdock.cxx#4 $)

>  <Rbt.Library>
libRbt.so (2013.1, Build901 2013/11/27)

>  <Rbt.Parameter_File>
/export/apps/rDock/src/rDock_2013.1_src/data/scripts/dock_solv.prm

>  <Rbt.Receptor>
prm/pocket_docking_8.prm

>  <SCORE>
-8.45218

>  <SCORE.INTER>
-13.1512

>  <SCORE.INTER.CONST>
1

>  <SCORE.INTER.POLAR>
-0.979796

>  <SCORE.INTER.ROT>
3

>  <SCORE.INTER.SOLV>
19.4484

>  <SCORE.INTER.VDW>
-17.5843

>  <SCORE.INTER.norm>
-0.597781

>  <SCORE.INTRA>
4.68735

>  <SCORE.INTRA.DIHEDRAL>
5.30037

>  <SCORE.INTRA.DIHEDRAL.0>
1.67653

>  <SCORE.INTRA.POLAR>
0

>  <SCORE.INTRA.POLAR.0>
0

>  <SCORE.INTRA.REPUL>
0

>  <SCORE.INTRA.REPUL.0>
0

>  <SCORE.INTRA.SOLV>
4.77465

>  <SCORE.INTRA.SOLV.lig_0>
-76.6701

>  <SCORE.INTRA.VDW>
-0.350157

>  <SCORE.INTRA.VDW.0>
-1.53273

>  <SCORE.INTRA.norm>
0.213061

>  <SCORE.RESTR>
0.0116425

>  <SCORE.RESTR.CAVITY>
0.0116425

>  <SCORE.RESTR.norm>
0.000529206

>  <SCORE.SYSTEM>
0

>  <SCORE.SYSTEM.CONST>
0

>  <SCORE.SYSTEM.DIHEDRAL>
0

>  <SCORE.SYSTEM.SOLV>
0

>  <SCORE.SYSTEM.norm>
0

>  <SCORE.heavy>
22

>  <SCORE.norm>
-0.38419

>  <RMSD>
6.373

$$$$
2f4s_lig
 OpenBabel11021811433D
libRbt.so/2013.1/901 2013/11/27
 22 23  0  0  0  0  0  0  0  0999 V2000
   19.0022   12.1457   41.5141 N   0  0  0  0  0  0  0  0  0  0  0  0
   18.0883   15.9807   38.4104 N   0  0  0  0  0  0  0  0  0  0  0  0
   20.7168   14.1615   31.9897 N   0  0  0  0  0  0  0  0  0  0  0  0
   21.5807   12.5773   37.3103 O   0  0  0  0  0  0  0  0  0  0  0  0
   20.9195   13.3346   38.3649 C   0  0  2  0  0  0  0  0  0  0  0  0
   22.9897   16.7720   36.8546 N   0  0  0  0  0  0  0  0  0  0  0  0
   21.2788   11.5009   39.9680 O   0  0  0  0  0  0  0  0  0  0  0  0
   20.2869   12.3644   39.4003 C   0  0  1  0  0  0  0  0  0  0  0  0
   20.4052   15.2109   36.8738 O   0  0  0  0  0  0  0  0  0  0  0  0
   19.6117   13.1258   40.5345 C   0  0  1  0  0  0  0  0  0  0  0  0
   20.9192   14.3977   34.7715 O   0  0  0  0  0  0  0  0  0  0  0  0
   18.5073   14.0697   39.9494 C   0  0  0  0  0  0  0  0  0  0  0  0
   20.1349   17.4672   32.9145 O   0  0  0  0  0  0  0  0  0  0  0  0
   19.1863   15.0661   38.9330 C   0  0  1  0  0  0  0  0  0  0  0  0
   22.3427   18.2986   34.5096 O   0  0  0  0  0  0  0  0  0  0  0  0
   19.8065   14.2806   37.7631 C   0  0  2  0  0  0  0  0  0  0  0  0
   21.5129   14.8914   36.0507 C   0  0  1  0  0  0  0  0  0  0  0  0
   20.0665   15.3612   34.0195 C   0  0  2  0  0  0  0  0  0  0  0  0
   19.5360   14.6594   32.7656 C   0  0  0  0  0  0  0  0  0  0  0  0
   20.9239   16.5431   33.6255 C   0  0  2  0  0  0  0  0  0  0  0  0
   21.5222   17.1835   34.8767 C   0  0  1  0  0  0  0  0  0  0  0  0
   22.3735   16.1356   35.6353 C   0  0  1  0  0  0  0  0  0  0  0  0
  5  4  1  6  0  0  0
  5  8  1  0  0  0  0
  5 16  1  0  0  0  0
  8  7  1  1  0  0  0
  8 10  1  0  0  0  0
 10  1  1  1  0  0  0
 10 12  1  0  0  0  0
 11 18  1  0  0  0  0
 12 14  1  0  0  0  0
 14  2  1  6  0  0  0
 14 16  1  0  0  0  0
 16  9  1  6  0  0  0
 17  9  1  1  0  0  0
 17 11  1  0  0  0  0
 17 22  1  0  0  0  0
 18 19  1  6  0  0  0
 18 20  1  0  0  0  0
 19  3  1  0  0  0  0
 20 13  1  1  0  0  0
 20 21  1  0  0  0  0
 21 15  1  6  0  0  0
 21 22  1  0  0  0  0
 22  6  1  1  0  0  0
M  END
>  <CHROM.1>
34.97528208,90.68250958,-56.42810249,20.55159724,14.79997614,36.65171794
-3.03232576,-1.39900591,-2.52902611

>  <Name>
2f4s_lig

>  <RI>
2.26097e+07

>  <Rbt.Current_Directory>
/home/itssahil/PROJECTS/Mol_Feturizer/New_Systems/rnas/2f4s

>  <Rbt.Executable>
rbdock ($Id: //depot/dev/client3/rdock/2013.1/src/exe/rbdock.cxx#4 $)

>  <Rbt.Library>
libRbt.so (2013.1, Build901 2013/11/27)

>  <Rbt.Parameter_File>
/export/apps/rDock/src/rDock_2013.1_src/data/scripts/dock_solv.prm

>  <Rbt.Receptor>
prm/pocket_docking_7.prm

>  <SCORE>
-6.01389

>  <SCORE.INTER>
-10.9034

>  <SCORE.INTER.CONST>
1

>  <SCORE.INTER.POLAR>
-1.47218

>  <SCORE.INTER.ROT>
3

>  <SCORE.INTER.SOLV>
14.2184

>  <SCORE.INTER.VDW>
-12.7011

>  <SCORE.INTER.norm>
-0.495608

>  <SCORE.INTRA>
4.88948

>  <SCORE.INTRA.DIHEDRAL>
4.78651

>  <SCORE.INTRA.DIHEDRAL.0>
1.67653

>  <SCORE.INTRA.POLAR>
0

>  <SCORE.INTRA.POLAR.0>
0

>  <SCORE.INTRA.REPUL>
0

>  <SCORE.INTRA.REPUL.0>
0

>  <SCORE.INTRA.SOLV>
1.36694

>  <SCORE.INTRA.SOLV.lig_0>
-76.6701

>  <SCORE.INTRA.VDW>
1.81275

>  <SCORE.INTRA.VDW.0>
-1.53273

>  <SCORE.INTRA.norm>
0.222249

>  <SCORE.RESTR>
0

>  <SCORE.RESTR.CAVITY>
0

>  <SCORE.RESTR.norm>
0

>  <SCORE.SYSTEM>
0

>  <SCORE.SYSTEM.CONST>
0

>  <SCORE.SYSTEM.DIHEDRAL>
0

>  <SCORE.SYSTEM.SOLV>
0

>  <SCORE.SYSTEM.norm>
0

>  <SCORE.heavy>
22

>  <SCORE.norm>
-0.273359

>  <RMSD>
6.375

$$$$
2f4s_lig
 OpenBabel11021811433D
libRbt.so/2013.1/901 2013/11/27
 22 23  0  0  0  0  0  0  0  0999 V2000
   19.6913    9.9865   42.1239 N   0  0  0  0  0  0  0  0  0  0  0  0
   18.9099   14.1811   39.4837 N   0  0  0  0  0  0  0  0  0  0  0  0
   18.6344   14.3853   34.5595 N   0  0  0  0  0  0  0  0  0  0  0  0
   23.1779   11.6211   39.0128 O   0  0  0  0  0  0  0  0  0  0  0  0
   22.1164   12.0475   39.9152 C   0  0  2  0  0  0  0  0  0  0  0  0
   23.8641   16.1165   38.2484 N   0  0  0  0  0  0  0  0  0  0  0  0
   22.3844   10.0067   41.2661 O   0  0  0  0  0  0  0  0  0  0  0  0
   21.4329   10.8084   40.5562 C   0  0  1  0  0  0  0  0  0  0  0  0
   21.6634   14.0844   38.6288 O   0  0  0  0  0  0  0  0  0  0  0  0
   20.3357   11.2208   41.5299 C   0  0  1  0  0  0  0  0  0  0  0  0
   21.7994   13.5651   36.3801 O   0  0  0  0  0  0  0  0  0  0  0  0
   19.2671   12.0870   40.7810 C   0  0  0  0  0  0  0  0  0  0  0  0
   20.0861   16.5658   35.1368 O   0  0  0  0  0  0  0  0  0  0  0  0
   19.9838   13.3547   40.1759 C   0  0  1  0  0  0  0  0  0  0  0  0
   22.4315   17.6770   36.3093 O   0  0  0  0  0  0  0  0  0  0  0  0
   21.0438   12.9178   39.1485 C   0  0  2  0  0  0  0  0  0  0  0  0
   22.5840   14.0571   37.5526 C   0  0  1  0  0  0  0  0  0  0  0  0
   20.6416   14.4025   35.9570 C   0  0  2  0  0  0  0  0  0  0  0  0
   19.9589   13.7175   34.7692 C   0  0  0  0  0  0  0  0  0  0  0  0
   21.1666   15.7578   35.5389 C   0  0  2  0  0  0  0  0  0  0  0  0
   21.9240   16.3964   36.7018 C   0  0  1  0  0  0  0  0  0  0  0  0
   23.0964   15.4757   37.1209 C   0  0  1  0  0  0  0  0  0  0  0  0
  5  4  1  6  0  0  0
  5  8  1  0  0  0  0
  5 16  1  0  0  0  0
  8  7  1  1  0  0  0
  8 10  1  0  0  0  0
 10  1  1  6  0  0  0
 10 12  1  0  0  0  0
 11 18  1  0  0  0  0
 12 14  1  0  0  0  0
 14  2  1  6  0  0  0
 14 16  1  0  0  0  0
 16  9  1  1  0  0  0
 17  9  1  1  0  0  0
 17 11  1  0  0  0  0
 17 22  1  0  0  0  0
 18 19  1  6  0  0  0
 18 20  1  0  0  0  0
 19  3  1  0  0  0  0
 20 13  1  1  0  0  0
 20 21  1  0  0  0  0
 21 15  1  6  0  0  0
 21 22  1  0  0  0  0
 22  6  1  1  0  0  0
M  END
>  <CHROM.1>
70.35448518,63.94095359,167.11622814,21.21097063,13.66649339,38.19952003
1.61678954,0.33248773,2.29987898

>  <Name>
2f4s_lig

>  <RI>
0

>  <Rbt.Current_Directory>
/home/itssahil/PROJECTS/Mol_Feturizer/New_Systems/rnas/2f4s

>  <Rbt.Executable>
rbdock ($Id: //depot/dev/client3/rdock/2013.1/src/exe/rbdock.cxx#4 $)

>  <Rbt.Library>
libRbt.so (2013.1, Build901 2013/11/27)

>  <Rbt.Parameter_File>
/export/apps/rDock/src/rDock_2013.1_src/data/scripts/dock_solv.prm

>  <Rbt.Receptor>
prm/pocket_docking_5.prm

>  <SCORE>
-10.5853

>  <SCORE.INTER>
-11.0817

>  <SCORE.INTER.CONST>
1

>  <SCORE.INTER.POLAR>
-0.707778

>  <SCORE.INTER.ROT>
3

>  <SCORE.INTER.SOLV>
14.1246

>  <SCORE.INTER.VDW>
-15.3367

>  <SCORE.INTER.norm>
-0.503715

>  <SCORE.INTRA>
0.49639

>  <SCORE.INTRA.DIHEDRAL>
-0.361734

>  <SCORE.INTRA.DIHEDRAL.0>
1.67653

>  <SCORE.INTRA.POLAR>
0

>  <SCORE.INTRA.POLAR.0>
0

>  <SCORE.INTRA.REPUL>
0

>  <SCORE.INTRA.REPUL.0>
0

>  <SCORE.INTRA.SOLV>
0.866826

>  <SCORE.INTRA.SOLV.lig_0>
-76.6701

>  <SCORE.INTRA.VDW>
0.243844

>  <SCORE.INTRA.VDW.0>
-1.53273

>  <SCORE.INTRA.norm>
0.0225632

>  <SCORE.RESTR>
0

>  <SCORE.RESTR.CAVITY>
0

>  <SCORE.RESTR.norm>
0

>  <SCORE.SYSTEM>
0

>  <SCORE.SYSTEM.CONST>
0

>  <SCORE.SYSTEM.DIHEDRAL>
0

>  <SCORE.SYSTEM.SOLV>
0

>  <SCORE.SYSTEM.norm>
0

>  <SCORE.heavy>
22

>  <SCORE.norm>
-0.481151

>  <RMSD>
6.383

$$$$
2f4s_lig
 OpenBabel11021811433D
libRbt.so/2013.1/901 2013/11/27
 22 23  0  0  0  0  0  0  0  0999 V2000
   20.4717   10.3783   42.4774 N   0  0  0  0  0  0  0  0  0  0  0  0
   18.1885   14.2600   40.2649 N   0  0  0  0  0  0  0  0  0  0  0  0
   15.5070   15.7287   36.3186 N   0  0  0  0  0  0  0  0  0  0  0  0
   21.5346   11.5040   37.7753 O   0  0  0  0  0  0  0  0  0  0  0  0
   21.1529   12.0730   39.0611 C   0  0  2  0  0  0  0  0  0  0  0  0
   22.1045   15.2326   36.2959 N   0  0  0  0  0  0  0  0  0  0  0  0
   22.2086   10.1964   40.2550 O   0  0  0  0  0  0  0  0  0  0  0  0
   20.9947   10.9442   40.1168 C   0  0  1  0  0  0  0  0  0  0  0  0
   19.9810   13.9601   38.0247 O   0  0  0  0  0  0  0  0  0  0  0  0
   20.6243   11.5092   41.4827 C   0  0  1  0  0  0  0  0  0  0  0  0
   18.6553   13.7016   36.1484 O   0  0  0  0  0  0  0  0  0  0  0  0
   19.2895   12.3209   41.3711 C   0  0  0  0  0  0  0  0  0  0  0  0
   17.6289   17.2152   35.8540 O   0  0  0  0  0  0  0  0  0  0  0  0
   19.4943   13.4809   40.3226 C   0  0  1  0  0  0  0  0  0  0  0  0
   20.4337   17.3861   35.3913 O   0  0  0  0  0  0  0  0  0  0  0  0
   19.8046   12.8868   38.9366 C   0  0  2  0  0  0  0  0  0  0  0  0
   20.0700   13.7773   36.6228 C   0  0  1  0  0  0  0  0  0  0  0  0
   17.8085   14.9039   36.3897 C   0  0  2  0  0  0  0  0  0  0  0  0
   16.4000   14.6163   35.8608 C   0  0  0  0  0  0  0  0  0  0  0  0
   18.4145   16.0673   35.6370 C   0  0  2  0  0  0  0  0  0  0  0  0
   19.8509   16.2908   36.1069 C   0  0  1  0  0  0  0  0  0  0  0  0
   20.6795   15.0059   35.8610 C   0  0  1  0  0  0  0  0  0  0  0  0
  5  4  1  6  0  0  0
  5  8  1  0  0  0  0
  5 16  1  0  0  0  0
  8  7  1  1  0  0  0
  8 10  1  0  0  0  0
 10  1  1  1  0  0  0
 10 12  1  0  0  0  0
 11 18  1  0  0  0  0
 12 14  1  0  0  0  0
 14  2  1  6  0  0  0
 14 16  1  0  0  0  0
 16  9  1  6  0  0  0
 17  9  1  1  0  0  0
 17 11  1  0  0  0  0
 17 22  1  0  0  0  0
 18 19  1  6  0  0  0
 18 20  1  0  0  0  0
 19  3  1  0  0  0  0
 20 13  1  1  0  0  0
 20 21  1  0  0  0  0
 21 15  1  6  0  0  0
 21 22  1  0  0  0  0
 22  6  1  1  0  0  0
M  END
>  <CHROM.1>
73.48030372,83.27238203,170.38942986,19.61321119,13.80355331,37.99507332
1.21537758,-0.28029239,2.24180982

>  <Name>
2f4s_lig

>  <RI>
0

>  <Rbt.Current_Directory>
/home/itssahil/PROJECTS/Mol_Feturizer/New_Systems/rnas/2f4s

>  <Rbt.Executable>
rbdock ($Id: //depot/dev/client3/rdock/2013.1/src/exe/rbdock.cxx#4 $)

>  <Rbt.Library>
libRbt.so (2013.1, Build901 2013/11/27)

>  <Rbt.Parameter_File>
/export/apps/rDock/src/rDock_2013.1_src/data/scripts/dock_solv.prm

>  <Rbt.Receptor>
prm/pocket_docking_4.prm

>  <SCORE>
-6.99581

>  <SCORE.INTER>
-8.91642

>  <SCORE.INTER.CONST>
1

>  <SCORE.INTER.POLAR>
-0.8294

>  <SCORE.INTER.ROT>
3

>  <SCORE.INTER.SOLV>
16.0955

>  <SCORE.INTER.VDW>
-14.1448

>  <SCORE.INTER.norm>
-0.405292

>  <SCORE.INTRA>
1.92062

>  <SCORE.INTRA.DIHEDRAL>
1.93717

>  <SCORE.INTRA.DIHEDRAL.0>
1.67653

>  <SCORE.INTRA.POLAR>
0

>  <SCORE.INTRA.POLAR.0>
0

>  <SCORE.INTRA.REPUL>
0

>  <SCORE.INTRA.REPUL.0>
0

>  <SCORE.INTRA.SOLV>
1.38938

>  <SCORE.INTRA.SOLV.lig_0>
-76.6701

>  <SCORE.INTRA.VDW>
0.257342

>  <SCORE.INTRA.VDW.0>
-1.53273

>  <SCORE.INTRA.norm>
0.0873008

>  <SCORE.RESTR>
0

>  <SCORE.RESTR.CAVITY>
0

>  <SCORE.RESTR.norm>
0

>  <SCORE.SYSTEM>
0

>  <SCORE.SYSTEM.CONST>
0

>  <SCORE.SYSTEM.DIHEDRAL>
0

>  <SCORE.SYSTEM.SOLV>
0

>  <SCORE.SYSTEM.norm>
0

>  <SCORE.heavy>
22

>  <SCORE.norm>
-0.317991

>  <RMSD>
6.387

$$$$
2f4s_lig
 OpenBabel11021811433D
libRbt.so/2013.1/901 2013/11/27
 22 23  0  0  0  0  0  0  0  0999 V2000
   19.7150    9.9795   42.1214 N   0  0  0  0  0  0  0  0  0  0  0  0
   18.9891   14.1619   39.4464 N   0  0  0  0  0  0  0  0  0  0  0  0
   18.6379   14.4269   34.6277 N   0  0  0  0  0  0  0  0  0  0  0  0
   23.2483   11.5760   39.0434 O   0  0  0  0  0  0  0  0  0  0  0  0
   22.1782   12.0137   39.9301 C   0  0  2  0  0  0  0  0  0  0  0  0
   23.9750   16.0462   38.2116 N   0  0  0  0  0  0  0  0  0  0  0  0
   22.4185    9.9798   41.2966 O   0  0  0  0  0  0  0  0  0  0  0  0
   21.4801   10.7822   40.5702 C   0  0  1  0  0  0  0  0  0  0  0  0
   21.7522   14.0450   38.6260 O   0  0  0  0  0  0  0  0  0  0  0  0
   20.3734   11.2066   41.5279 C   0  0  1  0  0  0  0  0  0  0  0  0
   21.8293   13.5420   36.3707 O   0  0  0  0  0  0  0  0  0  0  0  0
   19.3188   12.0739   40.7608 C   0  0  0  0  0  0  0  0  0  0  0  0
   20.1352   16.5788   35.1901 O   0  0  0  0  0  0  0  0  0  0  0  0
   20.0498   13.3340   40.1568 C   0  0  1  0  0  0  0  0  0  0  0  0
   22.5234   17.6442   36.3177 O   0  0  0  0  0  0  0  0  0  0  0  0
   21.1199   12.8851   39.1450 C   0  0  2  0  0  0  0  0  0  0  0  0
   22.6478   14.0124   37.5289 C   0  0  1  0  0  0  0  0  0  0  0  0
   20.6754   14.4006   35.9806 C   0  0  2  0  0  0  0  0  0  0  0  0
   19.9555   13.7358   34.8033 C   0  0  0  0  0  0  0  0  0  0  0  0
   21.2118   15.7510   35.5612 C   0  0  2  0  0  0  0  0  0  0  0  0
   22.0051   16.3684   36.7116 C   0  0  1  0  0  0  0  0  0  0  0  0
   23.1723   15.4264   37.0968 C   0  0  1  0  0  0  0  0  0  0  0  0
  5  4  1  6  0  0  0
  5  8  1  0  0  0  0
  5 16  1  0  0  0  0
  8  7  1  1  0  0  0
  8 10  1  0  0  0  0
 10  1  1  6  0  0  0
 10 12  1  0  0  0  0
 11 18  1  0  0  0  0
 12 14  1  0  0  0  0
 14  2  1  6  0  0  0
 14 16  1  0  0  0  0
 16  9  1  1  0  0  0
 17  9  1  1  0  0  0
 17 11  1  0  0  0  0
 17 22  1  0  0  0  0
 18 19  1  6  0  0  0
 18 20  1  0  0  0  0
 19  3  1  0  0  0  0
 20 13  1  1  0  0  0
 20 21  1  0  0  0  0
 21 15  1  6  0  0  0
 21 22  1  0  0  0  0
 22  6  1  1  0  0  0
M  END
>  <CHROM.1>
72.78181803,63.52858014,167.19680190,21.26643759,13.64545194,38.20597996
1.61638342,0.30711148,2.30475848

>  <Name>
2f4s_lig

>  <RI>
2.00194e+07

>  <Rbt.Current_Directory>
/home/itssahil/PROJECTS/Mol_Feturizer/New_Systems/rnas/2f4s

>  <Rbt.Executable>
rbdock ($Id: //depot/dev/client3/rdock/2013.1/src/exe/rbdock.cxx#4 $)

>  <Rbt.Library>
libRbt.so (2013.1, Build901 2013/11/27)

>  <Rbt.Parameter_File>
/export/apps/rDock/src/rDock_2013.1_src/data/scripts/dock_solv.prm

>  <Rbt.Receptor>
prm/pocket_docking_6.prm

>  <SCORE>
-10.6206

>  <SCORE.INTER>
-11.1946

>  <SCORE.INTER.CONST>
1

>  <SCORE.INTER.POLAR>
-0.698422

>  <SCORE.INTER.ROT>
3

>  <SCORE.INTER.SOLV>
13.9819

>  <SCORE.INTER.VDW>
-15.3956

>  <SCORE.INTER.norm>
-0.508844

>  <SCORE.INTRA>
0.573938

>  <SCORE.INTRA.DIHEDRAL>
-0.125304

>  <SCORE.INTRA.DIHEDRAL.0>
1.67653

>  <SCORE.INTRA.POLAR>
0

>  <SCORE.INTRA.POLAR.0>
0

>  <SCORE.INTRA.REPUL>
0

>  <SCORE.INTRA.REPUL.0>
0

>  <SCORE.INTRA.SOLV>
0.947837

>  <SCORE.INTRA.SOLV.lig_0>
-76.6701

>  <SCORE.INTRA.VDW>
0.162671

>  <SCORE.INTRA.VDW.0>
-1.53273

>  <SCORE.INTRA.norm>
0.0260881

>  <SCORE.RESTR>
0

>  <SCORE.RESTR.CAVITY>
0

>  <SCORE.RESTR.norm>
0

>  <SCORE.SYSTEM>
0

>  <SCORE.SYSTEM.CONST>
0

>  <SCORE.SYSTEM.DIHEDRAL>
0

>  <SCORE.SYSTEM.SOLV>
0

>  <SCORE.SYSTEM.norm>
0

>  <SCORE.heavy>
22

>  <SCORE.norm>
-0.482756

>  <RMSD>
6.388

$$$$
2f4s_lig
 OpenBabel11021811433D
libRbt.so/2013.1/901 2013/11/27
 22 23  0  0  0  0  0  0  0  0999 V2000
   19.0975   12.2930   41.4704 N   0  0  0  0  0  0  0  0  0  0  0  0
   17.6147   15.8961   38.3089 N   0  0  0  0  0  0  0  0  0  0  0  0
   20.6962   17.8983   32.4626 N   0  0  0  0  0  0  0  0  0  0  0  0
   21.3439   12.7989   37.0881 O   0  0  0  0  0  0  0  0  0  0  0  0
   20.6817   13.5316   38.1592 C   0  0  2  0  0  0  0  0  0  0  0  0
   17.2513   14.2103   35.6523 N   0  0  0  0  0  0  0  0  0  0  0  0
   21.3212   11.8061   39.7949 O   0  0  0  0  0  0  0  0  0  0  0  0
   20.2150   12.5480   39.2676 C   0  0  1  0  0  0  0  0  0  0  0  0
   19.8913   15.2891   36.6443 O   0  0  0  0  0  0  0  0  0  0  0  0
   19.5436   13.2865   40.4190 C   0  0  1  0  0  0  0  0  0  0  0  0
   19.8964   16.7964   34.8913 O   0  0  0  0  0  0  0  0  0  0  0  0
   18.3169   14.0969   39.8791 C   0  0  0  0  0  0  0  0  0  0  0  0
   20.8034   14.4001   32.2606 O   0  0  0  0  0  0  0  0  0  0  0  0
   18.8283   15.1118   38.7857 C   0  0  1  0  0  0  0  0  0  0  0  0
   18.2507   13.4346   33.0741 O   0  0  0  0  0  0  0  0  0  0  0  0
   19.4451   14.3426   37.6034 C   0  0  2  0  0  0  0  0  0  0  0  0
   19.0101   16.0125   35.8036 C   0  0  1  0  0  0  0  0  0  0  0  0
   20.8076   16.0097   34.0128 C   0  0  2  0  0  0  0  0  0  0  0  0
   21.6439   16.9896   33.1841 C   0  0  0  0  0  0  0  0  0  0  0  0
   19.9598   15.1537   33.0986 C   0  0  2  0  0  0  0  0  0  0  0  0
   19.0629   14.2421   33.9343 C   0  0  1  0  0  0  0  0  0  0  0  0
   18.1586   15.1055   34.8479 C   0  0  1  0  0  0  0  0  0  0  0  0
  5  4  1  6  0  0  0
  5  8  1  0  0  0  0
  5 16  1  0  0  0  0
  8  7  1  1  0  0  0
  8 10  1  0  0  0  0
 10  1  1  1  0  0  0
 10 12  1  0  0  0  0
 11 18  1  0  0  0  0
 12 14  1  0  0  0  0
 14  2  1  6  0  0  0
 14 16  1  0  0  0  0
 16  9  1  6  0  0  0
 17  9  1  1  0  0  0
 17 11  1  0  0  0  0
 17 22  1  0  0  0  0
 18 19  1  6  0  0  0
 18 20  1  0  0  0  0
 19  3  1  0  0  0  0
 20 13  1  6  0  0  0
 20 21  1  0  0  0  0
 21 15  1  6  0  0  0
 21 22  1  0  0  0  0
 22  6  1  1  0  0  0
M  END
>  <CHROM.1>
169.13951454,-175.52940353,-55.01046977,19.65494892,14.58487178,36.35691120
1.65645389,-0.69152784,2.01760248

>  <Name>
2f4s_lig

>  <RI>
2.00194e+07

>  <Rbt.Current_Directory>
/home/itssahil/PROJECTS/Mol_Feturizer/New_Systems/rnas/2f4s

>  <Rbt.Executable>
rbdock ($Id: //depot/dev/client3/rdock/2013.1/src/exe/rbdock.cxx#4 $)

>  <Rbt.Library>
libRbt.so (2013.1, Build901 2013/11/27)

>  <Rbt.Parameter_File>
/export/apps/rDock/src/rDock_2013.1_src/data/scripts/dock_solv.prm

>  <Rbt.Receptor>
prm/pocket_docking_6.prm

>  <SCORE>
-9.45327

>  <SCORE.INTER>
-12.0327

>  <SCORE.INTER.CONST>
1

>  <SCORE.INTER.POLAR>
-1.70074

>  <SCORE.INTER.ROT>
3

>  <SCORE.INTER.SOLV>
12.6738

>  <SCORE.INTER.VDW>
-12.1773

>  <SCORE.INTER.norm>
-0.546941

>  <SCORE.INTRA>
2.57942

>  <SCORE.INTRA.DIHEDRAL>
-0.767123

>  <SCORE.INTRA.DIHEDRAL.0>
1.67653

>  <SCORE.INTRA.POLAR>
0

>  <SCORE.INTRA.POLAR.0>
0

>  <SCORE.INTRA.REPUL>
0

>  <SCORE.INTRA.REPUL.0>
0

>  <SCORE.INTRA.SOLV>
5.54878

>  <SCORE.INTRA.SOLV.lig_0>
-76.6701

>  <SCORE.INTRA.VDW>
0.188596

>  <SCORE.INTRA.VDW.0>
-1.53273

>  <SCORE.INTRA.norm>
0.117247

>  <SCORE.RESTR>
0

>  <SCORE.RESTR.CAVITY>
0

>  <SCORE.RESTR.norm>
0

>  <SCORE.SYSTEM>
0

>  <SCORE.SYSTEM.CONST>
0

>  <SCORE.SYSTEM.DIHEDRAL>
0

>  <SCORE.SYSTEM.SOLV>
0

>  <SCORE.SYSTEM.norm>
0

>  <SCORE.heavy>
22

>  <SCORE.norm>
-0.429694

>  <RMSD>
6.388

$$$$
2f4s_lig
 OpenBabel11021811433D
libRbt.so/2013.1/901 2013/11/27
 22 23  0  0  0  0  0  0  0  0999 V2000
   19.7252    9.8707   42.2257 N   0  0  0  0  0  0  0  0  0  0  0  0
   18.8614   14.0957   39.6608 N   0  0  0  0  0  0  0  0  0  0  0  0
   18.3835   14.3750   34.7991 N   0  0  0  0  0  0  0  0  0  0  0  0
   23.1288   11.5635   39.0544 O   0  0  0  0  0  0  0  0  0  0  0  0
   22.0872   11.9727   39.9874 C   0  0  2  0  0  0  0  0  0  0  0  0
   23.7532   16.0838   38.2779 N   0  0  0  0  0  0  0  0  0  0  0  0
   22.3970    9.9157   41.3043 O   0  0  0  0  0  0  0  0  0  0  0  0
   21.4250   10.7218   40.6280 C   0  0  1  0  0  0  0  0  0  0  0  0
   21.5941   14.0240   38.7394 O   0  0  0  0  0  0  0  0  0  0  0  0
   20.3495   11.1159   41.6329 C   0  0  1  0  0  0  0  0  0  0  0  0
   21.6240   13.5347   36.4800 O   0  0  0  0  0  0  0  0  0  0  0  0
   19.2592   11.9866   40.9214 C   0  0  0  0  0  0  0  0  0  0  0  0
   19.8219   16.5329   35.3623 O   0  0  0  0  0  0  0  0  0  0  0  0
   19.9554   13.2657   40.3162 C   0  0  1  0  0  0  0  0  0  0  0  0
   22.2113   17.6536   36.4324 O   0  0  0  0  0  0  0  0  0  0  0  0
   20.9926   12.8477   39.2581 C   0  0  2  0  0  0  0  0  0  0  0  0
   22.4607   14.0200   37.6188 C   0  0  1  0  0  0  0  0  0  0  0  0
   20.4385   14.3653   36.1255 C   0  0  2  0  0  0  0  0  0  0  0  0
   19.7048   13.6882   34.9639 C   0  0  0  0  0  0  0  0  0  0  0  0
   20.9288   15.7312   35.6999 C   0  0  2  0  0  0  0  0  0  0  0  0
   21.7364   16.3629   36.8324 C   0  0  1  0  0  0  0  0  0  0  0  0
   22.9371   15.4493   37.1811 C   0  0  1  0  0  0  0  0  0  0  0  0
  5  4  1  6  0  0  0
  5  8  1  0  0  0  0
  5 16  1  0  0  0  0
  8  7  1  1  0  0  0
  8 10  1  0  0  0  0
 10  1  1  6  0  0  0
 10 12  1  0  0  0  0
 11 18  1  0  0  0  0
 12 14  1  0  0  0  0
 14  2  1  6  0  0  0
 14 16  1  0  0  0  0
 16  9  1  1  0  0  0
 17  9  1  1  0  0  0
 17 11  1  0  0  0  0
 17 22  1  0  0  0  0
 18 19  1  6  0  0  0
 18 20  1  0  0  0  0
 19  3  1  0  0  0  0
 20 13  1  1  0  0  0
 20 21  1  0  0  0  0
 21 15  1  6  0  0  0
 21 22  1  0  0  0  0
 22  6  1  1  0  0  0
M  END
>  <CHROM.1>
72.10729636,62.71982523,168.96578041,21.10011281,13.60975721,38.31781510
1.58270982,0.30697025,2.32656431

>  <Name>
2f4s_lig

>  <RI>
0

>  <Rbt.Current_Directory>
/home/itssahil/PROJECTS/Mol_Feturizer/New_Systems/rnas/2f4s

>  <Rbt.Executable>
rbdock ($Id: //depot/dev/client3/rdock/2013.1/src/exe/rbdock.cxx#4 $)

>  <Rbt.Library>
libRbt.so (2013.1, Build901 2013/11/27)

>  <Rbt.Parameter_File>
/export/apps/rDock/src/rDock_2013.1_src/data/scripts/dock_solv.prm

>  <Rbt.Receptor>
prm/pocket_docking_8.prm

>  <SCORE>
-10.59

>  <SCORE.INTER>
-11.1444

>  <SCORE.INTER.CONST>
1

>  <SCORE.INTER.POLAR>
-0.819072

>  <SCORE.INTER.ROT>
3

>  <SCORE.INTER.SOLV>
14.4068

>  <SCORE.INTER.VDW>
-15.1016

>  <SCORE.INTER.norm>
-0.506564

>  <SCORE.INTRA>
0.554439

>  <SCORE.INTRA.DIHEDRAL>
-0.367132

>  <SCORE.INTRA.DIHEDRAL.0>
1.67653

>  <SCORE.INTRA.POLAR>
0

>  <SCORE.INTRA.POLAR.0>
0

>  <SCORE.INTRA.REPUL>
0

>  <SCORE.INTRA.REPUL.0>
0

>  <SCORE.INTRA.SOLV>
0.971031

>  <SCORE.INTRA.SOLV.lig_0>
-76.6701

>  <SCORE.INTRA.VDW>
0.25249

>  <SCORE.INTRA.VDW.0>
-1.53273

>  <SCORE.INTRA.norm>
0.0252018

>  <SCORE.RESTR>
0

>  <SCORE.RESTR.CAVITY>
0

>  <SCORE.RESTR.norm>
0

>  <SCORE.SYSTEM>
0

>  <SCORE.SYSTEM.CONST>
0

>  <SCORE.SYSTEM.DIHEDRAL>
0

>  <SCORE.SYSTEM.SOLV>
0

>  <SCORE.SYSTEM.norm>
0

>  <SCORE.heavy>
22

>  <SCORE.norm>
-0.481362

>  <RMSD>
6.391

$$$$
2f4s_lig
 OpenBabel11021811433D
libRbt.so/2013.1/901 2013/11/27
 22 23  0  0  0  0  0  0  0  0999 V2000
   19.7394    9.9351   42.1651 N   0  0  0  0  0  0  0  0  0  0  0  0
   18.9951   14.1380   39.5275 N   0  0  0  0  0  0  0  0  0  0  0  0
   18.6265   14.4199   34.6654 N   0  0  0  0  0  0  0  0  0  0  0  0
   23.2436   11.5450   39.0610 O   0  0  0  0  0  0  0  0  0  0  0  0
   22.1841   11.9790   39.9621 C   0  0  2  0  0  0  0  0  0  0  0  0
   23.9561   16.0351   38.2438 N   0  0  0  0  0  0  0  0  0  0  0  0
   22.4339    9.9349   41.3115 O   0  0  0  0  0  0  0  0  0  0  0  0
   21.4899   10.7446   40.6009 C   0  0  1  0  0  0  0  0  0  0  0  0
   21.7491   14.0204   38.6768 O   0  0  0  0  0  0  0  0  0  0  0  0
   20.3944   11.1648   41.5732 C   0  0  1  0  0  0  0  0  0  0  0  0
   21.8112   13.5169   36.4212 O   0  0  0  0  0  0  0  0  0  0  0  0
   19.3338   12.0400   40.8235 C   0  0  0  0  0  0  0  0  0  0  0  0
   20.0888   16.5426   35.2531 O   0  0  0  0  0  0  0  0  0  0  0  0
   20.0614   13.3026   40.2207 C   0  0  1  0  0  0  0  0  0  0  0  0
   22.4794   17.6233   36.3610 O   0  0  0  0  0  0  0  0  0  0  0  0
   21.1196   12.8583   39.1944 C   0  0  2  0  0  0  0  0  0  0  0  0
   22.6360   13.9928   37.5726 C   0  0  1  0  0  0  0  0  0  0  0  0
   20.6488   14.3681   36.0401 C   0  0  2  0  0  0  0  0  0  0  0  0
   19.9236   13.6984   34.8688 C   0  0  0  0  0  0  0  0  0  0  0  0
   21.1735   15.7217   35.6159 C   0  0  2  0  0  0  0  0  0  0  0  0
   21.9722   16.3445   36.7596 C   0  0  1  0  0  0  0  0  0  0  0  0
   23.1482   15.4099   37.1357 C   0  0  1  0  0  0  0  0  0  0  0  0
  5  4  1  6  0  0  0
  5  8  1  0  0  0  0
  5 16  1  0  0  0  0
  8  7  1  1  0  0  0
  8 10  1  0  0  0  0
 10  1  1  6  0  0  0
 10 12  1  0  0  0  0
 11 18  1  0  0  0  0
 12 14  1  0  0  0  0
 14  2  1  6  0  0  0
 14 16  1  0  0  0  0
 16  9  1  1  0  0  0
 17  9  1  1  0  0  0
 17 11  1  0  0  0  0
 17 22  1  0  0  0  0
 18 19  1  6  0  0  0
 18 20  1  0  0  0  0
 19  3  1  0  0  0  0
 20 13  1  1  0  0  0
 20 21  1  0  0  0  0
 21 15  1  6  0  0  0
 21 22  1  0  0  0  0
 22  6  1  1  0  0  0
M  END
>  <CHROM.1>
72.58644272,62.98873772,169.61637674,21.25688197,13.61658070,38.25251305
1.60916515,0.30565521,2.30973672

>  <Name>
2f4s_lig

>  <RI>
2.00194e+07

>  <Rbt.Current_Directory>
/home/itssahil/PROJECTS/Mol_Feturizer/New_Systems/rnas/2f4s

>  <Rbt.Executable>
rbdock ($Id: //depot/dev/client3/rdock/2013.1/src/exe/rbdock.cxx#4 $)

>  <Rbt.Library>
libRbt.so (2013.1, Build901 2013/11/27)

>  <Rbt.Parameter_File>
/export/apps/rDock/src/rDock_2013.1_src/data/scripts/dock_solv.prm

>  <Rbt.Receptor>
prm/pocket_docking_6.prm

>  <SCORE>
-10.6055

>  <SCORE.INTER>
-11.1899

>  <SCORE.INTER.CONST>
1

>  <SCORE.INTER.POLAR>
-0.731901

>  <SCORE.INTER.ROT>
3

>  <SCORE.INTER.SOLV>
14.0661

>  <SCORE.INTER.VDW>
-15.309

>  <SCORE.INTER.norm>
-0.508633

>  <SCORE.INTRA>
0.584416

>  <SCORE.INTRA.DIHEDRAL>
-0.353241

>  <SCORE.INTRA.DIHEDRAL.0>
1.67653

>  <SCORE.INTRA.POLAR>
0

>  <SCORE.INTRA.POLAR.0>
0

>  <SCORE.INTRA.REPUL>
0

>  <SCORE.INTRA.REPUL.0>
0

>  <SCORE.INTRA.SOLV>
1.0027

>  <SCORE.INTRA.SOLV.lig_0>
-76.6701

>  <SCORE.INTRA.VDW>
0.259686

>  <SCORE.INTRA.VDW.0>
-1.53273

>  <SCORE.INTRA.norm>
0.0265644

>  <SCORE.RESTR>
0

>  <SCORE.RESTR.CAVITY>
0

>  <SCORE.RESTR.norm>
0

>  <SCORE.SYSTEM>
0

>  <SCORE.SYSTEM.CONST>
0

>  <SCORE.SYSTEM.DIHEDRAL>
0

>  <SCORE.SYSTEM.SOLV>
0

>  <SCORE.SYSTEM.norm>
0

>  <SCORE.heavy>
22

>  <SCORE.norm>
-0.482069

>  <RMSD>
6.392

$$$$
2f4s_lig
 OpenBabel11021811433D
libRbt.so/2013.1/901 2013/11/27
 22 23  0  0  0  0  0  0  0  0999 V2000
   21.0085   10.1230   42.5061 N   0  0  0  0  0  0  0  0  0  0  0  0
   21.7407   11.9450   37.8888 N   0  0  0  0  0  0  0  0  0  0  0  0
   22.2021   17.9627   37.9548 N   0  0  0  0  0  0  0  0  0  0  0  0
   18.5274   14.1426   41.0250 O   0  0  0  0  0  0  0  0  0  0  0  0
   19.1036   12.8845   40.5689 C   0  0  2  0  0  0  0  0  0  0  0  0
   17.3016   14.8368   36.5901 N   0  0  0  0  0  0  0  0  0  0  0  0
   18.8276   11.8958   42.8067 O   0  0  0  0  0  0  0  0  0  0  0  0
   19.7727   12.1431   41.7590 C   0  0  1  0  0  0  0  0  0  0  0  0
   19.5281   13.7466   38.3139 O   0  0  0  0  0  0  0  0  0  0  0  0
   20.3603   10.8070   41.3214 C   0  0  1  0  0  0  0  0  0  0  0  0
   20.4048   15.8800   38.4731 O   0  0  0  0  0  0  0  0  0  0  0  0
   21.4124   11.0427   40.1853 C   0  0  0  0  0  0  0  0  0  0  0  0
   21.8317   16.0168   35.0921 O   0  0  0  0  0  0  0  0  0  0  0  0
   20.6947   11.7606   38.9784 C   0  0  1  0  0  0  0  0  0  0  0  0
   19.0427   15.8471   34.5417 O   0  0  0  0  0  0  0  0  0  0  0  0
   20.1646   13.1350   39.4255 C   0  0  2  0  0  0  0  0  0  0  0  0
   19.1374   15.1081   38.2990 C   0  0  1  0  0  0  0  0  0  0  0  0
   21.4418   15.7008   37.4179 C   0  0  2  0  0  0  0  0  0  0  0  0
   22.6628   16.5464   37.7927 C   0  0  0  0  0  0  0  0  0  0  0  0
   20.8664   16.1797   36.1038 C   0  0  2  0  0  0  0  0  0  0  0  0
   19.5977   15.3922   35.7812 C   0  0  1  0  0  0  0  0  0  0  0  0
   18.5659   15.5883   36.9192 C   0  0  1  0  0  0  0  0  0  0  0  0
  5  4  1  1  0  0  0
  5  8  1  0  0  0  0
  5 16  1  0  0  0  0
  8  7  1  1  0  0  0
  8 10  1  0  0  0  0
 10  1  1  1  0  0  0
 10 12  1  0  0  0  0
 11 18  1  0  0  0  0
 12 14  1  0  0  0  0
 14  2  1  6  0  0  0
 14 16  1  0  0  0  0
 16  9  1  6  0  0  0
 17  9  1  6  0  0  0
 17 11  1  0  0  0  0
 17 22  1  0  0  0  0
 18 19  1  1  0  0  0
 18 20  1  0  0  0  0
 19  3  1  0  0  0  0
 20 13  1  6  0  0  0
 20 21  1  0  0  0  0
 21 15  1  6  0  0  0
 21 22  1  0  0  0  0
 22  6  1  6  0  0  0
M  END
>  <CHROM.1>
74.75412103,61.03013793,-56.45328439,20.17878613,14.05770271,38.61413951
-1.63183800,-0.01776808,-0.84993130

>  <Name>
2f4s_lig

>  <RI>
0

>  <Rbt.Current_Directory>
/home/itssahil/PROJECTS/Mol_Feturizer/New_Systems/rnas/2f4s

>  <Rbt.Executable>
rbdock ($Id: //depot/dev/client3/rdock/2013.1/src/exe/rbdock.cxx#4 $)

>  <Rbt.Library>
libRbt.so (2013.1, Build901 2013/11/27)

>  <Rbt.Parameter_File>
/export/apps/rDock/src/rDock_2013.1_src/data/scripts/dock_solv.prm

>  <Rbt.Receptor>
prm/pocket_docking_4.prm

>  <SCORE>
-9.45713

>  <SCORE.INTER>
-10.1419

>  <SCORE.INTER.CONST>
1

>  <SCORE.INTER.POLAR>
-0.897954

>  <SCORE.INTER.ROT>
3

>  <SCORE.INTER.SOLV>
14.3092

>  <SCORE.INTER.VDW>
-14.1378

>  <SCORE.INTER.norm>
-0.460994

>  <SCORE.INTRA>
0.684729

>  <SCORE.INTRA.DIHEDRAL>
-0.450847

>  <SCORE.INTRA.DIHEDRAL.0>
1.67653

>  <SCORE.INTRA.POLAR>
0

>  <SCORE.INTRA.POLAR.0>
0

>  <SCORE.INTRA.REPUL>
0

>  <SCORE.INTRA.REPUL.0>
0

>  <SCORE.INTRA.SOLV>
1.66575

>  <SCORE.INTRA.SOLV.lig_0>
-76.6701

>  <SCORE.INTRA.VDW>
0.0772766

>  <SCORE.INTRA.VDW.0>
-1.53273

>  <SCORE.INTRA.norm>
0.0311241

>  <SCORE.RESTR>
0

>  <SCORE.RESTR.CAVITY>
0

>  <SCORE.RESTR.norm>
0

>  <SCORE.SYSTEM>
0

>  <SCORE.SYSTEM.CONST>
0

>  <SCORE.SYSTEM.DIHEDRAL>
0

>  <SCORE.SYSTEM.SOLV>
0

>  <SCORE.SYSTEM.norm>
0

>  <SCORE.heavy>
22

>  <SCORE.norm>
-0.429869

>  <RMSD>
6.393

$$$$
2f4s_lig
 OpenBabel11021811433D
libRbt.so/2013.1/901 2013/11/27
 22 23  0  0  0  0  0  0  0  0999 V2000
   20.1464   11.2757   42.8121 N   0  0  0  0  0  0  0  0  0  0  0  0
   18.3385   14.1054   39.0838 N   0  0  0  0  0  0  0  0  0  0  0  0
   19.8333   17.8340   37.2356 N   0  0  0  0  0  0  0  0  0  0  0  0
   21.5671   10.4046   38.1506 O   0  0  0  0  0  0  0  0  0  0  0  0
   21.1644   11.4532   39.0785 C   0  0  2  0  0  0  0  0  0  0  0  0
   19.5816   12.6103   34.3555 N   0  0  0  0  0  0  0  0  0  0  0  0
   21.9836   10.1367   40.9910 O   0  0  0  0  0  0  0  0  0  0  0  0
   20.8492   10.8398   40.4707 C   0  0  1  0  0  0  0  0  0  0  0  0
   20.2218   12.8479   37.2967 O   0  0  0  0  0  0  0  0  0  0  0  0
   20.4528   11.9153   41.4747 C   0  0  1  0  0  0  0  0  0  0  0  0
   19.5380   15.0555   37.2334 O   0  0  0  0  0  0  0  0  0  0  0  0
   19.2022   12.6945   40.9437 C   0  0  0  0  0  0  0  0  0  0  0  0
   22.5076   16.3814   35.5278 O   0  0  0  0  0  0  0  0  0  0  0  0
   19.5661   13.3368   39.5501 C   0  0  1  0  0  0  0  0  0  0  0  0
   21.4052   14.6716   33.5349 O   0  0  0  0  0  0  0  0  0  0  0  0
   19.9013   12.2301   38.5338 C   0  0  2  0  0  0  0  0  0  0  0  0
   19.3337   13.7126   36.6110 C   0  0  1  0  0  0  0  0  0  0  0  0
   20.9050   15.6384   37.1218 C   0  0  2  0  0  0  0  0  0  0  0  0
   20.9133   16.9906   37.8412 C   0  0  0  0  0  0  0  0  0  0  0  0
   21.2174   15.8325   35.6548 C   0  0  2  0  0  0  0  0  0  0  0  0
   21.1189   14.4930   34.9270 C   0  0  1  0  0  0  0  0  0  0  0  0
   19.6913   13.9176   35.0973 C   0  0  1  0  0  0  0  0  0  0  0  0
  5  4  1  6  0  0  0
  5  8  1  0  0  0  0
  5 16  1  0  0  0  0
  8  7  1  1  0  0  0
  8 10  1  0  0  0  0
 10  1  1  1  0  0  0
 10 12  1  0  0  0  0
 11 18  1  0  0  0  0
 12 14  1  0  0  0  0
 14  2  1  6  0  0  0
 14 16  1  0  0  0  0
 16  9  1  6  0  0  0
 17  9  1  1  0  0  0
 17 11  1  0  0  0  0
 17 22  1  0  0  0  0
 18 19  1  1  0  0  0
 18 20  1  0  0  0  0
 19  3  1  0  0  0  0
 20 13  1  1  0  0  0
 20 21  1  0  0  0  0
 21 15  1  6  0  0  0
 21 22  1  0  0  0  0
 22  6  1  6  0  0  0
M  END
>  <CHROM.1>
-174.46893394,84.06189927,-55.95043076,20.45912240,13.55790998,37.85937547
1.71441284,-1.33277933,2.37418052

>  <Name>
2f4s_lig

>  <RI>
0

>  <Rbt.Current_Directory>
/home/itssahil/PROJECTS/Mol_Feturizer/New_Systems/rnas/2f4s

>  <Rbt.Executable>
rbdock ($Id: //depot/dev/client3/rdock/2013.1/src/exe/rbdock.cxx#4 $)

>  <Rbt.Library>
libRbt.so (2013.1, Build901 2013/11/27)

>  <Rbt.Parameter_File>
/export/apps/rDock/src/rDock_2013.1_src/data/scripts/dock_solv.prm

>  <Rbt.Receptor>
prm/pocket_docking_8.prm

>  <SCORE>
-8.40711

>  <SCORE.INTER>
-13.1861

>  <SCORE.INTER.CONST>
1

>  <SCORE.INTER.POLAR>
-1.55666

>  <SCORE.INTER.ROT>
3

>  <SCORE.INTER.SOLV>
16.499

>  <SCORE.INTER.VDW>
-14.7015

>  <SCORE.INTER.norm>
-0.599367

>  <SCORE.INTRA>
4.77895

>  <SCORE.INTRA.DIHEDRAL>
1.1108

>  <SCORE.INTRA.DIHEDRAL.0>
1.67653

>  <SCORE.INTRA.POLAR>
0

>  <SCORE.INTRA.POLAR.0>
0

>  <SCORE.INTRA.REPUL>
0

>  <SCORE.INTRA.REPUL.0>
0

>  <SCORE.INTRA.SOLV>
4.24192

>  <SCORE.INTRA.SOLV.lig_0>
-76.6701

>  <SCORE.INTRA.VDW>
2.1026

>  <SCORE.INTRA.VDW.0>
-1.53273

>  <SCORE.INTRA.norm>
0.217225

>  <SCORE.RESTR>
0

>  <SCORE.RESTR.CAVITY>
0

>  <SCORE.RESTR.norm>
0

>  <SCORE.SYSTEM>
0

>  <SCORE.SYSTEM.CONST>
0

>  <SCORE.SYSTEM.DIHEDRAL>
0

>  <SCORE.SYSTEM.SOLV>
0

>  <SCORE.SYSTEM.norm>
0

>  <SCORE.heavy>
22

>  <SCORE.norm>
-0.382141

>  <RMSD>
6.399

$$$$
2f4s_lig
 OpenBabel11021811433D
libRbt.so/2013.1/901 2013/11/27
 22 23  0  0  0  0  0  0  0  0999 V2000
   19.5650    9.9766   42.1546 N   0  0  0  0  0  0  0  0  0  0  0  0
   18.9685   14.2313   39.5627 N   0  0  0  0  0  0  0  0  0  0  0  0
   19.0221   12.9438   35.2641 N   0  0  0  0  0  0  0  0  0  0  0  0
   23.0527   11.4146   38.9491 O   0  0  0  0  0  0  0  0  0  0  0  0
   22.0471   11.8994   39.8854 C   0  0  2  0  0  0  0  0  0  0  0  0
   24.1307   15.7104   38.3061 N   0  0  0  0  0  0  0  0  0  0  0  0
   22.2275    9.8359   41.2161 O   0  0  0  0  0  0  0  0  0  0  0  0
   21.3071   10.7004   40.5398 C   0  0  1  0  0  0  0  0  0  0  0  0
   21.6839   13.9700   38.6247 O   0  0  0  0  0  0  0  0  0  0  0  0
   20.2672   11.1729   41.5484 C   0  0  1  0  0  0  0  0  0  0  0  0
   21.6953   13.5936   36.3436 O   0  0  0  0  0  0  0  0  0  0  0  0
   19.2328   12.1094   40.8370 C   0  0  0  0  0  0  0  0  0  0  0  0
   20.3767   16.8754   35.3552 O   0  0  0  0  0  0  0  0  0  0  0  0
   20.0089   13.3346   40.2176 C   0  0  1  0  0  0  0  0  0  0  0  0
   22.8782   17.5788   36.5206 O   0  0  0  0  0  0  0  0  0  0  0  0
   21.0085   12.8404   39.1562 C   0  0  2  0  0  0  0  0  0  0  0  0
   22.5668   13.8940   37.5195 C   0  0  1  0  0  0  0  0  0  0  0  0
   20.6523   14.6058   36.0140 C   0  0  2  0  0  0  0  0  0  0  0  0
   19.8552   14.1020   34.8069 C   0  0  0  0  0  0  0  0  0  0  0  0
   21.3466   15.9041   35.6682 C   0  0  2  0  0  0  0  0  0  0  0  0
   22.2108   16.3537   36.8450 C   0  0  1  0  0  0  0  0  0  0  0  0
   23.2568   15.2575   37.1648 C   0  0  1  0  0  0  0  0  0  0  0  0
  5  4  1  6  0  0  0
  5  8  1  0  0  0  0
  5 16  1  0  0  0  0
  8  7  1  1  0  0  0
  8 10  1  0  0  0  0
 10  1  1  6  0  0  0
 10 12  1  0  0  0  0
 11 18  1  0  0  0  0
 12 14  1  0  0  0  0
 14  2  1  6  0  0  0
 14 16  1  0  0  0  0
 16  9  1  1  0  0  0
 17  9  1  1  0  0  0
 17 11  1  0  0  0  0
 17 22  1  0  0  0  0
 18 19  1  6  0  0  0
 18 20  1  0  0  0  0
 19  3  1  0  0  0  0
 20 13  1  1  0  0  0
 20 21  1  0  0  0  0
 21 15  1  6  0  0  0
 21 22  1  0  0  0  0
 22  6  1  1  0  0  0
M  END
>  <CHROM.1>
70.47173396,69.32739936,70.70231893,21.26493000,13.57035185,38.27251792,1.69520645
0.34498726,2.30888990

>  <Name>
2f4s_lig

>  <RI>
2.00194e+07

>  <Rbt.Current_Directory>
/home/itssahil/PROJECTS/Mol_Feturizer/New_Systems/rnas/2f4s

>  <Rbt.Executable>
rbdock ($Id: //depot/dev/client3/rdock/2013.1/src/exe/rbdock.cxx#4 $)

>  <Rbt.Library>
libRbt.so (2013.1, Build901 2013/11/27)

>  <Rbt.Parameter_File>
/export/apps/rDock/src/rDock_2013.1_src/data/scripts/dock_solv.prm

>  <Rbt.Receptor>
prm/pocket_docking_6.prm

>  <SCORE>
-9.11276

>  <SCORE.INTER>
-8.9446

>  <SCORE.INTER.CONST>
1

>  <SCORE.INTER.POLAR>
-0.704322

>  <SCORE.INTER.ROT>
3

>  <SCORE.INTER.SOLV>
20.1368

>  <SCORE.INTER.VDW>
-15.9276

>  <SCORE.INTER.norm>
-0.406573

>  <SCORE.INTRA>
-0.168159

>  <SCORE.INTRA.DIHEDRAL>
-0.177105

>  <SCORE.INTRA.DIHEDRAL.0>
1.67653

>  <SCORE.INTRA.POLAR>
0

>  <SCORE.INTRA.POLAR.0>
0

>  <SCORE.INTRA.REPUL>
0

>  <SCORE.INTRA.REPUL.0>
0

>  <SCORE.INTRA.SOLV>
-0.0716859

>  <SCORE.INTRA.SOLV.lig_0>
-76.6701

>  <SCORE.INTRA.VDW>
-0.0437637

>  <SCORE.INTRA.VDW.0>
-1.53273

>  <SCORE.INTRA.norm>
-0.0076436

>  <SCORE.RESTR>
0

>  <SCORE.RESTR.CAVITY>
0

>  <SCORE.RESTR.norm>
0

>  <SCORE.SYSTEM>
0

>  <SCORE.SYSTEM.CONST>
0

>  <SCORE.SYSTEM.DIHEDRAL>
0

>  <SCORE.SYSTEM.SOLV>
0

>  <SCORE.SYSTEM.norm>
0

>  <SCORE.heavy>
22

>  <SCORE.norm>
-0.414216

>  <RMSD>
6.401

$$$$
2f4s_lig
 OpenBabel11021811433D
libRbt.so/2013.1/901 2013/11/27
 22 23  0  0  0  0  0  0  0  0999 V2000
   22.2507    9.4049   42.3435 N   0  0  0  0  0  0  0  0  0  0  0  0
   21.5820   11.9468   38.0695 N   0  0  0  0  0  0  0  0  0  0  0  0
   22.1261   16.5340   36.7510 N   0  0  0  0  0  0  0  0  0  0  0  0
   18.9416   13.0823   42.1597 O   0  0  0  0  0  0  0  0  0  0  0  0
   19.5633   12.0223   41.3769 C   0  0  2  0  0  0  0  0  0  0  0  0
   16.7481   14.7029   38.5881 N   0  0  0  0  0  0  0  0  0  0  0  0
   19.9781   10.7014   43.4128 O   0  0  0  0  0  0  0  0  0  0  0  0
   20.5976   11.2554   42.2461 C   0  0  1  0  0  0  0  0  0  0  0  0
   19.3048   13.2486   39.2702 O   0  0  0  0  0  0  0  0  0  0  0  0
   21.2457   10.1189   41.4649 C   0  0  1  0  0  0  0  0  0  0  0  0
   20.5057   15.0746   38.5164 O   0  0  0  0  0  0  0  0  0  0  0  0
   21.9484   10.6927   40.1882 C   0  0  0  0  0  0  0  0  0  0  0  0
   20.0199   14.4629   34.9281 O   0  0  0  0  0  0  0  0  0  0  0  0
   20.8666   11.4303   39.3092 C   0  0  1  0  0  0  0  0  0  0  0  0
   17.3585   14.9864   35.7962 O   0  0  0  0  0  0  0  0  0  0  0  0
   20.2706   12.6132   40.0938 C   0  0  2  0  0  0  0  0  0  0  0  0
   19.2109   14.6553   39.1326 C   0  0  1  0  0  0  0  0  0  0  0  0
   20.8135   14.5132   37.1706 C   0  0  2  0  0  0  0  0  0  0  0  0
   22.1842   15.0371   36.7311 C   0  0  0  0  0  0  0  0  0  0  0  0
   19.7477   14.9850   36.2069 C   0  0  2  0  0  0  0  0  0  0  0  0
   18.3736   14.5350   36.7003 C   0  0  1  0  0  0  0  0  0  0  0  0
   18.1152   15.1202   38.1105 C   0  0  1  0  0  0  0  0  0  0  0  0
  5  4  1  1  0  0  0
  5  8  1  0  0  0  0
  5 16  1  0  0  0  0
  8  7  1  1  0  0  0
  8 10  1  0  0  0  0
 10  1  1  1  0  0  0
 10 12  1  0  0  0  0
 11 18  1  0  0  0  0
 12 14  1  0  0  0  0
 14  2  1  6  0  0  0
 14 16  1  0  0  0  0
 16  9  1  6  0  0  0
 17  9  1  6  0  0  0
 17 11  1  0  0  0  0
 17 22  1  0  0  0  0
 18 19  1  6  0  0  0
 18 20  1  0  0  0  0
 19  3  1  0  0  0  0
 20 13  1  6  0  0  0
 20 21  1  0  0  0  0
 21 15  1  6  0  0  0
 21 22  1  0  0  0  0
 22  6  1  1  0  0  0
M  END
>  <CHROM.1>
107.56034971,62.97778054,-57.04761636,20.05820238,13.25014740,39.02028277
-1.37689163,0.36602121,-0.97111601

>  <Name>
2f4s_lig

>  <RI>
2.00194e+07

>  <Rbt.Current_Directory>
/home/itssahil/PROJECTS/Mol_Feturizer/New_Systems/rnas/2f4s

>  <Rbt.Executable>
rbdock ($Id: //depot/dev/client3/rdock/2013.1/src/exe/rbdock.cxx#4 $)

>  <Rbt.Library>
libRbt.so (2013.1, Build901 2013/11/27)

>  <Rbt.Parameter_File>
/export/apps/rDock/src/rDock_2013.1_src/data/scripts/dock_solv.prm

>  <Rbt.Receptor>
prm/pocket_docking_6.prm

>  <SCORE>
-9.15892

>  <SCORE.INTER>
-13.5309

>  <SCORE.INTER.CONST>
1

>  <SCORE.INTER.POLAR>
-0.979554

>  <SCORE.INTER.ROT>
3

>  <SCORE.INTER.SOLV>
15.4288

>  <SCORE.INTER.VDW>
-16.4983

>  <SCORE.INTER.norm>
-0.615041

>  <SCORE.INTRA>
4.37198

>  <SCORE.INTRA.DIHEDRAL>
4.96282

>  <SCORE.INTRA.DIHEDRAL.0>
1.67653

>  <SCORE.INTRA.POLAR>
0

>  <SCORE.INTRA.POLAR.0>
0

>  <SCORE.INTRA.REPUL>
0

>  <SCORE.INTRA.REPUL.0>
0

>  <SCORE.INTRA.SOLV>
4.12748

>  <SCORE.INTRA.SOLV.lig_0>
-76.6701

>  <SCORE.INTRA.VDW>
-0.173172

>  <SCORE.INTRA.VDW.0>
-1.53273

>  <SCORE.INTRA.norm>
0.198726

>  <SCORE.RESTR>
0

>  <SCORE.RESTR.CAVITY>
0

>  <SCORE.RESTR.norm>
0

>  <SCORE.SYSTEM>
0

>  <SCORE.SYSTEM.CONST>
0

>  <SCORE.SYSTEM.DIHEDRAL>
0

>  <SCORE.SYSTEM.SOLV>
0

>  <SCORE.SYSTEM.norm>
0

>  <SCORE.heavy>
22

>  <SCORE.norm>
-0.416315

>  <RMSD>
6.401

$$$$
2f4s_lig
 OpenBabel11021811433D
libRbt.so/2013.1/901 2013/11/27
 22 23  0  0  0  0  0  0  0  0999 V2000
   19.7483    9.8886   42.2030 N   0  0  0  0  0  0  0  0  0  0  0  0
   18.9540   14.0858   39.5708 N   0  0  0  0  0  0  0  0  0  0  0  0
   18.6265   14.4024   34.6952 N   0  0  0  0  0  0  0  0  0  0  0  0
   23.2353   11.5472   39.1050 O   0  0  0  0  0  0  0  0  0  0  0  0
   22.1694   11.9664   40.0056 C   0  0  2  0  0  0  0  0  0  0  0  0
   23.9184   16.0270   38.3368 N   0  0  0  0  0  0  0  0  0  0  0  0
   22.4435    9.9237   41.3523 O   0  0  0  0  0  0  0  0  0  0  0  0
   21.4901   10.7225   40.6418 C   0  0  1  0  0  0  0  0  0  0  0  0
   21.7102   14.0042   38.7229 O   0  0  0  0  0  0  0  0  0  0  0  0
   20.3884   11.1274   41.6136 C   0  0  1  0  0  0  0  0  0  0  0  0
   21.8055   13.5182   36.4647 O   0  0  0  0  0  0  0  0  0  0  0  0
   19.3177   11.9903   40.8641 C   0  0  0  0  0  0  0  0  0  0  0  0
   20.0929   16.5490   35.2954 O   0  0  0  0  0  0  0  0  0  0  0  0
   20.0300   13.2629   40.2639 C   0  0  1  0  0  0  0  0  0  0  0  0
   22.4650   17.6264   36.4455 O   0  0  0  0  0  0  0  0  0  0  0  0
   21.0947   12.8335   39.2381 C   0  0  2  0  0  0  0  0  0  0  0  0
   22.6127   13.9871   37.6313 C   0  0  1  0  0  0  0  0  0  0  0  0
   20.6467   14.3698   36.0735 C   0  0  2  0  0  0  0  0  0  0  0  0
   19.9398   13.7075   34.8870 C   0  0  0  0  0  0  0  0  0  0  0  0
   21.1742   15.7277   35.6672 C   0  0  2  0  0  0  0  0  0  0  0  0
   21.9551   16.3434   36.8269 C   0  0  1  0  0  0  0  0  0  0  0  0
   23.1278   15.4086   37.2126 C   0  0  1  0  0  0  0  0  0  0  0  0
  5  4  1  6  0  0  0
  5  8  1  0  0  0  0
  5 16  1  0  0  0  0
  8  7  1  1  0  0  0
  8 10  1  0  0  0  0
 10  1  1  6  0  0  0
 10 12  1  0  0  0  0
 11 18  1  0  0  0  0
 12 14  1  0  0  0  0
 14  2  1  6  0  0  0
 14 16  1  0  0  0  0
 16  9  1  1  0  0  0
 17  9  1  1  0  0  0
 17 11  1  0  0  0  0
 17 22  1  0  0  0  0
 18 19  1  6  0  0  0
 18 20  1  0  0  0  0
 19  3  1  0  0  0  0
 20 13  1  1  0  0  0
 20 21  1  0  0  0  0
 21 15  1  6  0  0  0
 21 22  1  0  0  0  0
 22  6  1  1  0  0  0
M  END
>  <CHROM.1>
71.69170768,64.17146775,168.03517163,21.24513061,13.60263158,38.30086363
1.60848627,0.31678171,2.31282142

>  <Name>
2f4s_lig

>  <RI>
0

>  <Rbt.Current_Directory>
/home/itssahil/PROJECTS/Mol_Feturizer/New_Systems/rnas/2f4s

>  <Rbt.Executable>
rbdock ($Id: //depot/dev/client3/rdock/2013.1/src/exe/rbdock.cxx#4 $)

>  <Rbt.Library>
libRbt.so (2013.1, Build901 2013/11/27)

>  <Rbt.Parameter_File>
/export/apps/rDock/src/rDock_2013.1_src/data/scripts/dock_solv.prm

>  <Rbt.Receptor>
prm/pocket_docking_8.prm

>  <SCORE>
-10.72

>  <SCORE.INTER>
-11.2533

>  <SCORE.INTER.CONST>
1

>  <SCORE.INTER.POLAR>
-0.764039

>  <SCORE.INTER.ROT>
3

>  <SCORE.INTER.SOLV>
14.272

>  <SCORE.INTER.VDW>
-15.3127

>  <SCORE.INTER.norm>
-0.511513

>  <SCORE.INTRA>
0.533311

>  <SCORE.INTRA.DIHEDRAL>
-0.292831

>  <SCORE.INTRA.DIHEDRAL.0>
1.67653

>  <SCORE.INTRA.POLAR>
0

>  <SCORE.INTRA.POLAR.0>
0

>  <SCORE.INTRA.REPUL>
0

>  <SCORE.INTRA.REPUL.0>
0

>  <SCORE.INTRA.SOLV>
0.932772

>  <SCORE.INTRA.SOLV.lig_0>
-76.6701

>  <SCORE.INTRA.VDW>
0.21334

>  <SCORE.INTRA.VDW.0>
-1.53273

>  <SCORE.INTRA.norm>
0.0242414

>  <SCORE.RESTR>
0

>  <SCORE.RESTR.CAVITY>
0

>  <SCORE.RESTR.norm>
0

>  <SCORE.SYSTEM>
0

>  <SCORE.SYSTEM.CONST>
0

>  <SCORE.SYSTEM.DIHEDRAL>
0

>  <SCORE.SYSTEM.SOLV>
0

>  <SCORE.SYSTEM.norm>
0

>  <SCORE.heavy>
22

>  <SCORE.norm>
-0.487272

>  <RMSD>
6.406

$$$$
2f4s_lig
 OpenBabel11021811433D
libRbt.so/2013.1/901 2013/11/27
 22 23  0  0  0  0  0  0  0  0999 V2000
   19.7427    9.9009   42.1919 N   0  0  0  0  0  0  0  0  0  0  0  0
   18.9498   14.0943   39.5531 N   0  0  0  0  0  0  0  0  0  0  0  0
   18.6666   14.4495   34.6489 N   0  0  0  0  0  0  0  0  0  0  0  0
   23.2345   11.5593   39.0993 O   0  0  0  0  0  0  0  0  0  0  0  0
   22.1664   11.9785   39.9972 C   0  0  2  0  0  0  0  0  0  0  0  0
   23.9288   16.0275   38.3484 N   0  0  0  0  0  0  0  0  0  0  0  0
   22.4397    9.9376   41.3468 O   0  0  0  0  0  0  0  0  0  0  0  0
   21.4869   10.7346   40.6334 C   0  0  1  0  0  0  0  0  0  0  0  0
   21.7078   14.0143   38.7112 O   0  0  0  0  0  0  0  0  0  0  0  0
   20.3829   11.1396   41.6024 C   0  0  1  0  0  0  0  0  0  0  0  0
   21.8191   13.5340   36.4524 O   0  0  0  0  0  0  0  0  0  0  0  0
   19.3128   12.0006   40.8496 C   0  0  0  0  0  0  0  0  0  0  0  0
   20.1306   16.5761   35.2777 O   0  0  0  0  0  0  0  0  0  0  0  0
   20.0252   13.2732   40.2494 C   0  0  1  0  0  0  0  0  0  0  0  0
   22.4984   17.6390   36.4498 O   0  0  0  0  0  0  0  0  0  0  0  0
   21.0924   12.8436   39.2264 C   0  0  2  0  0  0  0  0  0  0  0  0
   22.6191   13.9958   37.6268 C   0  0  1  0  0  0  0  0  0  0  0  0
   20.6676   14.3922   36.0542 C   0  0  2  0  0  0  0  0  0  0  0  0
   19.9671   13.7365   34.8602 C   0  0  0  0  0  0  0  0  0  0  0  0
   21.2049   15.7486   35.6559 C   0  0  2  0  0  0  0  0  0  0  0  0
   21.9793   16.3574   36.8236 C   0  0  1  0  0  0  0  0  0  0  0  0
   23.1444   15.4159   37.2162 C   0  0  1  0  0  0  0  0  0  0  0  0
  5  4  1  6  0  0  0
  5  8  1  0  0  0  0
  5 16  1  0  0  0  0
  8  7  1  1  0  0  0
  8 10  1  0  0  0  0
 10  1  1  6  0  0  0
 10 12  1  0  0  0  0
 11 18  1  0  0  0  0
 12 14  1  0  0  0  0
 14  2  1  6  0  0  0
 14 16  1  0  0  0  0
 16  9  1  1  0  0  0
 17  9  1  1  0  0  0
 17 11  1  0  0  0  0
 17 22  1  0  0  0  0
 18 19  1  6  0  0  0
 18 20  1  0  0  0  0
 19  3  1  0  0  0  0
 20 13  1  1  0  0  0
 20 21  1  0  0  0  0
 21 15  1  6  0  0  0
 21 22  1  0  0  0  0
 22  6  1  1  0  0  0
M  END
>  <CHROM.1>
71.28452627,64.79537647,168.73646494,21.25534425,13.61767763,38.28989950
1.61262103,0.31847112,2.31110824

>  <Name>
2f4s_lig

>  <RI>
0

>  <Rbt.Current_Directory>
/home/itssahil/PROJECTS/Mol_Feturizer/New_Systems/rnas/2f4s

>  <Rbt.Executable>
rbdock ($Id: //depot/dev/client3/rdock/2013.1/src/exe/rbdock.cxx#4 $)

>  <Rbt.Library>
libRbt.so (2013.1, Build901 2013/11/27)

>  <Rbt.Parameter_File>
/export/apps/rDock/src/rDock_2013.1_src/data/scripts/dock_solv.prm

>  <Rbt.Receptor>
prm/pocket_docking_4.prm

>  <SCORE>
-10.7171

>  <SCORE.INTER>
-11.2468

>  <SCORE.INTER.CONST>
1

>  <SCORE.INTER.POLAR>
-0.753494

>  <SCORE.INTER.ROT>
3

>  <SCORE.INTER.SOLV>
14.232

>  <SCORE.INTER.VDW>
-15.3303

>  <SCORE.INTER.norm>
-0.51122

>  <SCORE.INTRA>
0.529755

>  <SCORE.INTRA.DIHEDRAL>
-0.36423

>  <SCORE.INTRA.DIHEDRAL.0>
1.67653

>  <SCORE.INTRA.POLAR>
0

>  <SCORE.INTRA.POLAR.0>
0

>  <SCORE.INTRA.REPUL>
0

>  <SCORE.INTRA.REPUL.0>
0

>  <SCORE.INTRA.SOLV>
0.936565

>  <SCORE.INTRA.SOLV.lig_0>
-76.6701

>  <SCORE.INTRA.VDW>
0.243587

>  <SCORE.INTRA.VDW.0>
-1.53273

>  <SCORE.INTRA.norm>
0.0240798

>  <SCORE.RESTR>
0

>  <SCORE.RESTR.CAVITY>
0

>  <SCORE.RESTR.norm>
0

>  <SCORE.SYSTEM>
0

>  <SCORE.SYSTEM.CONST>
0

>  <SCORE.SYSTEM.DIHEDRAL>
0

>  <SCORE.SYSTEM.SOLV>
0

>  <SCORE.SYSTEM.norm>
0

>  <SCORE.heavy>
22

>  <SCORE.norm>
-0.48714

>  <RMSD>
6.409

$$$$
2f4s_lig
 OpenBabel11021811433D
libRbt.so/2013.1/901 2013/11/27
 22 23  0  0  0  0  0  0  0  0999 V2000
   21.4125    9.9595   42.3046 N   0  0  0  0  0  0  0  0  0  0  0  0
   21.6622   12.1214   37.7836 N   0  0  0  0  0  0  0  0  0  0  0  0
   21.5671   18.2353   38.1107 N   0  0  0  0  0  0  0  0  0  0  0  0
   18.5924   13.9031   41.3038 O   0  0  0  0  0  0  0  0  0  0  0  0
   19.2013   12.7162   40.7178 C   0  0  2  0  0  0  0  0  0  0  0  0
   16.8520   14.6954   37.1712 N   0  0  0  0  0  0  0  0  0  0  0  0
   19.1648   11.5681   42.8954 O   0  0  0  0  0  0  0  0  0  0  0  0
   20.0060   11.9423   41.7980 C   0  0  1  0  0  0  0  0  0  0  0  0
   19.3913   13.7486   38.5027 O   0  0  0  0  0  0  0  0  0  0  0  0
   20.6322   10.6772   41.2240 C   0  0  1  0  0  0  0  0  0  0  0  0
   20.0702   15.9499   38.6985 O   0  0  0  0  0  0  0  0  0  0  0  0
   21.5735   11.0522   40.0297 C   0  0  0  0  0  0  0  0  0  0  0  0
   20.9943   16.4344   35.1775 O   0  0  0  0  0  0  0  0  0  0  0  0
   20.7203   11.8008   38.9348 C   0  0  1  0  0  0  0  0  0  0  0  0
   18.1857   16.0025   34.9893 O   0  0  0  0  0  0  0  0  0  0  0  0
   20.1499   13.1071   39.5165 C   0  0  2  0  0  0  0  0  0  0  0  0
   18.8719   15.0596   38.6380 C   0  0  1  0  0  0  0  0  0  0  0  0
   20.9634   15.9437   37.5055 C   0  0  2  0  0  0  0  0  0  0  0  0
   22.1366   16.8907   37.7759 C   0  0  0  0  0  0  0  0  0  0  0  0
   20.1674   16.4348   36.3170 C   0  0  2  0  0  0  0  0  0  0  0  0
   18.9488   15.5373   36.1086 C   0  0  1  0  0  0  0  0  0  0  0  0
   18.0707   15.5562   37.3839 C   0  0  1  0  0  0  0  0  0  0  0  0
  5  4  1  1  0  0  0
  5  8  1  0  0  0  0
  5 16  1  0  0  0  0
  8  7  1  1  0  0  0
  8 10  1  0  0  0  0
 10  1  1  1  0  0  0
 10 12  1  0  0  0  0
 11 18  1  0  0  0  0
 12 14  1  0  0  0  0
 14  2  1  6  0  0  0
 14 16  1  0  0  0  0
 16  9  1  6  0  0  0
 17  9  1  6  0  0  0
 17 11  1  0  0  0  0
 17 22  1  0  0  0  0
 18 19  1  1  0  0  0
 18 20  1  0  0  0  0
 19  3  1  0  0  0  0
 20 13  1  6  0  0  0
 20 21  1  0  0  0  0
 21 15  1  6  0  0  0
 21 22  1  0  0  0  0
 22  6  1  6  0  0  0
M  END
>  <CHROM.1>
71.82997385,65.84966101,-55.98180695,19.95427638,14.08738756,38.75943965
-1.50605789,0.00304815,-0.77791793

>  <Name>
2f4s_lig

>  <RI>
0

>  <Rbt.Current_Directory>
/home/itssahil/PROJECTS/Mol_Feturizer/New_Systems/rnas/2f4s

>  <Rbt.Executable>
rbdock ($Id: //depot/dev/client3/rdock/2013.1/src/exe/rbdock.cxx#4 $)

>  <Rbt.Library>
libRbt.so (2013.1, Build901 2013/11/27)

>  <Rbt.Parameter_File>
/export/apps/rDock/src/rDock_2013.1_src/data/scripts/dock_solv.prm

>  <Rbt.Receptor>
prm/pocket_docking_4.prm

>  <SCORE>
-10.0174

>  <SCORE.INTER>
-10.5864

>  <SCORE.INTER.CONST>
1

>  <SCORE.INTER.POLAR>
-0.978964

>  <SCORE.INTER.ROT>
3

>  <SCORE.INTER.SOLV>
14.6734

>  <SCORE.INTER.VDW>
-14.2855

>  <SCORE.INTER.norm>
-0.4812

>  <SCORE.INTRA>
0.56896

>  <SCORE.INTRA.DIHEDRAL>
-0.630565

>  <SCORE.INTRA.DIHEDRAL.0>
1.67653

>  <SCORE.INTRA.POLAR>
0

>  <SCORE.INTRA.POLAR.0>
0

>  <SCORE.INTRA.REPUL>
0

>  <SCORE.INTRA.REPUL.0>
0

>  <SCORE.INTRA.SOLV>
1.53781

>  <SCORE.INTRA.SOLV.lig_0>
-76.6701

>  <SCORE.INTRA.VDW>
0.11534

>  <SCORE.INTRA.VDW.0>
-1.53273

>  <SCORE.INTRA.norm>
0.0258618

>  <SCORE.RESTR>
0

>  <SCORE.RESTR.CAVITY>
0

>  <SCORE.RESTR.norm>
0

>  <SCORE.SYSTEM>
0

>  <SCORE.SYSTEM.CONST>
0

>  <SCORE.SYSTEM.DIHEDRAL>
0

>  <SCORE.SYSTEM.SOLV>
0

>  <SCORE.SYSTEM.norm>
0

>  <SCORE.heavy>
22

>  <SCORE.norm>
-0.455338

>  <RMSD>
6.410

$$$$
2f4s_lig
 OpenBabel11021811433D
libRbt.so/2013.1/901 2013/11/27
 22 23  0  0  0  0  0  0  0  0999 V2000
   21.4329    9.9414   42.3320 N   0  0  0  0  0  0  0  0  0  0  0  0
   21.6455   12.1075   37.8110 N   0  0  0  0  0  0  0  0  0  0  0  0
   21.5936   18.1833   38.1970 N   0  0  0  0  0  0  0  0  0  0  0  0
   18.5838   13.8686   41.3487 O   0  0  0  0  0  0  0  0  0  0  0  0
   19.1967   12.6858   40.7587 C   0  0  2  0  0  0  0  0  0  0  0  0
   16.8573   14.6942   37.1787 N   0  0  0  0  0  0  0  0  0  0  0  0
   19.1787   11.5362   42.9358 O   0  0  0  0  0  0  0  0  0  0  0  0
   20.0118   11.9160   41.8342 C   0  0  1  0  0  0  0  0  0  0  0  0
   19.3687   13.7206   38.5433 O   0  0  0  0  0  0  0  0  0  0  0  0
   20.6426   10.6551   41.2560 C   0  0  1  0  0  0  0  0  0  0  0  0
   20.0667   15.9148   38.7513 O   0  0  0  0  0  0  0  0  0  0  0  0
   21.5752   11.0365   40.0569 C   0  0  0  0  0  0  0  0  0  0  0  0
   21.0432   16.3945   35.2439 O   0  0  0  0  0  0  0  0  0  0  0  0
   20.7117   11.7805   38.9671 C   0  0  1  0  0  0  0  0  0  0  0  0
   18.2333   15.9907   35.0170 O   0  0  0  0  0  0  0  0  0  0  0  0
   20.1365   13.0830   39.5526 C   0  0  2  0  0  0  0  0  0  0  0  0
   18.8605   15.0365   38.6733 C   0  0  1  0  0  0  0  0  0  0  0  0
   20.9758   15.9012   37.5705 C   0  0  2  0  0  0  0  0  0  0  0  0
   22.1546   16.8361   37.8582 C   0  0  0  0  0  0  0  0  0  0  0  0
   20.2010   16.4017   36.3720 C   0  0  2  0  0  0  0  0  0  0  0  0
   18.9765   15.5166   36.1459 C   0  0  1  0  0  0  0  0  0  0  0  0
   18.0813   15.5426   37.4092 C   0  0  1  0  0  0  0  0  0  0  0  0
  5  4  1  1  0  0  0
  5  8  1  0  0  0  0
  5 16  1  0  0  0  0
  8  7  1  1  0  0  0
  8 10  1  0  0  0  0
 10  1  1  1  0  0  0
 10 12  1  0  0  0  0
 11 18  1  0  0  0  0
 12 14  1  0  0  0  0
 14  2  1  6  0  0  0
 14 16  1  0  0  0  0
 16  9  1  6  0  0  0
 17  9  1  6  0  0  0
 17 11  1  0  0  0  0
 17 22  1  0  0  0  0
 18 19  1  1  0  0  0
 18 20  1  0  0  0  0
 19  3  1  0  0  0  0
 20 13  1  6  0  0  0
 20 21  1  0  0  0  0
 21 15  1  6  0  0  0
 21 22  1  0  0  0  0
 22  6  1  6  0  0  0
M  END
>  <CHROM.1>
72.89056953,64.16627039,-55.56602340,19.96331061,14.06027113,38.80175759
-1.50736269,-0.00120489,-0.77838548

>  <Name>
2f4s_lig

>  <RI>
0

>  <Rbt.Current_Directory>
/home/itssahil/PROJECTS/Mol_Feturizer/New_Systems/rnas/2f4s

>  <Rbt.Executable>
rbdock ($Id: //depot/dev/client3/rdock/2013.1/src/exe/rbdock.cxx#4 $)

>  <Rbt.Library>
libRbt.so (2013.1, Build901 2013/11/27)

>  <Rbt.Parameter_File>
/export/apps/rDock/src/rDock_2013.1_src/data/scripts/dock_solv.prm

>  <Rbt.Receptor>
prm/pocket_docking_4.prm

>  <SCORE>
-10.0265

>  <SCORE.INTER>
-10.6111

>  <SCORE.INTER.CONST>
1

>  <SCORE.INTER.POLAR>
-0.979796

>  <SCORE.INTER.ROT>
3

>  <SCORE.INTER.SOLV>
14.7007

>  <SCORE.INTER.VDW>
-14.3083

>  <SCORE.INTER.norm>
-0.482321

>  <SCORE.INTRA>
0.584576

>  <SCORE.INTRA.DIHEDRAL>
-0.577858

>  <SCORE.INTRA.DIHEDRAL.0>
1.67653

>  <SCORE.INTRA.POLAR>
0

>  <SCORE.INTRA.POLAR.0>
0

>  <SCORE.INTRA.REPUL>
0

>  <SCORE.INTRA.REPUL.0>
0

>  <SCORE.INTRA.SOLV>
1.56875

>  <SCORE.INTRA.SOLV.lig_0>
-76.6701

>  <SCORE.INTRA.VDW>
0.0891293

>  <SCORE.INTRA.VDW.0>
-1.53273

>  <SCORE.INTRA.norm>
0.0265716

>  <SCORE.RESTR>
0

>  <SCORE.RESTR.CAVITY>
0

>  <SCORE.RESTR.norm>
0

>  <SCORE.SYSTEM>
0

>  <SCORE.SYSTEM.CONST>
0

>  <SCORE.SYSTEM.DIHEDRAL>
0

>  <SCORE.SYSTEM.SOLV>
0

>  <SCORE.SYSTEM.norm>
0

>  <SCORE.heavy>
22

>  <SCORE.norm>
-0.455749

>  <RMSD>
6.414

$$$$
2f4s_lig
 OpenBabel11021811433D
libRbt.so/2013.1/901 2013/11/27
 22 23  0  0  0  0  0  0  0  0999 V2000
   19.5912    9.9555   42.1803 N   0  0  0  0  0  0  0  0  0  0  0  0
   18.9372   14.1693   39.5361 N   0  0  0  0  0  0  0  0  0  0  0  0
   19.1869   12.8973   35.1491 N   0  0  0  0  0  0  0  0  0  0  0  0
   23.0856   11.4318   38.9996 O   0  0  0  0  0  0  0  0  0  0  0  0
   22.0594   11.9055   39.9191 C   0  0  2  0  0  0  0  0  0  0  0  0
   24.1215   15.7025   38.4234 N   0  0  0  0  0  0  0  0  0  0  0  0
   22.2668    9.8603   41.2739 O   0  0  0  0  0  0  0  0  0  0  0  0
   21.3367   10.6982   40.5778 C   0  0  1  0  0  0  0  0  0  0  0  0
   21.6682   13.9547   38.6321 O   0  0  0  0  0  0  0  0  0  0  0  0
   20.2756   11.1597   41.5693 C   0  0  1  0  0  0  0  0  0  0  0  0
   21.7870   13.5731   36.3549 O   0  0  0  0  0  0  0  0  0  0  0  0
   19.2304   12.0669   40.8361 C   0  0  0  0  0  0  0  0  0  0  0  0
   20.5053   16.8481   35.2981 O   0  0  0  0  0  0  0  0  0  0  0  0
   19.9882   13.3014   40.2125 C   0  0  1  0  0  0  0  0  0  0  0  0
   22.9475   17.5626   36.5769 O   0  0  0  0  0  0  0  0  0  0  0  0
   21.0101   12.8169   39.1680 C   0  0  2  0  0  0  0  0  0  0  0  0
   22.6018   13.8791   37.5693 C   0  0  1  0  0  0  0  0  0  0  0  0
   20.7572   14.5810   35.9746 C   0  0  2  0  0  0  0  0  0  0  0  0
   20.0188   14.0717   34.7330 C   0  0  0  0  0  0  0  0  0  0  0  0
   21.4626   15.8808   35.6584 C   0  0  2  0  0  0  0  0  0  0  0  0
   22.2697   16.3360   36.8730 C   0  0  1  0  0  0  0  0  0  0  0  0
   23.3032   15.2441   37.2438 C   0  0  1  0  0  0  0  0  0  0  0  0
  5  4  1  6  0  0  0
  5  8  1  0  0  0  0
  5 16  1  0  0  0  0
  8  7  1  1  0  0  0
  8 10  1  0  0  0  0
 10  1  1  6  0  0  0
 10 12  1  0  0  0  0
 11 18  1  0  0  0  0
 12 14  1  0  0  0  0
 14  2  1  6  0  0  0
 14 16  1  0  0  0  0
 16  9  1  1  0  0  0
 17  9  1  1  0  0  0
 17 11  1  0  0  0  0
 17 22  1  0  0  0  0
 18 19  1  6  0  0  0
 18 20  1  0  0  0  0
 19  3  1  0  0  0  0
 20 13  1  1  0  0  0
 20 21  1  0  0  0  0
 21 15  1  6  0  0  0
 21 22  1  0  0  0  0
 22  6  1  1  0  0  0
M  END
>  <CHROM.1>
68.12471717,71.78454558,69.75807567,21.31332505,13.55218342,38.28438492,1.70692446
0.38470382,2.29141486

>  <Name>
2f4s_lig

>  <RI>
0

>  <Rbt.Current_Directory>
/home/itssahil/PROJECTS/Mol_Feturizer/New_Systems/rnas/2f4s

>  <Rbt.Executable>
rbdock ($Id: //depot/dev/client3/rdock/2013.1/src/exe/rbdock.cxx#4 $)

>  <Rbt.Library>
libRbt.so (2013.1, Build901 2013/11/27)

>  <Rbt.Parameter_File>
/export/apps/rDock/src/rDock_2013.1_src/data/scripts/dock_solv.prm

>  <Rbt.Receptor>
prm/pocket_docking_5.prm

>  <SCORE>
-9.18745

>  <SCORE.INTER>
-9.06491

>  <SCORE.INTER.CONST>
1

>  <SCORE.INTER.POLAR>
-0.685564

>  <SCORE.INTER.ROT>
3

>  <SCORE.INTER.SOLV>
20.3446

>  <SCORE.INTER.VDW>
-16.1396

>  <SCORE.INTER.norm>
-0.412041

>  <SCORE.INTRA>
-0.122536

>  <SCORE.INTRA.DIHEDRAL>
-0.213922

>  <SCORE.INTRA.DIHEDRAL.0>
1.67653

>  <SCORE.INTRA.POLAR>
0

>  <SCORE.INTRA.POLAR.0>
0

>  <SCORE.INTRA.REPUL>
0

>  <SCORE.INTRA.REPUL.0>
0

>  <SCORE.INTRA.SOLV>
-0.15509

>  <SCORE.INTRA.SOLV.lig_0>
-76.6701

>  <SCORE.INTRA.VDW>
0.0619703

>  <SCORE.INTRA.VDW.0>
-1.53273

>  <SCORE.INTRA.norm>
-0.0055698

>  <SCORE.RESTR>
0

>  <SCORE.RESTR.CAVITY>
0

>  <SCORE.RESTR.norm>
0

>  <SCORE.SYSTEM>
0

>  <SCORE.SYSTEM.CONST>
0

>  <SCORE.SYSTEM.DIHEDRAL>
0

>  <SCORE.SYSTEM.SOLV>
0

>  <SCORE.SYSTEM.norm>
0

>  <SCORE.heavy>
22

>  <SCORE.norm>
-0.417611

>  <RMSD>
6.418

$$$$
2f4s_lig
 OpenBabel11021811433D
libRbt.so/2013.1/901 2013/11/27
 22 23  0  0  0  0  0  0  0  0999 V2000
   21.1592   10.0886   43.5158 N   0  0  0  0  0  0  0  0  0  0  0  0
   22.6664   11.1448   38.8480 N   0  0  0  0  0  0  0  0  0  0  0  0
   19.5180   14.0858   33.6825 N   0  0  0  0  0  0  0  0  0  0  0  0
   18.6491   13.3846   40.8061 O   0  0  0  0  0  0  0  0  0  0  0  0
   19.4361   12.1607   40.7329 C   0  0  2  0  0  0  0  0  0  0  0  0
   19.7494   15.4577   39.4930 N   0  0  0  0  0  0  0  0  0  0  0  0
   18.7932   11.5572   43.0316 O   0  0  0  0  0  0  0  0  0  0  0  0
   19.9091   11.7462   42.1535 C   0  0  1  0  0  0  0  0  0  0  0  0
   20.2401   12.6589   38.4715 O   0  0  0  0  0  0  0  0  0  0  0  0
   20.7114   10.4512   42.1160 C   0  0  1  0  0  0  0  0  0  0  0  0
   20.4355   13.5101   36.3308 O   0  0  0  0  0  0  0  0  0  0  0  0
   21.9513   10.6284   41.1756 C   0  0  0  0  0  0  0  0  0  0  0  0
   16.8536   14.0892   35.7648 O   0  0  0  0  0  0  0  0  0  0  0  0
   21.4371   11.0100   39.7344 C   0  0  1  0  0  0  0  0  0  0  0  0
   17.4092   15.9030   37.8889 O   0  0  0  0  0  0  0  0  0  0  0  0
   20.6847   12.3523   39.7841 C   0  0  2  0  0  0  0  0  0  0  0  0
   20.6289   13.8309   37.7772 C   0  0  1  0  0  0  0  0  0  0  0  0
   19.0469   13.1775   35.9041 C   0  0  2  0  0  0  0  0  0  0  0  0
   19.0663   12.8546   34.4069 C   0  0  0  0  0  0  0  0  0  0  0  0
   18.1722   14.3844   36.1602 C   0  0  2  0  0  0  0  0  0  0  0  0
   18.2290   14.7549   37.6412 C   0  0  1  0  0  0  0  0  0  0  0  0
   19.6935   15.0627   38.0396 C   0  0  1  0  0  0  0  0  0  0  0  0
  5  4  1  1  0  0  0
  5  8  1  0  0  0  0
  5 16  1  0  0  0  0
  8  7  1  1  0  0  0
  8 10  1  0  0  0  0
 10  1  1  1  0  0  0
 10 12  1  0  0  0  0
 11 18  1  0  0  0  0
 12 14  1  0  0  0  0
 14  2  1  6  0  0  0
 14 16  1  0  0  0  0
 16  9  1  6  0  0  0
 17  9  1  1  0  0  0
 17 11  1  0  0  0  0
 17 22  1  0  0  0  0
 18 19  1  6  0  0  0
 18 20  1  0  0  0  0
 19  3  1  0  0  0  0
 20 13  1  1  0  0  0
 20 21  1  0  0  0  0
 21 15  1  6  0  0  0
 21 22  1  0  0  0  0
 22  6  1  1  0  0  0
M  END
>  <CHROM.1>
122.92561948,157.42653014,-62.22852659,19.70665151,12.94614126,38.78372729
-1.19772906,0.73752912,-1.35819341

>  <Name>
2f4s_lig

>  <RI>
0

>  <Rbt.Current_Directory>
/home/itssahil/PROJECTS/Mol_Feturizer/New_Systems/rnas/2f4s

>  <Rbt.Executable>
rbdock ($Id: //depot/dev/client3/rdock/2013.1/src/exe/rbdock.cxx#4 $)

>  <Rbt.Library>
libRbt.so (2013.1, Build901 2013/11/27)

>  <Rbt.Parameter_File>
/export/apps/rDock/src/rDock_2013.1_src/data/scripts/dock_solv.prm

>  <Rbt.Receptor>
prm/pocket_docking_8.prm

>  <SCORE>
-4.59003

>  <SCORE.INTER>
-10.2503

>  <SCORE.INTER.CONST>
1

>  <SCORE.INTER.POLAR>
-0.348549

>  <SCORE.INTER.ROT>
3

>  <SCORE.INTER.SOLV>
14.5973

>  <SCORE.INTER.VDW>
-16.1375

>  <SCORE.INTER.norm>
-0.465922

>  <SCORE.INTRA>
5.66025

>  <SCORE.INTRA.DIHEDRAL>
7.75398

>  <SCORE.INTRA.DIHEDRAL.0>
1.67653

>  <SCORE.INTRA.POLAR>
0

>  <SCORE.INTRA.POLAR.0>
0

>  <SCORE.INTRA.REPUL>
0

>  <SCORE.INTRA.REPUL.0>
0

>  <SCORE.INTRA.SOLV>
4.11623

>  <SCORE.INTRA.SOLV.lig_0>
-76.6701

>  <SCORE.INTRA.VDW>
-0.274861

>  <SCORE.INTRA.VDW.0>
-1.53273

>  <SCORE.INTRA.norm>
0.257284

>  <SCORE.RESTR>
0

>  <SCORE.RESTR.CAVITY>
0

>  <SCORE.RESTR.norm>
0

>  <SCORE.SYSTEM>
0

>  <SCORE.SYSTEM.CONST>
0

>  <SCORE.SYSTEM.DIHEDRAL>
0

>  <SCORE.SYSTEM.SOLV>
0

>  <SCORE.SYSTEM.norm>
0

>  <SCORE.heavy>
22

>  <SCORE.norm>
-0.208638

>  <RMSD>
6.420

$$$$
2f4s_lig
 OpenBabel11021811433D
libRbt.so/2013.1/901 2013/11/27
 22 23  0  0  0  0  0  0  0  0999 V2000
   20.0836   10.8863   43.0384 N   0  0  0  0  0  0  0  0  0  0  0  0
   18.2847   13.5732   39.2017 N   0  0  0  0  0  0  0  0  0  0  0  0
   21.8060   17.5856   37.6012 N   0  0  0  0  0  0  0  0  0  0  0  0
   22.1947   10.5218   38.5755 O   0  0  0  0  0  0  0  0  0  0  0  0
   21.5058   11.4358   39.4772 C   0  0  2  0  0  0  0  0  0  0  0  0
   19.1412   12.9323   34.9767 N   0  0  0  0  0  0  0  0  0  0  0  0
   22.2995   10.1723   41.4355 O   0  0  0  0  0  0  0  0  0  0  0  0
   21.1331   10.7030   40.7954 C   0  0  1  0  0  0  0  0  0  0  0  0
   20.5620   12.7484   37.6346 O   0  0  0  0  0  0  0  0  0  0  0  0
   20.4365   11.6404   41.7741 C   0  0  1  0  0  0  0  0  0  0  0  0
   20.6431   15.0575   37.7136 O   0  0  0  0  0  0  0  0  0  0  0  0
   19.1447   12.2271   41.1108 C   0  0  0  0  0  0  0  0  0  0  0  0
   23.3340   15.4823   35.2510 O   0  0  0  0  0  0  0  0  0  0  0  0
   19.5602   12.9965   39.7984 C   0  0  1  0  0  0  0  0  0  0  0  0
   21.2586   14.3561   33.6588 O   0  0  0  0  0  0  0  0  0  0  0  0
   20.2039   12.0189   38.7984 C   0  0  2  0  0  0  0  0  0  0  0  0
   19.8587   13.8966   37.1946 C   0  0  1  0  0  0  0  0  0  0  0  0
   22.0472   15.1803   37.2294 C   0  0  2  0  0  0  0  0  0  0  0  0
   22.6816   16.4058   37.8940 C   0  0  0  0  0  0  0  0  0  0  0  0
   22.0148   15.3661   35.7288 C   0  0  2  0  0  0  0  0  0  0  0  0
   21.3004   14.1819   35.0799 C   0  0  1  0  0  0  0  0  0  0  0  0
   19.8589   14.0814   35.6367 C   0  0  1  0  0  0  0  0  0  0  0  0
  5  4  1  6  0  0  0
  5  8  1  0  0  0  0
  5 16  1  0  0  0  0
  8  7  1  1  0  0  0
  8 10  1  0  0  0  0
 10  1  1  1  0  0  0
 10 12  1  0  0  0  0
 11 18  1  0  0  0  0
 12 14  1  0  0  0  0
 14  2  1  6  0  0  0
 14 16  1  0  0  0  0
 16  9  1  6  0  0  0
 17  9  1  6  0  0  0
 17 11  1  0  0  0  0
 17 22  1  0  0  0  0
 18 19  1  1  0  0  0
 18 20  1  0  0  0  0
 19  3  1  0  0  0  0
 20 13  1  6  0  0  0
 20 21  1  0  0  0  0
 21 15  1  6  0  0  0
 21 22  1  0  0  0  0
 22  6  1  6  0  0  0
M  END
>  <CHROM.1>
-146.61945401,97.41312838,-55.07156672,20.91470428,13.33386817,38.13413998
-1.90506859,-1.15608877,-1.25250215

>  <Name>
2f4s_lig

>  <RI>
0

>  <Rbt.Current_Directory>
/home/itssahil/PROJECTS/Mol_Feturizer/New_Systems/rnas/2f4s

>  <Rbt.Executable>
rbdock ($Id: //depot/dev/client3/rdock/2013.1/src/exe/rbdock.cxx#4 $)

>  <Rbt.Library>
libRbt.so (2013.1, Build901 2013/11/27)

>  <Rbt.Parameter_File>
/export/apps/rDock/src/rDock_2013.1_src/data/scripts/dock_solv.prm

>  <Rbt.Receptor>
prm/pocket_docking_4.prm

>  <SCORE>
-3.22097

>  <SCORE.INTER>
-11.3735

>  <SCORE.INTER.CONST>
1

>  <SCORE.INTER.POLAR>
-1.05454

>  <SCORE.INTER.ROT>
3

>  <SCORE.INTER.SOLV>
18.05

>  <SCORE.INTER.VDW>
-15.6839

>  <SCORE.INTER.norm>
-0.516979

>  <SCORE.INTRA>
8.15247

>  <SCORE.INTRA.DIHEDRAL>
7.56863

>  <SCORE.INTRA.DIHEDRAL.0>
1.67653

>  <SCORE.INTRA.POLAR>
0

>  <SCORE.INTRA.POLAR.0>
0

>  <SCORE.INTRA.REPUL>
0

>  <SCORE.INTRA.REPUL.0>
0

>  <SCORE.INTRA.SOLV>
3.2225

>  <SCORE.INTRA.SOLV.lig_0>
-76.6701

>  <SCORE.INTRA.VDW>
2.7569

>  <SCORE.INTRA.VDW.0>
-1.53273

>  <SCORE.INTRA.norm>
0.370567

>  <SCORE.RESTR>
0.000102839

>  <SCORE.RESTR.CAVITY>
0.000102839

>  <SCORE.RESTR.norm>
4.67452e-06

>  <SCORE.SYSTEM>
0

>  <SCORE.SYSTEM.CONST>
0

>  <SCORE.SYSTEM.DIHEDRAL>
0

>  <SCORE.SYSTEM.SOLV>
0

>  <SCORE.SYSTEM.norm>
0

>  <SCORE.heavy>
22

>  <SCORE.norm>
-0.146408

>  <RMSD>
6.428

$$$$
2f4s_lig
 OpenBabel11021811433D
libRbt.so/2013.1/901 2013/11/27
 22 23  0  0  0  0  0  0  0  0999 V2000
   21.2413   10.8600   42.6014 N   0  0  0  0  0  0  0  0  0  0  0  0
   21.7342   11.8911   37.7157 N   0  0  0  0  0  0  0  0  0  0  0  0
   17.4423   14.1062   33.2203 N   0  0  0  0  0  0  0  0  0  0  0  0
   18.1165   14.0246   40.4270 O   0  0  0  0  0  0  0  0  0  0  0  0
   18.9167   12.8271   40.2068 C   0  0  2  0  0  0  0  0  0  0  0  0
   21.0176   15.7452   37.7122 N   0  0  0  0  0  0  0  0  0  0  0  0
   18.7743   12.2393   42.5933 O   0  0  0  0  0  0  0  0  0  0  0  0
   19.6819   12.4518   41.5057 C   0  0  1  0  0  0  0  0  0  0  0  0
   19.2282   13.3157   37.8250 O   0  0  0  0  0  0  0  0  0  0  0  0
   20.5068   11.1844   41.3181 C   0  0  1  0  0  0  0  0  0  0  0  0
   18.8679   13.5163   35.5501 O   0  0  0  0  0  0  0  0  0  0  0  0
   21.5237   11.3884   40.1445 C   0  0  0  0  0  0  0  0  0  0  0  0
   16.5662   16.3724   35.7249 O   0  0  0  0  0  0  0  0  0  0  0  0
   20.7152   11.7290   38.8340 C   0  0  1  0  0  0  0  0  0  0  0  0
   18.9824   17.5091   36.7150 O   0  0  0  0  0  0  0  0  0  0  0  0
   19.9399   13.0455   39.0230 C   0  0  2  0  0  0  0  0  0  0  0  0
   19.8536   13.7797   36.6417 C   0  0  1  0  0  0  0  0  0  0  0  0
   17.5527   14.2081   35.6616 C   0  0  2  0  0  0  0  0  0  0  0  0
   16.6838   13.7875   34.4723 C   0  0  0  0  0  0  0  0  0  0  0  0
   17.7985   15.6998   35.6188 C   0  0  2  0  0  0  0  0  0  0  0  0
   18.7386   16.0983   36.7552 C   0  0  1  0  0  0  0  0  0  0  0  0
   20.0765   15.3323   36.6098 C   0  0  1  0  0  0  0  0  0  0  0  0
  5  4  1  1  0  0  0
  5  8  1  0  0  0  0
  5 16  1  0  0  0  0
  8  7  1  1  0  0  0
  8 10  1  0  0  0  0
 10  1  1  1  0  0  0
 10 12  1  0  0  0  0
 11 18  1  0  0  0  0
 12 14  1  0  0  0  0
 14  2  1  6  0  0  0
 14 16  1  0  0  0  0
 16  9  1  6  0  0  0
 17  9  1  1  0  0  0
 17 11  1  0  0  0  0
 17 22  1  0  0  0  0
 18 19  1  6  0  0  0
 18 20  1  0  0  0  0
 19  3  1  0  0  0  0
 20 13  1  1  0  0  0
 20 21  1  0  0  0  0
 21 15  1  6  0  0  0
 21 22  1  0  0  0  0
 22  6  1  1  0  0  0
M  END
>  <CHROM.1>
168.85440635,162.48242974,-55.97076171,19.23472872,13.71957838,38.03791120
-0.93827357,0.98031796,-1.59028238

>  <Name>
2f4s_lig

>  <RI>
2.00194e+07

>  <Rbt.Current_Directory>
/home/itssahil/PROJECTS/Mol_Feturizer/New_Systems/rnas/2f4s

>  <Rbt.Executable>
rbdock ($Id: //depot/dev/client3/rdock/2013.1/src/exe/rbdock.cxx#4 $)

>  <Rbt.Library>
libRbt.so (2013.1, Build901 2013/11/27)

>  <Rbt.Parameter_File>
/export/apps/rDock/src/rDock_2013.1_src/data/scripts/dock_solv.prm

>  <Rbt.Receptor>
prm/pocket_docking_6.prm

>  <SCORE>
-7.84096

>  <SCORE.INTER>
-10.2708

>  <SCORE.INTER.CONST>
1

>  <SCORE.INTER.POLAR>
-0.877712

>  <SCORE.INTER.ROT>
3

>  <SCORE.INTER.SOLV>
13.3365

>  <SCORE.INTER.VDW>
-13.967

>  <SCORE.INTER.norm>
-0.466856

>  <SCORE.INTRA>
2.42987

>  <SCORE.INTRA.DIHEDRAL>
0.500137

>  <SCORE.INTRA.DIHEDRAL.0>
1.67653

>  <SCORE.INTRA.POLAR>
0

>  <SCORE.INTRA.POLAR.0>
0

>  <SCORE.INTRA.REPUL>
0

>  <SCORE.INTRA.REPUL.0>
0

>  <SCORE.INTRA.SOLV>
3.87898

>  <SCORE.INTRA.SOLV.lig_0>
-76.6701

>  <SCORE.INTRA.VDW>
0.240316

>  <SCORE.INTRA.VDW.0>
-1.53273

>  <SCORE.INTRA.norm>
0.110449

>  <SCORE.RESTR>
0

>  <SCORE.RESTR.CAVITY>
0

>  <SCORE.RESTR.norm>
0

>  <SCORE.SYSTEM>
0

>  <SCORE.SYSTEM.CONST>
0

>  <SCORE.SYSTEM.DIHEDRAL>
0

>  <SCORE.SYSTEM.SOLV>
0

>  <SCORE.SYSTEM.norm>
0

>  <SCORE.heavy>
22

>  <SCORE.norm>
-0.356407

>  <RMSD>
6.429

$$$$
2f4s_lig
 OpenBabel11021811433D
libRbt.so/2013.1/901 2013/11/27
 22 23  0  0  0  0  0  0  0  0999 V2000
   21.6028   10.0183   42.3424 N   0  0  0  0  0  0  0  0  0  0  0  0
   21.5960   12.0951   37.7748 N   0  0  0  0  0  0  0  0  0  0  0  0
   17.8627   14.7434   33.8491 N   0  0  0  0  0  0  0  0  0  0  0  0
   18.5233   13.7644   41.3472 O   0  0  0  0  0  0  0  0  0  0  0  0
   19.1861   12.6039   40.7670 C   0  0  2  0  0  0  0  0  0  0  0  0
   19.6034   16.5007   39.2836 N   0  0  0  0  0  0  0  0  0  0  0  0
   19.2795   11.5020   42.9667 O   0  0  0  0  0  0  0  0  0  0  0  0
   20.0658   11.9024   41.8383 C   0  0  1  0  0  0  0  0  0  0  0  0
   19.2520   13.5986   38.5276 O   0  0  0  0  0  0  0  0  0  0  0  0
   20.7510   10.6652   41.2711 C   0  0  1  0  0  0  0  0  0  0  0  0
   19.1234   14.2271   36.3065 O   0  0  0  0  0  0  0  0  0  0  0  0
   21.6344   11.0703   40.0429 C   0  0  0  0  0  0  0  0  0  0  0  0
   15.7088   15.5725   36.4327 O   0  0  0  0  0  0  0  0  0  0  0  0
   20.7075   11.7432   38.9589 C   0  0  1  0  0  0  0  0  0  0  0  0
   17.1029   17.3567   38.1599 O   0  0  0  0  0  0  0  0  0  0  0  0
   20.0757   13.0251   39.5313 C   0  0  2  0  0  0  0  0  0  0  0  0
   19.7064   14.5971   37.6314 C   0  0  1  0  0  0  0  0  0  0  0  0
   17.6359   14.1932   36.2214 C   0  0  2  0  0  0  0  0  0  0  0  0
   17.2431   13.7685   34.8031 C   0  0  0  0  0  0  0  0  0  0  0  0
   17.1146   15.5840   36.5064 C   0  0  2  0  0  0  0  0  0  0  0  0
   17.5861   16.0362   37.8874 C   0  0  1  0  0  0  0  0  0  0  0  0
   19.1340   16.0265   37.9322 C   0  0  1  0  0  0  0  0  0  0  0  0
  5  4  1  1  0  0  0
  5  8  1  0  0  0  0
  5 16  1  0  0  0  0
  8  7  1  1  0  0  0
  8 10  1  0  0  0  0
 10  1  1  1  0  0  0
 10 12  1  0  0  0  0
 11 18  1  0  0  0  0
 12 14  1  0  0  0  0
 14  2  1  6  0  0  0
 14 16  1  0  0  0  0
 16  9  1  6  0  0  0
 17  9  1  1  0  0  0
 17 11  1  0  0  0  0
 17 22  1  0  0  0  0
 18 19  1  6  0  0  0
 18 20  1  0  0  0  0
 19  3  1  0  0  0  0
 20 13  1  1  0  0  0
 20 21  1  0  0  0  0
 21 15  1  6  0  0  0
 21 22  1  0  0  0  0
 22  6  1  1  0  0  0
M  END
>  <CHROM.1>
149.59365059,139.04722435,-57.43881607,19.07427356,13.69000487,38.65885112
-0.75681636,0.94540710,-1.61148086

>  <Name>
2f4s_lig

>  <RI>
0

>  <Rbt.Current_Directory>
/home/itssahil/PROJECTS/Mol_Feturizer/New_Systems/rnas/2f4s

>  <Rbt.Executable>
rbdock ($Id: //depot/dev/client3/rdock/2013.1/src/exe/rbdock.cxx#4 $)

>  <Rbt.Library>
libRbt.so (2013.1, Build901 2013/11/27)

>  <Rbt.Parameter_File>
/export/apps/rDock/src/rDock_2013.1_src/data/scripts/dock_solv.prm

>  <Rbt.Receptor>
prm/pocket_docking_4.prm

>  <SCORE>
-7.16835

>  <SCORE.INTER>
-12.4825

>  <SCORE.INTER.CONST>
1

>  <SCORE.INTER.POLAR>
-0.979796

>  <SCORE.INTER.ROT>
3

>  <SCORE.INTER.SOLV>
13.5652

>  <SCORE.INTER.VDW>
-15.1774

>  <SCORE.INTER.norm>
-0.567385

>  <SCORE.INTRA>
5.31252

>  <SCORE.INTRA.DIHEDRAL>
7.52283

>  <SCORE.INTRA.DIHEDRAL.0>
1.67653

>  <SCORE.INTRA.POLAR>
0

>  <SCORE.INTRA.POLAR.0>
0

>  <SCORE.INTRA.REPUL>
0

>  <SCORE.INTRA.REPUL.0>
0

>  <SCORE.INTRA.SOLV>
3.21504

>  <SCORE.INTRA.SOLV.lig_0>
-76.6701

>  <SCORE.INTRA.VDW>
-0.0564148

>  <SCORE.INTRA.VDW.0>
-1.53273

>  <SCORE.INTRA.norm>
0.241478

>  <SCORE.RESTR>
0.0016033

>  <SCORE.RESTR.CAVITY>
0.0016033

>  <SCORE.RESTR.norm>
7.28772e-05

>  <SCORE.SYSTEM>
0

>  <SCORE.SYSTEM.CONST>
0

>  <SCORE.SYSTEM.DIHEDRAL>
0

>  <SCORE.SYSTEM.SOLV>
0

>  <SCORE.SYSTEM.norm>
0

>  <SCORE.heavy>
22

>  <SCORE.norm>
-0.325834

>  <RMSD>
6.430

$$$$
2f4s_lig
 OpenBabel11021811433D
libRbt.so/2013.1/901 2013/11/27
 22 23  0  0  0  0  0  0  0  0999 V2000
   18.9036   12.7101   40.5019 N   0  0  0  0  0  0  0  0  0  0  0  0
   18.5873   16.3210   37.0325 N   0  0  0  0  0  0  0  0  0  0  0  0
   18.9345   13.5262   32.9632 N   0  0  0  0  0  0  0  0  0  0  0  0
   22.3443   13.0241   36.9566 O   0  0  0  0  0  0  0  0  0  0  0  0
   21.4396   13.8080   37.7871 C   0  0  2  0  0  0  0  0  0  0  0  0
   23.7596   17.0807   35.5007 N   0  0  0  0  0  0  0  0  0  0  0  0
   21.4884   12.0845   39.5445 O   0  0  0  0  0  0  0  0  0  0  0  0
   20.6220   12.8692   38.7165 C   0  0  1  0  0  0  0  0  0  0  0  0
   21.2133   15.5732   36.1014 O   0  0  0  0  0  0  0  0  0  0  0  0
   19.6856   13.6609   39.6211 C   0  0  1  0  0  0  0  0  0  0  0  0
   21.3758   14.5426   34.0383 O   0  0  0  0  0  0  0  0  0  0  0  0
   18.7111   14.5196   38.7459 C   0  0  0  0  0  0  0  0  0  0  0  0
   20.2975   17.4208   32.0286 O   0  0  0  0  0  0  0  0  0  0  0  0
   19.5688   15.4878   37.8436 C   0  0  1  0  0  0  0  0  0  0  0  0
   22.7369   18.3724   33.1484 O   0  0  0  0  0  0  0  0  0  0  0  0
   20.4604   14.6675   36.8936 C   0  0  2  0  0  0  0  0  0  0  0  0
   22.1711   15.1533   35.1459 C   0  0  1  0  0  0  0  0  0  0  0  0
   20.4113   15.4390   33.3404 C   0  0  2  0  0  0  0  0  0  0  0  0
   19.6824   14.6228   32.2686 C   0  0  0  0  0  0  0  0  0  0  0  0
   21.1924   16.5604   32.6925 C   0  0  2  0  0  0  0  0  0  0  0  0
   21.9877   17.3141   33.7570 C   0  0  1  0  0  0  0  0  0  0  0  0
   22.9519   16.3344   34.4701 C   0  0  1  0  0  0  0  0  0  0  0  0
  5  4  1  6  0  0  0
  5  8  1  0  0  0  0
  5 16  1  0  0  0  0
  8  7  1  1  0  0  0
  8 10  1  0  0  0  0
 10  1  1  6  0  0  0
 10 12  1  0  0  0  0
 11 18  1  0  0  0  0
 12 14  1  0  0  0  0
 14  2  1  6  0  0  0
 14 16  1  0  0  0  0
 16  9  1  6  0  0  0
 17  9  1  1  0  0  0
 17 11  1  0  0  0  0
 17 22  1  0  0  0  0
 18 19  1  6  0  0  0
 18 20  1  0  0  0  0
 19  3  1  0  0  0  0
 20 13  1  1  0  0  0
 20 21  1  0  0  0  0
 21 15  1  6  0  0  0
 21 22  1  0  0  0  0
 22  6  1  1  0  0  0
M  END
>  <CHROM.1>
61.12781446,70.34283121,61.61592627,20.86353624,15.05168521,35.84122406,1.77888726
0.43259745,1.98488502

>  <Name>
2f4s_lig

>  <RI>
0

>  <Rbt.Current_Directory>
/home/itssahil/PROJECTS/Mol_Feturizer/New_Systems/rnas/2f4s

>  <Rbt.Executable>
rbdock ($Id: //depot/dev/client3/rdock/2013.1/src/exe/rbdock.cxx#4 $)

>  <Rbt.Library>
libRbt.so (2013.1, Build901 2013/11/27)

>  <Rbt.Parameter_File>
/export/apps/rDock/src/rDock_2013.1_src/data/scripts/dock_solv.prm

>  <Rbt.Receptor>
prm/pocket_docking_4.prm

>  <SCORE>
-6.27947

>  <SCORE.INTER>
-6.06674

>  <SCORE.INTER.CONST>
1

>  <SCORE.INTER.POLAR>
-0.390453

>  <SCORE.INTER.ROT>
3

>  <SCORE.INTER.SOLV>
10.9675

>  <SCORE.INTER.VDW>
-11.9988

>  <SCORE.INTER.norm>
-0.275761

>  <SCORE.INTRA>
-0.212737

>  <SCORE.INTRA.DIHEDRAL>
-1.00092

>  <SCORE.INTRA.DIHEDRAL.0>
1.67653

>  <SCORE.INTRA.POLAR>
0

>  <SCORE.INTRA.POLAR.0>
0

>  <SCORE.INTRA.REPUL>
0

>  <SCORE.INTRA.REPUL.0>
0

>  <SCORE.INTRA.SOLV>
-0.187289

>  <SCORE.INTRA.SOLV.lig_0>
-76.6701

>  <SCORE.INTRA.VDW>
0.381365

>  <SCORE.INTRA.VDW.0>
-1.53273

>  <SCORE.INTRA.norm>
-0.00966987

>  <SCORE.RESTR>
0

>  <SCORE.RESTR.CAVITY>
0

>  <SCORE.RESTR.norm>
0

>  <SCORE.SYSTEM>
0

>  <SCORE.SYSTEM.CONST>
0

>  <SCORE.SYSTEM.DIHEDRAL>
0

>  <SCORE.SYSTEM.SOLV>
0

>  <SCORE.SYSTEM.norm>
0

>  <SCORE.heavy>
22

>  <SCORE.norm>
-0.285431

>  <RMSD>
6.434

$$$$
2f4s_lig
 OpenBabel11021811433D
libRbt.so/2013.1/901 2013/11/27
 22 23  0  0  0  0  0  0  0  0999 V2000
   21.2300   10.5469   42.5140 N   0  0  0  0  0  0  0  0  0  0  0  0
   21.7252   11.9288   37.7160 N   0  0  0  0  0  0  0  0  0  0  0  0
   16.4401   13.3589   34.6713 N   0  0  0  0  0  0  0  0  0  0  0  0
   18.2682   14.0443   40.6425 O   0  0  0  0  0  0  0  0  0  0  0  0
   18.9953   12.8244   40.3171 C   0  0  2  0  0  0  0  0  0  0  0  0
   21.4172   15.6352   38.1153 N   0  0  0  0  0  0  0  0  0  0  0  0
   18.8467   12.0600   42.6527 O   0  0  0  0  0  0  0  0  0  0  0  0
   19.7525   12.3056   41.5705 C   0  0  1  0  0  0  0  0  0  0  0  0
   19.3069   13.4801   37.9758 O   0  0  0  0  0  0  0  0  0  0  0  0
   20.5007   11.0122   41.2717 C   0  0  1  0  0  0  0  0  0  0  0  0
   18.8811   14.0850   35.7854 O   0  0  0  0  0  0  0  0  0  0  0  0
   21.5140   11.2497   40.1014 C   0  0  0  0  0  0  0  0  0  0  0  0
   17.0187   17.1593   36.5379 O   0  0  0  0  0  0  0  0  0  0  0  0
   20.7114   11.7374   38.8345 C   0  0  1  0  0  0  0  0  0  0  0  0
   19.6125   17.7911   37.5296 O   0  0  0  0  0  0  0  0  0  0  0  0
   20.0156   13.0768   39.1376 C   0  0  2  0  0  0  0  0  0  0  0  0
   19.9403   14.0378   36.8381 C   0  0  1  0  0  0  0  0  0  0  0  0
   17.6836   14.9201   36.0849 C   0  0  2  0  0  0  0  0  0  0  0  0
   16.7132   14.8133   34.9046 C   0  0  0  0  0  0  0  0  0  0  0  0
   18.1370   16.3532   36.2520 C   0  0  2  0  0  0  0  0  0  0  0  0
   19.1724   16.4372   37.3721 C   0  0  1  0  0  0  0  0  0  0  0  0
   20.3803   15.5319   37.0265 C   0  0  1  0  0  0  0  0  0  0  0  0
  5  4  1  1  0  0  0
  5  8  1  0  0  0  0
  5 16  1  0  0  0  0
  8  7  1  1  0  0  0
  8 10  1  0  0  0  0
 10  1  1  1  0  0  0
 10 12  1  0  0  0  0
 11 18  1  0  0  0  0
 12 14  1  0  0  0  0
 14  2  1  6  0  0  0
 14 16  1  0  0  0  0
 16  9  1  6  0  0  0
 17  9  1  1  0  0  0
 17 11  1  0  0  0  0
 17 22  1  0  0  0  0
 18 19  1  6  0  0  0
 18 20  1  0  0  0  0
 19  3  1  0  0  0  0
 20 13  1  1  0  0  0
 20 21  1  0  0  0  0
 21 15  1  6  0  0  0
 21 22  1  0  0  0  0
 22  6  1  1  0  0  0
M  END
>  <CHROM.1>
166.83893354,170.24077651,54.56024768,19.34293085,13.87216326,38.35946577
0.22826450,1.22363663,-2.71143420

>  <Name>
2f4s_lig

>  <RI>
2.00194e+07

>  <Rbt.Current_Directory>
/home/itssahil/PROJECTS/Mol_Feturizer/New_Systems/rnas/2f4s

>  <Rbt.Executable>
rbdock ($Id: //depot/dev/client3/rdock/2013.1/src/exe/rbdock.cxx#4 $)

>  <Rbt.Library>
libRbt.so (2013.1, Build901 2013/11/27)

>  <Rbt.Parameter_File>
/export/apps/rDock/src/rDock_2013.1_src/data/scripts/dock_solv.prm

>  <Rbt.Receptor>
prm/pocket_docking_6.prm

>  <SCORE>
-7.30602

>  <SCORE.INTER>
-8.65175

>  <SCORE.INTER.CONST>
1

>  <SCORE.INTER.POLAR>
-0.893949

>  <SCORE.INTER.ROT>
3

>  <SCORE.INTER.SOLV>
17.2167

>  <SCORE.INTER.VDW>
-14.1269

>  <SCORE.INTER.norm>
-0.393262

>  <SCORE.INTRA>
1.34573

>  <SCORE.INTRA.DIHEDRAL>
-0.154542

>  <SCORE.INTRA.DIHEDRAL.0>
1.67653

>  <SCORE.INTRA.POLAR>
0

>  <SCORE.INTRA.POLAR.0>
0

>  <SCORE.INTRA.REPUL>
0

>  <SCORE.INTRA.REPUL.0>
0

>  <SCORE.INTRA.SOLV>
2.67355

>  <SCORE.INTRA.SOLV.lig_0>
-76.6701

>  <SCORE.INTRA.VDW>
0.0862239

>  <SCORE.INTRA.VDW.0>
-1.53273

>  <SCORE.INTRA.norm>
0.0611695

>  <SCORE.RESTR>
0

>  <SCORE.RESTR.CAVITY>
0

>  <SCORE.RESTR.norm>
0

>  <SCORE.SYSTEM>
0

>  <SCORE.SYSTEM.CONST>
0

>  <SCORE.SYSTEM.DIHEDRAL>
0

>  <SCORE.SYSTEM.SOLV>
0

>  <SCORE.SYSTEM.norm>
0

>  <SCORE.heavy>
22

>  <SCORE.norm>
-0.332092

>  <RMSD>
6.435

$$$$
2f4s_lig
 OpenBabel11021811433D
libRbt.so/2013.1/901 2013/11/27
 22 23  0  0  0  0  0  0  0  0999 V2000
   20.1979    9.7378   42.1833 N   0  0  0  0  0  0  0  0  0  0  0  0
   18.4850   13.8956   39.9573 N   0  0  0  0  0  0  0  0  0  0  0  0
   22.6086   18.4178   38.9976 N   0  0  0  0  0  0  0  0  0  0  0  0
   23.0241   12.1013   38.8767 O   0  0  0  0  0  0  0  0  0  0  0  0
   22.0140   12.2943   39.9088 C   0  0  2  0  0  0  0  0  0  0  0  0
   19.9270   13.1386   36.3077 N   0  0  0  0  0  0  0  0  0  0  0  0
   22.7445   10.2492   41.0687 O   0  0  0  0  0  0  0  0  0  0  0  0
   21.6073   10.9245   40.5185 C   0  0  1  0  0  0  0  0  0  0  0  0
   21.1095   14.3015   38.8308 O   0  0  0  0  0  0  0  0  0  0  0  0
   20.5721   11.0937   41.6238 C   0  0  1  0  0  0  0  0  0  0  0  0
   20.9011   16.4142   37.9154 O   0  0  0  0  0  0  0  0  0  0  0  0
   19.3056   11.8157   41.0513 C   0  0  0  0  0  0  0  0  0  0  0  0
   23.7349   16.1629   35.5932 O   0  0  0  0  0  0  0  0  0  0  0  0
   19.7443   13.2170   40.4761 C   0  0  1  0  0  0  0  0  0  0  0  0
   21.9672   14.1766   34.5734 O   0  0  0  0  0  0  0  0  0  0  0  0
   20.7409   13.0207   39.3193 C   0  0  2  0  0  0  0  0  0  0  0  0
   20.3150   15.0399   37.9197 C   0  0  1  0  0  0  0  0  0  0  0  0
   22.3183   16.5306   37.4692 C   0  0  2  0  0  0  0  0  0  0  0  0
   22.7349   18.0015   37.5641 C   0  0  0  0  0  0  0  0  0  0  0  0
   22.4014   16.0624   36.0335 C   0  0  2  0  0  0  0  0  0  0  0  0
   21.8992   14.6232   35.9326 C   0  0  1  0  0  0  0  0  0  0  0  0
   20.4357   14.5516   36.4337 C   0  0  1  0  0  0  0  0  0  0  0  0
  5  4  1  6  0  0  0
  5  8  1  0  0  0  0
  5 16  1  0  0  0  0
  8  7  1  1  0  0  0
  8 10  1  0  0  0  0
 10  1  1  6  0  0  0
 10 12  1  0  0  0  0
 11 18  1  0  0  0  0
 12 14  1  0  0  0  0
 14  2  1  6  0  0  0
 14 16  1  0  0  0  0
 16  9  1  1  0  0  0
 17  9  1  1  0  0  0
 17 11  1  0  0  0  0
 17 22  1  0  0  0  0
 18 19  1  6  0  0  0
 18 20  1  0  0  0  0
 19  3  1  0  0  0  0
 20 13  1  1  0  0  0
 20 21  1  0  0  0  0
 21 15  1  6  0  0  0
 21 22  1  0  0  0  0
 22  6  1  1  0  0  0
M  END
>  <CHROM.1>
161.59495099,167.71913549,60.84924493,21.34800225,13.90407122,38.54166404
2.06810603,-1.11847927,2.88934669

>  <Name>
2f4s_lig

>  <RI>
0

>  <Rbt.Current_Directory>
/home/itssahil/PROJECTS/Mol_Feturizer/New_Systems/rnas/2f4s

>  <Rbt.Executable>
rbdock ($Id: //depot/dev/client3/rdock/2013.1/src/exe/rbdock.cxx#4 $)

>  <Rbt.Library>
libRbt.so (2013.1, Build901 2013/11/27)

>  <Rbt.Parameter_File>
/export/apps/rDock/src/rDock_2013.1_src/data/scripts/dock_solv.prm

>  <Rbt.Receptor>
prm/pocket_docking_5.prm

>  <SCORE>
-6.61444

>  <SCORE.INTER>
-8.03995

>  <SCORE.INTER.CONST>
1

>  <SCORE.INTER.POLAR>
-0.906654

>  <SCORE.INTER.ROT>
3

>  <SCORE.INTER.SOLV>
18.6865

>  <SCORE.INTER.VDW>
-14.1666

>  <SCORE.INTER.norm>
-0.365452

>  <SCORE.INTRA>
1.42551

>  <SCORE.INTRA.DIHEDRAL>
0.714617

>  <SCORE.INTRA.DIHEDRAL.0>
1.67653

>  <SCORE.INTRA.POLAR>
0

>  <SCORE.INTRA.POLAR.0>
0

>  <SCORE.INTRA.REPUL>
0

>  <SCORE.INTRA.REPUL.0>
0

>  <SCORE.INTRA.SOLV>
2.2527

>  <SCORE.INTRA.SOLV.lig_0>
-76.6701

>  <SCORE.INTRA.VDW>
-0.0581482

>  <SCORE.INTRA.VDW.0>
-1.53273

>  <SCORE.INTRA.norm>
0.064796

>  <SCORE.RESTR>
0

>  <SCORE.RESTR.CAVITY>
0

>  <SCORE.RESTR.norm>
0

>  <SCORE.SYSTEM>
0

>  <SCORE.SYSTEM.CONST>
0

>  <SCORE.SYSTEM.DIHEDRAL>
0

>  <SCORE.SYSTEM.SOLV>
0

>  <SCORE.SYSTEM.norm>
0

>  <SCORE.heavy>
22

>  <SCORE.norm>
-0.300656

>  <RMSD>
6.439

$$$$
2f4s_lig
 OpenBabel11021811433D
libRbt.so/2013.1/901 2013/11/27
 22 23  0  0  0  0  0  0  0  0999 V2000
   20.2035    9.7442   42.1980 N   0  0  0  0  0  0  0  0  0  0  0  0
   18.4340   13.8783   39.9724 N   0  0  0  0  0  0  0  0  0  0  0  0
   22.4813   18.4733   38.9881 N   0  0  0  0  0  0  0  0  0  0  0  0
   23.0086   12.1631   38.9135 O   0  0  0  0  0  0  0  0  0  0  0  0
   21.9895   12.3365   39.9402 C   0  0  2  0  0  0  0  0  0  0  0  0
   19.9163   13.1248   36.3402 N   0  0  0  0  0  0  0  0  0  0  0  0
   22.7475   10.3010   41.0993 O   0  0  0  0  0  0  0  0  0  0  0  0
   21.6023   10.9585   40.5442 C   0  0  1  0  0  0  0  0  0  0  0  0
   21.0577   14.3310   38.8620 O   0  0  0  0  0  0  0  0  0  0  0  0
   20.5581   11.1076   41.6439 C   0  0  1  0  0  0  0  0  0  0  0  0
   20.8383   16.4299   37.9179 O   0  0  0  0  0  0  0  0  0  0  0  0
   19.2830   11.8097   41.0660 C   0  0  0  0  0  0  0  0  0  0  0  0
   23.7011   16.1793   35.6315 O   0  0  0  0  0  0  0  0  0  0  0  0
   19.7014   13.2197   40.4968 C   0  0  1  0  0  0  0  0  0  0  0  0
   21.9657   14.1623   34.6165 O   0  0  0  0  0  0  0  0  0  0  0  0
   20.7078   13.0430   39.3452 C   0  0  2  0  0  0  0  0  0  0  0  0
   20.2662   15.0498   37.9327 C   0  0  1  0  0  0  0  0  0  0  0  0
   22.2592   16.5555   37.4865 C   0  0  2  0  0  0  0  0  0  0  0  0
   22.6597   18.0317   37.5677 C   0  0  0  0  0  0  0  0  0  0  0  0
   22.3637   16.0705   36.0578 C   0  0  2  0  0  0  0  0  0  0  0  0
   21.8775   14.6250   35.9692 C   0  0  1  0  0  0  0  0  0  0  0  0
   20.4091   14.5444   36.4543 C   0  0  1  0  0  0  0  0  0  0  0  0
  5  4  1  6  0  0  0
  5  8  1  0  0  0  0
  5 16  1  0  0  0  0
  8  7  1  1  0  0  0
  8 10  1  0  0  0  0
 10  1  1  6  0  0  0
 10 12  1  0  0  0  0
 11 18  1  0  0  0  0
 12 14  1  0  0  0  0
 14  2  1  6  0  0  0
 14 16  1  0  0  0  0
 16  9  1  1  0  0  0
 17  9  1  1  0  0  0
 17 11  1  0  0  0  0
 17 22  1  0  0  0  0
 18 19  1  6  0  0  0
 18 20  1  0  0  0  0
 19  3  1  0  0  0  0
 20 13  1  1  0  0  0
 20 21  1  0  0  0  0
 21 15  1  6  0  0  0
 21 22  1  0  0  0  0
 22  6  1  1  0  0  0
M  END
>  <CHROM.1>
160.61462486,168.80433509,59.51910371,21.31376486,13.92125452,38.56416921
2.02421684,-1.08678365,2.84331149

>  <Name>
2f4s_lig

>  <RI>
0

>  <Rbt.Current_Directory>
/home/itssahil/PROJECTS/Mol_Feturizer/New_Systems/rnas/2f4s

>  <Rbt.Executable>
rbdock ($Id: //depot/dev/client3/rdock/2013.1/src/exe/rbdock.cxx#4 $)

>  <Rbt.Library>
libRbt.so (2013.1, Build901 2013/11/27)

>  <Rbt.Parameter_File>
/export/apps/rDock/src/rDock_2013.1_src/data/scripts/dock_solv.prm

>  <Rbt.Receptor>
prm/pocket_docking_4.prm

>  <SCORE>
-6.49493

>  <SCORE.INTER>
-7.90723

>  <SCORE.INTER.CONST>
1

>  <SCORE.INTER.POLAR>
-0.909918

>  <SCORE.INTER.ROT>
3

>  <SCORE.INTER.SOLV>
18.629

>  <SCORE.INTER.VDW>
-14.0481

>  <SCORE.INTER.norm>
-0.35942

>  <SCORE.INTRA>
1.4123

>  <SCORE.INTRA.DIHEDRAL>
0.750916

>  <SCORE.INTRA.DIHEDRAL.0>
1.67653

>  <SCORE.INTRA.POLAR>
0

>  <SCORE.INTRA.POLAR.0>
0

>  <SCORE.INTRA.REPUL>
0

>  <SCORE.INTRA.REPUL.0>
0

>  <SCORE.INTRA.SOLV>
2.28931

>  <SCORE.INTRA.SOLV.lig_0>
-76.6701

>  <SCORE.INTRA.VDW>
-0.107814

>  <SCORE.INTRA.VDW.0>
-1.53273

>  <SCORE.INTRA.norm>
0.0641953

>  <SCORE.RESTR>
0

>  <SCORE.RESTR.CAVITY>
0

>  <SCORE.RESTR.norm>
0

>  <SCORE.SYSTEM>
0

>  <SCORE.SYSTEM.CONST>
0

>  <SCORE.SYSTEM.DIHEDRAL>
0

>  <SCORE.SYSTEM.SOLV>
0

>  <SCORE.SYSTEM.norm>
0

>  <SCORE.heavy>
22

>  <SCORE.norm>
-0.295224

>  <RMSD>
6.443

$$$$
2f4s_lig
 OpenBabel11021811433D
libRbt.so/2013.1/901 2013/11/27
 22 23  0  0  0  0  0  0  0  0999 V2000
   23.9799   16.3508   38.2291 N   0  0  0  0  0  0  0  0  0  0  0  0
   22.8934   16.8193   33.3530 N   0  0  0  0  0  0  0  0  0  0  0  0
   18.5256   17.9057   32.8050 N   0  0  0  0  0  0  0  0  0  0  0  0
   20.4131   13.5643   36.2241 O   0  0  0  0  0  0  0  0  0  0  0  0
   21.6914   14.2087   35.9529 C   0  0  2  0  0  0  0  0  0  0  0  0
   20.6722   11.7832   32.3725 N   0  0  0  0  0  0  0  0  0  0  0  0
   22.3173   14.0673   38.3298 O   0  0  0  0  0  0  0  0  0  0  0  0
   22.1871   14.9614   37.2183 C   0  0  1  0  0  0  0  0  0  0  0  0
   21.1841   14.5060   33.5732 O   0  0  0  0  0  0  0  0  0  0  0  0
   23.5386   15.6229   36.9773 C   0  0  1  0  0  0  0  0  0  0  0  0
   19.0202   15.1146   33.0329 O   0  0  0  0  0  0  0  0  0  0  0  0
   23.4279   16.6218   35.7761 C   0  0  0  0  0  0  0  0  0  0  0  0
   19.5826   15.5682   29.4324 O   0  0  0  0  0  0  0  0  0  0  0  0
   22.9610   15.8216   34.4999 C   0  0  1  0  0  0  0  0  0  0  0  0
   20.0562   12.7780   29.7497 O   0  0  0  0  0  0  0  0  0  0  0  0
   21.5667   15.2152   34.7417 C   0  0  2  0  0  0  0  0  0  0  0  0
   19.8918   13.9551   33.3911 C   0  0  1  0  0  0  0  0  0  0  0  0
   19.3726   15.8501   31.7856 C   0  0  2  0  0  0  0  0  0  0  0  0
   18.3856   17.0088   31.6133 C   0  0  0  0  0  0  0  0  0  0  0  0
   19.2513   14.8918   30.6218 C   0  0  2  0  0  0  0  0  0  0  0  0
   20.1729   13.6940   30.8446 C   0  0  1  0  0  0  0  0  0  0  0  0
   19.7843   12.9831   32.1644 C   0  0  1  0  0  0  0  0  0  0  0  0
  5  4  1  1  0  0  0
  5  8  1  0  0  0  0
  5 16  1  0  0  0  0
  8  7  1  1  0  0  0
  8 10  1  0  0  0  0
 10  1  1  1  0  0  0
 10 12  1  0  0  0  0
 11 18  1  0  0  0  0
 12 14  1  0  0  0  0
 14  2  1  6  0  0  0
 14 16  1  0  0  0  0
 16  9  1  6  0  0  0
 17  9  1  6  0  0  0
 17 11  1  0  0  0  0
 17 22  1  0  0  0  0
 18 19  1  6  0  0  0
 18 20  1  0  0  0  0
 19  3  1  0  0  0  0
 20 13  1  6  0  0  0
 20 21  1  0  0  0  0
 21 15  1  6  0  0  0
 21 22  1  0  0  0  0
 22  6  1  1  0  0  0
M  END
>  <CHROM.1>
70.80707134,77.44531225,60.61761263,20.92590254,14.94889295,33.74242962,0.06212614
-1.07063627,-0.02912613

>  <Name>
2f4s_lig

>  <RI>
2.26097e+07

>  <Rbt.Current_Directory>
/home/itssahil/PROJECTS/Mol_Feturizer/New_Systems/rnas/2f4s

>  <Rbt.Executable>
rbdock ($Id: //depot/dev/client3/rdock/2013.1/src/exe/rbdock.cxx#4 $)

>  <Rbt.Library>
libRbt.so (2013.1, Build901 2013/11/27)

>  <Rbt.Parameter_File>
/export/apps/rDock/src/rDock_2013.1_src/data/scripts/dock_solv.prm

>  <Rbt.Receptor>
prm/pocket_docking_7.prm

>  <SCORE>
-7.91415

>  <SCORE.INTER>
-8.16323

>  <SCORE.INTER.CONST>
1

>  <SCORE.INTER.POLAR>
-1.40954

>  <SCORE.INTER.ROT>
3

>  <SCORE.INTER.SOLV>
12.5293

>  <SCORE.INTER.VDW>
-10.5201

>  <SCORE.INTER.norm>
-0.371056

>  <SCORE.INTRA>
0.249077

>  <SCORE.INTRA.DIHEDRAL>
0.396232

>  <SCORE.INTRA.DIHEDRAL.0>
1.67653

>  <SCORE.INTRA.POLAR>
0

>  <SCORE.INTRA.POLAR.0>
0

>  <SCORE.INTRA.REPUL>
0

>  <SCORE.INTRA.REPUL.0>
0

>  <SCORE.INTRA.SOLV>
0.0645076

>  <SCORE.INTRA.SOLV.lig_0>
-76.6701

>  <SCORE.INTRA.VDW>
0.0187071

>  <SCORE.INTRA.VDW.0>
-1.53273

>  <SCORE.INTRA.norm>
0.0113217

>  <SCORE.RESTR>
0

>  <SCORE.RESTR.CAVITY>
0

>  <SCORE.RESTR.norm>
0

>  <SCORE.SYSTEM>
0

>  <SCORE.SYSTEM.CONST>
0

>  <SCORE.SYSTEM.DIHEDRAL>
0

>  <SCORE.SYSTEM.SOLV>
0

>  <SCORE.SYSTEM.norm>
0

>  <SCORE.heavy>
22

>  <SCORE.norm>
-0.359734

>  <RMSD>
6.482

$$$$
2f4s_lig
 OpenBabel11021811433D
libRbt.so/2013.1/901 2013/11/27
 22 23  0  0  0  0  0  0  0  0999 V2000
   21.3633   10.2474   42.4305 N   0  0  0  0  0  0  0  0  0  0  0  0
   21.5925   11.9514   37.7167 N   0  0  0  0  0  0  0  0  0  0  0  0
   17.2212   14.8149   33.8586 N   0  0  0  0  0  0  0  0  0  0  0  0
   18.4048   13.9525   41.0068 O   0  0  0  0  0  0  0  0  0  0  0  0
   19.0683   12.7383   40.5502 C   0  0  2  0  0  0  0  0  0  0  0  0
   21.2409   15.8170   38.1575 N   0  0  0  0  0  0  0  0  0  0  0  0
   19.0458   11.8148   42.8324 O   0  0  0  0  0  0  0  0  0  0  0  0
   19.8873   12.1104   41.7115 C   0  0  1  0  0  0  0  0  0  0  0  0
   19.2493   13.5492   38.2441 O   0  0  0  0  0  0  0  0  0  0  0  0
   20.5709   10.8204   41.2749 C   0  0  1  0  0  0  0  0  0  0  0  0
   18.7448   13.9513   36.0240 O   0  0  0  0  0  0  0  0  0  0  0  0
   21.5137   11.1111   40.0584 C   0  0  0  0  0  0  0  0  0  0  0  0
   16.7334   16.9737   36.5759 O   0  0  0  0  0  0  0  0  0  0  0  0
   20.6475   11.7103   38.8847 C   0  0  1  0  0  0  0  0  0  0  0  0
   19.3090   17.8200   37.4477 O   0  0  0  0  0  0  0  0  0  0  0  0
   20.0179   13.0443   39.3253 C   0  0  2  0  0  0  0  0  0  0  0  0
   19.8271   14.0456   37.0498 C   0  0  1  0  0  0  0  0  0  0  0  0
   17.5101   14.7435   36.2862 C   0  0  2  0  0  0  0  0  0  0  0  0
   16.5223   14.4903   35.1433 C   0  0  0  0  0  0  0  0  0  0  0  0
   17.8878   16.2074   36.3268 C   0  0  2  0  0  0  0  0  0  0  0  0
   18.9404   16.4364   37.4100 C   0  0  1  0  0  0  0  0  0  0  0  0
   20.1885   15.5711   37.1071 C   0  0  1  0  0  0  0  0  0  0  0  0
  5  4  1  1  0  0  0
  5  8  1  0  0  0  0
  5 16  1  0  0  0  0
  8  7  1  1  0  0  0
  8 10  1  0  0  0  0
 10  1  1  1  0  0  0
 10 12  1  0  0  0  0
 11 18  1  0  0  0  0
 12 14  1  0  0  0  0
 14  2  1  6  0  0  0
 14 16  1  0  0  0  0
 16  9  1  6  0  0  0
 17  9  1  1  0  0  0
 17 11  1  0  0  0  0
 17 22  1  0  0  0  0
 18 19  1  6  0  0  0
 18 20  1  0  0  0  0
 19  3  1  0  0  0  0
 20 13  1  1  0  0  0
 20 21  1  0  0  0  0
 21 15  1  6  0  0  0
 21 22  1  0  0  0  0
 22  6  1  1  0  0  0
M  END
>  <CHROM.1>
173.37007049,158.05744568,-55.07306118,19.30736879,13.84999684,38.43297073
-0.75737555,1.08958768,-1.63910605

>  <Name>
2f4s_lig

>  <RI>
2.00194e+07

>  <Rbt.Current_Directory>
/home/itssahil/PROJECTS/Mol_Feturizer/New_Systems/rnas/2f4s

>  <Rbt.Executable>
rbdock ($Id: //depot/dev/client3/rdock/2013.1/src/exe/rbdock.cxx#4 $)

>  <Rbt.Library>
libRbt.so (2013.1, Build901 2013/11/27)

>  <Rbt.Parameter_File>
/export/apps/rDock/src/rDock_2013.1_src/data/scripts/dock_solv.prm

>  <Rbt.Receptor>
prm/pocket_docking_6.prm

>  <SCORE>
-7.92735

>  <SCORE.INTER>
-10.675

>  <SCORE.INTER.CONST>
1

>  <SCORE.INTER.POLAR>
-0.978446

>  <SCORE.INTER.ROT>
3

>  <SCORE.INTER.SOLV>
13.3461

>  <SCORE.INTER.VDW>
-13.9039

>  <SCORE.INTER.norm>
-0.485229

>  <SCORE.INTRA>
2.74769

>  <SCORE.INTRA.DIHEDRAL>
0.843169

>  <SCORE.INTRA.DIHEDRAL.0>
1.67653

>  <SCORE.INTRA.POLAR>
0

>  <SCORE.INTRA.POLAR.0>
0

>  <SCORE.INTRA.REPUL>
0

>  <SCORE.INTRA.REPUL.0>
0

>  <SCORE.INTRA.SOLV>
3.85388

>  <SCORE.INTRA.SOLV.lig_0>
-76.6701

>  <SCORE.INTRA.VDW>
0.39917

>  <SCORE.INTRA.VDW.0>
-1.53273

>  <SCORE.INTRA.norm>
0.124895

>  <SCORE.RESTR>
0

>  <SCORE.RESTR.CAVITY>
0

>  <SCORE.RESTR.norm>
0

>  <SCORE.SYSTEM>
0

>  <SCORE.SYSTEM.CONST>
0

>  <SCORE.SYSTEM.DIHEDRAL>
0

>  <SCORE.SYSTEM.SOLV>
0

>  <SCORE.SYSTEM.norm>
0

>  <SCORE.heavy>
22

>  <SCORE.norm>
-0.360334

>  <RMSD>
6.502

$$$$
2f4s_lig
 OpenBabel11021811433D
libRbt.so/2013.1/901 2013/11/27
 22 23  0  0  0  0  0  0  0  0999 V2000
   21.5468   13.5703   36.6821 N   0  0  0  0  0  0  0  0  0  0  0  0
   23.5137   11.0201   40.5297 N   0  0  0  0  0  0  0  0  0  0  0  0
   22.4037    6.5504   42.3468 N   0  0  0  0  0  0  0  0  0  0  0  0
   18.6947   12.3497   40.5399 O   0  0  0  0  0  0  0  0  0  0  0  0
   20.0501   12.7174   40.1519 C   0  0  2  0  0  0  0  0  0  0  0  0
   20.1866   12.3184   44.7411 N   0  0  0  0  0  0  0  0  0  0  0  0
   19.2019   13.9691   38.2089 O   0  0  0  0  0  0  0  0  0  0  0  0
   20.1203   12.9485   38.6172 C   0  0  1  0  0  0  0  0  0  0  0  0
   21.0600   11.4432   41.9864 O   0  0  0  0  0  0  0  0  0  0  0  0
   21.5201   13.3643   38.1816 C   0  0  1  0  0  0  0  0  0  0  0  0
   19.9977    9.4186   42.3289 O   0  0  0  0  0  0  0  0  0  0  0  0
   22.5498   12.2603   38.5987 C   0  0  0  0  0  0  0  0  0  0  0  0
   22.5081    7.9887   44.5958 O   0  0  0  0  0  0  0  0  0  0  0  0
   22.4821   12.0770   40.1635 C   0  0  1  0  0  0  0  0  0  0  0  0
   21.5322   10.1881   46.1191 O   0  0  0  0  0  0  0  0  0  0  0  0
   21.0789   11.5957   40.5753 C   0  0  2  0  0  0  0  0  0  0  0  0
   19.9716   10.8687   42.6878 C   0  0  1  0  0  0  0  0  0  0  0  0
   21.2241    8.6621   42.7093 C   0  0  2  0  0  0  0  0  0  0  0  0
   21.0660    7.2152   42.2322 C   0  0  0  0  0  0  0  0  0  0  0  0
   21.3526    8.6974   44.2158 C   0  0  2  0  0  0  0  0  0  0  0  0
   21.4192   10.1475   44.6918 C   0  0  1  0  0  0  0  0  0  0  0  0
   20.1380   10.8952   44.2475 C   0  0  1  0  0  0  0  0  0  0  0  0
  5  4  1  6  0  0  0
  5  8  1  0  0  0  0
  5 16  1  0  0  0  0
  8  7  1  1  0  0  0
  8 10  1  0  0  0  0
 10  1  1  6  0  0  0
 10 12  1  0  0  0  0
 11 18  1  0  0  0  0
 12 14  1  0  0  0  0
 14  2  1  6  0  0  0
 14 16  1  0  0  0  0
 16  9  1  1  0  0  0
 17  9  1  6  0  0  0
 17 11  1  0  0  0  0
 17 22  1  0  0  0  0
 18 19  1  1  0  0  0
 18 20  1  0  0  0  0
 19  3  1  0  0  0  0
 20 13  1  6  0  0  0
 20 21  1  0  0  0  0
 21 15  1  1  0  0  0
 21 22  1  0  0  0  0
 22  6  1  6  0  0  0
M  END
>  <CHROM.1>
70.61361246,69.93952043,167.81380833,21.05590306,10.91113658,41.62372487
-1.72746551,-0.95357486,2.08004581

>  <Name>
2f4s_lig

>  <RI>
2.26097e+07

>  <Rbt.Current_Directory>
/home/itssahil/PROJECTS/Mol_Feturizer/New_Systems/rnas/2f4s

>  <Rbt.Executable>
rbdock ($Id: //depot/dev/client3/rdock/2013.1/src/exe/rbdock.cxx#4 $)

>  <Rbt.Library>
libRbt.so (2013.1, Build901 2013/11/27)

>  <Rbt.Parameter_File>
/export/apps/rDock/src/rDock_2013.1_src/data/scripts/dock_solv.prm

>  <Rbt.Receptor>
prm/pocket_docking_7.prm

>  <SCORE>
-14.6053

>  <SCORE.INTER>
-15.2795

>  <SCORE.INTER.CONST>
1

>  <SCORE.INTER.POLAR>
-1.68733

>  <SCORE.INTER.ROT>
3

>  <SCORE.INTER.SOLV>
15.2407

>  <SCORE.INTER.VDW>
-15.2422

>  <SCORE.INTER.norm>
-0.694524

>  <SCORE.INTRA>
0.661347

>  <SCORE.INTRA.DIHEDRAL>
-0.0076613

>  <SCORE.INTRA.DIHEDRAL.0>
1.67653

>  <SCORE.INTRA.POLAR>
0

>  <SCORE.INTRA.POLAR.0>
0

>  <SCORE.INTRA.REPUL>
0

>  <SCORE.INTRA.REPUL.0>
0

>  <SCORE.INTRA.SOLV>
0.885431

>  <SCORE.INTRA.SOLV.lig_0>
-76.6701

>  <SCORE.INTRA.VDW>
0.222462

>  <SCORE.INTRA.VDW.0>
-1.53273

>  <SCORE.INTRA.norm>
0.0300612

>  <SCORE.RESTR>
0.0129009

>  <SCORE.RESTR.CAVITY>
0.0129009

>  <SCORE.RESTR.norm>
0.000586404

>  <SCORE.SYSTEM>
0

>  <SCORE.SYSTEM.CONST>
0

>  <SCORE.SYSTEM.DIHEDRAL>
0

>  <SCORE.SYSTEM.SOLV>
0

>  <SCORE.SYSTEM.norm>
0

>  <SCORE.heavy>
22

>  <SCORE.norm>
-0.663876

>  <RMSD>
6.506

$$$$
2f4s_lig
 OpenBabel11021811433D
libRbt.so/2013.1/901 2013/11/27
 22 23  0  0  0  0  0  0  0  0999 V2000
   21.0331   18.0727   30.3677 N   0  0  0  0  0  0  0  0  0  0  0  0
   21.9514   20.3315   34.7530 N   0  0  0  0  0  0  0  0  0  0  0  0
   26.3242   21.2109   35.3686 N   0  0  0  0  0  0  0  0  0  0  0  0
   24.1219   15.9737   33.6174 O   0  0  0  0  0  0  0  0  0  0  0  0
   22.9255   16.7966   33.4978 C   0  0  2  0  0  0  0  0  0  0  0  0
   23.4098   15.8625   37.7769 N   0  0  0  0  0  0  0  0  0  0  0  0
   22.3936   15.7844   31.3174 O   0  0  0  0  0  0  0  0  0  0  0  0
   22.5869   17.0291   31.9995 C   0  0  1  0  0  0  0  0  0  0  0  0
   23.3596   17.9638   35.6091 O   0  0  0  0  0  0  0  0  0  0  0  0
   21.3216   17.8628   31.8389 C   0  0  1  0  0  0  0  0  0  0  0  0
   25.5640   18.4667   36.0916 O   0  0  0  0  0  0  0  0  0  0  0  0
   21.5050   19.2407   32.5605 C   0  0  0  0  0  0  0  0  0  0  0  0
   24.9177   20.3203   39.1951 O   0  0  0  0  0  0  0  0  0  0  0  0
   21.8084   18.9720   34.0846 C   0  0  1  0  0  0  0  0  0  0  0  0
   24.0506   17.6983   39.8904 O   0  0  0  0  0  0  0  0  0  0  0  0
   23.1233   18.1840   34.2270 C   0  0  2  0  0  0  0  0  0  0  0  0
   24.5470   17.3723   36.1062 C   0  0  1  0  0  0  0  0  0  0  0  0
   25.2701   19.6582   36.9371 C   0  0  2  0  0  0  0  0  0  0  0  0
   26.4091   20.6672   36.7620 C   0  0  0  0  0  0  0  0  0  0  0  0
   25.1970   19.2077   38.3790 C   0  0  2  0  0  0  0  0  0  0  0  0
   24.1189   18.1357   38.5282 C   0  0  1  0  0  0  0  0  0  0  0  0
   24.4555   16.9349   37.6101 C   0  0  1  0  0  0  0  0  0  0  0  0
  5  4  1  6  0  0  0
  5  8  1  0  0  0  0
  5 16  1  0  0  0  0
  8  7  1  6  0  0  0
  8 10  1  0  0  0  0
 10  1  1  6  0  0  0
 10 12  1  0  0  0  0
 11 18  1  0  0  0  0
 12 14  1  0  0  0  0
 14  2  1  1  0  0  0
 14 16  1  0  0  0  0
 16  9  1  1  0  0  0
 17  9  1  1  0  0  0
 17 11  1  0  0  0  0
 17 22  1  0  0  0  0
 18 19  1  1  0  0  0
 18 20  1  0  0  0  0
 19  3  1  0  0  0  0
 20 13  1  1  0  0  0
 20 21  1  0  0  0  0
 21 15  1  1  0  0  0
 21 22  1  0  0  0  0
 22  6  1  6  0  0  0
M  END
>  <CHROM.1>
69.06349100,79.12859022,69.14739001,23.67404113,18.24765450,35.32075460,-2.79460108
1.10239441,2.52036951

>  <Name>
2f4s_lig

>  <RI>
2.26097e+07

>  <Rbt.Current_Directory>
/home/itssahil/PROJECTS/Mol_Feturizer/New_Systems/rnas/2f4s

>  <Rbt.Executable>
rbdock ($Id: //depot/dev/client3/rdock/2013.1/src/exe/rbdock.cxx#4 $)

>  <Rbt.Library>
libRbt.so (2013.1, Build901 2013/11/27)

>  <Rbt.Parameter_File>
/export/apps/rDock/src/rDock_2013.1_src/data/scripts/dock_solv.prm

>  <Rbt.Receptor>
prm/pocket_docking_7.prm

>  <SCORE>
-5.60057

>  <SCORE.INTER>
-6.02712

>  <SCORE.INTER.CONST>
1

>  <SCORE.INTER.POLAR>
-1.42079

>  <SCORE.INTER.ROT>
3

>  <SCORE.INTER.SOLV>
11.3531

>  <SCORE.INTER.VDW>
-8.66648

>  <SCORE.INTER.norm>
-0.27396

>  <SCORE.INTRA>
0.426554

>  <SCORE.INTRA.DIHEDRAL>
0.78514

>  <SCORE.INTRA.DIHEDRAL.0>
1.67653

>  <SCORE.INTRA.POLAR>
0

>  <SCORE.INTRA.POLAR.0>
0

>  <SCORE.INTRA.REPUL>
0

>  <SCORE.INTRA.REPUL.0>
0

>  <SCORE.INTRA.SOLV>
-0.0565017

>  <SCORE.INTRA.SOLV.lig_0>
-76.6701

>  <SCORE.INTRA.VDW>
0.0622352

>  <SCORE.INTRA.VDW.0>
-1.53273

>  <SCORE.INTRA.norm>
0.0193888

>  <SCORE.RESTR>
0

>  <SCORE.RESTR.CAVITY>
0

>  <SCORE.RESTR.norm>
0

>  <SCORE.SYSTEM>
0

>  <SCORE.SYSTEM.CONST>
0

>  <SCORE.SYSTEM.DIHEDRAL>
0

>  <SCORE.SYSTEM.SOLV>
0

>  <SCORE.SYSTEM.norm>
0

>  <SCORE.heavy>
22

>  <SCORE.norm>
-0.254571

>  <RMSD>
6.510

$$$$
2f4s_lig
 OpenBabel11021811433D
libRbt.so/2013.1/901 2013/11/27
 22 23  0  0  0  0  0  0  0  0999 V2000
   21.0134   14.8822   37.1658 N   0  0  0  0  0  0  0  0  0  0  0  0
   23.6683   11.1220   39.1630 N   0  0  0  0  0  0  0  0  0  0  0  0
   25.9517   11.8915   43.6197 N   0  0  0  0  0  0  0  0  0  0  0  0
   19.0236   12.0910   40.7375 O   0  0  0  0  0  0  0  0  0  0  0  0
   20.2755   12.6509   40.2454 C   0  0  2  0  0  0  0  0  0  0  0  0
   20.5044    8.3210   42.4665 N   0  0  0  0  0  0  0  0  0  0  0  0
   19.0748   14.5240   39.1913 O   0  0  0  0  0  0  0  0  0  0  0  0
   20.0190   13.4736   38.9527 C   0  0  1  0  0  0  0  0  0  0  0  0
   21.6093   10.8083   41.1590 O   0  0  0  0  0  0  0  0  0  0  0  0
   21.3057   14.0987   38.4277 C   0  0  1  0  0  0  0  0  0  0  0  0
   23.7347    9.9151   41.3319 O   0  0  0  0  0  0  0  0  0  0  0  0
   22.3569   12.9740   38.1399 C   0  0  0  0  0  0  0  0  0  0  0  0
   24.1578   10.4945   44.9335 O   0  0  0  0  0  0  0  0  0  0  0  0
   22.6244   12.1833   39.4780 C   0  0  1  0  0  0  0  0  0  0  0  0
   22.0123    8.6222   44.8920 O   0  0  0  0  0  0  0  0  0  0  0  0
   21.3266   11.5074   39.9565 C   0  0  2  0  0  0  0  0  0  0  0  0
   22.2889    9.5659   41.1899 C   0  0  1  0  0  0  0  0  0  0  0  0
   24.1191   10.6658   42.5606 C   0  0  2  0  0  0  0  0  0  0  0  0
   25.6233   10.9490   42.5024 C   0  0  0  0  0  0  0  0  0  0  0  0
   23.8030    9.8013   43.7606 C   0  0  2  0  0  0  0  0  0  0  0  0
   22.3167    9.4484   43.7623 C   0  0  1  0  0  0  0  0  0  0  0  0
   21.9638    8.6970   42.4551 C   0  0  1  0  0  0  0  0  0  0  0  0
  5  4  1  6  0  0  0
  5  8  1  0  0  0  0
  5 16  1  0  0  0  0
  8  7  1  1  0  0  0
  8 10  1  0  0  0  0
 10  1  1  6  0  0  0
 10 12  1  0  0  0  0
 11 18  1  0  0  0  0
 12 14  1  0  0  0  0
 14  2  1  6  0  0  0
 14 16  1  0  0  0  0
 16  9  1  1  0  0  0
 17  9  1  1  0  0  0
 17 11  1  0  0  0  0
 17 22  1  0  0  0  0
 18 19  1  6  0  0  0
 18 20  1  0  0  0  0
 19  3  1  0  0  0  0
 20 13  1  1  0  0  0
 20 21  1  0  0  0  0
 21 15  1  1  0  0  0
 21 22  1  0  0  0  0
 22  6  1  1  0  0  0
M  END
>  <CHROM.1>
166.45830686,91.09735184,170.79877887,22.20026994,11.29827397,41.22220784
-2.01360547,0.15674068,2.30970903

>  <Name>
2f4s_lig

>  <RI>
0

>  <Rbt.Current_Directory>
/home/itssahil/PROJECTS/Mol_Feturizer/New_Systems/rnas/2f4s

>  <Rbt.Executable>
rbdock ($Id: //depot/dev/client3/rdock/2013.1/src/exe/rbdock.cxx#4 $)

>  <Rbt.Library>
libRbt.so (2013.1, Build901 2013/11/27)

>  <Rbt.Parameter_File>
/export/apps/rDock/src/rDock_2013.1_src/data/scripts/dock_solv.prm

>  <Rbt.Receptor>
prm/pocket_docking_8.prm

>  <SCORE>
-6.5926

>  <SCORE.INTER>
-10.8183

>  <SCORE.INTER.CONST>
1

>  <SCORE.INTER.POLAR>
-0.720497

>  <SCORE.INTER.ROT>
3

>  <SCORE.INTER.SOLV>
16.2164

>  <SCORE.INTER.VDW>
-15.816

>  <SCORE.INTER.norm>
-0.491743

>  <SCORE.INTRA>
4.22575

>  <SCORE.INTRA.DIHEDRAL>
3.3194

>  <SCORE.INTRA.DIHEDRAL.0>
1.67653

>  <SCORE.INTRA.POLAR>
0

>  <SCORE.INTRA.POLAR.0>
0

>  <SCORE.INTRA.REPUL>
0

>  <SCORE.INTRA.REPUL.0>
0

>  <SCORE.INTRA.SOLV>
3.58703

>  <SCORE.INTRA.SOLV.lig_0>
-76.6701

>  <SCORE.INTRA.VDW>
0.772534

>  <SCORE.INTRA.VDW.0>
-1.53273

>  <SCORE.INTRA.norm>
0.192079

>  <SCORE.RESTR>
0

>  <SCORE.RESTR.CAVITY>
0

>  <SCORE.RESTR.norm>
0

>  <SCORE.SYSTEM>
0

>  <SCORE.SYSTEM.CONST>
0

>  <SCORE.SYSTEM.DIHEDRAL>
0

>  <SCORE.SYSTEM.SOLV>
0

>  <SCORE.SYSTEM.norm>
0

>  <SCORE.heavy>
22

>  <SCORE.norm>
-0.299664

>  <RMSD>
6.519

$$$$
2f4s_lig
 OpenBabel11021811433D
libRbt.so/2013.1/901 2013/11/27
 22 23  0  0  0  0  0  0  0  0999 V2000
   19.0820   12.6047   42.0670 N   0  0  0  0  0  0  0  0  0  0  0  0
   17.7359   15.0639   37.9057 N   0  0  0  0  0  0  0  0  0  0  0  0
   18.7247   17.8552   37.5738 N   0  0  0  0  0  0  0  0  0  0  0  0
   21.1851   11.4494   37.7370 O   0  0  0  0  0  0  0  0  0  0  0  0
   20.6191   12.5459   38.5116 C   0  0  2  0  0  0  0  0  0  0  0  0
   20.1791   12.8581   33.6406 N   0  0  0  0  0  0  0  0  0  0  0  0
   21.1981   11.4142   40.6200 O   0  0  0  0  0  0  0  0  0  0  0  0
   20.1276   12.0255   39.8904 C   0  0  1  0  0  0  0  0  0  0  0  0
   19.8966   13.7599   36.5083 O   0  0  0  0  0  0  0  0  0  0  0  0
   19.5560   13.1549   40.7388 C   0  0  1  0  0  0  0  0  0  0  0  0
   18.7002   15.5983   35.7777 O   0  0  0  0  0  0  0  0  0  0  0  0
   18.3697   13.8362   39.9763 C   0  0  0  0  0  0  0  0  0  0  0  0
   21.5663   17.4968   34.4866 O   0  0  0  0  0  0  0  0  0  0  0  0
   18.9085   14.3873   38.6004 C   0  0  1  0  0  0  0  0  0  0  0  0
   21.5479   15.2269   32.7669 O   0  0  0  0  0  0  0  0  0  0  0  0
   19.4223   13.2233   37.7338 C   0  0  2  0  0  0  0  0  0  0  0  0
   19.0371   14.1772   35.4625 C   0  0  1  0  0  0  0  0  0  0  0  0
   19.8410   16.5560   35.8279 C   0  0  2  0  0  0  0  0  0  0  0  0
   19.2938   17.9399   36.1906 C   0  0  0  0  0  0  0  0  0  0  0  0
   20.4834   16.5976   34.4594 C   0  0  2  0  0  0  0  0  0  0  0  0
   20.9462   15.1958   34.0663 C   0  0  1  0  0  0  0  0  0  0  0  0
   19.7313   14.2356   34.0569 C   0  0  1  0  0  0  0  0  0  0  0  0
  5  4  1  6  0  0  0
  5  8  1  0  0  0  0
  5 16  1  0  0  0  0
  8  7  1  1  0  0  0
  8 10  1  0  0  0  0
 10  1  1  1  0  0  0
 10 12  1  0  0  0  0
 11 18  1  0  0  0  0
 12 14  1  0  0  0  0
 14  2  1  6  0  0  0
 14 16  1  0  0  0  0
 16  9  1  6  0  0  0
 17  9  1  1  0  0  0
 17 11  1  0  0  0  0
 17 22  1  0  0  0  0
 18 19  1  6  0  0  0
 18 20  1  0  0  0  0
 19  3  1  0  0  0  0
 20 13  1  1  0  0  0
 20 21  1  0  0  0  0
 21 15  1  6  0  0  0
 21 22  1  0  0  0  0
 22  6  1  1  0  0  0
M  END
>  <CHROM.1>
166.24596608,87.13024357,64.34538244,19.85665374,14.41508806,37.00287014
1.76524013,-1.10611431,2.28485116

>  <Name>
2f4s_lig

>  <RI>
2.26097e+07

>  <Rbt.Current_Directory>
/home/itssahil/PROJECTS/Mol_Feturizer/New_Systems/rnas/2f4s

>  <Rbt.Executable>
rbdock ($Id: //depot/dev/client3/rdock/2013.1/src/exe/rbdock.cxx#4 $)

>  <Rbt.Library>
libRbt.so (2013.1, Build901 2013/11/27)

>  <Rbt.Parameter_File>
/export/apps/rDock/src/rDock_2013.1_src/data/scripts/dock_solv.prm

>  <Rbt.Receptor>
prm/pocket_docking_7.prm

>  <SCORE>
-10.8936

>  <SCORE.INTER>
-15.3152

>  <SCORE.INTER.CONST>
1

>  <SCORE.INTER.POLAR>
-2.27689

>  <SCORE.INTER.ROT>
3

>  <SCORE.INTER.SOLV>
16.6921

>  <SCORE.INTER.VDW>
-13.7845

>  <SCORE.INTER.norm>
-0.696145

>  <SCORE.INTRA>
4.42163

>  <SCORE.INTRA.DIHEDRAL>
2.40091

>  <SCORE.INTRA.DIHEDRAL.0>
1.67653

>  <SCORE.INTRA.POLAR>
0

>  <SCORE.INTRA.POLAR.0>
0

>  <SCORE.INTRA.REPUL>
0

>  <SCORE.INTRA.REPUL.0>
0

>  <SCORE.INTRA.SOLV>
5.01798

>  <SCORE.INTRA.SOLV.lig_0>
-76.6701

>  <SCORE.INTRA.VDW>
0.712183

>  <SCORE.INTRA.VDW.0>
-1.53273

>  <SCORE.INTRA.norm>
0.200983

>  <SCORE.RESTR>
0

>  <SCORE.RESTR.CAVITY>
0

>  <SCORE.RESTR.norm>
0

>  <SCORE.SYSTEM>
0

>  <SCORE.SYSTEM.CONST>
0

>  <SCORE.SYSTEM.DIHEDRAL>
0

>  <SCORE.SYSTEM.SOLV>
0

>  <SCORE.SYSTEM.norm>
0

>  <SCORE.heavy>
22

>  <SCORE.norm>
-0.495162

>  <RMSD>
6.528

$$$$
2f4s_lig
 OpenBabel11021811433D
libRbt.so/2013.1/901 2013/11/27
 22 23  0  0  0  0  0  0  0  0999 V2000
   19.0496   12.7053   42.0597 N   0  0  0  0  0  0  0  0  0  0  0  0
   17.7829   15.2264   37.9106 N   0  0  0  0  0  0  0  0  0  0  0  0
   18.7614   17.9530   37.5244 N   0  0  0  0  0  0  0  0  0  0  0  0
   21.0748   11.4692   37.7148 O   0  0  0  0  0  0  0  0  0  0  0  0
   20.5605   12.5875   38.4945 C   0  0  2  0  0  0  0  0  0  0  0  0
   20.1531   12.9091   33.6367 N   0  0  0  0  0  0  0  0  0  0  0  0
   21.1043   11.4287   40.5976 O   0  0  0  0  0  0  0  0  0  0  0  0
   20.0561   12.0860   39.8757 C   0  0  1  0  0  0  0  0  0  0  0  0
   19.8777   13.8344   36.4976 O   0  0  0  0  0  0  0  0  0  0  0  0
   19.5382   13.2372   40.7293 C   0  0  1  0  0  0  0  0  0  0  0  0
   18.7194   15.6907   35.7510 O   0  0  0  0  0  0  0  0  0  0  0  0
   18.3770   13.9694   39.9753 C   0  0  0  0  0  0  0  0  0  0  0  0
   21.6261   17.5256   34.4585 O   0  0  0  0  0  0  0  0  0  0  0  0
   18.9301   14.4995   38.5968 C   0  0  1  0  0  0  0  0  0  0  0  0
   21.5702   15.2455   32.7531 O   0  0  0  0  0  0  0  0  0  0  0  0
   19.3888   13.3162   37.7253 C   0  0  2  0  0  0  0  0  0  0  0  0
   19.0300   14.2614   35.4461 C   0  0  1  0  0  0  0  0  0  0  0  0
   19.8782   16.6266   35.7994 C   0  0  2  0  0  0  0  0  0  0  0  0
   19.3564   18.0231   36.1513 C   0  0  0  0  0  0  0  0  0  0  0  0
   20.5262   16.6472   34.4330 C   0  0  2  0  0  0  0  0  0  0  0  0
   20.9634   15.2343   34.0505 C   0  0  1  0  0  0  0  0  0  0  0  0
   19.7303   14.2975   34.0427 C   0  0  1  0  0  0  0  0  0  0  0  0
  5  4  1  6  0  0  0
  5  8  1  0  0  0  0
  5 16  1  0  0  0  0
  8  7  1  1  0  0  0
  8 10  1  0  0  0  0
 10  1  1  1  0  0  0
 10 12  1  0  0  0  0
 11 18  1  0  0  0  0
 12 14  1  0  0  0  0
 14  2  1  6  0  0  0
 14 16  1  0  0  0  0
 16  9  1  6  0  0  0
 17  9  1  1  0  0  0
 17 11  1  0  0  0  0
 17 22  1  0  0  0  0
 18 19  1  6  0  0  0
 18 20  1  0  0  0  0
 19  3  1  0  0  0  0
 20 13  1  1  0  0  0
 20 21  1  0  0  0  0
 21 15  1  6  0  0  0
 21 22  1  0  0  0  0
 22  6  1  1  0  0  0
M  END
>  <CHROM.1>
164.77536630,87.05360179,63.47143335,19.85172009,14.48540167,36.98567175
1.79810579,-1.12459813,2.31454409

>  <Name>
2f4s_lig

>  <RI>
0

>  <Rbt.Current_Directory>
/home/itssahil/PROJECTS/Mol_Feturizer/New_Systems/rnas/2f4s

>  <Rbt.Executable>
rbdock ($Id: //depot/dev/client3/rdock/2013.1/src/exe/rbdock.cxx#4 $)

>  <Rbt.Library>
libRbt.so (2013.1, Build901 2013/11/27)

>  <Rbt.Parameter_File>
/export/apps/rDock/src/rDock_2013.1_src/data/scripts/dock_solv.prm

>  <Rbt.Receptor>
prm/pocket_docking_4.prm

>  <SCORE>
-10.921

>  <SCORE.INTER>
-15.4256

>  <SCORE.INTER.CONST>
1

>  <SCORE.INTER.POLAR>
-2.31019

>  <SCORE.INTER.ROT>
3

>  <SCORE.INTER.SOLV>
16.5421

>  <SCORE.INTER.VDW>
-13.6971

>  <SCORE.INTER.norm>
-0.701163

>  <SCORE.INTRA>
4.50456

>  <SCORE.INTRA.DIHEDRAL>
2.55099

>  <SCORE.INTRA.DIHEDRAL.0>
1.67653

>  <SCORE.INTRA.POLAR>
0

>  <SCORE.INTRA.POLAR.0>
0

>  <SCORE.INTRA.REPUL>
0

>  <SCORE.INTRA.REPUL.0>
0

>  <SCORE.INTRA.SOLV>
5.10405

>  <SCORE.INTRA.SOLV.lig_0>
-76.6701

>  <SCORE.INTRA.VDW>
0.677047

>  <SCORE.INTRA.VDW.0>
-1.53273

>  <SCORE.INTRA.norm>
0.204753

>  <SCORE.RESTR>
0

>  <SCORE.RESTR.CAVITY>
0

>  <SCORE.RESTR.norm>
0

>  <SCORE.SYSTEM>
0

>  <SCORE.SYSTEM.CONST>
0

>  <SCORE.SYSTEM.DIHEDRAL>
0

>  <SCORE.SYSTEM.SOLV>
0

>  <SCORE.SYSTEM.norm>
0

>  <SCORE.heavy>
22

>  <SCORE.norm>
-0.49641

>  <RMSD>
6.532

$$$$
2f4s_lig
 OpenBabel11021811433D
libRbt.so/2013.1/901 2013/11/27
 22 23  0  0  0  0  0  0  0  0999 V2000
   27.5950    9.3186   42.6485 N   0  0  0  0  0  0  0  0  0  0  0  0
   23.9837   12.8004   42.5443 N   0  0  0  0  0  0  0  0  0  0  0  0
   19.6741   11.1757   44.3451 N   0  0  0  0  0  0  0  0  0  0  0  0
   23.6258    8.6612   39.7641 O   0  0  0  0  0  0  0  0  0  0  0  0
   24.5166    9.6696   40.3232 C   0  0  2  0  0  0  0  0  0  0  0  0
   21.1823   12.4772   38.0131 N   0  0  0  0  0  0  0  0  0  0  0  0
   26.3539    8.0361   40.4568 O   0  0  0  0  0  0  0  0  0  0  0  0
   25.5979    8.9921   41.2095 C   0  0  1  0  0  0  0  0  0  0  0  0
   22.7706   11.3900   40.3396 O   0  0  0  0  0  0  0  0  0  0  0  0
   26.5656   10.0179   41.7866 C   0  0  1  0  0  0  0  0  0  0  0  0
   20.9263   10.1495   40.9762 O   0  0  0  0  0  0  0  0  0  0  0  0
   25.7723   11.0715   42.6313 C   0  0  0  0  0  0  0  0  0  0  0  0
   18.9967   12.9350   42.3916 O   0  0  0  0  0  0  0  0  0  0  0  0
   24.7110   11.7680   41.6956 C   0  0  1  0  0  0  0  0  0  0  0  0
   19.1308   13.6571   39.6401 O   0  0  0  0  0  0  0  0  0  0  0  0
   23.7058   10.7247   41.1747 C   0  0  2  0  0  0  0  0  0  0  0  0
   21.6246   10.7541   39.8018 C   0  0  1  0  0  0  0  0  0  0  0  0
   20.4602   11.0941   42.0304 C   0  0  2  0  0  0  0  0  0  0  0  0
   19.8022   10.2816   43.1498 C   0  0  0  0  0  0  0  0  0  0  0  0
   19.4485   12.0319   41.4106 C   0  0  2  0  0  0  0  0  0  0  0  0
   20.0868   12.7733   40.2372 C   0  0  1  0  0  0  0  0  0  0  0  0
   20.5788   11.7482   39.1860 C   0  0  1  0  0  0  0  0  0  0  0  0
  5  4  1  1  0  0  0
  5  8  1  0  0  0  0
  5 16  1  0  0  0  0
  8  7  1  6  0  0  0
  8 10  1  0  0  0  0
 10  1  1  1  0  0  0
 10 12  1  0  0  0  0
 11 18  1  0  0  0  0
 12 14  1  0  0  0  0
 14  2  1  1  0  0  0
 14 16  1  0  0  0  0
 16  9  1  6  0  0  0
 17  9  1  1  0  0  0
 17 11  1  0  0  0  0
 17 22  1  0  0  0  0
 18 19  1  1  0  0  0
 18 20  1  0  0  0  0
 19  3  1  0  0  0  0
 20 13  1  1  0  0  0
 20 21  1  0  0  0  0
 21 15  1  6  0  0  0
 21 22  1  0  0  0  0
 22  6  1  6  0  0  0
M  END
>  <CHROM.1>
69.87740978,52.98480452,165.07312146,22.56743561,10.97248506,41.15784267
0.05372344,-0.40269228,1.57281192

>  <Name>
2f4s_lig

>  <RI>
2.26097e+07

>  <Rbt.Current_Directory>
/home/itssahil/PROJECTS/Mol_Feturizer/New_Systems/rnas/2f4s

>  <Rbt.Executable>
rbdock ($Id: //depot/dev/client3/rdock/2013.1/src/exe/rbdock.cxx#4 $)

>  <Rbt.Library>
libRbt.so (2013.1, Build901 2013/11/27)

>  <Rbt.Parameter_File>
/export/apps/rDock/src/rDock_2013.1_src/data/scripts/dock_solv.prm

>  <Rbt.Receptor>
prm/pocket_docking_7.prm

>  <SCORE>
-14.8541

>  <SCORE.INTER>
-15.4914

>  <SCORE.INTER.CONST>
1

>  <SCORE.INTER.POLAR>
-0.979796

>  <SCORE.INTER.ROT>
3

>  <SCORE.INTER.SOLV>
20.1212

>  <SCORE.INTER.VDW>
-19.3687

>  <SCORE.INTER.norm>
-0.704153

>  <SCORE.INTRA>
0.637258

>  <SCORE.INTRA.DIHEDRAL>
-0.062135

>  <SCORE.INTRA.DIHEDRAL.0>
1.67653

>  <SCORE.INTRA.POLAR>
0

>  <SCORE.INTRA.POLAR.0>
0

>  <SCORE.INTRA.REPUL>
0

>  <SCORE.INTRA.REPUL.0>
0

>  <SCORE.INTRA.SOLV>
0.870242

>  <SCORE.INTRA.SOLV.lig_0>
-76.6701

>  <SCORE.INTRA.VDW>
0.233205

>  <SCORE.INTRA.VDW.0>
-1.53273

>  <SCORE.INTRA.norm>
0.0289663

>  <SCORE.RESTR>
0

>  <SCORE.RESTR.CAVITY>
0

>  <SCORE.RESTR.norm>
0

>  <SCORE.SYSTEM>
0

>  <SCORE.SYSTEM.CONST>
0

>  <SCORE.SYSTEM.DIHEDRAL>
0

>  <SCORE.SYSTEM.SOLV>
0

>  <SCORE.SYSTEM.norm>
0

>  <SCORE.heavy>
22

>  <SCORE.norm>
-0.675187

>  <RMSD>
6.551

$$$$
2f4s_lig
 OpenBabel11021811433D
libRbt.so/2013.1/901 2013/11/27
 22 23  0  0  0  0  0  0  0  0999 V2000
   17.2821   14.3295   39.0293 N   0  0  0  0  0  0  0  0  0  0  0  0
   20.4143   18.0158   37.6964 N   0  0  0  0  0  0  0  0  0  0  0  0
   21.0775   16.2904   33.2429 N   0  0  0  0  0  0  0  0  0  0  0  0
   21.7800   13.2249   37.2813 O   0  0  0  0  0  0  0  0  0  0  0  0
   21.0291   14.2060   38.0535 C   0  0  2  0  0  0  0  0  0  0  0  0
   25.4400   16.0659   38.0848 N   0  0  0  0  0  0  0  0  0  0  0  0
   19.4066   12.4873   38.7427 O   0  0  0  0  0  0  0  0  0  0  0  0
   19.5372   13.7826   38.1450 C   0  0  1  0  0  0  0  0  0  0  0  0
   22.5021   16.0490   37.3883 O   0  0  0  0  0  0  0  0  0  0  0  0
   18.7282   14.7737   38.9728 C   0  0  1  0  0  0  0  0  0  0  0  0
   23.0577   15.5527   35.1997 O   0  0  0  0  0  0  0  0  0  0  0  0
   18.8357   16.2007   38.3363 C   0  0  0  0  0  0  0  0  0  0  0  0
   24.2115   18.9133   34.2716 O   0  0  0  0  0  0  0  0  0  0  0  0
   20.3561   16.6173   38.2932 C   0  0  1  0  0  0  0  0  0  0  0  0
   26.1207   18.1662   36.2482 O   0  0  0  0  0  0  0  0  0  0  0  0
   21.1428   15.6402   37.4008 C   0  0  2  0  0  0  0  0  0  0  0  0
   23.4982   15.3990   36.6190 C   0  0  1  0  0  0  0  0  0  0  0  0
   22.9375   16.9476   34.6888 C   0  0  2  0  0  0  0  0  0  0  0  0
   22.4504   16.8898   33.2377 C   0  0  0  0  0  0  0  0  0  0  0  0
   24.3043   17.5921   34.7490 C   0  0  2  0  0  0  0  0  0  0  0  0
   24.8222   17.5649   36.1859 C   0  0  1  0  0  0  0  0  0  0  0  0
   24.9012   16.0987   36.6777 C   0  0  1  0  0  0  0  0  0  0  0  0
  5  4  1  6  0  0  0
  5  8  1  0  0  0  0
  5 16  1  0  0  0  0
  8  7  1  1  0  0  0
  8 10  1  0  0  0  0
 10  1  1  6  0  0  0
 10 12  1  0  0  0  0
 11 18  1  0  0  0  0
 12 14  1  0  0  0  0
 14  2  1  6  0  0  0
 14 16  1  0  0  0  0
 16  9  1  1  0  0  0
 17  9  1  1  0  0  0
 17 11  1  0  0  0  0
 17 22  1  0  0  0  0
 18 19  1  6  0  0  0
 18 20  1  0  0  0  0
 19  3  1  0  0  0  0
 20 13  1  1  0  0  0
 20 21  1  0  0  0  0
 21 15  1  6  0  0  0
 21 22  1  0  0  0  0
 22  6  1  1  0  0  0
M  END
>  <CHROM.1>
65.77789054,61.40491074,63.93878671,22.02101506,15.94030614,36.73583684,2.44995215
0.14350696,2.16514203

>  <Name>
2f4s_lig

>  <RI>
0

>  <Rbt.Current_Directory>
/home/itssahil/PROJECTS/Mol_Feturizer/New_Systems/rnas/2f4s

>  <Rbt.Executable>
rbdock ($Id: //depot/dev/client3/rdock/2013.1/src/exe/rbdock.cxx#4 $)

>  <Rbt.Library>
libRbt.so (2013.1, Build901 2013/11/27)

>  <Rbt.Parameter_File>
/export/apps/rDock/src/rDock_2013.1_src/data/scripts/dock_solv.prm

>  <Rbt.Receptor>
prm/pocket_docking_4.prm

>  <SCORE>
-6.90588

>  <SCORE.INTER>
-6.39925

>  <SCORE.INTER.CONST>
1

>  <SCORE.INTER.POLAR>
-0.776705

>  <SCORE.INTER.ROT>
3

>  <SCORE.INTER.SOLV>
15.3436

>  <SCORE.INTER.VDW>
-12.3917

>  <SCORE.INTER.norm>
-0.290875

>  <SCORE.INTRA>
-0.506625

>  <SCORE.INTRA.DIHEDRAL>
-1.28615

>  <SCORE.INTRA.DIHEDRAL.0>
1.67653

>  <SCORE.INTRA.POLAR>
0

>  <SCORE.INTRA.POLAR.0>
0

>  <SCORE.INTRA.REPUL>
0

>  <SCORE.INTRA.REPUL.0>
0

>  <SCORE.INTRA.SOLV>
0.00915774

>  <SCORE.INTRA.SOLV.lig_0>
-76.6701

>  <SCORE.INTRA.VDW>
0.131869

>  <SCORE.INTRA.VDW.0>
-1.53273

>  <SCORE.INTRA.norm>
-0.0230284

>  <SCORE.RESTR>
0

>  <SCORE.RESTR.CAVITY>
0

>  <SCORE.RESTR.norm>
0

>  <SCORE.SYSTEM>
0

>  <SCORE.SYSTEM.CONST>
0

>  <SCORE.SYSTEM.DIHEDRAL>
0

>  <SCORE.SYSTEM.SOLV>
0

>  <SCORE.SYSTEM.norm>
0

>  <SCORE.heavy>
22

>  <SCORE.norm>
-0.313903

>  <RMSD>
6.555

$$$$
2f4s_lig
 OpenBabel11021811433D
libRbt.so/2013.1/901 2013/11/27
 22 23  0  0  0  0  0  0  0  0999 V2000
   27.6111    9.2940   42.6200 N   0  0  0  0  0  0  0  0  0  0  0  0
   23.9934   12.7705   42.5830 N   0  0  0  0  0  0  0  0  0  0  0  0
   19.6257   11.1819   44.3437 N   0  0  0  0  0  0  0  0  0  0  0  0
   23.6236    8.6652   39.7545 O   0  0  0  0  0  0  0  0  0  0  0  0
   24.5165    9.6681   40.3200 C   0  0  2  0  0  0  0  0  0  0  0  0
   21.2021   12.4737   38.0282 N   0  0  0  0  0  0  0  0  0  0  0  0
   26.3573    8.0364   40.4211 O   0  0  0  0  0  0  0  0  0  0  0  0
   25.6048    8.9817   41.1905 C   0  0  1  0  0  0  0  0  0  0  0  0
   22.7678   11.3852   40.3693 O   0  0  0  0  0  0  0  0  0  0  0  0
   26.5748   10.0020   41.7737 C   0  0  1  0  0  0  0  0  0  0  0  0
   20.9159   10.1483   40.9903 O   0  0  0  0  0  0  0  0  0  0  0  0
   25.7855   11.0438   42.6367 C   0  0  0  0  0  0  0  0  0  0  0  0
   18.9786   12.9380   42.3868 O   0  0  0  0  0  0  0  0  0  0  0  0
   24.7167   11.7499   41.7168 C   0  0  1  0  0  0  0  0  0  0  0  0
   19.1383   13.6582   39.6362 O   0  0  0  0  0  0  0  0  0  0  0  0
   23.7097   10.7113   41.1899 C   0  0  2  0  0  0  0  0  0  0  0  0
   21.6256   10.7510   39.8217 C   0  0  1  0  0  0  0  0  0  0  0  0
   20.4420   11.0944   42.0398 C   0  0  2  0  0  0  0  0  0  0  0  0
   19.7728   10.2836   43.1538 C   0  0  0  0  0  0  0  0  0  0  0  0
   19.4375   12.0335   41.4104 C   0  0  2  0  0  0  0  0  0  0  0  0
   20.0874   12.7731   40.2423 C   0  0  1  0  0  0  0  0  0  0  0  0
   20.5869   11.7465   39.1961 C   0  0  1  0  0  0  0  0  0  0  0  0
  5  4  1  1  0  0  0
  5  8  1  0  0  0  0
  5 16  1  0  0  0  0
  8  7  1  6  0  0  0
  8 10  1  0  0  0  0
 10  1  1  1  0  0  0
 10 12  1  0  0  0  0
 11 18  1  0  0  0  0
 12 14  1  0  0  0  0
 14  2  1  1  0  0  0
 14 16  1  0  0  0  0
 16  9  1  6  0  0  0
 17  9  1  1  0  0  0
 17 11  1  0  0  0  0
 17 22  1  0  0  0  0
 18 19  1  1  0  0  0
 18 20  1  0  0  0  0
 19  3  1  0  0  0  0
 20 13  1  1  0  0  0
 20 21  1  0  0  0  0
 21 15  1  6  0  0  0
 21 22  1  0  0  0  0
 22  6  1  6  0  0  0
M  END
>  <CHROM.1>
69.30188842,54.37240106,165.51544353,22.56565919,10.96647627,41.16072335
0.04902409,-0.40212897,1.57447852

>  <Name>
2f4s_lig

>  <RI>
0

>  <Rbt.Current_Directory>
/home/itssahil/PROJECTS/Mol_Feturizer/New_Systems/rnas/2f4s

>  <Rbt.Executable>
rbdock ($Id: //depot/dev/client3/rdock/2013.1/src/exe/rbdock.cxx#4 $)

>  <Rbt.Library>
libRbt.so (2013.1, Build901 2013/11/27)

>  <Rbt.Parameter_File>
/export/apps/rDock/src/rDock_2013.1_src/data/scripts/dock_solv.prm

>  <Rbt.Receptor>
prm/pocket_docking_8.prm

>  <SCORE>
-14.903

>  <SCORE.INTER>
-15.4745

>  <SCORE.INTER.CONST>
1

>  <SCORE.INTER.POLAR>
-0.979781

>  <SCORE.INTER.ROT>
3

>  <SCORE.INTER.SOLV>
20.078

>  <SCORE.INTER.VDW>
-19.3431

>  <SCORE.INTER.norm>
-0.703386

>  <SCORE.INTRA>
0.571517

>  <SCORE.INTRA.DIHEDRAL>
-0.238263

>  <SCORE.INTRA.DIHEDRAL.0>
1.67653

>  <SCORE.INTRA.POLAR>
0

>  <SCORE.INTRA.POLAR.0>
0

>  <SCORE.INTRA.REPUL>
0

>  <SCORE.INTRA.REPUL.0>
0

>  <SCORE.INTRA.SOLV>
0.84988

>  <SCORE.INTRA.SOLV.lig_0>
-76.6701

>  <SCORE.INTRA.VDW>
0.265709

>  <SCORE.INTRA.VDW.0>
-1.53273

>  <SCORE.INTRA.norm>
0.0259781

>  <SCORE.RESTR>
0

>  <SCORE.RESTR.CAVITY>
0

>  <SCORE.RESTR.norm>
0

>  <SCORE.SYSTEM>
0

>  <SCORE.SYSTEM.CONST>
0

>  <SCORE.SYSTEM.DIHEDRAL>
0

>  <SCORE.SYSTEM.SOLV>
0

>  <SCORE.SYSTEM.norm>
0

>  <SCORE.heavy>
22

>  <SCORE.norm>
-0.677408

>  <RMSD>
6.558

$$$$
2f4s_lig
 OpenBabel11021811433D
libRbt.so/2013.1/901 2013/11/27
 22 23  0  0  0  0  0  0  0  0999 V2000
   17.4600   14.1760   39.0467 N   0  0  0  0  0  0  0  0  0  0  0  0
   20.2627   18.0648   37.5642 N   0  0  0  0  0  0  0  0  0  0  0  0
   21.4367   15.5789   32.8424 N   0  0  0  0  0  0  0  0  0  0  0  0
   21.8847   13.3728   36.9769 O   0  0  0  0  0  0  0  0  0  0  0  0
   21.1309   14.2961   37.8149 C   0  0  2  0  0  0  0  0  0  0  0  0
   25.3902   16.4355   37.6904 N   0  0  0  0  0  0  0  0  0  0  0  0
   19.6674   12.4721   38.5848 O   0  0  0  0  0  0  0  0  0  0  0  0
   19.6774   13.7802   38.0012 C   0  0  1  0  0  0  0  0  0  0  0  0
   22.4396   16.2346   37.0812 O   0  0  0  0  0  0  0  0  0  0  0  0
   18.8691   14.7093   38.8988 C   0  0  1  0  0  0  0  0  0  0  0  0
   22.9622   15.6483   34.9068 O   0  0  0  0  0  0  0  0  0  0  0  0
   18.8453   16.1480   38.2803 C   0  0  0  0  0  0  0  0  0  0  0  0
   23.9175   19.0067   33.7690 O   0  0  0  0  0  0  0  0  0  0  0  0
   20.3310   16.6581   38.1402 C   0  0  1  0  0  0  0  0  0  0  0  0
   25.9138   18.4641   35.7262 O   0  0  0  0  0  0  0  0  0  0  0  0
   21.1119   15.7425   37.1799 C   0  0  2  0  0  0  0  0  0  0  0  0
   23.4472   15.5940   36.3189 C   0  0  1  0  0  0  0  0  0  0  0  0
   22.7573   17.0056   34.3265 C   0  0  2  0  0  0  0  0  0  0  0  0
   22.2358   16.8450   32.8952 C   0  0  0  0  0  0  0  0  0  0  0  0
   24.0904   17.7197   34.3127 C   0  0  2  0  0  0  0  0  0  0  0  0
   24.6466   17.7964   35.7335 C   0  0  1  0  0  0  0  0  0  0  0  0
   24.8135   16.3648   36.2998 C   0  0  1  0  0  0  0  0  0  0  0  0
  5  4  1  6  0  0  0
  5  8  1  0  0  0  0
  5 16  1  0  0  0  0
  8  7  1  1  0  0  0
  8 10  1  0  0  0  0
 10  1  1  6  0  0  0
 10 12  1  0  0  0  0
 11 18  1  0  0  0  0
 12 14  1  0  0  0  0
 14  2  1  6  0  0  0
 14 16  1  0  0  0  0
 16  9  1  1  0  0  0
 17  9  1  1  0  0  0
 17 11  1  0  0  0  0
 17 22  1  0  0  0  0
 18 19  1  6  0  0  0
 18 20  1  0  0  0  0
 19  3  1  0  0  0  0
 20 13  1  1  0  0  0
 20 21  1  0  0  0  0
 21 15  1  6  0  0  0
 21 22  1  0  0  0  0
 22  6  1  1  0  0  0
M  END
>  <CHROM.1>
60.51692352,62.92471079,30.63440061,21.99576202,16.00109587,36.45334982,2.43341766
0.33927170,1.93295173

>  <Name>
2f4s_lig

>  <RI>
0

>  <Rbt.Current_Directory>
/home/itssahil/PROJECTS/Mol_Feturizer/New_Systems/rnas/2f4s

>  <Rbt.Executable>
rbdock ($Id: //depot/dev/client3/rdock/2013.1/src/exe/rbdock.cxx#4 $)

>  <Rbt.Library>
libRbt.so (2013.1, Build901 2013/11/27)

>  <Rbt.Parameter_File>
/export/apps/rDock/src/rDock_2013.1_src/data/scripts/dock_solv.prm

>  <Rbt.Receptor>
prm/pocket_docking_4.prm

>  <SCORE>
-6.47641

>  <SCORE.INTER>
-7.84201

>  <SCORE.INTER.CONST>
1

>  <SCORE.INTER.POLAR>
-1.17819

>  <SCORE.INTER.ROT>
3

>  <SCORE.INTER.SOLV>
15.4671

>  <SCORE.INTER.VDW>
-12.0564

>  <SCORE.INTER.norm>
-0.356455

>  <SCORE.INTRA>
1.3656

>  <SCORE.INTRA.DIHEDRAL>
1.05766

>  <SCORE.INTRA.DIHEDRAL.0>
1.67653

>  <SCORE.INTRA.POLAR>
0

>  <SCORE.INTRA.POLAR.0>
0

>  <SCORE.INTRA.REPUL>
0

>  <SCORE.INTRA.REPUL.0>
0

>  <SCORE.INTRA.SOLV>
0.196278

>  <SCORE.INTRA.SOLV.lig_0>
-76.6701

>  <SCORE.INTRA.VDW>
0.738637

>  <SCORE.INTRA.VDW.0>
-1.53273

>  <SCORE.INTRA.norm>
0.0620729

>  <SCORE.RESTR>
0

>  <SCORE.RESTR.CAVITY>
0

>  <SCORE.RESTR.norm>
0

>  <SCORE.SYSTEM>
0

>  <SCORE.SYSTEM.CONST>
0

>  <SCORE.SYSTEM.DIHEDRAL>
0

>  <SCORE.SYSTEM.SOLV>
0

>  <SCORE.SYSTEM.norm>
0

>  <SCORE.heavy>
22

>  <SCORE.norm>
-0.294382

>  <RMSD>
6.579

$$$$
2f4s_lig
 OpenBabel11021811433D
libRbt.so/2013.1/901 2013/11/27
 22 23  0  0  0  0  0  0  0  0999 V2000
   21.4519   13.5278   36.6696 N   0  0  0  0  0  0  0  0  0  0  0  0
   23.4987   11.0144   40.4997 N   0  0  0  0  0  0  0  0  0  0  0  0
   19.7979    6.6473   42.9886 N   0  0  0  0  0  0  0  0  0  0  0  0
   18.6654   12.2892   40.5694 O   0  0  0  0  0  0  0  0  0  0  0  0
   20.0112   12.6708   40.1621 C   0  0  2  0  0  0  0  0  0  0  0  0
   20.2303   12.3413   44.7390 N   0  0  0  0  0  0  0  0  0  0  0  0
   19.1230   13.9056   38.2262 O   0  0  0  0  0  0  0  0  0  0  0  0
   20.0584   12.8970   38.6258 C   0  0  1  0  0  0  0  0  0  0  0  0
   21.0598   11.4150   41.9875 O   0  0  0  0  0  0  0  0  0  0  0  0
   21.4474   13.3270   38.1701 C   0  0  1  0  0  0  0  0  0  0  0  0
   19.9727    9.4109   42.3706 O   0  0  0  0  0  0  0  0  0  0  0  0
   22.4951   12.2364   38.5773 C   0  0  0  0  0  0  0  0  0  0  0  0
   22.4881    7.9770   44.6295 O   0  0  0  0  0  0  0  0  0  0  0  0
   22.4503   12.0581   40.1436 C   0  0  1  0  0  0  0  0  0  0  0  0
   21.5609   10.2115   46.1321 O   0  0  0  0  0  0  0  0  0  0  0  0
   21.0583   11.5625   40.5757 C   0  0  2  0  0  0  0  0  0  0  0  0
   19.9713   10.8661   42.7090 C   0  0  1  0  0  0  0  0  0  0  0  0
   21.1924    8.6422   42.7480 C   0  0  2  0  0  0  0  0  0  0  0  0
   21.0084    7.1911   42.2933 C   0  0  0  0  0  0  0  0  0  0  0  0
   21.3385    8.6969   44.2523 C   0  0  2  0  0  0  0  0  0  0  0  0
   21.4312   10.1524   44.7068 C   0  0  1  0  0  0  0  0  0  0  0  0
   20.1558   10.9122   44.2663 C   0  0  1  0  0  0  0  0  0  0  0  0
  5  4  1  6  0  0  0
  5  8  1  0  0  0  0
  5 16  1  0  0  0  0
  8  7  1  1  0  0  0
  8 10  1  0  0  0  0
 10  1  1  6  0  0  0
 10 12  1  0  0  0  0
 11 18  1  0  0  0  0
 12 14  1  0  0  0  0
 14  2  1  6  0  0  0
 14 16  1  0  0  0  0
 16  9  1  1  0  0  0
 17  9  1  6  0  0  0
 17 11  1  0  0  0  0
 17 22  1  0  0  0  0
 18 19  1  1  0  0  0
 18 20  1  0  0  0  0
 19  3  1  0  0  0  0
 20 13  1  6  0  0  0
 20 21  1  0  0  0  0
 21 15  1  1  0  0  0
 21 22  1  0  0  0  0
 22  6  1  6  0  0  0
M  END
>  <CHROM.1>
68.72672957,70.74098728,-60.01213020,20.91360592,10.89663605,41.66445528
-1.66515469,-1.07134648,2.11008274

>  <Name>
2f4s_lig

>  <RI>
2.26097e+07

>  <Rbt.Current_Directory>
/home/itssahil/PROJECTS/Mol_Feturizer/New_Systems/rnas/2f4s

>  <Rbt.Executable>
rbdock ($Id: //depot/dev/client3/rdock/2013.1/src/exe/rbdock.cxx#4 $)

>  <Rbt.Library>
libRbt.so (2013.1, Build901 2013/11/27)

>  <Rbt.Parameter_File>
/export/apps/rDock/src/rDock_2013.1_src/data/scripts/dock_solv.prm

>  <Rbt.Receptor>
prm/pocket_docking_7.prm

>  <SCORE>
-14.2947

>  <SCORE.INTER>
-15.0446

>  <SCORE.INTER.CONST>
1

>  <SCORE.INTER.POLAR>
-1.72153

>  <SCORE.INTER.ROT>
3

>  <SCORE.INTER.SOLV>
16.6931

>  <SCORE.INTER.VDW>
-15.4557

>  <SCORE.INTER.norm>
-0.683846

>  <SCORE.INTRA>
0.70391

>  <SCORE.INTRA.DIHEDRAL>
-0.613613

>  <SCORE.INTRA.DIHEDRAL.0>
1.67653

>  <SCORE.INTRA.POLAR>
0

>  <SCORE.INTRA.POLAR.0>
0

>  <SCORE.INTRA.REPUL>
0

>  <SCORE.INTRA.REPUL.0>
0

>  <SCORE.INTRA.SOLV>
1.48738

>  <SCORE.INTRA.SOLV.lig_0>
-76.6701

>  <SCORE.INTRA.VDW>
0.267027

>  <SCORE.INTRA.VDW.0>
-1.53273

>  <SCORE.INTRA.norm>
0.0319959

>  <SCORE.RESTR>
0.0460109

>  <SCORE.RESTR.CAVITY>
0.0460109

>  <SCORE.RESTR.norm>
0.00209141

>  <SCORE.SYSTEM>
0

>  <SCORE.SYSTEM.CONST>
0

>  <SCORE.SYSTEM.DIHEDRAL>
0

>  <SCORE.SYSTEM.SOLV>
0

>  <SCORE.SYSTEM.norm>
0

>  <SCORE.heavy>
22

>  <SCORE.norm>
-0.649759

>  <RMSD>
6.589

$$$$
2f4s_lig
 OpenBabel11021811433D
libRbt.so/2013.1/901 2013/11/27
 22 23  0  0  0  0  0  0  0  0999 V2000
   21.4754   13.4946   36.7325 N   0  0  0  0  0  0  0  0  0  0  0  0
   23.3881   10.6654   40.4085 N   0  0  0  0  0  0  0  0  0  0  0  0
   20.7055    6.8386   41.2601 N   0  0  0  0  0  0  0  0  0  0  0  0
   18.6689   12.2993   40.6315 O   0  0  0  0  0  0  0  0  0  0  0  0
   20.0329   12.5953   40.2136 C   0  0  2  0  0  0  0  0  0  0  0  0
   20.2036   12.4901   44.5606 N   0  0  0  0  0  0  0  0  0  0  0  0
   19.2093   13.9787   38.3510 O   0  0  0  0  0  0  0  0  0  0  0  0
   20.0711   12.8853   38.6878 C   0  0  1  0  0  0  0  0  0  0  0  0
   21.0129   11.1836   41.9615 O   0  0  0  0  0  0  0  0  0  0  0  0
   21.4811   13.2283   38.2227 C   0  0  1  0  0  0  0  0  0  0  0  0
   19.7362    9.3414   42.5283 O   0  0  0  0  0  0  0  0  0  0  0  0
   22.4487   12.0443   38.5612 C   0  0  0  0  0  0  0  0  0  0  0  0
   22.0511    7.9589   45.0215 O   0  0  0  0  0  0  0  0  0  0  0  0
   22.4170   11.8006   40.1190 C   0  0  1  0  0  0  0  0  0  0  0  0
   21.2967   10.4248   46.2301 O   0  0  0  0  0  0  0  0  0  0  0  0
   20.9986   11.3934   40.5578 C   0  0  2  0  0  0  0  0  0  0  0  0
   19.8607   10.8202   42.7011 C   0  0  1  0  0  0  0  0  0  0  0  0
   20.8699    8.5159   43.0325 C   0  0  2  0  0  0  0  0  0  0  0  0
   20.5643    7.0443   42.7373 C   0  0  0  0  0  0  0  0  0  0  0  0
   20.9827    8.7299   44.5255 C   0  0  2  0  0  0  0  0  0  0  0  0
   21.1978   10.2141   44.8168 C   0  0  1  0  0  0  0  0  0  0  0  0
   20.0094   11.0284   44.2489 C   0  0  1  0  0  0  0  0  0  0  0  0
  5  4  1  6  0  0  0
  5  8  1  0  0  0  0
  5 16  1  0  0  0  0
  8  7  1  1  0  0  0
  8 10  1  0  0  0  0
 10  1  1  6  0  0  0
 10 12  1  0  0  0  0
 11 18  1  0  0  0  0
 12 14  1  0  0  0  0
 14  2  1  6  0  0  0
 14 16  1  0  0  0  0
 16  9  1  1  0  0  0
 17  9  1  6  0  0  0
 17 11  1  0  0  0  0
 17 22  1  0  0  0  0
 18 19  1  1  0  0  0
 18 20  1  0  0  0  0
 19  3  1  0  0  0  0
 20 13  1  6  0  0  0
 20 21  1  0  0  0  0
 21 15  1  1  0  0  0
 21 22  1  0  0  0  0
 22  6  1  6  0  0  0
M  END
>  <CHROM.1>
61.99992401,82.06598642,71.87274012,20.83103605,10.85419064,41.67027178,-1.62767774
-1.18164751,2.11305405

>  <Name>
2f4s_lig

>  <RI>
2.26097e+07

>  <Rbt.Current_Directory>
/home/itssahil/PROJECTS/Mol_Feturizer/New_Systems/rnas/2f4s

>  <Rbt.Executable>
rbdock ($Id: //depot/dev/client3/rdock/2013.1/src/exe/rbdock.cxx#4 $)

>  <Rbt.Library>
libRbt.so (2013.1, Build901 2013/11/27)

>  <Rbt.Parameter_File>
/export/apps/rDock/src/rDock_2013.1_src/data/scripts/dock_solv.prm

>  <Rbt.Receptor>
prm/pocket_docking_7.prm

>  <SCORE>
-13.595

>  <SCORE.INTER>
-14.3558

>  <SCORE.INTER.CONST>
1

>  <SCORE.INTER.POLAR>
-1.88981

>  <SCORE.INTER.ROT>
3

>  <SCORE.INTER.SOLV>
20.8625

>  <SCORE.INTER.VDW>
-15.8253

>  <SCORE.INTER.norm>
-0.652538

>  <SCORE.INTRA>
0.75194

>  <SCORE.INTRA.DIHEDRAL>
1.0796

>  <SCORE.INTRA.DIHEDRAL.0>
1.67653

>  <SCORE.INTRA.POLAR>
0

>  <SCORE.INTRA.POLAR.0>
0

>  <SCORE.INTRA.REPUL>
0

>  <SCORE.INTRA.REPUL.0>
0

>  <SCORE.INTRA.SOLV>
-0.216058

>  <SCORE.INTRA.SOLV.lig_0>
-76.6701

>  <SCORE.INTRA.VDW>
0.32017

>  <SCORE.INTRA.VDW.0>
-1.53273

>  <SCORE.INTRA.norm>
0.0341791

>  <SCORE.RESTR>
0.00893415

>  <SCORE.RESTR.CAVITY>
0.00893415

>  <SCORE.RESTR.norm>
0.000406098

>  <SCORE.SYSTEM>
0

>  <SCORE.SYSTEM.CONST>
0

>  <SCORE.SYSTEM.DIHEDRAL>
0

>  <SCORE.SYSTEM.SOLV>
0

>  <SCORE.SYSTEM.norm>
0

>  <SCORE.heavy>
22

>  <SCORE.norm>
-0.617953

>  <RMSD>
6.591

$$$$
2f4s_lig
 OpenBabel11021811433D
libRbt.so/2013.1/901 2013/11/27
 22 23  0  0  0  0  0  0  0  0999 V2000
   17.6307   14.0049   39.4167 N   0  0  0  0  0  0  0  0  0  0  0  0
   20.0282   18.0083   37.5726 N   0  0  0  0  0  0  0  0  0  0  0  0
   21.9163   15.6890   31.8728 N   0  0  0  0  0  0  0  0  0  0  0  0
   21.7700   13.3915   36.7715 O   0  0  0  0  0  0  0  0  0  0  0  0
   21.0939   14.2844   37.7033 C   0  0  2  0  0  0  0  0  0  0  0  0
   25.1597   16.8816   36.7411 N   0  0  0  0  0  0  0  0  0  0  0  0
   19.8320   12.4004   38.6622 O   0  0  0  0  0  0  0  0  0  0  0  0
   19.7036   13.7042   38.0829 C   0  0  1  0  0  0  0  0  0  0  0  0
   22.2022   16.2760   36.8013 O   0  0  0  0  0  0  0  0  0  0  0  0
   18.9813   14.6007   39.0811 C   0  0  1  0  0  0  0  0  0  0  0  0
   22.3298   15.5981   34.5947 O   0  0  0  0  0  0  0  0  0  0  0  0
   18.8090   16.0332   38.4718 C   0  0  0  0  0  0  0  0  0  0  0  0
   22.5595   18.9541   33.1216 O   0  0  0  0  0  0  0  0  0  0  0  0
   20.2375   16.6095   38.1338 C   0  0  1  0  0  0  0  0  0  0  0  0
   24.9779   18.8073   34.6183 O   0  0  0  0  0  0  0  0  0  0  0  0
   20.9236   15.7248   37.0771 C   0  0  2  0  0  0  0  0  0  0  0  0
   23.1041   15.7088   35.8677 C   0  0  1  0  0  0  0  0  0  0  0  0
   21.8251   16.8731   34.0110 C   0  0  2  0  0  0  0  0  0  0  0  0
   21.0407   16.5437   32.7373 C   0  0  0  0  0  0  0  0  0  0  0  0
   23.0160   17.7420   33.6734 C   0  0  2  0  0  0  0  0  0  0  0  0
   23.8433   17.9918   34.9331 C   0  0  1  0  0  0  0  0  0  0  0  0
   24.3182   16.6376   35.5149 C   0  0  1  0  0  0  0  0  0  0  0  0
  5  4  1  6  0  0  0
  5  8  1  0  0  0  0
  5 16  1  0  0  0  0
  8  7  1  1  0  0  0
  8 10  1  0  0  0  0
 10  1  1  6  0  0  0
 10 12  1  0  0  0  0
 11 18  1  0  0  0  0
 12 14  1  0  0  0  0
 14  2  1  6  0  0  0
 14 16  1  0  0  0  0
 16  9  1  1  0  0  0
 17  9  1  1  0  0  0
 17 11  1  0  0  0  0
 17 22  1  0  0  0  0
 18 19  1  6  0  0  0
 18 20  1  0  0  0  0
 19  3  1  0  0  0  0
 20 13  1  1  0  0  0
 20 21  1  0  0  0  0
 21 15  1  6  0  0  0
 21 22  1  0  0  0  0
 22  6  1  1  0  0  0
M  END
>  <CHROM.1>
63.29965196,54.22791466,-52.09783225,21.62724044,16.01774520,36.13398441
2.34382137,0.59843960,1.69693136

>  <Name>
2f4s_lig

>  <RI>
2.00194e+07

>  <Rbt.Current_Directory>
/home/itssahil/PROJECTS/Mol_Feturizer/New_Systems/rnas/2f4s

>  <Rbt.Executable>
rbdock ($Id: //depot/dev/client3/rdock/2013.1/src/exe/rbdock.cxx#4 $)

>  <Rbt.Library>
libRbt.so (2013.1, Build901 2013/11/27)

>  <Rbt.Parameter_File>
/export/apps/rDock/src/rDock_2013.1_src/data/scripts/dock_solv.prm

>  <Rbt.Receptor>
prm/pocket_docking_6.prm

>  <SCORE>
-6.35957

>  <SCORE.INTER>
-6.87835

>  <SCORE.INTER.CONST>
1

>  <SCORE.INTER.POLAR>
-1.30765

>  <SCORE.INTER.ROT>
3

>  <SCORE.INTER.SOLV>
15.2408

>  <SCORE.INTER.VDW>
-10.907

>  <SCORE.INTER.norm>
-0.312652

>  <SCORE.INTRA>
0.518782

>  <SCORE.INTRA.DIHEDRAL>
-1.078

>  <SCORE.INTRA.DIHEDRAL.0>
1.67653

>  <SCORE.INTRA.POLAR>
0

>  <SCORE.INTRA.POLAR.0>
0

>  <SCORE.INTRA.REPUL>
0

>  <SCORE.INTRA.REPUL.0>
0

>  <SCORE.INTRA.SOLV>
1.34295

>  <SCORE.INTRA.SOLV.lig_0>
-76.6701

>  <SCORE.INTRA.VDW>
0.38631

>  <SCORE.INTRA.VDW.0>
-1.53273

>  <SCORE.INTRA.norm>
0.023581

>  <SCORE.RESTR>
0

>  <SCORE.RESTR.CAVITY>
0

>  <SCORE.RESTR.norm>
0

>  <SCORE.SYSTEM>
0

>  <SCORE.SYSTEM.CONST>
0

>  <SCORE.SYSTEM.DIHEDRAL>
0

>  <SCORE.SYSTEM.SOLV>
0

>  <SCORE.SYSTEM.norm>
0

>  <SCORE.heavy>
22

>  <SCORE.norm>
-0.289071

>  <RMSD>
6.597

$$$$
2f4s_lig
 OpenBabel11021811433D
libRbt.so/2013.1/901 2013/11/27
 22 23  0  0  0  0  0  0  0  0999 V2000
   19.1032   12.6154   42.0735 N   0  0  0  0  0  0  0  0  0  0  0  0
   17.7481   15.0889   37.9237 N   0  0  0  0  0  0  0  0  0  0  0  0
   18.1624   18.2534   35.1225 N   0  0  0  0  0  0  0  0  0  0  0  0
   21.1503   11.4317   37.7244 O   0  0  0  0  0  0  0  0  0  0  0  0
   20.6054   12.5356   38.5036 C   0  0  2  0  0  0  0  0  0  0  0  0
   20.1866   12.8331   33.6485 N   0  0  0  0  0  0  0  0  0  0  0  0
   21.1904   11.3980   40.6071 O   0  0  0  0  0  0  0  0  0  0  0  0
   20.1207   12.0221   39.8874 C   0  0  1  0  0  0  0  0  0  0  0  0
   19.8789   13.7574   36.5065 O   0  0  0  0  0  0  0  0  0  0  0  0
   19.5713   13.1590   40.7405 C   0  0  1  0  0  0  0  0  0  0  0  0
   18.6534   15.5677   35.7543 O   0  0  0  0  0  0  0  0  0  0  0  0
   18.3862   13.8545   39.9888 C   0  0  0  0  0  0  0  0  0  0  0  0
   21.4905   17.5031   34.4540 O   0  0  0  0  0  0  0  0  0  0  0  0
   18.9187   14.3982   38.6076 C   0  0  1  0  0  0  0  0  0  0  0  0
   21.5171   15.2167   32.7563 O   0  0  0  0  0  0  0  0  0  0  0  0
   19.4098   13.2274   37.7368 C   0  0  2  0  0  0  0  0  0  0  0  0
   19.0158   14.1497   35.4540 C   0  0  1  0  0  0  0  0  0  0  0  0
   19.7772   16.5454   35.7989 C   0  0  2  0  0  0  0  0  0  0  0  0
   19.2049   17.9231   36.1464 C   0  0  0  0  0  0  0  0  0  0  0  0
   20.4234   16.5851   34.4321 C   0  0  2  0  0  0  0  0  0  0  0  0
   20.9117   15.1877   34.0541 C   0  0  1  0  0  0  0  0  0  0  0  0
   19.7137   14.2066   34.0501 C   0  0  1  0  0  0  0  0  0  0  0  0
  5  4  1  6  0  0  0
  5  8  1  0  0  0  0
  5 16  1  0  0  0  0
  8  7  1  1  0  0  0
  8 10  1  0  0  0  0
 10  1  1  1  0  0  0
 10 12  1  0  0  0  0
 11 18  1  0  0  0  0
 12 14  1  0  0  0  0
 14  2  1  6  0  0  0
 14 16  1  0  0  0  0
 16  9  1  6  0  0  0
 17  9  1  1  0  0  0
 17 11  1  0  0  0  0
 17 22  1  0  0  0  0
 18 19  1  6  0  0  0
 18 20  1  0  0  0  0
 19  3  1  0  0  0  0
 20 13  1  1  0  0  0
 20 21  1  0  0  0  0
 21 15  1  6  0  0  0
 21 22  1  0  0  0  0
 22  6  1  1  0  0  0
M  END
>  <CHROM.1>
164.40719150,86.97776542,-56.72888270,19.81024427,14.42650470,36.88392806
1.65620460,-1.03076904,2.21571376

>  <Name>
2f4s_lig

>  <RI>
0

>  <Rbt.Current_Directory>
/home/itssahil/PROJECTS/Mol_Feturizer/New_Systems/rnas/2f4s

>  <Rbt.Executable>
rbdock ($Id: //depot/dev/client3/rdock/2013.1/src/exe/rbdock.cxx#4 $)

>  <Rbt.Library>
libRbt.so (2013.1, Build901 2013/11/27)

>  <Rbt.Parameter_File>
/export/apps/rDock/src/rDock_2013.1_src/data/scripts/dock_solv.prm

>  <Rbt.Receptor>
prm/pocket_docking_5.prm

>  <SCORE>
-10.8133

>  <SCORE.INTER>
-15.3619

>  <SCORE.INTER.CONST>
1

>  <SCORE.INTER.POLAR>
-2.27879

>  <SCORE.INTER.ROT>
3

>  <SCORE.INTER.SOLV>
16.7853

>  <SCORE.INTER.VDW>
-13.8404

>  <SCORE.INTER.norm>
-0.698269

>  <SCORE.INTRA>
4.54662

>  <SCORE.INTRA.DIHEDRAL>
2.58201

>  <SCORE.INTRA.DIHEDRAL.0>
1.67653

>  <SCORE.INTRA.POLAR>
0

>  <SCORE.INTRA.POLAR.0>
0

>  <SCORE.INTRA.REPUL>
0

>  <SCORE.INTRA.REPUL.0>
0

>  <SCORE.INTRA.SOLV>
4.54581

>  <SCORE.INTRA.SOLV.lig_0>
-76.6701

>  <SCORE.INTRA.VDW>
0.982708

>  <SCORE.INTRA.VDW.0>
-1.53273

>  <SCORE.INTRA.norm>
0.206664

>  <SCORE.RESTR>
0.00197631

>  <SCORE.RESTR.CAVITY>
0.00197631

>  <SCORE.RESTR.norm>
8.98321e-05

>  <SCORE.SYSTEM>
0

>  <SCORE.SYSTEM.CONST>
0

>  <SCORE.SYSTEM.DIHEDRAL>
0

>  <SCORE.SYSTEM.SOLV>
0

>  <SCORE.SYSTEM.norm>
0

>  <SCORE.heavy>
22

>  <SCORE.norm>
-0.491515

>  <RMSD>
6.603

$$$$
2f4s_lig
 OpenBabel11021811433D
libRbt.so/2013.1/901 2013/11/27
 22 23  0  0  0  0  0  0  0  0999 V2000
   19.0138   12.7225   42.0411 N   0  0  0  0  0  0  0  0  0  0  0  0
   17.7595   15.1826   37.8518 N   0  0  0  0  0  0  0  0  0  0  0  0
   18.4162   18.4058   35.0800 N   0  0  0  0  0  0  0  0  0  0  0  0
   21.1017   11.4669   37.7317 O   0  0  0  0  0  0  0  0  0  0  0  0
   20.5646   12.5866   38.4937 C   0  0  2  0  0  0  0  0  0  0  0  0
   20.1674   12.8877   33.6127 N   0  0  0  0  0  0  0  0  0  0  0  0
   21.1005   11.4574   40.6149 O   0  0  0  0  0  0  0  0  0  0  0  0
   20.0518   12.0933   39.8748 C   0  0  1  0  0  0  0  0  0  0  0  0
   19.8872   13.8031   36.4764 O   0  0  0  0  0  0  0  0  0  0  0  0
   19.5098   13.2466   40.7103 C   0  0  1  0  0  0  0  0  0  0  0  0
   18.7403   15.6679   35.7333 O   0  0  0  0  0  0  0  0  0  0  0  0
   18.3475   13.9554   39.9361 C   0  0  0  0  0  0  0  0  0  0  0  0
   21.6598   17.4938   34.4573 O   0  0  0  0  0  0  0  0  0  0  0  0
   18.9085   14.4781   38.5581 C   0  0  1  0  0  0  0  0  0  0  0  0
   21.5986   15.2207   32.7429 O   0  0  0  0  0  0  0  0  0  0  0  0
   19.3918   13.2917   37.7043 C   0  0  2  0  0  0  0  0  0  0  0  0
   19.0450   14.2383   35.4238 C   0  0  1  0  0  0  0  0  0  0  0  0
   19.9033   16.5980   35.7890 C   0  0  2  0  0  0  0  0  0  0  0  0
   19.3871   17.9956   36.1447 C   0  0  0  0  0  0  0  0  0  0  0  0
   20.5558   16.6208   34.4248 C   0  0  2  0  0  0  0  0  0  0  0  0
   20.9875   15.2073   34.0382 C   0  0  1  0  0  0  0  0  0  0  0  0
   19.7500   14.2765   34.0228 C   0  0  1  0  0  0  0  0  0  0  0  0
  5  4  1  6  0  0  0
  5  8  1  0  0  0  0
  5 16  1  0  0  0  0
  8  7  1  1  0  0  0
  8 10  1  0  0  0  0
 10  1  1  1  0  0  0
 10 12  1  0  0  0  0
 11 18  1  0  0  0  0
 12 14  1  0  0  0  0
 14  2  1  6  0  0  0
 14 16  1  0  0  0  0
 16  9  1  6  0  0  0
 17  9  1  1  0  0  0
 17 11  1  0  0  0  0
 17 22  1  0  0  0  0
 18 19  1  6  0  0  0
 18 20  1  0  0  0  0
 19  3  1  0  0  0  0
 20 13  1  1  0  0  0
 20 21  1  0  0  0  0
 21 15  1  6  0  0  0
 21 22  1  0  0  0  0
 22  6  1  1  0  0  0
M  END
>  <CHROM.1>
166.36516764,86.57538405,-59.64634659,19.84290380,14.49090872,36.86138434
1.71666992,-1.05467713,2.26538747

>  <Name>
2f4s_lig

>  <RI>
0

>  <Rbt.Current_Directory>
/home/itssahil/PROJECTS/Mol_Feturizer/New_Systems/rnas/2f4s

>  <Rbt.Executable>
rbdock ($Id: //depot/dev/client3/rdock/2013.1/src/exe/rbdock.cxx#4 $)

>  <Rbt.Library>
libRbt.so (2013.1, Build901 2013/11/27)

>  <Rbt.Parameter_File>
/export/apps/rDock/src/rDock_2013.1_src/data/scripts/dock_solv.prm

>  <Rbt.Receptor>
prm/pocket_docking_4.prm

>  <SCORE>
-10.8387

>  <SCORE.INTER>
-15.3865

>  <SCORE.INTER.CONST>
1

>  <SCORE.INTER.POLAR>
-2.31458

>  <SCORE.INTER.ROT>
3

>  <SCORE.INTER.SOLV>
16.8817

>  <SCORE.INTER.VDW>
-13.7696

>  <SCORE.INTER.norm>
-0.699387

>  <SCORE.INTRA>
4.54783

>  <SCORE.INTRA.DIHEDRAL>
2.21665

>  <SCORE.INTRA.DIHEDRAL.0>
1.67653

>  <SCORE.INTRA.POLAR>
0

>  <SCORE.INTRA.POLAR.0>
0

>  <SCORE.INTRA.REPUL>
0

>  <SCORE.INTRA.REPUL.0>
0

>  <SCORE.INTRA.SOLV>
4.53459

>  <SCORE.INTRA.SOLV.lig_0>
-76.6701

>  <SCORE.INTRA.VDW>
1.17221

>  <SCORE.INTRA.VDW.0>
-1.53273

>  <SCORE.INTRA.norm>
0.20672

>  <SCORE.RESTR>
0

>  <SCORE.RESTR.CAVITY>
0

>  <SCORE.RESTR.norm>
0

>  <SCORE.SYSTEM>
0

>  <SCORE.SYSTEM.CONST>
0

>  <SCORE.SYSTEM.DIHEDRAL>
0

>  <SCORE.SYSTEM.SOLV>
0

>  <SCORE.SYSTEM.norm>
0

>  <SCORE.heavy>
22

>  <SCORE.norm>
-0.492668

>  <RMSD>
6.605

$$$$
2f4s_lig
 OpenBabel11021811433D
libRbt.so/2013.1/901 2013/11/27
 22 23  0  0  0  0  0  0  0  0999 V2000
   19.0942   12.6186   42.0945 N   0  0  0  0  0  0  0  0  0  0  0  0
   17.7358   15.1522   37.9821 N   0  0  0  0  0  0  0  0  0  0  0  0
   18.1113   18.2933   35.0844 N   0  0  0  0  0  0  0  0  0  0  0  0
   21.0755   11.4420   37.7131 O   0  0  0  0  0  0  0  0  0  0  0  0
   20.5569   12.5474   38.5081 C   0  0  2  0  0  0  0  0  0  0  0  0
   20.1472   12.8580   33.6788 N   0  0  0  0  0  0  0  0  0  0  0  0
   21.1455   11.3810   40.5948 O   0  0  0  0  0  0  0  0  0  0  0  0
   20.0786   12.0291   39.8923 C   0  0  1  0  0  0  0  0  0  0  0  0
   19.8295   13.7993   36.5302 O   0  0  0  0  0  0  0  0  0  0  0  0
   19.5570   13.1668   40.7615 C   0  0  1  0  0  0  0  0  0  0  0  0
   18.5884   15.5934   35.7647 O   0  0  0  0  0  0  0  0  0  0  0  0
   18.3756   13.8885   40.0290 C   0  0  0  0  0  0  0  0  0  0  0  0
   21.4090   17.5449   34.4526 O   0  0  0  0  0  0  0  0  0  0  0  0
   18.9022   14.4362   38.6471 C   0  0  1  0  0  0  0  0  0  0  0  0
   21.4570   15.2471   32.7709 O   0  0  0  0  0  0  0  0  0  0  0  0
   19.3648   13.2656   37.7606 C   0  0  2  0  0  0  0  0  0  0  0  0
   18.9636   14.1766   35.4745 C   0  0  1  0  0  0  0  0  0  0  0  0
   19.7034   16.5814   35.8032 C   0  0  2  0  0  0  0  0  0  0  0  0
   19.1187   17.9563   36.1408 C   0  0  0  0  0  0  0  0  0  0  0  0
   20.3501   16.6173   34.4365 C   0  0  2  0  0  0  0  0  0  0  0  0
   20.8511   15.2218   34.0685 C   0  0  1  0  0  0  0  0  0  0  0  0
   19.6618   14.2300   34.0706 C   0  0  1  0  0  0  0  0  0  0  0  0
  5  4  1  6  0  0  0
  5  8  1  0  0  0  0
  5 16  1  0  0  0  0
  8  7  1  1  0  0  0
  8 10  1  0  0  0  0
 10  1  1  1  0  0  0
 10 12  1  0  0  0  0
 11 18  1  0  0  0  0
 12 14  1  0  0  0  0
 14  2  1  6  0  0  0
 14 16  1  0  0  0  0
 16  9  1  6  0  0  0
 17  9  1  1  0  0  0
 17 11  1  0  0  0  0
 17 22  1  0  0  0  0
 18 19  1  6  0  0  0
 18 20  1  0  0  0  0
 19  3  1  0  0  0  0
 20 13  1  1  0  0  0
 20 21  1  0  0  0  0
 21 15  1  6  0  0  0
 21 22  1  0  0  0  0
 22  6  1  1  0  0  0
M  END
>  <CHROM.1>
162.37936025,87.39713173,-58.85470339,19.76136638,14.45303799,36.89655484
1.64447903,-1.03578250,2.21061020

>  <Name>
2f4s_lig

>  <RI>
0

>  <Rbt.Current_Directory>
/home/itssahil/PROJECTS/Mol_Feturizer/New_Systems/rnas/2f4s

>  <Rbt.Executable>
rbdock ($Id: //depot/dev/client3/rdock/2013.1/src/exe/rbdock.cxx#4 $)

>  <Rbt.Library>
libRbt.so (2013.1, Build901 2013/11/27)

>  <Rbt.Parameter_File>
/export/apps/rDock/src/rDock_2013.1_src/data/scripts/dock_solv.prm

>  <Rbt.Receptor>
prm/pocket_docking_5.prm

>  <SCORE>
-10.7254

>  <SCORE.INTER>
-15.2566

>  <SCORE.INTER.CONST>
1

>  <SCORE.INTER.POLAR>
-2.28731

>  <SCORE.INTER.ROT>
3

>  <SCORE.INTER.SOLV>
16.6294

>  <SCORE.INTER.VDW>
-13.6898

>  <SCORE.INTER.norm>
-0.693483

>  <SCORE.INTRA>
4.53086

>  <SCORE.INTRA.DIHEDRAL>
2.91173

>  <SCORE.INTRA.DIHEDRAL.0>
1.67653

>  <SCORE.INTRA.POLAR>
0

>  <SCORE.INTRA.POLAR.0>
0

>  <SCORE.INTRA.REPUL>
0

>  <SCORE.INTRA.REPUL.0>
0

>  <SCORE.INTRA.SOLV>
4.50546

>  <SCORE.INTRA.SOLV.lig_0>
-76.6701

>  <SCORE.INTRA.VDW>
0.822261

>  <SCORE.INTRA.VDW.0>
-1.53273

>  <SCORE.INTRA.norm>
0.205948

>  <SCORE.RESTR>
0.000408202

>  <SCORE.RESTR.CAVITY>
0.000408202

>  <SCORE.RESTR.norm>
1.85546e-05

>  <SCORE.SYSTEM>
0

>  <SCORE.SYSTEM.CONST>
0

>  <SCORE.SYSTEM.DIHEDRAL>
0

>  <SCORE.SYSTEM.SOLV>
0

>  <SCORE.SYSTEM.norm>
0

>  <SCORE.heavy>
22

>  <SCORE.norm>
-0.487516

>  <RMSD>
6.615

$$$$
2f4s_lig
 OpenBabel11021811433D
libRbt.so/2013.1/901 2013/11/27
 22 23  0  0  0  0  0  0  0  0999 V2000
   20.2183   12.5361   40.4354 N   0  0  0  0  0  0  0  0  0  0  0  0
   17.8928   16.6638   38.7831 N   0  0  0  0  0  0  0  0  0  0  0  0
   13.8883   13.9983   34.2730 N   0  0  0  0  0  0  0  0  0  0  0  0
   18.9909   12.9222   35.6550 O   0  0  0  0  0  0  0  0  0  0  0  0
   19.4098   13.6834   36.8246 C   0  0  2  0  0  0  0  0  0  0  0  0
   18.7939   17.3359   33.5992 N   0  0  0  0  0  0  0  0  0  0  0  0
   20.5550   11.7115   37.7529 O   0  0  0  0  0  0  0  0  0  0  0  0
   19.5933   12.7335   38.0402 C   0  0  1  0  0  0  0  0  0  0  0  0
   18.2462   15.7097   36.0837 O   0  0  0  0  0  0  0  0  0  0  0  0
   20.0607   13.4950   39.2746 C   0  0  1  0  0  0  0  0  0  0  0  0
   16.5548   14.6122   34.9524 O   0  0  0  0  0  0  0  0  0  0  0  0
   19.0214   14.6122   39.6275 C   0  0  0  0  0  0  0  0  0  0  0  0
   14.1056   17.3457   35.0746 O   0  0  0  0  0  0  0  0  0  0  0  0
   18.8867   15.5807   38.3902 C   0  0  1  0  0  0  0  0  0  0  0  0
   16.1620   18.4768   33.4614 O   0  0  0  0  0  0  0  0  0  0  0  0
   18.3529   14.8050   37.1722 C   0  0  2  0  0  0  0  0  0  0  0  0
   17.8651   15.3090   34.7795 C   0  0  1  0  0  0  0  0  0  0  0  0
   15.4393   15.4250   35.5144 C   0  0  2  0  0  0  0  0  0  0  0  0
   14.2036   14.5284   35.6383 C   0  0  0  0  0  0  0  0  0  0  0  0
   15.1569   16.5636   34.5598 C   0  0  2  0  0  0  0  0  0  0  0  0
   16.4204   17.4014   34.3716 C   0  0  1  0  0  0  0  0  0  0  0  0
   17.5544   16.5061   33.8143 C   0  0  1  0  0  0  0  0  0  0  0  0
  5  4  1  6  0  0  0
  5  8  1  0  0  0  0
  5 16  1  0  0  0  0
  8  7  1  6  0  0  0
  8 10  1  0  0  0  0
 10  1  1  1  0  0  0
 10 12  1  0  0  0  0
 11 18  1  0  0  0  0
 12 14  1  0  0  0  0
 14  2  1  1  0  0  0
 14 16  1  0  0  0  0
 16  9  1  6  0  0  0
 17  9  1  1  0  0  0
 17 11  1  0  0  0  0
 17 22  1  0  0  0  0
 18 19  1  6  0  0  0
 18 20  1  0  0  0  0
 19  3  1  0  0  0  0
 20 13  1  1  0  0  0
 20 21  1  0  0  0  0
 21 15  1  6  0  0  0
 21 22  1  0  0  0  0
 22  6  1  1  0  0  0
M  END
>  <CHROM.1>
59.07513530,55.09540298,-58.34056661,17.59260643,15.08843951,36.24647277
0.81602461,0.48228681,2.64458657

>  <Name>
2f4s_lig

>  <RI>
2.26097e+07

>  <Rbt.Current_Directory>
/home/itssahil/PROJECTS/Mol_Feturizer/New_Systems/rnas/2f4s

>  <Rbt.Executable>
rbdock ($Id: //depot/dev/client3/rdock/2013.1/src/exe/rbdock.cxx#4 $)

>  <Rbt.Library>
libRbt.so (2013.1, Build901 2013/11/27)

>  <Rbt.Parameter_File>
/export/apps/rDock/src/rDock_2013.1_src/data/scripts/dock_solv.prm

>  <Rbt.Receptor>
prm/pocket_docking_7.prm

>  <SCORE>
-10.1518

>  <SCORE.INTER>
-10.7562

>  <SCORE.INTER.CONST>
1

>  <SCORE.INTER.POLAR>
-0.979796

>  <SCORE.INTER.ROT>
3

>  <SCORE.INTER.SOLV>
13.953

>  <SCORE.INTER.VDW>
-14.1558

>  <SCORE.INTER.norm>
-0.488917

>  <SCORE.INTRA>
0.604401

>  <SCORE.INTRA.DIHEDRAL>
-1.38643

>  <SCORE.INTRA.DIHEDRAL.0>
1.67653

>  <SCORE.INTRA.POLAR>
0

>  <SCORE.INTRA.POLAR.0>
0

>  <SCORE.INTRA.REPUL>
0

>  <SCORE.INTRA.REPUL.0>
0

>  <SCORE.INTRA.SOLV>
1.36811

>  <SCORE.INTRA.SOLV.lig_0>
-76.6701

>  <SCORE.INTRA.VDW>
0.613562

>  <SCORE.INTRA.VDW.0>
-1.53273

>  <SCORE.INTRA.norm>
0.0274728

>  <SCORE.RESTR>
0

>  <SCORE.RESTR.CAVITY>
0

>  <SCORE.RESTR.norm>
0

>  <SCORE.SYSTEM>
0

>  <SCORE.SYSTEM.CONST>
0

>  <SCORE.SYSTEM.DIHEDRAL>
0

>  <SCORE.SYSTEM.SOLV>
0

>  <SCORE.SYSTEM.norm>
0

>  <SCORE.heavy>
22

>  <SCORE.norm>
-0.461444

>  <RMSD>
6.622

$$$$
2f4s_lig
 OpenBabel11021811433D
libRbt.so/2013.1/901 2013/11/27
 22 23  0  0  0  0  0  0  0  0999 V2000
   19.0953   12.6946   42.0890 N   0  0  0  0  0  0  0  0  0  0  0  0
   17.7002   15.1740   37.9560 N   0  0  0  0  0  0  0  0  0  0  0  0
   17.7625   18.1040   35.0216 N   0  0  0  0  0  0  0  0  0  0  0  0
   21.0232   11.4478   37.7032 O   0  0  0  0  0  0  0  0  0  0  0  0
   20.5176   12.5665   38.4879 C   0  0  2  0  0  0  0  0  0  0  0  0
   20.1652   12.8078   33.6732 N   0  0  0  0  0  0  0  0  0  0  0  0
   21.1253   11.4278   40.5845 O   0  0  0  0  0  0  0  0  0  0  0  0
   20.0529   12.0698   39.8847 C   0  0  1  0  0  0  0  0  0  0  0  0
   19.7726   13.7926   36.5004 O   0  0  0  0  0  0  0  0  0  0  0  0
   19.5451   13.2219   40.7432 C   0  0  1  0  0  0  0  0  0  0  0  0
   18.4542   15.5077   35.6848 O   0  0  0  0  0  0  0  0  0  0  0  0
   18.3582   13.9374   40.0136 C   0  0  0  0  0  0  0  0  0  0  0  0
   21.1906   17.5657   34.3574 O   0  0  0  0  0  0  0  0  0  0  0  0
   18.8714   14.4632   38.6182 C   0  0  1  0  0  0  0  0  0  0  0  0
   21.3673   15.2380   32.7262 O   0  0  0  0  0  0  0  0  0  0  0  0
   19.3197   13.2783   37.7435 C   0  0  2  0  0  0  0  0  0  0  0  0
   18.9005   14.1050   35.4287 C   0  0  1  0  0  0  0  0  0  0  0  0
   19.5197   16.5492   35.7124 C   0  0  2  0  0  0  0  0  0  0  0  0
   18.8656   17.9009   36.0147 C   0  0  0  0  0  0  0  0  0  0  0  0
   20.1780   16.5876   34.3514 C   0  0  2  0  0  0  0  0  0  0  0  0
   20.7498   15.2107   34.0183 C   0  0  1  0  0  0  0  0  0  0  0  0
   19.6099   14.1625   34.0306 C   0  0  1  0  0  0  0  0  0  0  0  0
  5  4  1  6  0  0  0
  5  8  1  0  0  0  0
  5 16  1  0  0  0  0
  8  7  1  1  0  0  0
  8 10  1  0  0  0  0
 10  1  1  1  0  0  0
 10 12  1  0  0  0  0
 11 18  1  0  0  0  0
 12 14  1  0  0  0  0
 14  2  1  6  0  0  0
 14 16  1  0  0  0  0
 16  9  1  6  0  0  0
 17  9  1  1  0  0  0
 17 11  1  0  0  0  0
 17 22  1  0  0  0  0
 18 19  1  6  0  0  0
 18 20  1  0  0  0  0
 19  3  1  0  0  0  0
 20 13  1  1  0  0  0
 20 21  1  0  0  0  0
 21 15  1  6  0  0  0
 21 22  1  0  0  0  0
 22  6  1  1  0  0  0
M  END
>  <CHROM.1>
159.63261406,86.60281569,-53.37665850,19.67274604,14.44249256,36.85478765
1.60095894,-1.00971893,2.15692071

>  <Name>
2f4s_lig

>  <RI>
0

>  <Rbt.Current_Directory>
/home/itssahil/PROJECTS/Mol_Feturizer/New_Systems/rnas/2f4s

>  <Rbt.Executable>
rbdock ($Id: //depot/dev/client3/rdock/2013.1/src/exe/rbdock.cxx#4 $)

>  <Rbt.Library>
libRbt.so (2013.1, Build901 2013/11/27)

>  <Rbt.Parameter_File>
/export/apps/rDock/src/rDock_2013.1_src/data/scripts/dock_solv.prm

>  <Rbt.Receptor>
prm/pocket_docking_4.prm

>  <SCORE>
-10.8168

>  <SCORE.INTER>
-15.5799

>  <SCORE.INTER.CONST>
1

>  <SCORE.INTER.POLAR>
-2.31756

>  <SCORE.INTER.ROT>
3

>  <SCORE.INTER.SOLV>
16.8499

>  <SCORE.INTER.VDW>
-13.8781

>  <SCORE.INTER.norm>
-0.708178

>  <SCORE.INTRA>
4.71556

>  <SCORE.INTRA.DIHEDRAL>
3.35373

>  <SCORE.INTRA.DIHEDRAL.0>
1.67653

>  <SCORE.INTRA.POLAR>
0

>  <SCORE.INTRA.POLAR.0>
0

>  <SCORE.INTRA.REPUL>
0

>  <SCORE.INTRA.REPUL.0>
0

>  <SCORE.INTRA.SOLV>
4.64284

>  <SCORE.INTRA.SOLV.lig_0>
-76.6701

>  <SCORE.INTRA.VDW>
0.717271

>  <SCORE.INTRA.VDW.0>
-1.53273

>  <SCORE.INTRA.norm>
0.214344

>  <SCORE.RESTR>
0.0475956

>  <SCORE.RESTR.CAVITY>
0.0475956

>  <SCORE.RESTR.norm>
0.00216344

>  <SCORE.SYSTEM>
0

>  <SCORE.SYSTEM.CONST>
0

>  <SCORE.SYSTEM.DIHEDRAL>
0

>  <SCORE.SYSTEM.SOLV>
0

>  <SCORE.SYSTEM.norm>
0

>  <SCORE.heavy>
22

>  <SCORE.norm>
-0.491671

>  <RMSD>
6.634

$$$$
2f4s_lig
 OpenBabel11021811433D
libRbt.so/2013.1/901 2013/11/27
 22 23  0  0  0  0  0  0  0  0999 V2000
   27.4719    9.1009   42.7669 N   0  0  0  0  0  0  0  0  0  0  0  0
   24.3296   12.9789   42.2538 N   0  0  0  0  0  0  0  0  0  0  0  0
   20.7635    9.2555   43.6481 N   0  0  0  0  0  0  0  0  0  0  0  0
   23.2336    8.5207   40.2754 O   0  0  0  0  0  0  0  0  0  0  0  0
   24.2859    9.4764   40.5954 C   0  0  2  0  0  0  0  0  0  0  0  0
   21.2187   12.4508   38.0435 N   0  0  0  0  0  0  0  0  0  0  0  0
   25.9083    7.6517   40.9112 O   0  0  0  0  0  0  0  0  0  0  0  0
   25.3409    8.8152   41.5245 C   0  0  1  0  0  0  0  0  0  0  0  0
   22.7766   11.3987   40.4064 O   0  0  0  0  0  0  0  0  0  0  0  0
   26.4728    9.7804   41.8548 C   0  0  1  0  0  0  0  0  0  0  0  0
   20.9369   10.1381   41.0160 O   0  0  0  0  0  0  0  0  0  0  0  0
   25.8882   11.0598   42.5435 C   0  0  0  0  0  0  0  0  0  0  0  0
   18.9449   12.9067   42.3770 O   0  0  0  0  0  0  0  0  0  0  0  0
   24.8513   11.7285   41.5612 C   0  0  1  0  0  0  0  0  0  0  0  0
   19.1217   13.6137   39.6240 O   0  0  0  0  0  0  0  0  0  0  0  0
   23.6847   10.7609   41.2915 C   0  0  2  0  0  0  0  0  0  0  0  0
   21.6494   10.7446   39.8511 C   0  0  1  0  0  0  0  0  0  0  0  0
   20.4387   11.0830   42.0552 C   0  0  2  0  0  0  0  0  0  0  0  0
   19.7703   10.2688   43.1672 C   0  0  0  0  0  0  0  0  0  0  0  0
   19.4268   12.0037   41.4105 C   0  0  2  0  0  0  0  0  0  0  0  0
   20.0776   12.7462   40.2447 C   0  0  1  0  0  0  0  0  0  0  0  0
   20.6026   11.7211   39.2094 C   0  0  1  0  0  0  0  0  0  0  0  0
  5  4  1  1  0  0  0
  5  8  1  0  0  0  0
  5 16  1  0  0  0  0
  8  7  1  6  0  0  0
  8 10  1  0  0  0  0
 10  1  1  1  0  0  0
 10 12  1  0  0  0  0
 11 18  1  0  0  0  0
 12 14  1  0  0  0  0
 14  2  1  1  0  0  0
 14 16  1  0  0  0  0
 16  9  1  6  0  0  0
 17  9  1  1  0  0  0
 17 11  1  0  0  0  0
 17 22  1  0  0  0  0
 18 19  1  1  0  0  0
 18 20  1  0  0  0  0
 19  3  1  0  0  0  0
 20 13  1  1  0  0  0
 20 21  1  0  0  0  0
 21 15  1  6  0  0  0
 21 22  1  0  0  0  0
 22  6  1  6  0  0  0
M  END
>  <CHROM.1>
57.20447408,51.25578857,54.73584006,22.56711080,10.82086781,41.20166261,0.37584625
-0.26272612,2.23313496

>  <Name>
2f4s_lig

>  <RI>
0

>  <Rbt.Current_Directory>
/home/itssahil/PROJECTS/Mol_Feturizer/New_Systems/rnas/2f4s

>  <Rbt.Executable>
rbdock ($Id: //depot/dev/client3/rdock/2013.1/src/exe/rbdock.cxx#4 $)

>  <Rbt.Library>
libRbt.so (2013.1, Build901 2013/11/27)

>  <Rbt.Parameter_File>
/export/apps/rDock/src/rDock_2013.1_src/data/scripts/dock_solv.prm

>  <Rbt.Receptor>
prm/pocket_docking_8.prm

>  <SCORE>
-14.7041

>  <SCORE.INTER>
-14.8418

>  <SCORE.INTER.CONST>
1

>  <SCORE.INTER.POLAR>
-0.980148

>  <SCORE.INTER.ROT>
3

>  <SCORE.INTER.SOLV>
19.2118

>  <SCORE.INTER.VDW>
-18.6313

>  <SCORE.INTER.norm>
-0.674625

>  <SCORE.INTRA>
0.137659

>  <SCORE.INTRA.DIHEDRAL>
-1.02302

>  <SCORE.INTRA.DIHEDRAL.0>
1.67653

>  <SCORE.INTRA.POLAR>
0

>  <SCORE.INTRA.POLAR.0>
0

>  <SCORE.INTRA.REPUL>
0

>  <SCORE.INTRA.REPUL.0>
0

>  <SCORE.INTRA.SOLV>
0.221249

>  <SCORE.INTRA.SOLV.lig_0>
-76.6701

>  <SCORE.INTRA.VDW>
0.538543

>  <SCORE.INTRA.VDW.0>
-1.53273

>  <SCORE.INTRA.norm>
0.00625723

>  <SCORE.RESTR>
4.46223e-05

>  <SCORE.RESTR.CAVITY>
4.46223e-05

>  <SCORE.RESTR.norm>
2.02829e-06

>  <SCORE.SYSTEM>
0

>  <SCORE.SYSTEM.CONST>
0

>  <SCORE.SYSTEM.DIHEDRAL>
0

>  <SCORE.SYSTEM.SOLV>
0

>  <SCORE.SYSTEM.norm>
0

>  <SCORE.heavy>
22

>  <SCORE.norm>
-0.668366

>  <RMSD>
6.645

$$$$
2f4s_lig
 OpenBabel11021811433D
libRbt.so/2013.1/901 2013/11/27
 22 23  0  0  0  0  0  0  0  0999 V2000
   18.3967   14.6994   38.0707 N   0  0  0  0  0  0  0  0  0  0  0  0
   19.2822   12.5405   42.5127 N   0  0  0  0  0  0  0  0  0  0  0  0
   23.6311    6.8697   43.0951 N   0  0  0  0  0  0  0  0  0  0  0  0
   22.1185   11.4688   38.5381 O   0  0  0  0  0  0  0  0  0  0  0  0
   20.7825   11.7978   39.0174 C   0  0  2  0  0  0  0  0  0  0  0  0
   23.7261   12.3752   40.7879 N   0  0  0  0  0  0  0  0  0  0  0  0
   20.2477   12.9183   36.8914 O   0  0  0  0  0  0  0  0  0  0  0  0
   20.2664   13.0834   38.3142 C   0  0  1  0  0  0  0  0  0  0  0  0
   21.1860   10.8009   41.2201 O   0  0  0  0  0  0  0  0  0  0  0  0
   18.8571   13.4391   38.7717 C   0  0  1  0  0  0  0  0  0  0  0  0
   22.3814    9.2843   42.4914 O   0  0  0  0  0  0  0  0  0  0  0  0
   18.8447   13.6434   40.3245 C   0  0  0  0  0  0  0  0  0  0  0  0
   24.0548    7.5950   39.6929 O   0  0  0  0  0  0  0  0  0  0  0  0
   19.3357   12.3105   41.0095 C   0  0  1  0  0  0  0  0  0  0  0  0
   25.1440   10.2210   39.5244 O   0  0  0  0  0  0  0  0  0  0  0  0
   20.7831   12.0039   40.5837 C   0  0  2  0  0  0  0  0  0  0  0  0
   22.3200   10.7149   42.0648 C   0  0  1  0  0  0  0  0  0  0  0  0
   22.5529    8.2750   41.4085 C   0  0  2  0  0  0  0  0  0  0  0  0
   22.5631    6.8816   42.0446 C   0  0  0  0  0  0  0  0  0  0  0  0
   23.8746    8.5384   40.7222 C   0  0  2  0  0  0  0  0  0  0  0  0
   23.8910    9.9620   40.1682 C   0  0  1  0  0  0  0  0  0  0  0  0
   23.6808   10.9683   41.3264 C   0  0  1  0  0  0  0  0  0  0  0  0
  5  4  1  6  0  0  0
  5  8  1  0  0  0  0
  5 16  1  0  0  0  0
  8  7  1  6  0  0  0
  8 10  1  0  0  0  0
 10  1  1  6  0  0  0
 10 12  1  0  0  0  0
 11 18  1  0  0  0  0
 12 14  1  0  0  0  0
 14  2  1  1  0  0  0
 14 16  1  0  0  0  0
 16  9  1  1  0  0  0
 17  9  1  6  0  0  0
 17 11  1  0  0  0  0
 17 22  1  0  0  0  0
 18 19  1  1  0  0  0
 18 20  1  0  0  0  0
 19  3  1  0  0  0  0
 20 13  1  6  0  0  0
 20 21  1  0  0  0  0
 21 15  1  1  0  0  0
 21 22  1  0  0  0  0
 22  6  1  6  0  0  0
M  END
>  <CHROM.1>
120.53187637,-179.12001393,-55.08313147,21.75713538,10.89996415,40.36616862
-2.38931344,-0.62061877,2.13907631

>  <Name>
2f4s_lig

>  <RI>
2.00194e+07

>  <Rbt.Current_Directory>
/home/itssahil/PROJECTS/Mol_Feturizer/New_Systems/rnas/2f4s

>  <Rbt.Executable>
rbdock ($Id: //depot/dev/client3/rdock/2013.1/src/exe/rbdock.cxx#4 $)

>  <Rbt.Library>
libRbt.so (2013.1, Build901 2013/11/27)

>  <Rbt.Parameter_File>
/export/apps/rDock/src/rDock_2013.1_src/data/scripts/dock_solv.prm

>  <Rbt.Receptor>
prm/pocket_docking_6.prm

>  <SCORE>
-11.5558

>  <SCORE.INTER>
-16.8783

>  <SCORE.INTER.CONST>
1

>  <SCORE.INTER.POLAR>
-0.944346

>  <SCORE.INTER.ROT>
3

>  <SCORE.INTER.SOLV>
17.3141

>  <SCORE.INTER.VDW>
-19.4758

>  <SCORE.INTER.norm>
-0.767198

>  <SCORE.INTRA>
4.75728

>  <SCORE.INTRA.DIHEDRAL>
5.70963

>  <SCORE.INTRA.DIHEDRAL.0>
1.67653

>  <SCORE.INTRA.POLAR>
0

>  <SCORE.INTRA.POLAR.0>
0

>  <SCORE.INTRA.REPUL>
0

>  <SCORE.INTRA.REPUL.0>
0

>  <SCORE.INTRA.SOLV>
4.5481

>  <SCORE.INTRA.SOLV.lig_0>
-76.6701

>  <SCORE.INTRA.VDW>
-0.371591

>  <SCORE.INTRA.VDW.0>
-1.53273

>  <SCORE.INTRA.norm>
0.21624

>  <SCORE.RESTR>
0.5653

>  <SCORE.RESTR.CAVITY>
0.5653

>  <SCORE.RESTR.norm>
0.0256955

>  <SCORE.SYSTEM>
0

>  <SCORE.SYSTEM.CONST>
0

>  <SCORE.SYSTEM.DIHEDRAL>
0

>  <SCORE.SYSTEM.SOLV>
0

>  <SCORE.SYSTEM.norm>
0

>  <SCORE.heavy>
22

>  <SCORE.norm>
-0.525262

>  <RMSD>
6.651

$$$$
2f4s_lig
 OpenBabel11021811433D
libRbt.so/2013.1/901 2013/11/27
 22 23  0  0  0  0  0  0  0  0999 V2000
   19.1059   12.8073   42.0491 N   0  0  0  0  0  0  0  0  0  0  0  0
   17.8171   15.6315   38.1072 N   0  0  0  0  0  0  0  0  0  0  0  0
   14.7987   14.9802   34.9267 N   0  0  0  0  0  0  0  0  0  0  0  0
   20.4990   11.4575   37.4945 O   0  0  0  0  0  0  0  0  0  0  0  0
   20.2295   12.6078   38.3471 C   0  0  2  0  0  0  0  0  0  0  0  0
   21.3508   14.4079   34.0733 N   0  0  0  0  0  0  0  0  0  0  0  0
   20.8031   11.3080   40.3578 O   0  0  0  0  0  0  0  0  0  0  0  0
   19.7952   12.1324   39.7609 C   0  0  1  0  0  0  0  0  0  0  0  0
   19.5419   14.0106   36.4582 O   0  0  0  0  0  0  0  0  0  0  0  0
   19.5340   13.3132   40.6881 C   0  0  1  0  0  0  0  0  0  0  0  0
   17.9822   13.0203   35.0684 O   0  0  0  0  0  0  0  0  0  0  0  0
   18.4224   14.2288   40.0724 C   0  0  0  0  0  0  0  0  0  0  0  0
   16.7770   16.1119   33.4951 O   0  0  0  0  0  0  0  0  0  0  0  0
   18.9091   14.7256   38.6570 C   0  0  1  0  0  0  0  0  0  0  0  0
   19.4814   16.0214   32.6072 O   0  0  0  0  0  0  0  0  0  0  0  0
   19.1055   13.5221   37.7174 C   0  0  2  0  0  0  0  0  0  0  0  0
   19.4444   13.2595   35.2611 C   0  0  1  0  0  0  0  0  0  0  0  0
   17.1266   14.2299   34.9083 C   0  0  2  0  0  0  0  0  0  0  0  0
   15.6720   13.7753   34.7536 C   0  0  0  0  0  0  0  0  0  0  0  0
   17.5731   14.9630   33.6632 C   0  0  2  0  0  0  0  0  0  0  0  0
   19.0498   15.3343   33.7875 C   0  0  1  0  0  0  0  0  0  0  0  0
   19.8903   14.0480   33.9802 C   0  0  1  0  0  0  0  0  0  0  0  0
  5  4  1  6  0  0  0
  5  8  1  0  0  0  0
  5 16  1  0  0  0  0
  8  7  1  1  0  0  0
  8 10  1  0  0  0  0
 10  1  1  1  0  0  0
 10 12  1  0  0  0  0
 11 18  1  0  0  0  0
 12 14  1  0  0  0  0
 14  2  1  6  0  0  0
 14 16  1  0  0  0  0
 16  9  1  6  0  0  0
 17  9  1  1  0  0  0
 17 11  1  0  0  0  0
 17 22  1  0  0  0  0
 18 19  1  6  0  0  0
 18 20  1  0  0  0  0
 19  3  1  0  0  0  0
 20 13  1  1  0  0  0
 20 21  1  0  0  0  0
 21 15  1  6  0  0  0
 21 22  1  0  0  0  0
 22  6  1  1  0  0  0
M  END
>  <CHROM.1>
82.47859298,61.62805351,166.54030708,18.77480240,13.89767040,36.61788658
1.28117776,-0.37392941,1.82053866

>  <Name>
2f4s_lig

>  <RI>
2.00194e+07

>  <Rbt.Current_Directory>
/home/itssahil/PROJECTS/Mol_Feturizer/New_Systems/rnas/2f4s

>  <Rbt.Executable>
rbdock ($Id: //depot/dev/client3/rdock/2013.1/src/exe/rbdock.cxx#4 $)

>  <Rbt.Library>
libRbt.so (2013.1, Build901 2013/11/27)

>  <Rbt.Parameter_File>
/export/apps/rDock/src/rDock_2013.1_src/data/scripts/dock_solv.prm

>  <Rbt.Receptor>
prm/pocket_docking_6.prm

>  <SCORE>
-10.3365

>  <SCORE.INTER>
-11.7333

>  <SCORE.INTER.CONST>
1

>  <SCORE.INTER.POLAR>
-1.19683

>  <SCORE.INTER.ROT>
3

>  <SCORE.INTER.SOLV>
18.6095

>  <SCORE.INTER.VDW>
-15.6359

>  <SCORE.INTER.norm>
-0.53333

>  <SCORE.INTRA>
1.39678

>  <SCORE.INTRA.DIHEDRAL>
1.31383

>  <SCORE.INTRA.DIHEDRAL.0>
1.67653

>  <SCORE.INTRA.POLAR>
0

>  <SCORE.INTRA.POLAR.0>
0

>  <SCORE.INTRA.REPUL>
0

>  <SCORE.INTRA.REPUL.0>
0

>  <SCORE.INTRA.SOLV>
1.58354

>  <SCORE.INTRA.SOLV.lig_0>
-76.6701

>  <SCORE.INTRA.VDW>
-0.0519048

>  <SCORE.INTRA.VDW.0>
-1.53273

>  <SCORE.INTRA.norm>
0.06349

>  <SCORE.RESTR>
0

>  <SCORE.RESTR.CAVITY>
0

>  <SCORE.RESTR.norm>
0

>  <SCORE.SYSTEM>
0

>  <SCORE.SYSTEM.CONST>
0

>  <SCORE.SYSTEM.DIHEDRAL>
0

>  <SCORE.SYSTEM.SOLV>
0

>  <SCORE.SYSTEM.norm>
0

>  <SCORE.heavy>
22

>  <SCORE.norm>
-0.46984

>  <RMSD>
6.660

$$$$
2f4s_lig
 OpenBabel11021811433D
libRbt.so/2013.1/901 2013/11/27
 22 23  0  0  0  0  0  0  0  0999 V2000
   19.1110   12.8093   42.0521 N   0  0  0  0  0  0  0  0  0  0  0  0
   17.7625   15.5958   38.1033 N   0  0  0  0  0  0  0  0  0  0  0  0
   14.7766   15.0851   34.9107 N   0  0  0  0  0  0  0  0  0  0  0  0
   20.5040   11.4596   37.4974 O   0  0  0  0  0  0  0  0  0  0  0  0
   20.2210   12.6097   38.3460 C   0  0  2  0  0  0  0  0  0  0  0  0
   21.3051   14.3565   34.0576 N   0  0  0  0  0  0  0  0  0  0  0  0
   20.8230   11.3278   40.3599 O   0  0  0  0  0  0  0  0  0  0  0  0
   19.8002   12.1343   39.7639 C   0  0  1  0  0  0  0  0  0  0  0  0
   19.5041   13.9933   36.4538 O   0  0  0  0  0  0  0  0  0  0  0  0
   19.5254   13.3153   40.6868 C   0  0  1  0  0  0  0  0  0  0  0  0
   17.9123   13.0439   35.0719 O   0  0  0  0  0  0  0  0  0  0  0  0
   18.3975   14.2113   40.0721 C   0  0  0  0  0  0  0  0  0  0  0  0
   16.7681   16.1676   33.5167 O   0  0  0  0  0  0  0  0  0  0  0  0
   18.8704   14.7089   38.6523 C   0  0  1  0  0  0  0  0  0  0  0  0
   19.4635   16.0175   32.6096 O   0  0  0  0  0  0  0  0  0  0  0  0
   19.0807   13.5041   37.7172 C   0  0  2  0  0  0  0  0  0  0  0  0
   19.3809   13.2486   35.2551 C   0  0  1  0  0  0  0  0  0  0  0  0
   17.0838   14.2735   34.9216 C   0  0  2  0  0  0  0  0  0  0  0  0
   15.6181   13.8531   34.7757 C   0  0  0  0  0  0  0  0  0  0  0  0
   17.5386   15.0001   33.6756 C   0  0  2  0  0  0  0  0  0  0  0  0
   19.0243   15.3367   33.7907 C   0  0  1  0  0  0  0  0  0  0  0  0
   19.8360   14.0307   33.9736 C   0  0  1  0  0  0  0  0  0  0  0  0
  5  4  1  6  0  0  0
  5  8  1  0  0  0  0
  5 16  1  0  0  0  0
  8  7  1  1  0  0  0
  8 10  1  0  0  0  0
 10  1  1  1  0  0  0
 10 12  1  0  0  0  0
 11 18  1  0  0  0  0
 12 14  1  0  0  0  0
 14  2  1  6  0  0  0
 14 16  1  0  0  0  0
 16  9  1  6  0  0  0
 17  9  1  1  0  0  0
 17 11  1  0  0  0  0
 17 22  1  0  0  0  0
 18 19  1  6  0  0  0
 18 20  1  0  0  0  0
 19  3  1  0  0  0  0
 20 13  1  1  0  0  0
 20 21  1  0  0  0  0
 21 15  1  6  0  0  0
 21 22  1  0  0  0  0
 22  6  1  1  0  0  0
M  END
>  <CHROM.1>
84.15331661,62.45021033,168.48977959,18.74784659,13.90652190,36.61934643
1.27166545,-0.38864478,1.81803625

>  <Name>
2f4s_lig

>  <RI>
2.00194e+07

>  <Rbt.Current_Directory>
/home/itssahil/PROJECTS/Mol_Feturizer/New_Systems/rnas/2f4s

>  <Rbt.Executable>
rbdock ($Id: //depot/dev/client3/rdock/2013.1/src/exe/rbdock.cxx#4 $)

>  <Rbt.Library>
libRbt.so (2013.1, Build901 2013/11/27)

>  <Rbt.Parameter_File>
/export/apps/rDock/src/rDock_2013.1_src/data/scripts/dock_solv.prm

>  <Rbt.Receptor>
prm/pocket_docking_6.prm

>  <SCORE>
-10.3283

>  <SCORE.INTER>
-11.899

>  <SCORE.INTER.CONST>
1

>  <SCORE.INTER.POLAR>
-1.20403

>  <SCORE.INTER.ROT>
3

>  <SCORE.INTER.SOLV>
18.5049

>  <SCORE.INTER.VDW>
-15.6875

>  <SCORE.INTER.norm>
-0.540862

>  <SCORE.INTRA>
1.57068

>  <SCORE.INTRA.DIHEDRAL>
1.46124

>  <SCORE.INTRA.DIHEDRAL.0>
1.67653

>  <SCORE.INTRA.POLAR>
0

>  <SCORE.INTRA.POLAR.0>
0

>  <SCORE.INTRA.REPUL>
0

>  <SCORE.INTRA.REPUL.0>
0

>  <SCORE.INTRA.SOLV>
1.7492

>  <SCORE.INTRA.SOLV.lig_0>
-76.6701

>  <SCORE.INTRA.VDW>
-0.0345451

>  <SCORE.INTRA.VDW.0>
-1.53273

>  <SCORE.INTRA.norm>
0.0713945

>  <SCORE.RESTR>
0

>  <SCORE.RESTR.CAVITY>
0

>  <SCORE.RESTR.norm>
0

>  <SCORE.SYSTEM>
0

>  <SCORE.SYSTEM.CONST>
0

>  <SCORE.SYSTEM.DIHEDRAL>
0

>  <SCORE.SYSTEM.SOLV>
0

>  <SCORE.SYSTEM.norm>
0

>  <SCORE.heavy>
22

>  <SCORE.norm>
-0.469467

>  <RMSD>
6.677

$$$$
2f4s_lig
 OpenBabel11021811433D
libRbt.so/2013.1/901 2013/11/27
 22 23  0  0  0  0  0  0  0  0999 V2000
   21.7679   12.5343   37.9791 N   0  0  0  0  0  0  0  0  0  0  0  0
   24.5076   16.5864   39.0973 N   0  0  0  0  0  0  0  0  0  0  0  0
   21.5198   17.2209   32.8608 N   0  0  0  0  0  0  0  0  0  0  0  0
   21.1347   16.7183   35.4099 O   0  0  0  0  0  0  0  0  0  0  0  0
   22.1214   15.9137   36.1185 C   0  0  2  0  0  0  0  0  0  0  0  0
   26.1077   19.3143   36.9542 N   0  0  0  0  0  0  0  0  0  0  0  0
   20.8407   13.8612   35.6619 O   0  0  0  0  0  0  0  0  0  0  0  0
   21.4505   14.6385   36.6992 C   0  0  1  0  0  0  0  0  0  0  0  0
   23.4658   17.8692   36.7327 O   0  0  0  0  0  0  0  0  0  0  0  0
   22.4628   13.7586   37.4224 C   0  0  1  0  0  0  0  0  0  0  0  0
   23.8176   17.6433   34.4589 O   0  0  0  0  0  0  0  0  0  0  0  0
   23.1381   14.5741   38.5764 C   0  0  0  0  0  0  0  0  0  0  0  0
   23.0523   21.1190   33.5535 O   0  0  0  0  0  0  0  0  0  0  0  0
   23.8422   15.8391   37.9509 C   0  0  1  0  0  0  0  0  0  0  0  0
   25.3852   21.4339   35.1561 O   0  0  0  0  0  0  0  0  0  0  0  0
   22.7936   16.7457   37.2811 C   0  0  2  0  0  0  0  0  0  0  0  0
   24.5075   17.7578   35.7793 C   0  0  1  0  0  0  0  0  0  0  0  0
   22.9623   18.7947   34.0543 C   0  0  2  0  0  0  0  0  0  0  0  0
   22.3281   18.4717   32.6980 C   0  0  0  0  0  0  0  0  0  0  0  0
   23.8432   20.0181   33.9336 C   0  0  2  0  0  0  0  0  0  0  0  0
   24.5422   20.2812   35.2663 C   0  0  1  0  0  0  0  0  0  0  0  0
   25.3929   19.0468   35.6546 C   0  0  1  0  0  0  0  0  0  0  0  0
  5  4  1  1  0  0  0
  5  8  1  0  0  0  0
  5 16  1  0  0  0  0
  8  7  1  6  0  0  0
  8 10  1  0  0  0  0
 10  1  1  1  0  0  0
 10 12  1  0  0  0  0
 11 18  1  0  0  0  0
 12 14  1  0  0  0  0
 14  2  1  1  0  0  0
 14 16  1  0  0  0  0
 16  9  1  6  0  0  0
 17  9  1  1  0  0  0
 17 11  1  0  0  0  0
 17 22  1  0  0  0  0
 18 19  1  6  0  0  0
 18 20  1  0  0  0  0
 19  3  1  0  0  0  0
 20 13  1  1  0  0  0
 20 21  1  0  0  0  0
 21 15  1  6  0  0  0
 21 22  1  0  0  0  0
 22  6  1  1  0  0  0
M  END
>  <CHROM.1>
-59.03638446,84.28091996,59.39283129,23.21053036,17.31095181,35.84521152
-2.00557893,-0.77124693,-0.76942281

>  <Name>
2f4s_lig

>  <RI>
2.26097e+07

>  <Rbt.Current_Directory>
/home/itssahil/PROJECTS/Mol_Feturizer/New_Systems/rnas/2f4s

>  <Rbt.Executable>
rbdock ($Id: //depot/dev/client3/rdock/2013.1/src/exe/rbdock.cxx#4 $)

>  <Rbt.Library>
libRbt.so (2013.1, Build901 2013/11/27)

>  <Rbt.Parameter_File>
/export/apps/rDock/src/rDock_2013.1_src/data/scripts/dock_solv.prm

>  <Rbt.Receptor>
prm/pocket_docking_7.prm

>  <SCORE>
-7.03808

>  <SCORE.INTER>
-9.3524

>  <SCORE.INTER.CONST>
1

>  <SCORE.INTER.POLAR>
-1.38349

>  <SCORE.INTER.ROT>
3

>  <SCORE.INTER.SOLV>
11.949

>  <SCORE.INTER.VDW>
-11.2063

>  <SCORE.INTER.norm>
-0.425109

>  <SCORE.INTRA>
2.31432

>  <SCORE.INTRA.DIHEDRAL>
0.944372

>  <SCORE.INTRA.DIHEDRAL.0>
1.67653

>  <SCORE.INTRA.POLAR>
0

>  <SCORE.INTRA.POLAR.0>
0

>  <SCORE.INTRA.REPUL>
0

>  <SCORE.INTRA.REPUL.0>
0

>  <SCORE.INTRA.SOLV>
3.50189

>  <SCORE.INTRA.SOLV.lig_0>
-76.6701

>  <SCORE.INTRA.VDW>
0.0911874

>  <SCORE.INTRA.VDW.0>
-1.53273

>  <SCORE.INTRA.norm>
0.105196

>  <SCORE.RESTR>
0

>  <SCORE.RESTR.CAVITY>
0

>  <SCORE.RESTR.norm>
0

>  <SCORE.SYSTEM>
0

>  <SCORE.SYSTEM.CONST>
0

>  <SCORE.SYSTEM.DIHEDRAL>
0

>  <SCORE.SYSTEM.SOLV>
0

>  <SCORE.SYSTEM.norm>
0

>  <SCORE.heavy>
22

>  <SCORE.norm>
-0.319913

>  <RMSD>
6.731

$$$$
2f4s_lig
 OpenBabel11021811433D
libRbt.so/2013.1/901 2013/11/27
 22 23  0  0  0  0  0  0  0  0999 V2000
   23.0851   14.1360   39.0504 N   0  0  0  0  0  0  0  0  0  0  0  0
   23.6796   17.6393   35.5080 N   0  0  0  0  0  0  0  0  0  0  0  0
   19.4573   19.6537   35.3771 N   0  0  0  0  0  0  0  0  0  0  0  0
   20.0806   14.1919   35.1164 O   0  0  0  0  0  0  0  0  0  0  0  0
   21.4384   14.4780   35.5606 C   0  0  2  0  0  0  0  0  0  0  0  0
   21.5287   15.2835   31.0229 N   0  0  0  0  0  0  0  0  0  0  0  0
   21.2484   12.8092   37.3608 O   0  0  0  0  0  0  0  0  0  0  0  0
   21.5771   14.1744   37.0779 C   0  0  1  0  0  0  0  0  0  0  0  0
   21.7574   16.2335   33.8799 O   0  0  0  0  0  0  0  0  0  0  0  0
   22.9958   14.4351   37.5692 C   0  0  1  0  0  0  0  0  0  0  0  0
   19.8146   17.4539   33.5948 O   0  0  0  0  0  0  0  0  0  0  0  0
   23.3827   15.9269   37.2899 C   0  0  0  0  0  0  0  0  0  0  0  0
   21.2900   20.1590   31.5969 O   0  0  0  0  0  0  0  0  0  0  0  0
   23.2697   16.1924   35.7395 C   0  0  1  0  0  0  0  0  0  0  0  0
   21.6227   17.9146   29.8758 O   0  0  0  0  0  0  0  0  0  0  0  0
   21.8162   15.9853   35.2762 C   0  0  2  0  0  0  0  0  0  0  0  0
   20.5468   16.2319   33.1443 C   0  0  1  0  0  0  0  0  0  0  0  0
   20.4870   18.7605   33.3463 C   0  0  2  0  0  0  0  0  0  0  0  0
   19.5956   19.8754   33.9019 C   0  0  0  0  0  0  0  0  0  0  0  0
   20.6538   18.9294   31.8527 C   0  0  2  0  0  0  0  0  0  0  0  0
   21.4685   17.7651   31.2919 C   0  0  1  0  0  0  0  0  0  0  0  0
   20.7429   16.4324   31.6008 C   0  0  1  0  0  0  0  0  0  0  0  0
  5  4  1  1  0  0  0
  5  8  1  0  0  0  0
  5 16  1  0  0  0  0
  8  7  1  6  0  0  0
  8 10  1  0  0  0  0
 10  1  1  1  0  0  0
 10 12  1  0  0  0  0
 11 18  1  0  0  0  0
 12 14  1  0  0  0  0
 14  2  1  1  0  0  0
 14 16  1  0  0  0  0
 16  9  1  6  0  0  0
 17  9  1  1  0  0  0
 17 11  1  0  0  0  0
 17 22  1  0  0  0  0
 18 19  1  6  0  0  0
 18 20  1  0  0  0  0
 19  3  1  0  0  0  0
 20 13  1  1  0  0  0
 20 21  1  0  0  0  0
 21 15  1  6  0  0  0
 21 22  1  0  0  0  0
 22  6  1  1  0  0  0
M  END
>  <CHROM.1>
68.11161762,70.05103064,61.53473114,21.41358877,16.57879066,34.33852450,0.02548516
-1.36093482,0.67475592

>  <Name>
2f4s_lig

>  <RI>
2.00194e+07

>  <Rbt.Current_Directory>
/home/itssahil/PROJECTS/Mol_Feturizer/New_Systems/rnas/2f4s

>  <Rbt.Executable>
rbdock ($Id: //depot/dev/client3/rdock/2013.1/src/exe/rbdock.cxx#4 $)

>  <Rbt.Library>
libRbt.so (2013.1, Build901 2013/11/27)

>  <Rbt.Parameter_File>
/export/apps/rDock/src/rDock_2013.1_src/data/scripts/dock_solv.prm

>  <Rbt.Receptor>
prm/pocket_docking_6.prm

>  <SCORE>
-10.8548

>  <SCORE.INTER>
-10.5649

>  <SCORE.INTER.CONST>
1

>  <SCORE.INTER.POLAR>
-1.72791

>  <SCORE.INTER.ROT>
3

>  <SCORE.INTER.SOLV>
12.2567

>  <SCORE.INTER.VDW>
-10.9692

>  <SCORE.INTER.norm>
-0.480224

>  <SCORE.INTRA>
-0.289823

>  <SCORE.INTRA.DIHEDRAL>
-0.71829

>  <SCORE.INTRA.DIHEDRAL.0>
1.67653

>  <SCORE.INTRA.POLAR>
0

>  <SCORE.INTRA.POLAR.0>
0

>  <SCORE.INTRA.REPUL>
0

>  <SCORE.INTRA.REPUL.0>
0

>  <SCORE.INTRA.SOLV>
-0.0669273

>  <SCORE.INTRA.SOLV.lig_0>
-76.6701

>  <SCORE.INTRA.VDW>
0.102786

>  <SCORE.INTRA.VDW.0>
-1.53273

>  <SCORE.INTRA.norm>
-0.0131738

>  <SCORE.RESTR>
0

>  <SCORE.RESTR.CAVITY>
0

>  <SCORE.RESTR.norm>
0

>  <SCORE.SYSTEM>
0

>  <SCORE.SYSTEM.CONST>
0

>  <SCORE.SYSTEM.DIHEDRAL>
0

>  <SCORE.SYSTEM.SOLV>
0

>  <SCORE.SYSTEM.norm>
0

>  <SCORE.heavy>
22

>  <SCORE.norm>
-0.493398

>  <RMSD>
6.744

$$$$
2f4s_lig
 OpenBabel11021811433D
libRbt.so/2013.1/901 2013/11/27
 22 23  0  0  0  0  0  0  0  0999 V2000
   19.2058   15.0108   34.7187 N   0  0  0  0  0  0  0  0  0  0  0  0
   22.2702   16.9433   38.1901 N   0  0  0  0  0  0  0  0  0  0  0  0
   28.8584   17.6586   38.3552 N   0  0  0  0  0  0  0  0  0  0  0  0
   23.6840   16.6608   33.4034 O   0  0  0  0  0  0  0  0  0  0  0  0
   22.9357   16.0302   34.4829 C   0  0  2  0  0  0  0  0  0  0  0  0
   23.7869   19.9550   36.1968 N   0  0  0  0  0  0  0  0  0  0  0  0
   21.3461   15.0590   32.8732 O   0  0  0  0  0  0  0  0  0  0  0  0
   21.4507   15.8469   34.0649 C   0  0  1  0  0  0  0  0  0  0  0  0
   24.3748   16.9934   36.2178 O   0  0  0  0  0  0  0  0  0  0  0  0
   20.6453   15.1617   35.1621 C   0  0  1  0  0  0  0  0  0  0  0  0
   26.1583   17.3910   37.6342 O   0  0  0  0  0  0  0  0  0  0  0  0
   20.7246   16.0073   36.4780 C   0  0  0  0  0  0  0  0  0  0  0  0
   28.4285   18.7693   35.0980 O   0  0  0  0  0  0  0  0  0  0  0  0
   22.2391   16.1422   36.8968 C   0  0  1  0  0  0  0  0  0  0  0  0
   26.3451   20.7106   35.1326 O   0  0  0  0  0  0  0  0  0  0  0  0
   23.0209   16.8930   35.8035 C   0  0  2  0  0  0  0  0  0  0  0  0
   24.8116   17.8908   37.2231 C   0  0  1  0  0  0  0  0  0  0  0  0
   27.2070   17.3603   36.5758 C   0  0  2  0  0  0  0  0  0  0  0  0
   28.4929   16.7951   37.1868 C   0  0  0  0  0  0  0  0  0  0  0  0
   27.4408   18.7771   36.1011 C   0  0  2  0  0  0  0  0  0  0  0  0
   26.1324   19.3652   35.5758 C   0  0  1  0  0  0  0  0  0  0  0  0
   25.0703   19.3480   36.7027 C   0  0  1  0  0  0  0  0  0  0  0  0
  5  4  1  6  0  0  0
  5  8  1  0  0  0  0
  5 16  1  0  0  0  0
  8  7  1  6  0  0  0
  8 10  1  0  0  0  0
 10  1  1  6  0  0  0
 10 12  1  0  0  0  0
 11 18  1  0  0  0  0
 12 14  1  0  0  0  0
 14  2  1  1  0  0  0
 14 16  1  0  0  0  0
 16  9  1  1  0  0  0
 17  9  1  6  0  0  0
 17 11  1  0  0  0  0
 17 22  1  0  0  0  0
 18 19  1  1  0  0  0
 18 20  1  0  0  0  0
 19  3  1  0  0  0  0
 20 13  1  6  0  0  0
 20 21  1  0  0  0  0
 21 15  1  1  0  0  0
 21 22  1  0  0  0  0
 22  6  1  6  0  0  0
M  END
>  <CHROM.1>
168.37384161,163.09525853,-57.21704352,24.33703406,17.31959214,35.88139161
2.99652917,-0.45871758,-1.35147468

>  <Name>
2f4s_lig

>  <RI>
2.00194e+07

>  <Rbt.Current_Directory>
/home/itssahil/PROJECTS/Mol_Feturizer/New_Systems/rnas/2f4s

>  <Rbt.Executable>
rbdock ($Id: //depot/dev/client3/rdock/2013.1/src/exe/rbdock.cxx#4 $)

>  <Rbt.Library>
libRbt.so (2013.1, Build901 2013/11/27)

>  <Rbt.Parameter_File>
/export/apps/rDock/src/rDock_2013.1_src/data/scripts/dock_solv.prm

>  <Rbt.Receptor>
prm/pocket_docking_6.prm

>  <SCORE>
-7.95742

>  <SCORE.INTER>
-10.3608

>  <SCORE.INTER.CONST>
1

>  <SCORE.INTER.POLAR>
-2.14701

>  <SCORE.INTER.ROT>
3

>  <SCORE.INTER.SOLV>
6.94501

>  <SCORE.INTER.VDW>
-7.66549

>  <SCORE.INTER.norm>
-0.470944

>  <SCORE.INTRA>
2.40334

>  <SCORE.INTRA.DIHEDRAL>
0.431707

>  <SCORE.INTRA.DIHEDRAL.0>
1.67653

>  <SCORE.INTRA.POLAR>
0

>  <SCORE.INTRA.POLAR.0>
0

>  <SCORE.INTRA.REPUL>
0

>  <SCORE.INTRA.REPUL.0>
0

>  <SCORE.INTRA.SOLV>
3.90606

>  <SCORE.INTRA.SOLV.lig_0>
-76.6701

>  <SCORE.INTRA.VDW>
0.234458

>  <SCORE.INTRA.VDW.0>
-1.53273

>  <SCORE.INTRA.norm>
0.109243

>  <SCORE.RESTR>
0

>  <SCORE.RESTR.CAVITY>
0

>  <SCORE.RESTR.norm>
0

>  <SCORE.SYSTEM>
0

>  <SCORE.SYSTEM.CONST>
0

>  <SCORE.SYSTEM.DIHEDRAL>
0

>  <SCORE.SYSTEM.SOLV>
0

>  <SCORE.SYSTEM.norm>
0

>  <SCORE.heavy>
22

>  <SCORE.norm>
-0.361701

>  <RMSD>
6.793

$$$$
2f4s_lig
 OpenBabel11021811433D
libRbt.so/2013.1/901 2013/11/27
 22 23  0  0  0  0  0  0  0  0999 V2000
   21.5186   14.1409   39.1343 N   0  0  0  0  0  0  0  0  0  0  0  0
   24.2547   17.2032   36.2513 N   0  0  0  0  0  0  0  0  0  0  0  0
   26.2993   14.7108   30.9950 N   0  0  0  0  0  0  0  0  0  0  0  0
   20.9048   14.0965   34.2222 O   0  0  0  0  0  0  0  0  0  0  0  0
   21.8864   14.2930   35.2809 C   0  0  2  0  0  0  0  0  0  0  0  0
   21.5137   18.2995   33.6093 N   0  0  0  0  0  0  0  0  0  0  0  0
   20.6069   12.8365   36.7984 O   0  0  0  0  0  0  0  0  0  0  0  0
   21.2109   14.1290   36.6703 C   0  0  1  0  0  0  0  0  0  0  0  0
   23.2286   15.8349   33.9283 O   0  0  0  0  0  0  0  0  0  0  0  0
   22.2179   14.2992   37.8011 C   0  0  1  0  0  0  0  0  0  0  0  0
   24.6966   16.6940   32.3624 O   0  0  0  0  0  0  0  0  0  0  0  0
   22.8868   15.7119   37.7008 C   0  0  0  0  0  0  0  0  0  0  0  0
   22.6286   16.0087   29.4061 O   0  0  0  0  0  0  0  0  0  0  0  0
   23.5958   15.8324   36.2972 C   0  0  1  0  0  0  0  0  0  0  0  0
   21.0353   17.9105   30.8044 O   0  0  0  0  0  0  0  0  0  0  0  0
   22.5521   15.7215   35.1709 C   0  0  2  0  0  0  0  0  0  0  0  0
   23.7062   17.0667   33.4172 C   0  0  1  0  0  0  0  0  0  0  0  0
   24.1753   15.9043   31.2111 C   0  0  2  0  0  0  0  0  0  0  0  0
   25.3417   15.6024   30.2652 C   0  0  0  0  0  0  0  0  0  0  0  0
   23.1355   16.7392   30.4977 C   0  0  2  0  0  0  0  0  0  0  0  0
   22.0193   17.1120   31.4719 C   0  0  1  0  0  0  0  0  0  0  0  0
   22.6163   17.9042   32.6610 C   0  0  1  0  0  0  0  0  0  0  0  0
  5  4  1  6  0  0  0
  5  8  1  0  0  0  0
  5 16  1  0  0  0  0
  8  7  1  6  0  0  0
  8 10  1  0  0  0  0
 10  1  1  1  0  0  0
 10 12  1  0  0  0  0
 11 18  1  0  0  0  0
 12 14  1  0  0  0  0
 14  2  1  1  0  0  0
 14 16  1  0  0  0  0
 16  9  1  6  0  0  0
 17  9  1  6  0  0  0
 17 11  1  0  0  0  0
 17 22  1  0  0  0  0
 18 19  1  6  0  0  0
 18 20  1  0  0  0  0
 19  3  1  0  0  0  0
 20 13  1  6  0  0  0
 20 21  1  0  0  0  0
 21 15  1  6  0  0  0
 21 22  1  0  0  0  0
 22  6  1  1  0  0  0
M  END
>  <CHROM.1>
167.54888517,162.53794680,65.15131906,22.79869361,15.80804744,33.86464165
-1.81976735,0.11852643,-1.23296863

>  <Name>
2f4s_lig

>  <RI>
0

>  <Rbt.Current_Directory>
/home/itssahil/PROJECTS/Mol_Feturizer/New_Systems/rnas/2f4s

>  <Rbt.Executable>
rbdock ($Id: //depot/dev/client3/rdock/2013.1/src/exe/rbdock.cxx#4 $)

>  <Rbt.Library>
libRbt.so (2013.1, Build901 2013/11/27)

>  <Rbt.Parameter_File>
/export/apps/rDock/src/rDock_2013.1_src/data/scripts/dock_solv.prm

>  <Rbt.Receptor>
prm/pocket_docking_5.prm

>  <SCORE>
-14.7467

>  <SCORE.INTER>
-16.2326

>  <SCORE.INTER.CONST>
1

>  <SCORE.INTER.POLAR>
-1.64245

>  <SCORE.INTER.ROT>
3

>  <SCORE.INTER.SOLV>
18.8415

>  <SCORE.INTER.VDW>
-17.2274

>  <SCORE.INTER.norm>
-0.737843

>  <SCORE.INTRA>
1.4858

>  <SCORE.INTRA.DIHEDRAL>
0.670776

>  <SCORE.INTRA.DIHEDRAL.0>
1.67653

>  <SCORE.INTRA.POLAR>
0

>  <SCORE.INTRA.POLAR.0>
0

>  <SCORE.INTRA.REPUL>
0

>  <SCORE.INTRA.REPUL.0>
0

>  <SCORE.INTRA.SOLV>
2.13991

>  <SCORE.INTRA.SOLV.lig_0>
-76.6701

>  <SCORE.INTRA.VDW>
0.0804589

>  <SCORE.INTRA.VDW.0>
-1.53273

>  <SCORE.INTRA.norm>
0.0675365

>  <SCORE.RESTR>
0

>  <SCORE.RESTR.CAVITY>
0

>  <SCORE.RESTR.norm>
0

>  <SCORE.SYSTEM>
0

>  <SCORE.SYSTEM.CONST>
0

>  <SCORE.SYSTEM.DIHEDRAL>
0

>  <SCORE.SYSTEM.SOLV>
0

>  <SCORE.SYSTEM.norm>
0

>  <SCORE.heavy>
22

>  <SCORE.norm>
-0.670307

>  <RMSD>
6.822

$$$$
2f4s_lig
 OpenBabel11021811433D
libRbt.so/2013.1/901 2013/11/27
 22 23  0  0  0  0  0  0  0  0999 V2000
   20.5791   12.5922   37.8159 N   0  0  0  0  0  0  0  0  0  0  0  0
   19.1688   16.6165   35.1716 N   0  0  0  0  0  0  0  0  0  0  0  0
   21.8080   15.8572   31.6772 N   0  0  0  0  0  0  0  0  0  0  0  0
   23.9116   16.0629   36.6515 O   0  0  0  0  0  0  0  0  0  0  0  0
   22.5088   15.8456   36.9799 C   0  0  2  0  0  0  0  0  0  0  0  0
   22.7171   20.5978   36.1386 N   0  0  0  0  0  0  0  0  0  0  0  0
   23.0782   13.8304   38.2746 O   0  0  0  0  0  0  0  0  0  0  0  0
   22.2469   14.3335   37.2221 C   0  0  1  0  0  0  0  0  0  0  0  0
   21.7667   17.7723   35.6586 O   0  0  0  0  0  0  0  0  0  0  0  0
   20.7929   14.0749   37.5976 C   0  0  1  0  0  0  0  0  0  0  0  0
   22.9740   17.7362   33.6873 O   0  0  0  0  0  0  0  0  0  0  0  0
   19.8547   14.5991   36.4583 C   0  0  0  0  0  0  0  0  0  0  0  0
   20.6775   19.8318   31.7328 O   0  0  0  0  0  0  0  0  0  0  0  0
   20.1164   16.1420   36.2635 C   0  0  1  0  0  0  0  0  0  0  0  0
   21.5828   21.6574   33.7223 O   0  0  0  0  0  0  0  0  0  0  0  0
   21.5729   16.3758   35.8228 C   0  0  2  0  0  0  0  0  0  0  0  0
   22.9236   18.3273   35.0586 C   0  0  1  0  0  0  0  0  0  0  0  0
   21.8198   18.0338   32.7928 C   0  0  2  0  0  0  0  0  0  0  0  0
   22.0476   17.3196   31.4570 C   0  0  0  0  0  0  0  0  0  0  0  0
   21.7642   19.5294   32.5752 C   0  0  2  0  0  0  0  0  0  0  0  0
   21.6272   20.2395   33.9208 C   0  0  1  0  0  0  0  0  0  0  0  0
   22.8335   19.8754   34.8210 C   0  0  1  0  0  0  0  0  0  0  0  0
  5  4  1  6  0  0  0
  5  8  1  0  0  0  0
  5 16  1  0  0  0  0
  8  7  1  1  0  0  0
  8 10  1  0  0  0  0
 10  1  1  6  0  0  0
 10 12  1  0  0  0  0
 11 18  1  0  0  0  0
 12 14  1  0  0  0  0
 14  2  1  6  0  0  0
 14 16  1  0  0  0  0
 16  9  1  1  0  0  0
 17  9  1  6  0  0  0
 17 11  1  0  0  0  0
 17 22  1  0  0  0  0
 18 19  1  6  0  0  0
 18 20  1  0  0  0  0
 19  3  1  0  0  0  0
 20 13  1  6  0  0  0
 20 21  1  0  0  0  0
 21 15  1  6  0  0  0
 21 22  1  0  0  0  0
 22  6  1  1  0  0  0
M  END
>  <CHROM.1>
73.48138709,58.61762735,73.63408247,21.76429709,17.16917755,35.05610240,1.65840181
1.10143917,2.40553460

>  <Name>
2f4s_lig

>  <RI>
0

>  <Rbt.Current_Directory>
/home/itssahil/PROJECTS/Mol_Feturizer/New_Systems/rnas/2f4s

>  <Rbt.Executable>
rbdock ($Id: //depot/dev/client3/rdock/2013.1/src/exe/rbdock.cxx#4 $)

>  <Rbt.Library>
libRbt.so (2013.1, Build901 2013/11/27)

>  <Rbt.Parameter_File>
/export/apps/rDock/src/rDock_2013.1_src/data/scripts/dock_solv.prm

>  <Rbt.Receptor>
prm/pocket_docking_8.prm

>  <SCORE>
-7.52628

>  <SCORE.INTER>
-7.49354

>  <SCORE.INTER.CONST>
1

>  <SCORE.INTER.POLAR>
-1.46533

>  <SCORE.INTER.ROT>
3

>  <SCORE.INTER.SOLV>
10.1329

>  <SCORE.INTER.VDW>
-9.08889

>  <SCORE.INTER.norm>
-0.340615

>  <SCORE.INTRA>
-0.0327413

>  <SCORE.INTRA.DIHEDRAL>
-0.00406197

>  <SCORE.INTRA.DIHEDRAL.0>
1.67653

>  <SCORE.INTRA.POLAR>
0

>  <SCORE.INTRA.POLAR.0>
0

>  <SCORE.INTRA.REPUL>
0

>  <SCORE.INTRA.REPUL.0>
0

>  <SCORE.INTRA.SOLV>
0.185556

>  <SCORE.INTRA.SOLV.lig_0>
-76.6701

>  <SCORE.INTRA.VDW>
-0.123489

>  <SCORE.INTRA.VDW.0>
-1.53273

>  <SCORE.INTRA.norm>
-0.00148824

>  <SCORE.RESTR>
0

>  <SCORE.RESTR.CAVITY>
0

>  <SCORE.RESTR.norm>
0

>  <SCORE.SYSTEM>
0

>  <SCORE.SYSTEM.CONST>
0

>  <SCORE.SYSTEM.DIHEDRAL>
0

>  <SCORE.SYSTEM.SOLV>
0

>  <SCORE.SYSTEM.norm>
0

>  <SCORE.heavy>
22

>  <SCORE.norm>
-0.342104

>  <RMSD>
6.834

$$$$
2f4s_lig
 OpenBabel11021811433D
libRbt.so/2013.1/901 2013/11/27
 22 23  0  0  0  0  0  0  0  0999 V2000
   18.7567   14.9055   37.9721 N   0  0  0  0  0  0  0  0  0  0  0  0
   19.0802   12.5452   42.3880 N   0  0  0  0  0  0  0  0  0  0  0  0
   19.0364   11.1824   45.8920 N   0  0  0  0  0  0  0  0  0  0  0  0
   22.1769   11.3889   38.6378 O   0  0  0  0  0  0  0  0  0  0  0  0
   20.8306   11.8028   39.0110 C   0  0  2  0  0  0  0  0  0  0  0  0
   22.5622    8.1486   41.1769 N   0  0  0  0  0  0  0  0  0  0  0  0
   20.5719   13.0278   36.8911 O   0  0  0  0  0  0  0  0  0  0  0  0
   20.4745   13.1455   38.3154 C   0  0  1  0  0  0  0  0  0  0  0  0
   20.9611   10.7084   41.2005 O   0  0  0  0  0  0  0  0  0  0  0  0
   19.0594   13.5922   38.6616 C   0  0  1  0  0  0  0  0  0  0  0  0
   21.7623   11.1511   43.3235 O   0  0  0  0  0  0  0  0  0  0  0  0
   18.9224   13.7473   40.2140 C   0  0  0  0  0  0  0  0  0  0  0  0
   19.6552    8.7229   45.0982 O   0  0  0  0  0  0  0  0  0  0  0  0
   19.2517   12.3598   40.8875 C   0  0  1  0  0  0  0  0  0  0  0  0
   21.2685    7.0227   43.4804 O   0  0  0  0  0  0  0  0  0  0  0  0
   20.7054   11.9582   40.5781 C   0  0  2  0  0  0  0  0  0  0  0  0
   22.0841   10.4735   42.0313 C   0  0  1  0  0  0  0  0  0  0  0  0
   20.5578   10.6587   44.0498 C   0  0  2  0  0  0  0  0  0  0  0  0
   20.3865   11.4941   45.3223 C   0  0  0  0  0  0  0  0  0  0  0  0
   20.7847    9.2080   44.4118 C   0  0  2  0  0  0  0  0  0  0  0  0
   21.0441    8.3967   43.1436 C   0  0  1  0  0  0  0  0  0  0  0  0
   22.2854    8.9651   42.4130 C   0  0  1  0  0  0  0  0  0  0  0  0
  5  4  1  1  0  0  0
  5  8  1  0  0  0  0
  5 16  1  0  0  0  0
  8  7  1  6  0  0  0
  8 10  1  0  0  0  0
 10  1  1  6  0  0  0
 10 12  1  0  0  0  0
 11 18  1  0  0  0  0
 12 14  1  0  0  0  0
 14  2  1  1  0  0  0
 14 16  1  0  0  0  0
 16  9  1  1  0  0  0
 17  9  1  6  0  0  0
 17 11  1  0  0  0  0
 17 22  1  0  0  0  0
 18 19  1  1  0  0  0
 18 20  1  0  0  0  0
 19  3  1  0  0  0  0
 20 13  1  6  0  0  0
 20 21  1  0  0  0  0
 21 15  1  1  0  0  0
 21 22  1  0  0  0  0
 22  6  1  6  0  0  0
M  END
>  <CHROM.1>
113.92823015,75.56187412,168.72337382,20.57006222,11.09047961,41.59735308
1.75960094,0.92123793,-1.11055805

>  <Name>
2f4s_lig

>  <RI>
2.26097e+07

>  <Rbt.Current_Directory>
/home/itssahil/PROJECTS/Mol_Feturizer/New_Systems/rnas/2f4s

>  <Rbt.Executable>
rbdock ($Id: //depot/dev/client3/rdock/2013.1/src/exe/rbdock.cxx#4 $)

>  <Rbt.Library>
libRbt.so (2013.1, Build901 2013/11/27)

>  <Rbt.Parameter_File>
/export/apps/rDock/src/rDock_2013.1_src/data/scripts/dock_solv.prm

>  <Rbt.Receptor>
prm/pocket_docking_7.prm

>  <SCORE>
-9.85145

>  <SCORE.INTER>
-15.1932

>  <SCORE.INTER.CONST>
1

>  <SCORE.INTER.POLAR>
-0.951481

>  <SCORE.INTER.ROT>
3

>  <SCORE.INTER.SOLV>
13.9685

>  <SCORE.INTER.VDW>
-17.2134

>  <SCORE.INTER.norm>
-0.690602

>  <SCORE.INTRA>
5.3418

>  <SCORE.INTRA.DIHEDRAL>
6.97076

>  <SCORE.INTRA.DIHEDRAL.0>
1.67653

>  <SCORE.INTRA.POLAR>
0

>  <SCORE.INTRA.POLAR.0>
0

>  <SCORE.INTRA.REPUL>
0

>  <SCORE.INTRA.REPUL.0>
0

>  <SCORE.INTRA.SOLV>
4.25069

>  <SCORE.INTRA.SOLV.lig_0>
-76.6701

>  <SCORE.INTRA.VDW>
-0.268922

>  <SCORE.INTRA.VDW.0>
-1.53273

>  <SCORE.INTRA.norm>
0.242809

>  <SCORE.RESTR>
0

>  <SCORE.RESTR.CAVITY>
0

>  <SCORE.RESTR.norm>
0

>  <SCORE.SYSTEM>
0

>  <SCORE.SYSTEM.CONST>
0

>  <SCORE.SYSTEM.DIHEDRAL>
0

>  <SCORE.SYSTEM.SOLV>
0

>  <SCORE.SYSTEM.norm>
0

>  <SCORE.heavy>
22

>  <SCORE.norm>
-0.447793

>  <RMSD>
6.966

$$$$
2f4s_lig
 OpenBabel11021811433D
libRbt.so/2013.1/901 2013/11/27
 22 23  0  0  0  0  0  0  0  0999 V2000
   18.7561   14.9109   38.0686 N   0  0  0  0  0  0  0  0  0  0  0  0
   19.1480   12.5521   42.4797 N   0  0  0  0  0  0  0  0  0  0  0  0
   20.7254   10.9152   46.2364 N   0  0  0  0  0  0  0  0  0  0  0  0
   21.9941   11.2039   38.5974 O   0  0  0  0  0  0  0  0  0  0  0  0
   20.6930   11.6967   39.0299 C   0  0  2  0  0  0  0  0  0  0  0  0
   22.6245    8.1542   41.2927 N   0  0  0  0  0  0  0  0  0  0  0  0
   20.4070   12.9269   36.9166 O   0  0  0  0  0  0  0  0  0  0  0  0
   20.3832   13.0553   38.3431 C   0  0  1  0  0  0  0  0  0  0  0  0
   20.8618   10.6046   41.2180 O   0  0  0  0  0  0  0  0  0  0  0  0
   19.0140   13.5848   38.7516 C   0  0  1  0  0  0  0  0  0  0  0  0
   21.3000   10.9477   43.4619 O   0  0  0  0  0  0  0  0  0  0  0  0
   18.9588   13.7533   40.3078 C   0  0  0  0  0  0  0  0  0  0  0  0
   19.1255    8.2798   44.7422 O   0  0  0  0  0  0  0  0  0  0  0  0
   19.2383   12.3515   40.9741 C   0  0  1  0  0  0  0  0  0  0  0  0
   21.0802    6.7960   43.2973 O   0  0  0  0  0  0  0  0  0  0  0  0
   20.6502   11.8649   40.6002 C   0  0  2  0  0  0  0  0  0  0  0  0
   21.8602   10.3815   42.1978 C   0  0  1  0  0  0  0  0  0  0  0  0
   20.0373   10.3344   43.9623 C   0  0  2  0  0  0  0  0  0  0  0  0
   19.6175   11.0682   45.2396 C   0  0  0  0  0  0  0  0  0  0  0  0
   20.3086    8.8786   44.2692 C   0  0  2  0  0  0  0  0  0  0  0  0
   20.8130    8.1738   43.0111 C   0  0  1  0  0  0  0  0  0  0  0  0
   22.1073    8.8654   42.5167 C   0  0  1  0  0  0  0  0  0  0  0  0
  5  4  1  1  0  0  0
  5  8  1  0  0  0  0
  5 16  1  0  0  0  0
  8  7  1  6  0  0  0
  8 10  1  0  0  0  0
 10  1  1  6  0  0  0
 10 12  1  0  0  0  0
 11 18  1  0  0  0  0
 12 14  1  0  0  0  0
 14  2  1  1  0  0  0
 14 16  1  0  0  0  0
 16  9  1  1  0  0  0
 17  9  1  6  0  0  0
 17 11  1  0  0  0  0
 17 22  1  0  0  0  0
 18 19  1  1  0  0  0
 18 20  1  0  0  0  0
 19  3  1  0  0  0  0
 20 13  1  6  0  0  0
 20 21  1  0  0  0  0
 21 15  1  1  0  0  0
 21 22  1  0  0  0  0
 22  6  1  6  0  0  0
M  END
>  <CHROM.1>
126.46103981,78.09421283,-59.67043835,20.45236982,10.93749594,41.61301967
1.76678602,0.98954485,-1.09262692

>  <Name>
2f4s_lig

>  <RI>
0

>  <Rbt.Current_Directory>
/home/itssahil/PROJECTS/Mol_Feturizer/New_Systems/rnas/2f4s

>  <Rbt.Executable>
rbdock ($Id: //depot/dev/client3/rdock/2013.1/src/exe/rbdock.cxx#4 $)

>  <Rbt.Library>
libRbt.so (2013.1, Build901 2013/11/27)

>  <Rbt.Parameter_File>
/export/apps/rDock/src/rDock_2013.1_src/data/scripts/dock_solv.prm

>  <Rbt.Receptor>
prm/pocket_docking_8.prm

>  <SCORE>
-12.5061

>  <SCORE.INTER>
-18.1256

>  <SCORE.INTER.CONST>
1

>  <SCORE.INTER.POLAR>
-1.8032

>  <SCORE.INTER.ROT>
3

>  <SCORE.INTER.SOLV>
16.7379

>  <SCORE.INTER.VDW>
-17.2524

>  <SCORE.INTER.norm>
-0.823892

>  <SCORE.INTRA>
5.61951

>  <SCORE.INTRA.DIHEDRAL>
6.86513

>  <SCORE.INTRA.DIHEDRAL.0>
1.67653

>  <SCORE.INTRA.POLAR>
0

>  <SCORE.INTRA.POLAR.0>
0

>  <SCORE.INTRA.REPUL>
0

>  <SCORE.INTRA.REPUL.0>
0

>  <SCORE.INTRA.SOLV>
4.62275

>  <SCORE.INTRA.SOLV.lig_0>
-76.6701

>  <SCORE.INTRA.VDW>
-0.124433

>  <SCORE.INTRA.VDW.0>
-1.53273

>  <SCORE.INTRA.norm>
0.255432

>  <SCORE.RESTR>
0

>  <SCORE.RESTR.CAVITY>
0

>  <SCORE.RESTR.norm>
0

>  <SCORE.SYSTEM>
0

>  <SCORE.SYSTEM.CONST>
0

>  <SCORE.SYSTEM.DIHEDRAL>
0

>  <SCORE.SYSTEM.SOLV>
0

>  <SCORE.SYSTEM.norm>
0

>  <SCORE.heavy>
22

>  <SCORE.norm>
-0.56846

>  <RMSD>
7.026

$$$$
2f4s_lig
 OpenBabel11021811433D
libRbt.so/2013.1/901 2013/11/27
 22 23  0  0  0  0  0  0  0  0999 V2000
   21.6812   13.1035   37.1139 N   0  0  0  0  0  0  0  0  0  0  0  0
   23.4274   10.1950   40.8109 N   0  0  0  0  0  0  0  0  0  0  0  0
   20.6354    6.5454   41.1788 N   0  0  0  0  0  0  0  0  0  0  0  0
   18.7530   11.9625   40.9389 O   0  0  0  0  0  0  0  0  0  0  0  0
   20.1342   12.2220   40.5544 C   0  0  2  0  0  0  0  0  0  0  0  0
   20.1904   11.8037   45.0226 N   0  0  0  0  0  0  0  0  0  0  0  0
   19.3934   13.6414   38.6841 O   0  0  0  0  0  0  0  0  0  0  0  0
   20.2157   12.5213   39.0321 C   0  0  1  0  0  0  0  0  0  0  0  0
   21.0331   10.7707   42.3134 O   0  0  0  0  0  0  0  0  0  0  0  0
   21.6451   12.8269   38.6018 C   0  0  1  0  0  0  0  0  0  0  0  0
   19.7820    8.8630   42.6884 O   0  0  0  0  0  0  0  0  0  0  0  0
   22.5705   11.6131   38.9533 C   0  0  0  0  0  0  0  0  0  0  0  0
   22.1049    7.2770   45.0493 O   0  0  0  0  0  0  0  0  0  0  0  0
   22.4962   11.3597   40.5080 C   0  0  1  0  0  0  0  0  0  0  0  0
   21.3065    9.6009   46.4888 O   0  0  0  0  0  0  0  0  0  0  0  0
   21.0570   10.9904   40.9113 C   0  0  2  0  0  0  0  0  0  0  0  0
   19.8828   10.3195   43.0061 C   0  0  1  0  0  0  0  0  0  0  0  0
   20.9256    8.0089   43.1168 C   0  0  2  0  0  0  0  0  0  0  0  0
   20.6441    6.5690   42.6767 C   0  0  0  0  0  0  0  0  0  0  0  0
   21.0274    8.0771   44.6242 C   0  0  2  0  0  0  0  0  0  0  0  0
   21.2182    9.5285   45.0611 C   0  0  1  0  0  0  0  0  0  0  0  0
   20.0203   10.3770   44.5678 C   0  0  1  0  0  0  0  0  0  0  0  0
  5  4  1  6  0  0  0
  5  8  1  0  0  0  0
  5 16  1  0  0  0  0
  8  7  1  1  0  0  0
  8 10  1  0  0  0  0
 10  1  1  6  0  0  0
 10 12  1  0  0  0  0
 11 18  1  0  0  0  0
 12 14  1  0  0  0  0
 14  2  1  6  0  0  0
 14 16  1  0  0  0  0
 16  9  1  1  0  0  0
 17  9  1  6  0  0  0
 17 11  1  0  0  0  0
 17 22  1  0  0  0  0
 18 19  1  1  0  0  0
 18 20  1  0  0  0  0
 19  3  1  0  0  0  0
 20 13  1  6  0  0  0
 20 21  1  0  0  0  0
 21 15  1  1  0  0  0
 21 22  1  0  0  0  0
 22  6  1  6  0  0  0
M  END
>  <CHROM.1>
67.83300590,75.63217866,65.26612657,20.89739643,10.36276654,41.93196588,-1.58969929
-1.16913846,2.18385204

>  <Name>
2f4s_lig

>  <RI>
0

>  <Rbt.Current_Directory>
/home/itssahil/PROJECTS/Mol_Feturizer/New_Systems/rnas/2f4s

>  <Rbt.Executable>
rbdock ($Id: //depot/dev/client3/rdock/2013.1/src/exe/rbdock.cxx#4 $)

>  <Rbt.Library>
libRbt.so (2013.1, Build901 2013/11/27)

>  <Rbt.Parameter_File>
/export/apps/rDock/src/rDock_2013.1_src/data/scripts/dock_solv.prm

>  <Rbt.Receptor>
prm/pocket_docking_8.prm

>  <SCORE>
-15.7804

>  <SCORE.INTER>
-15.826

>  <SCORE.INTER.CONST>
1

>  <SCORE.INTER.POLAR>
-2.34289

>  <SCORE.INTER.ROT>
3

>  <SCORE.INTER.SOLV>
19.4925

>  <SCORE.INTER.VDW>
-14.8385

>  <SCORE.INTER.norm>
-0.719364

>  <SCORE.INTRA>
0.0455958

>  <SCORE.INTRA.DIHEDRAL>
-0.0146927

>  <SCORE.INTRA.DIHEDRAL.0>
1.67653

>  <SCORE.INTRA.POLAR>
0

>  <SCORE.INTRA.POLAR.0>
0

>  <SCORE.INTRA.REPUL>
0

>  <SCORE.INTRA.REPUL.0>
0

>  <SCORE.INTRA.SOLV>
-0.122956

>  <SCORE.INTRA.SOLV.lig_0>
-76.6701

>  <SCORE.INTRA.VDW>
0.11442

>  <SCORE.INTRA.VDW.0>
-1.53273

>  <SCORE.INTRA.norm>
0.00207254

>  <SCORE.RESTR>
0

>  <SCORE.RESTR.CAVITY>
0

>  <SCORE.RESTR.norm>
0

>  <SCORE.SYSTEM>
0

>  <SCORE.SYSTEM.CONST>
0

>  <SCORE.SYSTEM.DIHEDRAL>
0

>  <SCORE.SYSTEM.SOLV>
0

>  <SCORE.SYSTEM.norm>
0

>  <SCORE.heavy>
22

>  <SCORE.norm>
-0.717292

>  <RMSD>
7.043

$$$$
2f4s_lig
 OpenBabel11021811433D
libRbt.so/2013.1/901 2013/11/27
 22 23  0  0  0  0  0  0  0  0999 V2000
   27.4087    8.9811   43.5942 N   0  0  0  0  0  0  0  0  0  0  0  0
   23.8345    8.6621   40.0872 N   0  0  0  0  0  0  0  0  0  0  0  0
   21.0658    9.2140   43.9418 N   0  0  0  0  0  0  0  0  0  0  0  0
   24.8924   13.0334   42.2698 O   0  0  0  0  0  0  0  0  0  0  0  0
   24.7879   11.5902   42.4404 C   0  0  2  0  0  0  0  0  0  0  0  0
   21.6394   12.1505   38.1579 N   0  0  0  0  0  0  0  0  0  0  0  0
   26.5599   11.6193   44.1494 O   0  0  0  0  0  0  0  0  0  0  0  0
   26.1474   11.0110   42.9199 C   0  0  1  0  0  0  0  0  0  0  0  0
   23.0764   11.3776   40.6985 O   0  0  0  0  0  0  0  0  0  0  0  0
   26.0641    9.5051   43.1371 C   0  0  1  0  0  0  0  0  0  0  0  0
   21.3629    9.9020   41.1796 O   0  0  0  0  0  0  0  0  0  0  0  0
   25.6306    8.8053   41.8046 C   0  0  0  0  0  0  0  0  0  0  0  0
   18.9051   12.4189   42.2333 O   0  0  0  0  0  0  0  0  0  0  0  0
   24.2315    9.3857   41.3656 C   0  0  1  0  0  0  0  0  0  0  0  0
   19.2630   13.0684   39.4837 O   0  0  0  0  0  0  0  0  0  0  0  0
   24.3528   10.8954   41.0899 C   0  0  2  0  0  0  0  0  0  0  0  0
   22.1039   10.5656   40.0648 C   0  0  1  0  0  0  0  0  0  0  0  0
   20.6460   10.8004   42.1282 C   0  0  2  0  0  0  0  0  0  0  0  0
   19.9805    9.9353   43.2029 C   0  0  0  0  0  0  0  0  0  0  0  0
   19.5933   11.5616   41.3538 C   0  0  2  0  0  0  0  0  0  0  0  0
   20.2559   12.3519   40.2267 C   0  0  1  0  0  0  0  0  0  0  0  0
   21.0092   11.3776   39.2879 C   0  0  1  0  0  0  0  0  0  0  0  0
  5  4  1  6  0  0  0
  5  8  1  0  0  0  0
  5 16  1  0  0  0  0
  8  7  1  1  0  0  0
  8 10  1  0  0  0  0
 10  1  1  6  0  0  0
 10 12  1  0  0  0  0
 11 18  1  0  0  0  0
 12 14  1  0  0  0  0
 14  2  1  6  0  0  0
 14 16  1  0  0  0  0
 16  9  1  1  0  0  0
 17  9  1  1  0  0  0
 17 11  1  0  0  0  0
 17 22  1  0  0  0  0
 18 19  1  1  0  0  0
 18 20  1  0  0  0  0
 19  3  1  0  0  0  0
 20 13  1  1  0  0  0
 20 21  1  0  0  0  0
 21 15  1  6  0  0  0
 21 22  1  0  0  0  0
 22  6  1  6  0  0  0
M  END
>  <CHROM.1>
-144.29077027,86.22023529,62.30240778,22.83327430,10.86666434,41.59183967
0.41983530,-0.07502639,2.02018039

>  <Name>
2f4s_lig

>  <RI>
0

>  <Rbt.Current_Directory>
/home/itssahil/PROJECTS/Mol_Feturizer/New_Systems/rnas/2f4s

>  <Rbt.Executable>
rbdock ($Id: //depot/dev/client3/rdock/2013.1/src/exe/rbdock.cxx#4 $)

>  <Rbt.Library>
libRbt.so (2013.1, Build901 2013/11/27)

>  <Rbt.Parameter_File>
/export/apps/rDock/src/rDock_2013.1_src/data/scripts/dock_solv.prm

>  <Rbt.Receptor>
prm/pocket_docking_8.prm

>  <SCORE>
-8.67404

>  <SCORE.INTER>
-15.2861

>  <SCORE.INTER.CONST>
1

>  <SCORE.INTER.POLAR>
-0.978952

>  <SCORE.INTER.ROT>
3

>  <SCORE.INTER.SOLV>
14.5603

>  <SCORE.INTER.VDW>
-17.381

>  <SCORE.INTER.norm>
-0.694823

>  <SCORE.INTRA>
6.61206

>  <SCORE.INTRA.DIHEDRAL>
5.919

>  <SCORE.INTRA.DIHEDRAL.0>
1.67653

>  <SCORE.INTRA.POLAR>
0

>  <SCORE.INTRA.POLAR.0>
0

>  <SCORE.INTRA.REPUL>
0

>  <SCORE.INTRA.REPUL.0>
0

>  <SCORE.INTRA.SOLV>
2.06525

>  <SCORE.INTRA.SOLV.lig_0>
-76.6701

>  <SCORE.INTRA.VDW>
2.61993

>  <SCORE.INTRA.VDW.0>
-1.53273

>  <SCORE.INTRA.norm>
0.300548

>  <SCORE.RESTR>
0

>  <SCORE.RESTR.CAVITY>
0

>  <SCORE.RESTR.norm>
0

>  <SCORE.SYSTEM>
0

>  <SCORE.SYSTEM.CONST>
0

>  <SCORE.SYSTEM.DIHEDRAL>
0

>  <SCORE.SYSTEM.SOLV>
0

>  <SCORE.SYSTEM.norm>
0

>  <SCORE.heavy>
22

>  <SCORE.norm>
-0.394275

>  <RMSD>
7.072

$$$$
2f4s_lig
 OpenBabel11021811433D
libRbt.so/2013.1/901 2013/11/27
 22 23  0  0  0  0  0  0  0  0999 V2000
   21.6843   13.0779   37.1369 N   0  0  0  0  0  0  0  0  0  0  0  0
   23.4500   10.3280   40.9443 N   0  0  0  0  0  0  0  0  0  0  0  0
   21.9063    5.8788   42.5622 N   0  0  0  0  0  0  0  0  0  0  0  0
   18.7295   11.9733   40.9521 O   0  0  0  0  0  0  0  0  0  0  0  0
   20.1090   12.2580   40.5798 C   0  0  2  0  0  0  0  0  0  0  0  0
   20.2349   11.7314   45.1844 N   0  0  0  0  0  0  0  0  0  0  0  0
   19.3596   13.6010   38.6572 O   0  0  0  0  0  0  0  0  0  0  0  0
   20.2056   12.5140   39.0505 C   0  0  1  0  0  0  0  0  0  0  0  0
   21.0190   10.8840   42.3944 O   0  0  0  0  0  0  0  0  0  0  0  0
   21.6330   12.8447   38.6318 C   0  0  1  0  0  0  0  0  0  0  0  0
   19.7748    8.9544   42.6665 O   0  0  0  0  0  0  0  0  0  0  0  0
   22.5844   11.6670   39.0328 C   0  0  0  0  0  0  0  0  0  0  0  0
   22.1464    7.2146   44.8652 O   0  0  0  0  0  0  0  0  0  0  0  0
   22.4932   11.4579   40.5933 C   0  0  1  0  0  0  0  0  0  0  0  0
   21.3805    9.4357   46.4747 O   0  0  0  0  0  0  0  0  0  0  0  0
   21.0583   11.0626   40.9868 C   0  0  2  0  0  0  0  0  0  0  0  0
   19.8833   10.3862   43.0794 C   0  0  1  0  0  0  0  0  0  0  0  0
   20.9267    8.0743   43.0119 C   0  0  2  0  0  0  0  0  0  0  0  0
   20.6349    6.6671   42.4819 C   0  0  0  0  0  0  0  0  0  0  0  0
   21.0606    8.0408   44.5180 C   0  0  2  0  0  0  0  0  0  0  0  0
   21.2617    9.4596   45.0475 C   0  0  1  0  0  0  0  0  0  0  0  0
   20.0542   10.3385   44.6382 C   0  0  1  0  0  0  0  0  0  0  0  0
  5  4  1  6  0  0  0
  5  8  1  0  0  0  0
  5 16  1  0  0  0  0
  8  7  1  1  0  0  0
  8 10  1  0  0  0  0
 10  1  1  6  0  0  0
 10 12  1  0  0  0  0
 11 18  1  0  0  0  0
 12 14  1  0  0  0  0
 14  2  1  6  0  0  0
 14 16  1  0  0  0  0
 16  9  1  1  0  0  0
 17  9  1  6  0  0  0
 17 11  1  0  0  0  0
 17 22  1  0  0  0  0
 18 19  1  1  0  0  0
 18 20  1  0  0  0  0
 19  3  1  0  0  0  0
 20 13  1  6  0  0  0
 20 21  1  0  0  0  0
 21 15  1  1  0  0  0
 21 22  1  0  0  0  0
 22  6  1  6  0  0  0
M  END
>  <CHROM.1>
69.72402973,68.66968091,167.70763712,20.96271528,10.34701437,42.00212877
-1.64389322,-1.03078628,2.17494060

>  <Name>
2f4s_lig

>  <RI>
0

>  <Rbt.Current_Directory>
/home/itssahil/PROJECTS/Mol_Feturizer/New_Systems/rnas/2f4s

>  <Rbt.Executable>
rbdock ($Id: //depot/dev/client3/rdock/2013.1/src/exe/rbdock.cxx#4 $)

>  <Rbt.Library>
libRbt.so (2013.1, Build901 2013/11/27)

>  <Rbt.Parameter_File>
/export/apps/rDock/src/rDock_2013.1_src/data/scripts/dock_solv.prm

>  <Rbt.Receptor>
prm/pocket_docking_8.prm

>  <SCORE>
-16.7992

>  <SCORE.INTER>
-17.3795

>  <SCORE.INTER.CONST>
1

>  <SCORE.INTER.POLAR>
-2.35981

>  <SCORE.INTER.ROT>
3

>  <SCORE.INTER.SOLV>
14.0934

>  <SCORE.INTER.VDW>
-14.0181

>  <SCORE.INTER.norm>
-0.789978

>  <SCORE.INTRA>
0.580304

>  <SCORE.INTRA.DIHEDRAL>
-0.19165

>  <SCORE.INTRA.DIHEDRAL.0>
1.67653

>  <SCORE.INTRA.POLAR>
0

>  <SCORE.INTRA.POLAR.0>
0

>  <SCORE.INTRA.REPUL>
0

>  <SCORE.INTRA.REPUL.0>
0

>  <SCORE.INTRA.SOLV>
0.856421

>  <SCORE.INTRA.SOLV.lig_0>
-76.6701

>  <SCORE.INTRA.VDW>
0.247919

>  <SCORE.INTRA.VDW.0>
-1.53273

>  <SCORE.INTRA.norm>
0.0263775

>  <SCORE.RESTR>
0

>  <SCORE.RESTR.CAVITY>
0

>  <SCORE.RESTR.norm>
0

>  <SCORE.SYSTEM>
0

>  <SCORE.SYSTEM.CONST>
0

>  <SCORE.SYSTEM.DIHEDRAL>
0

>  <SCORE.SYSTEM.SOLV>
0

>  <SCORE.SYSTEM.norm>
0

>  <SCORE.heavy>
22

>  <SCORE.norm>
-0.763601

>  <RMSD>
7.084

$$$$
2f4s_lig
 OpenBabel11021811433D
libRbt.so/2013.1/901 2013/11/27
 22 23  0  0  0  0  0  0  0  0999 V2000
   21.7345   13.0563   37.1363 N   0  0  0  0  0  0  0  0  0  0  0  0
   23.4723   10.2804   40.9377 N   0  0  0  0  0  0  0  0  0  0  0  0
   21.8039    5.8161   42.6527 N   0  0  0  0  0  0  0  0  0  0  0  0
   18.7615   11.9535   40.9379 O   0  0  0  0  0  0  0  0  0  0  0  0
   20.1439   12.2316   40.5709 C   0  0  2  0  0  0  0  0  0  0  0  0
   20.2554   11.7498   45.1543 N   0  0  0  0  0  0  0  0  0  0  0  0
   19.4083   13.5869   38.6516 O   0  0  0  0  0  0  0  0  0  0  0  0
   20.2467   12.4933   39.0430 C   0  0  1  0  0  0  0  0  0  0  0  0
   21.0401   10.8448   42.3826 O   0  0  0  0  0  0  0  0  0  0  0  0
   21.6772   12.8173   38.6300 C   0  0  1  0  0  0  0  0  0  0  0  0
   19.7500    8.9483   42.6725 O   0  0  0  0  0  0  0  0  0  0  0  0
   22.6204   11.6323   39.0291 C   0  0  0  0  0  0  0  0  0  0  0  0
   22.0650    7.1864   44.9135 O   0  0  0  0  0  0  0  0  0  0  0  0
   22.5232   11.4174   40.5884 C   0  0  1  0  0  0  0  0  0  0  0  0
   21.3385    9.4472   46.4856 O   0  0  0  0  0  0  0  0  0  0  0  0
   21.0848   11.0289   40.9759 C   0  0  2  0  0  0  0  0  0  0  0  0
   19.8884   10.3830   43.0660 C   0  0  1  0  0  0  0  0  0  0  0  0
   20.8789    8.0471   43.0391 C   0  0  2  0  0  0  0  0  0  0  0  0
   20.5587    6.6395   42.5268 C   0  0  0  0  0  0  0  0  0  0  0  0
   21.0010    8.0320   44.5464 C   0  0  2  0  0  0  0  0  0  0  0  0
   21.2307    9.4533   45.0574 C   0  0  1  0  0  0  0  0  0  0  0  0
   20.0467   10.3536   44.6265 C   0  0  1  0  0  0  0  0  0  0  0  0
  5  4  1  6  0  0  0
  5  8  1  0  0  0  0
  5 16  1  0  0  0  0
  8  7  1  1  0  0  0
  8 10  1  0  0  0  0
 10  1  1  6  0  0  0
 10 12  1  0  0  0  0
 11 18  1  0  0  0  0
 12 14  1  0  0  0  0
 14  2  1  6  0  0  0
 14 16  1  0  0  0  0
 16  9  1  1  0  0  0
 17  9  1  6  0  0  0
 17 11  1  0  0  0  0
 17 22  1  0  0  0  0
 18 19  1  1  0  0  0
 18 20  1  0  0  0  0
 19  3  1  0  0  0  0
 20 13  1  6  0  0  0
 20 21  1  0  0  0  0
 21 15  1  1  0  0  0
 21 22  1  0  0  0  0
 22  6  1  6  0  0  0
M  END
>  <CHROM.1>
68.07829659,70.03164726,168.78509680,20.95958011,10.32662837,42.00838792
-1.61655750,-1.04373728,2.19630900

>  <Name>
2f4s_lig

>  <RI>
0

>  <Rbt.Current_Directory>
/home/itssahil/PROJECTS/Mol_Feturizer/New_Systems/rnas/2f4s

>  <Rbt.Executable>
rbdock ($Id: //depot/dev/client3/rdock/2013.1/src/exe/rbdock.cxx#4 $)

>  <Rbt.Library>
libRbt.so (2013.1, Build901 2013/11/27)

>  <Rbt.Parameter_File>
/export/apps/rDock/src/rDock_2013.1_src/data/scripts/dock_solv.prm

>  <Rbt.Receptor>
prm/pocket_docking_8.prm

>  <SCORE>
-16.7403

>  <SCORE.INTER>
-17.368

>  <SCORE.INTER.CONST>
1

>  <SCORE.INTER.POLAR>
-2.34214

>  <SCORE.INTER.ROT>
3

>  <SCORE.INTER.SOLV>
14.213

>  <SCORE.INTER.VDW>
-14.1092

>  <SCORE.INTER.norm>
-0.789454

>  <SCORE.INTRA>
0.627646

>  <SCORE.INTRA.DIHEDRAL>
-0.298092

>  <SCORE.INTRA.DIHEDRAL.0>
1.67653

>  <SCORE.INTRA.POLAR>
0

>  <SCORE.INTRA.POLAR.0>
0

>  <SCORE.INTRA.REPUL>
0

>  <SCORE.INTRA.REPUL.0>
0

>  <SCORE.INTRA.SOLV>
0.830386

>  <SCORE.INTRA.SOLV.lig_0>
-76.6701

>  <SCORE.INTRA.VDW>
0.361499

>  <SCORE.INTRA.VDW.0>
-1.53273

>  <SCORE.INTRA.norm>
0.0285294

>  <SCORE.RESTR>
0

>  <SCORE.RESTR.CAVITY>
0

>  <SCORE.RESTR.norm>
0

>  <SCORE.SYSTEM>
0

>  <SCORE.SYSTEM.CONST>
0

>  <SCORE.SYSTEM.DIHEDRAL>
0

>  <SCORE.SYSTEM.SOLV>
0

>  <SCORE.SYSTEM.norm>
0

>  <SCORE.heavy>
22

>  <SCORE.norm>
-0.760924

>  <RMSD>
7.091

$$$$
2f4s_lig
 OpenBabel11021811433D
libRbt.so/2013.1/901 2013/11/27
 22 23  0  0  0  0  0  0  0  0999 V2000
   21.6332   13.1108   37.1973 N   0  0  0  0  0  0  0  0  0  0  0  0
   23.4060   10.2641   40.9296 N   0  0  0  0  0  0  0  0  0  0  0  0
   20.8554    6.5896   41.0748 N   0  0  0  0  0  0  0  0  0  0  0  0
   18.6879   11.9153   40.9925 O   0  0  0  0  0  0  0  0  0  0  0  0
   20.0668   12.2073   40.6233 C   0  0  2  0  0  0  0  0  0  0  0  0
   20.1039   11.6575   45.1557 N   0  0  0  0  0  0  0  0  0  0  0  0
   19.3137   13.5990   38.7371 O   0  0  0  0  0  0  0  0  0  0  0  0
   20.1593   12.5013   39.1006 C   0  0  1  0  0  0  0  0  0  0  0  0
   20.9800   10.7871   42.4003 O   0  0  0  0  0  0  0  0  0  0  0  0
   21.5859   12.8403   38.6860 C   0  0  1  0  0  0  0  0  0  0  0  0
   19.8129    8.8123   42.6891 O   0  0  0  0  0  0  0  0  0  0  0  0
   22.5367   11.6517   39.0547 C   0  0  0  0  0  0  0  0  0  0  0  0
   22.2103    7.2206   44.9705 O   0  0  0  0  0  0  0  0  0  0  0  0
   22.4498   11.4038   40.6097 C   0  0  1  0  0  0  0  0  0  0  0  0
   21.3186    9.4395   46.5169 O   0  0  0  0  0  0  0  0  0  0  0  0
   21.0155   11.0007   40.9975 C   0  0  2  0  0  0  0  0  0  0  0  0
   19.8526   10.2556   43.0734 C   0  0  1  0  0  0  0  0  0  0  0  0
   20.9936    7.9893   43.0758 C   0  0  2  0  0  0  0  0  0  0  0  0
   20.7723    6.5604   42.5703 C   0  0  0  0  0  0  0  0  0  0  0  0
   21.0979    7.9924   44.5846 C   0  0  2  0  0  0  0  0  0  0  0  0
   21.2282    9.4290   45.0875 C   0  0  1  0  0  0  0  0  0  0  0  0
   19.9933   10.2472   44.6359 C   0  0  1  0  0  0  0  0  0  0  0  0
  5  4  1  6  0  0  0
  5  8  1  0  0  0  0
  5 16  1  0  0  0  0
  8  7  1  1  0  0  0
  8 10  1  0  0  0  0
 10  1  1  6  0  0  0
 10 12  1  0  0  0  0
 11 18  1  0  0  0  0
 12 14  1  0  0  0  0
 14  2  1  6  0  0  0
 14 16  1  0  0  0  0
 16  9  1  1  0  0  0
 17  9  1  6  0  0  0
 17 11  1  0  0  0  0
 17 22  1  0  0  0  0
 18 19  1  1  0  0  0
 18 20  1  0  0  0  0
 19  3  1  0  0  0  0
 20 13  1  6  0  0  0
 20 21  1  0  0  0  0
 21 15  1  1  0  0  0
 21 22  1  0  0  0  0
 22  6  1  6  0  0  0
M  END
>  <CHROM.1>
70.68029673,71.93313450,69.18396869,20.89446706,10.33004133,41.97016094,-1.62974195
-1.12249189,2.15913011

>  <Name>
2f4s_lig

>  <RI>
0

>  <Rbt.Current_Directory>
/home/itssahil/PROJECTS/Mol_Feturizer/New_Systems/rnas/2f4s

>  <Rbt.Executable>
rbdock ($Id: //depot/dev/client3/rdock/2013.1/src/exe/rbdock.cxx#4 $)

>  <Rbt.Library>
libRbt.so (2013.1, Build901 2013/11/27)

>  <Rbt.Parameter_File>
/export/apps/rDock/src/rDock_2013.1_src/data/scripts/dock_solv.prm

>  <Rbt.Receptor>
prm/pocket_docking_8.prm

>  <SCORE>
-15.7394

>  <SCORE.INTER>
-15.7026

>  <SCORE.INTER.CONST>
1

>  <SCORE.INTER.POLAR>
-2.39495

>  <SCORE.INTER.ROT>
3

>  <SCORE.INTER.SOLV>
18.7865

>  <SCORE.INTER.VDW>
-14.3474

>  <SCORE.INTER.norm>
-0.713752

>  <SCORE.INTRA>
-0.0368352

>  <SCORE.INTRA.DIHEDRAL>
-0.0106973

>  <SCORE.INTRA.DIHEDRAL.0>
1.67653

>  <SCORE.INTRA.POLAR>
0

>  <SCORE.INTRA.POLAR.0>
0

>  <SCORE.INTRA.REPUL>
0

>  <SCORE.INTRA.REPUL.0>
0

>  <SCORE.INTRA.SOLV>
-0.0678401

>  <SCORE.INTRA.SOLV.lig_0>
-76.6701

>  <SCORE.INTRA.VDW>
0.00243343

>  <SCORE.INTRA.VDW.0>
-1.53273

>  <SCORE.INTRA.norm>
-0.00167433

>  <SCORE.RESTR>
0

>  <SCORE.RESTR.CAVITY>
0

>  <SCORE.RESTR.norm>
0

>  <SCORE.SYSTEM>
0

>  <SCORE.SYSTEM.CONST>
0

>  <SCORE.SYSTEM.DIHEDRAL>
0

>  <SCORE.SYSTEM.SOLV>
0

>  <SCORE.SYSTEM.norm>
0

>  <SCORE.heavy>
22

>  <SCORE.norm>
-0.715427

>  <RMSD>
7.096

$$$$
2f4s_lig
 OpenBabel11021811433D
libRbt.so/2013.1/901 2013/11/27
 22 23  0  0  0  0  0  0  0  0999 V2000
   21.7509   13.0319   37.1897 N   0  0  0  0  0  0  0  0  0  0  0  0
   23.3336   10.0602   40.9098 N   0  0  0  0  0  0  0  0  0  0  0  0
   20.3628    6.5300   41.2199 N   0  0  0  0  0  0  0  0  0  0  0  0
   18.7227   11.9908   40.9651 O   0  0  0  0  0  0  0  0  0  0  0  0
   20.1182   12.2019   40.6033 C   0  0  2  0  0  0  0  0  0  0  0  0
   20.0591   11.7530   45.0717 N   0  0  0  0  0  0  0  0  0  0  0  0
   19.4582   13.6484   38.7235 O   0  0  0  0  0  0  0  0  0  0  0  0
   20.2348   12.4997   39.0830 C   0  0  1  0  0  0  0  0  0  0  0  0
   20.9369   10.7181   42.3744 O   0  0  0  0  0  0  0  0  0  0  0  0
   21.6810   12.7552   38.6763 C   0  0  1  0  0  0  0  0  0  0  0  0
   19.6518    8.8273   42.7184 O   0  0  0  0  0  0  0  0  0  0  0  0
   22.5572   11.5093   39.0408 C   0  0  0  0  0  0  0  0  0  0  0  0
   21.9076    7.1990   45.1155 O   0  0  0  0  0  0  0  0  0  0  0  0
   22.4488   11.2571   40.5938 C   0  0  1  0  0  0  0  0  0  0  0  0
   21.1160    9.5288   46.5494 O   0  0  0  0  0  0  0  0  0  0  0  0
   20.9913   10.9383   40.9732 C   0  0  2  0  0  0  0  0  0  0  0  0
   19.7676   10.2810   43.0439 C   0  0  1  0  0  0  0  0  0  0  0  0
   20.7749    7.9552   43.1645 C   0  0  2  0  0  0  0  0  0  0  0  0
   20.4810    6.5212   42.7134 C   0  0  0  0  0  0  0  0  0  0  0  0
   20.8497    8.0162   44.6737 C   0  0  2  0  0  0  0  0  0  0  0  0
   21.0532    9.4630   45.1199 C   0  0  1  0  0  0  0  0  0  0  0  0
   19.8770   10.3306   44.6081 C   0  0  1  0  0  0  0  0  0  0  0  0
  5  4  1  6  0  0  0
  5  8  1  0  0  0  0
  5 16  1  0  0  0  0
  8  7  1  1  0  0  0
  8 10  1  0  0  0  0
 10  1  1  6  0  0  0
 10 12  1  0  0  0  0
 11 18  1  0  0  0  0
 12 14  1  0  0  0  0
 14  2  1  6  0  0  0
 14 16  1  0  0  0  0
 16  9  1  1  0  0  0
 17  9  1  6  0  0  0
 17 11  1  0  0  0  0
 17 22  1  0  0  0  0
 18 19  1  1  0  0  0
 18 20  1  0  0  0  0
 19  3  1  0  0  0  0
 20 13  1  6  0  0  0
 20 21  1  0  0  0  0
 21 15  1  1  0  0  0
 21 22  1  0  0  0  0
 22  6  1  6  0  0  0
M  END
>  <CHROM.1>
69.14936095,75.40257485,59.66299132,20.80553785,10.31076619,41.98747462,-1.51579455
-1.17819542,2.25404200

>  <Name>
2f4s_lig

>  <RI>
0

>  <Rbt.Current_Directory>
/home/itssahil/PROJECTS/Mol_Feturizer/New_Systems/rnas/2f4s

>  <Rbt.Executable>
rbdock ($Id: //depot/dev/client3/rdock/2013.1/src/exe/rbdock.cxx#4 $)

>  <Rbt.Library>
libRbt.so (2013.1, Build901 2013/11/27)

>  <Rbt.Parameter_File>
/export/apps/rDock/src/rDock_2013.1_src/data/scripts/dock_solv.prm

>  <Rbt.Receptor>
prm/pocket_docking_8.prm

>  <SCORE>
-15.8715

>  <SCORE.INTER>
-15.9136

>  <SCORE.INTER.CONST>
1

>  <SCORE.INTER.POLAR>
-2.4608

>  <SCORE.INTER.ROT>
3

>  <SCORE.INTER.SOLV>
19.3187

>  <SCORE.INTER.VDW>
-14.4459

>  <SCORE.INTER.norm>
-0.723345

>  <SCORE.INTRA>
0.042081

>  <SCORE.INTRA.DIHEDRAL>
-0.0418476

>  <SCORE.INTRA.DIHEDRAL.0>
1.67653

>  <SCORE.INTRA.POLAR>
0

>  <SCORE.INTRA.POLAR.0>
0

>  <SCORE.INTRA.REPUL>
0

>  <SCORE.INTRA.REPUL.0>
0

>  <SCORE.INTRA.SOLV>
-0.0251422

>  <SCORE.INTRA.SOLV.lig_0>
-76.6701

>  <SCORE.INTRA.VDW>
0.075576

>  <SCORE.INTRA.VDW.0>
-1.53273

>  <SCORE.INTRA.norm>
0.00191277

>  <SCORE.RESTR>
0

>  <SCORE.RESTR.CAVITY>
0

>  <SCORE.RESTR.norm>
0

>  <SCORE.SYSTEM>
0

>  <SCORE.SYSTEM.CONST>
0

>  <SCORE.SYSTEM.DIHEDRAL>
0

>  <SCORE.SYSTEM.SOLV>
0

>  <SCORE.SYSTEM.norm>
0

>  <SCORE.heavy>
22

>  <SCORE.norm>
-0.721432

>  <RMSD>
7.104

$$$$
2f4s_lig
 OpenBabel11021811433D
libRbt.so/2013.1/901 2013/11/27
 22 23  0  0  0  0  0  0  0  0999 V2000
   21.7100   13.0533   37.1982 N   0  0  0  0  0  0  0  0  0  0  0  0
   23.3709   10.1124   40.9088 N   0  0  0  0  0  0  0  0  0  0  0  0
   20.8266    6.5323   41.1235 N   0  0  0  0  0  0  0  0  0  0  0  0
   18.7328   11.9752   41.0036 O   0  0  0  0  0  0  0  0  0  0  0  0
   20.1216   12.2061   40.6284 C   0  0  2  0  0  0  0  0  0  0  0  0
   20.0716   11.6409   45.1293 N   0  0  0  0  0  0  0  0  0  0  0  0
   19.4229   13.6390   38.7522 O   0  0  0  0  0  0  0  0  0  0  0  0
   20.2196   12.5025   39.1065 C   0  0  1  0  0  0  0  0  0  0  0  0
   20.9785   10.7380   42.3944 O   0  0  0  0  0  0  0  0  0  0  0  0
   21.6580   12.7785   38.6859 C   0  0  1  0  0  0  0  0  0  0  0  0
   19.8209    8.7602   42.6999 O   0  0  0  0  0  0  0  0  0  0  0  0
   22.5559   11.5464   39.0445 C   0  0  0  0  0  0  0  0  0  0  0  0
   22.2065    7.2150   45.0252 O   0  0  0  0  0  0  0  0  0  0  0  0
   22.4657   11.2956   40.5988 C   0  0  1  0  0  0  0  0  0  0  0  0
   21.2870    9.4496   46.5323 O   0  0  0  0  0  0  0  0  0  0  0  0
   21.0166   10.9562   40.9924 C   0  0  2  0  0  0  0  0  0  0  0  0
   19.8481   10.2089   43.0645 C   0  0  1  0  0  0  0  0  0  0  0  0
   21.0029    7.9499   43.1088 C   0  0  2  0  0  0  0  0  0  0  0  0
   20.7950    6.5128   42.6212 C   0  0  0  0  0  0  0  0  0  0  0  0
   21.0931    7.9745   44.6183 C   0  0  2  0  0  0  0  0  0  0  0  0
   21.2099    9.4187   45.1024 C   0  0  1  0  0  0  0  0  0  0  0  0
   19.9744   10.2229   44.6282 C   0  0  1  0  0  0  0  0  0  0  0  0
  5  4  1  6  0  0  0
  5  8  1  0  0  0  0
  5 16  1  0  0  0  0
  8  7  1  1  0  0  0
  8 10  1  0  0  0  0
 10  1  1  6  0  0  0
 10 12  1  0  0  0  0
 11 18  1  0  0  0  0
 12 14  1  0  0  0  0
 14  2  1  6  0  0  0
 14 16  1  0  0  0  0
 16  9  1  1  0  0  0
 17  9  1  6  0  0  0
 17 11  1  0  0  0  0
 17 22  1  0  0  0  0
 18 19  1  1  0  0  0
 18 20  1  0  0  0  0
 19  3  1  0  0  0  0
 20 13  1  6  0  0  0
 20 21  1  0  0  0  0
 21 15  1  1  0  0  0
 21 22  1  0  0  0  0
 22  6  1  6  0  0  0
M  END
>  <CHROM.1>
73.07000069,73.16885316,66.52932200,20.90894321,10.29568670,41.97984316,-1.60769275
-1.11925011,2.17883688

>  <Name>
2f4s_lig

>  <RI>
0

>  <Rbt.Current_Directory>
/home/itssahil/PROJECTS/Mol_Feturizer/New_Systems/rnas/2f4s

>  <Rbt.Executable>
rbdock ($Id: //depot/dev/client3/rdock/2013.1/src/exe/rbdock.cxx#4 $)

>  <Rbt.Library>
libRbt.so (2013.1, Build901 2013/11/27)

>  <Rbt.Parameter_File>
/export/apps/rDock/src/rDock_2013.1_src/data/scripts/dock_solv.prm

>  <Rbt.Receptor>
prm/pocket_docking_8.prm

>  <SCORE>
-15.9372

>  <SCORE.INTER>
-15.9954

>  <SCORE.INTER.CONST>
1

>  <SCORE.INTER.POLAR>
-2.38921

>  <SCORE.INTER.ROT>
3

>  <SCORE.INTER.SOLV>
18.6664

>  <SCORE.INTER.VDW>
-14.5217

>  <SCORE.INTER.norm>
-0.727062

>  <SCORE.INTRA>
0.0581677

>  <SCORE.INTRA.DIHEDRAL>
0.239029

>  <SCORE.INTRA.DIHEDRAL.0>
1.67653

>  <SCORE.INTRA.POLAR>
0

>  <SCORE.INTRA.POLAR.0>
0

>  <SCORE.INTRA.REPUL>
0

>  <SCORE.INTRA.REPUL.0>
0

>  <SCORE.INTRA.SOLV>
0.0371063

>  <SCORE.INTRA.SOLV.lig_0>
-76.6701

>  <SCORE.INTRA.VDW>
-0.0799001

>  <SCORE.INTRA.VDW.0>
-1.53273

>  <SCORE.INTRA.norm>
0.00264399

>  <SCORE.RESTR>
0

>  <SCORE.RESTR.CAVITY>
0

>  <SCORE.RESTR.norm>
0

>  <SCORE.SYSTEM>
0

>  <SCORE.SYSTEM.CONST>
0

>  <SCORE.SYSTEM.DIHEDRAL>
0

>  <SCORE.SYSTEM.SOLV>
0

>  <SCORE.SYSTEM.norm>
0

>  <SCORE.heavy>
22

>  <SCORE.norm>
-0.724418

>  <RMSD>
7.114

$$$$
2f4s_lig
 OpenBabel11021811433D
libRbt.so/2013.1/901 2013/11/27
 22 23  0  0  0  0  0  0  0  0999 V2000
   21.7595   13.0390   37.2159 N   0  0  0  0  0  0  0  0  0  0  0  0
   23.3524   10.0721   40.9356 N   0  0  0  0  0  0  0  0  0  0  0  0
   20.5888    6.5168   41.1848 N   0  0  0  0  0  0  0  0  0  0  0  0
   18.7329   11.9823   40.9882 O   0  0  0  0  0  0  0  0  0  0  0  0
   20.1278   12.1998   40.6277 C   0  0  2  0  0  0  0  0  0  0  0  0
   20.0431   11.6923   45.1085 N   0  0  0  0  0  0  0  0  0  0  0  0
   19.4628   13.6444   38.7482 O   0  0  0  0  0  0  0  0  0  0  0  0
   20.2443   12.4990   39.1077 C   0  0  1  0  0  0  0  0  0  0  0  0
   20.9516   10.7186   42.3986 O   0  0  0  0  0  0  0  0  0  0  0  0
   21.6896   12.7612   38.7023 C   0  0  1  0  0  0  0  0  0  0  0  0
   19.7219    8.7869   42.7171 O   0  0  0  0  0  0  0  0  0  0  0  0
   22.5711   11.5190   39.0668 C   0  0  0  0  0  0  0  0  0  0  0  0
   22.0232    7.1938   45.0944 O   0  0  0  0  0  0  0  0  0  0  0  0
   22.4626   11.2653   40.6195 C   0  0  1  0  0  0  0  0  0  0  0  0
   21.1638    9.4807   46.5579 O   0  0  0  0  0  0  0  0  0  0  0  0
   21.0061   10.9398   40.9976 C   0  0  2  0  0  0  0  0  0  0  0  0
   19.7952   10.2390   43.0615 C   0  0  1  0  0  0  0  0  0  0  0  0
   20.8697    7.9421   43.1525 C   0  0  2  0  0  0  0  0  0  0  0  0
   20.6177    6.5062   42.6826 C   0  0  0  0  0  0  0  0  0  0  0  0
   20.9421    7.9856   44.6625 C   0  0  2  0  0  0  0  0  0  0  0  0
   21.1034    9.4318   45.1277 C   0  0  1  0  0  0  0  0  0  0  0  0
   19.9026   10.2714   44.6263 C   0  0  1  0  0  0  0  0  0  0  0  0
  5  4  1  6  0  0  0
  5  8  1  0  0  0  0
  5 16  1  0  0  0  0
  8  7  1  1  0  0  0
  8 10  1  0  0  0  0
 10  1  1  6  0  0  0
 10 12  1  0  0  0  0
 11 18  1  0  0  0  0
 12 14  1  0  0  0  0
 14  2  1  6  0  0  0
 14 16  1  0  0  0  0
 16  9  1  1  0  0  0
 17  9  1  6  0  0  0
 17 11  1  0  0  0  0
 17 22  1  0  0  0  0
 18 19  1  1  0  0  0
 18 20  1  0  0  0  0
 19  3  1  0  0  0  0
 20 13  1  6  0  0  0
 20 21  1  0  0  0  0
 21 15  1  1  0  0  0
 21 22  1  0  0  0  0
 22  6  1  6  0  0  0
M  END
>  <CHROM.1>
71.03356031,74.44764927,63.28474626,20.85119017,10.29572900,41.99879139,-1.54902725
-1.14680479,2.22849787

>  <Name>
2f4s_lig

>  <RI>
0

>  <Rbt.Current_Directory>
/home/itssahil/PROJECTS/Mol_Feturizer/New_Systems/rnas/2f4s

>  <Rbt.Executable>
rbdock ($Id: //depot/dev/client3/rdock/2013.1/src/exe/rbdock.cxx#4 $)

>  <Rbt.Library>
libRbt.so (2013.1, Build901 2013/11/27)

>  <Rbt.Parameter_File>
/export/apps/rDock/src/rDock_2013.1_src/data/scripts/dock_solv.prm

>  <Rbt.Receptor>
prm/pocket_docking_8.prm

>  <SCORE>
-15.933

>  <SCORE.INTER>
-15.9638

>  <SCORE.INTER.CONST>
1

>  <SCORE.INTER.POLAR>
-2.41073

>  <SCORE.INTER.ROT>
3

>  <SCORE.INTER.SOLV>
18.8978

>  <SCORE.INTER.VDW>
-14.506

>  <SCORE.INTER.norm>
-0.725627

>  <SCORE.INTRA>
0.0307559

>  <SCORE.INTRA.DIHEDRAL>
0.053561

>  <SCORE.INTRA.DIHEDRAL.0>
1.67653

>  <SCORE.INTRA.POLAR>
0

>  <SCORE.INTRA.POLAR.0>
0

>  <SCORE.INTRA.REPUL>
0

>  <SCORE.INTRA.REPUL.0>
0

>  <SCORE.INTRA.SOLV>
-0.00093141

>  <SCORE.INTRA.SOLV.lig_0>
-76.6701

>  <SCORE.INTRA.VDW>
0.00444107

>  <SCORE.INTRA.VDW.0>
-1.53273

>  <SCORE.INTRA.norm>
0.00139799

>  <SCORE.RESTR>
0

>  <SCORE.RESTR.CAVITY>
0

>  <SCORE.RESTR.norm>
0

>  <SCORE.SYSTEM>
0

>  <SCORE.SYSTEM.CONST>
0

>  <SCORE.SYSTEM.DIHEDRAL>
0

>  <SCORE.SYSTEM.SOLV>
0

>  <SCORE.SYSTEM.norm>
0

>  <SCORE.heavy>
22

>  <SCORE.norm>
-0.724229

>  <RMSD>
7.118

$$$$
2f4s_lig
 OpenBabel11021811433D
libRbt.so/2013.1/901 2013/11/27
 22 23  0  0  0  0  0  0  0  0999 V2000
   18.6647   14.9616   38.2063 N   0  0  0  0  0  0  0  0  0  0  0  0
   19.1804   12.5688   42.5863 N   0  0  0  0  0  0  0  0  0  0  0  0
   18.3006    9.3970   45.3756 N   0  0  0  0  0  0  0  0  0  0  0  0
   21.9431   11.2761   38.6257 O   0  0  0  0  0  0  0  0  0  0  0  0
   20.6490   11.7549   39.0934 C   0  0  2  0  0  0  0  0  0  0  0  0
   23.3037    9.0692   42.1336 N   0  0  0  0  0  0  0  0  0  0  0  0
   20.3029   13.0005   36.9982 O   0  0  0  0  0  0  0  0  0  0  0  0
   20.3123   13.1167   38.4258 C   0  0  1  0  0  0  0  0  0  0  0  0
   20.8786   10.6458   41.2673 O   0  0  0  0  0  0  0  0  0  0  0  0
   18.9493   13.6319   38.8716 C   0  0  1  0  0  0  0  0  0  0  0  0
   20.0067   10.4110   43.3956 O   0  0  0  0  0  0  0  0  0  0  0  0
   18.9300   13.7868   40.4300 C   0  0  0  0  0  0  0  0  0  0  0  0
   18.9946    6.8964   43.0652 O   0  0  0  0  0  0  0  0  0  0  0  0
   19.2362   12.3817   41.0773 C   0  0  1  0  0  0  0  0  0  0  0  0
   21.8278    6.7106   42.8454 O   0  0  0  0  0  0  0  0  0  0  0  0
   20.6425   11.9095   40.6656 C   0  0  2  0  0  0  0  0  0  0  0  0
   21.2795   10.4948   42.6175 C   0  0  1  0  0  0  0  0  0  0  0  0
   19.1015    9.2733   43.0680 C   0  0  2  0  0  0  0  0  0  0  0  0
   17.8515    9.3827   43.9465 C   0  0  0  0  0  0  0  0  0  0  0  0
   19.8336    7.9850   43.3704 C   0  0  2  0  0  0  0  0  0  0  0  0
   21.1252    7.9249   42.5568 C   0  0  1  0  0  0  0  0  0  0  0  0
   22.0154    9.1410   42.9124 C   0  0  1  0  0  0  0  0  0  0  0  0
  5  4  1  6  0  0  0
  5  8  1  0  0  0  0
  5 16  1  0  0  0  0
  8  7  1  6  0  0  0
  8 10  1  0  0  0  0
 10  1  1  6  0  0  0
 10 12  1  0  0  0  0
 11 18  1  0  0  0  0
 12 14  1  0  0  0  0
 14  2  1  1  0  0  0
 14 16  1  0  0  0  0
 16  9  1  1  0  0  0
 17  9  1  6  0  0  0
 17 11  1  0  0  0  0
 17 22  1  0  0  0  0
 18 19  1  1  0  0  0
 18 20  1  0  0  0  0
 19  3  1  0  0  0  0
 20 13  1  6  0  0  0
 20 21  1  0  0  0  0
 21 15  1  1  0  0  0
 21 22  1  0  0  0  0
 22  6  1  6  0  0  0
M  END
>  <CHROM.1>
162.86977687,89.03021096,-56.84098419,20.16546224,10.67883109,41.42338253
1.63779491,0.63797500,-0.79430075

>  <Name>
2f4s_lig

>  <RI>
0

>  <Rbt.Current_Directory>
/home/itssahil/PROJECTS/Mol_Feturizer/New_Systems/rnas/2f4s

>  <Rbt.Executable>
rbdock ($Id: //depot/dev/client3/rdock/2013.1/src/exe/rbdock.cxx#4 $)

>  <Rbt.Library>
libRbt.so (2013.1, Build901 2013/11/27)

>  <Rbt.Parameter_File>
/export/apps/rDock/src/rDock_2013.1_src/data/scripts/dock_solv.prm

>  <Rbt.Receptor>
prm/pocket_docking_8.prm

>  <SCORE>
-10.6791

>  <SCORE.INTER>
-15.0964

>  <SCORE.INTER.CONST>
1

>  <SCORE.INTER.POLAR>
-0.977342

>  <SCORE.INTER.ROT>
3

>  <SCORE.INTER.SOLV>
11.2041

>  <SCORE.INTER.VDW>
-16.1412

>  <SCORE.INTER.norm>
-0.6862

>  <SCORE.INTRA>
4.41734

>  <SCORE.INTRA.DIHEDRAL>
3.1682

>  <SCORE.INTRA.DIHEDRAL.0>
1.67653

>  <SCORE.INTRA.POLAR>
0

>  <SCORE.INTRA.POLAR.0>
0

>  <SCORE.INTRA.REPUL>
0

>  <SCORE.INTRA.REPUL.0>
0

>  <SCORE.INTRA.SOLV>
4.3569

>  <SCORE.INTRA.SOLV.lig_0>
-76.6701

>  <SCORE.INTRA.VDW>
0.654783

>  <SCORE.INTRA.VDW.0>
-1.53273

>  <SCORE.INTRA.norm>
0.200788

>  <SCORE.RESTR>
0

>  <SCORE.RESTR.CAVITY>
0

>  <SCORE.RESTR.norm>
0

>  <SCORE.SYSTEM>
0

>  <SCORE.SYSTEM.CONST>
0

>  <SCORE.SYSTEM.DIHEDRAL>
0

>  <SCORE.SYSTEM.SOLV>
0

>  <SCORE.SYSTEM.norm>
0

>  <SCORE.heavy>
22

>  <SCORE.norm>
-0.485412

>  <RMSD>
7.119

$$$$
2f4s_lig
 OpenBabel11021811433D
libRbt.so/2013.1/901 2013/11/27
 22 23  0  0  0  0  0  0  0  0999 V2000
   18.7084   14.8622   38.4756 N   0  0  0  0  0  0  0  0  0  0  0  0
   19.3712   12.1932   42.6724 N   0  0  0  0  0  0  0  0  0  0  0  0
   17.8152   10.0654   44.1379 N   0  0  0  0  0  0  0  0  0  0  0  0
   22.0215   11.1847   38.5555 O   0  0  0  0  0  0  0  0  0  0  0  0
   20.7390   11.6212   39.0917 C   0  0  2  0  0  0  0  0  0  0  0  0
   23.6311    8.8493   41.4684 N   0  0  0  0  0  0  0  0  0  0  0  0
   20.3220   12.9979   37.0936 O   0  0  0  0  0  0  0  0  0  0  0  0
   20.3736   13.0208   38.5250 C   0  0  1  0  0  0  0  0  0  0  0  0
   21.0411   10.3746   41.1806 O   0  0  0  0  0  0  0  0  0  0  0  0
   19.0213   13.4944   39.0436 C   0  0  1  0  0  0  0  0  0  0  0  0
   20.5836    9.9528   43.4072 O   0  0  0  0  0  0  0  0  0  0  0  0
   19.0481   13.5471   40.6087 C   0  0  0  0  0  0  0  0  0  0  0  0
   19.6353    6.4290   42.9959 O   0  0  0  0  0  0  0  0  0  0  0  0
   19.3826   12.1054   41.1534 C   0  0  1  0  0  0  0  0  0  0  0  0
   22.3840    6.3839   42.2521 O   0  0  0  0  0  0  0  0  0  0  0  0
   20.7789   11.6729   40.6701 C   0  0  2  0  0  0  0  0  0  0  0  0
   21.6882   10.1469   42.4200 C   0  0  1  0  0  0  0  0  0  0  0  0
   19.6686    8.8022   43.1625 C   0  0  2  0  0  0  0  0  0  0  0  0
   18.5991    8.7944   44.2589 C   0  0  0  0  0  0  0  0  0  0  0  0
   20.4827    7.5292   43.2269 C   0  0  2  0  0  0  0  0  0  0  0  0
   21.6035    7.5834   42.1903 C   0  0  1  0  0  0  0  0  0  0  0  0
   22.5067    8.8095   42.4712 C   0  0  1  0  0  0  0  0  0  0  0  0
  5  4  1  6  0  0  0
  5  8  1  0  0  0  0
  5 16  1  0  0  0  0
  8  7  1  6  0  0  0
  8 10  1  0  0  0  0
 10  1  1  6  0  0  0
 10 12  1  0  0  0  0
 11 18  1  0  0  0  0
 12 14  1  0  0  0  0
 14  2  1  1  0  0  0
 14 16  1  0  0  0  0
 16  9  1  1  0  0  0
 17  9  1  6  0  0  0
 17 11  1  0  0  0  0
 17 22  1  0  0  0  0
 18 19  1  1  0  0  0
 18 20  1  0  0  0  0
 19  3  1  0  0  0  0
 20 13  1  6  0  0  0
 20 21  1  0  0  0  0
 21 15  1  1  0  0  0
 21 22  1  0  0  0  0
 22  6  1  6  0  0  0
M  END
>  <CHROM.1>
152.13248765,95.47972825,62.61613548,20.44303424,10.43813111,41.30942594
1.74825020,0.65769550,-0.76949611

>  <Name>
2f4s_lig

>  <RI>
2.26097e+07

>  <Rbt.Current_Directory>
/home/itssahil/PROJECTS/Mol_Feturizer/New_Systems/rnas/2f4s

>  <Rbt.Executable>
rbdock ($Id: //depot/dev/client3/rdock/2013.1/src/exe/rbdock.cxx#4 $)

>  <Rbt.Library>
libRbt.so (2013.1, Build901 2013/11/27)

>  <Rbt.Parameter_File>
/export/apps/rDock/src/rDock_2013.1_src/data/scripts/dock_solv.prm

>  <Rbt.Receptor>
prm/pocket_docking_7.prm

>  <SCORE>
-9.24616

>  <SCORE.INTER>
-14.1194

>  <SCORE.INTER.CONST>
1

>  <SCORE.INTER.POLAR>
-0.979796

>  <SCORE.INTER.ROT>
3

>  <SCORE.INTER.SOLV>
12.4323

>  <SCORE.INTER.VDW>
-15.8911

>  <SCORE.INTER.norm>
-0.641792

>  <SCORE.INTRA>
4.87326

>  <SCORE.INTRA.DIHEDRAL>
6.14685

>  <SCORE.INTRA.DIHEDRAL.0>
1.67653

>  <SCORE.INTRA.POLAR>
0

>  <SCORE.INTRA.POLAR.0>
0

>  <SCORE.INTRA.REPUL>
0

>  <SCORE.INTRA.REPUL.0>
0

>  <SCORE.INTRA.SOLV>
4.48993

>  <SCORE.INTRA.SOLV.lig_0>
-76.6701

>  <SCORE.INTRA.VDW>
-0.445132

>  <SCORE.INTRA.VDW.0>
-1.53273

>  <SCORE.INTRA.norm>
0.221512

>  <SCORE.RESTR>
0

>  <SCORE.RESTR.CAVITY>
0

>  <SCORE.RESTR.norm>
0

>  <SCORE.SYSTEM>
0

>  <SCORE.SYSTEM.CONST>
0

>  <SCORE.SYSTEM.DIHEDRAL>
0

>  <SCORE.SYSTEM.SOLV>
0

>  <SCORE.SYSTEM.norm>
0

>  <SCORE.heavy>
22

>  <SCORE.norm>
-0.42028

>  <RMSD>
7.208

$$$$
2f4s_lig
 OpenBabel11021811433D
libRbt.so/2013.1/901 2013/11/27
 22 23  0  0  0  0  0  0  0  0999 V2000
   20.2294   14.0736   38.0614 N   0  0  0  0  0  0  0  0  0  0  0  0
   23.5125   17.0328   35.6866 N   0  0  0  0  0  0  0  0  0  0  0  0
   26.2868   14.7231   30.9873 N   0  0  0  0  0  0  0  0  0  0  0  0
   20.1828   14.3300   33.1178 O   0  0  0  0  0  0  0  0  0  0  0  0
   21.0486   14.3883   34.2882 C   0  0  2  0  0  0  0  0  0  0  0  0
   20.9795   18.2692   32.4230 N   0  0  0  0  0  0  0  0  0  0  0  0
   19.4919   12.9715   35.5653 O   0  0  0  0  0  0  0  0  0  0  0  0
   20.2070   14.2126   35.5822 C   0  0  1  0  0  0  0  0  0  0  0  0
   22.6552   15.8763   33.1867 O   0  0  0  0  0  0  0  0  0  0  0  0
   21.0877   14.2388   36.8254 C   0  0  1  0  0  0  0  0  0  0  0  0
   24.3991   16.7409   31.9392 O   0  0  0  0  0  0  0  0  0  0  0  0
   21.8734   15.5924   36.8843 C   0  0  0  0  0  0  0  0  0  0  0  0
   23.0306   15.8990   28.6371 O   0  0  0  0  0  0  0  0  0  0  0  0
   22.7462   15.7228   35.5773 C   0  0  1  0  0  0  0  0  0  0  0  0
   21.1225   17.7831   29.5962 O   0  0  0  0  0  0  0  0  0  0  0  0
   21.8335   15.7584   34.3381 C   0  0  2  0  0  0  0  0  0  0  0  0
   23.1962   17.1088   32.7454 C   0  0  1  0  0  0  0  0  0  0  0  0
   24.1583   15.9006   30.7322 C   0  0  2  0  0  0  0  0  0  0  0  0
   25.5078   15.6127   30.0674 C   0  0  0  0  0  0  0  0  0  0  0  0
   23.2718   16.6778   29.7848 C   0  0  2  0  0  0  0  0  0  0  0  0
   21.9633   17.0391   30.4856 C   0  0  1  0  0  0  0  0  0  0  0  0
   22.2700   17.8856   31.7455 C   0  0  1  0  0  0  0  0  0  0  0  0
  5  4  1  6  0  0  0
  5  8  1  0  0  0  0
  5 16  1  0  0  0  0
  8  7  1  6  0  0  0
  8 10  1  0  0  0  0
 10  1  1  1  0  0  0
 10 12  1  0  0  0  0
 11 18  1  0  0  0  0
 12 14  1  0  0  0  0
 14  2  1  1  0  0  0
 14 16  1  0  0  0  0
 16  9  1  6  0  0  0
 17  9  1  6  0  0  0
 17 11  1  0  0  0  0
 17 22  1  0  0  0  0
 18 19  1  6  0  0  0
 18 20  1  0  0  0  0
 19  3  1  0  0  0  0
 20 13  1  6  0  0  0
 20 21  1  0  0  0  0
 21 15  1  6  0  0  0
 21 22  1  0  0  0  0
 22  6  1  1  0  0  0
M  END
>  <CHROM.1>
162.27283399,156.33407070,67.77884121,22.30581820,15.80001974,33.05698113
-1.98155275,0.00467057,-1.24526697

>  <Name>
2f4s_lig

>  <RI>
0

>  <Rbt.Current_Directory>
/home/itssahil/PROJECTS/Mol_Feturizer/New_Systems/rnas/2f4s

>  <Rbt.Executable>
rbdock ($Id: //depot/dev/client3/rdock/2013.1/src/exe/rbdock.cxx#4 $)

>  <Rbt.Library>
libRbt.so (2013.1, Build901 2013/11/27)

>  <Rbt.Parameter_File>
/export/apps/rDock/src/rDock_2013.1_src/data/scripts/dock_solv.prm

>  <Rbt.Receptor>
prm/pocket_docking_8.prm

>  <SCORE>
-14.351

>  <SCORE.INTER>
-16.3888

>  <SCORE.INTER.CONST>
1

>  <SCORE.INTER.POLAR>
-1.1923

>  <SCORE.INTER.ROT>
3

>  <SCORE.INTER.SOLV>
17.3577

>  <SCORE.INTER.VDW>
-18.3374

>  <SCORE.INTER.norm>
-0.744945

>  <SCORE.INTRA>
2.03781

>  <SCORE.INTRA.DIHEDRAL>
2.48154

>  <SCORE.INTRA.DIHEDRAL.0>
1.67653

>  <SCORE.INTRA.POLAR>
0

>  <SCORE.INTRA.POLAR.0>
0

>  <SCORE.INTRA.REPUL>
0

>  <SCORE.INTRA.REPUL.0>
0

>  <SCORE.INTRA.SOLV>
1.60551

>  <SCORE.INTRA.SOLV.lig_0>
-76.6701

>  <SCORE.INTRA.VDW>
-0.0057198

>  <SCORE.INTRA.VDW.0>
-1.53273

>  <SCORE.INTRA.norm>
0.0926275

>  <SCORE.RESTR>
0

>  <SCORE.RESTR.CAVITY>
0

>  <SCORE.RESTR.norm>
0

>  <SCORE.SYSTEM>
0

>  <SCORE.SYSTEM.CONST>
0

>  <SCORE.SYSTEM.DIHEDRAL>
0

>  <SCORE.SYSTEM.SOLV>
0

>  <SCORE.SYSTEM.norm>
0

>  <SCORE.heavy>
22

>  <SCORE.norm>
-0.652317

>  <RMSD>
7.297

$$$$
2f4s_lig
 OpenBabel11021811433D
libRbt.so/2013.1/901 2013/11/27
 22 23  0  0  0  0  0  0  0  0999 V2000
   20.7011   12.8156   37.7790 N   0  0  0  0  0  0  0  0  0  0  0  0
   18.1661   14.4175   33.7562 N   0  0  0  0  0  0  0  0  0  0  0  0
   18.9859   13.0676   29.2328 N   0  0  0  0  0  0  0  0  0  0  0  0
   22.9837   15.5979   34.3796 O   0  0  0  0  0  0  0  0  0  0  0  0
   21.7033   15.3562   35.0317 C   0  0  2  0  0  0  0  0  0  0  0  0
   20.7781   18.8514   31.9248 N   0  0  0  0  0  0  0  0  0  0  0  0
   22.8386   14.5141   37.0475 O   0  0  0  0  0  0  0  0  0  0  0  0
   21.8416   14.2056   36.0663 C   0  0  1  0  0  0  0  0  0  0  0  0
   20.4213   16.0813   33.0722 O   0  0  0  0  0  0  0  0  0  0  0  0
   20.5251   13.9470   36.7888 C   0  0  1  0  0  0  0  0  0  0  0  0
   21.3817   15.2022   31.1618 O   0  0  0  0  0  0  0  0  0  0  0  0
   19.4141   13.5895   35.7444 C   0  0  0  0  0  0  0  0  0  0  0  0
   18.4809   15.6747   28.9602 O   0  0  0  0  0  0  0  0  0  0  0  0
   19.2709   14.7914   34.7334 C   0  0  1  0  0  0  0  0  0  0  0  0
   19.1795   18.3629   29.5895 O   0  0  0  0  0  0  0  0  0  0  0  0
   20.5917   14.9944   33.9690 C   0  0  2  0  0  0  0  0  0  0  0  0
   21.3553   16.3991   32.0557 C   0  0  1  0  0  0  0  0  0  0  0  0
   20.0987   14.8434   30.4940 C   0  0  2  0  0  0  0  0  0  0  0  0
   20.3280   13.5837   29.6531 C   0  0  0  0  0  0  0  0  0  0  0  0
   19.6937   15.9939   29.5998 C   0  0  2  0  0  0  0  0  0  0  0  0
   19.5545   17.2672   30.4323 C   0  0  1  0  0  0  0  0  0  0  0  0
   20.9032   17.5794   31.1263 C   0  0  1  0  0  0  0  0  0  0  0  0
  5  4  1  6  0  0  0
  5  8  1  0  0  0  0
  5 16  1  0  0  0  0
  8  7  1  1  0  0  0
  8 10  1  0  0  0  0
 10  1  1  1  0  0  0
 10 12  1  0  0  0  0
 11 18  1  0  0  0  0
 12 14  1  0  0  0  0
 14  2  1  6  0  0  0
 14 16  1  0  0  0  0
 16  9  1  6  0  0  0
 17  9  1  1  0  0  0
 17 11  1  0  0  0  0
 17 22  1  0  0  0  0
 18 19  1  6  0  0  0
 18 20  1  0  0  0  0
 19  3  1  0  0  0  0
 20 13  1  1  0  0  0
 20 21  1  0  0  0  0
 21 15  1  6  0  0  0
 21 22  1  0  0  0  0
 22  6  1  1  0  0  0
M  END
>  <CHROM.1>
74.20228815,61.94989792,167.94220538,20.43149310,15.33974135,32.82111201
1.13858095,1.00288721,2.24635794

>  <Name>
2f4s_lig

>  <RI>
0

>  <Rbt.Current_Directory>
/home/itssahil/PROJECTS/Mol_Feturizer/New_Systems/rnas/2f4s

>  <Rbt.Executable>
rbdock ($Id: //depot/dev/client3/rdock/2013.1/src/exe/rbdock.cxx#4 $)

>  <Rbt.Library>
libRbt.so (2013.1, Build901 2013/11/27)

>  <Rbt.Parameter_File>
/export/apps/rDock/src/rDock_2013.1_src/data/scripts/dock_solv.prm

>  <Rbt.Receptor>
prm/pocket_docking_8.prm

>  <SCORE>
-7.26714

>  <SCORE.INTER>
-7.91895

>  <SCORE.INTER.CONST>
1

>  <SCORE.INTER.POLAR>
-0.939774

>  <SCORE.INTER.ROT>
3

>  <SCORE.INTER.SOLV>
11.0329

>  <SCORE.INTER.VDW>
-11.4244

>  <SCORE.INTER.norm>
-0.359952

>  <SCORE.INTRA>
0.651813

>  <SCORE.INTRA.DIHEDRAL>
-0.0561033

>  <SCORE.INTRA.DIHEDRAL.0>
1.67653

>  <SCORE.INTRA.POLAR>
0

>  <SCORE.INTRA.POLAR.0>
0

>  <SCORE.INTRA.REPUL>
0

>  <SCORE.INTRA.REPUL.0>
0

>  <SCORE.INTRA.SOLV>
1.01953

>  <SCORE.INTRA.SOLV.lig_0>
-76.6701

>  <SCORE.INTRA.VDW>
0.1701

>  <SCORE.INTRA.VDW.0>
-1.53273

>  <SCORE.INTRA.norm>
0.0296279

>  <SCORE.RESTR>
0

>  <SCORE.RESTR.CAVITY>
0

>  <SCORE.RESTR.norm>
0

>  <SCORE.SYSTEM>
0

>  <SCORE.SYSTEM.CONST>
0

>  <SCORE.SYSTEM.DIHEDRAL>
0

>  <SCORE.SYSTEM.SOLV>
0

>  <SCORE.SYSTEM.norm>
0

>  <SCORE.heavy>
22

>  <SCORE.norm>
-0.330325

>  <RMSD>
7.384

$$$$
2f4s_lig
 OpenBabel11021811433D
libRbt.so/2013.1/901 2013/11/27
 22 23  0  0  0  0  0  0  0  0999 V2000
   25.8978   15.3863   28.0608 N   0  0  0  0  0  0  0  0  0  0  0  0
   21.5456   17.4356   29.4871 N   0  0  0  0  0  0  0  0  0  0  0  0
   21.8740   21.7926   33.6505 N   0  0  0  0  0  0  0  0  0  0  0  0
   25.0728   16.3249   32.8510 O   0  0  0  0  0  0  0  0  0  0  0  0
   24.4283   15.9402   31.6022 C   0  0  2  0  0  0  0  0  0  0  0  0
   21.0375   15.9897   34.7963 N   0  0  0  0  0  0  0  0  0  0  0  0
   26.5202   14.9348   30.7808 O   0  0  0  0  0  0  0  0  0  0  0  0
   25.4800   15.8664   30.4611 C   0  0  1  0  0  0  0  0  0  0  0  0
   22.2964   16.9721   32.2336 O   0  0  0  0  0  0  0  0  0  0  0  0
   24.8428   15.4369   29.1453 C   0  0  1  0  0  0  0  0  0  0  0  0
   22.5469   19.0594   33.1956 O   0  0  0  0  0  0  0  0  0  0  0  0
   23.7094   16.4455   28.7565 C   0  0  0  0  0  0  0  0  0  0  0  0
   19.0269   20.0766   32.9492 O   0  0  0  0  0  0  0  0  0  0  0  0
   22.6397   16.4686   29.9151 C   0  0  1  0  0  0  0  0  0  0  0  0
   18.8736   17.8774   34.7520 O   0  0  0  0  0  0  0  0  0  0  0  0
   23.2893   16.9658   31.2193 C   0  0  2  0  0  0  0  0  0  0  0  0
   22.4800   17.5964   33.4918 C   0  0  1  0  0  0  0  0  0  0  0  0
   21.3392   19.6658   32.5674 C   0  0  2  0  0  0  0  0  0  0  0  0
   21.6181   21.1517   32.3208 C   0  0  0  0  0  0  0  0  0  0  0  0
   20.1798   19.5107   33.5260 C   0  0  2  0  0  0  0  0  0  0  0  0
   19.9652   18.0306   33.8374 C   0  0  1  0  0  0  0  0  0  0  0  0
   21.2553   17.4426   34.4603 C   0  0  1  0  0  0  0  0  0  0  0  0
  5  4  1  1  0  0  0
  5  8  1  0  0  0  0
  5 16  1  0  0  0  0
  8  7  1  1  0  0  0
  8 10  1  0  0  0  0
 10  1  1  6  0  0  0
 10 12  1  0  0  0  0
 11 18  1  0  0  0  0
 12 14  1  0  0  0  0
 14  2  1  6  0  0  0
 14 16  1  0  0  0  0
 16  9  1  1  0  0  0
 17  9  1  6  0  0  0
 17 11  1  0  0  0  0
 17 22  1  0  0  0  0
 18 19  1  1  0  0  0
 18 20  1  0  0  0  0
 19  3  1  0  0  0  0
 20 13  1  6  0  0  0
 20 21  1  0  0  0  0
 21 15  1  1  0  0  0
 21 22  1  0  0  0  0
 22  6  1  6  0  0  0
M  END
>  <CHROM.1>
74.95651069,67.35695337,-61.32130835,22.53438059,17.57022756,32.03240997
0.09414968,0.83447864,-0.87975113

>  <Name>
2f4s_lig

>  <RI>
0

>  <Rbt.Current_Directory>
/home/itssahil/PROJECTS/Mol_Feturizer/New_Systems/rnas/2f4s

>  <Rbt.Executable>
rbdock ($Id: //depot/dev/client3/rdock/2013.1/src/exe/rbdock.cxx#4 $)

>  <Rbt.Library>
libRbt.so (2013.1, Build901 2013/11/27)

>  <Rbt.Parameter_File>
/export/apps/rDock/src/rDock_2013.1_src/data/scripts/dock_solv.prm

>  <Rbt.Receptor>
prm/pocket_docking_8.prm

>  <SCORE>
-16.9411

>  <SCORE.INTER>
-17.7967

>  <SCORE.INTER.CONST>
1

>  <SCORE.INTER.POLAR>
-1.07211

>  <SCORE.INTER.ROT>
3

>  <SCORE.INTER.SOLV>
18.3496

>  <SCORE.INTER.VDW>
-20.0073

>  <SCORE.INTER.norm>
-0.808939

>  <SCORE.INTRA>
0.855507

>  <SCORE.INTRA.DIHEDRAL>
-0.216254

>  <SCORE.INTRA.DIHEDRAL.0>
1.67653

>  <SCORE.INTRA.POLAR>
0

>  <SCORE.INTRA.POLAR.0>
0

>  <SCORE.INTRA.REPUL>
0

>  <SCORE.INTRA.REPUL.0>
0

>  <SCORE.INTRA.SOLV>
1.72023

>  <SCORE.INTRA.SOLV.lig_0>
-76.6701

>  <SCORE.INTRA.VDW>
0.103518

>  <SCORE.INTRA.VDW.0>
-1.53273

>  <SCORE.INTRA.norm>
0.0388867

>  <SCORE.RESTR>
0

>  <SCORE.RESTR.CAVITY>
0

>  <SCORE.RESTR.norm>
0

>  <SCORE.SYSTEM>
0

>  <SCORE.SYSTEM.CONST>
0

>  <SCORE.SYSTEM.DIHEDRAL>
0

>  <SCORE.SYSTEM.SOLV>
0

>  <SCORE.SYSTEM.norm>
0

>  <SCORE.heavy>
22

>  <SCORE.norm>
-0.770052

>  <RMSD>
7.490

$$$$
2f4s_lig
 OpenBabel11021811433D
libRbt.so/2013.1/901 2013/11/27
 22 23  0  0  0  0  0  0  0  0999 V2000
   27.9674   14.1408   27.9317 N   0  0  0  0  0  0  0  0  0  0  0  0
   25.3311   15.3480   32.0266 N   0  0  0  0  0  0  0  0  0  0  0  0
   23.0870   16.5188   35.4648 N   0  0  0  0  0  0  0  0  0  0  0  0
   23.4036   16.0000   27.4604 O   0  0  0  0  0  0  0  0  0  0  0  0
   24.6064   16.0350   28.2819 C   0  0  2  0  0  0  0  0  0  0  0  0
   21.0000   18.2625   29.4706 N   0  0  0  0  0  0  0  0  0  0  0  0
   25.9978   15.4086   26.3498 O   0  0  0  0  0  0  0  0  0  0  0  0
   25.6749   15.0672   27.7029 C   0  0  1  0  0  0  0  0  0  0  0  0
   23.3556   16.5750   30.3196 O   0  0  0  0  0  0  0  0  0  0  0  0
   26.9586   15.1021   28.5232 C   0  0  1  0  0  0  0  0  0  0  0  0
   22.0410   15.6290   31.9694 O   0  0  0  0  0  0  0  0  0  0  0  0
   26.6439   14.7165   30.0082 C   0  0  0  0  0  0  0  0  0  0  0  0
   22.0836   18.5000   34.2587 O   0  0  0  0  0  0  0  0  0  0  0  0
   25.5874   15.7391   30.5786 C   0  0  1  0  0  0  0  0  0  0  0  0
   20.6974   19.5667   32.0113 O   0  0  0  0  0  0  0  0  0  0  0  0
   24.2771   15.6422   29.7762 C   0  0  2  0  0  0  0  0  0  0  0  0
   22.0078   16.2507   30.6112 C   0  0  1  0  0  0  0  0  0  0  0  0
   22.5451   16.4854   33.0799 C   0  0  2  0  0  0  0  0  0  0  0  0
   22.5266   15.6617   34.3713 C   0  0  0  0  0  0  0  0  0  0  0  0
   21.6225   17.6762   33.2143 C   0  0  2  0  0  0  0  0  0  0  0  0
   21.5767   18.4421   31.8933 C   0  0  1  0  0  0  0  0  0  0  0  0
   21.0750   17.5021   30.7696 C   0  0  1  0  0  0  0  0  0  0  0  0
  5  4  1  6  0  0  0
  5  8  1  0  0  0  0
  5 16  1  0  0  0  0
  8  7  1  6  0  0  0
  8 10  1  0  0  0  0
 10  1  1  6  0  0  0
 10 12  1  0  0  0  0
 11 18  1  0  0  0  0
 12 14  1  0  0  0  0
 14  2  1  1  0  0  0
 14 16  1  0  0  0  0
 16  9  1  1  0  0  0
 17  9  1  1  0  0  0
 17 11  1  0  0  0  0
 17 22  1  0  0  0  0
 18 19  1  1  0  0  0
 18 20  1  0  0  0  0
 19  3  1  0  0  0  0
 20 13  1  1  0  0  0
 20 21  1  0  0  0  0
 21 15  1  1  0  0  0
 21 22  1  0  0  0  0
 22  6  1  6  0  0  0
M  END
>  <CHROM.1>
109.80773162,84.14234602,177.77553750,23.61364648,16.39715577,30.72701174
-0.75116079,-0.58245170,1.64186194

>  <Name>
2f4s_lig

>  <RI>
0

>  <Rbt.Current_Directory>
/home/itssahil/PROJECTS/Mol_Feturizer/New_Systems/rnas/2f4s

>  <Rbt.Executable>
rbdock ($Id: //depot/dev/client3/rdock/2013.1/src/exe/rbdock.cxx#4 $)

>  <Rbt.Library>
libRbt.so (2013.1, Build901 2013/11/27)

>  <Rbt.Parameter_File>
/export/apps/rDock/src/rDock_2013.1_src/data/scripts/dock_solv.prm

>  <Rbt.Receptor>
prm/blind_docking_80.prm

>  <SCORE>
-7.3207

>  <SCORE.INTER>
-14.0315

>  <SCORE.INTER.CONST>
1

>  <SCORE.INTER.POLAR>
-0.698359

>  <SCORE.INTER.ROT>
3

>  <SCORE.INTER.SOLV>
22.8606

>  <SCORE.INTER.VDW>
-20.2466

>  <SCORE.INTER.norm>
-0.637794

>  <SCORE.INTRA>
5.64798

>  <SCORE.INTRA.DIHEDRAL>
7.56855

>  <SCORE.INTRA.DIHEDRAL.0>
1.67653

>  <SCORE.INTRA.POLAR>
0

>  <SCORE.INTRA.POLAR.0>
0

>  <SCORE.INTRA.REPUL>
0

>  <SCORE.INTRA.REPUL.0>
0

>  <SCORE.INTRA.SOLV>
3.63506

>  <SCORE.INTRA.SOLV.lig_0>
-76.6701

>  <SCORE.INTRA.VDW>
0.0461805

>  <SCORE.INTRA.VDW.0>
-1.53273

>  <SCORE.INTRA.norm>
0.256727

>  <SCORE.RESTR>
1.06278

>  <SCORE.RESTR.CAVITY>
1.06278

>  <SCORE.RESTR.norm>
0.0483081

>  <SCORE.SYSTEM>
0

>  <SCORE.SYSTEM.CONST>
0

>  <SCORE.SYSTEM.DIHEDRAL>
0

>  <SCORE.SYSTEM.SOLV>
0

>  <SCORE.SYSTEM.norm>
0

>  <SCORE.heavy>
22

>  <SCORE.norm>
-0.332759

>  <RMSD>
7.645

$$$$
2f4s_lig
 OpenBabel11021811433D
libRbt.so/2013.1/901 2013/11/27
 22 23  0  0  0  0  0  0  0  0999 V2000
   27.9020   13.9228   27.9818 N   0  0  0  0  0  0  0  0  0  0  0  0
   25.4655   15.8994   31.8975 N   0  0  0  0  0  0  0  0  0  0  0  0
   21.6669   15.4065   34.7511 N   0  0  0  0  0  0  0  0  0  0  0  0
   23.1698   15.2940   27.4982 O   0  0  0  0  0  0  0  0  0  0  0  0
   24.4199   15.6093   28.1769 C   0  0  2  0  0  0  0  0  0  0  0  0
   20.7715   18.1053   29.5002 N   0  0  0  0  0  0  0  0  0  0  0  0
   25.7211   14.6319   26.3295 O   0  0  0  0  0  0  0  0  0  0  0  0
   25.5261   14.6062   27.7484 C   0  0  1  0  0  0  0  0  0  0  0  0
   23.2735   16.5384   30.1343 O   0  0  0  0  0  0  0  0  0  0  0  0
   26.8565   14.9266   28.4187 C   0  0  1  0  0  0  0  0  0  0  0  0
   22.2200   15.6758   32.0028 O   0  0  0  0  0  0  0  0  0  0  0  0
   26.6829   14.8908   29.9748 C   0  0  0  0  0  0  0  0  0  0  0  0
   22.4679   18.6974   34.0750 O   0  0  0  0  0  0  0  0  0  0  0  0
   25.5832   15.9456   30.3811 C   0  0  1  0  0  0  0  0  0  0  0  0
   20.7629   19.5730   31.9687 O   0  0  0  0  0  0  0  0  0  0  0  0
   24.2331   15.5676   29.7451 C   0  0  2  0  0  0  0  0  0  0  0  0
   21.9875   16.2019   30.6238 C   0  0  1  0  0  0  0  0  0  0  0  0
   22.8372   16.6186   32.9781 C   0  0  2  0  0  0  0  0  0  0  0  0
   23.0165   15.8853   34.3110 C   0  0  0  0  0  0  0  0  0  0  0  0
   21.9011   17.7928   33.1572 C   0  0  2  0  0  0  0  0  0  0  0  0
   21.6560   18.4649   31.8074 C   0  0  1  0  0  0  0  0  0  0  0  0
   21.0423   17.4379   30.8241 C   0  0  1  0  0  0  0  0  0  0  0  0
  5  4  1  6  0  0  0
  5  8  1  0  0  0  0
  5 16  1  0  0  0  0
  8  7  1  6  0  0  0
  8 10  1  0  0  0  0
 10  1  1  1  0  0  0
 10 12  1  0  0  0  0
 11 18  1  0  0  0  0
 12 14  1  0  0  0  0
 14  2  1  1  0  0  0
 14 16  1  0  0  0  0
 16  9  1  6  0  0  0
 17  9  1  1  0  0  0
 17 11  1  0  0  0  0
 17 22  1  0  0  0  0
 18 19  1  1  0  0  0
 18 20  1  0  0  0  0
 19  3  1  0  0  0  0
 20 13  1  1  0  0  0
 20 21  1  0  0  0  0
 21 15  1  1  0  0  0
 21 22  1  0  0  0  0
 22  6  1  6  0  0  0
M  END
>  <CHROM.1>
110.32361280,73.05994052,-58.05720511,23.57277733,16.27510170,30.64580610
-0.77312470,-0.56650315,1.54798267

>  <Name>
2f4s_lig

>  <RI>
0

>  <Rbt.Current_Directory>
/home/itssahil/PROJECTS/Mol_Feturizer/New_Systems/rnas/2f4s

>  <Rbt.Executable>
rbdock ($Id: //depot/dev/client3/rdock/2013.1/src/exe/rbdock.cxx#4 $)

>  <Rbt.Library>
libRbt.so (2013.1, Build901 2013/11/27)

>  <Rbt.Parameter_File>
/export/apps/rDock/src/rDock_2013.1_src/data/scripts/dock_solv.prm

>  <Rbt.Receptor>
prm/blind_docking_80.prm

>  <SCORE>
-8.41237

>  <SCORE.INTER>
-13.9522

>  <SCORE.INTER.CONST>
1

>  <SCORE.INTER.POLAR>
-0.610385

>  <SCORE.INTER.ROT>
3

>  <SCORE.INTER.SOLV>
22.4356

>  <SCORE.INTER.VDW>
-20.3454

>  <SCORE.INTER.norm>
-0.634192

>  <SCORE.INTRA>
4.6562

>  <SCORE.INTRA.DIHEDRAL>
5.96711

>  <SCORE.INTRA.DIHEDRAL.0>
1.67653

>  <SCORE.INTRA.POLAR>
0

>  <SCORE.INTRA.POLAR.0>
0

>  <SCORE.INTRA.REPUL>
0

>  <SCORE.INTRA.REPUL.0>
0

>  <SCORE.INTRA.SOLV>
3.96465

>  <SCORE.INTRA.SOLV.lig_0>
-76.6701

>  <SCORE.INTRA.VDW>
-0.309677

>  <SCORE.INTRA.VDW.0>
-1.53273

>  <SCORE.INTRA.norm>
0.211646

>  <SCORE.RESTR>
0.883643

>  <SCORE.RESTR.CAVITY>
0.883643

>  <SCORE.RESTR.norm>
0.0401656

>  <SCORE.SYSTEM>
0

>  <SCORE.SYSTEM.CONST>
0

>  <SCORE.SYSTEM.DIHEDRAL>
0

>  <SCORE.SYSTEM.SOLV>
0

>  <SCORE.SYSTEM.norm>
0

>  <SCORE.heavy>
22

>  <SCORE.norm>
-0.38238

>  <RMSD>
7.717

$$$$
2f4s_lig
 OpenBabel11021811433D
libRbt.so/2013.1/901 2013/11/27
 22 23  0  0  0  0  0  0  0  0999 V2000
   27.9070   13.9286   27.9692 N   0  0  0  0  0  0  0  0  0  0  0  0
   25.4752   15.8857   31.8976 N   0  0  0  0  0  0  0  0  0  0  0  0
   21.6761   15.4653   34.7872 N   0  0  0  0  0  0  0  0  0  0  0  0
   23.1746   15.3031   27.4978 O   0  0  0  0  0  0  0  0  0  0  0  0
   24.4255   15.6148   28.1768 C   0  0  2  0  0  0  0  0  0  0  0  0
   20.7722   18.0856   29.4969 N   0  0  0  0  0  0  0  0  0  0  0  0
   25.7244   14.6465   26.3230 O   0  0  0  0  0  0  0  0  0  0  0  0
   25.5310   14.6136   27.7419 C   0  0  1  0  0  0  0  0  0  0  0  0
   23.2814   16.5340   30.1402 O   0  0  0  0  0  0  0  0  0  0  0  0
   26.8622   14.9304   28.4124 C   0  0  1  0  0  0  0  0  0  0  0  0
   22.2327   15.6795   32.0150 O   0  0  0  0  0  0  0  0  0  0  0  0
   26.6903   14.8866   29.9685 C   0  0  0  0  0  0  0  0  0  0  0  0
   22.4683   18.7160   34.0667 O   0  0  0  0  0  0  0  0  0  0  0  0
   25.5912   15.9395   30.3814 C   0  0  1  0  0  0  0  0  0  0  0  0
   20.7583   19.5698   31.9554 O   0  0  0  0  0  0  0  0  0  0  0  0
   24.2404   15.5650   29.7450 C   0  0  2  0  0  0  0  0  0  0  0  0
   21.9971   16.1952   30.6326 C   0  0  1  0  0  0  0  0  0  0  0  0
   22.8462   16.6315   32.9836 C   0  0  2  0  0  0  0  0  0  0  0  0
   23.0293   15.9080   34.3213 C   0  0  0  0  0  0  0  0  0  0  0  0
   21.9049   17.8028   33.1553 C   0  0  2  0  0  0  0  0  0  0  0  0
   21.6563   18.4646   31.8010 C   0  0  1  0  0  0  0  0  0  0  0  0
   21.0466   17.4284   30.8251 C   0  0  1  0  0  0  0  0  0  0  0  0
  5  4  1  6  0  0  0
  5  8  1  0  0  0  0
  5 16  1  0  0  0  0
  8  7  1  6  0  0  0
  8 10  1  0  0  0  0
 10  1  1  6  0  0  0
 10 12  1  0  0  0  0
 11 18  1  0  0  0  0
 12 14  1  0  0  0  0
 14  2  1  1  0  0  0
 14 16  1  0  0  0  0
 16  9  1  6  0  0  0
 17  9  1  1  0  0  0
 17 11  1  0  0  0  0
 17 22  1  0  0  0  0
 18 19  1  1  0  0  0
 18 20  1  0  0  0  0
 19  3  1  0  0  0  0
 20 13  1  1  0  0  0
 20 21  1  0  0  0  0
 21 15  1  1  0  0  0
 21 22  1  0  0  0  0
 22  6  1  6  0  0  0
M  END
>  <CHROM.1>
110.49171074,73.68353049,-59.86733851,23.57851852,16.27994710,30.64611970
-0.77634872,-0.56386269,1.54461916

>  <Name>
2f4s_lig

>  <RI>
0

>  <Rbt.Current_Directory>
/home/itssahil/PROJECTS/Mol_Feturizer/New_Systems/rnas/2f4s

>  <Rbt.Executable>
rbdock ($Id: //depot/dev/client3/rdock/2013.1/src/exe/rbdock.cxx#4 $)

>  <Rbt.Library>
libRbt.so (2013.1, Build901 2013/11/27)

>  <Rbt.Parameter_File>
/export/apps/rDock/src/rDock_2013.1_src/data/scripts/dock_solv.prm

>  <Rbt.Receptor>
prm/blind_docking_80.prm

>  <SCORE>
-8.44959

>  <SCORE.INTER>
-14.0488

>  <SCORE.INTER.CONST>
1

>  <SCORE.INTER.POLAR>
-0.603683

>  <SCORE.INTER.ROT>
3

>  <SCORE.INTER.SOLV>
22.3112

>  <SCORE.INTER.VDW>
-20.3907

>  <SCORE.INTER.norm>
-0.638582

>  <SCORE.INTRA>
4.71168

>  <SCORE.INTRA.DIHEDRAL>
6.04079

>  <SCORE.INTRA.DIHEDRAL.0>
1.67653

>  <SCORE.INTRA.POLAR>
0

>  <SCORE.INTRA.POLAR.0>
0

>  <SCORE.INTRA.REPUL>
0

>  <SCORE.INTRA.REPUL.0>
0

>  <SCORE.INTRA.SOLV>
3.98457

>  <SCORE.INTRA.SOLV.lig_0>
-76.6701

>  <SCORE.INTRA.VDW>
-0.300997

>  <SCORE.INTRA.VDW.0>
-1.53273

>  <SCORE.INTRA.norm>
0.214167

>  <SCORE.RESTR>
0.887524

>  <SCORE.RESTR.CAVITY>
0.887524

>  <SCORE.RESTR.norm>
0.040342

>  <SCORE.SYSTEM>
0

>  <SCORE.SYSTEM.CONST>
0

>  <SCORE.SYSTEM.DIHEDRAL>
0

>  <SCORE.SYSTEM.SOLV>
0

>  <SCORE.SYSTEM.norm>
0

>  <SCORE.heavy>
22

>  <SCORE.norm>
-0.384072

>  <RMSD>
7.721

$$$$
2f4s_lig
 OpenBabel11021811433D
libRbt.so/2013.1/901 2013/11/27
 22 23  0  0  0  0  0  0  0  0999 V2000
   20.4040   12.8377   37.5073 N   0  0  0  0  0  0  0  0  0  0  0  0
   23.0747    9.4808   40.1101 N   0  0  0  0  0  0  0  0  0  0  0  0
   24.9865   10.4467   45.1560 N   0  0  0  0  0  0  0  0  0  0  0  0
   19.0859   11.7051   42.1427 O   0  0  0  0  0  0  0  0  0  0  0  0
   20.2275   11.8505   41.2492 C   0  0  2  0  0  0  0  0  0  0  0  0
   19.5916    7.8943   42.6896 N   0  0  0  0  0  0  0  0  0  0  0  0
   18.9998   13.4825   39.8741 O   0  0  0  0  0  0  0  0  0  0  0  0
   19.7443   12.2595   39.8305 C   0  0  1  0  0  0  0  0  0  0  0  0
   21.5518   10.1793   42.4584 O   0  0  0  0  0  0  0  0  0  0  0  0
   20.9179   12.4492   38.8772 C   0  0  1  0  0  0  0  0  0  0  0  0
   22.9999    9.0343   43.8501 O   0  0  0  0  0  0  0  0  0  0  0  0
   21.7460   11.1224   38.7927 C   0  0  0  0  0  0  0  0  0  0  0  0
   21.1920    9.6766   46.9814 O   0  0  0  0  0  0  0  0  0  0  0  0
   22.2541   10.7555   40.2399 C   0  0  1  0  0  0  0  0  0  0  0  0
   19.3188    8.0860   45.5421 O   0  0  0  0  0  0  0  0  0  0  0  0
   21.0531   10.5059   41.1702 C   0  0  2  0  0  0  0  0  0  0  0  0
   21.9161    8.8635   42.8360 C   0  0  1  0  0  0  0  0  0  0  0  0
   22.6364    9.7719   45.0931 C   0  0  2  0  0  0  0  0  0  0  0  0
   23.8808    9.8632   45.9815 C   0  0  0  0  0  0  0  0  0  0  0  0
   21.5513    8.9941   45.8036 C   0  0  2  0  0  0  0  0  0  0  0  0
   20.3472    8.8296   44.8779 C   0  0  1  0  0  0  0  0  0  0  0  0
   20.7834    8.0848   43.5922 C   0  0  1  0  0  0  0  0  0  0  0  0
  5  4  1  1  0  0  0
  5  8  1  0  0  0  0
  5 16  1  0  0  0  0
  8  7  1  1  0  0  0
  8 10  1  0  0  0  0
 10  1  1  6  0  0  0
 10 12  1  0  0  0  0
 11 18  1  0  0  0  0
 12 14  1  0  0  0  0
 14  2  1  6  0  0  0
 14 16  1  0  0  0  0
 16  9  1  1  0  0  0
 17  9  1  1  0  0  0
 17 11  1  0  0  0  0
 17 22  1  0  0  0  0
 18 19  1  1  0  0  0
 18 20  1  0  0  0  0
 19  3  1  0  0  0  0
 20 13  1  1  0  0  0
 20 21  1  0  0  0  0
 21 15  1  1  0  0  0
 21 22  1  0  0  0  0
 22  6  1  6  0  0  0
M  END
>  <CHROM.1>
157.44079543,150.21875786,53.14803997,21.26009630,10.28512723,42.52656713
-1.77811665,-0.01916303,2.02209217

>  <Name>
2f4s_lig

>  <RI>
0

>  <Rbt.Current_Directory>
/home/itssahil/PROJECTS/Mol_Feturizer/New_Systems/rnas/2f4s

>  <Rbt.Executable>
rbdock ($Id: //depot/dev/client3/rdock/2013.1/src/exe/rbdock.cxx#4 $)

>  <Rbt.Library>
libRbt.so (2013.1, Build901 2013/11/27)

>  <Rbt.Parameter_File>
/export/apps/rDock/src/rDock_2013.1_src/data/scripts/dock_solv.prm

>  <Rbt.Receptor>
prm/pocket_docking_8.prm

>  <SCORE>
-13.4104

>  <SCORE.INTER>
-16.308

>  <SCORE.INTER.CONST>
1

>  <SCORE.INTER.POLAR>
-2.33552

>  <SCORE.INTER.ROT>
3

>  <SCORE.INTER.SOLV>
16.914

>  <SCORE.INTER.VDW>
-14.3249

>  <SCORE.INTER.norm>
-0.741271

>  <SCORE.INTRA>
2.89338

>  <SCORE.INTRA.DIHEDRAL>
4.30134

>  <SCORE.INTRA.DIHEDRAL.0>
1.67653

>  <SCORE.INTRA.POLAR>
0

>  <SCORE.INTRA.POLAR.0>
0

>  <SCORE.INTRA.REPUL>
0

>  <SCORE.INTRA.REPUL.0>
0

>  <SCORE.INTRA.SOLV>
1.56163

>  <SCORE.INTRA.SOLV.lig_0>
-76.6701

>  <SCORE.INTRA.VDW>
-0.0381045

>  <SCORE.INTRA.VDW.0>
-1.53273

>  <SCORE.INTRA.norm>
0.131517

>  <SCORE.RESTR>
0.00418411

>  <SCORE.RESTR.CAVITY>
0.00418411

>  <SCORE.RESTR.norm>
0.000190187

>  <SCORE.SYSTEM>
0

>  <SCORE.SYSTEM.CONST>
0

>  <SCORE.SYSTEM.DIHEDRAL>
0

>  <SCORE.SYSTEM.SOLV>
0

>  <SCORE.SYSTEM.norm>
0

>  <SCORE.heavy>
22

>  <SCORE.norm>
-0.609563

>  <RMSD>
7.722

$$$$
2f4s_lig
 OpenBabel11021811433D
libRbt.so/2013.1/901 2013/11/27
 22 23  0  0  0  0  0  0  0  0999 V2000
   25.5982   14.8410   26.1702 N   0  0  0  0  0  0  0  0  0  0  0  0
   22.7714   17.2005   29.5787 N   0  0  0  0  0  0  0  0  0  0  0  0
   20.1810   18.7372   32.3029 N   0  0  0  0  0  0  0  0  0  0  0  0
   26.8694   14.6886   30.9523 O   0  0  0  0  0  0  0  0  0  0  0  0
   25.7343   14.7454   30.0406 C   0  0  2  0  0  0  0  0  0  0  0  0
   25.0495   16.1302   34.5815 N   0  0  0  0  0  0  0  0  0  0  0  0
   27.0377   13.6257   28.2773 O   0  0  0  0  0  0  0  0  0  0  0  0
   26.2338   14.7747   28.5698 C   0  0  1  0  0  0  0  0  0  0  0  0
   24.3321   15.9446   31.6544 O   0  0  0  0  0  0  0  0  0  0  0  0
   25.0688   14.8043   27.5880 C   0  0  1  0  0  0  0  0  0  0  0  0
   22.7971   17.6468   31.9567 O   0  0  0  0  0  0  0  0  0  0  0  0
   24.1763   16.0602   27.8694 C   0  0  0  0  0  0  0  0  0  0  0  0
   20.2462   15.6329   33.6663 O   0  0  0  0  0  0  0  0  0  0  0  0
   23.6540   15.9814   29.3553 C   0  0  1  0  0  0  0  0  0  0  0  0
   22.4012   15.5456   35.5260 O   0  0  0  0  0  0  0  0  0  0  0  0
   24.8434   16.0170   30.3322 C   0  0  2  0  0  0  0  0  0  0  0  0
   24.0907   17.0887   32.4541 C   0  0  1  0  0  0  0  0  0  0  0  0
   21.6039   16.7614   32.0711 C   0  0  2  0  0  0  0  0  0  0  0  0
   20.3966   17.5003   31.4857 C   0  0  0  0  0  0  0  0  0  0  0  0
   21.3699   16.4710   33.5368 C   0  0  2  0  0  0  0  0  0  0  0  0
   22.6131   15.8152   34.1354 C   0  0  1  0  0  0  0  0  0  0  0  0
   23.8273   16.7612   33.9656 C   0  0  1  0  0  0  0  0  0  0  0  0
  5  4  1  1  0  0  0
  5  8  1  0  0  0  0
  5 16  1  0  0  0  0
  8  7  1  6  0  0  0
  8 10  1  0  0  0  0
 10  1  1  6  0  0  0
 10 12  1  0  0  0  0
 11 18  1  0  0  0  0
 12 14  1  0  0  0  0
 14  2  1  1  0  0  0
 14 16  1  0  0  0  0
 16  9  1  1  0  0  0
 17  9  1  6  0  0  0
 17 11  1  0  0  0  0
 17 22  1  0  0  0  0
 18 19  1  1  0  0  0
 18 20  1  0  0  0  0
 19  3  1  0  0  0  0
 20 13  1  6  0  0  0
 20 21  1  0  0  0  0
 21 15  1  1  0  0  0
 21 22  1  0  0  0  0
 22  6  1  6  0  0  0
M  END
>  <CHROM.1>
147.77393668,78.58907168,-61.68296681,23.68010759,16.01879838,31.21581515
0.85706078,0.47054156,-1.53499503

>  <Name>
2f4s_lig

>  <RI>
0

>  <Rbt.Current_Directory>
/home/itssahil/PROJECTS/Mol_Feturizer/New_Systems/rnas/2f4s

>  <Rbt.Executable>
rbdock ($Id: //depot/dev/client3/rdock/2013.1/src/exe/rbdock.cxx#4 $)

>  <Rbt.Library>
libRbt.so (2013.1, Build901 2013/11/27)

>  <Rbt.Parameter_File>
/export/apps/rDock/src/rDock_2013.1_src/data/scripts/dock_solv.prm

>  <Rbt.Receptor>
prm/blind_docking_80.prm

>  <SCORE>
-9.84006

>  <SCORE.INTER>
-17.043

>  <SCORE.INTER.CONST>
1

>  <SCORE.INTER.POLAR>
-1.07116

>  <SCORE.INTER.ROT>
3

>  <SCORE.INTER.SOLV>
18.3098

>  <SCORE.INTER.VDW>
-19.4948

>  <SCORE.INTER.norm>
-0.774684

>  <SCORE.INTRA>
5.77405

>  <SCORE.INTRA.DIHEDRAL>
3.99788

>  <SCORE.INTRA.DIHEDRAL.0>
1.67653

>  <SCORE.INTRA.POLAR>
0

>  <SCORE.INTRA.POLAR.0>
0

>  <SCORE.INTRA.REPUL>
0

>  <SCORE.INTRA.REPUL.0>
0

>  <SCORE.INTRA.SOLV>
5.38417

>  <SCORE.INTRA.SOLV.lig_0>
-76.6701

>  <SCORE.INTRA.VDW>
1.08303

>  <SCORE.INTRA.VDW.0>
-1.53273

>  <SCORE.INTRA.norm>
0.262457

>  <SCORE.RESTR>
1.42894

>  <SCORE.RESTR.CAVITY>
1.42894

>  <SCORE.RESTR.norm>
0.0649516

>  <SCORE.SYSTEM>
0

>  <SCORE.SYSTEM.CONST>
0

>  <SCORE.SYSTEM.DIHEDRAL>
0

>  <SCORE.SYSTEM.SOLV>
0

>  <SCORE.SYSTEM.norm>
0

>  <SCORE.heavy>
22

>  <SCORE.norm>
-0.447275

>  <RMSD>
7.735

$$$$
2f4s_lig
 OpenBabel11021811433D
libRbt.so/2013.1/901 2013/11/27
 22 23  0  0  0  0  0  0  0  0999 V2000
   19.6959   14.1524   38.3983 N   0  0  0  0  0  0  0  0  0  0  0  0
   18.8849   12.0982   42.9037 N   0  0  0  0  0  0  0  0  0  0  0  0
   20.7197   10.0860   46.6017 N   0  0  0  0  0  0  0  0  0  0  0  0
   22.5057   10.3715   39.9206 O   0  0  0  0  0  0  0  0  0  0  0  0
   21.1673   10.9428   39.9924 C   0  0  2  0  0  0  0  0  0  0  0  0
   21.9828    7.7265   40.6662 N   0  0  0  0  0  0  0  0  0  0  0  0
   21.4661   12.0305   37.8039 O   0  0  0  0  0  0  0  0  0  0  0  0
   21.1061   12.2602   39.1713 C   0  0  1  0  0  0  0  0  0  0  0  0
   20.7444   10.0026   42.2163 O   0  0  0  0  0  0  0  0  0  0  0  0
   19.7095   12.8690   39.2011 C   0  0  1  0  0  0  0  0  0  0  0  0
   21.8621    9.2796   44.1066 O   0  0  0  0  0  0  0  0  0  0  0  0
   19.2900   13.1491   40.6839 C   0  0  0  0  0  0  0  0  0  0  0  0
   19.7025    6.3943   44.8114 O   0  0  0  0  0  0  0  0  0  0  0  0
   19.3245   11.7883   41.4802 C   0  0  1  0  0  0  0  0  0  0  0  0
   20.8600    5.6605   42.3150 O   0  0  0  0  0  0  0  0  0  0  0  0
   20.7564   11.2232   41.4918 C   0  0  2  0  0  0  0  0  0  0  0  0
   21.9246    9.3279   42.6145 C   0  0  1  0  0  0  0  0  0  0  0  0
   20.7070    8.5483   44.6998 C   0  0  2  0  0  0  0  0  0  0  0  0
   20.8105    8.6388   46.2254 C   0  0  0  0  0  0  0  0  0  0  0  0
   20.7879    7.1029   44.2621 C   0  0  2  0  0  0  0  0  0  0  0  0
   20.7748    7.0268   42.7363 C   0  0  1  0  0  0  0  0  0  0  0  0
   21.9754    7.8242   42.1701 C   0  0  1  0  0  0  0  0  0  0  0  0
  5  4  1  1  0  0  0
  5  8  1  0  0  0  0
  5 16  1  0  0  0  0
  8  7  1  6  0  0  0
  8 10  1  0  0  0  0
 10  1  1  6  0  0  0
 10 12  1  0  0  0  0
 11 18  1  0  0  0  0
 12 14  1  0  0  0  0
 14  2  1  1  0  0  0
 14 16  1  0  0  0  0
 16  9  1  1  0  0  0
 17  9  1  6  0  0  0
 17 11  1  0  0  0  0
 17 22  1  0  0  0  0
 18 19  1  1  0  0  0
 18 20  1  0  0  0  0
 19  3  1  0  0  0  0
 20 13  1  1  0  0  0
 20 21  1  0  0  0  0
 21 15  1  1  0  0  0
 21 22  1  0  0  0  0
 22  6  1  6  0  0  0
M  END
>  <CHROM.1>
74.06982468,119.24779759,62.14141113,20.77619682,9.89579298,42.02315271,1.71564692
1.16779906,-0.93481440

>  <Name>
2f4s_lig

>  <RI>
0

>  <Rbt.Current_Directory>
/home/itssahil/PROJECTS/Mol_Feturizer/New_Systems/rnas/2f4s

>  <Rbt.Executable>
rbdock ($Id: //depot/dev/client3/rdock/2013.1/src/exe/rbdock.cxx#4 $)

>  <Rbt.Library>
libRbt.so (2013.1, Build901 2013/11/27)

>  <Rbt.Parameter_File>
/export/apps/rDock/src/rDock_2013.1_src/data/scripts/dock_solv.prm

>  <Rbt.Receptor>
prm/pocket_docking_8.prm

>  <SCORE>
-9.84927

>  <SCORE.INTER>
-13.6961

>  <SCORE.INTER.CONST>
1

>  <SCORE.INTER.POLAR>
-1.88393

>  <SCORE.INTER.ROT>
3

>  <SCORE.INTER.SOLV>
18.1077

>  <SCORE.INTER.VDW>
-14.4869

>  <SCORE.INTER.norm>
-0.62255

>  <SCORE.INTRA>
3.84684

>  <SCORE.INTRA.DIHEDRAL>
6.38777

>  <SCORE.INTRA.DIHEDRAL.0>
1.67653

>  <SCORE.INTRA.POLAR>
0

>  <SCORE.INTRA.POLAR.0>
0

>  <SCORE.INTRA.REPUL>
0

>  <SCORE.INTRA.REPUL.0>
0

>  <SCORE.INTRA.SOLV>
1.59727

>  <SCORE.INTRA.SOLV.lig_0>
-76.6701

>  <SCORE.INTRA.VDW>
-0.145684

>  <SCORE.INTRA.VDW.0>
-1.53273

>  <SCORE.INTRA.norm>
0.174856

>  <SCORE.RESTR>
0

>  <SCORE.RESTR.CAVITY>
0

>  <SCORE.RESTR.norm>
0

>  <SCORE.SYSTEM>
0

>  <SCORE.SYSTEM.CONST>
0

>  <SCORE.SYSTEM.DIHEDRAL>
0

>  <SCORE.SYSTEM.SOLV>
0

>  <SCORE.SYSTEM.norm>
0

>  <SCORE.heavy>
22

>  <SCORE.norm>
-0.447694

>  <RMSD>
7.748

$$$$
2f4s_lig
 OpenBabel11021811433D
libRbt.so/2013.1/901 2013/11/27
 22 23  0  0  0  0  0  0  0  0999 V2000
   18.7884   14.1974   38.9138 N   0  0  0  0  0  0  0  0  0  0  0  0
   18.3064   17.5705   35.2306 N   0  0  0  0  0  0  0  0  0  0  0  0
   15.5752   17.8692   31.2177 N   0  0  0  0  0  0  0  0  0  0  0  0
   19.9082   12.9356   34.2597 O   0  0  0  0  0  0  0  0  0  0  0  0
   19.9079   14.0414   35.2085 C   0  0  2  0  0  0  0  0  0  0  0  0
   21.8118   15.6462   31.3713 N   0  0  0  0  0  0  0  0  0  0  0  0
   20.1066   12.4772   37.0993 O   0  0  0  0  0  0  0  0  0  0  0  0
   19.3415   13.5693   36.5759 C   0  0  1  0  0  0  0  0  0  0  0  0
   19.6210   15.7225   33.4478 O   0  0  0  0  0  0  0  0  0  0  0  0
   19.3550   14.6961   37.6016 C   0  0  1  0  0  0  0  0  0  0  0  0
   18.0922   15.1586   31.8077 O   0  0  0  0  0  0  0  0  0  0  0  0
   18.5119   15.9030   37.0673 C   0  0  0  0  0  0  0  0  0  0  0  0
   17.9535   18.4533   30.1917 O   0  0  0  0  0  0  0  0  0  0  0  0
   19.1342   16.3832   35.7002 C   0  0  1  0  0  0  0  0  0  0  0  0
   20.6512   17.6795   29.7080 O   0  0  0  0  0  0  0  0  0  0  0  0
   19.0527   15.2512   34.6600 C   0  0  2  0  0  0  0  0  0  0  0  0
   19.5210   15.0196   32.2220 C   0  0  1  0  0  0  0  0  0  0  0  0
   17.6016   16.5455   31.5692 C   0  0  2  0  0  0  0  0  0  0  0  0
   16.1204   16.4742   31.1854 C   0  0  0  0  0  0  0  0  0  0  0  0
   18.4012   17.1403   30.4316 C   0  0  2  0  0  0  0  0  0  0  0  0
   19.8873   17.1253   30.7854 C   0  0  1  0  0  0  0  0  0  0  0  0
   20.3392   15.6682   31.0510 C   0  0  1  0  0  0  0  0  0  0  0  0
  5  4  1  6  0  0  0
  5  8  1  0  0  0  0
  5 16  1  0  0  0  0
  8  7  1  1  0  0  0
  8 10  1  0  0  0  0
 10  1  1  1  0  0  0
 10 12  1  0  0  0  0
 11 18  1  0  0  0  0
 12 14  1  0  0  0  0
 14  2  1  6  0  0  0
 14 16  1  0  0  0  0
 16  9  1  6  0  0  0
 17  9  1  1  0  0  0
 17 11  1  0  0  0  0
 17 22  1  0  0  0  0
 18 19  1  6  0  0  0
 18 20  1  0  0  0  0
 19  3  1  0  0  0  0
 20 13  1  1  0  0  0
 20 21  1  0  0  0  0
 21 15  1  6  0  0  0
 21 22  1  0  0  0  0
 22  6  1  1  0  0  0
M  END
>  <CHROM.1>
73.53825962,71.40699064,168.87168688,19.00614198,15.69937681,33.48250315
1.43120728,-0.57621134,1.93931165

>  <Name>
2f4s_lig

>  <RI>
0

>  <Rbt.Current_Directory>
/home/itssahil/PROJECTS/Mol_Feturizer/New_Systems/rnas/2f4s

>  <Rbt.Executable>
rbdock ($Id: //depot/dev/client3/rdock/2013.1/src/exe/rbdock.cxx#4 $)

>  <Rbt.Library>
libRbt.so (2013.1, Build901 2013/11/27)

>  <Rbt.Parameter_File>
/export/apps/rDock/src/rDock_2013.1_src/data/scripts/dock_solv.prm

>  <Rbt.Receptor>
prm/pocket_docking_8.prm

>  <SCORE>
-6.89802

>  <SCORE.INTER>
-7.78354

>  <SCORE.INTER.CONST>
1

>  <SCORE.INTER.POLAR>
-1.78524

>  <SCORE.INTER.ROT>
3

>  <SCORE.INTER.SOLV>
9.48537

>  <SCORE.INTER.VDW>
-8.00002

>  <SCORE.INTER.norm>
-0.353797

>  <SCORE.INTRA>
0.885522

>  <SCORE.INTRA.DIHEDRAL>
0.373658

>  <SCORE.INTRA.DIHEDRAL.0>
1.67653

>  <SCORE.INTRA.POLAR>
0

>  <SCORE.INTRA.POLAR.0>
0

>  <SCORE.INTRA.REPUL>
0

>  <SCORE.INTRA.REPUL.0>
0

>  <SCORE.INTRA.SOLV>
1.01954

>  <SCORE.INTRA.SOLV.lig_0>
-76.6701

>  <SCORE.INTRA.VDW>
0.188923

>  <SCORE.INTRA.VDW.0>
-1.53273

>  <SCORE.INTRA.norm>
0.040251

>  <SCORE.RESTR>
0

>  <SCORE.RESTR.CAVITY>
0

>  <SCORE.RESTR.norm>
0

>  <SCORE.SYSTEM>
0

>  <SCORE.SYSTEM.CONST>
0

>  <SCORE.SYSTEM.DIHEDRAL>
0

>  <SCORE.SYSTEM.SOLV>
0

>  <SCORE.SYSTEM.norm>
0

>  <SCORE.heavy>
22

>  <SCORE.norm>
-0.313546

>  <RMSD>
7.785

$$$$
2f4s_lig
 OpenBabel11021811433D
libRbt.so/2013.1/901 2013/11/27
 22 23  0  0  0  0  0  0  0  0999 V2000
   18.7430   14.2064   38.9033 N   0  0  0  0  0  0  0  0  0  0  0  0
   18.2849   17.5574   35.1969 N   0  0  0  0  0  0  0  0  0  0  0  0
   15.5977   17.8172   31.1466 N   0  0  0  0  0  0  0  0  0  0  0  0
   19.8991   12.9188   34.2651 O   0  0  0  0  0  0  0  0  0  0  0  0
   19.8904   14.0300   35.2074 C   0  0  2  0  0  0  0  0  0  0  0  0
   21.8400   15.6027   31.3960 N   0  0  0  0  0  0  0  0  0  0  0  0
   20.0766   12.4772   37.1088 O   0  0  0  0  0  0  0  0  0  0  0  0
   19.3143   13.5653   36.5733 C   0  0  1  0  0  0  0  0  0  0  0  0
   19.6149   15.7005   33.4348 O   0  0  0  0  0  0  0  0  0  0  0  0
   19.3188   14.6981   37.5924 C   0  0  1  0  0  0  0  0  0  0  0  0
   18.1138   15.1182   31.7756 O   0  0  0  0  0  0  0  0  0  0  0  0
   18.4784   15.9009   37.0448 C   0  0  0  0  0  0  0  0  0  0  0  0
   18.0013   18.3952   30.1220 O   0  0  0  0  0  0  0  0  0  0  0  0
   19.1106   16.3739   35.6796 C   0  0  1  0  0  0  0  0  0  0  0  0
   20.7069   17.6174   29.6917 O   0  0  0  0  0  0  0  0  0  0  0  0
   19.0380   15.2357   34.6455 C   0  0  2  0  0  0  0  0  0  0  0  0
   19.5356   14.9844   32.2152 C   0  0  1  0  0  0  0  0  0  0  0  0
   17.6270   16.5022   31.5140 C   0  0  2  0  0  0  0  0  0  0  0  0
   16.1524   16.4262   31.1064 C   0  0  0  0  0  0  0  0  0  0  0  0
   18.4453   17.0851   30.3835 C   0  0  2  0  0  0  0  0  0  0  0  0
   19.9252   17.0745   30.7622 C   0  0  1  0  0  0  0  0  0  0  0  0
   20.3730   15.6206   31.0511 C   0  0  1  0  0  0  0  0  0  0  0  0
  5  4  1  6  0  0  0
  5  8  1  0  0  0  0
  5 16  1  0  0  0  0
  8  7  1  1  0  0  0
  8 10  1  0  0  0  0
 10  1  1  1  0  0  0
 10 12  1  0  0  0  0
 11 18  1  0  0  0  0
 12 14  1  0  0  0  0
 14  2  1  6  0  0  0
 14 16  1  0  0  0  0
 16  9  1  6  0  0  0
 17  9  1  1  0  0  0
 17 11  1  0  0  0  0
 17 22  1  0  0  0  0
 18 19  1  6  0  0  0
 18 20  1  0  0  0  0
 19  3  1  0  0  0  0
 20 13  1  1  0  0  0
 20 21  1  0  0  0  0
 21 15  1  6  0  0  0
 21 22  1  0  0  0  0
 22  6  1  1  0  0  0
M  END
>  <CHROM.1>
72.93292888,72.05718295,167.52213526,19.01101058,15.67099855,33.46021867
1.44322123,-0.57017296,1.93732119

>  <Name>
2f4s_lig

>  <RI>
0

>  <Rbt.Current_Directory>
/home/itssahil/PROJECTS/Mol_Feturizer/New_Systems/rnas/2f4s

>  <Rbt.Executable>
rbdock ($Id: //depot/dev/client3/rdock/2013.1/src/exe/rbdock.cxx#4 $)

>  <Rbt.Library>
libRbt.so (2013.1, Build901 2013/11/27)

>  <Rbt.Parameter_File>
/export/apps/rDock/src/rDock_2013.1_src/data/scripts/dock_solv.prm

>  <Rbt.Receptor>
prm/pocket_docking_8.prm

>  <SCORE>
-6.8822

>  <SCORE.INTER>
-7.78837

>  <SCORE.INTER.CONST>
1

>  <SCORE.INTER.POLAR>
-1.7841

>  <SCORE.INTER.ROT>
3

>  <SCORE.INTER.SOLV>
9.69906

>  <SCORE.INTER.VDW>
-8.07828

>  <SCORE.INTER.norm>
-0.354017

>  <SCORE.INTRA>
0.906169

>  <SCORE.INTRA.DIHEDRAL>
0.476752

>  <SCORE.INTRA.DIHEDRAL.0>
1.67653

>  <SCORE.INTRA.POLAR>
0

>  <SCORE.INTRA.POLAR.0>
0

>  <SCORE.INTRA.REPUL>
0

>  <SCORE.INTRA.REPUL.0>
0

>  <SCORE.INTRA.SOLV>
0.973837

>  <SCORE.INTRA.SOLV.lig_0>
-76.6701

>  <SCORE.INTRA.VDW>
0.180875

>  <SCORE.INTRA.VDW.0>
-1.53273

>  <SCORE.INTRA.norm>
0.0411895

>  <SCORE.RESTR>
0

>  <SCORE.RESTR.CAVITY>
0

>  <SCORE.RESTR.norm>
0

>  <SCORE.SYSTEM>
0

>  <SCORE.SYSTEM.CONST>
0

>  <SCORE.SYSTEM.DIHEDRAL>
0

>  <SCORE.SYSTEM.SOLV>
0

>  <SCORE.SYSTEM.norm>
0

>  <SCORE.heavy>
22

>  <SCORE.norm>
-0.312827

>  <RMSD>
7.801

$$$$
2f4s_lig
 OpenBabel11021811433D
libRbt.so/2013.1/901 2013/11/27
 22 23  0  0  0  0  0  0  0  0999 V2000
   18.6314   19.8428   33.0018 N   0  0  0  0  0  0  0  0  0  0  0  0
   23.2849   17.9803   32.7735 N   0  0  0  0  0  0  0  0  0  0  0  0
   26.2542   16.6597   37.9648 N   0  0  0  0  0  0  0  0  0  0  0  0
   22.0084   21.2425   36.3400 O   0  0  0  0  0  0  0  0  0  0  0  0
   21.8277   20.8346   34.9530 C   0  0  2  0  0  0  0  0  0  0  0  0
   26.0382   22.0689   35.4471 N   0  0  0  0  0  0  0  0  0  0  0  0
   19.5156   21.6803   34.9590 O   0  0  0  0  0  0  0  0  0  0  0  0
   20.3285   20.5350   34.6772 C   0  0  1  0  0  0  0  0  0  0  0  0
   24.0747   19.8654   34.8094 O   0  0  0  0  0  0  0  0  0  0  0  0
   20.1002   20.1336   33.2251 C   0  0  1  0  0  0  0  0  0  0  0  0
   24.8677   18.6777   36.6274 O   0  0  0  0  0  0  0  0  0  0  0  0
   20.9634   18.8713   32.8870 C   0  0  0  0  0  0  0  0  0  0  0  0
   28.0192   17.5849   35.0914 O   0  0  0  0  0  0  0  0  0  0  0  0
   22.4807   19.2192   33.1394 C   0  0  1  0  0  0  0  0  0  0  0  0
   28.3682   20.4095   35.1924 O   0  0  0  0  0  0  0  0  0  0  0  0
   22.7010   19.5596   34.6246 C   0  0  2  0  0  0  0  0  0  0  0  0
   24.6602   20.0544   36.0853 C   0  0  1  0  0  0  0  0  0  0  0  0
   25.7724   17.7861   35.8479 C   0  0  2  0  0  0  0  0  0  0  0  0
   25.8288   16.4247   36.5477 C   0  0  0  0  0  0  0  0  0  0  0  0
   27.1488   18.4124   35.8260 C   0  0  2  0  0  0  0  0  0  0  0  0
   27.0688   19.8072   35.2080 C   0  0  1  0  0  0  0  0  0  0  0  0
   26.0968   20.6830   36.0365 C   0  0  1  0  0  0  0  0  0  0  0  0
  5  4  1  1  0  0  0
  5  8  1  0  0  0  0
  5 16  1  0  0  0  0
  8  7  1  6  0  0  0
  8 10  1  0  0  0  0
 10  1  1  1  0  0  0
 10 12  1  0  0  0  0
 11 18  1  0  0  0  0
 12 14  1  0  0  0  0
 14  2  1  1  0  0  0
 14 16  1  0  0  0  0
 16  9  1  6  0  0  0
 17  9  1  6  0  0  0
 17 11  1  0  0  0  0
 17 22  1  0  0  0  0
 18 19  1  1  0  0  0
 18 20  1  0  0  0  0
 19  3  1  0  0  0  0
 20 13  1  6  0  0  0
 20 21  1  0  0  0  0
 21 15  1  1  0  0  0
 21 22  1  0  0  0  0
 22  6  1  6  0  0  0
M  END
>  <CHROM.1>
71.63491950,78.62001779,-55.53348853,23.93554132,19.47900348,35.07764571
2.95020572,-0.32608627,0.15888525

>  <Name>
2f4s_lig

>  <RI>
0

>  <Rbt.Current_Directory>
/home/itssahil/PROJECTS/Mol_Feturizer/New_Systems/rnas/2f4s

>  <Rbt.Executable>
rbdock ($Id: //depot/dev/client3/rdock/2013.1/src/exe/rbdock.cxx#4 $)

>  <Rbt.Library>
libRbt.so (2013.1, Build901 2013/11/27)

>  <Rbt.Parameter_File>
/export/apps/rDock/src/rDock_2013.1_src/data/scripts/dock_solv.prm

>  <Rbt.Receptor>
prm/pocket_docking_8.prm

>  <SCORE>
-5.03246

>  <SCORE.INTER>
-6.39385

>  <SCORE.INTER.CONST>
1

>  <SCORE.INTER.POLAR>
-1.25027

>  <SCORE.INTER.ROT>
3

>  <SCORE.INTER.SOLV>
13.0089

>  <SCORE.INTER.VDW>
-10.0313

>  <SCORE.INTER.norm>
-0.29063

>  <SCORE.INTRA>
1.3614

>  <SCORE.INTRA.DIHEDRAL>
0.728017

>  <SCORE.INTRA.DIHEDRAL.0>
1.67653

>  <SCORE.INTRA.POLAR>
0

>  <SCORE.INTRA.POLAR.0>
0

>  <SCORE.INTRA.REPUL>
0

>  <SCORE.INTRA.REPUL.0>
0

>  <SCORE.INTRA.SOLV>
1.703

>  <SCORE.INTRA.SOLV.lig_0>
-76.6701

>  <SCORE.INTRA.VDW>
0.145886

>  <SCORE.INTRA.VDW.0>
-1.53273

>  <SCORE.INTRA.norm>
0.0618817

>  <SCORE.RESTR>
0

>  <SCORE.RESTR.CAVITY>
0

>  <SCORE.RESTR.norm>
0

>  <SCORE.SYSTEM>
0

>  <SCORE.SYSTEM.CONST>
0

>  <SCORE.SYSTEM.DIHEDRAL>
0

>  <SCORE.SYSTEM.SOLV>
0

>  <SCORE.SYSTEM.norm>
0

>  <SCORE.heavy>
22

>  <SCORE.norm>
-0.228748

>  <RMSD>
7.810

$$$$
2f4s_lig
 OpenBabel11021811433D
libRbt.so/2013.1/901 2013/11/27
 22 23  0  0  0  0  0  0  0  0999 V2000
   28.0227   14.2677   28.1731 N   0  0  0  0  0  0  0  0  0  0  0  0
   24.9924   15.5393   31.9647 N   0  0  0  0  0  0  0  0  0  0  0  0
   23.0226   16.6142   34.9107 N   0  0  0  0  0  0  0  0  0  0  0  0
   23.4210   15.8291   27.2279 O   0  0  0  0  0  0  0  0  0  0  0  0
   24.5473   15.9787   28.1399 C   0  0  2  0  0  0  0  0  0  0  0  0
   20.1974   17.2956   29.6842 N   0  0  0  0  0  0  0  0  0  0  0  0
   26.1270   15.3308   26.3662 O   0  0  0  0  0  0  0  0  0  0  0  0
   25.7109   15.0449   27.7067 C   0  0  1  0  0  0  0  0  0  0  0  0
   23.1034   16.5545   30.0352 O   0  0  0  0  0  0  0  0  0  0  0  0
   26.9179   15.1991   28.6240 C   0  0  1  0  0  0  0  0  0  0  0  0
   22.7297   16.2970   32.3022 O   0  0  0  0  0  0  0  0  0  0  0  0
   26.5013   14.8770   30.0990 C   0  0  0  0  0  0  0  0  0  0  0  0
   22.5783   19.8723   33.1265 O   0  0  0  0  0  0  0  0  0  0  0  0
   25.3474   15.8655   30.5215 C   0  0  1  0  0  0  0  0  0  0  0  0
   20.3041   19.5658   31.4399 O   0  0  0  0  0  0  0  0  0  0  0  0
   24.1159   15.6489   29.6235 C   0  0  2  0  0  0  0  0  0  0  0  0
   22.0850   16.2090   30.9572 C   0  0  1  0  0  0  0  0  0  0  0  0
   23.2582   17.6326   32.6994 C   0  0  2  0  0  0  0  0  0  0  0  0
   23.8990   17.5055   34.0849 C   0  0  0  0  0  0  0  0  0  0  0  0
   22.0987   18.6021   32.7543 C   0  0  2  0  0  0  0  0  0  0  0  0
   21.4090   18.6556   31.3922 C   0  0  1  0  0  0  0  0  0  0  0  0
   20.9048   17.2411   31.0139 C   0  0  1  0  0  0  0  0  0  0  0  0
  5  4  1  6  0  0  0
  5  8  1  0  0  0  0
  5 16  1  0  0  0  0
  8  7  1  6  0  0  0
  8 10  1  0  0  0  0
 10  1  1  6  0  0  0
 10 12  1  0  0  0  0
 11 18  1  0  0  0  0
 12 14  1  0  0  0  0
 14  2  1  1  0  0  0
 14 16  1  0  0  0  0
 16  9  1  1  0  0  0
 17  9  1  6  0  0  0
 17 11  1  0  0  0  0
 17 22  1  0  0  0  0
 18 19  1  1  0  0  0
 18 20  1  0  0  0  0
 19  3  1  0  0  0  0
 20 13  1  6  0  0  0
 20 21  1  0  0  0  0
 21 15  1  1  0  0  0
 21 22  1  0  0  0  0
 22  6  1  6  0  0  0
M  END
>  <CHROM.1>
148.89070894,79.18328017,-40.34837652,23.67204754,16.64367007,30.57251065
-0.80496568,-0.48462895,1.38184331

>  <Name>
2f4s_lig

>  <RI>
0

>  <Rbt.Current_Directory>
/home/itssahil/PROJECTS/Mol_Feturizer/New_Systems/rnas/2f4s

>  <Rbt.Executable>
rbdock ($Id: //depot/dev/client3/rdock/2013.1/src/exe/rbdock.cxx#4 $)

>  <Rbt.Library>
libRbt.so (2013.1, Build901 2013/11/27)

>  <Rbt.Parameter_File>
/export/apps/rDock/src/rDock_2013.1_src/data/scripts/dock_solv.prm

>  <Rbt.Receptor>
prm/blind_docking_100.prm

>  <SCORE>
-5.26536

>  <SCORE.INTER>
-13.3561

>  <SCORE.INTER.CONST>
1

>  <SCORE.INTER.POLAR>
-0.156139

>  <SCORE.INTER.ROT>
3

>  <SCORE.INTER.SOLV>
19.5355

>  <SCORE.INTER.VDW>
-20.4955

>  <SCORE.INTER.norm>
-0.607098

>  <SCORE.INTRA>
6.3117

>  <SCORE.INTRA.DIHEDRAL>
5.15593

>  <SCORE.INTRA.DIHEDRAL.0>
1.67653

>  <SCORE.INTRA.POLAR>
0

>  <SCORE.INTRA.POLAR.0>
0

>  <SCORE.INTRA.REPUL>
0

>  <SCORE.INTRA.REPUL.0>
0

>  <SCORE.INTRA.SOLV>
5.45151

>  <SCORE.INTRA.SOLV.lig_0>
-76.6701

>  <SCORE.INTRA.VDW>
1.00798

>  <SCORE.INTRA.VDW.0>
-1.53273

>  <SCORE.INTRA.norm>
0.286896

>  <SCORE.RESTR>
1.77909

>  <SCORE.RESTR.CAVITY>
1.77909

>  <SCORE.RESTR.norm>
0.0808675

>  <SCORE.SYSTEM>
0

>  <SCORE.SYSTEM.CONST>
0

>  <SCORE.SYSTEM.DIHEDRAL>
0

>  <SCORE.SYSTEM.SOLV>
0

>  <SCORE.SYSTEM.norm>
0

>  <SCORE.heavy>
22

>  <SCORE.norm>
-0.239334

>  <RMSD>
7.942

$$$$
2f4s_lig
 OpenBabel11021811433D
libRbt.so/2013.1/901 2013/11/27
 22 23  0  0  0  0  0  0  0  0999 V2000
   28.0543   14.1337   27.8994 N   0  0  0  0  0  0  0  0  0  0  0  0
   25.1033   15.5181   31.7139 N   0  0  0  0  0  0  0  0  0  0  0  0
   22.4303   15.5574   34.5432 N   0  0  0  0  0  0  0  0  0  0  0  0
   23.4567   15.7330   26.9987 O   0  0  0  0  0  0  0  0  0  0  0  0
   24.5998   15.8868   27.8889 C   0  0  2  0  0  0  0  0  0  0  0  0
   20.4809   17.7619   29.3425 N   0  0  0  0  0  0  0  0  0  0  0  0
   26.1416   15.1840   26.1028 O   0  0  0  0  0  0  0  0  0  0  0  0
   25.7446   14.9301   27.4555 C   0  0  1  0  0  0  0  0  0  0  0  0
   23.1948   16.5181   29.7958 O   0  0  0  0  0  0  0  0  0  0  0  0
   26.9684   15.0876   28.3495 C   0  0  1  0  0  0  0  0  0  0  0  0
   22.4889   15.8189   31.8833 O   0  0  0  0  0  0  0  0  0  0  0  0
   26.5727   14.8001   29.8374 C   0  0  0  0  0  0  0  0  0  0  0  0
   22.6843   19.0962   33.5284 O   0  0  0  0  0  0  0  0  0  0  0  0
   25.4381   15.8111   30.2588 C   0  0  1  0  0  0  0  0  0  0  0  0
   20.6381   19.5343   31.5967 O   0  0  0  0  0  0  0  0  0  0  0  0
   24.1892   15.5920   29.3857 C   0  0  2  0  0  0  0  0  0  0  0  0
   22.0256   16.1369   30.4989 C   0  0  1  0  0  0  0  0  0  0  0  0
   23.1248   16.9321   32.6432 C   0  0  2  0  0  0  0  0  0  0  0  0
   23.5514   16.3987   34.0142 C   0  0  0  0  0  0  0  0  0  0  0  0
   22.1015   18.0327   32.8134 C   0  0  2  0  0  0  0  0  0  0  0  0
   21.6143   18.4976   31.4422 C   0  0  1  0  0  0  0  0  0  0  0  0
   20.9897   17.3005   30.6840 C   0  0  1  0  0  0  0  0  0  0  0  0
  5  4  1  6  0  0  0
  5  8  1  0  0  0  0
  5 16  1  0  0  0  0
  8  7  1  6  0  0  0
  8 10  1  0  0  0  0
 10  1  1  6  0  0  0
 10 12  1  0  0  0  0
 11 18  1  0  0  0  0
 12 14  1  0  0  0  0
 14  2  1  1  0  0  0
 14 16  1  0  0  0  0
 16  9  1  1  0  0  0
 17  9  1  6  0  0  0
 17 11  1  0  0  0  0
 17 22  1  0  0  0  0
 18 19  1  1  0  0  0
 18 20  1  0  0  0  0
 19  3  1  0  0  0  0
 20 13  1  6  0  0  0
 20 21  1  0  0  0  0
 21 15  1  1  0  0  0
 21 22  1  0  0  0  0
 22  6  1  6  0  0  0
M  END
>  <CHROM.1>
134.41472096,73.39215567,-43.66319525,23.68646596,16.39732138,30.38682150
-0.76705790,-0.54861733,1.54031857

>  <Name>
2f4s_lig

>  <RI>
0

>  <Rbt.Current_Directory>
/home/itssahil/PROJECTS/Mol_Feturizer/New_Systems/rnas/2f4s

>  <Rbt.Executable>
rbdock ($Id: //depot/dev/client3/rdock/2013.1/src/exe/rbdock.cxx#4 $)

>  <Rbt.Library>
libRbt.so (2013.1, Build901 2013/11/27)

>  <Rbt.Parameter_File>
/export/apps/rDock/src/rDock_2013.1_src/data/scripts/dock_solv.prm

>  <Rbt.Receptor>
prm/blind_docking_60.prm

>  <SCORE>
-8.15575

>  <SCORE.INTER>
-15.972

>  <SCORE.INTER.CONST>
1

>  <SCORE.INTER.POLAR>
-0.480641

>  <SCORE.INTER.ROT>
3

>  <SCORE.INTER.SOLV>
22.8146

>  <SCORE.INTER.VDW>
-22.2507

>  <SCORE.INTER.norm>
-0.725998

>  <SCORE.INTRA>
7.06284

>  <SCORE.INTRA.DIHEDRAL>
6.3848

>  <SCORE.INTRA.DIHEDRAL.0>
1.67653

>  <SCORE.INTRA.POLAR>
0

>  <SCORE.INTRA.POLAR.0>
0

>  <SCORE.INTRA.REPUL>
0

>  <SCORE.INTRA.REPUL.0>
0

>  <SCORE.INTRA.SOLV>
5.36243

>  <SCORE.INTRA.SOLV.lig_0>
-76.6701

>  <SCORE.INTRA.VDW>
1.18923

>  <SCORE.INTRA.VDW.0>
-1.53273

>  <SCORE.INTRA.norm>
0.321038

>  <SCORE.RESTR>
0.753366

>  <SCORE.RESTR.CAVITY>
0.753366

>  <SCORE.RESTR.norm>
0.0342439

>  <SCORE.SYSTEM>
0

>  <SCORE.SYSTEM.CONST>
0

>  <SCORE.SYSTEM.DIHEDRAL>
0

>  <SCORE.SYSTEM.SOLV>
0

>  <SCORE.SYSTEM.norm>
0

>  <SCORE.heavy>
22

>  <SCORE.norm>
-0.370716

>  <RMSD>
7.980

$$$$
2f4s_lig
 OpenBabel11021811433D
libRbt.so/2013.1/901 2013/11/27
 22 23  0  0  0  0  0  0  0  0999 V2000
   27.7993   13.9581   27.8516 N   0  0  0  0  0  0  0  0  0  0  0  0
   25.3375   16.0609   31.6849 N   0  0  0  0  0  0  0  0  0  0  0  0
   24.5028   15.8446   34.0411 N   0  0  0  0  0  0  0  0  0  0  0  0
   22.9982   15.0690   27.3797 O   0  0  0  0  0  0  0  0  0  0  0  0
   24.2430   15.4859   28.0118 C   0  0  2  0  0  0  0  0  0  0  0  0
   20.3419   17.5789   29.3144 N   0  0  0  0  0  0  0  0  0  0  0  0
   25.5581   14.4564   26.2030 O   0  0  0  0  0  0  0  0  0  0  0  0
   25.3892   14.5115   27.6244 C   0  0  1  0  0  0  0  0  0  0  0  0
   23.0867   16.4816   29.9302 O   0  0  0  0  0  0  0  0  0  0  0  0
   26.7138   14.9368   28.2461 C   0  0  1  0  0  0  0  0  0  0  0  0
   22.3750   15.9962   32.0757 O   0  0  0  0  0  0  0  0  0  0  0  0
   26.5692   14.9914   29.8047 C   0  0  0  0  0  0  0  0  0  0  0  0
   22.4465   19.4407   33.3469 O   0  0  0  0  0  0  0  0  0  0  0  0
   25.4265   16.0163   30.1665 C   0  0  1  0  0  0  0  0  0  0  0  0
   20.4138   19.5950   31.3584 O   0  0  0  0  0  0  0  0  0  0  0  0
   24.0856   15.5349   29.5830 C   0  0  2  0  0  0  0  0  0  0  0  0
   21.9206   16.1433   30.6600 C   0  0  1  0  0  0  0  0  0  0  0  0
   22.9658   17.2069   32.7129 C   0  0  2  0  0  0  0  0  0  0  0  0
   23.3903   16.8433   34.1390 C   0  0  0  0  0  0  0  0  0  0  0  0
   21.9067   18.2860   32.7493 C   0  0  2  0  0  0  0  0  0  0  0  0
   21.4237   18.5796   31.3300 C   0  0  1  0  0  0  0  0  0  0  0  0
   20.8468   17.2861   30.7039 C   0  0  1  0  0  0  0  0  0  0  0  0
  5  4  1  6  0  0  0
  5  8  1  0  0  0  0
  5 16  1  0  0  0  0
  8  7  1  6  0  0  0
  8 10  1  0  0  0  0
 10  1  1  1  0  0  0
 10 12  1  0  0  0  0
 11 18  1  0  0  0  0
 12 14  1  0  0  0  0
 14  2  1  1  0  0  0
 14 16  1  0  0  0  0
 16  9  1  6  0  0  0
 17  9  1  6  0  0  0
 17 11  1  0  0  0  0
 17 22  1  0  0  0  0
 18 19  1  1  0  0  0
 18 20  1  0  0  0  0
 19  3  1  0  0  0  0
 20 13  1  6  0  0  0
 20 21  1  0  0  0  0
 21 15  1  1  0  0  0
 21 22  1  0  0  0  0
 22  6  1  6  0  0  0
M  END
>  <CHROM.1>
120.81655637,76.36982480,65.80043908,23.59770762,16.39450950,30.39902582
-0.84814747,-0.48072880,1.30258674

>  <Name>
2f4s_lig

>  <RI>
0

>  <Rbt.Current_Directory>
/home/itssahil/PROJECTS/Mol_Feturizer/New_Systems/rnas/2f4s

>  <Rbt.Executable>
rbdock ($Id: //depot/dev/client3/rdock/2013.1/src/exe/rbdock.cxx#4 $)

>  <Rbt.Library>
libRbt.so (2013.1, Build901 2013/11/27)

>  <Rbt.Parameter_File>
/export/apps/rDock/src/rDock_2013.1_src/data/scripts/dock_solv.prm

>  <Rbt.Receptor>
prm/blind_docking_100.prm

>  <SCORE>
-4.39671

>  <SCORE.INTER>
-11.9742

>  <SCORE.INTER.CONST>
1

>  <SCORE.INTER.POLAR>
-0.510159

>  <SCORE.INTER.ROT>
3

>  <SCORE.INTER.SOLV>
24.0738

>  <SCORE.INTER.VDW>
-19.9069

>  <SCORE.INTER.norm>
-0.544281

>  <SCORE.INTRA>
6.26177

>  <SCORE.INTRA.DIHEDRAL>
6.94084

>  <SCORE.INTRA.DIHEDRAL.0>
1.67653

>  <SCORE.INTRA.POLAR>
0

>  <SCORE.INTRA.POLAR.0>
0

>  <SCORE.INTRA.REPUL>
0

>  <SCORE.INTRA.REPUL.0>
0

>  <SCORE.INTRA.SOLV>
5.4204

>  <SCORE.INTRA.SOLV.lig_0>
-76.6701

>  <SCORE.INTRA.VDW>
0.0811505

>  <SCORE.INTRA.VDW.0>
-1.53273

>  <SCORE.INTRA.norm>
0.284626

>  <SCORE.RESTR>
1.3157

>  <SCORE.RESTR.CAVITY>
1.3157

>  <SCORE.RESTR.norm>
0.0598044

>  <SCORE.SYSTEM>
0

>  <SCORE.SYSTEM.CONST>
0

>  <SCORE.SYSTEM.DIHEDRAL>
0

>  <SCORE.SYSTEM.SOLV>
0

>  <SCORE.SYSTEM.norm>
0

>  <SCORE.heavy>
22

>  <SCORE.norm>
-0.19985

>  <RMSD>
8.000

$$$$
2f4s_lig
 OpenBabel11021811433D
libRbt.so/2013.1/901 2013/11/27
 22 23  0  0  0  0  0  0  0  0999 V2000
   27.7823   13.8638   27.9593 N   0  0  0  0  0  0  0  0  0  0  0  0
   25.2604   16.0918   31.6811 N   0  0  0  0  0  0  0  0  0  0  0  0
   24.5000   15.9652   34.1018 N   0  0  0  0  0  0  0  0  0  0  0  0
   23.0381   15.1199   27.3099 O   0  0  0  0  0  0  0  0  0  0  0  0
   24.2734   15.5053   27.9796 C   0  0  2  0  0  0  0  0  0  0  0  0
   20.4948   17.9553   29.1646 N   0  0  0  0  0  0  0  0  0  0  0  0
   25.6156   14.4117   26.2290 O   0  0  0  0  0  0  0  0  0  0  0  0
   25.4003   14.4902   27.6430 C   0  0  1  0  0  0  0  0  0  0  0  0
   23.0852   16.5613   29.8454 O   0  0  0  0  0  0  0  0  0  0  0  0
   26.7160   14.8812   28.3049 C   0  0  1  0  0  0  0  0  0  0  0  0
   22.1699   15.9205   31.8695 O   0  0  0  0  0  0  0  0  0  0  0  0
   26.5204   14.9602   29.8568 C   0  0  0  0  0  0  0  0  0  0  0  0
   22.4183   19.1943   33.5146 O   0  0  0  0  0  0  0  0  0  0  0  0
   25.3995   16.0252   30.1673 C   0  0  1  0  0  0  0  0  0  0  0  0
   20.5676   19.7338   31.4184 O   0  0  0  0  0  0  0  0  0  0  0  0
   24.0645   15.5791   29.5437 C   0  0  2  0  0  0  0  0  0  0  0  0
   21.8418   16.2535   30.4504 C   0  0  1  0  0  0  0  0  0  0  0  0
   22.8042   17.0014   32.6759 C   0  0  2  0  0  0  0  0  0  0  0  0
   23.0845   16.4553   34.0793 C   0  0  0  0  0  0  0  0  0  0  0  0
   21.8360   18.1603   32.7571 C   0  0  2  0  0  0  0  0  0  0  0  0
   21.4915   18.6415   31.3487 C   0  0  1  0  0  0  0  0  0  0  0  0
   20.8634   17.4762   30.5451 C   0  0  1  0  0  0  0  0  0  0  0  0
  5  4  1  6  0  0  0
  5  8  1  0  0  0  0
  5 16  1  0  0  0  0
  8  7  1  6  0  0  0
  8 10  1  0  0  0  0
 10  1  1  1  0  0  0
 10 12  1  0  0  0  0
 11 18  1  0  0  0  0
 12 14  1  0  0  0  0
 14  2  1  1  0  0  0
 14 16  1  0  0  0  0
 16  9  1  6  0  0  0
 17  9  1  6  0  0  0
 17 11  1  0  0  0  0
 17 22  1  0  0  0  0
 18 19  1  1  0  0  0
 18 20  1  0  0  0  0
 19  3  1  0  0  0  0
 20 13  1  1  0  0  0
 20 21  1  0  0  0  0
 21 15  1  1  0  0  0
 21 22  1  0  0  0  0
 22  6  1  6  0  0  0
M  END
>  <CHROM.1>
116.01961450,72.24902135,94.91215538,23.57534960,16.39121856,30.37821579
-0.82062409,-0.52377272,1.34843498

>  <Name>
2f4s_lig

>  <RI>
0

>  <Rbt.Current_Directory>
/home/itssahil/PROJECTS/Mol_Feturizer/New_Systems/rnas/2f4s

>  <Rbt.Executable>
rbdock ($Id: //depot/dev/client3/rdock/2013.1/src/exe/rbdock.cxx#4 $)

>  <Rbt.Library>
libRbt.so (2013.1, Build901 2013/11/27)

>  <Rbt.Parameter_File>
/export/apps/rDock/src/rDock_2013.1_src/data/scripts/dock_solv.prm

>  <Rbt.Receptor>
prm/blind_docking_100.prm

>  <SCORE>
-4.49562

>  <SCORE.INTER>
-13.167

>  <SCORE.INTER.CONST>
1

>  <SCORE.INTER.POLAR>
-0.607181

>  <SCORE.INTER.ROT>
3

>  <SCORE.INTER.SOLV>
25.3704

>  <SCORE.INTER.VDW>
-20.8109

>  <SCORE.INTER.norm>
-0.598502

>  <SCORE.INTRA>
7.29537

>  <SCORE.INTRA.DIHEDRAL>
9.54398

>  <SCORE.INTRA.DIHEDRAL.0>
1.67653

>  <SCORE.INTRA.POLAR>
0

>  <SCORE.INTRA.POLAR.0>
0

>  <SCORE.INTRA.REPUL>
0

>  <SCORE.INTRA.REPUL.0>
0

>  <SCORE.INTRA.SOLV>
5.06029

>  <SCORE.INTRA.SOLV.lig_0>
-76.6701

>  <SCORE.INTRA.VDW>
-0.00675835

>  <SCORE.INTRA.VDW.0>
-1.53273

>  <SCORE.INTRA.norm>
0.331608

>  <SCORE.RESTR>
1.37604

>  <SCORE.RESTR.CAVITY>
1.37604

>  <SCORE.RESTR.norm>
0.0625475

>  <SCORE.SYSTEM>
0

>  <SCORE.SYSTEM.CONST>
0

>  <SCORE.SYSTEM.DIHEDRAL>
0

>  <SCORE.SYSTEM.SOLV>
0

>  <SCORE.SYSTEM.norm>
0

>  <SCORE.heavy>
22

>  <SCORE.norm>
-0.204346

>  <RMSD>
8.003

$$$$
2f4s_lig
 OpenBabel11021811433D
libRbt.so/2013.1/901 2013/11/27
 22 23  0  0  0  0  0  0  0  0999 V2000
   27.8294   13.8822   27.9443 N   0  0  0  0  0  0  0  0  0  0  0  0
   25.2164   16.0146   31.6592 N   0  0  0  0  0  0  0  0  0  0  0  0
   22.0017   15.9266   34.6368 N   0  0  0  0  0  0  0  0  0  0  0  0
   23.0949   15.1334   27.2192 O   0  0  0  0  0  0  0  0  0  0  0  0
   24.3134   15.5085   27.9245 C   0  0  2  0  0  0  0  0  0  0  0  0
   20.4527   17.8914   29.2159 N   0  0  0  0  0  0  0  0  0  0  0  0
   25.6986   14.4606   26.1796 O   0  0  0  0  0  0  0  0  0  0  0  0
   25.4521   14.5059   27.5899 C   0  0  1  0  0  0  0  0  0  0  0  0
   23.0797   16.5168   29.7872 O   0  0  0  0  0  0  0  0  0  0  0  0
   26.7511   14.8872   28.2893 C   0  0  1  0  0  0  0  0  0  0  0  0
   22.2597   15.8808   31.8532 O   0  0  0  0  0  0  0  0  0  0  0  0
   26.5211   14.9300   29.8379 C   0  0  0  0  0  0  0  0  0  0  0  0
   22.5603   19.1644   33.4697 O   0  0  0  0  0  0  0  0  0  0  0  0
   25.3889   15.9830   30.1477 C   0  0  1  0  0  0  0  0  0  0  0  0
   20.6145   19.6817   31.4555 O   0  0  0  0  0  0  0  0  0  0  0  0
   24.0699   15.5458   29.4850 C   0  0  2  0  0  0  0  0  0  0  0  0
   21.8666   16.2045   30.4486 C   0  0  1  0  0  0  0  0  0  0  0  0
   22.9224   16.9696   32.6252 C   0  0  2  0  0  0  0  0  0  0  0  0
   23.2684   16.4325   34.0174 C   0  0  0  0  0  0  0  0  0  0  0  0
   21.9514   18.1230   32.7440 C   0  0  2  0  0  0  0  0  0  0  0  0
   21.5414   18.5948   31.3500 C   0  0  1  0  0  0  0  0  0  0  0  0
   20.8855   17.4216   30.5809 C   0  0  1  0  0  0  0  0  0  0  0  0
  5  4  1  6  0  0  0
  5  8  1  0  0  0  0
  5 16  1  0  0  0  0
  8  7  1  6  0  0  0
  8 10  1  0  0  0  0
 10  1  1  1  0  0  0
 10 12  1  0  0  0  0
 11 18  1  0  0  0  0
 12 14  1  0  0  0  0
 14  2  1  1  0  0  0
 14 16  1  0  0  0  0
 16  9  1  6  0  0  0
 17  9  1  6  0  0  0
 17 11  1  0  0  0  0
 17 22  1  0  0  0  0
 18 19  1  1  0  0  0
 18 20  1  0  0  0  0
 19  3  1  0  0  0  0
 20 13  1  6  0  0  0
 20 21  1  0  0  0  0
 21 15  1  1  0  0  0
 21 22  1  0  0  0  0
 22  6  1  6  0  0  0
M  END
>  <CHROM.1>
120.90351216,70.17383330,-56.12581110,23.50942318,16.36486577,30.37821114
-0.81156725,-0.53517168,1.41755179

>  <Name>
2f4s_lig

>  <RI>
0

>  <Rbt.Current_Directory>
/home/itssahil/PROJECTS/Mol_Feturizer/New_Systems/rnas/2f4s

>  <Rbt.Executable>
rbdock ($Id: //depot/dev/client3/rdock/2013.1/src/exe/rbdock.cxx#4 $)

>  <Rbt.Library>
libRbt.so (2013.1, Build901 2013/11/27)

>  <Rbt.Parameter_File>
/export/apps/rDock/src/rDock_2013.1_src/data/scripts/dock_solv.prm

>  <Rbt.Receptor>
prm/blind_docking_100.prm

>  <SCORE>
-6.84603

>  <SCORE.INTER>
-14.7324

>  <SCORE.INTER.CONST>
1

>  <SCORE.INTER.POLAR>
-0.574833

>  <SCORE.INTER.ROT>
3

>  <SCORE.INTER.SOLV>
22.2699

>  <SCORE.INTER.VDW>
-20.9288

>  <SCORE.INTER.norm>
-0.669655

>  <SCORE.INTRA>
5.75515

>  <SCORE.INTRA.DIHEDRAL>
6.15236

>  <SCORE.INTRA.DIHEDRAL.0>
1.67653

>  <SCORE.INTRA.POLAR>
0

>  <SCORE.INTRA.POLAR.0>
0

>  <SCORE.INTRA.REPUL>
0

>  <SCORE.INTRA.REPUL.0>
0

>  <SCORE.INTRA.SOLV>
4.63701

>  <SCORE.INTRA.SOLV.lig_0>
-76.6701

>  <SCORE.INTRA.VDW>
0.360459

>  <SCORE.INTRA.VDW.0>
-1.53273

>  <SCORE.INTRA.norm>
0.261598

>  <SCORE.RESTR>
2.13123

>  <SCORE.RESTR.CAVITY>
2.13123

>  <SCORE.RESTR.norm>
0.0968742

>  <SCORE.SYSTEM>
0

>  <SCORE.SYSTEM.CONST>
0

>  <SCORE.SYSTEM.DIHEDRAL>
0

>  <SCORE.SYSTEM.SOLV>
0

>  <SCORE.SYSTEM.norm>
0

>  <SCORE.heavy>
22

>  <SCORE.norm>
-0.311183

>  <RMSD>
8.006

$$$$
2f4s_lig
 OpenBabel11021811433D
libRbt.so/2013.1/901 2013/11/27
 22 23  0  0  0  0  0  0  0  0999 V2000
   27.7691   13.8250   27.9604 N   0  0  0  0  0  0  0  0  0  0  0  0
   25.2237   16.0848   31.6469 N   0  0  0  0  0  0  0  0  0  0  0  0
   24.4959   15.9837   34.0870 N   0  0  0  0  0  0  0  0  0  0  0  0
   23.0416   15.1136   27.2553 O   0  0  0  0  0  0  0  0  0  0  0  0
   24.2724   15.4923   27.9369 C   0  0  2  0  0  0  0  0  0  0  0  0
   20.5141   18.0264   29.1266 N   0  0  0  0  0  0  0  0  0  0  0  0
   25.6252   14.3826   26.2049 O   0  0  0  0  0  0  0  0  0  0  0  0
   25.3953   14.4677   27.6162 C   0  0  1  0  0  0  0  0  0  0  0  0
   23.0719   16.5636   29.7861 O   0  0  0  0  0  0  0  0  0  0  0  0
   26.7066   14.8514   28.2909 C   0  0  1  0  0  0  0  0  0  0  0  0
   22.1331   15.8935   31.7898 O   0  0  0  0  0  0  0  0  0  0  0  0
   26.4948   14.9374   29.8403 C   0  0  0  0  0  0  0  0  0  0  0  0
   22.4394   19.1212   33.5142 O   0  0  0  0  0  0  0  0  0  0  0  0
   25.3786   16.0117   30.1349 C   0  0  1  0  0  0  0  0  0  0  0  0
   20.6112   19.7485   31.4228 O   0  0  0  0  0  0  0  0  0  0  0  0
   24.0471   15.5732   29.4985 C   0  0  2  0  0  0  0  0  0  0  0  0
   21.8193   16.2670   30.3776 C   0  0  1  0  0  0  0  0  0  0  0  0
   22.7850   16.9415   32.6250 C   0  0  2  0  0  0  0  0  0  0  0  0
   23.0467   16.3564   34.0162 C   0  0  0  0  0  0  0  0  0  0  0  0
   21.8401   18.1178   32.7294 C   0  0  2  0  0  0  0  0  0  0  0  0
   21.5130   18.6395   31.3313 C   0  0  1  0  0  0  0  0  0  0  0  0
   20.8655   17.5069   30.4970 C   0  0  1  0  0  0  0  0  0  0  0  0
  5  4  1  6  0  0  0
  5  8  1  0  0  0  0
  5 16  1  0  0  0  0
  8  7  1  6  0  0  0
  8 10  1  0  0  0  0
 10  1  1  1  0  0  0
 10 12  1  0  0  0  0
 11 18  1  0  0  0  0
 12 14  1  0  0  0  0
 14  2  1  1  0  0  0
 14 16  1  0  0  0  0
 16  9  1  6  0  0  0
 17  9  1  6  0  0  0
 17 11  1  0  0  0  0
 17 22  1  0  0  0  0
 18 19  1  1  0  0  0
 18 20  1  0  0  0  0
 19  3  1  0  0  0  0
 20 13  1  1  0  0  0
 20 21  1  0  0  0  0
 21 15  1  1  0  0  0
 21 22  1  0  0  0  0
 22  6  1  6  0  0  0
M  END
>  <CHROM.1>
115.96095187,70.50533623,101.42543406,23.56951216,16.37551204,30.34384662
-0.81829380,-0.53263501,1.35483783

>  <Name>
2f4s_lig

>  <RI>
0

>  <Rbt.Current_Directory>
/home/itssahil/PROJECTS/Mol_Feturizer/New_Systems/rnas/2f4s

>  <Rbt.Executable>
rbdock ($Id: //depot/dev/client3/rdock/2013.1/src/exe/rbdock.cxx#4 $)

>  <Rbt.Library>
libRbt.so (2013.1, Build901 2013/11/27)

>  <Rbt.Parameter_File>
/export/apps/rDock/src/rDock_2013.1_src/data/scripts/dock_solv.prm

>  <Rbt.Receptor>
prm/blind_docking_100.prm

>  <SCORE>
-4.3582

>  <SCORE.INTER>
-13.418

>  <SCORE.INTER.CONST>
1

>  <SCORE.INTER.POLAR>
-0.624981

>  <SCORE.INTER.ROT>
3

>  <SCORE.INTER.SOLV>
25.6705

>  <SCORE.INTER.VDW>
-21.0189

>  <SCORE.INTER.norm>
-0.60991

>  <SCORE.INTRA>
7.70873

>  <SCORE.INTRA.DIHEDRAL>
10.1741

>  <SCORE.INTRA.DIHEDRAL.0>
1.67653

>  <SCORE.INTRA.POLAR>
0

>  <SCORE.INTRA.POLAR.0>
0

>  <SCORE.INTRA.REPUL>
0

>  <SCORE.INTRA.REPUL.0>
0

>  <SCORE.INTRA.SOLV>
5.09419

>  <SCORE.INTRA.SOLV.lig_0>
-76.6701

>  <SCORE.INTRA.VDW>
0.0745753

>  <SCORE.INTRA.VDW.0>
-1.53273

>  <SCORE.INTRA.norm>
0.350397

>  <SCORE.RESTR>
1.35109

>  <SCORE.RESTR.CAVITY>
1.35109

>  <SCORE.RESTR.norm>
0.0614131

>  <SCORE.SYSTEM>
0

>  <SCORE.SYSTEM.CONST>
0

>  <SCORE.SYSTEM.DIHEDRAL>
0

>  <SCORE.SYSTEM.SOLV>
0

>  <SCORE.SYSTEM.norm>
0

>  <SCORE.heavy>
22

>  <SCORE.norm>
-0.1981

>  <RMSD>
8.028

$$$$
2f4s_lig
 OpenBabel11021811433D
libRbt.so/2013.1/901 2013/11/27
 22 23  0  0  0  0  0  0  0  0999 V2000
   27.8282   13.9965   27.8071 N   0  0  0  0  0  0  0  0  0  0  0  0
   25.3594   16.0289   31.6737 N   0  0  0  0  0  0  0  0  0  0  0  0
   24.5182   15.9575   34.0468 N   0  0  0  0  0  0  0  0  0  0  0  0
   23.0066   15.0330   27.3768 O   0  0  0  0  0  0  0  0  0  0  0  0
   24.2488   15.4651   28.0038 C   0  0  2  0  0  0  0  0  0  0  0  0
   20.2591   17.3265   29.3959 N   0  0  0  0  0  0  0  0  0  0  0  0
   25.5678   14.4712   26.1779 O   0  0  0  0  0  0  0  0  0  0  0  0
   25.4079   14.5124   27.6008 C   0  0  1  0  0  0  0  0  0  0  0  0
   23.0899   16.4268   29.9379 O   0  0  0  0  0  0  0  0  0  0  0  0
   26.7298   14.9543   28.2168 C   0  0  1  0  0  0  0  0  0  0  0  0
   22.5193   16.0746   32.1504 O   0  0  0  0  0  0  0  0  0  0  0  0
   26.5951   14.9944   29.7767 C   0  0  0  0  0  0  0  0  0  0  0  0
   22.4611   19.6073   33.1517 O   0  0  0  0  0  0  0  0  0  0  0  0
   25.4385   15.9977   30.1545 C   0  0  1  0  0  0  0  0  0  0  0  0
   20.3224   19.4979   31.2744 O   0  0  0  0  0  0  0  0  0  0  0  0
   24.1016   15.4991   29.5763 C   0  0  2  0  0  0  0  0  0  0  0  0
   21.9844   16.0860   30.7554 C   0  0  1  0  0  0  0  0  0  0  0  0
   23.0726   17.3611   32.6602 C   0  0  2  0  0  0  0  0  0  0  0  0
   23.5906   17.1334   34.0836 C   0  0  0  0  0  0  0  0  0  0  0  0
   21.9573   18.3824   32.6743 C   0  0  2  0  0  0  0  0  0  0  0  0
   21.3854   18.5379   31.2662 C   0  0  1  0  0  0  0  0  0  0  0  0
   20.8511   17.1707   30.7730 C   0  0  1  0  0  0  0  0  0  0  0  0
  5  4  1  6  0  0  0
  5  8  1  0  0  0  0
  5 16  1  0  0  0  0
  8  7  1  6  0  0  0
  8 10  1  0  0  0  0
 10  1  1  1  0  0  0
 10 12  1  0  0  0  0
 11 18  1  0  0  0  0
 12 14  1  0  0  0  0
 14  2  1  1  0  0  0
 14 16  1  0  0  0  0
 16  9  1  6  0  0  0
 17  9  1  6  0  0  0
 17 11  1  0  0  0  0
 17 22  1  0  0  0  0
 18 19  1  1  0  0  0
 18 20  1  0  0  0  0
 19  3  1  0  0  0  0
 20 13  1  6  0  0  0
 20 21  1  0  0  0  0
 21 15  1  1  0  0  0
 21 22  1  0  0  0  0
 22  6  1  6  0  0  0
M  END
>  <CHROM.1>
125.59233341,78.23100724,52.42069890,23.62249212,16.40459367,30.38059623
-0.86347407,-0.44871901,1.26337645

>  <Name>
2f4s_lig

>  <RI>
0

>  <Rbt.Current_Directory>
/home/itssahil/PROJECTS/Mol_Feturizer/New_Systems/rnas/2f4s

>  <Rbt.Executable>
rbdock ($Id: //depot/dev/client3/rdock/2013.1/src/exe/rbdock.cxx#4 $)

>  <Rbt.Library>
libRbt.so (2013.1, Build901 2013/11/27)

>  <Rbt.Parameter_File>
/export/apps/rDock/src/rDock_2013.1_src/data/scripts/dock_solv.prm

>  <Rbt.Receptor>
prm/blind_docking_100.prm

>  <SCORE>
-4.25533

>  <SCORE.INTER>
-11.8904

>  <SCORE.INTER.CONST>
1

>  <SCORE.INTER.POLAR>
-0.44373

>  <SCORE.INTER.ROT>
3

>  <SCORE.INTER.SOLV>
22.8518

>  <SCORE.INTER.VDW>
-19.6651

>  <SCORE.INTER.norm>
-0.540475

>  <SCORE.INTRA>
6.51717

>  <SCORE.INTRA.DIHEDRAL>
7.13496

>  <SCORE.INTRA.DIHEDRAL.0>
1.67653

>  <SCORE.INTRA.POLAR>
0

>  <SCORE.INTRA.POLAR.0>
0

>  <SCORE.INTRA.REPUL>
0

>  <SCORE.INTRA.REPUL.0>
0

>  <SCORE.INTRA.SOLV>
5.61947

>  <SCORE.INTRA.SOLV.lig_0>
-76.6701

>  <SCORE.INTRA.VDW>
0.139957

>  <SCORE.INTRA.VDW.0>
-1.53273

>  <SCORE.INTRA.norm>
0.296235

>  <SCORE.RESTR>
1.11795

>  <SCORE.RESTR.CAVITY>
1.11795

>  <SCORE.RESTR.norm>
0.0508159

>  <SCORE.SYSTEM>
0

>  <SCORE.SYSTEM.CONST>
0

>  <SCORE.SYSTEM.DIHEDRAL>
0

>  <SCORE.SYSTEM.SOLV>
0

>  <SCORE.SYSTEM.norm>
0

>  <SCORE.heavy>
22

>  <SCORE.norm>
-0.193424

>  <RMSD>
8.039

$$$$
2f4s_lig
 OpenBabel11021811433D
libRbt.so/2013.1/901 2013/11/27
 22 23  0  0  0  0  0  0  0  0999 V2000
   27.8271   13.9808   27.8069 N   0  0  0  0  0  0  0  0  0  0  0  0
   25.3541   16.0027   31.6763 N   0  0  0  0  0  0  0  0  0  0  0  0
   24.5009   15.9356   34.0492 N   0  0  0  0  0  0  0  0  0  0  0  0
   23.0107   15.0372   27.3674 O   0  0  0  0  0  0  0  0  0  0  0  0
   24.2526   15.4616   28.0003 C   0  0  2  0  0  0  0  0  0  0  0  0
   20.2586   17.3163   29.4022 N   0  0  0  0  0  0  0  0  0  0  0  0
   25.5734   14.4721   26.1733 O   0  0  0  0  0  0  0  0  0  0  0  0
   25.4094   14.5067   27.5959 C   0  0  1  0  0  0  0  0  0  0  0  0
   23.0914   16.4177   29.9357 O   0  0  0  0  0  0  0  0  0  0  0  0
   26.7310   14.9406   28.2181 C   0  0  1  0  0  0  0  0  0  0  0  0
   22.5298   16.0738   32.1519 O   0  0  0  0  0  0  0  0  0  0  0  0
   26.5918   14.9732   29.7778 C   0  0  0  0  0  0  0  0  0  0  0  0
   22.4768   19.6101   33.1405 O   0  0  0  0  0  0  0  0  0  0  0  0
   25.4378   15.9789   30.1572 C   0  0  1  0  0  0  0  0  0  0  0  0
   20.3303   19.4945   31.2725 O   0  0  0  0  0  0  0  0  0  0  0  0
   24.1008   15.4882   29.5725 C   0  0  2  0  0  0  0  0  0  0  0  0
   21.9892   16.0802   30.7591 C   0  0  1  0  0  0  0  0  0  0  0  0
   23.0857   17.3620   32.6547 C   0  0  2  0  0  0  0  0  0  0  0  0
   23.6094   17.1393   34.0767 C   0  0  0  0  0  0  0  0  0  0  0  0
   21.9707   18.3837   32.6696 C   0  0  2  0  0  0  0  0  0  0  0  0
   21.3930   18.5342   31.2634 C   0  0  1  0  0  0  0  0  0  0  0  0
   20.8563   17.1653   30.7774 C   0  0  1  0  0  0  0  0  0  0  0  0
  5  4  1  6  0  0  0
  5  8  1  0  0  0  0
  5 16  1  0  0  0  0
  8  7  1  6  0  0  0
  8 10  1  0  0  0  0
 10  1  1  1  0  0  0
 10 12  1  0  0  0  0
 11 18  1  0  0  0  0
 12 14  1  0  0  0  0
 14  2  1  1  0  0  0
 14 16  1  0  0  0  0
 16  9  1  6  0  0  0
 17  9  1  6  0  0  0
 17 11  1  0  0  0  0
 17 22  1  0  0  0  0
 18 19  1  1  0  0  0
 18 20  1  0  0  0  0
 19  3  1  0  0  0  0
 20 13  1  6  0  0  0
 20 21  1  0  0  0  0
 21 15  1  1  0  0  0
 21 22  1  0  0  0  0
 22  6  1  6  0  0  0
M  END
>  <CHROM.1>
126.23835291,78.28197621,50.58082879,23.62650328,16.39754396,30.37887370
-0.86369494,-0.45169042,1.26429913

>  <Name>
2f4s_lig

>  <RI>
0

>  <Rbt.Current_Directory>
/home/itssahil/PROJECTS/Mol_Feturizer/New_Systems/rnas/2f4s

>  <Rbt.Executable>
rbdock ($Id: //depot/dev/client3/rdock/2013.1/src/exe/rbdock.cxx#4 $)

>  <Rbt.Library>
libRbt.so (2013.1, Build901 2013/11/27)

>  <Rbt.Parameter_File>
/export/apps/rDock/src/rDock_2013.1_src/data/scripts/dock_solv.prm

>  <Rbt.Receptor>
prm/blind_docking_100.prm

>  <SCORE>
-4.27075

>  <SCORE.INTER>
-11.982

>  <SCORE.INTER.CONST>
1

>  <SCORE.INTER.POLAR>
-0.439484

>  <SCORE.INTER.ROT>
3

>  <SCORE.INTER.SOLV>
22.8004

>  <SCORE.INTER.VDW>
-19.7232

>  <SCORE.INTER.norm>
-0.544634

>  <SCORE.INTRA>
6.58847

>  <SCORE.INTRA.DIHEDRAL>
7.21379

>  <SCORE.INTRA.DIHEDRAL.0>
1.67653

>  <SCORE.INTRA.POLAR>
0

>  <SCORE.INTRA.POLAR.0>
0

>  <SCORE.INTRA.REPUL>
0

>  <SCORE.INTRA.REPUL.0>
0

>  <SCORE.INTRA.SOLV>
5.6474

>  <SCORE.INTRA.SOLV.lig_0>
-76.6701

>  <SCORE.INTRA.VDW>
0.157872

>  <SCORE.INTRA.VDW.0>
-1.53273

>  <SCORE.INTRA.norm>
0.299476

>  <SCORE.RESTR>
1.12274

>  <SCORE.RESTR.CAVITY>
1.12274

>  <SCORE.RESTR.norm>
0.0510336

>  <SCORE.SYSTEM>
0

>  <SCORE.SYSTEM.CONST>
0

>  <SCORE.SYSTEM.DIHEDRAL>
0

>  <SCORE.SYSTEM.SOLV>
0

>  <SCORE.SYSTEM.norm>
0

>  <SCORE.heavy>
22

>  <SCORE.norm>
-0.194125

>  <RMSD>
8.041

$$$$
2f4s_lig
 OpenBabel11021811433D
libRbt.so/2013.1/901 2013/11/27
 22 23  0  0  0  0  0  0  0  0999 V2000
   27.8343   13.9992   27.8072 N   0  0  0  0  0  0  0  0  0  0  0  0
   25.3568   16.0212   31.6736 N   0  0  0  0  0  0  0  0  0  0  0  0
   24.5124   15.9443   34.0433 N   0  0  0  0  0  0  0  0  0  0  0  0
   23.0140   15.0382   27.3683 O   0  0  0  0  0  0  0  0  0  0  0  0
   24.2549   15.4682   27.9994 C   0  0  2  0  0  0  0  0  0  0  0  0
   20.2531   17.3159   29.4181 N   0  0  0  0  0  0  0  0  0  0  0  0
   25.5780   14.4791   26.1739 O   0  0  0  0  0  0  0  0  0  0  0  0
   25.4147   14.5163   27.5965 C   0  0  1  0  0  0  0  0  0  0  0  0
   23.0916   16.4247   29.9335 O   0  0  0  0  0  0  0  0  0  0  0  0
   26.7352   14.9561   28.2169 C   0  0  1  0  0  0  0  0  0  0  0  0
   22.5473   16.0872   32.1550 O   0  0  0  0  0  0  0  0  0  0  0  0
   26.5968   14.9918   29.7766 C   0  0  0  0  0  0  0  0  0  0  0  0
   22.4947   19.6268   33.1319 O   0  0  0  0  0  0  0  0  0  0  0  0
   25.4396   15.9943   30.1545 C   0  0  1  0  0  0  0  0  0  0  0  0
   20.3345   19.5006   31.2804 O   0  0  0  0  0  0  0  0  0  0  0  0
   24.1039   15.4978   29.5717 C   0  0  2  0  0  0  0  0  0  0  0  0
   21.9962   16.0878   30.7662 C   0  0  1  0  0  0  0  0  0  0  0  0
   23.1043   17.3782   32.6492 C   0  0  2  0  0  0  0  0  0  0  0  0
   23.6392   17.1614   34.0680 C   0  0  0  0  0  0  0  0  0  0  0  0
   21.9875   18.3978   32.6690 C   0  0  2  0  0  0  0  0  0  0  0  0
   21.3990   18.5424   31.2667 C   0  0  1  0  0  0  0  0  0  0  0  0
   20.8614   17.1708   30.7894 C   0  0  1  0  0  0  0  0  0  0  0  0
  5  4  1  6  0  0  0
  5  8  1  0  0  0  0
  5 16  1  0  0  0  0
  8  7  1  6  0  0  0
  8 10  1  0  0  0  0
 10  1  1  1  0  0  0
 10 12  1  0  0  0  0
 11 18  1  0  0  0  0
 12 14  1  0  0  0  0
 14  2  1  1  0  0  0
 14 16  1  0  0  0  0
 16  9  1  6  0  0  0
 17  9  1  6  0  0  0
 17 11  1  0  0  0  0
 17 22  1  0  0  0  0
 18 19  1  1  0  0  0
 18 20  1  0  0  0  0
 19  3  1  0  0  0  0
 20 13  1  6  0  0  0
 20 21  1  0  0  0  0
 21 15  1  1  0  0  0
 21 22  1  0  0  0  0
 22  6  1  6  0  0  0
M  END
>  <CHROM.1>
126.71396185,77.93308168,49.54031196,23.63417879,16.40860721,30.37932384
-0.86595794,-0.44822433,1.26036478

>  <Name>
2f4s_lig

>  <RI>
0

>  <Rbt.Current_Directory>
/home/itssahil/PROJECTS/Mol_Feturizer/New_Systems/rnas/2f4s

>  <Rbt.Executable>
rbdock ($Id: //depot/dev/client3/rdock/2013.1/src/exe/rbdock.cxx#4 $)

>  <Rbt.Library>
libRbt.so (2013.1, Build901 2013/11/27)

>  <Rbt.Parameter_File>
/export/apps/rDock/src/rDock_2013.1_src/data/scripts/dock_solv.prm

>  <Rbt.Receptor>
prm/blind_docking_100.prm

>  <SCORE>
-4.25745

>  <SCORE.INTER>
-12.0583

>  <SCORE.INTER.CONST>
1

>  <SCORE.INTER.POLAR>
-0.431993

>  <SCORE.INTER.ROT>
3

>  <SCORE.INTER.SOLV>
22.774

>  <SCORE.INTER.VDW>
-19.7902

>  <SCORE.INTER.norm>
-0.548103

>  <SCORE.INTRA>
6.68205

>  <SCORE.INTRA.DIHEDRAL>
7.20327

>  <SCORE.INTRA.DIHEDRAL.0>
1.67653

>  <SCORE.INTRA.POLAR>
0

>  <SCORE.INTRA.POLAR.0>
0

>  <SCORE.INTRA.REPUL>
0

>  <SCORE.INTRA.REPUL.0>
0

>  <SCORE.INTRA.SOLV>
5.69595

>  <SCORE.INTRA.SOLV.lig_0>
-76.6701

>  <SCORE.INTRA.VDW>
0.232441

>  <SCORE.INTRA.VDW.0>
-1.53273

>  <SCORE.INTRA.norm>
0.303729

>  <SCORE.RESTR>
1.11878

>  <SCORE.RESTR.CAVITY>
1.11878

>  <SCORE.RESTR.norm>
0.0508537

>  <SCORE.SYSTEM>
0

>  <SCORE.SYSTEM.CONST>
0

>  <SCORE.SYSTEM.DIHEDRAL>
0

>  <SCORE.SYSTEM.SOLV>
0

>  <SCORE.SYSTEM.norm>
0

>  <SCORE.heavy>
22

>  <SCORE.norm>
-0.19352

>  <RMSD>
8.045

$$$$
2f4s_lig
 OpenBabel11021811433D
libRbt.so/2013.1/901 2013/11/27
 22 23  0  0  0  0  0  0  0  0999 V2000
   27.8307   13.9769   27.7910 N   0  0  0  0  0  0  0  0  0  0  0  0
   25.3710   15.9984   31.6691 N   0  0  0  0  0  0  0  0  0  0  0  0
   24.5108   15.9372   34.0486 N   0  0  0  0  0  0  0  0  0  0  0  0
   23.0161   15.0467   27.3633 O   0  0  0  0  0  0  0  0  0  0  0  0
   24.2604   15.4667   27.9943 C   0  0  2  0  0  0  0  0  0  0  0  0
   20.2765   17.3264   29.3905 N   0  0  0  0  0  0  0  0  0  0  0  0
   25.5749   14.4769   26.1629 O   0  0  0  0  0  0  0  0  0  0  0  0
   25.4139   14.5095   27.5859 C   0  0  1  0  0  0  0  0  0  0  0  0
   23.1058   16.4224   29.9339 O   0  0  0  0  0  0  0  0  0  0  0  0
   26.7379   14.9388   28.2061 C   0  0  1  0  0  0  0  0  0  0  0  0
   22.5340   16.0729   32.1466 O   0  0  0  0  0  0  0  0  0  0  0  0
   26.6020   14.9691   29.7661 C   0  0  0  0  0  0  0  0  0  0  0  0
   22.4814   19.6064   33.1452 O   0  0  0  0  0  0  0  0  0  0  0  0
   25.4514   15.9771   30.1497 C   0  0  1  0  0  0  0  0  0  0  0  0
   20.3430   19.4991   31.2675 O   0  0  0  0  0  0  0  0  0  0  0  0
   24.1119   15.4909   29.5670 C   0  0  2  0  0  0  0  0  0  0  0  0
   21.9995   16.0840   30.7514 C   0  0  1  0  0  0  0  0  0  0  0  0
   23.0893   17.3588   32.6555 C   0  0  2  0  0  0  0  0  0  0  0  0
   23.6065   17.1313   34.0792 C   0  0  0  0  0  0  0  0  0  0  0  0
   21.9757   18.3820   32.6686 C   0  0  2  0  0  0  0  0  0  0  0  0
   21.4044   18.5374   31.2603 C   0  0  1  0  0  0  0  0  0  0  0  0
   20.8680   17.1706   30.7679 C   0  0  1  0  0  0  0  0  0  0  0  0
  5  4  1  6  0  0  0
  5  8  1  0  0  0  0
  5 16  1  0  0  0  0
  8  7  1  6  0  0  0
  8 10  1  0  0  0  0
 10  1  1  1  0  0  0
 10 12  1  0  0  0  0
 11 18  1  0  0  0  0
 12 14  1  0  0  0  0
 14  2  1  1  0  0  0
 14 16  1  0  0  0  0
 16  9  1  6  0  0  0
 17  9  1  6  0  0  0
 17 11  1  0  0  0  0
 17 22  1  0  0  0  0
 18 19  1  1  0  0  0
 18 20  1  0  0  0  0
 19  3  1  0  0  0  0
 20 13  1  6  0  0  0
 20 21  1  0  0  0  0
 21 15  1  1  0  0  0
 21 22  1  0  0  0  0
 22  6  1  6  0  0  0
M  END
>  <CHROM.1>
125.79063285,78.60524344,51.30946948,23.63481601,16.39873069,30.37314609
-0.86407112,-0.45382389,1.26684307

>  <Name>
2f4s_lig

>  <RI>
0

>  <Rbt.Current_Directory>
/home/itssahil/PROJECTS/Mol_Feturizer/New_Systems/rnas/2f4s

>  <Rbt.Executable>
rbdock ($Id: //depot/dev/client3/rdock/2013.1/src/exe/rbdock.cxx#4 $)

>  <Rbt.Library>
libRbt.so (2013.1, Build901 2013/11/27)

>  <Rbt.Parameter_File>
/export/apps/rDock/src/rDock_2013.1_src/data/scripts/dock_solv.prm

>  <Rbt.Receptor>
prm/blind_docking_100.prm

>  <SCORE>
-4.28078

>  <SCORE.INTER>
-11.9137

>  <SCORE.INTER.CONST>
1

>  <SCORE.INTER.POLAR>
-0.438272

>  <SCORE.INTER.ROT>
3

>  <SCORE.INTER.SOLV>
22.8996

>  <SCORE.INTER.VDW>
-19.7147

>  <SCORE.INTER.norm>
-0.541531

>  <SCORE.INTRA>
6.50442

>  <SCORE.INTRA.DIHEDRAL>
7.24274

>  <SCORE.INTRA.DIHEDRAL.0>
1.67653

>  <SCORE.INTRA.POLAR>
0

>  <SCORE.INTRA.POLAR.0>
0

>  <SCORE.INTRA.REPUL>
0

>  <SCORE.INTRA.REPUL.0>
0

>  <SCORE.INTRA.SOLV>
5.59855

>  <SCORE.INTRA.SOLV.lig_0>
-76.6701

>  <SCORE.INTRA.VDW>
0.0837746

>  <SCORE.INTRA.VDW.0>
-1.53273

>  <SCORE.INTRA.norm>
0.295655

>  <SCORE.RESTR>
1.12849

>  <SCORE.RESTR.CAVITY>
1.12849

>  <SCORE.RESTR.norm>
0.051295

>  <SCORE.SYSTEM>
0

>  <SCORE.SYSTEM.CONST>
0

>  <SCORE.SYSTEM.DIHEDRAL>
0

>  <SCORE.SYSTEM.SOLV>
0

>  <SCORE.SYSTEM.norm>
0

>  <SCORE.heavy>
22

>  <SCORE.norm>
-0.194581

>  <RMSD>
8.048

$$$$
2f4s_lig
 OpenBabel11021811433D
libRbt.so/2013.1/901 2013/11/27
 22 23  0  0  0  0  0  0  0  0999 V2000
   27.8308   13.9802   27.7974 N   0  0  0  0  0  0  0  0  0  0  0  0
   25.3669   16.0068   31.6701 N   0  0  0  0  0  0  0  0  0  0  0  0
   24.5003   15.9325   34.0499 N   0  0  0  0  0  0  0  0  0  0  0  0
   23.0148   15.0416   27.3659 O   0  0  0  0  0  0  0  0  0  0  0  0
   24.2582   15.4650   27.9963 C   0  0  2  0  0  0  0  0  0  0  0  0
   20.2626   17.3169   29.4240 N   0  0  0  0  0  0  0  0  0  0  0  0
   25.5748   14.4731   26.1675 O   0  0  0  0  0  0  0  0  0  0  0  0
   25.4133   14.5086   27.5904 C   0  0  1  0  0  0  0  0  0  0  0  0
   23.1015   16.4234   29.9333 O   0  0  0  0  0  0  0  0  0  0  0  0
   26.7365   14.9413   28.2100 C   0  0  1  0  0  0  0  0  0  0  0  0
   22.5642   16.0956   32.1579 O   0  0  0  0  0  0  0  0  0  0  0  0
   26.6000   14.9750   29.7699 C   0  0  0  0  0  0  0  0  0  0  0  0
   22.5202   19.6390   33.1210 O   0  0  0  0  0  0  0  0  0  0  0  0
   25.4478   15.9821   30.1509 C   0  0  1  0  0  0  0  0  0  0  0  0
   20.3536   19.5088   31.2774 O   0  0  0  0  0  0  0  0  0  0  0  0
   24.1092   15.4926   29.5688 C   0  0  2  0  0  0  0  0  0  0  0  0
   22.0085   16.0915   30.7710 C   0  0  1  0  0  0  0  0  0  0  0  0
   23.1249   17.3876   32.6451 C   0  0  2  0  0  0  0  0  0  0  0  0
   23.6642   17.1756   34.0630 C   0  0  0  0  0  0  0  0  0  0  0  0
   22.0097   18.4089   32.6647 C   0  0  2  0  0  0  0  0  0  0  0  0
   21.4166   18.5489   31.2638 C   0  0  1  0  0  0  0  0  0  0  0  0
   20.8753   17.1763   30.7937 C   0  0  1  0  0  0  0  0  0  0  0  0
  5  4  1  6  0  0  0
  5  8  1  0  0  0  0
  5 16  1  0  0  0  0
  8  7  1  6  0  0  0
  8 10  1  0  0  0  0
 10  1  1  1  0  0  0
 10 12  1  0  0  0  0
 11 18  1  0  0  0  0
 12 14  1  0  0  0  0
 14  2  1  1  0  0  0
 14 16  1  0  0  0  0
 16  9  1  6  0  0  0
 17  9  1  6  0  0  0
 17 11  1  0  0  0  0
 17 22  1  0  0  0  0
 18 19  1  1  0  0  0
 18 20  1  0  0  0  0
 19  3  1  0  0  0  0
 20 13  1  6  0  0  0
 20 21  1  0  0  0  0
 21 15  1  1  0  0  0
 21 22  1  0  0  0  0
 22  6  1  6  0  0  0
M  END
>  <CHROM.1>
126.97343548,78.11224674,47.77448593,23.64353765,16.40747777,30.37669267
-0.86878074,-0.45185623,1.25914180

>  <Name>
2f4s_lig

>  <RI>
0

>  <Rbt.Current_Directory>
/home/itssahil/PROJECTS/Mol_Feturizer/New_Systems/rnas/2f4s

>  <Rbt.Executable>
rbdock ($Id: //depot/dev/client3/rdock/2013.1/src/exe/rbdock.cxx#4 $)

>  <Rbt.Library>
libRbt.so (2013.1, Build901 2013/11/27)

>  <Rbt.Parameter_File>
/export/apps/rDock/src/rDock_2013.1_src/data/scripts/dock_solv.prm

>  <Rbt.Receptor>
prm/blind_docking_100.prm

>  <SCORE>
-4.22114

>  <SCORE.INTER>
-12.0308

>  <SCORE.INTER.CONST>
1

>  <SCORE.INTER.POLAR>
-0.422468

>  <SCORE.INTER.ROT>
3

>  <SCORE.INTER.SOLV>
22.7796

>  <SCORE.INTER.VDW>
-19.8055

>  <SCORE.INTER.norm>
-0.546853

>  <SCORE.INTRA>
6.69693

>  <SCORE.INTRA.DIHEDRAL>
7.34786

>  <SCORE.INTRA.DIHEDRAL.0>
1.67653

>  <SCORE.INTRA.POLAR>
0

>  <SCORE.INTRA.POLAR.0>
0

>  <SCORE.INTRA.REPUL>
0

>  <SCORE.INTRA.REPUL.0>
0

>  <SCORE.INTRA.SOLV>
5.68249

>  <SCORE.INTRA.SOLV.lig_0>
-76.6701

>  <SCORE.INTRA.VDW>
0.181753

>  <SCORE.INTRA.VDW.0>
-1.53273

>  <SCORE.INTRA.norm>
0.304406

>  <SCORE.RESTR>
1.1127

>  <SCORE.RESTR.CAVITY>
1.1127

>  <SCORE.RESTR.norm>
0.0505775

>  <SCORE.SYSTEM>
0

>  <SCORE.SYSTEM.CONST>
0

>  <SCORE.SYSTEM.DIHEDRAL>
0

>  <SCORE.SYSTEM.SOLV>
0

>  <SCORE.SYSTEM.norm>
0

>  <SCORE.heavy>
22

>  <SCORE.norm>
-0.19187

>  <RMSD>
8.052

$$$$
2f4s_lig
 OpenBabel11021811433D
libRbt.so/2013.1/901 2013/11/27
 22 23  0  0  0  0  0  0  0  0999 V2000
   27.8297   13.9821   27.7914 N   0  0  0  0  0  0  0  0  0  0  0  0
   25.3716   16.0100   31.6672 N   0  0  0  0  0  0  0  0  0  0  0  0
   24.4990   15.9500   34.0546 N   0  0  0  0  0  0  0  0  0  0  0  0
   23.0105   15.0332   27.3705 O   0  0  0  0  0  0  0  0  0  0  0  0
   24.2547   15.4600   27.9970 C   0  0  2  0  0  0  0  0  0  0  0  0
   20.2604   17.3001   29.4142 N   0  0  0  0  0  0  0  0  0  0  0  0
   25.5686   14.4678   26.1665 O   0  0  0  0  0  0  0  0  0  0  0  0
   25.4107   14.5053   27.5897 C   0  0  1  0  0  0  0  0  0  0  0  0
   23.1011   16.4193   29.9355 O   0  0  0  0  0  0  0  0  0  0  0  0
   26.7345   14.9417   28.2053 C   0  0  1  0  0  0  0  0  0  0  0  0
   22.5569   16.0931   32.1586 O   0  0  0  0  0  0  0  0  0  0  0  0
   26.6020   14.9776   29.7655 C   0  0  0  0  0  0  0  0  0  0  0  0
   22.4947   19.6381   33.1153 O   0  0  0  0  0  0  0  0  0  0  0  0
   25.4487   15.9830   30.1477 C   0  0  1  0  0  0  0  0  0  0  0  0
   20.3354   19.4956   31.2640 O   0  0  0  0  0  0  0  0  0  0  0  0
   24.1097   15.4899   29.5699 C   0  0  2  0  0  0  0  0  0  0  0  0
   22.0063   16.0843   30.7697 C   0  0  1  0  0  0  0  0  0  0  0  0
   23.1104   17.3883   32.6456 C   0  0  2  0  0  0  0  0  0  0  0  0
   23.6454   17.1810   34.0659 C   0  0  0  0  0  0  0  0  0  0  0  0
   21.9909   18.4051   32.6593 C   0  0  2  0  0  0  0  0  0  0  0  0
   21.4025   18.5401   31.2560 C   0  0  1  0  0  0  0  0  0  0  0  0
   20.8686   17.1644   30.7864 C   0  0  1  0  0  0  0  0  0  0  0  0
  5  4  1  6  0  0  0
  5  8  1  0  0  0  0
  5 16  1  0  0  0  0
  8  7  1  6  0  0  0
  8 10  1  0  0  0  0
 10  1  1  1  0  0  0
 10 12  1  0  0  0  0
 11 18  1  0  0  0  0
 12 14  1  0  0  0  0
 14  2  1  1  0  0  0
 14 16  1  0  0  0  0
 16  9  1  6  0  0  0
 17  9  1  6  0  0  0
 17 11  1  0  0  0  0
 17 22  1  0  0  0  0
 18 19  1  1  0  0  0
 18 20  1  0  0  0  0
 19  3  1  0  0  0  0
 20 13  1  6  0  0  0
 20 21  1  0  0  0  0
 21 15  1  1  0  0  0
 21 22  1  0  0  0  0
 22  6  1  6  0  0  0
M  END
>  <CHROM.1>
126.56678214,78.49767765,48.39286218,23.63694899,16.40463266,30.37415120
-0.86807120,-0.44914649,1.25815711

>  <Name>
2f4s_lig

>  <RI>
0

>  <Rbt.Current_Directory>
/home/itssahil/PROJECTS/Mol_Feturizer/New_Systems/rnas/2f4s

>  <Rbt.Executable>
rbdock ($Id: //depot/dev/client3/rdock/2013.1/src/exe/rbdock.cxx#4 $)

>  <Rbt.Library>
libRbt.so (2013.1, Build901 2013/11/27)

>  <Rbt.Parameter_File>
/export/apps/rDock/src/rDock_2013.1_src/data/scripts/dock_solv.prm

>  <Rbt.Receptor>
prm/blind_docking_100.prm

>  <SCORE>
-4.17412

>  <SCORE.INTER>
-11.8851

>  <SCORE.INTER.CONST>
1

>  <SCORE.INTER.POLAR>
-0.42779

>  <SCORE.INTER.ROT>
3

>  <SCORE.INTER.SOLV>
22.7409

>  <SCORE.INTER.VDW>
-19.6777

>  <SCORE.INTER.norm>
-0.540233

>  <SCORE.INTRA>
6.60936

>  <SCORE.INTRA.DIHEDRAL>
7.38227

>  <SCORE.INTRA.DIHEDRAL.0>
1.67653

>  <SCORE.INTRA.POLAR>
0

>  <SCORE.INTRA.POLAR.0>
0

>  <SCORE.INTRA.REPUL>
0

>  <SCORE.INTRA.REPUL.0>
0

>  <SCORE.INTRA.SOLV>
5.63289

>  <SCORE.INTRA.SOLV.lig_0>
-76.6701

>  <SCORE.INTRA.VDW>
0.101772

>  <SCORE.INTRA.VDW.0>
-1.53273

>  <SCORE.INTRA.norm>
0.300425

>  <SCORE.RESTR>
1.10166

>  <SCORE.RESTR.CAVITY>
1.10166

>  <SCORE.RESTR.norm>
0.0500753

>  <SCORE.SYSTEM>
0

>  <SCORE.SYSTEM.CONST>
0

>  <SCORE.SYSTEM.DIHEDRAL>
0

>  <SCORE.SYSTEM.SOLV>
0

>  <SCORE.SYSTEM.norm>
0

>  <SCORE.heavy>
22

>  <SCORE.norm>
-0.189733

>  <RMSD>
8.053

$$$$
2f4s_lig
 OpenBabel11021811433D
libRbt.so/2013.1/901 2013/11/27
 22 23  0  0  0  0  0  0  0  0999 V2000
   27.8221   13.9885   27.6687 N   0  0  0  0  0  0  0  0  0  0  0  0
   25.3315   16.0396   31.5113 N   0  0  0  0  0  0  0  0  0  0  0  0
   22.4914   16.0182   34.6784 N   0  0  0  0  0  0  0  0  0  0  0  0
   22.9987   15.0053   27.2126 O   0  0  0  0  0  0  0  0  0  0  0  0
   24.2370   15.4461   27.8412 C   0  0  2  0  0  0  0  0  0  0  0  0
   20.3009   17.5504   29.3401 N   0  0  0  0  0  0  0  0  0  0  0  0
   25.5664   14.4440   26.0274 O   0  0  0  0  0  0  0  0  0  0  0  0
   25.4009   14.4946   27.4494 C   0  0  1  0  0  0  0  0  0  0  0  0
   23.0674   16.4174   29.7641 O   0  0  0  0  0  0  0  0  0  0  0  0
   26.7189   14.9454   28.0673 C   0  0  1  0  0  0  0  0  0  0  0  0
   22.4811   15.8865   31.9365 O   0  0  0  0  0  0  0  0  0  0  0  0
   26.5781   14.9960   29.6264 C   0  0  0  0  0  0  0  0  0  0  0  0
   22.6602   19.2990   33.2813 O   0  0  0  0  0  0  0  0  0  0  0  0
   25.4166   15.9980   29.9927 C   0  0  1  0  0  0  0  0  0  0  0  0
   20.5135   19.5165   31.4226 O   0  0  0  0  0  0  0  0  0  0  0  0
   24.0837   15.4907   29.4129 C   0  0  2  0  0  0  0  0  0  0  0  0
   21.9441   16.0708   30.5544 C   0  0  1  0  0  0  0  0  0  0  0  0
   23.1200   17.0770   32.5652 C   0  0  2  0  0  0  0  0  0  0  0  0
   23.6259   16.6762   33.9543 C   0  0  0  0  0  0  0  0  0  0  0  0
   22.0750   18.1631   32.6903 C   0  0  2  0  0  0  0  0  0  0  0  0
   21.5105   18.4943   31.3099 C   0  0  1  0  0  0  0  0  0  0  0  0
   20.8853   17.2206   30.6895 C   0  0  1  0  0  0  0  0  0  0  0  0
  5  4  1  6  0  0  0
  5  8  1  0  0  0  0
  5 16  1  0  0  0  0
  8  7  1  6  0  0  0
  8 10  1  0  0  0  0
 10  1  1  1  0  0  0
 10 12  1  0  0  0  0
 11 18  1  0  0  0  0
 12 14  1  0  0  0  0
 14  2  1  1  0  0  0
 14 16  1  0  0  0  0
 16  9  1  6  0  0  0
 17  9  1  6  0  0  0
 17 11  1  0  0  0  0
 17 22  1  0  0  0  0
 18 19  1  1  0  0  0
 18 20  1  0  0  0  0
 19  3  1  0  0  0  0
 20 13  1  6  0  0  0
 20 21  1  0  0  0  0
 21 15  1  1  0  0  0
 21 22  1  0  0  0  0
 22  6  1  6  0  0  0
M  END
>  <CHROM.1>
124.10557802,71.86372198,-51.16150463,23.55769489,16.34525166,30.31197081
-0.88043471,-0.46684475,1.33904861

>  <Name>
2f4s_lig

>  <RI>
0

>  <Rbt.Current_Directory>
/home/itssahil/PROJECTS/Mol_Feturizer/New_Systems/rnas/2f4s

>  <Rbt.Executable>
rbdock ($Id: //depot/dev/client3/rdock/2013.1/src/exe/rbdock.cxx#4 $)

>  <Rbt.Library>
libRbt.so (2013.1, Build901 2013/11/27)

>  <Rbt.Parameter_File>
/export/apps/rDock/src/rDock_2013.1_src/data/scripts/dock_solv.prm

>  <Rbt.Receptor>
prm/blind_docking_100.prm

>  <SCORE>
-6.01385

>  <SCORE.INTER>
-13.9566

>  <SCORE.INTER.CONST>
1

>  <SCORE.INTER.POLAR>
-0.479244

>  <SCORE.INTER.ROT>
3

>  <SCORE.INTER.SOLV>
21.1399

>  <SCORE.INTER.VDW>
-20.3536

>  <SCORE.INTER.norm>
-0.634392

>  <SCORE.INTRA>
6.03947

>  <SCORE.INTRA.DIHEDRAL>
6.468

>  <SCORE.INTRA.DIHEDRAL.0>
1.67653

>  <SCORE.INTRA.POLAR>
0

>  <SCORE.INTRA.POLAR.0>
0

>  <SCORE.INTRA.REPUL>
0

>  <SCORE.INTRA.REPUL.0>
0

>  <SCORE.INTRA.SOLV>
4.79442

>  <SCORE.INTRA.SOLV.lig_0>
-76.6701

>  <SCORE.INTRA.VDW>
0.408261

>  <SCORE.INTRA.VDW.0>
-1.53273

>  <SCORE.INTRA.norm>
0.274521

>  <SCORE.RESTR>
1.9033

>  <SCORE.RESTR.CAVITY>
1.9033

>  <SCORE.RESTR.norm>
0.0865138

>  <SCORE.SYSTEM>
0

>  <SCORE.SYSTEM.CONST>
0

>  <SCORE.SYSTEM.DIHEDRAL>
0

>  <SCORE.SYSTEM.SOLV>
0

>  <SCORE.SYSTEM.norm>
0

>  <SCORE.heavy>
22

>  <SCORE.norm>
-0.273357

>  <RMSD>
8.074

$$$$
2f4s_lig
 OpenBabel11021811433D
libRbt.so/2013.1/901 2013/11/27
 22 23  0  0  0  0  0  0  0  0999 V2000
   26.4083   14.2106   27.3569 N   0  0  0  0  0  0  0  0  0  0  0  0
   25.5557   14.9538   32.2453 N   0  0  0  0  0  0  0  0  0  0  0  0
   24.1997   20.4996   34.2942 N   0  0  0  0  0  0  0  0  0  0  0  0
   22.6785   17.1344   28.7875 O   0  0  0  0  0  0  0  0  0  0  0  0
   24.0201   16.6871   29.1377 C   0  0  2  0  0  0  0  0  0  0  0  0
   20.9285   16.1099   30.5225 N   0  0  0  0  0  0  0  0  0  0  0  0
   24.5396   16.2487   26.7713 O   0  0  0  0  0  0  0  0  0  0  0  0
   24.5348   15.6703   28.0818 C   0  0  1  0  0  0  0  0  0  0  0  0
   23.6332   16.9855   31.5397 O   0  0  0  0  0  0  0  0  0  0  0  0
   25.9496   15.2043   28.4028 C   0  0  1  0  0  0  0  0  0  0  0  0
   22.6029   17.8952   33.3987 O   0  0  0  0  0  0  0  0  0  0  0  0
   25.9772   14.5501   29.8255 C   0  0  0  0  0  0  0  0  0  0  0  0
   21.2345   20.8650   31.7275 O   0  0  0  0  0  0  0  0  0  0  0  0
   25.4874   15.6177   30.8779 C   0  0  1  0  0  0  0  0  0  0  0  0
   19.8289   18.7609   30.4209 O   0  0  0  0  0  0  0  0  0  0  0  0
   24.0349   16.0270   30.5729 C   0  0  2  0  0  0  0  0  0  0  0  0
   22.4958   16.8192   32.3676 C   0  0  1  0  0  0  0  0  0  0  0  0
   22.5901   19.2988   32.8980 C   0  0  2  0  0  0  0  0  0  0  0  0
   22.7374   20.2403   34.0972 C   0  0  0  0  0  0  0  0  0  0  0  0
   21.2656   19.5429   32.2101 C   0  0  2  0  0  0  0  0  0  0  0  0
   21.0859   18.5406   31.0712 C   0  0  1  0  0  0  0  0  0  0  0  0
   21.1352   17.1008   31.6391 C   0  0  1  0  0  0  0  0  0  0  0  0
  5  4  1  6  0  0  0
  5  8  1  0  0  0  0
  5 16  1  0  0  0  0
  8  7  1  6  0  0  0
  8 10  1  0  0  0  0
 10  1  1  6  0  0  0
 10 12  1  0  0  0  0
 11 18  1  0  0  0  0
 12 14  1  0  0  0  0
 14  2  1  1  0  0  0
 14 16  1  0  0  0  0
 16  9  1  1  0  0  0
 17  9  1  6  0  0  0
 17 11  1  0  0  0  0
 17 22  1  0  0  0  0
 18 19  1  1  0  0  0
 18 20  1  0  0  0  0
 19  3  1  0  0  0  0
 20 13  1  6  0  0  0
 20 21  1  0  0  0  0
 21 15  1  1  0  0  0
 21 22  1  0  0  0  0
 22  6  1  6  0  0  0
M  END
>  <CHROM.1>
119.60324160,168.84945543,90.94734982,23.28209802,17.26030438,30.81783382
-0.94084867,-0.53701228,1.12319966

>  <Name>
2f4s_lig

>  <RI>
0

>  <Rbt.Current_Directory>
/home/itssahil/PROJECTS/Mol_Feturizer/New_Systems/rnas/2f4s

>  <Rbt.Executable>
rbdock ($Id: //depot/dev/client3/rdock/2013.1/src/exe/rbdock.cxx#4 $)

>  <Rbt.Library>
libRbt.so (2013.1, Build901 2013/11/27)

>  <Rbt.Parameter_File>
/export/apps/rDock/src/rDock_2013.1_src/data/scripts/dock_solv.prm

>  <Rbt.Receptor>
prm/blind_docking_80.prm

>  <SCORE>
0.163577

>  <SCORE.INTER>
-6.32418

>  <SCORE.INTER.CONST>
1

>  <SCORE.INTER.POLAR>
0

>  <SCORE.INTER.ROT>
3

>  <SCORE.INTER.SOLV>
24.7573

>  <SCORE.INTER.VDW>
-18.0686

>  <SCORE.INTER.norm>
-0.287463

>  <SCORE.INTRA>
5.20963

>  <SCORE.INTRA.DIHEDRAL>
8.96687

>  <SCORE.INTRA.DIHEDRAL.0>
1.67653

>  <SCORE.INTRA.POLAR>
0

>  <SCORE.INTRA.POLAR.0>
0

>  <SCORE.INTRA.REPUL>
0

>  <SCORE.INTRA.REPUL.0>
0

>  <SCORE.INTRA.SOLV>
2.50317

>  <SCORE.INTRA.SOLV.lig_0>
-76.6701

>  <SCORE.INTRA.VDW>
-0.525389

>  <SCORE.INTRA.VDW.0>
-1.53273

>  <SCORE.INTRA.norm>
0.236801

>  <SCORE.RESTR>
1.27812

>  <SCORE.RESTR.CAVITY>
1.27812

>  <SCORE.RESTR.norm>
0.0580963

>  <SCORE.SYSTEM>
0

>  <SCORE.SYSTEM.CONST>
0

>  <SCORE.SYSTEM.DIHEDRAL>
0

>  <SCORE.SYSTEM.SOLV>
0

>  <SCORE.SYSTEM.norm>
0

>  <SCORE.heavy>
22

>  <SCORE.norm>
0.0074353

>  <RMSD>
8.137

$$$$
2f4s_lig
 OpenBabel11021811433D
libRbt.so/2013.1/901 2013/11/27
 22 23  0  0  0  0  0  0  0  0999 V2000
   26.0246   14.4987   25.9574 N   0  0  0  0  0  0  0  0  0  0  0  0
   22.9617   17.1308   28.9350 N   0  0  0  0  0  0  0  0  0  0  0  0
   20.1209   18.7851   31.2007 N   0  0  0  0  0  0  0  0  0  0  0  0
   26.8723   14.6613   30.8320 O   0  0  0  0  0  0  0  0  0  0  0  0
   25.8221   14.6710   29.8221 C   0  0  2  0  0  0  0  0  0  0  0  0
   24.7355   16.4376   34.1779 N   0  0  0  0  0  0  0  0  0  0  0  0
   27.2504   13.4124   28.2609 O   0  0  0  0  0  0  0  0  0  0  0  0
   26.4480   14.5905   28.4025 C   0  0  1  0  0  0  0  0  0  0  0  0
   24.3101   16.0000   31.2208 O   0  0  0  0  0  0  0  0  0  0  0  0
   25.3735   14.5686   27.3222 C   0  0  1  0  0  0  0  0  0  0  0  0
   22.7369   17.6942   31.2300 O   0  0  0  0  0  0  0  0  0  0  0  0
   24.4860   15.8539   27.4377 C   0  0  0  0  0  0  0  0  0  0  0  0
   20.0498   15.7831   32.8464 O   0  0  0  0  0  0  0  0  0  0  0  0
   23.8351   15.8864   28.8738 C   0  0  1  0  0  0  0  0  0  0  0  0
   22.0130   15.8862   34.9069 O   0  0  0  0  0  0  0  0  0  0  0  0
   24.9356   15.9727   29.9469 C   0  0  2  0  0  0  0  0  0  0  0  0
   23.9808   17.2014   31.8952 C   0  0  1  0  0  0  0  0  0  0  0  0
   21.5466   16.8004   31.3018 C   0  0  2  0  0  0  0  0  0  0  0  0
   20.3956   17.4676   30.5427 C   0  0  0  0  0  0  0  0  0  0  0  0
   21.1729   16.6273   32.7570 C   0  0  2  0  0  0  0  0  0  0  0  0
   22.3576   16.0445   33.5257 C   0  0  1  0  0  0  0  0  0  0  0  0
   23.5737   16.9945   33.3961 C   0  0  1  0  0  0  0  0  0  0  0  0
  5  4  1  1  0  0  0
  5  8  1  0  0  0  0
  5 16  1  0  0  0  0
  8  7  1  1  0  0  0
  8 10  1  0  0  0  0
 10  1  1  6  0  0  0
 10 12  1  0  0  0  0
 11 18  1  0  0  0  0
 12 14  1  0  0  0  0
 14  2  1  6  0  0  0
 14 16  1  0  0  0  0
 16  9  1  1  0  0  0
 17  9  1  6  0  0  0
 17 11  1  0  0  0  0
 17 22  1  0  0  0  0
 18 19  1  6  0  0  0
 18 20  1  0  0  0  0
 19  3  1  0  0  0  0
 20 13  1  6  0  0  0
 20 21  1  0  0  0  0
 21 15  1  1  0  0  0
 21 22  1  0  0  0  0
 22  6  1  1  0  0  0
M  END
>  <CHROM.1>
150.08604417,77.93935115,-59.76885782,23.68201622,16.02937615,30.70428206
0.75777045,0.46859931,-1.56322888

>  <Name>
2f4s_lig

>  <RI>
0

>  <Rbt.Current_Directory>
/home/itssahil/PROJECTS/Mol_Feturizer/New_Systems/rnas/2f4s

>  <Rbt.Executable>
rbdock ($Id: //depot/dev/client3/rdock/2013.1/src/exe/rbdock.cxx#4 $)

>  <Rbt.Library>
libRbt.so (2013.1, Build901 2013/11/27)

>  <Rbt.Parameter_File>
/export/apps/rDock/src/rDock_2013.1_src/data/scripts/dock_solv.prm

>  <Rbt.Receptor>
prm/blind_docking_100.prm

>  <SCORE>
-6.1574

>  <SCORE.INTER>
-15.7859

>  <SCORE.INTER.CONST>
1

>  <SCORE.INTER.POLAR>
-1.07659

>  <SCORE.INTER.ROT>
3

>  <SCORE.INTER.SOLV>
20.0683

>  <SCORE.INTER.VDW>
-19.2247

>  <SCORE.INTER.norm>
-0.717541

>  <SCORE.INTRA>
5.96211

>  <SCORE.INTRA.DIHEDRAL>
3.46145

>  <SCORE.INTRA.DIHEDRAL.0>
1.67653

>  <SCORE.INTRA.POLAR>
0

>  <SCORE.INTRA.POLAR.0>
0

>  <SCORE.INTRA.REPUL>
0

>  <SCORE.INTRA.REPUL.0>
0

>  <SCORE.INTRA.SOLV>
5.50431

>  <SCORE.INTRA.SOLV.lig_0>
-76.6701

>  <SCORE.INTRA.VDW>
1.47923

>  <SCORE.INTRA.VDW.0>
-1.53273

>  <SCORE.INTRA.norm>
0.271005

>  <SCORE.RESTR>
3.66638

>  <SCORE.RESTR.CAVITY>
3.66638

>  <SCORE.RESTR.norm>
0.166654

>  <SCORE.SYSTEM>
0

>  <SCORE.SYSTEM.CONST>
0

>  <SCORE.SYSTEM.DIHEDRAL>
0

>  <SCORE.SYSTEM.SOLV>
0

>  <SCORE.SYSTEM.norm>
0

>  <SCORE.heavy>
22

>  <SCORE.norm>
-0.279882

>  <RMSD>
8.167

$$$$
2f4s_lig
 OpenBabel11021811433D
libRbt.so/2013.1/901 2013/11/27
 22 23  0  0  0  0  0  0  0  0999 V2000
   31.8626   21.6872   34.0153 N   0  0  0  0  0  0  0  0  0  0  0  0
   27.3734   20.8088   36.0771 N   0  0  0  0  0  0  0  0  0  0  0  0
   28.6097   18.2430   41.6914 N   0  0  0  0  0  0  0  0  0  0  0  0
   31.1019   17.5155   36.5698 O   0  0  0  0  0  0  0  0  0  0  0  0
   30.4597   18.4949   35.7030 C   0  0  2  0  0  0  0  0  0  0  0  0
   26.7935   15.4954   36.7121 N   0  0  0  0  0  0  0  0  0  0  0  0
   32.6152   19.0361   34.6435 O   0  0  0  0  0  0  0  0  0  0  0  0
   31.4761   19.6001   35.3040 C   0  0  1  0  0  0  0  0  0  0  0  0
   28.2556   18.1372   36.7143 O   0  0  0  0  0  0  0  0  0  0  0  0
   30.8435   20.6261   34.3718 C   0  0  1  0  0  0  0  0  0  0  0  0
   28.7590   17.8192   38.9483 O   0  0  0  0  0  0  0  0  0  0  0  0
   29.6017   21.2759   35.0708 C   0  0  0  0  0  0  0  0  0  0  0  0
   25.4210   18.6054   40.2619 O   0  0  0  0  0  0  0  0  0  0  0  0
   28.5731   20.1349   35.4277 C   0  0  1  0  0  0  0  0  0  0  0  0
   24.9110   16.2494   38.7457 O   0  0  0  0  0  0  0  0  0  0  0  0
   29.2108   19.1450   36.4195 C   0  0  2  0  0  0  0  0  0  0  0  0
   28.4830   17.1097   37.6626 C   0  0  1  0  0  0  0  0  0  0  0  0
   27.6662   18.6829   39.4782 C   0  0  2  0  0  0  0  0  0  0  0  0
   28.1536   19.3367   40.7748 C   0  0  0  0  0  0  0  0  0  0  0  0
   26.4667   17.8065   39.7615 C   0  0  2  0  0  0  0  0  0  0  0  0
   26.0417   17.0881   38.4820 C   0  0  1  0  0  0  0  0  0  0  0  0
   27.2188   16.2290   37.9580 C   0  0  1  0  0  0  0  0  0  0  0  0
  5  4  1  1  0  0  0
  5  8  1  0  0  0  0
  5 16  1  0  0  0  0
  8  7  1  6  0  0  0
  8 10  1  0  0  0  0
 10  1  1  1  0  0  0
 10 12  1  0  0  0  0
 11 18  1  0  0  0  0
 12 14  1  0  0  0  0
 14  2  1  1  0  0  0
 14 16  1  0  0  0  0
 16  9  1  6  0  0  0
 17  9  1  6  0  0  0
 17 11  1  0  0  0  0
 17 22  1  0  0  0  0
 18 19  1  1  0  0  0
 18 20  1  0  0  0  0
 19  3  1  0  0  0  0
 20 13  1  6  0  0  0
 20 21  1  0  0  0  0
 21 15  1  1  0  0  0
 21 22  1  0  0  0  0
 22  6  1  6  0  0  0
M  END
>  <CHROM.1>
67.34326921,58.27049464,-54.56342585,28.62669091,18.57315582,37.32993650
-0.21730651,0.84658823,0.80438165

>  <Name>
2f4s_lig

>  <RI>
0

>  <Rbt.Current_Directory>
/home/itssahil/PROJECTS/Mol_Feturizer/New_Systems/rnas/2f4s

>  <Rbt.Executable>
rbdock ($Id: //depot/dev/client3/rdock/2013.1/src/exe/rbdock.cxx#4 $)

>  <Rbt.Library>
libRbt.so (2013.1, Build901 2013/11/27)

>  <Rbt.Parameter_File>
/export/apps/rDock/src/rDock_2013.1_src/data/scripts/dock_solv.prm

>  <Rbt.Receptor>
prm/pocket_docking_8.prm

>  <SCORE>
-7.77245

>  <SCORE.INTER>
-8.18197

>  <SCORE.INTER.CONST>
1

>  <SCORE.INTER.POLAR>
-0.586301

>  <SCORE.INTER.ROT>
3

>  <SCORE.INTER.SOLV>
16.9861

>  <SCORE.INTER.VDW>
-14.7623

>  <SCORE.INTER.norm>
-0.371908

>  <SCORE.INTRA>
0.409521

>  <SCORE.INTRA.DIHEDRAL>
-1.13183

>  <SCORE.INTRA.DIHEDRAL.0>
1.67653

>  <SCORE.INTRA.POLAR>
0

>  <SCORE.INTRA.POLAR.0>
0

>  <SCORE.INTRA.REPUL>
0

>  <SCORE.INTRA.REPUL.0>
0

>  <SCORE.INTRA.SOLV>
1.418

>  <SCORE.INTRA.SOLV.lig_0>
-76.6701

>  <SCORE.INTRA.VDW>
0.266436

>  <SCORE.INTRA.VDW.0>
-1.53273

>  <SCORE.INTRA.norm>
0.0186146

>  <SCORE.RESTR>
0

>  <SCORE.RESTR.CAVITY>
0

>  <SCORE.RESTR.norm>
0

>  <SCORE.SYSTEM>
0

>  <SCORE.SYSTEM.CONST>
0

>  <SCORE.SYSTEM.DIHEDRAL>
0

>  <SCORE.SYSTEM.SOLV>
0

>  <SCORE.SYSTEM.norm>
0

>  <SCORE.heavy>
22

>  <SCORE.norm>
-0.353293

>  <RMSD>
8.174

$$$$
2f4s_lig
 OpenBabel11021811433D
libRbt.so/2013.1/901 2013/11/27
 22 23  0  0  0  0  0  0  0  0999 V2000
   28.1304   14.3396   27.9616 N   0  0  0  0  0  0  0  0  0  0  0  0
   25.0864   15.4864   31.7819 N   0  0  0  0  0  0  0  0  0  0  0  0
   24.4857   17.0992   33.9515 N   0  0  0  0  0  0  0  0  0  0  0  0
   23.4088   15.5330   27.0730 O   0  0  0  0  0  0  0  0  0  0  0  0
   24.5380   15.7894   27.9574 C   0  0  2  0  0  0  0  0  0  0  0  0
   20.1063   16.2888   29.4135 N   0  0  0  0  0  0  0  0  0  0  0  0
   26.1274   15.2118   26.1681 O   0  0  0  0  0  0  0  0  0  0  0  0
   25.7590   14.9322   27.5238 C   0  0  1  0  0  0  0  0  0  0  0  0
   23.0915   16.3082   29.8671 O   0  0  0  0  0  0  0  0  0  0  0  0
   26.9684   15.1991   28.4116 C   0  0  1  0  0  0  0  0  0  0  0  0
   22.7113   16.4292   32.1444 O   0  0  0  0  0  0  0  0  0  0  0  0
   26.6047   14.8869   29.9027 C   0  0  0  0  0  0  0  0  0  0  0  0
   21.7365   19.9685   32.2347 O   0  0  0  0  0  0  0  0  0  0  0  0
   25.3891   15.7991   30.3238 C   0  0  1  0  0  0  0  0  0  0  0  0
   19.6448   18.8271   30.6751 O   0  0  0  0  0  0  0  0  0  0  0  0
   24.1601   15.4687   29.4574 C   0  0  2  0  0  0  0  0  0  0  0  0
   22.1468   15.9321   30.8534 C   0  0  1  0  0  0  0  0  0  0  0  0
   22.9141   17.9012   32.2577 C   0  0  2  0  0  0  0  0  0  0  0  0
   23.5217   18.2004   33.6316 C   0  0  0  0  0  0  0  0  0  0  0  0
   21.5659   18.5749   32.1321 C   0  0  2  0  0  0  0  0  0  0  0  0
   20.9264   18.1991   30.7965 C   0  0  1  0  0  0  0  0  0  0  0  0
   20.7643   16.6611   30.7173 C   0  0  1  0  0  0  0  0  0  0  0  0
  5  4  1  6  0  0  0
  5  8  1  0  0  0  0
  5 16  1  0  0  0  0
  8  7  1  6  0  0  0
  8 10  1  0  0  0  0
 10  1  1  6  0  0  0
 10 12  1  0  0  0  0
 11 18  1  0  0  0  0
 12 14  1  0  0  0  0
 14  2  1  1  0  0  0
 14 16  1  0  0  0  0
 16  9  1  1  0  0  0
 17  9  1  6  0  0  0
 17 11  1  0  0  0  0
 17 22  1  0  0  0  0
 18 19  1  1  0  0  0
 18 20  1  0  0  0  0
 19  3  1  0  0  0  0
 20 13  1  6  0  0  0
 20 21  1  0  0  0  0
 21 15  1  1  0  0  0
 21 22  1  0  0  0  0
 22  6  1  6  0  0  0
M  END
>  <CHROM.1>
151.22138084,91.34556949,37.46683493,23.59813922,16.52440727,30.22343771
-0.75209662,-0.34972666,1.23965608

>  <Name>
2f4s_lig

>  <RI>
0

>  <Rbt.Current_Directory>
/home/itssahil/PROJECTS/Mol_Feturizer/New_Systems/rnas/2f4s

>  <Rbt.Executable>
rbdock ($Id: //depot/dev/client3/rdock/2013.1/src/exe/rbdock.cxx#4 $)

>  <Rbt.Library>
libRbt.so (2013.1, Build901 2013/11/27)

>  <Rbt.Parameter_File>
/export/apps/rDock/src/rDock_2013.1_src/data/scripts/dock_solv.prm

>  <Rbt.Receptor>
prm/blind_docking_60.prm

>  <SCORE>
-2.38662

>  <SCORE.INTER>
-9.67749

>  <SCORE.INTER.CONST>
1

>  <SCORE.INTER.POLAR>
-0.0172424

>  <SCORE.INTER.ROT>
3

>  <SCORE.INTER.SOLV>
20.6786

>  <SCORE.INTER.VDW>
-18.8871

>  <SCORE.INTER.norm>
-0.439886

>  <SCORE.INTRA>
6.12598

>  <SCORE.INTRA.DIHEDRAL>
7.1669

>  <SCORE.INTRA.DIHEDRAL.0>
1.67653

>  <SCORE.INTRA.POLAR>
0

>  <SCORE.INTRA.POLAR.0>
0

>  <SCORE.INTRA.REPUL>
0

>  <SCORE.INTRA.REPUL.0>
0

>  <SCORE.INTRA.SOLV>
5.19062

>  <SCORE.INTRA.SOLV.lig_0>
-76.6701

>  <SCORE.INTRA.VDW>
-0.0527815

>  <SCORE.INTRA.VDW.0>
-1.53273

>  <SCORE.INTRA.norm>
0.278454

>  <SCORE.RESTR>
1.16489

>  <SCORE.RESTR.CAVITY>
1.16489

>  <SCORE.RESTR.norm>
0.0529495

>  <SCORE.SYSTEM>
0

>  <SCORE.SYSTEM.CONST>
0

>  <SCORE.SYSTEM.DIHEDRAL>
0

>  <SCORE.SYSTEM.SOLV>
0

>  <SCORE.SYSTEM.norm>
0

>  <SCORE.heavy>
22

>  <SCORE.norm>
-0.108483

>  <RMSD>
8.214

$$$$
2f4s_lig
 OpenBabel11021811433D
libRbt.so/2013.1/901 2013/11/27
 22 23  0  0  0  0  0  0  0  0999 V2000
   27.7954   13.2906   27.5182 N   0  0  0  0  0  0  0  0  0  0  0  0
   23.5483   15.8833   26.8727 N   0  0  0  0  0  0  0  0  0  0  0  0
   23.5424   16.5026   34.6840 N   0  0  0  0  0  0  0  0  0  0  0  0
   26.0459   16.1028   31.1977 O   0  0  0  0  0  0  0  0  0  0  0  0
   25.6537   15.2700   30.0682 C   0  0  2  0  0  0  0  0  0  0  0  0
   20.6211   16.0325   29.4984 N   0  0  0  0  0  0  0  0  0  0  0  0
   27.7229   13.9506   30.2657 O   0  0  0  0  0  0  0  0  0  0  0  0
   26.9158   14.7088   29.3571 C   0  0  1  0  0  0  0  0  0  0  0  0
   23.5922   16.5386   29.6817 O   0  0  0  0  0  0  0  0  0  0  0  0
   26.5397   13.8079   28.1871 C   0  0  1  0  0  0  0  0  0  0  0  0
   23.5093   16.0135   31.9317 O   0  0  0  0  0  0  0  0  0  0  0  0
   25.6685   14.6120   27.1636 C   0  0  0  0  0  0  0  0  0  0  0  0
   21.9633   19.1500   33.0533 O   0  0  0  0  0  0  0  0  0  0  0  0
   24.3783   15.1343   27.9050 C   0  0  1  0  0  0  0  0  0  0  0  0
   19.9065   18.0336   31.4305 O   0  0  0  0  0  0  0  0  0  0  0  0
   24.7780   16.0922   29.0421 C   0  0  2  0  0  0  0  0  0  0  0  0
   22.8686   15.7483   30.6083 C   0  0  1  0  0  0  0  0  0  0  0  0
   23.4701   17.4215   32.4185 C   0  0  2  0  0  0  0  0  0  0  0  0
   24.1980   17.4872   33.7646 C   0  0  0  0  0  0  0  0  0  0  0  0
   22.0219   17.8201   32.5950 C   0  0  2  0  0  0  0  0  0  0  0  0
   21.2812   17.6658   31.2679 C   0  0  1  0  0  0  0  0  0  0  0  0
   21.3761   16.1951   30.7926 C   0  0  1  0  0  0  0  0  0  0  0  0
  5  4  1  1  0  0  0
  5  8  1  0  0  0  0
  5 16  1  0  0  0  0
  8  7  1  1  0  0  0
  8 10  1  0  0  0  0
 10  1  1  6  0  0  0
 10 12  1  0  0  0  0
 11 18  1  0  0  0  0
 12 14  1  0  0  0  0
 14  2  1  6  0  0  0
 14 16  1  0  0  0  0
 16  9  1  1  0  0  0
 17  9  1  6  0  0  0
 17 11  1  0  0  0  0
 17 22  1  0  0  0  0
 18 19  1  1  0  0  0
 18 20  1  0  0  0  0
 19  3  1  0  0  0  0
 20 13  1  6  0  0  0
 20 21  1  0  0  0  0
 21 15  1  1  0  0  0
 21 22  1  0  0  0  0
 22  6  1  6  0  0  0
M  END
>  <CHROM.1>
-38.90850900,86.74650599,-56.09183168,23.96708954,16.09074474,30.46150853
-0.76512912,-0.37977577,1.24999663

>  <Name>
2f4s_lig

>  <RI>
0

>  <Rbt.Current_Directory>
/home/itssahil/PROJECTS/Mol_Feturizer/New_Systems/rnas/2f4s

>  <Rbt.Executable>
rbdock ($Id: //depot/dev/client3/rdock/2013.1/src/exe/rbdock.cxx#4 $)

>  <Rbt.Library>
libRbt.so (2013.1, Build901 2013/11/27)

>  <Rbt.Parameter_File>
/export/apps/rDock/src/rDock_2013.1_src/data/scripts/dock_solv.prm

>  <Rbt.Receptor>
prm/blind_docking_100.prm

>  <SCORE>
-9.86438

>  <SCORE.INTER>
-14.7941

>  <SCORE.INTER.CONST>
1

>  <SCORE.INTER.POLAR>
-1.00387

>  <SCORE.INTER.ROT>
3

>  <SCORE.INTER.SOLV>
21.0734

>  <SCORE.INTER.VDW>
-19.141

>  <SCORE.INTER.norm>
-0.67246

>  <SCORE.INTRA>
3.75417

>  <SCORE.INTRA.DIHEDRAL>
3.39574

>  <SCORE.INTRA.DIHEDRAL.0>
1.67653

>  <SCORE.INTRA.POLAR>
0

>  <SCORE.INTRA.POLAR.0>
0

>  <SCORE.INTRA.REPUL>
0

>  <SCORE.INTRA.REPUL.0>
0

>  <SCORE.INTRA.SOLV>
2.81065

>  <SCORE.INTRA.SOLV.lig_0>
-76.6701

>  <SCORE.INTRA.VDW>
0.650969

>  <SCORE.INTRA.VDW.0>
-1.53273

>  <SCORE.INTRA.norm>
0.170644

>  <SCORE.RESTR>
1.17557

>  <SCORE.RESTR.CAVITY>
1.17557

>  <SCORE.RESTR.norm>
0.0534352

>  <SCORE.SYSTEM>
0

>  <SCORE.SYSTEM.CONST>
0

>  <SCORE.SYSTEM.DIHEDRAL>
0

>  <SCORE.SYSTEM.SOLV>
0

>  <SCORE.SYSTEM.norm>
0

>  <SCORE.heavy>
22

>  <SCORE.norm>
-0.448381

>  <RMSD>
8.322

$$$$
2f4s_lig
 OpenBabel11021811433D
libRbt.so/2013.1/901 2013/11/27
 22 23  0  0  0  0  0  0  0  0999 V2000
   27.8322   13.2083   27.4988 N   0  0  0  0  0  0  0  0  0  0  0  0
   23.5829   15.8180   26.9428 N   0  0  0  0  0  0  0  0  0  0  0  0
   23.5405   16.5294   34.7307 N   0  0  0  0  0  0  0  0  0  0  0  0
   26.2085   16.0816   31.1887 O   0  0  0  0  0  0  0  0  0  0  0  0
   25.7783   15.2358   30.0830 C   0  0  2  0  0  0  0  0  0  0  0  0
   20.7612   15.9342   29.4806 N   0  0  0  0  0  0  0  0  0  0  0  0
   27.8448   13.9065   30.2377 O   0  0  0  0  0  0  0  0  0  0  0  0
   27.0156   14.6571   29.3428 C   0  0  1  0  0  0  0  0  0  0  0  0
   23.7136   16.5117   29.7399 O   0  0  0  0  0  0  0  0  0  0  0  0
   26.5998   13.7425   28.1972 C   0  0  1  0  0  0  0  0  0  0  0  0
   23.5784   16.0183   31.9945 O   0  0  0  0  0  0  0  0  0  0  0  0
   25.7034   14.5378   27.1887 C   0  0  0  0  0  0  0  0  0  0  0  0
   21.9301   19.1344   33.0232 O   0  0  0  0  0  0  0  0  0  0  0  0
   24.4387   15.0782   27.9605 C   0  0  1  0  0  0  0  0  0  0  0  0
   19.9464   17.9467   31.3605 O   0  0  0  0  0  0  0  0  0  0  0  0
   24.8774   16.0491   29.0718 C   0  0  2  0  0  0  0  0  0  0  0  0
   22.9820   15.7186   30.6578 C   0  0  1  0  0  0  0  0  0  0  0  0
   23.4933   17.4321   32.4580 C   0  0  2  0  0  0  0  0  0  0  0  0
   24.1807   17.5347   33.8230 C   0  0  0  0  0  0  0  0  0  0  0  0
   22.0320   17.7996   32.5875 C   0  0  2  0  0  0  0  0  0  0  0  0
   21.3332   17.6085   31.2425 C   0  0  1  0  0  0  0  0  0  0  0  0
   21.4750   16.1334   30.7929 C   0  0  1  0  0  0  0  0  0  0  0  0
  5  4  1  1  0  0  0
  5  8  1  0  0  0  0
  5 16  1  0  0  0  0
  8  7  1  1  0  0  0
  8 10  1  0  0  0  0
 10  1  1  6  0  0  0
 10 12  1  0  0  0  0
 11 18  1  0  0  0  0
 12 14  1  0  0  0  0
 14  2  1  6  0  0  0
 14 16  1  0  0  0  0
 16  9  1  1  0  0  0
 17  9  1  6  0  0  0
 17 11  1  0  0  0  0
 17 22  1  0  0  0  0
 18 19  1  1  0  0  0
 18 20  1  0  0  0  0
 19  3  1  0  0  0  0
 20 13  1  6  0  0  0
 20 21  1  0  0  0  0
 21 15  1  1  0  0  0
 21 22  1  0  0  0  0
 22  6  1  6  0  0  0
M  END
>  <CHROM.1>
-41.55990574,91.16879523,-54.95928482,24.03333866,16.05269603,30.47442686
-0.76652694,-0.37330056,1.23787161

>  <Name>
2f4s_lig

>  <RI>
0

>  <Rbt.Current_Directory>
/home/itssahil/PROJECTS/Mol_Feturizer/New_Systems/rnas/2f4s

>  <Rbt.Executable>
rbdock ($Id: //depot/dev/client3/rdock/2013.1/src/exe/rbdock.cxx#4 $)

>  <Rbt.Library>
libRbt.so (2013.1, Build901 2013/11/27)

>  <Rbt.Parameter_File>
/export/apps/rDock/src/rDock_2013.1_src/data/scripts/dock_solv.prm

>  <Rbt.Receptor>
prm/blind_docking_100.prm

>  <SCORE>
-9.7724

>  <SCORE.INTER>
-14.7348

>  <SCORE.INTER.CONST>
1

>  <SCORE.INTER.POLAR>
-1.05142

>  <SCORE.INTER.ROT>
3

>  <SCORE.INTER.SOLV>
20.8861

>  <SCORE.INTER.VDW>
-18.8805

>  <SCORE.INTER.norm>
-0.669763

>  <SCORE.INTRA>
3.84538

>  <SCORE.INTRA.DIHEDRAL>
3.81046

>  <SCORE.INTRA.DIHEDRAL.0>
1.67653

>  <SCORE.INTRA.POLAR>
0

>  <SCORE.INTRA.POLAR.0>
0

>  <SCORE.INTRA.REPUL>
0

>  <SCORE.INTRA.REPUL.0>
0

>  <SCORE.INTRA.SOLV>
3.05501

>  <SCORE.INTRA.SOLV.lig_0>
-76.6701

>  <SCORE.INTRA.VDW>
0.412643

>  <SCORE.INTRA.VDW.0>
-1.53273

>  <SCORE.INTRA.norm>
0.17479

>  <SCORE.RESTR>
1.11701

>  <SCORE.RESTR.CAVITY>
1.11701

>  <SCORE.RESTR.norm>
0.050773

>  <SCORE.SYSTEM>
0

>  <SCORE.SYSTEM.CONST>
0

>  <SCORE.SYSTEM.DIHEDRAL>
0

>  <SCORE.SYSTEM.SOLV>
0

>  <SCORE.SYSTEM.norm>
0

>  <SCORE.heavy>
22

>  <SCORE.norm>
-0.4442

>  <RMSD>
8.333

$$$$
2f4s_lig
 OpenBabel11021811433D
libRbt.so/2013.1/901 2013/11/27
 22 23  0  0  0  0  0  0  0  0999 V2000
   27.7819   13.1132   27.4654 N   0  0  0  0  0  0  0  0  0  0  0  0
   23.6352   15.9240   27.1817 N   0  0  0  0  0  0  0  0  0  0  0  0
   23.4960   16.7238   34.8805 N   0  0  0  0  0  0  0  0  0  0  0  0
   26.5351   16.0485   31.2518 O   0  0  0  0  0  0  0  0  0  0  0  0
   25.9956   15.2277   30.1756 C   0  0  2  0  0  0  0  0  0  0  0  0
   21.0877   15.8661   29.4839 N   0  0  0  0  0  0  0  0  0  0  0  0
   28.0020   13.8011   30.1981 O   0  0  0  0  0  0  0  0  0  0  0  0
   27.1543   14.5932   29.3580 C   0  0  1  0  0  0  0  0  0  0  0  0
   23.9765   16.6015   29.9649 O   0  0  0  0  0  0  0  0  0  0  0  0
   26.6234   13.7031   28.2409 C   0  0  1  0  0  0  0  0  0  0  0  0
   23.6685   16.2005   32.2209 O   0  0  0  0  0  0  0  0  0  0  0  0
   25.7036   14.5434   27.2918 C   0  0  0  0  0  0  0  0  0  0  0  0
   21.7946   19.2719   32.9563 O   0  0  0  0  0  0  0  0  0  0  0  0
   24.5178   15.1410   28.1426 C   0  0  1  0  0  0  0  0  0  0  0  0
   20.0202   17.9150   31.1898 O   0  0  0  0  0  0  0  0  0  0  0  0
   25.0720   16.0863   29.2240 C   0  0  2  0  0  0  0  0  0  0  0  0
   23.2052   15.8135   30.8541 C   0  0  1  0  0  0  0  0  0  0  0  0
   23.4781   17.6271   32.6077 C   0  0  2  0  0  0  0  0  0  0  0  0
   24.0386   17.8232   34.0196 C   0  0  0  0  0  0  0  0  0  0  0  0
   21.9957   17.9262   32.5949 C   0  0  2  0  0  0  0  0  0  0  0  0
   21.4262   17.6419   31.2061 C   0  0  1  0  0  0  0  0  0  0  0  0
   21.6746   16.1577   30.8410 C   0  0  1  0  0  0  0  0  0  0  0  0
  5  4  1  1  0  0  0
  5  8  1  0  0  0  0
  5 16  1  0  0  0  0
  8  7  1  1  0  0  0
  8 10  1  0  0  0  0
 10  1  1  6  0  0  0
 10 12  1  0  0  0  0
 11 18  1  0  0  0  0
 12 14  1  0  0  0  0
 14  2  1  6  0  0  0
 14 16  1  0  0  0  0
 16  9  1  1  0  0  0
 17  9  1  6  0  0  0
 17 11  1  0  0  0  0
 17 22  1  0  0  0  0
 18 19  1  1  0  0  0
 18 20  1  0  0  0  0
 19  3  1  0  0  0  0
 20 13  1  6  0  0  0
 20 21  1  0  0  0  0
 21 15  1  1  0  0  0
 21 22  1  0  0  0  0
 22  6  1  6  0  0  0
M  END
>  <CHROM.1>
-46.40085093,103.55424934,-48.21557975,24.12659285,16.10394128,30.55211716
0.77030570,0.38459853,-1.92140112

>  <Name>
2f4s_lig

>  <RI>
0

>  <Rbt.Current_Directory>
/home/itssahil/PROJECTS/Mol_Feturizer/New_Systems/rnas/2f4s

>  <Rbt.Executable>
rbdock ($Id: //depot/dev/client3/rdock/2013.1/src/exe/rbdock.cxx#4 $)

>  <Rbt.Library>
libRbt.so (2013.1, Build901 2013/11/27)

>  <Rbt.Parameter_File>
/export/apps/rDock/src/rDock_2013.1_src/data/scripts/dock_solv.prm

>  <Rbt.Receptor>
prm/blind_docking_100.prm

>  <SCORE>
-9.49079

>  <SCORE.INTER>
-15.868

>  <SCORE.INTER.CONST>
1

>  <SCORE.INTER.POLAR>
-1.07552

>  <SCORE.INTER.ROT>
3

>  <SCORE.INTER.SOLV>
20.403

>  <SCORE.INTER.VDW>
-19.3946

>  <SCORE.INTER.norm>
-0.721272

>  <SCORE.INTRA>
4.86223

>  <SCORE.INTRA.DIHEDRAL>
5.59345

>  <SCORE.INTRA.DIHEDRAL.0>
1.67653

>  <SCORE.INTRA.POLAR>
0

>  <SCORE.INTRA.POLAR.0>
0

>  <SCORE.INTRA.REPUL>
0

>  <SCORE.INTRA.REPUL.0>
0

>  <SCORE.INTRA.SOLV>
3.6718

>  <SCORE.INTRA.SOLV.lig_0>
-76.6701

>  <SCORE.INTRA.VDW>
0.229609

>  <SCORE.INTRA.VDW.0>
-1.53273

>  <SCORE.INTRA.norm>
0.221011

>  <SCORE.RESTR>
1.51496

>  <SCORE.RESTR.CAVITY>
1.51496

>  <SCORE.RESTR.norm>
0.0688618

>  <SCORE.SYSTEM>
0

>  <SCORE.SYSTEM.CONST>
0

>  <SCORE.SYSTEM.DIHEDRAL>
0

>  <SCORE.SYSTEM.SOLV>
0

>  <SCORE.SYSTEM.norm>
0

>  <SCORE.heavy>
22

>  <SCORE.norm>
-0.431399

>  <RMSD>
8.336

$$$$
2f4s_lig
 OpenBabel11021811433D
libRbt.so/2013.1/901 2013/11/27
 22 23  0  0  0  0  0  0  0  0999 V2000
   27.8391   13.2338   27.4973 N   0  0  0  0  0  0  0  0  0  0  0  0
   23.5867   15.8363   26.9320 N   0  0  0  0  0  0  0  0  0  0  0  0
   23.5467   16.5489   34.7240 N   0  0  0  0  0  0  0  0  0  0  0  0
   26.1951   16.0932   31.1889 O   0  0  0  0  0  0  0  0  0  0  0  0
   25.7710   15.2497   30.0792 C   0  0  2  0  0  0  0  0  0  0  0  0
   20.7528   15.9392   29.4833 N   0  0  0  0  0  0  0  0  0  0  0  0
   27.8396   13.9242   30.2382 O   0  0  0  0  0  0  0  0  0  0  0  0
   27.0123   14.6757   29.3422 C   0  0  1  0  0  0  0  0  0  0  0  0
   23.7050   16.5223   29.7315 O   0  0  0  0  0  0  0  0  0  0  0  0
   26.6030   13.7634   28.1923 C   0  0  1  0  0  0  0  0  0  0  0  0
   23.5785   16.0316   31.9873 O   0  0  0  0  0  0  0  0  0  0  0  0
   25.7089   14.5597   27.1826 C   0  0  0  0  0  0  0  0  0  0  0  0
   21.9281   19.1462   33.0175 O   0  0  0  0  0  0  0  0  0  0  0  0
   24.4401   15.0954   27.9509 C   0  0  1  0  0  0  0  0  0  0  0  0
   19.9409   17.9527   31.3632 O   0  0  0  0  0  0  0  0  0  0  0  0
   24.8724   16.0640   29.0667 C   0  0  2  0  0  0  0  0  0  0  0  0
   22.9780   15.7291   30.6530 C   0  0  1  0  0  0  0  0  0  0  0  0
   23.4925   17.4459   32.4492 C   0  0  2  0  0  0  0  0  0  0  0  0
   24.1844   17.5516   33.8117 C   0  0  0  0  0  0  0  0  0  0  0  0
   22.0309   17.8110   32.5832 C   0  0  2  0  0  0  0  0  0  0  0  0
   21.3279   17.6168   31.2409 C   0  0  1  0  0  0  0  0  0  0  0  0
   21.4708   16.1414   30.7928 C   0  0  1  0  0  0  0  0  0  0  0  0
  5  4  1  1  0  0  0
  5  8  1  0  0  0  0
  5 16  1  0  0  0  0
  8  7  1  1  0  0  0
  8 10  1  0  0  0  0
 10  1  1  6  0  0  0
 10 12  1  0  0  0  0
 11 18  1  0  0  0  0
 12 14  1  0  0  0  0
 14  2  1  6  0  0  0
 14 16  1  0  0  0  0
 16  9  1  1  0  0  0
 17  9  1  6  0  0  0
 17 11  1  0  0  0  0
 17 22  1  0  0  0  0
 18 19  1  1  0  0  0
 18 20  1  0  0  0  0
 19  3  1  0  0  0  0
 20 13  1  6  0  0  0
 20 21  1  0  0  0  0
 21 15  1  1  0  0  0
 21 22  1  0  0  0  0
 22  6  1  6  0  0  0
M  END
>  <CHROM.1>
-40.99968363,90.73937952,-55.10545555,24.03123044,16.06695046,30.47015996
-0.76614111,-0.37173532,1.23816005

>  <Name>
2f4s_lig

>  <RI>
0

>  <Rbt.Current_Directory>
/home/itssahil/PROJECTS/Mol_Feturizer/New_Systems/rnas/2f4s

>  <Rbt.Executable>
rbdock ($Id: //depot/dev/client3/rdock/2013.1/src/exe/rbdock.cxx#4 $)

>  <Rbt.Library>
libRbt.so (2013.1, Build901 2013/11/27)

>  <Rbt.Parameter_File>
/export/apps/rDock/src/rDock_2013.1_src/data/scripts/dock_solv.prm

>  <Rbt.Receptor>
prm/blind_docking_100.prm

>  <SCORE>
-9.84349

>  <SCORE.INTER>
-14.8432

>  <SCORE.INTER.CONST>
1

>  <SCORE.INTER.POLAR>
-1.0551

>  <SCORE.INTER.ROT>
3

>  <SCORE.INTER.SOLV>
20.848

>  <SCORE.INTER.VDW>
-18.9278

>  <SCORE.INTER.norm>
-0.674691

>  <SCORE.INTRA>
3.8595

>  <SCORE.INTRA.DIHEDRAL>
3.8139

>  <SCORE.INTRA.DIHEDRAL.0>
1.67653

>  <SCORE.INTRA.POLAR>
0

>  <SCORE.INTRA.POLAR.0>
0

>  <SCORE.INTRA.REPUL>
0

>  <SCORE.INTRA.REPUL.0>
0

>  <SCORE.INTRA.SOLV>
3.021

>  <SCORE.INTRA.SOLV.lig_0>
-76.6701

>  <SCORE.INTRA.VDW>
0.442048

>  <SCORE.INTRA.VDW.0>
-1.53273

>  <SCORE.INTRA.norm>
0.175432

>  <SCORE.RESTR>
1.14022

>  <SCORE.RESTR.CAVITY>
1.14022

>  <SCORE.RESTR.norm>
0.0518283

>  <SCORE.SYSTEM>
0

>  <SCORE.SYSTEM.CONST>
0

>  <SCORE.SYSTEM.DIHEDRAL>
0

>  <SCORE.SYSTEM.SOLV>
0

>  <SCORE.SYSTEM.norm>
0

>  <SCORE.heavy>
22

>  <SCORE.norm>
-0.447431

>  <RMSD>
8.337

$$$$
2f4s_lig
 OpenBabel11021811433D
libRbt.so/2013.1/901 2013/11/27
 22 23  0  0  0  0  0  0  0  0999 V2000
   27.8157   13.3099   27.5110 N   0  0  0  0  0  0  0  0  0  0  0  0
   23.5650   15.8938   26.8548 N   0  0  0  0  0  0  0  0  0  0  0  0
   23.5541   16.4971   34.6561 N   0  0  0  0  0  0  0  0  0  0  0  0
   26.0494   16.1159   31.1871 O   0  0  0  0  0  0  0  0  0  0  0  0
   25.6624   15.2830   30.0560 C   0  0  2  0  0  0  0  0  0  0  0  0
   20.6310   16.0283   29.4717 N   0  0  0  0  0  0  0  0  0  0  0  0
   27.7338   13.9679   30.2586 O   0  0  0  0  0  0  0  0  0  0  0  0
   26.9278   14.7250   29.3481 C   0  0  1  0  0  0  0  0  0  0  0  0
   23.5992   16.5474   29.6643 O   0  0  0  0  0  0  0  0  0  0  0  0
   26.5570   13.8240   28.1765 C   0  0  1  0  0  0  0  0  0  0  0  0
   23.5109   16.0261   31.9150 O   0  0  0  0  0  0  0  0  0  0  0  0
   25.6871   14.6268   27.1510 C   0  0  0  0  0  0  0  0  0  0  0  0
   21.9477   19.1581   33.0253 O   0  0  0  0  0  0  0  0  0  0  0  0
   24.3936   15.1459   27.8889 C   0  0  1  0  0  0  0  0  0  0  0  0
   19.9013   18.0299   31.3976 O   0  0  0  0  0  0  0  0  0  0  0  0
   24.7879   16.1039   29.0278 C   0  0  2  0  0  0  0  0  0  0  0  0
   22.8759   15.7557   30.5898 C   0  0  1  0  0  0  0  0  0  0  0  0
   23.4640   17.4348   32.3989 C   0  0  2  0  0  0  0  0  0  0  0  0
   24.1870   17.5062   33.7475 C   0  0  0  0  0  0  0  0  0  0  0  0
   22.0136   17.8276   32.5698 C   0  0  2  0  0  0  0  0  0  0  0  0
   21.2781   17.6677   31.2404 C   0  0  1  0  0  0  0  0  0  0  0  0
   21.3808   16.1965   30.7682 C   0  0  1  0  0  0  0  0  0  0  0  0
  5  4  1  1  0  0  0
  5  8  1  0  0  0  0
  5 16  1  0  0  0  0
  8  7  1  1  0  0  0
  8 10  1  0  0  0  0
 10  1  1  6  0  0  0
 10 12  1  0  0  0  0
 11 18  1  0  0  0  0
 12 14  1  0  0  0  0
 14  2  1  6  0  0  0
 14 16  1  0  0  0  0
 16  9  1  1  0  0  0
 17  9  1  6  0  0  0
 17 11  1  0  0  0  0
 17 22  1  0  0  0  0
 18 19  1  1  0  0  0
 18 20  1  0  0  0  0
 19  3  1  0  0  0  0
 20 13  1  6  0  0  0
 20 21  1  0  0  0  0
 21 15  1  1  0  0  0
 21 22  1  0  0  0  0
 22  6  1  6  0  0  0
M  END
>  <CHROM.1>
-38.80496139,86.85810439,-54.74723897,23.97261853,16.10027021,30.44330723
-0.76060980,-0.37846684,1.25113411

>  <Name>
2f4s_lig

>  <RI>
0

>  <Rbt.Current_Directory>
/home/itssahil/PROJECTS/Mol_Feturizer/New_Systems/rnas/2f4s

>  <Rbt.Executable>
rbdock ($Id: //depot/dev/client3/rdock/2013.1/src/exe/rbdock.cxx#4 $)

>  <Rbt.Library>
libRbt.so (2013.1, Build901 2013/11/27)

>  <Rbt.Parameter_File>
/export/apps/rDock/src/rDock_2013.1_src/data/scripts/dock_solv.prm

>  <Rbt.Receptor>
prm/blind_docking_100.prm

>  <SCORE>
-9.69017

>  <SCORE.INTER>
-14.6065

>  <SCORE.INTER.CONST>
1

>  <SCORE.INTER.POLAR>
-1.02804

>  <SCORE.INTER.ROT>
3

>  <SCORE.INTER.SOLV>
21.1638

>  <SCORE.INTER.VDW>
-18.9655

>  <SCORE.INTER.norm>
-0.663933

>  <SCORE.INTRA>
3.78522

>  <SCORE.INTRA.DIHEDRAL>
3.47791

>  <SCORE.INTRA.DIHEDRAL.0>
1.67653

>  <SCORE.INTRA.POLAR>
0

>  <SCORE.INTRA.POLAR.0>
0

>  <SCORE.INTRA.REPUL>
0

>  <SCORE.INTRA.REPUL.0>
0

>  <SCORE.INTRA.SOLV>
2.80903

>  <SCORE.INTRA.SOLV.lig_0>
-76.6701

>  <SCORE.INTRA.VDW>
0.641745

>  <SCORE.INTRA.VDW.0>
-1.53273

>  <SCORE.INTRA.norm>
0.172055

>  <SCORE.RESTR>
1.13113

>  <SCORE.RESTR.CAVITY>
1.13113

>  <SCORE.RESTR.norm>
0.0514149

>  <SCORE.SYSTEM>
0

>  <SCORE.SYSTEM.CONST>
0

>  <SCORE.SYSTEM.DIHEDRAL>
0

>  <SCORE.SYSTEM.SOLV>
0

>  <SCORE.SYSTEM.norm>
0

>  <SCORE.heavy>
22

>  <SCORE.norm>
-0.440462

>  <RMSD>
8.339

$$$$
2f4s_lig
 OpenBabel11021811433D
libRbt.so/2013.1/901 2013/11/27
 22 23  0  0  0  0  0  0  0  0999 V2000
   27.6844   13.0706   27.5789 N   0  0  0  0  0  0  0  0  0  0  0  0
   23.6995   16.0092   26.7660 N   0  0  0  0  0  0  0  0  0  0  0  0
   24.9981   17.1019   34.5051 N   0  0  0  0  0  0  0  0  0  0  0  0
   26.1404   16.1593   31.1261 O   0  0  0  0  0  0  0  0  0  0  0  0
   25.6918   15.3250   30.0191 C   0  0  2  0  0  0  0  0  0  0  0  0
   20.8062   17.3699   29.4047 N   0  0  0  0  0  0  0  0  0  0  0  0
   27.6300   13.8331   30.3000 O   0  0  0  0  0  0  0  0  0  0  0  0
   26.9087   14.6275   29.3511 C   0  0  1  0  0  0  0  0  0  0  0  0
   23.7595   16.7588   29.5510 O   0  0  0  0  0  0  0  0  0  0  0  0
   26.4706   13.7223   28.2062 C   0  0  1  0  0  0  0  0  0  0  0  0
   23.3816   15.5601   31.4915 O   0  0  0  0  0  0  0  0  0  0  0  0
   25.6914   14.5640   27.1397 C   0  0  0  0  0  0  0  0  0  0  0  0
   22.9222   18.4529   33.7066 O   0  0  0  0  0  0  0  0  0  0  0  0
   24.4425   15.2265   27.8386 C   0  0  1  0  0  0  0  0  0  0  0  0
   20.7019   18.7111   31.9420 O   0  0  0  0  0  0  0  0  0  0  0  0
   24.9098   16.1849   28.9491 C   0  0  2  0  0  0  0  0  0  0  0  0
   22.7626   15.9912   30.2018 C   0  0  1  0  0  0  0  0  0  0  0  0
   23.7919   16.6454   32.4268 C   0  0  2  0  0  0  0  0  0  0  0  0
   24.4245   16.0022   33.6647 C   0  0  0  0  0  0  0  0  0  0  0  0
   22.5550   17.4201   32.8232 C   0  0  2  0  0  0  0  0  0  0  0  0
   21.8794   17.9833   31.5741 C   0  0  1  0  0  0  0  0  0  0  0  0
   21.4997   16.8204   30.6247 C   0  0  1  0  0  0  0  0  0  0  0  0
  5  4  1  1  0  0  0
  5  8  1  0  0  0  0
  5 16  1  0  0  0  0
  8  7  1  1  0  0  0
  8 10  1  0  0  0  0
 10  1  1  6  0  0  0
 10 12  1  0  0  0  0
 11 18  1  0  0  0  0
 12 14  1  0  0  0  0
 14  2  1  6  0  0  0
 14 16  1  0  0  0  0
 16  9  1  1  0  0  0
 17  9  1  1  0  0  0
 17 11  1  0  0  0  0
 17 22  1  0  0  0  0
 18 19  1  1  0  0  0
 18 20  1  0  0  0  0
 19  3  1  0  0  0  0
 20 13  1  1  0  0  0
 20 21  1  0  0  0  0
 21 15  1  1  0  0  0
 21 22  1  0  0  0  0
 22  6  1  6  0  0  0
M  END
>  <CHROM.1>
-56.12726152,73.54837998,172.40052913,24.21518913,16.09190900,30.46070297
-0.80224590,-0.49585702,1.31290591

>  <Name>
2f4s_lig

>  <RI>
0

>  <Rbt.Current_Directory>
/home/itssahil/PROJECTS/Mol_Feturizer/New_Systems/rnas/2f4s

>  <Rbt.Executable>
rbdock ($Id: //depot/dev/client3/rdock/2013.1/src/exe/rbdock.cxx#4 $)

>  <Rbt.Library>
libRbt.so (2013.1, Build901 2013/11/27)

>  <Rbt.Parameter_File>
/export/apps/rDock/src/rDock_2013.1_src/data/scripts/dock_solv.prm

>  <Rbt.Receptor>
prm/blind_docking_100.prm

>  <SCORE>
-10.5094

>  <SCORE.INTER>
-14.7817

>  <SCORE.INTER.CONST>
1

>  <SCORE.INTER.POLAR>
-0.904104

>  <SCORE.INTER.ROT>
3

>  <SCORE.INTER.SOLV>
25.2008

>  <SCORE.INTER.VDW>
-20.8411

>  <SCORE.INTER.norm>
-0.671896

>  <SCORE.INTRA>
2.35701

>  <SCORE.INTRA.DIHEDRAL>
-0.401897

>  <SCORE.INTRA.DIHEDRAL.0>
1.67653

>  <SCORE.INTRA.POLAR>
0

>  <SCORE.INTRA.POLAR.0>
0

>  <SCORE.INTRA.REPUL>
0

>  <SCORE.INTRA.REPUL.0>
0

>  <SCORE.INTRA.SOLV>
2.5728

>  <SCORE.INTRA.SOLV.lig_0>
-76.6701

>  <SCORE.INTRA.VDW>
1.27156

>  <SCORE.INTRA.VDW.0>
-1.53273

>  <SCORE.INTRA.norm>
0.107137

>  <SCORE.RESTR>
1.91527

>  <SCORE.RESTR.CAVITY>
1.91527

>  <SCORE.RESTR.norm>
0.0870579

>  <SCORE.SYSTEM>
0

>  <SCORE.SYSTEM.CONST>
0

>  <SCORE.SYSTEM.DIHEDRAL>
0

>  <SCORE.SYSTEM.SOLV>
0

>  <SCORE.SYSTEM.norm>
0

>  <SCORE.heavy>
22

>  <SCORE.norm>
-0.477702

>  <RMSD>
8.342

$$$$
2f4s_lig
 OpenBabel11021811433D
libRbt.so/2013.1/901 2013/11/27
 22 23  0  0  0  0  0  0  0  0999 V2000
   27.8771   13.1673   27.4898 N   0  0  0  0  0  0  0  0  0  0  0  0
   23.6322   15.7943   26.9839 N   0  0  0  0  0  0  0  0  0  0  0  0
   23.5810   16.5276   34.7479 N   0  0  0  0  0  0  0  0  0  0  0  0
   26.3188   16.0620   31.1911 O   0  0  0  0  0  0  0  0  0  0  0  0
   25.8692   15.2140   30.0950 C   0  0  2  0  0  0  0  0  0  0  0  0
   20.8670   15.8745   29.4707 N   0  0  0  0  0  0  0  0  0  0  0  0
   27.9316   13.8758   30.2255 O   0  0  0  0  0  0  0  0  0  0  0  0
   27.0932   14.6268   29.3396 C   0  0  1  0  0  0  0  0  0  0  0  0
   23.8056   16.4979   29.7761 O   0  0  0  0  0  0  0  0  0  0  0  0
   26.6572   13.7098   28.2034 C   0  0  1  0  0  0  0  0  0  0  0  0
   23.6374   16.0254   32.0330 O   0  0  0  0  0  0  0  0  0  0  0  0
   25.7501   14.5053   27.2047 C   0  0  0  0  0  0  0  0  0  0  0  0
   21.9259   19.1272   33.0000 O   0  0  0  0  0  0  0  0  0  0  0  0
   24.4990   15.0545   27.9921 C   0  0  1  0  0  0  0  0  0  0  0  0
   19.9896   17.8936   31.3149 O   0  0  0  0  0  0  0  0  0  0  0  0
   24.9577   16.0276   29.0934 C   0  0  2  0  0  0  0  0  0  0  0  0
   23.0693   15.7035   30.6891 C   0  0  1  0  0  0  0  0  0  0  0  0
   23.5235   17.4424   32.4803 C   0  0  2  0  0  0  0  0  0  0  0  0
   24.1849   17.5689   33.8561 C   0  0  0  0  0  0  0  0  0  0  0  0
   22.0550   17.7897   32.5800 C   0  0  2  0  0  0  0  0  0  0  0  0
   21.3831   17.5747   31.2249 C   0  0  1  0  0  0  0  0  0  0  0  0
   21.5543   16.0974   30.7933 C   0  0  1  0  0  0  0  0  0  0  0  0
  5  4  1  1  0  0  0
  5  8  1  0  0  0  0
  5 16  1  0  0  0  0
  8  7  1  1  0  0  0
  8 10  1  0  0  0  0
 10  1  1  6  0  0  0
 10 12  1  0  0  0  0
 11 18  1  0  0  0  0
 12 14  1  0  0  0  0
 14  2  1  6  0  0  0
 14 16  1  0  0  0  0
 16  9  1  1  0  0  0
 17  9  1  6  0  0  0
 17 11  1  0  0  0  0
 17 22  1  0  0  0  0
 18 19  1  1  0  0  0
 18 20  1  0  0  0  0
 19  3  1  0  0  0  0
 20 13  1  6  0  0  0
 20 21  1  0  0  0  0
 21 15  1  1  0  0  0
 21 22  1  0  0  0  0
 22  6  1  6  0  0  0
M  END
>  <CHROM.1>
-42.74094776,93.73800142,-52.78470631,24.09314352,16.03202129,30.48229347
-0.76522219,-0.37097680,1.23280450

>  <Name>
2f4s_lig

>  <RI>
0

>  <Rbt.Current_Directory>
/home/itssahil/PROJECTS/Mol_Feturizer/New_Systems/rnas/2f4s

>  <Rbt.Executable>
rbdock ($Id: //depot/dev/client3/rdock/2013.1/src/exe/rbdock.cxx#4 $)

>  <Rbt.Library>
libRbt.so (2013.1, Build901 2013/11/27)

>  <Rbt.Parameter_File>
/export/apps/rDock/src/rDock_2013.1_src/data/scripts/dock_solv.prm

>  <Rbt.Receptor>
prm/blind_docking_100.prm

>  <SCORE>
-9.8795

>  <SCORE.INTER>
-15.0379

>  <SCORE.INTER.CONST>
1

>  <SCORE.INTER.POLAR>
-1.06981

>  <SCORE.INTER.ROT>
3

>  <SCORE.INTER.SOLV>
20.8593

>  <SCORE.INTER.VDW>
-19.0123

>  <SCORE.INTER.norm>
-0.683542

>  <SCORE.INTRA>
4.01431

>  <SCORE.INTRA.DIHEDRAL>
4.19297

>  <SCORE.INTRA.DIHEDRAL.0>
1.67653

>  <SCORE.INTRA.POLAR>
0

>  <SCORE.INTRA.POLAR.0>
0

>  <SCORE.INTRA.REPUL>
0

>  <SCORE.INTRA.REPUL.0>
0

>  <SCORE.INTRA.SOLV>
3.17514

>  <SCORE.INTRA.SOLV.lig_0>
-76.6701

>  <SCORE.INTRA.VDW>
0.330257

>  <SCORE.INTRA.VDW.0>
-1.53273

>  <SCORE.INTRA.norm>
0.182469

>  <SCORE.RESTR>
1.1441

>  <SCORE.RESTR.CAVITY>
1.1441

>  <SCORE.RESTR.norm>
0.0520047

>  <SCORE.SYSTEM>
0

>  <SCORE.SYSTEM.CONST>
0

>  <SCORE.SYSTEM.DIHEDRAL>
0

>  <SCORE.SYSTEM.SOLV>
0

>  <SCORE.SYSTEM.norm>
0

>  <SCORE.heavy>
22

>  <SCORE.norm>
-0.449068

>  <RMSD>
8.344

$$$$
2f4s_lig
 OpenBabel11021811433D
libRbt.so/2013.1/901 2013/11/27
 22 23  0  0  0  0  0  0  0  0999 V2000
   27.8579   13.1835   27.4950 N   0  0  0  0  0  0  0  0  0  0  0  0
   23.6056   15.7899   26.9469 N   0  0  0  0  0  0  0  0  0  0  0  0
   23.5700   16.5573   34.7346 N   0  0  0  0  0  0  0  0  0  0  0  0
   26.2500   16.0719   31.1799 O   0  0  0  0  0  0  0  0  0  0  0  0
   25.8151   15.2214   30.0798 C   0  0  2  0  0  0  0  0  0  0  0  0
   20.7986   15.9031   29.4873 N   0  0  0  0  0  0  0  0  0  0  0  0
   27.8826   13.8931   30.2308 O   0  0  0  0  0  0  0  0  0  0  0  0
   27.0492   14.6398   29.3365 C   0  0  1  0  0  0  0  0  0  0  0  0
   23.7486   16.4953   29.7405 O   0  0  0  0  0  0  0  0  0  0  0  0
   26.6286   13.7203   28.1965 C   0  0  1  0  0  0  0  0  0  0  0  0
   23.6169   16.0178   31.9987 O   0  0  0  0  0  0  0  0  0  0  0  0
   25.7275   14.5112   27.1888 C   0  0  0  0  0  0  0  0  0  0  0  0
   21.9555   19.1342   33.0056 O   0  0  0  0  0  0  0  0  0  0  0  0
   24.4661   15.0546   27.9638 C   0  0  1  0  0  0  0  0  0  0  0  0
   19.9761   17.9256   31.3528 O   0  0  0  0  0  0  0  0  0  0  0  0
   24.9095   16.0302   29.0691 C   0  0  2  0  0  0  0  0  0  0  0  0
   23.0210   15.7058   30.6646 C   0  0  1  0  0  0  0  0  0  0  0  0
   23.5259   17.4346   32.4520 C   0  0  2  0  0  0  0  0  0  0  0  0
   24.2136   17.5502   33.8157 C   0  0  0  0  0  0  0  0  0  0  0  0
   22.0630   17.7967   32.5796 C   0  0  2  0  0  0  0  0  0  0  0  0
   21.3643   17.5927   31.2365 C   0  0  1  0  0  0  0  0  0  0  0  0
   21.5123   16.1150   30.7976 C   0  0  1  0  0  0  0  0  0  0  0  0
  5  4  1  1  0  0  0
  5  8  1  0  0  0  0
  5 16  1  0  0  0  0
  8  7  1  1  0  0  0
  8 10  1  0  0  0  0
 10  1  1  6  0  0  0
 10 12  1  0  0  0  0
 11 18  1  0  0  0  0
 12 14  1  0  0  0  0
 14  2  1  6  0  0  0
 14 16  1  0  0  0  0
 16  9  1  1  0  0  0
 17  9  1  6  0  0  0
 17 11  1  0  0  0  0
 17 22  1  0  0  0  0
 18 19  1  1  0  0  0
 18 20  1  0  0  0  0
 19  3  1  0  0  0  0
 20 13  1  6  0  0  0
 20 21  1  0  0  0  0
 21 15  1  1  0  0  0
 21 22  1  0  0  0  0
 22  6  1  6  0  0  0
M  END
>  <CHROM.1>
-41.58134714,91.54987897,-55.45815533,24.06564804,16.04046798,30.47197597
-0.76948984,-0.37046541,1.23097562

>  <Name>
2f4s_lig

>  <RI>
0

>  <Rbt.Current_Directory>
/home/itssahil/PROJECTS/Mol_Feturizer/New_Systems/rnas/2f4s

>  <Rbt.Executable>
rbdock ($Id: //depot/dev/client3/rdock/2013.1/src/exe/rbdock.cxx#4 $)

>  <Rbt.Library>
libRbt.so (2013.1, Build901 2013/11/27)

>  <Rbt.Parameter_File>
/export/apps/rDock/src/rDock_2013.1_src/data/scripts/dock_solv.prm

>  <Rbt.Receptor>
prm/blind_docking_100.prm

>  <SCORE>
-9.85731

>  <SCORE.INTER>
-14.8757

>  <SCORE.INTER.CONST>
1

>  <SCORE.INTER.POLAR>
-1.05842

>  <SCORE.INTER.ROT>
3

>  <SCORE.INTER.SOLV>
20.8086

>  <SCORE.INTER.VDW>
-18.9253

>  <SCORE.INTER.norm>
-0.676167

>  <SCORE.INTRA>
3.87727

>  <SCORE.INTRA.DIHEDRAL>
3.8591

>  <SCORE.INTRA.DIHEDRAL.0>
1.67653

>  <SCORE.INTRA.POLAR>
0

>  <SCORE.INTRA.POLAR.0>
0

>  <SCORE.INTRA.REPUL>
0

>  <SCORE.INTRA.REPUL.0>
0

>  <SCORE.INTRA.SOLV>
3.07868

>  <SCORE.INTRA.SOLV.lig_0>
-76.6701

>  <SCORE.INTRA.VDW>
0.408383

>  <SCORE.INTRA.VDW.0>
-1.53273

>  <SCORE.INTRA.norm>
0.17624

>  <SCORE.RESTR>
1.14109

>  <SCORE.RESTR.CAVITY>
1.14109

>  <SCORE.RESTR.norm>
0.0518677

>  <SCORE.SYSTEM>
0

>  <SCORE.SYSTEM.CONST>
0

>  <SCORE.SYSTEM.DIHEDRAL>
0

>  <SCORE.SYSTEM.SOLV>
0

>  <SCORE.SYSTEM.norm>
0

>  <SCORE.heavy>
22

>  <SCORE.norm>
-0.448059

>  <RMSD>
8.345

$$$$
2f4s_lig
 OpenBabel11021811433D
libRbt.so/2013.1/901 2013/11/27
 22 23  0  0  0  0  0  0  0  0999 V2000
   27.8893   13.1846   27.4855 N   0  0  0  0  0  0  0  0  0  0  0  0
   23.6510   15.8191   26.9643 N   0  0  0  0  0  0  0  0  0  0  0  0
   23.5698   16.5428   34.7520 N   0  0  0  0  0  0  0  0  0  0  0  0
   26.3007   16.0495   31.1971 O   0  0  0  0  0  0  0  0  0  0  0  0
   25.8601   15.2110   30.0900 C   0  0  2  0  0  0  0  0  0  0  0  0
   20.8571   15.8904   29.4740 N   0  0  0  0  0  0  0  0  0  0  0  0
   27.9204   13.8702   30.2275 O   0  0  0  0  0  0  0  0  0  0  0  0
   27.0903   14.6292   29.3405 C   0  0  1  0  0  0  0  0  0  0  0  0
   23.8003   16.4992   29.7637 O   0  0  0  0  0  0  0  0  0  0  0  0
   26.6636   13.7220   28.1929 C   0  0  1  0  0  0  0  0  0  0  0  0
   23.6442   16.0170   32.0194 O   0  0  0  0  0  0  0  0  0  0  0  0
   25.7660   14.5266   27.1930 C   0  0  0  0  0  0  0  0  0  0  0  0
   21.9528   19.1220   33.0114 O   0  0  0  0  0  0  0  0  0  0  0  0
   24.5083   15.0701   27.9740 C   0  0  1  0  0  0  0  0  0  0  0  0
   20.0005   17.9050   31.3329 O   0  0  0  0  0  0  0  0  0  0  0  0
   24.9581   16.0337   29.0873 C   0  0  2  0  0  0  0  0  0  0  0  0
   23.0662   15.7039   30.6777 C   0  0  1  0  0  0  0  0  0  0  0  0
   23.5395   17.4325   32.4739 C   0  0  2  0  0  0  0  0  0  0  0  0
   24.2101   17.5496   33.8461 C   0  0  0  0  0  0  0  0  0  0  0  0
   22.0732   17.7859   32.5845 C   0  0  2  0  0  0  0  0  0  0  0  0
   21.3919   17.5802   31.2327 C   0  0  1  0  0  0  0  0  0  0  0  0
   21.5537   16.1042   30.7932 C   0  0  1  0  0  0  0  0  0  0  0  0
  5  4  1  1  0  0  0
  5  8  1  0  0  0  0
  5 16  1  0  0  0  0
  8  7  1  1  0  0  0
  8 10  1  0  0  0  0
 10  1  1  6  0  0  0
 10 12  1  0  0  0  0
 11 18  1  0  0  0  0
 12 14  1  0  0  0  0
 14  2  1  6  0  0  0
 14 16  1  0  0  0  0
 16  9  1  1  0  0  0
 17  9  1  6  0  0  0
 17 11  1  0  0  0  0
 17 22  1  0  0  0  0
 18 19  1  1  0  0  0
 18 20  1  0  0  0  0
 19  3  1  0  0  0  0
 20 13  1  6  0  0  0
 20 21  1  0  0  0  0
 21 15  1  1  0  0  0
 21 22  1  0  0  0  0
 22  6  1  6  0  0  0
M  END
>  <CHROM.1>
-41.83529874,92.73182364,-54.94768191,24.09778461,16.03579292,30.47930102
-0.76592798,-0.37320097,1.23781634

>  <Name>
2f4s_lig

>  <RI>
0

>  <Rbt.Current_Directory>
/home/itssahil/PROJECTS/Mol_Feturizer/New_Systems/rnas/2f4s

>  <Rbt.Executable>
rbdock ($Id: //depot/dev/client3/rdock/2013.1/src/exe/rbdock.cxx#4 $)

>  <Rbt.Library>
libRbt.so (2013.1, Build901 2013/11/27)

>  <Rbt.Parameter_File>
/export/apps/rDock/src/rDock_2013.1_src/data/scripts/dock_solv.prm

>  <Rbt.Receptor>
prm/blind_docking_100.prm

>  <SCORE>
-9.98015

>  <SCORE.INTER>
-15.1018

>  <SCORE.INTER.CONST>
1

>  <SCORE.INTER.POLAR>
-1.04035

>  <SCORE.INTER.ROT>
3

>  <SCORE.INTER.SOLV>
20.8033

>  <SCORE.INTER.VDW>
-19.1345

>  <SCORE.INTER.norm>
-0.686447

>  <SCORE.INTRA>
3.97102

>  <SCORE.INTRA.DIHEDRAL>
4.05218

>  <SCORE.INTRA.DIHEDRAL.0>
1.67653

>  <SCORE.INTRA.POLAR>
0

>  <SCORE.INTRA.POLAR.0>
0

>  <SCORE.INTRA.REPUL>
0

>  <SCORE.INTRA.REPUL.0>
0

>  <SCORE.INTRA.SOLV>
3.13125

>  <SCORE.INTRA.SOLV.lig_0>
-76.6701

>  <SCORE.INTRA.VDW>
0.379304

>  <SCORE.INTRA.VDW.0>
-1.53273

>  <SCORE.INTRA.norm>
0.180501

>  <SCORE.RESTR>
1.15066

>  <SCORE.RESTR.CAVITY>
1.15066

>  <SCORE.RESTR.norm>
0.0523026

>  <SCORE.SYSTEM>
0

>  <SCORE.SYSTEM.CONST>
0

>  <SCORE.SYSTEM.DIHEDRAL>
0

>  <SCORE.SYSTEM.SOLV>
0

>  <SCORE.SYSTEM.norm>
0

>  <SCORE.heavy>
22

>  <SCORE.norm>
-0.453643

>  <RMSD>
8.347

$$$$
2f4s_lig
 OpenBabel11021811433D
libRbt.so/2013.1/901 2013/11/27
 22 23  0  0  0  0  0  0  0  0999 V2000
   27.6899   13.0470   27.5756 N   0  0  0  0  0  0  0  0  0  0  0  0
   23.7141   16.0005   26.7723 N   0  0  0  0  0  0  0  0  0  0  0  0
   25.0060   17.1293   34.5193 N   0  0  0  0  0  0  0  0  0  0  0  0
   26.1757   16.1529   31.1206 O   0  0  0  0  0  0  0  0  0  0  0  0
   25.7184   15.3173   30.0182 C   0  0  2  0  0  0  0  0  0  0  0  0
   20.8383   17.3748   29.4038 N   0  0  0  0  0  0  0  0  0  0  0  0
   27.6514   13.8178   30.2947 O   0  0  0  0  0  0  0  0  0  0  0  0
   26.9292   14.6125   29.3467 C   0  0  1  0  0  0  0  0  0  0  0  0
   23.7902   16.7581   29.5548 O   0  0  0  0  0  0  0  0  0  0  0  0
   26.4819   13.7059   28.2065 C   0  0  1  0  0  0  0  0  0  0  0  0
   23.4091   15.5716   31.5021 O   0  0  0  0  0  0  0  0  0  0  0  0
   25.7014   14.5477   27.1411 C   0  0  0  0  0  0  0  0  0  0  0  0
   22.9553   18.4783   33.7001 O   0  0  0  0  0  0  0  0  0  0  0  0
   24.4586   15.2177   27.8438 C   0  0  1  0  0  0  0  0  0  0  0  0
   20.7361   18.7310   31.9333 O   0  0  0  0  0  0  0  0  0  0  0  0
   24.9352   16.1774   28.9493 C   0  0  2  0  0  0  0  0  0  0  0  0
   22.7914   15.9965   30.2097 C   0  0  1  0  0  0  0  0  0  0  0  0
   23.8214   16.6614   32.4312 C   0  0  2  0  0  0  0  0  0  0  0  0
   24.4522   16.0241   33.6730 C   0  0  0  0  0  0  0  0  0  0  0  0
   22.5861   17.4411   32.8226 C   0  0  2  0  0  0  0  0  0  0  0  0
   21.9122   17.9985   31.5700 C   0  0  1  0  0  0  0  0  0  0  0  0
   21.5302   16.8309   30.6272 C   0  0  1  0  0  0  0  0  0  0  0  0
  5  4  1  1  0  0  0
  5  8  1  0  0  0  0
  5 16  1  0  0  0  0
  8  7  1  1  0  0  0
  8 10  1  0  0  0  0
 10  1  1  6  0  0  0
 10 12  1  0  0  0  0
 11 18  1  0  0  0  0
 12 14  1  0  0  0  0
 14  2  1  6  0  0  0
 14 16  1  0  0  0  0
 16  9  1  1  0  0  0
 17  9  1  1  0  0  0
 17 11  1  0  0  0  0
 17 22  1  0  0  0  0
 18 19  1  1  0  0  0
 18 20  1  0  0  0  0
 19  3  1  0  0  0  0
 20 13  1  1  0  0  0
 20 21  1  0  0  0  0
 21 15  1  1  0  0  0
 21 22  1  0  0  0  0
 22  6  1  6  0  0  0
M  END
>  <CHROM.1>
-56.28145994,73.95806720,173.40991125,24.23960553,16.09446710,30.46170772
-0.80679839,-0.49893543,1.30745791

>  <Name>
2f4s_lig

>  <RI>
0

>  <Rbt.Current_Directory>
/home/itssahil/PROJECTS/Mol_Feturizer/New_Systems/rnas/2f4s

>  <Rbt.Executable>
rbdock ($Id: //depot/dev/client3/rdock/2013.1/src/exe/rbdock.cxx#4 $)

>  <Rbt.Library>
libRbt.so (2013.1, Build901 2013/11/27)

>  <Rbt.Parameter_File>
/export/apps/rDock/src/rDock_2013.1_src/data/scripts/dock_solv.prm

>  <Rbt.Receptor>
prm/blind_docking_100.prm

>  <SCORE>
-10.6728

>  <SCORE.INTER>
-14.9733

>  <SCORE.INTER.CONST>
1

>  <SCORE.INTER.POLAR>
-0.900148

>  <SCORE.INTER.ROT>
3

>  <SCORE.INTER.SOLV>
25.2541

>  <SCORE.INTER.VDW>
-20.9997

>  <SCORE.INTER.norm>
-0.680604

>  <SCORE.INTRA>
2.345

>  <SCORE.INTRA.DIHEDRAL>
-0.408199

>  <SCORE.INTRA.DIHEDRAL.0>
1.67653

>  <SCORE.INTRA.POLAR>
0

>  <SCORE.INTRA.POLAR.0>
0

>  <SCORE.INTRA.REPUL>
0

>  <SCORE.INTRA.REPUL.0>
0

>  <SCORE.INTRA.SOLV>
2.59095

>  <SCORE.INTRA.SOLV.lig_0>
-76.6701

>  <SCORE.INTRA.VDW>
1.25362

>  <SCORE.INTRA.VDW.0>
-1.53273

>  <SCORE.INTRA.norm>
0.106591

>  <SCORE.RESTR>
1.95552

>  <SCORE.RESTR.CAVITY>
1.95552

>  <SCORE.RESTR.norm>
0.0888873

>  <SCORE.SYSTEM>
0

>  <SCORE.SYSTEM.CONST>
0

>  <SCORE.SYSTEM.DIHEDRAL>
0

>  <SCORE.SYSTEM.SOLV>
0

>  <SCORE.SYSTEM.norm>
0

>  <SCORE.heavy>
22

>  <SCORE.norm>
-0.485126

>  <RMSD>
8.354

$$$$
2f4s_lig
 OpenBabel11021811433D
libRbt.so/2013.1/901 2013/11/27
 22 23  0  0  0  0  0  0  0  0999 V2000
   26.8211   15.3743   25.8437 N   0  0  0  0  0  0  0  0  0  0  0  0
   27.1680   14.9895   30.8345 N   0  0  0  0  0  0  0  0  0  0  0  0
   20.7269   18.9367   30.2023 N   0  0  0  0  0  0  0  0  0  0  0  0
   22.7075   15.2795   28.5962 O   0  0  0  0  0  0  0  0  0  0  0  0
   24.0993   15.7101   28.5798 C   0  0  2  0  0  0  0  0  0  0  0  0
   24.7912   16.4757   33.8260 N   0  0  0  0  0  0  0  0  0  0  0  0
   24.0581   15.8992   26.1254 O   0  0  0  0  0  0  0  0  0  0  0  0
   24.7617   15.3189   27.2301 C   0  0  1  0  0  0  0  0  0  0  0  0
   24.3321   15.4879   31.0099 O   0  0  0  0  0  0  0  0  0  0  0  0
   26.2121   15.7821   27.1683 C   0  0  1  0  0  0  0  0  0  0  0  0
   23.1299   17.4122   30.5662 O   0  0  0  0  0  0  0  0  0  0  0  0
   27.0160   15.1514   28.3552 C   0  0  0  0  0  0  0  0  0  0  0  0
   20.0902   16.4562   32.3915 O   0  0  0  0  0  0  0  0  0  0  0  0
   26.3432   15.5979   29.7098 C   0  0  1  0  0  0  0  0  0  0  0  0
   22.0025   16.6315   34.4945 O   0  0  0  0  0  0  0  0  0  0  0  0
   24.9002   15.0658   29.7795 C   0  0  2  0  0  0  0  0  0  0  0  0
   24.2396   16.8486   31.3927 C   0  0  1  0  0  0  0  0  0  0  0  0
   21.7838   16.8017   30.7564 C   0  0  2  0  0  0  0  0  0  0  0  0
   20.8014   17.4937   29.8065 C   0  0  0  0  0  0  0  0  0  0  0  0
   21.3608   17.0282   32.1907 C   0  0  2  0  0  0  0  0  0  0  0  0
   22.3929   16.4127   33.1339 C   0  0  1  0  0  0  0  0  0  0  0  0
   23.7764   17.0592   32.8768 C   0  0  1  0  0  0  0  0  0  0  0  0
  5  4  1  6  0  0  0
  5  8  1  0  0  0  0
  5 16  1  0  0  0  0
  8  7  1  6  0  0  0
  8 10  1  0  0  0  0
 10  1  1  6  0  0  0
 10 12  1  0  0  0  0
 11 18  1  0  0  0  0
 12 14  1  0  0  0  0
 14  2  1  1  0  0  0
 14 16  1  0  0  0  0
 16  9  1  1  0  0  0
 17  9  1  6  0  0  0
 17 11  1  0  0  0  0
 17 22  1  0  0  0  0
 18 19  1  6  0  0  0
 18 20  1  0  0  0  0
 19  3  1  0  0  0  0
 20 13  1  6  0  0  0
 20 21  1  0  0  0  0
 21 15  1  1  0  0  0
 21 22  1  0  0  0  0
 22  6  1  1  0  0  0
M  END
>  <CHROM.1>
-59.40355343,74.74944615,-62.93983180,23.74859777,16.23769423,30.23120563
0.87533230,0.32828077,-1.60820352

>  <Name>
2f4s_lig

>  <RI>
0

>  <Rbt.Current_Directory>
/home/itssahil/PROJECTS/Mol_Feturizer/New_Systems/rnas/2f4s

>  <Rbt.Executable>
rbdock ($Id: //depot/dev/client3/rdock/2013.1/src/exe/rbdock.cxx#4 $)

>  <Rbt.Library>
libRbt.so (2013.1, Build901 2013/11/27)

>  <Rbt.Parameter_File>
/export/apps/rDock/src/rDock_2013.1_src/data/scripts/dock_solv.prm

>  <Rbt.Receptor>
prm/blind_docking_100.prm

>  <SCORE>
-1.98403

>  <SCORE.INTER>
-7.07729

>  <SCORE.INTER.CONST>
1

>  <SCORE.INTER.POLAR>
-1.08237

>  <SCORE.INTER.ROT>
3

>  <SCORE.INTER.SOLV>
26.4032

>  <SCORE.INTER.VDW>
-15.5114

>  <SCORE.INTER.norm>
-0.321695

>  <SCORE.INTRA>
1.9164

>  <SCORE.INTRA.DIHEDRAL>
-0.497079

>  <SCORE.INTRA.DIHEDRAL.0>
1.67653

>  <SCORE.INTRA.POLAR>
0

>  <SCORE.INTRA.POLAR.0>
0

>  <SCORE.INTRA.REPUL>
0

>  <SCORE.INTRA.REPUL.0>
0

>  <SCORE.INTRA.SOLV>
2.76936

>  <SCORE.INTRA.SOLV.lig_0>
-76.6701

>  <SCORE.INTRA.VDW>
0.780264

>  <SCORE.INTRA.VDW.0>
-1.53273

>  <SCORE.INTRA.norm>
0.0871093

>  <SCORE.RESTR>
3.17686

>  <SCORE.RESTR.CAVITY>
3.17686

>  <SCORE.RESTR.norm>
0.144403

>  <SCORE.SYSTEM>
0

>  <SCORE.SYSTEM.CONST>
0

>  <SCORE.SYSTEM.DIHEDRAL>
0

>  <SCORE.SYSTEM.SOLV>
0

>  <SCORE.SYSTEM.norm>
0

>  <SCORE.heavy>
22

>  <SCORE.norm>
-0.090183

>  <RMSD>
8.357

$$$$
2f4s_lig
 OpenBabel11021811433D
libRbt.so/2013.1/901 2013/11/27
 22 23  0  0  0  0  0  0  0  0999 V2000
   27.7330   13.1377   27.5062 N   0  0  0  0  0  0  0  0  0  0  0  0
   23.5517   15.8792   27.0852 N   0  0  0  0  0  0  0  0  0  0  0  0
   25.0095   16.6681   34.1432 N   0  0  0  0  0  0  0  0  0  0  0  0
   26.3465   16.0976   31.2243 O   0  0  0  0  0  0  0  0  0  0  0  0
   25.8469   15.2557   30.1452 C   0  0  2  0  0  0  0  0  0  0  0  0
   20.8937   15.9174   29.4963 N   0  0  0  0  0  0  0  0  0  0  0  0
   27.8740   13.8612   30.2349 O   0  0  0  0  0  0  0  0  0  0  0  0
   27.0354   14.6299   29.3644 C   0  0  1  0  0  0  0  0  0  0  0  0
   23.8127   16.5949   29.8676 O   0  0  0  0  0  0  0  0  0  0  0  0
   26.5464   13.7184   28.2455 C   0  0  1  0  0  0  0  0  0  0  0  0
   23.5840   16.1919   32.1326 O   0  0  0  0  0  0  0  0  0  0  0  0
   25.6378   14.5329   27.2636 C   0  0  0  0  0  0  0  0  0  0  0  0
   21.8002   19.2965   32.9483 O   0  0  0  0  0  0  0  0  0  0  0  0
   24.4220   15.1216   28.0773 C   0  0  1  0  0  0  0  0  0  0  0  0
   19.9330   17.9806   31.2478 O   0  0  0  0  0  0  0  0  0  0  0  0
   24.9343   16.0883   29.1604 C   0  0  2  0  0  0  0  0  0  0  0  0
   23.0609   15.8188   30.7837 C   0  0  1  0  0  0  0  0  0  0  0  0
   23.4366   17.6206   32.5304 C   0  0  2  0  0  0  0  0  0  0  0  0
   24.0547   17.8009   33.9203 C   0  0  0  0  0  0  0  0  0  0  0  0
   21.9609   17.9485   32.5757 C   0  0  2  0  0  0  0  0  0  0  0  0
   21.3329   17.6803   31.2091 C   0  0  1  0  0  0  0  0  0  0  0  0
   21.5380   16.1927   30.8306 C   0  0  1  0  0  0  0  0  0  0  0  0
  5  4  1  1  0  0  0
  5  8  1  0  0  0  0
  5 16  1  0  0  0  0
  8  7  1  1  0  0  0
  8 10  1  0  0  0  0
 10  1  1  6  0  0  0
 10 12  1  0  0  0  0
 11 18  1  0  0  0  0
 12 14  1  0  0  0  0
 14  2  1  6  0  0  0
 14 16  1  0  0  0  0
 16  9  1  1  0  0  0
 17  9  1  6  0  0  0
 17 11  1  0  0  0  0
 17 22  1  0  0  0  0
 18 19  1  1  0  0  0
 18 20  1  0  0  0  0
 19  3  1  0  0  0  0
 20 13  1  6  0  0  0
 20 21  1  0  0  0  0
 21 15  1  1  0  0  0
 21 22  1  0  0  0  0
 22  6  1  6  0  0  0
M  END
>  <CHROM.1>
-44.03861427,98.50608713,21.10775779,24.10143837,16.11743362,30.49105897
0.75991422,0.36833627,-1.96835235

>  <Name>
2f4s_lig

>  <RI>
0

>  <Rbt.Current_Directory>
/home/itssahil/PROJECTS/Mol_Feturizer/New_Systems/rnas/2f4s

>  <Rbt.Executable>
rbdock ($Id: //depot/dev/client3/rdock/2013.1/src/exe/rbdock.cxx#4 $)

>  <Rbt.Library>
libRbt.so (2013.1, Build901 2013/11/27)

>  <Rbt.Parameter_File>
/export/apps/rDock/src/rDock_2013.1_src/data/scripts/dock_solv.prm

>  <Rbt.Receptor>
prm/blind_docking_100.prm

>  <SCORE>
-6.41853

>  <SCORE.INTER>
-14.218

>  <SCORE.INTER.CONST>
1

>  <SCORE.INTER.POLAR>
-1.0532

>  <SCORE.INTER.ROT>
3

>  <SCORE.INTER.SOLV>
23.0607

>  <SCORE.INTER.VDW>
-19.2549

>  <SCORE.INTER.norm>
-0.646272

>  <SCORE.INTRA>
6.39425

>  <SCORE.INTRA.DIHEDRAL>
8.44182

>  <SCORE.INTRA.DIHEDRAL.0>
1.67653

>  <SCORE.INTRA.POLAR>
0

>  <SCORE.INTRA.POLAR.0>
0

>  <SCORE.INTRA.REPUL>
0

>  <SCORE.INTRA.REPUL.0>
0

>  <SCORE.INTRA.SOLV>
3.28393

>  <SCORE.INTRA.SOLV.lig_0>
-76.6701

>  <SCORE.INTRA.VDW>
0.531378

>  <SCORE.INTRA.VDW.0>
-1.53273

>  <SCORE.INTRA.norm>
0.290648

>  <SCORE.RESTR>
1.4052

>  <SCORE.RESTR.CAVITY>
1.4052

>  <SCORE.RESTR.norm>
0.0638728

>  <SCORE.SYSTEM>
0

>  <SCORE.SYSTEM.CONST>
0

>  <SCORE.SYSTEM.DIHEDRAL>
0

>  <SCORE.SYSTEM.SOLV>
0

>  <SCORE.SYSTEM.norm>
0

>  <SCORE.heavy>
22

>  <SCORE.norm>
-0.291751

>  <RMSD>
8.358

$$$$
2f4s_lig
 OpenBabel11021811433D
libRbt.so/2013.1/901 2013/11/27
 22 23  0  0  0  0  0  0  0  0999 V2000
   27.9976   13.0664   27.4940 N   0  0  0  0  0  0  0  0  0  0  0  0
   23.7188   15.6188   26.9000 N   0  0  0  0  0  0  0  0  0  0  0  0
   24.4993   17.0151   34.0870 N   0  0  0  0  0  0  0  0  0  0  0  0
   26.3590   16.0022   31.1277 O   0  0  0  0  0  0  0  0  0  0  0  0
   25.9332   15.1281   30.0426 C   0  0  2  0  0  0  0  0  0  0  0  0
   21.1015   15.2105   29.2479 N   0  0  0  0  0  0  0  0  0  0  0  0
   28.0142   13.8241   30.2170 O   0  0  0  0  0  0  0  0  0  0  0  0
   27.1734   14.5464   29.3097 C   0  0  1  0  0  0  0  0  0  0  0  0
   23.8538   16.3745   29.6808 O   0  0  0  0  0  0  0  0  0  0  0  0
   26.7626   13.6027   28.1860 C   0  0  1  0  0  0  0  0  0  0  0  0
   23.5216   16.2254   31.9639 O   0  0  0  0  0  0  0  0  0  0  0  0
   25.8537   14.3664   27.1644 C   0  0  0  0  0  0  0  0  0  0  0  0
   21.2453   19.0919   32.2598 O   0  0  0  0  0  0  0  0  0  0  0  0
   24.5866   14.9103   27.9298 C   0  0  1  0  0  0  0  0  0  0  0  0
   19.7217   17.3007   30.6533 O   0  0  0  0  0  0  0  0  0  0  0  0
   25.0196   15.9097   29.0178 C   0  0  2  0  0  0  0  0  0  0  0  0
   23.1594   15.6109   30.6510 C   0  0  1  0  0  0  0  0  0  0  0  0
   23.1367   17.6520   32.1583 C   0  0  2  0  0  0  0  0  0  0  0  0
   23.6181   18.0974   33.5425 C   0  0  0  0  0  0  0  0  0  0  0  0
   21.6295   17.7494   32.0802 C   0  0  2  0  0  0  0  0  0  0  0  0
   21.1497   17.2192   30.7302 C   0  0  1  0  0  0  0  0  0  0  0  0
   21.5987   15.7463   30.5658 C   0  0  1  0  0  0  0  0  0  0  0  0
  5  4  1  1  0  0  0
  5  8  1  0  0  0  0
  5 16  1  0  0  0  0
  8  7  1  1  0  0  0
  8 10  1  0  0  0  0
 10  1  1  6  0  0  0
 10 12  1  0  0  0  0
 11 18  1  0  0  0  0
 12 14  1  0  0  0  0
 14  2  1  6  0  0  0
 14 16  1  0  0  0  0
 16  9  1  1  0  0  0
 17  9  1  6  0  0  0
 17 11  1  0  0  0  0
 17 22  1  0  0  0  0
 18 19  1  1  0  0  0
 18 20  1  0  0  0  0
 19  3  1  0  0  0  0
 20 13  1  6  0  0  0
 20 21  1  0  0  0  0
 21 15  1  1  0  0  0
 21 22  1  0  0  0  0
 22  6  1  6  0  0  0
M  END
>  <CHROM.1>
-39.43035823,104.56132175,9.65285697,24.06604252,15.94609126,30.26197770
0.70255311,0.31141120,-2.01208030

>  <Name>
2f4s_lig

>  <RI>
0

>  <Rbt.Current_Directory>
/home/itssahil/PROJECTS/Mol_Feturizer/New_Systems/rnas/2f4s

>  <Rbt.Executable>
rbdock ($Id: //depot/dev/client3/rdock/2013.1/src/exe/rbdock.cxx#4 $)

>  <Rbt.Library>
libRbt.so (2013.1, Build901 2013/11/27)

>  <Rbt.Parameter_File>
/export/apps/rDock/src/rDock_2013.1_src/data/scripts/dock_solv.prm

>  <Rbt.Receptor>
prm/blind_docking_100.prm

>  <SCORE>
-5.54501

>  <SCORE.INTER>
-14.8555

>  <SCORE.INTER.CONST>
1

>  <SCORE.INTER.POLAR>
-1.08256

>  <SCORE.INTER.ROT>
3

>  <SCORE.INTER.SOLV>
21.4584

>  <SCORE.INTER.VDW>
-19.0479

>  <SCORE.INTER.norm>
-0.67525

>  <SCORE.INTRA>
8.02325

>  <SCORE.INTRA.DIHEDRAL>
11.1739

>  <SCORE.INTRA.DIHEDRAL.0>
1.67653

>  <SCORE.INTRA.POLAR>
0

>  <SCORE.INTRA.POLAR.0>
0

>  <SCORE.INTRA.REPUL>
0

>  <SCORE.INTRA.REPUL.0>
0

>  <SCORE.INTRA.SOLV>
3.04237

>  <SCORE.INTRA.SOLV.lig_0>
-76.6701

>  <SCORE.INTRA.VDW>
0.915123

>  <SCORE.INTRA.VDW.0>
-1.53273

>  <SCORE.INTRA.norm>
0.364693

>  <SCORE.RESTR>
1.28724

>  <SCORE.RESTR.CAVITY>
1.28724

>  <SCORE.RESTR.norm>
0.058511

>  <SCORE.SYSTEM>
0

>  <SCORE.SYSTEM.CONST>
0

>  <SCORE.SYSTEM.DIHEDRAL>
0

>  <SCORE.SYSTEM.SOLV>
0

>  <SCORE.SYSTEM.norm>
0

>  <SCORE.heavy>
22

>  <SCORE.norm>
-0.252046

>  <RMSD>
8.546

$$$$
2f4s_lig
 OpenBabel11021811433D
libRbt.so/2013.1/901 2013/11/27
 22 23  0  0  0  0  0  0  0  0999 V2000
   27.9975   13.0679   27.4909 N   0  0  0  0  0  0  0  0  0  0  0  0
   23.7326   15.6454   26.9058 N   0  0  0  0  0  0  0  0  0  0  0  0
   24.5012   17.0461   34.1041 N   0  0  0  0  0  0  0  0  0  0  0  0
   26.3787   16.0058   31.1317 O   0  0  0  0  0  0  0  0  0  0  0  0
   25.9470   15.1362   30.0453 C   0  0  2  0  0  0  0  0  0  0  0  0
   21.1208   15.2290   29.2686 N   0  0  0  0  0  0  0  0  0  0  0  0
   28.0209   13.8203   30.2154 O   0  0  0  0  0  0  0  0  0  0  0  0
   27.1833   14.5490   29.3102 C   0  0  1  0  0  0  0  0  0  0  0  0
   23.8743   16.3950   29.6879 O   0  0  0  0  0  0  0  0  0  0  0  0
   26.7662   13.6098   28.1851 C   0  0  1  0  0  0  0  0  0  0  0  0
   23.5476   16.2596   31.9726 O   0  0  0  0  0  0  0  0  0  0  0  0
   25.8606   14.3806   27.1658 C   0  0  0  0  0  0  0  0  0  0  0  0
   21.2726   19.1282   32.2570 O   0  0  0  0  0  0  0  0  0  0  0  0
   24.5973   14.9301   27.9334 C   0  0  1  0  0  0  0  0  0  0  0  0
   19.7448   17.3278   30.6650 O   0  0  0  0  0  0  0  0  0  0  0  0
   25.0369   15.9250   29.0229 C   0  0  2  0  0  0  0  0  0  0  0  0
   23.1821   15.6373   30.6643 C   0  0  1  0  0  0  0  0  0  0  0  0
   23.1635   17.6874   32.1594 C   0  0  2  0  0  0  0  0  0  0  0  0
   23.6483   18.1410   33.5398 C   0  0  0  0  0  0  0  0  0  0  0  0
   21.6561   17.7847   32.0845 C   0  0  2  0  0  0  0  0  0  0  0  0
   21.1729   17.2465   30.7388 C   0  0  1  0  0  0  0  0  0  0  0  0
   21.6213   15.7726   30.5822 C   0  0  1  0  0  0  0  0  0  0  0  0
  5  4  1  1  0  0  0
  5  8  1  0  0  0  0
  5 16  1  0  0  0  0
  8  7  1  1  0  0  0
  8 10  1  0  0  0  0
 10  1  1  6  0  0  0
 10 12  1  0  0  0  0
 11 18  1  0  0  0  0
 12 14  1  0  0  0  0
 14  2  1  6  0  0  0
 14 16  1  0  0  0  0
 16  9  1  1  0  0  0
 17  9  1  6  0  0  0
 17 11  1  0  0  0  0
 17 22  1  0  0  0  0
 18 19  1  1  0  0  0
 18 20  1  0  0  0  0
 19  3  1  0  0  0  0
 20 13  1  6  0  0  0
 20 21  1  0  0  0  0
 21 15  1  1  0  0  0
 21 22  1  0  0  0  0
 22  6  1  6  0  0  0
M  END
>  <CHROM.1>
-38.95582869,104.68969838,8.17438803,24.08309544,15.96683638,30.26743979
0.70713240,0.31439718,-2.01439062

>  <Name>
2f4s_lig

>  <RI>
0

>  <Rbt.Current_Directory>
/home/itssahil/PROJECTS/Mol_Feturizer/New_Systems/rnas/2f4s

>  <Rbt.Executable>
rbdock ($Id: //depot/dev/client3/rdock/2013.1/src/exe/rbdock.cxx#4 $)

>  <Rbt.Library>
libRbt.so (2013.1, Build901 2013/11/27)

>  <Rbt.Parameter_File>
/export/apps/rDock/src/rDock_2013.1_src/data/scripts/dock_solv.prm

>  <Rbt.Receptor>
prm/blind_docking_100.prm

>  <SCORE>
-5.77837

>  <SCORE.INTER>
-15.2596

>  <SCORE.INTER.CONST>
1

>  <SCORE.INTER.POLAR>
-1.0715

>  <SCORE.INTER.ROT>
3

>  <SCORE.INTER.SOLV>
21.4363

>  <SCORE.INTER.VDW>
-19.3469

>  <SCORE.INTER.norm>
-0.693619

>  <SCORE.INTRA>
8.14114

>  <SCORE.INTRA.DIHEDRAL>
11.3617

>  <SCORE.INTRA.DIHEDRAL.0>
1.67653

>  <SCORE.INTRA.POLAR>
0

>  <SCORE.INTRA.POLAR.0>
0

>  <SCORE.INTRA.REPUL>
0

>  <SCORE.INTRA.REPUL.0>
0

>  <SCORE.INTRA.SOLV>
3.0258

>  <SCORE.INTRA.SOLV.lig_0>
-76.6701

>  <SCORE.INTRA.VDW>
0.947368

>  <SCORE.INTRA.VDW.0>
-1.53273

>  <SCORE.INTRA.norm>
0.370052

>  <SCORE.RESTR>
1.3401

>  <SCORE.RESTR.CAVITY>
1.3401

>  <SCORE.RESTR.norm>
0.0609138

>  <SCORE.SYSTEM>
0

>  <SCORE.SYSTEM.CONST>
0

>  <SCORE.SYSTEM.DIHEDRAL>
0

>  <SCORE.SYSTEM.SOLV>
0

>  <SCORE.SYSTEM.norm>
0

>  <SCORE.heavy>
22

>  <SCORE.norm>
-0.262653

>  <RMSD>
8.552

$$$$
2f4s_lig
 OpenBabel11021811433D
libRbt.so/2013.1/901 2013/11/27
 22 23  0  0  0  0  0  0  0  0999 V2000
   28.0040   13.0688   27.4975 N   0  0  0  0  0  0  0  0  0  0  0  0
   23.7285   15.6222   26.8846 N   0  0  0  0  0  0  0  0  0  0  0  0
   24.5001   17.0328   34.0852 N   0  0  0  0  0  0  0  0  0  0  0  0
   26.3530   16.0093   31.1216 O   0  0  0  0  0  0  0  0  0  0  0  0
   25.9309   15.1341   30.0359 C   0  0  2  0  0  0  0  0  0  0  0  0
   21.0928   15.2213   29.2751 N   0  0  0  0  0  0  0  0  0  0  0  0
   28.0107   13.8295   30.2197 O   0  0  0  0  0  0  0  0  0  0  0  0
   27.1736   14.5511   29.3084 C   0  0  1  0  0  0  0  0  0  0  0  0
   23.8533   16.3810   29.6650 O   0  0  0  0  0  0  0  0  0  0  0  0
   26.7666   13.6064   28.1842 C   0  0  1  0  0  0  0  0  0  0  0  0
   23.5476   16.2537   31.9531 O   0  0  0  0  0  0  0  0  0  0  0  0
   25.8618   14.3693   27.1584 C   0  0  0  0  0  0  0  0  0  0  0  0
   21.2831   19.1294   32.2496 O   0  0  0  0  0  0  0  0  0  0  0  0
   24.5921   14.9146   27.9183 C   0  0  1  0  0  0  0  0  0  0  0  0
   19.7357   17.3281   30.6776 O   0  0  0  0  0  0  0  0  0  0  0  0
   25.0214   15.9150   29.0069 C   0  0  2  0  0  0  0  0  0  0  0  0
   23.1682   15.6283   30.6502 C   0  0  1  0  0  0  0  0  0  0  0  0
   23.1691   17.6831   32.1390 C   0  0  2  0  0  0  0  0  0  0  0  0
   23.6681   18.1397   33.5133 C   0  0  0  0  0  0  0  0  0  0  0  0
   21.6614   17.7843   32.0778 C   0  0  2  0  0  0  0  0  0  0  0  0
   21.1642   17.2432   30.7384 C   0  0  1  0  0  0  0  0  0  0  0  0
   21.6071   15.7676   30.5822 C   0  0  1  0  0  0  0  0  0  0  0  0
  5  4  1  1  0  0  0
  5  8  1  0  0  0  0
  5 16  1  0  0  0  0
  8  7  1  1  0  0  0
  8 10  1  0  0  0  0
 10  1  1  6  0  0  0
 10 12  1  0  0  0  0
 11 18  1  0  0  0  0
 12 14  1  0  0  0  0
 14  2  1  6  0  0  0
 14 16  1  0  0  0  0
 16  9  1  1  0  0  0
 17  9  1  6  0  0  0
 17 11  1  0  0  0  0
 17 22  1  0  0  0  0
 18 19  1  1  0  0  0
 18 20  1  0  0  0  0
 19  3  1  0  0  0  0
 20 13  1  6  0  0  0
 20 21  1  0  0  0  0
 21 15  1  1  0  0  0
 21 22  1  0  0  0  0
 22  6  1  6  0  0  0
M  END
>  <CHROM.1>
-38.29984818,103.59216706,7.03300416,24.07695047,15.96188342,30.25890733
0.70723089,0.31235614,-2.01696551

>  <Name>
2f4s_lig

>  <RI>
0

>  <Rbt.Current_Directory>
/home/itssahil/PROJECTS/Mol_Feturizer/New_Systems/rnas/2f4s

>  <Rbt.Executable>
rbdock ($Id: //depot/dev/client3/rdock/2013.1/src/exe/rbdock.cxx#4 $)

>  <Rbt.Library>
libRbt.so (2013.1, Build901 2013/11/27)

>  <Rbt.Parameter_File>
/export/apps/rDock/src/rDock_2013.1_src/data/scripts/dock_solv.prm

>  <Rbt.Receptor>
prm/blind_docking_100.prm

>  <SCORE>
-5.70819

>  <SCORE.INTER>
-15.1826

>  <SCORE.INTER.CONST>
1

>  <SCORE.INTER.POLAR>
-1.07463

>  <SCORE.INTER.ROT>
3

>  <SCORE.INTER.SOLV>
21.4374

>  <SCORE.INTER.VDW>
-19.2854

>  <SCORE.INTER.norm>
-0.690117

>  <SCORE.INTRA>
8.1621

>  <SCORE.INTRA.DIHEDRAL>
11.3859

>  <SCORE.INTRA.DIHEDRAL.0>
1.67653

>  <SCORE.INTRA.POLAR>
0

>  <SCORE.INTRA.POLAR.0>
0

>  <SCORE.INTRA.REPUL>
0

>  <SCORE.INTRA.REPUL.0>
0

>  <SCORE.INTRA.SOLV>
2.98715

>  <SCORE.INTRA.SOLV.lig_0>
-76.6701

>  <SCORE.INTRA.VDW>
0.975587

>  <SCORE.INTRA.VDW.0>
-1.53273

>  <SCORE.INTRA.norm>
0.371005

>  <SCORE.RESTR>
1.31227

>  <SCORE.RESTR.CAVITY>
1.31227

>  <SCORE.RESTR.norm>
0.0596485

>  <SCORE.SYSTEM>
0

>  <SCORE.SYSTEM.CONST>
0

>  <SCORE.SYSTEM.DIHEDRAL>
0

>  <SCORE.SYSTEM.SOLV>
0

>  <SCORE.SYSTEM.norm>
0

>  <SCORE.heavy>
22

>  <SCORE.norm>
-0.259463

>  <RMSD>
8.556

$$$$
2f4s_lig
 OpenBabel11021811433D
libRbt.so/2013.1/901 2013/11/27
 22 23  0  0  0  0  0  0  0  0999 V2000
   28.0025   13.0600   27.4975 N   0  0  0  0  0  0  0  0  0  0  0  0
   23.7358   15.6297   26.8915 N   0  0  0  0  0  0  0  0  0  0  0  0
   24.4946   17.0412   34.0939 N   0  0  0  0  0  0  0  0  0  0  0  0
   26.3685   16.0066   31.1244 O   0  0  0  0  0  0  0  0  0  0  0  0
   25.9413   15.1331   30.0393 C   0  0  2  0  0  0  0  0  0  0  0  0
   21.1096   15.2278   29.2679 N   0  0  0  0  0  0  0  0  0  0  0  0
   28.0165   13.8206   30.2197 O   0  0  0  0  0  0  0  0  0  0  0  0
   27.1806   14.5454   29.3098 C   0  0  1  0  0  0  0  0  0  0  0  0
   23.8679   16.3879   29.6717 O   0  0  0  0  0  0  0  0  0  0  0  0
   26.7683   13.6023   28.1862 C   0  0  1  0  0  0  0  0  0  0  0  0
   23.5506   16.2606   31.9582 O   0  0  0  0  0  0  0  0  0  0  0  0
   25.8648   14.3687   27.1619 C   0  0  0  0  0  0  0  0  0  0  0  0
   21.2843   19.1361   32.2431 O   0  0  0  0  0  0  0  0  0  0  0  0
   24.5983   14.9187   27.9239 C   0  0  1  0  0  0  0  0  0  0  0  0
   19.7451   17.3346   30.6634 O   0  0  0  0  0  0  0  0  0  0  0  0
   25.0332   15.9175   29.0118 C   0  0  2  0  0  0  0  0  0  0  0  0
   23.1779   15.6351   30.6535 C   0  0  1  0  0  0  0  0  0  0  0  0
   23.1710   17.6900   32.1422 C   0  0  2  0  0  0  0  0  0  0  0  0
   23.6629   18.1467   33.5190 C   0  0  0  0  0  0  0  0  0  0  0  0
   21.6636   17.7910   32.0733 C   0  0  2  0  0  0  0  0  0  0  0  0
   21.1733   17.2498   30.7314 C   0  0  1  0  0  0  0  0  0  0  0  0
   21.6171   15.7742   30.5776 C   0  0  1  0  0  0  0  0  0  0  0  0
  5  4  1  1  0  0  0
  5  8  1  0  0  0  0
  5 16  1  0  0  0  0
  8  7  1  1  0  0  0
  8 10  1  0  0  0  0
 10  1  1  6  0  0  0
 10 12  1  0  0  0  0
 11 18  1  0  0  0  0
 12 14  1  0  0  0  0
 14  2  1  6  0  0  0
 14 16  1  0  0  0  0
 16  9  1  1  0  0  0
 17  9  1  6  0  0  0
 17 11  1  0  0  0  0
 17 22  1  0  0  0  0
 18 19  1  1  0  0  0
 18 20  1  0  0  0  0
 19  3  1  0  0  0  0
 20 13  1  6  0  0  0
 20 21  1  0  0  0  0
 21 15  1  1  0  0  0
 21 22  1  0  0  0  0
 22  6  1  6  0  0  0
M  END
>  <CHROM.1>
-38.60666978,104.12133549,7.15338036,24.08310625,15.96479528,30.25972449
0.70717140,0.31497168,-2.01675892

>  <Name>
2f4s_lig

>  <RI>
0

>  <Rbt.Current_Directory>
/home/itssahil/PROJECTS/Mol_Feturizer/New_Systems/rnas/2f4s

>  <Rbt.Executable>
rbdock ($Id: //depot/dev/client3/rdock/2013.1/src/exe/rbdock.cxx#4 $)

>  <Rbt.Library>
libRbt.so (2013.1, Build901 2013/11/27)

>  <Rbt.Parameter_File>
/export/apps/rDock/src/rDock_2013.1_src/data/scripts/dock_solv.prm

>  <Rbt.Receptor>
prm/blind_docking_100.prm

>  <SCORE>
-5.6834

>  <SCORE.INTER>
-15.158

>  <SCORE.INTER.CONST>
1

>  <SCORE.INTER.POLAR>
-1.07036

>  <SCORE.INTER.ROT>
3

>  <SCORE.INTER.SOLV>
21.4422

>  <SCORE.INTER.VDW>
-19.2849

>  <SCORE.INTER.norm>
-0.688998

>  <SCORE.INTRA>
8.16954

>  <SCORE.INTRA.DIHEDRAL>
11.4002

>  <SCORE.INTRA.DIHEDRAL.0>
1.67653

>  <SCORE.INTRA.POLAR>
0

>  <SCORE.INTRA.POLAR.0>
0

>  <SCORE.INTRA.REPUL>
0

>  <SCORE.INTRA.REPUL.0>
0

>  <SCORE.INTRA.SOLV>
3.00562

>  <SCORE.INTRA.SOLV.lig_0>
-76.6701

>  <SCORE.INTRA.VDW>
0.966635

>  <SCORE.INTRA.VDW.0>
-1.53273

>  <SCORE.INTRA.norm>
0.371343

>  <SCORE.RESTR>
1.30502

>  <SCORE.RESTR.CAVITY>
1.30502

>  <SCORE.RESTR.norm>
0.0593193

>  <SCORE.SYSTEM>
0

>  <SCORE.SYSTEM.CONST>
0

>  <SCORE.SYSTEM.DIHEDRAL>
0

>  <SCORE.SYSTEM.SOLV>
0

>  <SCORE.SYSTEM.norm>
0

>  <SCORE.heavy>
22

>  <SCORE.norm>
-0.258336

>  <RMSD>
8.560

$$$$
2f4s_lig
 OpenBabel11021811433D
libRbt.so/2013.1/901 2013/11/27
 22 23  0  0  0  0  0  0  0  0999 V2000
   28.0092   13.0701   27.4952 N   0  0  0  0  0  0  0  0  0  0  0  0
   23.7282   15.6157   26.8875 N   0  0  0  0  0  0  0  0  0  0  0  0
   24.4954   17.0742   34.0642 N   0  0  0  0  0  0  0  0  0  0  0  0
   26.3555   16.0051   31.1227 O   0  0  0  0  0  0  0  0  0  0  0  0
   25.9342   15.1298   30.0367 C   0  0  2  0  0  0  0  0  0  0  0  0
   21.1128   15.1786   29.2474 N   0  0  0  0  0  0  0  0  0  0  0  0
   28.0167   13.8291   30.2179 O   0  0  0  0  0  0  0  0  0  0  0  0
   27.1774   14.5497   29.3078 C   0  0  1  0  0  0  0  0  0  0  0  0
   23.8539   16.3729   29.6683 O   0  0  0  0  0  0  0  0  0  0  0  0
   26.7713   13.6049   28.1833 C   0  0  1  0  0  0  0  0  0  0  0  0
   23.5214   16.2477   31.9528 O   0  0  0  0  0  0  0  0  0  0  0  0
   25.8642   14.3667   27.1588 C   0  0  0  0  0  0  0  0  0  0  0  0
   21.2185   19.0963   32.2135 O   0  0  0  0  0  0  0  0  0  0  0  0
   24.5941   14.9090   27.9201 C   0  0  1  0  0  0  0  0  0  0  0  0
   19.7128   17.2723   30.6272 O   0  0  0  0  0  0  0  0  0  0  0  0
   25.0224   15.9096   29.0090 C   0  0  2  0  0  0  0  0  0  0  0  0
   23.1658   15.6144   30.6470 C   0  0  1  0  0  0  0  0  0  0  0  0
   23.1232   17.6728   32.1301 C   0  0  2  0  0  0  0  0  0  0  0  0
   23.5995   18.1389   33.5093 C   0  0  0  0  0  0  0  0  0  0  0  0
   21.6152   17.7554   32.0500 C   0  0  2  0  0  0  0  0  0  0  0  0
   21.1413   17.2049   30.7060 C   0  0  1  0  0  0  0  0  0  0  0  0
   21.6041   15.7344   30.5593 C   0  0  1  0  0  0  0  0  0  0  0  0
  5  4  1  1  0  0  0
  5  8  1  0  0  0  0
  5 16  1  0  0  0  0
  8  7  1  1  0  0  0
  8 10  1  0  0  0  0
 10  1  1  6  0  0  0
 10 12  1  0  0  0  0
 11 18  1  0  0  0  0
 12 14  1  0  0  0  0
 14  2  1  6  0  0  0
 14 16  1  0  0  0  0
 16  9  1  1  0  0  0
 17  9  1  6  0  0  0
 17 11  1  0  0  0  0
 17 22  1  0  0  0  0
 18 19  1  1  0  0  0
 18 20  1  0  0  0  0
 19  3  1  0  0  0  0
 20 13  1  6  0  0  0
 20 21  1  0  0  0  0
 21 15  1  1  0  0  0
 21 22  1  0  0  0  0
 22  6  1  6  0  0  0
M  END
>  <CHROM.1>
-38.74729759,104.73867893,9.91933819,24.06502848,15.94989350,30.24837527
0.70094601,0.30754550,-2.01876627

>  <Name>
2f4s_lig

>  <RI>
0

>  <Rbt.Current_Directory>
/home/itssahil/PROJECTS/Mol_Feturizer/New_Systems/rnas/2f4s

>  <Rbt.Executable>
rbdock ($Id: //depot/dev/client3/rdock/2013.1/src/exe/rbdock.cxx#4 $)

>  <Rbt.Library>
libRbt.so (2013.1, Build901 2013/11/27)

>  <Rbt.Parameter_File>
/export/apps/rDock/src/rDock_2013.1_src/data/scripts/dock_solv.prm

>  <Rbt.Receptor>
prm/blind_docking_100.prm

>  <SCORE>
-5.73022

>  <SCORE.INTER>
-15.1596

>  <SCORE.INTER.CONST>
1

>  <SCORE.INTER.POLAR>
-1.08074

>  <SCORE.INTER.ROT>
3

>  <SCORE.INTER.SOLV>
21.4148

>  <SCORE.INTER.VDW>
-19.2422

>  <SCORE.INTER.norm>
-0.689074

>  <SCORE.INTRA>
8.0871

>  <SCORE.INTRA.DIHEDRAL>
11.2924

>  <SCORE.INTRA.DIHEDRAL.0>
1.67653

>  <SCORE.INTRA.POLAR>
0

>  <SCORE.INTRA.POLAR.0>
0

>  <SCORE.INTRA.REPUL>
0

>  <SCORE.INTRA.REPUL.0>
0

>  <SCORE.INTRA.SOLV>
3.01623

>  <SCORE.INTRA.SOLV.lig_0>
-76.6701

>  <SCORE.INTRA.VDW>
0.93279

>  <SCORE.INTRA.VDW.0>
-1.53273

>  <SCORE.INTRA.norm>
0.367595

>  <SCORE.RESTR>
1.34231

>  <SCORE.RESTR.CAVITY>
1.34231

>  <SCORE.RESTR.norm>
0.0610141

>  <SCORE.SYSTEM>
0

>  <SCORE.SYSTEM.CONST>
0

>  <SCORE.SYSTEM.DIHEDRAL>
0

>  <SCORE.SYSTEM.SOLV>
0

>  <SCORE.SYSTEM.norm>
0

>  <SCORE.heavy>
22

>  <SCORE.norm>
-0.260465

>  <RMSD>
8.561

$$$$
2f4s_lig
 OpenBabel11021811433D
libRbt.so/2013.1/901 2013/11/27
 22 23  0  0  0  0  0  0  0  0999 V2000
   27.4084   14.4305   26.7802 N   0  0  0  0  0  0  0  0  0  0  0  0
   26.1170   14.7129   31.6205 N   0  0  0  0  0  0  0  0  0  0  0  0
   20.7166   19.2345   33.7098 N   0  0  0  0  0  0  0  0  0  0  0  0
   23.1498   16.6013   28.0681 O   0  0  0  0  0  0  0  0  0  0  0  0
   24.5214   16.3608   28.4967 C   0  0  2  0  0  0  0  0  0  0  0  0
   21.6169   15.0304   29.5385 N   0  0  0  0  0  0  0  0  0  0  0  0
   25.2647   16.1644   26.1578 O   0  0  0  0  0  0  0  0  0  0  0  0
   25.2703   15.5117   27.4329 C   0  0  1  0  0  0  0  0  0  0  0  0
   23.9296   16.4392   30.8741 O   0  0  0  0  0  0  0  0  0  0  0  0
   26.7190   15.2667   27.8371 C   0  0  1  0  0  0  0  0  0  0  0  0
   22.4881   17.1659   32.5291 O   0  0  0  0  0  0  0  0  0  0  0  0
   26.7618   14.5377   29.2226 C   0  0  0  0  0  0  0  0  0  0  0  0
   20.8318   19.7763   30.5472 O   0  0  0  0  0  0  0  0  0  0  0  0
   26.0288   15.4411   30.2874 C   0  0  1  0  0  0  0  0  0  0  0  0
   20.0570   17.4120   29.1615 O   0  0  0  0  0  0  0  0  0  0  0  0
   24.5517   15.6232   29.8934 C   0  0  2  0  0  0  0  0  0  0  0  0
   22.7381   16.0696   31.5452 C   0  0  1  0  0  0  0  0  0  0  0  0
   22.2794   18.5296   31.9654 C   0  0  2  0  0  0  0  0  0  0  0  0
   22.0700   19.5053   33.1275 C   0  0  0  0  0  0  0  0  0  0  0  0
   21.0454   18.4957   31.0916 C   0  0  2  0  0  0  0  0  0  0  0  0
   21.2262   17.4553   29.9877 C   0  0  1  0  0  0  0  0  0  0  0  0
   21.4678   16.0646   30.6246 C   0  0  1  0  0  0  0  0  0  0  0  0
  5  4  1  6  0  0  0
  5  8  1  0  0  0  0
  5 16  1  0  0  0  0
  8  7  1  6  0  0  0
  8 10  1  0  0  0  0
 10  1  1  6  0  0  0
 10 12  1  0  0  0  0
 11 18  1  0  0  0  0
 12 14  1  0  0  0  0
 14  2  1  1  0  0  0
 14 16  1  0  0  0  0
 16  9  1  1  0  0  0
 17  9  1  6  0  0  0
 17 11  1  0  0  0  0
 17 22  1  0  0  0  0
 18 19  1  1  0  0  0
 18 20  1  0  0  0  0
 19  3  1  0  0  0  0
 20 13  1  6  0  0  0
 20 21  1  0  0  0  0
 21 15  1  6  0  0  0
 21 22  1  0  0  0  0
 22  6  1  6  0  0  0
M  END
>  <CHROM.1>
115.67127202,176.88662440,-71.87001584,23.43009657,16.65762014,30.00822786
0.64586126,0.50554779,-1.72202402

>  <Name>
2f4s_lig

>  <RI>
0

>  <Rbt.Current_Directory>
/home/itssahil/PROJECTS/Mol_Feturizer/New_Systems/rnas/2f4s

>  <Rbt.Executable>
rbdock ($Id: //depot/dev/client3/rdock/2013.1/src/exe/rbdock.cxx#4 $)

>  <Rbt.Library>
libRbt.so (2013.1, Build901 2013/11/27)

>  <Rbt.Parameter_File>
/export/apps/rDock/src/rDock_2013.1_src/data/scripts/dock_solv.prm

>  <Rbt.Receptor>
prm/blind_docking_100.prm

>  <SCORE>
3.50891

>  <SCORE.INTER>
-3.905

>  <SCORE.INTER.CONST>
1

>  <SCORE.INTER.POLAR>
-0.391383

>  <SCORE.INTER.ROT>
3

>  <SCORE.INTER.SOLV>
22.2936

>  <SCORE.INTER.VDW>
-14.3299

>  <SCORE.INTER.norm>
-0.1775

>  <SCORE.INTRA>
5.59765

>  <SCORE.INTRA.DIHEDRAL>
6.0574

>  <SCORE.INTRA.DIHEDRAL.0>
1.67653

>  <SCORE.INTRA.POLAR>
0

>  <SCORE.INTRA.POLAR.0>
0

>  <SCORE.INTRA.REPUL>
0

>  <SCORE.INTRA.REPUL.0>
0

>  <SCORE.INTRA.SOLV>
4.87874

>  <SCORE.INTRA.SOLV.lig_0>
-76.6701

>  <SCORE.INTRA.VDW>
0.12958

>  <SCORE.INTRA.VDW.0>
-1.53273

>  <SCORE.INTRA.norm>
0.254439

>  <SCORE.RESTR>
1.81626

>  <SCORE.RESTR.CAVITY>
1.81626

>  <SCORE.RESTR.norm>
0.0825572

>  <SCORE.SYSTEM>
0

>  <SCORE.SYSTEM.CONST>
0

>  <SCORE.SYSTEM.DIHEDRAL>
0

>  <SCORE.SYSTEM.SOLV>
0

>  <SCORE.SYSTEM.norm>
0

>  <SCORE.heavy>
22

>  <SCORE.norm>
0.159496

>  <RMSD>
8.601

$$$$
2f4s_lig
 OpenBabel11021811433D
libRbt.so/2013.1/901 2013/11/27
 22 23  0  0  0  0  0  0  0  0999 V2000
   28.0263   13.0400   27.5064 N   0  0  0  0  0  0  0  0  0  0  0  0
   23.7607   15.5999   26.8522 N   0  0  0  0  0  0  0  0  0  0  0  0
   24.1290   17.1223   34.1424 N   0  0  0  0  0  0  0  0  0  0  0  0
   26.3613   16.0076   31.1021 O   0  0  0  0  0  0  0  0  0  0  0  0
   25.9434   15.1265   30.0195 C   0  0  2  0  0  0  0  0  0  0  0  0
   21.1683   15.1017   29.1945 N   0  0  0  0  0  0  0  0  0  0  0  0
   28.0189   13.8181   30.2237 O   0  0  0  0  0  0  0  0  0  0  0  0
   27.1889   14.5359   29.3030 C   0  0  1  0  0  0  0  0  0  0  0  0
   23.8711   16.3760   29.6284 O   0  0  0  0  0  0  0  0  0  0  0  0
   26.7862   13.5850   28.1824 C   0  0  1  0  0  0  0  0  0  0  0  0
   23.4954   16.3183   31.9089 O   0  0  0  0  0  0  0  0  0  0  0  0
   25.8893   14.3436   27.1465 C   0  0  0  0  0  0  0  0  0  0  0  0
   21.1206   19.1167   32.0291 O   0  0  0  0  0  0  0  0  0  0  0  0
   24.6165   14.8967   27.8955 C   0  0  1  0  0  0  0  0  0  0  0  0
   19.6912   17.2050   30.4759 O   0  0  0  0  0  0  0  0  0  0  0  0
   25.0419   15.9031   28.9802 C   0  0  2  0  0  0  0  0  0  0  0  0
   23.1816   15.6337   30.6184 C   0  0  1  0  0  0  0  0  0  0  0  0
   23.0599   17.7383   32.0306 C   0  0  2  0  0  0  0  0  0  0  0  0
   23.4969   18.2613   33.4024 C   0  0  0  0  0  0  0  0  0  0  0  0
   21.5524   17.7813   31.9184 C   0  0  2  0  0  0  0  0  0  0  0  0
   21.1191   17.1752   30.5846 C   0  0  1  0  0  0  0  0  0  0  0  0
   21.6196   15.7125   30.4963 C   0  0  1  0  0  0  0  0  0  0  0  0
  5  4  1  1  0  0  0
  5  8  1  0  0  0  0
  5 16  1  0  0  0  0
  8  7  1  1  0  0  0
  8 10  1  0  0  0  0
 10  1  1  6  0  0  0
 10 12  1  0  0  0  0
 11 18  1  0  0  0  0
 12 14  1  0  0  0  0
 14  2  1  6  0  0  0
 14 16  1  0  0  0  0
 16  9  1  1  0  0  0
 17  9  1  6  0  0  0
 17 11  1  0  0  0  0
 17 22  1  0  0  0  0
 18 19  1  1  0  0  0
 18 20  1  0  0  0  0
 19  3  1  0  0  0  0
 20 13  1  6  0  0  0
 20 21  1  0  0  0  0
 21 15  1  1  0  0  0
 21 22  1  0  0  0  0
 22  6  1  6  0  0  0
M  END
>  <CHROM.1>
-38.02521410,106.61273101,-3.29025326,24.04188369,15.95209107,30.19879883
0.69136961,0.31248869,-2.02295648

>  <Name>
2f4s_lig

>  <RI>
0

>  <Rbt.Current_Directory>
/home/itssahil/PROJECTS/Mol_Feturizer/New_Systems/rnas/2f4s

>  <Rbt.Executable>
rbdock ($Id: //depot/dev/client3/rdock/2013.1/src/exe/rbdock.cxx#4 $)

>  <Rbt.Library>
libRbt.so (2013.1, Build901 2013/11/27)

>  <Rbt.Parameter_File>
/export/apps/rDock/src/rDock_2013.1_src/data/scripts/dock_solv.prm

>  <Rbt.Receptor>
prm/blind_docking_100.prm

>  <SCORE>
-5.46913

>  <SCORE.INTER>
-15.295

>  <SCORE.INTER.CONST>
1

>  <SCORE.INTER.POLAR>
-1.07103

>  <SCORE.INTER.ROT>
3

>  <SCORE.INTER.SOLV>
20.9843

>  <SCORE.INTER.VDW>
-19.2213

>  <SCORE.INTER.norm>
-0.695226

>  <SCORE.INTRA>
8.50715

>  <SCORE.INTRA.DIHEDRAL>
11.9633

>  <SCORE.INTRA.DIHEDRAL.0>
1.67653

>  <SCORE.INTRA.POLAR>
0

>  <SCORE.INTRA.POLAR.0>
0

>  <SCORE.INTRA.REPUL>
0

>  <SCORE.INTRA.REPUL.0>
0

>  <SCORE.INTRA.SOLV>
3.00301

>  <SCORE.INTRA.SOLV.lig_0>
-76.6701

>  <SCORE.INTRA.VDW>
1.02399

>  <SCORE.INTRA.VDW.0>
-1.53273

>  <SCORE.INTRA.norm>
0.386689

>  <SCORE.RESTR>
1.31869

>  <SCORE.RESTR.CAVITY>
1.31869

>  <SCORE.RESTR.norm>
0.0599403

>  <SCORE.SYSTEM>
0

>  <SCORE.SYSTEM.CONST>
0

>  <SCORE.SYSTEM.DIHEDRAL>
0

>  <SCORE.SYSTEM.SOLV>
0

>  <SCORE.SYSTEM.norm>
0

>  <SCORE.heavy>
22

>  <SCORE.norm>
-0.248597

>  <RMSD>
8.614

$$$$
2f4s_lig
 OpenBabel11021811433D
libRbt.so/2013.1/901 2013/11/27
 22 23  0  0  0  0  0  0  0  0999 V2000
   28.0634   13.0708   27.4942 N   0  0  0  0  0  0  0  0  0  0  0  0
   23.7987   15.6329   26.8436 N   0  0  0  0  0  0  0  0  0  0  0  0
   23.0115   17.3639   34.4259 N   0  0  0  0  0  0  0  0  0  0  0  0
   26.3806   16.0061   31.1080 O   0  0  0  0  0  0  0  0  0  0  0  0
   25.9681   15.1341   30.0161 C   0  0  2  0  0  0  0  0  0  0  0  0
   21.2095   15.0702   29.2169 N   0  0  0  0  0  0  0  0  0  0  0  0
   28.0437   13.8255   30.2180 O   0  0  0  0  0  0  0  0  0  0  0  0
   27.2171   14.5506   29.2999 C   0  0  1  0  0  0  0  0  0  0  0  0
   23.8965   16.3853   29.6268 O   0  0  0  0  0  0  0  0  0  0  0  0
   26.8200   13.6090   28.1695 C   0  0  1  0  0  0  0  0  0  0  0  0
   23.5281   16.3511   31.9089 O   0  0  0  0  0  0  0  0  0  0  0  0
   25.9270   14.3758   27.1363 C   0  0  0  0  0  0  0  0  0  0  0  0
   21.1169   19.1194   32.0014 O   0  0  0  0  0  0  0  0  0  0  0  0
   24.6505   14.9215   27.8845 C   0  0  1  0  0  0  0  0  0  0  0  0
   19.7084   17.1698   30.4764 O   0  0  0  0  0  0  0  0  0  0  0  0
   25.0704   15.9188   28.9796 C   0  0  2  0  0  0  0  0  0  0  0  0
   23.2196   15.6464   30.6281 C   0  0  1  0  0  0  0  0  0  0  0  0
   23.0742   17.7667   32.0142 C   0  0  2  0  0  0  0  0  0  0  0  0
   23.5081   18.3125   33.3781 C   0  0  0  0  0  0  0  0  0  0  0  0
   21.5659   17.7885   31.9060 C   0  0  2  0  0  0  0  0  0  0  0  0
   21.1368   17.1602   30.5813 C   0  0  1  0  0  0  0  0  0  0  0  0
   21.6563   15.7031   30.5097 C   0  0  1  0  0  0  0  0  0  0  0  0
  5  4  1  1  0  0  0
  5  8  1  0  0  0  0
  5 16  1  0  0  0  0
  8  7  1  1  0  0  0
  8 10  1  0  0  0  0
 10  1  1  6  0  0  0
 10 12  1  0  0  0  0
 11 18  1  0  0  0  0
 12 14  1  0  0  0  0
 14  2  1  6  0  0  0
 14 16  1  0  0  0  0
 16  9  1  1  0  0  0
 17  9  1  6  0  0  0
 17 11  1  0  0  0  0
 17 22  1  0  0  0  0
 18 19  1  1  0  0  0
 18 20  1  0  0  0  0
 19  3  1  0  0  0  0
 20 13  1  6  0  0  0
 20 21  1  0  0  0  0
 21 15  1  1  0  0  0
 21 22  1  0  0  0  0
 22  6  1  6  0  0  0
M  END
>  <CHROM.1>
-36.62134139,106.70994311,-52.81269884,24.01615652,15.97366784,30.20697753
0.70124995,0.30901342,-2.00926437

>  <Name>
2f4s_lig

>  <RI>
0

>  <Rbt.Current_Directory>
/home/itssahil/PROJECTS/Mol_Feturizer/New_Systems/rnas/2f4s

>  <Rbt.Executable>
rbdock ($Id: //depot/dev/client3/rdock/2013.1/src/exe/rbdock.cxx#4 $)

>  <Rbt.Library>
libRbt.so (2013.1, Build901 2013/11/27)

>  <Rbt.Parameter_File>
/export/apps/rDock/src/rDock_2013.1_src/data/scripts/dock_solv.prm

>  <Rbt.Receptor>
prm/blind_docking_100.prm

>  <SCORE>
-8.72631

>  <SCORE.INTER>
-16.1962

>  <SCORE.INTER.CONST>
1

>  <SCORE.INTER.POLAR>
-1.06294

>  <SCORE.INTER.ROT>
3

>  <SCORE.INTER.SOLV>
19.2616

>  <SCORE.INTER.VDW>
-19.2749

>  <SCORE.INTER.norm>
-0.73619

>  <SCORE.INTRA>
5.82858

>  <SCORE.INTRA.DIHEDRAL>
7.18152

>  <SCORE.INTRA.DIHEDRAL.0>
1.67653

>  <SCORE.INTRA.POLAR>
0

>  <SCORE.INTRA.POLAR.0>
0

>  <SCORE.INTRA.REPUL>
0

>  <SCORE.INTRA.REPUL.0>
0

>  <SCORE.INTRA.SOLV>
3.47404

>  <SCORE.INTRA.SOLV.lig_0>
-76.6701

>  <SCORE.INTRA.VDW>
0.500795

>  <SCORE.INTRA.VDW.0>
-1.53273

>  <SCORE.INTRA.norm>
0.264935

>  <SCORE.RESTR>
1.6413

>  <SCORE.RESTR.CAVITY>
1.6413

>  <SCORE.RESTR.norm>
0.0746047

>  <SCORE.SYSTEM>
0

>  <SCORE.SYSTEM.CONST>
0

>  <SCORE.SYSTEM.DIHEDRAL>
0

>  <SCORE.SYSTEM.SOLV>
0

>  <SCORE.SYSTEM.norm>
0

>  <SCORE.heavy>
22

>  <SCORE.norm>
-0.39665

>  <RMSD>
8.623

$$$$
2f4s_lig
 OpenBabel11021811433D
libRbt.so/2013.1/901 2013/11/27
 22 23  0  0  0  0  0  0  0  0999 V2000
   28.0358   13.0570   27.5010 N   0  0  0  0  0  0  0  0  0  0  0  0
   23.7731   15.6200   26.8403 N   0  0  0  0  0  0  0  0  0  0  0  0
   23.0091   17.3816   34.4181 N   0  0  0  0  0  0  0  0  0  0  0  0
   26.3564   16.0094   31.1024 O   0  0  0  0  0  0  0  0  0  0  0  0
   25.9429   15.1330   30.0144 C   0  0  2  0  0  0  0  0  0  0  0  0
   21.1798   15.0765   29.2238 N   0  0  0  0  0  0  0  0  0  0  0  0
   28.0175   13.8235   30.2215 O   0  0  0  0  0  0  0  0  0  0  0  0
   27.1913   14.5453   29.3004 C   0  0  1  0  0  0  0  0  0  0  0  0
   23.8723   16.3843   29.6202 O   0  0  0  0  0  0  0  0  0  0  0  0
   26.7931   13.5992   28.1742 C   0  0  1  0  0  0  0  0  0  0  0  0
   23.5111   16.3598   31.9036 O   0  0  0  0  0  0  0  0  0  0  0  0
   25.9005   14.3622   27.1379 C   0  0  0  0  0  0  0  0  0  0  0  0
   21.1092   19.1362   31.9934 O   0  0  0  0  0  0  0  0  0  0  0  0
   24.6246   14.9123   27.8841 C   0  0  1  0  0  0  0  0  0  0  0  0
   19.6895   17.1855   30.4803 O   0  0  0  0  0  0  0  0  0  0  0  0
   25.0457   15.9140   28.9747 C   0  0  2  0  0  0  0  0  0  0  0  0
   23.1963   15.6513   30.6263 C   0  0  1  0  0  0  0  0  0  0  0  0
   23.0622   17.7772   32.0051 C   0  0  2  0  0  0  0  0  0  0  0  0
   23.5022   18.3266   33.3655 C   0  0  0  0  0  0  0  0  0  0  0  0
   21.5536   17.8035   31.9016 C   0  0  2  0  0  0  0  0  0  0  0  0
   21.1183   17.1717   30.5806 C   0  0  1  0  0  0  0  0  0  0  0  0
   21.6328   15.7127   30.5127 C   0  0  1  0  0  0  0  0  0  0  0  0
  5  4  1  1  0  0  0
  5  8  1  0  0  0  0
  5 16  1  0  0  0  0
  8  7  1  1  0  0  0
  8 10  1  0  0  0  0
 10  1  1  6  0  0  0
 10 12  1  0  0  0  0
 11 18  1  0  0  0  0
 12 14  1  0  0  0  0
 14  2  1  6  0  0  0
 14 16  1  0  0  0  0
 16  9  1  1  0  0  0
 17  9  1  6  0  0  0
 17 11  1  0  0  0  0
 17 22  1  0  0  0  0
 18 19  1  1  0  0  0
 18 20  1  0  0  0  0
 19  3  1  0  0  0  0
 20 13  1  6  0  0  0
 20 21  1  0  0  0  0
 21 15  1  1  0  0  0
 21 22  1  0  0  0  0
 22  6  1  6  0  0  0
M  END
>  <CHROM.1>
-36.51535598,106.45115910,-52.66141809,23.99559679,15.97659969,30.20502370
0.70343279,0.31000669,-2.01400433

>  <Name>
2f4s_lig

>  <RI>
0

>  <Rbt.Current_Directory>
/home/itssahil/PROJECTS/Mol_Feturizer/New_Systems/rnas/2f4s

>  <Rbt.Executable>
rbdock ($Id: //depot/dev/client3/rdock/2013.1/src/exe/rbdock.cxx#4 $)

>  <Rbt.Library>
libRbt.so (2013.1, Build901 2013/11/27)

>  <Rbt.Parameter_File>
/export/apps/rDock/src/rDock_2013.1_src/data/scripts/dock_solv.prm

>  <Rbt.Receptor>
prm/blind_docking_100.prm

>  <SCORE>
-8.61677

>  <SCORE.INTER>
-16.0492

>  <SCORE.INTER.CONST>
1

>  <SCORE.INTER.POLAR>
-1.06649

>  <SCORE.INTER.ROT>
3

>  <SCORE.INTER.SOLV>
19.2863

>  <SCORE.INTER.VDW>
-19.1732

>  <SCORE.INTER.norm>
-0.72951

>  <SCORE.INTRA>
5.82134

>  <SCORE.INTRA.DIHEDRAL>
7.17749

>  <SCORE.INTRA.DIHEDRAL.0>
1.67653

>  <SCORE.INTRA.POLAR>
0

>  <SCORE.INTRA.POLAR.0>
0

>  <SCORE.INTRA.REPUL>
0

>  <SCORE.INTRA.REPUL.0>
0

>  <SCORE.INTRA.SOLV>
3.45755

>  <SCORE.INTRA.SOLV.lig_0>
-76.6701

>  <SCORE.INTRA.VDW>
0.503816

>  <SCORE.INTRA.VDW.0>
-1.53273

>  <SCORE.INTRA.norm>
0.264606

>  <SCORE.RESTR>
1.6111

>  <SCORE.RESTR.CAVITY>
1.6111

>  <SCORE.RESTR.norm>
0.0732319

>  <SCORE.SYSTEM>
0

>  <SCORE.SYSTEM.CONST>
0

>  <SCORE.SYSTEM.DIHEDRAL>
0

>  <SCORE.SYSTEM.SOLV>
0

>  <SCORE.SYSTEM.norm>
0

>  <SCORE.heavy>
22

>  <SCORE.norm>
-0.391672

>  <RMSD>
8.623

$$$$
2f4s_lig
 OpenBabel11021811433D
libRbt.so/2013.1/901 2013/11/27
 22 23  0  0  0  0  0  0  0  0999 V2000
   28.0363   13.0414   27.5070 N   0  0  0  0  0  0  0  0  0  0  0  0
   23.7668   15.5903   26.8362 N   0  0  0  0  0  0  0  0  0  0  0  0
   23.0130   17.3610   34.4121 N   0  0  0  0  0  0  0  0  0  0  0  0
   26.3514   16.0071   31.0949 O   0  0  0  0  0  0  0  0  0  0  0  0
   25.9395   15.1244   30.0114 C   0  0  2  0  0  0  0  0  0  0  0  0
   21.1692   15.0681   29.2175 N   0  0  0  0  0  0  0  0  0  0  0  0
   28.0175   13.8212   30.2237 O   0  0  0  0  0  0  0  0  0  0  0  0
   27.1890   14.5364   29.2996 C   0  0  1  0  0  0  0  0  0  0  0  0
   23.8655   16.3685   29.6123 O   0  0  0  0  0  0  0  0  0  0  0  0
   26.7926   13.5838   28.1783 C   0  0  1  0  0  0  0  0  0  0  0  0
   23.5068   16.3424   31.8961 O   0  0  0  0  0  0  0  0  0  0  0  0
   25.8975   14.3395   27.1388 C   0  0  0  0  0  0  0  0  0  0  0  0
   21.1123   19.1249   31.9916 O   0  0  0  0  0  0  0  0  0  0  0  0
   24.6207   14.8899   27.8829 C   0  0  1  0  0  0  0  0  0  0  0  0
   19.6858   17.1796   30.4779 O   0  0  0  0  0  0  0  0  0  0  0  0
   25.0398   15.8980   28.9684 C   0  0  2  0  0  0  0  0  0  0  0  0
   23.1888   15.6361   30.6184 C   0  0  1  0  0  0  0  0  0  0  0  0
   23.0617   17.7609   31.9996 C   0  0  2  0  0  0  0  0  0  0  0  0
   23.5047   18.3076   33.3601 C   0  0  0  0  0  0  0  0  0  0  0  0
   21.5531   17.7912   31.8978 C   0  0  2  0  0  0  0  0  0  0  0  0
   21.1146   17.1619   30.5766 C   0  0  1  0  0  0  0  0  0  0  0  0
   21.6253   15.7017   30.5066 C   0  0  1  0  0  0  0  0  0  0  0  0
  5  4  1  1  0  0  0
  5  8  1  0  0  0  0
  5 16  1  0  0  0  0
  8  7  1  1  0  0  0
  8 10  1  0  0  0  0
 10  1  1  6  0  0  0
 10 12  1  0  0  0  0
 11 18  1  0  0  0  0
 12 14  1  0  0  0  0
 14  2  1  6  0  0  0
 14 16  1  0  0  0  0
 16  9  1  1  0  0  0
 17  9  1  6  0  0  0
 17 11  1  0  0  0  0
 17 22  1  0  0  0  0
 18 19  1  1  0  0  0
 18 20  1  0  0  0  0
 19  3  1  0  0  0  0
 20 13  1  6  0  0  0
 20 21  1  0  0  0  0
 21 15  1  1  0  0  0
 21 22  1  0  0  0  0
 22  6  1  6  0  0  0
M  END
>  <CHROM.1>
-36.79048434,106.21180255,-52.53319322,23.99266210,15.96282030,30.20163630
0.70296029,0.30922684,-2.01556187

>  <Name>
2f4s_lig

>  <RI>
0

>  <Rbt.Current_Directory>
/home/itssahil/PROJECTS/Mol_Feturizer/New_Systems/rnas/2f4s

>  <Rbt.Executable>
rbdock ($Id: //depot/dev/client3/rdock/2013.1/src/exe/rbdock.cxx#4 $)

>  <Rbt.Library>
libRbt.so (2013.1, Build901 2013/11/27)

>  <Rbt.Parameter_File>
/export/apps/rDock/src/rDock_2013.1_src/data/scripts/dock_solv.prm

>  <Rbt.Receptor>
prm/blind_docking_100.prm

>  <SCORE>
-8.51778

>  <SCORE.INTER>
-15.8806

>  <SCORE.INTER.CONST>
1

>  <SCORE.INTER.POLAR>
-1.07122

>  <SCORE.INTER.ROT>
3

>  <SCORE.INTER.SOLV>
19.2678

>  <SCORE.INTER.VDW>
-19.0389

>  <SCORE.INTER.norm>
-0.721844

>  <SCORE.INTRA>
5.77773

>  <SCORE.INTRA.DIHEDRAL>
7.10732

>  <SCORE.INTRA.DIHEDRAL.0>
1.67653

>  <SCORE.INTRA.POLAR>
0

>  <SCORE.INTRA.POLAR.0>
0

>  <SCORE.INTRA.REPUL>
0

>  <SCORE.INTRA.REPUL.0>
0

>  <SCORE.INTRA.SOLV>
3.45911

>  <SCORE.INTRA.SOLV.lig_0>
-76.6701

>  <SCORE.INTRA.VDW>
0.494511

>  <SCORE.INTRA.VDW.0>
-1.53273

>  <SCORE.INTRA.norm>
0.262624

>  <SCORE.RESTR>
1.58506

>  <SCORE.RESTR.CAVITY>
1.58506

>  <SCORE.RESTR.norm>
0.0720484

>  <SCORE.SYSTEM>
0

>  <SCORE.SYSTEM.CONST>
0

>  <SCORE.SYSTEM.DIHEDRAL>
0

>  <SCORE.SYSTEM.SOLV>
0

>  <SCORE.SYSTEM.norm>
0

>  <SCORE.heavy>
22

>  <SCORE.norm>
-0.387172

>  <RMSD>
8.623

$$$$
2f4s_lig
 OpenBabel11021811433D
libRbt.so/2013.1/901 2013/11/27
 22 23  0  0  0  0  0  0  0  0999 V2000
   28.0359   13.0213   27.5040 N   0  0  0  0  0  0  0  0  0  0  0  0
   23.7914   15.6214   26.8719 N   0  0  0  0  0  0  0  0  0  0  0  0
   23.0022   17.3729   34.4359 N   0  0  0  0  0  0  0  0  0  0  0  0
   26.4134   15.9979   31.1115 O   0  0  0  0  0  0  0  0  0  0  0  0
   25.9829   15.1226   30.0292 C   0  0  2  0  0  0  0  0  0  0  0  0
   21.2347   15.0829   29.2136 N   0  0  0  0  0  0  0  0  0  0  0  0
   28.0471   13.7948   30.2226 O   0  0  0  0  0  0  0  0  0  0  0  0
   27.2199   14.5217   29.3065 C   0  0  1  0  0  0  0  0  0  0  0  0
   23.9206   16.3918   29.6489 O   0  0  0  0  0  0  0  0  0  0  0  0
   26.8038   13.5765   28.1861 C   0  0  1  0  0  0  0  0  0  0  0  0
   23.5285   16.3626   31.9272 O   0  0  0  0  0  0  0  0  0  0  0  0
   25.9096   14.3450   27.1552 C   0  0  0  0  0  0  0  0  0  0  0  0
   21.1236   19.1372   31.9897 O   0  0  0  0  0  0  0  0  0  0  0  0
   24.6451   14.9086   27.9105 C   0  0  1  0  0  0  0  0  0  0  0  0
   19.7260   17.1885   30.4537 O   0  0  0  0  0  0  0  0  0  0  0  0
   25.0843   15.9091   28.9950 C   0  0  2  0  0  0  0  0  0  0  0  0
   23.2316   15.6564   30.6444 C   0  0  1  0  0  0  0  0  0  0  0  0
   23.0772   17.7796   32.0253 C   0  0  2  0  0  0  0  0  0  0  0  0
   23.4984   18.3267   33.3926 C   0  0  0  0  0  0  0  0  0  0  0  0
   21.5702   17.8050   31.9014 C   0  0  2  0  0  0  0  0  0  0  0  0
   21.1532   17.1754   30.5734 C   0  0  1  0  0  0  0  0  0  0  0  0
   21.6697   15.7169   30.5097 C   0  0  1  0  0  0  0  0  0  0  0  0
  5  4  1  1  0  0  0
  5  8  1  0  0  0  0
  5 16  1  0  0  0  0
  8  7  1  1  0  0  0
  8 10  1  0  0  0  0
 10  1  1  6  0  0  0
 10 12  1  0  0  0  0
 11 18  1  0  0  0  0
 12 14  1  0  0  0  0
 14  2  1  6  0  0  0
 14 16  1  0  0  0  0
 16  9  1  1  0  0  0
 17  9  1  6  0  0  0
 17 11  1  0  0  0  0
 17 22  1  0  0  0  0
 18 19  1  1  0  0  0
 18 20  1  0  0  0  0
 19  3  1  0  0  0  0
 20 13  1  6  0  0  0
 20 21  1  0  0  0  0
 21 15  1  1  0  0  0
 21 22  1  0  0  0  0
 22  6  1  6  0  0  0
M  END
>  <CHROM.1>
-37.76520521,108.05690617,-52.16681934,24.02093756,15.97080977,30.21511304
0.70321203,0.31557141,-2.01329194

>  <Name>
2f4s_lig

>  <RI>
0

>  <Rbt.Current_Directory>
/home/itssahil/PROJECTS/Mol_Feturizer/New_Systems/rnas/2f4s

>  <Rbt.Executable>
rbdock ($Id: //depot/dev/client3/rdock/2013.1/src/exe/rbdock.cxx#4 $)

>  <Rbt.Library>
libRbt.so (2013.1, Build901 2013/11/27)

>  <Rbt.Parameter_File>
/export/apps/rDock/src/rDock_2013.1_src/data/scripts/dock_solv.prm

>  <Rbt.Receptor>
prm/blind_docking_100.prm

>  <SCORE>
-8.60977

>  <SCORE.INTER>
-16.0185

>  <SCORE.INTER.CONST>
1

>  <SCORE.INTER.POLAR>
-1.04114

>  <SCORE.INTER.ROT>
3

>  <SCORE.INTER.SOLV>
19.3491

>  <SCORE.INTER.VDW>
-19.2582

>  <SCORE.INTER.norm>
-0.728114

>  <SCORE.INTRA>
5.8141

>  <SCORE.INTRA.DIHEDRAL>
7.16802

>  <SCORE.INTRA.DIHEDRAL.0>
1.67653

>  <SCORE.INTRA.POLAR>
0

>  <SCORE.INTRA.POLAR.0>
0

>  <SCORE.INTRA.REPUL>
0

>  <SCORE.INTRA.REPUL.0>
0

>  <SCORE.INTRA.SOLV>
3.56744

>  <SCORE.INTRA.SOLV.lig_0>
-76.6701

>  <SCORE.INTRA.VDW>
0.446374

>  <SCORE.INTRA.VDW.0>
-1.53273

>  <SCORE.INTRA.norm>
0.264277

>  <SCORE.RESTR>
1.59463

>  <SCORE.RESTR.CAVITY>
1.59463

>  <SCORE.RESTR.norm>
0.0724834

>  <SCORE.SYSTEM>
0

>  <SCORE.SYSTEM.CONST>
0

>  <SCORE.SYSTEM.DIHEDRAL>
0

>  <SCORE.SYSTEM.SOLV>
0

>  <SCORE.SYSTEM.norm>
0

>  <SCORE.heavy>
22

>  <SCORE.norm>
-0.391353

>  <RMSD>
8.624

$$$$
2f4s_lig
 OpenBabel11021811433D
libRbt.so/2013.1/901 2013/11/27
 22 23  0  0  0  0  0  0  0  0999 V2000
   28.0441   13.0333   27.5067 N   0  0  0  0  0  0  0  0  0  0  0  0
   23.7912   15.6126   26.8463 N   0  0  0  0  0  0  0  0  0  0  0  0
   23.0069   17.3676   34.4150 N   0  0  0  0  0  0  0  0  0  0  0  0
   26.3868   16.0075   31.1004 O   0  0  0  0  0  0  0  0  0  0  0  0
   25.9667   15.1286   30.0170 C   0  0  2  0  0  0  0  0  0  0  0  0
   21.2082   15.0886   29.1985 N   0  0  0  0  0  0  0  0  0  0  0  0
   28.0359   13.8108   30.2242 O   0  0  0  0  0  0  0  0  0  0  0  0
   27.2107   14.5325   29.3023 C   0  0  1  0  0  0  0  0  0  0  0  0
   23.9007   16.3876   29.6229 O   0  0  0  0  0  0  0  0  0  0  0  0
   26.8055   13.5837   28.1809 C   0  0  1  0  0  0  0  0  0  0  0  0
   23.5189   16.3576   31.9029 O   0  0  0  0  0  0  0  0  0  0  0  0
   25.9137   14.3466   27.1437 C   0  0  0  0  0  0  0  0  0  0  0  0
   21.1241   19.1405   31.9791 O   0  0  0  0  0  0  0  0  0  0  0  0
   24.6422   14.9053   27.8908 C   0  0  1  0  0  0  0  0  0  0  0  0
   19.7126   17.1982   30.4476 O   0  0  0  0  0  0  0  0  0  0  0  0
   25.0704   15.9095   28.9764 C   0  0  2  0  0  0  0  0  0  0  0  0
   23.2136   15.6536   30.6208 C   0  0  1  0  0  0  0  0  0  0  0  0
   23.0731   17.7760   32.0044 C   0  0  2  0  0  0  0  0  0  0  0  0
   23.5024   18.3202   33.3703 C   0  0  0  0  0  0  0  0  0  0  0  0
   21.5656   17.8068   31.8874 C   0  0  2  0  0  0  0  0  0  0  0  0
   21.1404   17.1800   30.5607 C   0  0  1  0  0  0  0  0  0  0  0  0
   21.6514   15.7198   30.4933 C   0  0  1  0  0  0  0  0  0  0  0  0
  5  4  1  1  0  0  0
  5  8  1  0  0  0  0
  5 16  1  0  0  0  0
  8  7  1  1  0  0  0
  8 10  1  0  0  0  0
 10  1  1  6  0  0  0
 10 12  1  0  0  0  0
 11 18  1  0  0  0  0
 12 14  1  0  0  0  0
 14  2  1  6  0  0  0
 14 16  1  0  0  0  0
 16  9  1  1  0  0  0
 17  9  1  6  0  0  0
 17 11  1  0  0  0  0
 17 22  1  0  0  0  0
 18 19  1  1  0  0  0
 18 20  1  0  0  0  0
 19  3  1  0  0  0  0
 20 13  1  6  0  0  0
 20 21  1  0  0  0  0
 21 15  1  1  0  0  0
 21 22  1  0  0  0  0
 22  6  1  6  0  0  0
M  END
>  <CHROM.1>
-37.40045085,107.15138407,-52.20122376,24.01242970,15.97328468,30.20080216
0.70121891,0.31474358,-2.01320122

>  <Name>
2f4s_lig

>  <RI>
0

>  <Rbt.Current_Directory>
/home/itssahil/PROJECTS/Mol_Feturizer/New_Systems/rnas/2f4s

>  <Rbt.Executable>
rbdock ($Id: //depot/dev/client3/rdock/2013.1/src/exe/rbdock.cxx#4 $)

>  <Rbt.Library>
libRbt.so (2013.1, Build901 2013/11/27)

>  <Rbt.Parameter_File>
/export/apps/rDock/src/rDock_2013.1_src/data/scripts/dock_solv.prm

>  <Rbt.Receptor>
prm/blind_docking_100.prm

>  <SCORE>
-8.38493

>  <SCORE.INTER>
-15.7437

>  <SCORE.INTER.CONST>
1

>  <SCORE.INTER.POLAR>
-1.05844

>  <SCORE.INTER.ROT>
3

>  <SCORE.INTER.SOLV>
19.3261

>  <SCORE.INTER.VDW>
-19.0097

>  <SCORE.INTER.norm>
-0.715621

>  <SCORE.INTRA>
5.79768

>  <SCORE.INTRA.DIHEDRAL>
7.12916

>  <SCORE.INTRA.DIHEDRAL.0>
1.67653

>  <SCORE.INTRA.POLAR>
0

>  <SCORE.INTRA.POLAR.0>
0

>  <SCORE.INTRA.REPUL>
0

>  <SCORE.INTRA.REPUL.0>
0

>  <SCORE.INTRA.SOLV>
3.51731

>  <SCORE.INTRA.SOLV.lig_0>
-76.6701

>  <SCORE.INTRA.VDW>
0.474447

>  <SCORE.INTRA.VDW.0>
-1.53273

>  <SCORE.INTRA.norm>
0.263531

>  <SCORE.RESTR>
1.56105

>  <SCORE.RESTR.CAVITY>
1.56105

>  <SCORE.RESTR.norm>
0.0709569

>  <SCORE.SYSTEM>
0

>  <SCORE.SYSTEM.CONST>
0

>  <SCORE.SYSTEM.DIHEDRAL>
0

>  <SCORE.SYSTEM.SOLV>
0

>  <SCORE.SYSTEM.norm>
0

>  <SCORE.heavy>
22

>  <SCORE.norm>
-0.381133

>  <RMSD>
8.633

$$$$
2f4s_lig
 OpenBabel11021811433D
libRbt.so/2013.1/901 2013/11/27
 22 23  0  0  0  0  0  0  0  0999 V2000
   27.9984   13.0404   27.4934 N   0  0  0  0  0  0  0  0  0  0  0  0
   23.7528   15.6461   26.8928 N   0  0  0  0  0  0  0  0  0  0  0  0
   24.0924   17.4926   34.0122 N   0  0  0  0  0  0  0  0  0  0  0  0
   26.3985   16.0074   31.1189 O   0  0  0  0  0  0  0  0  0  0  0  0
   25.9612   15.1358   30.0364 C   0  0  2  0  0  0  0  0  0  0  0  0
   21.3322   14.9288   29.0828 N   0  0  0  0  0  0  0  0  0  0  0  0
   28.0253   13.8056   30.2143 O   0  0  0  0  0  0  0  0  0  0  0  0
   27.1937   14.5361   29.3050 C   0  0  1  0  0  0  0  0  0  0  0  0
   23.8979   16.4079   29.6713 O   0  0  0  0  0  0  0  0  0  0  0  0
   26.7706   13.5946   28.1840 C   0  0  1  0  0  0  0  0  0  0  0  0
   23.3496   16.3980   31.9173 O   0  0  0  0  0  0  0  0  0  0  0  0
   25.8714   14.3670   27.1605 C   0  0  0  0  0  0  0  0  0  0  0  0
   20.7847   19.0207   31.7498 O   0  0  0  0  0  0  0  0  0  0  0  0
   24.6115   14.9294   27.9244 C   0  0  1  0  0  0  0  0  0  0  0  0
   19.6171   16.9612   30.1670 O   0  0  0  0  0  0  0  0  0  0  0  0
   25.0576   15.9262   29.0095 C   0  0  2  0  0  0  0  0  0  0  0  0
   23.1861   15.6507   30.6339 C   0  0  1  0  0  0  0  0  0  0  0  0
   22.8087   17.7863   31.9512 C   0  0  2  0  0  0  0  0  0  0  0  0
   23.0995   18.3840   33.3311 C   0  0  0  0  0  0  0  0  0  0  0  0
   21.3152   17.7169   31.7234 C   0  0  2  0  0  0  0  0  0  0  0  0
   21.0307   17.0379   30.3848 C   0  0  1  0  0  0  0  0  0  0  0  0
   21.6366   15.6128   30.3907 C   0  0  1  0  0  0  0  0  0  0  0  0
  5  4  1  1  0  0  0
  5  8  1  0  0  0  0
  5 16  1  0  0  0  0
  8  7  1  1  0  0  0
  8 10  1  0  0  0  0
 10  1  1  6  0  0  0
 10 12  1  0  0  0  0
 11 18  1  0  0  0  0
 12 14  1  0  0  0  0
 14  2  1  6  0  0  0
 14 16  1  0  0  0  0
 16  9  1  1  0  0  0
 17  9  1  6  0  0  0
 17 11  1  0  0  0  0
 17 22  1  0  0  0  0
 18 19  1  1  0  0  0
 18 20  1  0  0  0  0
 19  3  1  0  0  0  0
 20 13  1  6  0  0  0
 20 21  1  0  0  0  0
 21 15  1  1  0  0  0
 21 22  1  0  0  0  0
 22  6  1  6  0  0  0
M  END
>  <CHROM.1>
-40.09611860,114.71563902,13.31970358,23.97965148,15.95050373,30.13887310
0.66486996,0.29725338,-2.04644455

>  <Name>
2f4s_lig

>  <RI>
0

>  <Rbt.Current_Directory>
/home/itssahil/PROJECTS/Mol_Feturizer/New_Systems/rnas/2f4s

>  <Rbt.Executable>
rbdock ($Id: //depot/dev/client3/rdock/2013.1/src/exe/rbdock.cxx#4 $)

>  <Rbt.Library>
libRbt.so (2013.1, Build901 2013/11/27)

>  <Rbt.Parameter_File>
/export/apps/rDock/src/rDock_2013.1_src/data/scripts/dock_solv.prm

>  <Rbt.Receptor>
prm/blind_docking_100.prm

>  <SCORE>
-6.14566

>  <SCORE.INTER>
-15.9744

>  <SCORE.INTER.CONST>
1

>  <SCORE.INTER.POLAR>
-1.05857

>  <SCORE.INTER.ROT>
3

>  <SCORE.INTER.SOLV>
21.7344

>  <SCORE.INTER.VDW>
-19.9658

>  <SCORE.INTER.norm>
-0.72611

>  <SCORE.INTRA>
8.30739

>  <SCORE.INTRA.DIHEDRAL>
11.7227

>  <SCORE.INTRA.DIHEDRAL.0>
1.67653

>  <SCORE.INTRA.POLAR>
0

>  <SCORE.INTRA.POLAR.0>
0

>  <SCORE.INTRA.REPUL>
0

>  <SCORE.INTRA.REPUL.0>
0

>  <SCORE.INTRA.SOLV>
3.15693

>  <SCORE.INTRA.SOLV.lig_0>
-76.6701

>  <SCORE.INTRA.VDW>
0.867568

>  <SCORE.INTRA.VDW.0>
-1.53273

>  <SCORE.INTRA.norm>
0.377609

>  <SCORE.RESTR>
1.52136

>  <SCORE.RESTR.CAVITY>
1.52136

>  <SCORE.RESTR.norm>
0.0691527

>  <SCORE.SYSTEM>
0

>  <SCORE.SYSTEM.CONST>
0

>  <SCORE.SYSTEM.DIHEDRAL>
0

>  <SCORE.SYSTEM.SOLV>
0

>  <SCORE.SYSTEM.norm>
0

>  <SCORE.heavy>
22

>  <SCORE.norm>
-0.279348

>  <RMSD>
8.666

$$$$
2f4s_lig
 OpenBabel11021811433D
libRbt.so/2013.1/901 2013/11/27
 22 23  0  0  0  0  0  0  0  0999 V2000
   27.9966   13.0323   27.4670 N   0  0  0  0  0  0  0  0  0  0  0  0
   23.7742   15.6878   26.9225 N   0  0  0  0  0  0  0  0  0  0  0  0
   24.0241   17.4847   34.0770 N   0  0  0  0  0  0  0  0  0  0  0  0
   26.4632   15.9938   31.1256 O   0  0  0  0  0  0  0  0  0  0  0  0
   26.0063   15.1338   30.0419 C   0  0  2  0  0  0  0  0  0  0  0  0
   21.4053   14.9311   29.0925 N   0  0  0  0  0  0  0  0  0  0  0  0
   28.0573   13.7801   30.1921 O   0  0  0  0  0  0  0  0  0  0  0  0
   27.2253   14.5253   29.2952 C   0  0  1  0  0  0  0  0  0  0  0  0
   23.9538   16.4305   29.7042 O   0  0  0  0  0  0  0  0  0  0  0  0
   26.7814   13.5955   28.1725 C   0  0  1  0  0  0  0  0  0  0  0  0
   23.3809   16.4241   31.9440 O   0  0  0  0  0  0  0  0  0  0  0  0
   25.8811   14.3841   27.1623 C   0  0  0  0  0  0  0  0  0  0  0  0
   20.7992   19.0277   31.7397 O   0  0  0  0  0  0  0  0  0  0  0  0
   24.6347   14.9553   27.9415 C   0  0  1  0  0  0  0  0  0  0  0  0
   19.6639   16.9546   30.1510 O   0  0  0  0  0  0  0  0  0  0  0  0
   25.1018   15.9404   29.0285 C   0  0  2  0  0  0  0  0  0  0  0  0
   23.2368   15.6714   30.6615 C   0  0  1  0  0  0  0  0  0  0  0  0
   22.8297   17.8085   31.9673 C   0  0  2  0  0  0  0  0  0  0  0  0
   23.1011   18.4129   33.3484 C   0  0  0  0  0  0  0  0  0  0  0  0
   21.3393   17.7277   31.7234 C   0  0  2  0  0  0  0  0  0  0  0  0
   21.0745   17.0422   30.3841 C   0  0  1  0  0  0  0  0  0  0  0  0
   21.6905   15.6215   30.4014 C   0  0  1  0  0  0  0  0  0  0  0  0
  5  4  1  1  0  0  0
  5  8  1  0  0  0  0
  5 16  1  0  0  0  0
  8  7  1  1  0  0  0
  8 10  1  0  0  0  0
 10  1  1  6  0  0  0
 10 12  1  0  0  0  0
 11 18  1  0  0  0  0
 12 14  1  0  0  0  0
 14  2  1  6  0  0  0
 14 16  1  0  0  0  0
 16  9  1  1  0  0  0
 17  9  1  6  0  0  0
 17 11  1  0  0  0  0
 17 22  1  0  0  0  0
 18 19  1  1  0  0  0
 18 20  1  0  0  0  0
 19  3  1  0  0  0  0
 20 13  1  6  0  0  0
 20 21  1  0  0  0  0
 21 15  1  1  0  0  0
 21 22  1  0  0  0  0
 22  6  1  6  0  0  0
M  END
>  <CHROM.1>
-40.58405399,116.58619626,9.73519874,24.00852908,15.95835235,30.14727843
0.66856363,0.30237568,-2.04121135

>  <Name>
2f4s_lig

>  <RI>
0

>  <Rbt.Current_Directory>
/home/itssahil/PROJECTS/Mol_Feturizer/New_Systems/rnas/2f4s

>  <Rbt.Executable>
rbdock ($Id: //depot/dev/client3/rdock/2013.1/src/exe/rbdock.cxx#4 $)

>  <Rbt.Library>
libRbt.so (2013.1, Build901 2013/11/27)

>  <Rbt.Parameter_File>
/export/apps/rDock/src/rDock_2013.1_src/data/scripts/dock_solv.prm

>  <Rbt.Receptor>
prm/blind_docking_100.prm

>  <SCORE>
-6.3215

>  <SCORE.INTER>
-16.4251

>  <SCORE.INTER.CONST>
1

>  <SCORE.INTER.POLAR>
-1.02918

>  <SCORE.INTER.ROT>
3

>  <SCORE.INTER.SOLV>
21.5913

>  <SCORE.INTER.VDW>
-20.3166

>  <SCORE.INTER.norm>
-0.746596

>  <SCORE.INTRA>
8.53472

>  <SCORE.INTRA.DIHEDRAL>
12.0033

>  <SCORE.INTRA.DIHEDRAL.0>
1.67653

>  <SCORE.INTRA.POLAR>
0

>  <SCORE.INTRA.POLAR.0>
0

>  <SCORE.INTRA.REPUL>
0

>  <SCORE.INTRA.REPUL.0>
0

>  <SCORE.INTRA.SOLV>
3.21507

>  <SCORE.INTRA.SOLV.lig_0>
-76.6701

>  <SCORE.INTRA.VDW>
0.925532

>  <SCORE.INTRA.VDW.0>
-1.53273

>  <SCORE.INTRA.norm>
0.387942

>  <SCORE.RESTR>
1.56888

>  <SCORE.RESTR.CAVITY>
1.56888

>  <SCORE.RESTR.norm>
0.0713129

>  <SCORE.SYSTEM>
0

>  <SCORE.SYSTEM.CONST>
0

>  <SCORE.SYSTEM.DIHEDRAL>
0

>  <SCORE.SYSTEM.SOLV>
0

>  <SCORE.SYSTEM.norm>
0

>  <SCORE.heavy>
22

>  <SCORE.norm>
-0.287341

>  <RMSD>
8.671

$$$$
2f4s_lig
 OpenBabel11021811433D
libRbt.so/2013.1/901 2013/11/27
 22 23  0  0  0  0  0  0  0  0999 V2000
   27.9847   13.0064   27.4626 N   0  0  0  0  0  0  0  0  0  0  0  0
   23.8398   15.8113   27.1038 N   0  0  0  0  0  0  0  0  0  0  0  0
   24.1677   18.0012   34.0117 N   0  0  0  0  0  0  0  0  0  0  0  0
   26.6739   15.9517   31.2195 O   0  0  0  0  0  0  0  0  0  0  0  0
   26.1527   15.1270   30.1373 C   0  0  2  0  0  0  0  0  0  0  0  0
   21.7117   14.9218   29.0192 N   0  0  0  0  0  0  0  0  0  0  0  0
   28.1601   13.7029   30.1964 O   0  0  0  0  0  0  0  0  0  0  0  0
   27.3251   14.4914   29.3404 C   0  0  1  0  0  0  0  0  0  0  0  0
   24.1356   16.4977   29.8901 O   0  0  0  0  0  0  0  0  0  0  0  0
   26.8132   13.5973   28.2176 C   0  0  1  0  0  0  0  0  0  0  0  0
   23.3389   16.4607   32.0601 O   0  0  0  0  0  0  0  0  0  0  0  0
   25.9078   14.4336   27.2513 C   0  0  0  0  0  0  0  0  0  0  0  0
   20.7093   18.9824   31.6006 O   0  0  0  0  0  0  0  0  0  0  0  0
   24.7078   15.0323   28.0812 C   0  0  1  0  0  0  0  0  0  0  0  0
   19.8080   16.8834   29.9001 O   0  0  0  0  0  0  0  0  0  0  0  0
   25.2435   15.9816   29.1684 C   0  0  2  0  0  0  0  0  0  0  0  0
   23.3499   15.7109   30.7678 C   0  0  1  0  0  0  0  0  0  0  0  0
   22.7442   17.8268   32.0305 C   0  0  2  0  0  0  0  0  0  0  0  0
   22.8545   18.4318   33.4334 C   0  0  0  0  0  0  0  0  0  0  0  0
   21.2896   17.7003   31.6363 C   0  0  2  0  0  0  0  0  0  0  0  0
   21.1840   17.0142   30.2754 C   0  0  1  0  0  0  0  0  0  0  0  0
   21.8403   15.6137   30.3519 C   0  0  1  0  0  0  0  0  0  0  0  0
  5  4  1  1  0  0  0
  5  8  1  0  0  0  0
  5 16  1  0  0  0  0
  8  7  1  1  0  0  0
  8 10  1  0  0  0  0
 10  1  1  6  0  0  0
 10 12  1  0  0  0  0
 11 18  1  0  0  0  0
 12 14  1  0  0  0  0
 14  2  1  6  0  0  0
 14 16  1  0  0  0  0
 16  9  1  1  0  0  0
 17  9  1  6  0  0  0
 17 11  1  0  0  0  0
 17 22  1  0  0  0  0
 18 19  1  1  0  0  0
 18 20  1  0  0  0  0
 19  3  1  0  0  0  0
 20 13  1  6  0  0  0
 20 21  1  0  0  0  0
 21 15  1  1  0  0  0
 21 22  1  0  0  0  0
 22  6  1  6  0  0  0
M  END
>  <CHROM.1>
-46.49267998,126.87893166,37.60067318,24.07812113,15.98503530,30.17374358
0.65987391,0.30621179,-2.05945067

>  <Name>
2f4s_lig

>  <RI>
0

>  <Rbt.Current_Directory>
/home/itssahil/PROJECTS/Mol_Feturizer/New_Systems/rnas/2f4s

>  <Rbt.Executable>
rbdock ($Id: //depot/dev/client3/rdock/2013.1/src/exe/rbdock.cxx#4 $)

>  <Rbt.Library>
libRbt.so (2013.1, Build901 2013/11/27)

>  <Rbt.Parameter_File>
/export/apps/rDock/src/rDock_2013.1_src/data/scripts/dock_solv.prm

>  <Rbt.Receptor>
prm/blind_docking_80.prm

>  <SCORE>
-8.82508

>  <SCORE.INTER>
-16.0993

>  <SCORE.INTER.CONST>
1

>  <SCORE.INTER.POLAR>
-0.943085

>  <SCORE.INTER.ROT>
3

>  <SCORE.INTER.SOLV>
22.683

>  <SCORE.INTER.VDW>
-20.7503

>  <SCORE.INTER.norm>
-0.731788

>  <SCORE.INTRA>
6.06569

>  <SCORE.INTRA.DIHEDRAL>
7.67988

>  <SCORE.INTRA.DIHEDRAL.0>
1.67653

>  <SCORE.INTRA.POLAR>
0

>  <SCORE.INTRA.POLAR.0>
0

>  <SCORE.INTRA.REPUL>
0

>  <SCORE.INTRA.REPUL.0>
0

>  <SCORE.INTRA.SOLV>
3.69253

>  <SCORE.INTRA.SOLV.lig_0>
-76.6701

>  <SCORE.INTRA.VDW>
0.37949

>  <SCORE.INTRA.VDW.0>
-1.53273

>  <SCORE.INTRA.norm>
0.275713

>  <SCORE.RESTR>
1.20856

>  <SCORE.RESTR.CAVITY>
1.20856

>  <SCORE.RESTR.norm>
0.0549344

>  <SCORE.SYSTEM>
0

>  <SCORE.SYSTEM.CONST>
0

>  <SCORE.SYSTEM.DIHEDRAL>
0

>  <SCORE.SYSTEM.SOLV>
0

>  <SCORE.SYSTEM.norm>
0

>  <SCORE.heavy>
22

>  <SCORE.norm>
-0.40114

>  <RMSD>
8.692

$$$$
2f4s_lig
 OpenBabel11021811433D
libRbt.so/2013.1/901 2013/11/27
 22 23  0  0  0  0  0  0  0  0999 V2000
   28.0277   13.1892   27.5026 N   0  0  0  0  0  0  0  0  0  0  0  0
   23.7310   15.6594   26.7203 N   0  0  0  0  0  0  0  0  0  0  0  0
   22.6894   19.8742   33.1537 N   0  0  0  0  0  0  0  0  0  0  0  0
   26.1330   16.0274   31.0889 O   0  0  0  0  0  0  0  0  0  0  0  0
   25.7851   15.1629   29.9689 C   0  0  2  0  0  0  0  0  0  0  0  0
   21.0911   14.8956   29.1535 N   0  0  0  0  0  0  0  0  0  0  0  0
   27.8824   13.9008   30.2341 O   0  0  0  0  0  0  0  0  0  0  0  0
   27.0753   14.6203   29.2945 C   0  0  1  0  0  0  0  0  0  0  0  0
   23.7007   16.3706   29.5158 O   0  0  0  0  0  0  0  0  0  0  0  0
   26.7460   13.6873   28.1356 C   0  0  1  0  0  0  0  0  0  0  0  0
   23.3130   16.4295   31.7943 O   0  0  0  0  0  0  0  0  0  0  0  0
   25.8760   14.4486   27.0790 C   0  0  0  0  0  0  0  0  0  0  0  0
   20.7581   19.0665   31.7322 O   0  0  0  0  0  0  0  0  0  0  0  0
   24.5582   14.9523   27.7837 C   0  0  1  0  0  0  0  0  0  0  0  0
   19.4692   16.9718   30.2966 O   0  0  0  0  0  0  0  0  0  0  0  0
   24.9103   15.9421   28.9091 C   0  0  2  0  0  0  0  0  0  0  0  0
   23.0545   15.6470   30.5480 C   0  0  1  0  0  0  0  0  0  0  0  0
   22.7840   17.8224   31.8258 C   0  0  2  0  0  0  0  0  0  0  0  0
   23.1755   18.4571   33.1638 C   0  0  0  0  0  0  0  0  0  0  0  0
   21.2777   17.7584   31.7063 C   0  0  2  0  0  0  0  0  0  0  0  0
   20.8951   17.0435   30.4116 C   0  0  1  0  0  0  0  0  0  0  0  0
   21.4915   15.6144   30.4162 C   0  0  1  0  0  0  0  0  0  0  0  0
  5  4  1  1  0  0  0
  5  8  1  0  0  0  0
  5 16  1  0  0  0  0
  8  7  1  1  0  0  0
  8 10  1  0  0  0  0
 10  1  1  6  0  0  0
 10 12  1  0  0  0  0
 11 18  1  0  0  0  0
 12 14  1  0  0  0  0
 14  2  1  6  0  0  0
 14 16  1  0  0  0  0
 16  9  1  1  0  0  0
 17  9  1  6  0  0  0
 17 11  1  0  0  0  0
 17 22  1  0  0  0  0
 18 19  1  1  0  0  0
 18 20  1  0  0  0  0
 19  3  1  0  0  0  0
 20 13  1  6  0  0  0
 20 21  1  0  0  0  0
 21 15  1  1  0  0  0
 21 22  1  0  0  0  0
 22  6  1  6  0  0  0
M  END
>  <CHROM.1>
-31.88086268,106.11935515,177.53116982,23.82556662,16.09297267,30.05276922
-0.71494935,-0.23497539,0.97308833

>  <Name>
2f4s_lig

>  <RI>
0

>  <Rbt.Current_Directory>
/home/itssahil/PROJECTS/Mol_Feturizer/New_Systems/rnas/2f4s

>  <Rbt.Executable>
rbdock ($Id: //depot/dev/client3/rdock/2013.1/src/exe/rbdock.cxx#4 $)

>  <Rbt.Library>
libRbt.so (2013.1, Build901 2013/11/27)

>  <Rbt.Parameter_File>
/export/apps/rDock/src/rDock_2013.1_src/data/scripts/dock_solv.prm

>  <Rbt.Receptor>
prm/blind_docking_100.prm

>  <SCORE>
-6.8185

>  <SCORE.INTER>
-15.2659

>  <SCORE.INTER.CONST>
1

>  <SCORE.INTER.POLAR>
-1.00555

>  <SCORE.INTER.ROT>
3

>  <SCORE.INTER.SOLV>
22.2437

>  <SCORE.INTER.VDW>
-19.84

>  <SCORE.INTER.norm>
-0.693903

>  <SCORE.INTRA>
6.53733

>  <SCORE.INTRA.DIHEDRAL>
7.80431

>  <SCORE.INTRA.DIHEDRAL.0>
1.67653

>  <SCORE.INTRA.POLAR>
0

>  <SCORE.INTRA.POLAR.0>
0

>  <SCORE.INTRA.REPUL>
0

>  <SCORE.INTRA.REPUL.0>
0

>  <SCORE.INTRA.SOLV>
2.90768

>  <SCORE.INTRA.SOLV.lig_0>
-76.6701

>  <SCORE.INTRA.VDW>
1.18134

>  <SCORE.INTRA.VDW.0>
-1.53273

>  <SCORE.INTRA.norm>
0.297151

>  <SCORE.RESTR>
1.91003

>  <SCORE.RESTR.CAVITY>
1.91003

>  <SCORE.RESTR.norm>
0.0868195

>  <SCORE.SYSTEM>
0

>  <SCORE.SYSTEM.CONST>
0

>  <SCORE.SYSTEM.DIHEDRAL>
0

>  <SCORE.SYSTEM.SOLV>
0

>  <SCORE.SYSTEM.norm>
0

>  <SCORE.heavy>
22

>  <SCORE.norm>
-0.309932

>  <RMSD>
8.790

$$$$
2f4s_lig
 OpenBabel11021811433D
libRbt.so/2013.1/901 2013/11/27
 22 23  0  0  0  0  0  0  0  0999 V2000
   27.9916   13.0108   27.4903 N   0  0  0  0  0  0  0  0  0  0  0  0
   23.8041   15.7196   26.9396 N   0  0  0  0  0  0  0  0  0  0  0  0
   22.4918   19.9989   33.0986 N   0  0  0  0  0  0  0  0  0  0  0  0
   26.5051   16.0119   31.1360 O   0  0  0  0  0  0  0  0  0  0  0  0
   26.0346   15.1523   30.0577 C   0  0  2  0  0  0  0  0  0  0  0  0
   21.5386   14.8531   29.0578 N   0  0  0  0  0  0  0  0  0  0  0  0
   28.0676   13.7722   30.2113 O   0  0  0  0  0  0  0  0  0  0  0  0
   27.2439   14.5236   29.3121 C   0  0  1  0  0  0  0  0  0  0  0  0
   23.9989   16.4746   29.7170 O   0  0  0  0  0  0  0  0  0  0  0  0
   26.7854   13.5940   28.1951 C   0  0  1  0  0  0  0  0  0  0  0  0
   23.3260   16.5355   31.9280 O   0  0  0  0  0  0  0  0  0  0  0  0
   25.8938   14.3892   27.1824 C   0  0  0  0  0  0  0  0  0  0  0  0
   20.6606   19.0256   31.5026 O   0  0  0  0  0  0  0  0  0  0  0  0
   24.6567   14.9812   27.9609 C   0  0  1  0  0  0  0  0  0  0  0  0
   19.6767   16.8476   29.9538 O   0  0  0  0  0  0  0  0  0  0  0  0
   25.1390   15.9657   29.0418 C   0  0  2  0  0  0  0  0  0  0  0  0
   23.2683   15.7269   30.6729 C   0  0  1  0  0  0  0  0  0  0  0  0
   22.7229   17.8970   31.8694 C   0  0  2  0  0  0  0  0  0  0  0  0
   22.9087   18.5664   33.2345 C   0  0  0  0  0  0  0  0  0  0  0  0
   21.2491   17.7481   31.5642 C   0  0  2  0  0  0  0  0  0  0  0  0
   21.0709   16.9997   30.2444 C   0  0  1  0  0  0  0  0  0  0  0  0
   21.7382   15.6061   30.3479 C   0  0  1  0  0  0  0  0  0  0  0  0
  5  4  1  1  0  0  0
  5  8  1  0  0  0  0
  5 16  1  0  0  0  0
  8  7  1  1  0  0  0
  8 10  1  0  0  0  0
 10  1  1  6  0  0  0
 10 12  1  0  0  0  0
 11 18  1  0  0  0  0
 12 14  1  0  0  0  0
 14  2  1  6  0  0  0
 14 16  1  0  0  0  0
 16  9  1  1  0  0  0
 17  9  1  6  0  0  0
 17 11  1  0  0  0  0
 17 22  1  0  0  0  0
 18 19  1  1  0  0  0
 18 20  1  0  0  0  0
 19  3  1  0  0  0  0
 20 13  1  6  0  0  0
 20 21  1  0  0  0  0
 21 15  1  1  0  0  0
 21 22  1  0  0  0  0
 22  6  1  6  0  0  0
M  END
>  <CHROM.1>
-41.03208559,121.28748171,171.41642374,23.93359100,16.08614466,30.06336667
0.70084984,0.26403502,-2.17671598

>  <Name>
2f4s_lig

>  <RI>
0

>  <Rbt.Current_Directory>
/home/itssahil/PROJECTS/Mol_Feturizer/New_Systems/rnas/2f4s

>  <Rbt.Executable>
rbdock ($Id: //depot/dev/client3/rdock/2013.1/src/exe/rbdock.cxx#4 $)

>  <Rbt.Library>
libRbt.so (2013.1, Build901 2013/11/27)

>  <Rbt.Parameter_File>
/export/apps/rDock/src/rDock_2013.1_src/data/scripts/dock_solv.prm

>  <Rbt.Receptor>
prm/blind_docking_100.prm

>  <SCORE>
-8.56286

>  <SCORE.INTER>
-16.4732

>  <SCORE.INTER.CONST>
1

>  <SCORE.INTER.POLAR>
-1.02457

>  <SCORE.INTER.ROT>
3

>  <SCORE.INTER.SOLV>
23.0022

>  <SCORE.INTER.VDW>
-20.8343

>  <SCORE.INTER.norm>
-0.748782

>  <SCORE.INTRA>
6.17833

>  <SCORE.INTRA.DIHEDRAL>
7.31493

>  <SCORE.INTRA.DIHEDRAL.0>
1.67653

>  <SCORE.INTRA.POLAR>
0

>  <SCORE.INTRA.POLAR.0>
0

>  <SCORE.INTRA.REPUL>
0

>  <SCORE.INTRA.REPUL.0>
0

>  <SCORE.INTRA.SOLV>
3.84744

>  <SCORE.INTRA.SOLV.lig_0>
-76.6701

>  <SCORE.INTRA.VDW>
0.597146

>  <SCORE.INTRA.VDW.0>
-1.53273

>  <SCORE.INTRA.norm>
0.280833

>  <SCORE.RESTR>
1.73202

>  <SCORE.RESTR.CAVITY>
1.73202

>  <SCORE.RESTR.norm>
0.0787283

>  <SCORE.SYSTEM>
0

>  <SCORE.SYSTEM.CONST>
0

>  <SCORE.SYSTEM.DIHEDRAL>
0

>  <SCORE.SYSTEM.SOLV>
0

>  <SCORE.SYSTEM.norm>
0

>  <SCORE.heavy>
22

>  <SCORE.norm>
-0.389221

>  <RMSD>
8.840

$$$$
2f4s_lig
 OpenBabel11021811433D
libRbt.so/2013.1/901 2013/11/27
 22 23  0  0  0  0  0  0  0  0999 V2000
   27.9761   13.0088   27.4727 N   0  0  0  0  0  0  0  0  0  0  0  0
   23.8101   15.7551   26.9455 N   0  0  0  0  0  0  0  0  0  0  0  0
   22.4436   20.0019   33.0997 N   0  0  0  0  0  0  0  0  0  0  0  0
   26.5097   15.9852   31.1467 O   0  0  0  0  0  0  0  0  0  0  0  0
   26.0335   15.1399   30.0596 C   0  0  2  0  0  0  0  0  0  0  0  0
   21.5592   14.8458   29.0639 N   0  0  0  0  0  0  0  0  0  0  0  0
   28.0557   13.7427   30.2011 O   0  0  0  0  0  0  0  0  0  0  0  0
   27.2385   14.5093   29.3087 C   0  0  1  0  0  0  0  0  0  0  0  0
   24.0083   16.4812   29.7304 O   0  0  0  0  0  0  0  0  0  0  0  0
   26.7739   13.5943   28.1823 C   0  0  1  0  0  0  0  0  0  0  0  0
   23.3241   16.5456   31.9378 O   0  0  0  0  0  0  0  0  0  0  0  0
   25.8893   14.4063   27.1768 C   0  0  0  0  0  0  0  0  0  0  0  0
   20.6489   19.0214   31.4914 O   0  0  0  0  0  0  0  0  0  0  0  0
   24.6561   15.0001   27.9602 C   0  0  1  0  0  0  0  0  0  0  0  0
   19.6832   16.8340   29.9445 O   0  0  0  0  0  0  0  0  0  0  0  0
   25.1450   15.9701   29.0511 C   0  0  2  0  0  0  0  0  0  0  0  0
   23.2765   15.7329   30.6849 C   0  0  1  0  0  0  0  0  0  0  0  0
   22.7147   17.9040   31.8719 C   0  0  2  0  0  0  0  0  0  0  0  0
   22.8905   18.5785   33.2359 C   0  0  0  0  0  0  0  0  0  0  0  0
   21.2432   17.7471   31.5599 C   0  0  2  0  0  0  0  0  0  0  0  0
   21.0753   16.9937   30.2415 C   0  0  1  0  0  0  0  0  0  0  0  0
   21.7487   15.6037   30.3527 C   0  0  1  0  0  0  0  0  0  0  0  0
  5  4  1  1  0  0  0
  5  8  1  0  0  0  0
  5 16  1  0  0  0  0
  8  7  1  1  0  0  0
  8 10  1  0  0  0  0
 10  1  1  6  0  0  0
 10 12  1  0  0  0  0
 11 18  1  0  0  0  0
 12 14  1  0  0  0  0
 14  2  1  6  0  0  0
 14 16  1  0  0  0  0
 16  9  1  1  0  0  0
 17  9  1  6  0  0  0
 17 11  1  0  0  0  0
 17 22  1  0  0  0  0
 18 19  1  1  0  0  0
 18 20  1  0  0  0  0
 19  3  1  0  0  0  0
 20 13  1  6  0  0  0
 20 21  1  0  0  0  0
 21 15  1  1  0  0  0
 21 22  1  0  0  0  0
 22  6  1  6  0  0  0
M  END
>  <CHROM.1>
-40.59173918,122.04091809,172.43456000,23.93047710,16.08584823,30.06341879
0.70100207,0.26804473,-2.17263965

>  <Name>
2f4s_lig

>  <RI>
0

>  <Rbt.Current_Directory>
/home/itssahil/PROJECTS/Mol_Feturizer/New_Systems/rnas/2f4s

>  <Rbt.Executable>
rbdock ($Id: //depot/dev/client3/rdock/2013.1/src/exe/rbdock.cxx#4 $)

>  <Rbt.Library>
libRbt.so (2013.1, Build901 2013/11/27)

>  <Rbt.Parameter_File>
/export/apps/rDock/src/rDock_2013.1_src/data/scripts/dock_solv.prm

>  <Rbt.Receptor>
prm/blind_docking_100.prm

>  <SCORE>
-8.68863

>  <SCORE.INTER>
-16.7161

>  <SCORE.INTER.CONST>
1

>  <SCORE.INTER.POLAR>
-0.982151

>  <SCORE.INTER.ROT>
3

>  <SCORE.INTER.SOLV>
22.9171

>  <SCORE.INTER.VDW>
-21.1093

>  <SCORE.INTER.norm>
-0.759824

>  <SCORE.INTRA>
6.25329

>  <SCORE.INTRA.DIHEDRAL>
7.31544

>  <SCORE.INTRA.DIHEDRAL.0>
1.67653

>  <SCORE.INTRA.POLAR>
0

>  <SCORE.INTRA.POLAR.0>
0

>  <SCORE.INTRA.REPUL>
0

>  <SCORE.INTRA.REPUL.0>
0

>  <SCORE.INTRA.SOLV>
3.89357

>  <SCORE.INTRA.SOLV.lig_0>
-76.6701

>  <SCORE.INTRA.VDW>
0.648786

>  <SCORE.INTRA.VDW.0>
-1.53273

>  <SCORE.INTRA.norm>
0.28424

>  <SCORE.RESTR>
1.77421

>  <SCORE.RESTR.CAVITY>
1.77421

>  <SCORE.RESTR.norm>
0.080646

>  <SCORE.SYSTEM>
0

>  <SCORE.SYSTEM.CONST>
0

>  <SCORE.SYSTEM.DIHEDRAL>
0

>  <SCORE.SYSTEM.SOLV>
0

>  <SCORE.SYSTEM.norm>
0

>  <SCORE.heavy>
22

>  <SCORE.norm>
-0.394938

>  <RMSD>
8.841

$$$$
2f4s_lig
 OpenBabel11021811433D
libRbt.so/2013.1/901 2013/11/27
 22 23  0  0  0  0  0  0  0  0999 V2000
   28.0584   13.1494   27.4218 N   0  0  0  0  0  0  0  0  0  0  0  0
   23.8338   15.7956   26.8507 N   0  0  0  0  0  0  0  0  0  0  0  0
   23.8997   18.5930   33.4787 N   0  0  0  0  0  0  0  0  0  0  0  0
   26.4269   16.0083   31.1193 O   0  0  0  0  0  0  0  0  0  0  0  0
   25.9992   15.1738   30.0042 C   0  0  2  0  0  0  0  0  0  0  0  0
   21.6699   14.6438   28.8766 N   0  0  0  0  0  0  0  0  0  0  0  0
   28.0543   13.8276   30.1657 O   0  0  0  0  0  0  0  0  0  0  0  0
   27.2380   14.5911   29.2697 C   0  0  1  0  0  0  0  0  0  0  0  0
   23.9471   16.4679   29.6538 O   0  0  0  0  0  0  0  0  0  0  0  0
   26.8246   13.6880   28.1141 C   0  0  1  0  0  0  0  0  0  0  0  0
   23.1274   16.5159   31.8150 O   0  0  0  0  0  0  0  0  0  0  0  0
   25.9424   14.4974   27.1043 C   0  0  0  0  0  0  0  0  0  0  0  0
   20.3093   18.7777   31.1606 O   0  0  0  0  0  0  0  0  0  0  0  0
   24.6757   15.0419   27.8698 C   0  0  1  0  0  0  0  0  0  0  0  0
   19.6027   16.5000   29.6039 O   0  0  0  0  0  0  0  0  0  0  0  0
   25.1127   16.0014   28.9917 C   0  0  2  0  0  0  0  0  0  0  0  0
   23.2159   15.6823   30.5782 C   0  0  1  0  0  0  0  0  0  0  0  0
   22.4248   17.8238   31.6856 C   0  0  2  0  0  0  0  0  0  0  0  0
   22.4675   18.5311   33.0436 C   0  0  0  0  0  0  0  0  0  0  0  0
   20.9905   17.5525   31.2901 C   0  0  2  0  0  0  0  0  0  0  0  0
   20.9587   16.7680   29.9796 C   0  0  1  0  0  0  0  0  0  0  0  0
   21.7247   15.4341   30.1587 C   0  0  1  0  0  0  0  0  0  0  0  0
  5  4  1  1  0  0  0
  5  8  1  0  0  0  0
  5 16  1  0  0  0  0
  8  7  1  1  0  0  0
  8 10  1  0  0  0  0
 10  1  1  6  0  0  0
 10 12  1  0  0  0  0
 11 18  1  0  0  0  0
 12 14  1  0  0  0  0
 14  2  1  6  0  0  0
 14 16  1  0  0  0  0
 16  9  1  1  0  0  0
 17  9  1  6  0  0  0
 17 11  1  0  0  0  0
 17 22  1  0  0  0  0
 18 19  1  1  0  0  0
 18 20  1  0  0  0  0
 19  3  1  0  0  0  0
 20 13  1  6  0  0  0
 20 21  1  0  0  0  0
 21 15  1  1  0  0  0
 21 22  1  0  0  0  0
 22  6  1  6  0  0  0
M  END
>  <CHROM.1>
-40.38477759,126.01360585,53.72271383,23.91890031,15.97845836,29.94951399
0.62208995,0.25513141,-2.10939407

>  <Name>
2f4s_lig

>  <RI>
0

>  <Rbt.Current_Directory>
/home/itssahil/PROJECTS/Mol_Feturizer/New_Systems/rnas/2f4s

>  <Rbt.Executable>
rbdock ($Id: //depot/dev/client3/rdock/2013.1/src/exe/rbdock.cxx#4 $)

>  <Rbt.Library>
libRbt.so (2013.1, Build901 2013/11/27)

>  <Rbt.Parameter_File>
/export/apps/rDock/src/rDock_2013.1_src/data/scripts/dock_solv.prm

>  <Rbt.Receptor>
prm/blind_docking_60.prm

>  <SCORE>
-9.17746

>  <SCORE.INTER>
-16.7888

>  <SCORE.INTER.CONST>
1

>  <SCORE.INTER.POLAR>
-1.03719

>  <SCORE.INTER.ROT>
3

>  <SCORE.INTER.SOLV>
24.1992

>  <SCORE.INTER.VDW>
-21.4016

>  <SCORE.INTER.norm>
-0.763125

>  <SCORE.INTRA>
5.4395

>  <SCORE.INTRA.DIHEDRAL>
7.13495

>  <SCORE.INTRA.DIHEDRAL.0>
1.67653

>  <SCORE.INTRA.POLAR>
0

>  <SCORE.INTRA.POLAR.0>
0

>  <SCORE.INTRA.REPUL>
0

>  <SCORE.INTRA.REPUL.0>
0

>  <SCORE.INTRA.SOLV>
3.09679

>  <SCORE.INTRA.SOLV.lig_0>
-76.6701

>  <SCORE.INTRA.VDW>
0.323626

>  <SCORE.INTRA.VDW.0>
-1.53273

>  <SCORE.INTRA.norm>
0.24725

>  <SCORE.RESTR>
2.1718

>  <SCORE.RESTR.CAVITY>
2.1718

>  <SCORE.RESTR.norm>
0.0987182

>  <SCORE.SYSTEM>
0

>  <SCORE.SYSTEM.CONST>
0

>  <SCORE.SYSTEM.DIHEDRAL>
0

>  <SCORE.SYSTEM.SOLV>
0

>  <SCORE.SYSTEM.norm>
0

>  <SCORE.heavy>
22

>  <SCORE.norm>
-0.417157

>  <RMSD>
8.849

$$$$
2f4s_lig
 OpenBabel11021811433D
libRbt.so/2013.1/901 2013/11/27
 22 23  0  0  0  0  0  0  0  0999 V2000
   27.9071   13.0168   27.5035 N   0  0  0  0  0  0  0  0  0  0  0  0
   23.7647   15.8001   26.9845 N   0  0  0  0  0  0  0  0  0  0  0  0
   21.8430   20.0995   32.7476 N   0  0  0  0  0  0  0  0  0  0  0  0
   26.5022   16.0435   31.1603 O   0  0  0  0  0  0  0  0  0  0  0  0
   26.0083   15.1926   30.0857 C   0  0  2  0  0  0  0  0  0  0  0  0
   21.7537   14.7080   28.9231 N   0  0  0  0  0  0  0  0  0  0  0  0
   28.0174   13.7763   30.2238 O   0  0  0  0  0  0  0  0  0  0  0  0
   27.2004   14.5425   29.3308 C   0  0  1  0  0  0  0  0  0  0  0  0
   23.9940   16.5511   29.7604 O   0  0  0  0  0  0  0  0  0  0  0  0
   26.7170   13.6213   28.2174 C   0  0  1  0  0  0  0  0  0  0  0  0
   23.0667   16.6636   31.8752 O   0  0  0  0  0  0  0  0  0  0  0  0
   25.8321   14.4325   27.2114 C   0  0  0  0  0  0  0  0  0  0  0  0
   20.2914   18.9089   31.0138 O   0  0  0  0  0  0  0  0  0  0  0  0
   24.6117   15.0464   27.9993 C   0  0  1  0  0  0  0  0  0  0  0  0
   19.6578   16.5874   29.4908 O   0  0  0  0  0  0  0  0  0  0  0  0
   25.1197   16.0219   29.0765 C   0  0  2  0  0  0  0  0  0  0  0  0
   23.2150   15.7939   30.6694 C   0  0  1  0  0  0  0  0  0  0  0  0
   22.3752   17.9681   31.6724 C   0  0  2  0  0  0  0  0  0  0  0  0
   22.3515   18.7148   33.0096 C   0  0  0  0  0  0  0  0  0  0  0  0
   20.9619   17.6871   31.2132 C   0  0  2  0  0  0  0  0  0  0  0  0
   20.9938   16.8645   29.9263 C   0  0  1  0  0  0  0  0  0  0  0  0
   21.7461   15.5354   30.1827 C   0  0  1  0  0  0  0  0  0  0  0  0
  5  4  1  1  0  0  0
  5  8  1  0  0  0  0
  5 16  1  0  0  0  0
  8  7  1  1  0  0  0
  8 10  1  0  0  0  0
 10  1  1  6  0  0  0
 10 12  1  0  0  0  0
 11 18  1  0  0  0  0
 12 14  1  0  0  0  0
 14  2  1  6  0  0  0
 14 16  1  0  0  0  0
 16  9  1  1  0  0  0
 17  9  1  6  0  0  0
 17 11  1  0  0  0  0
 17 22  1  0  0  0  0
 18 19  1  1  0  0  0
 18 20  1  0  0  0  0
 19  3  1  0  0  0  0
 20 13  1  6  0  0  0
 20 21  1  0  0  0  0
 21 15  1  1  0  0  0
 21 22  1  0  0  0  0
 22  6  1  6  0  0  0
M  END
>  <CHROM.1>
-44.46310736,132.07080176,171.62819504,23.80378082,16.09297795,29.95008510
0.64797815,0.27879500,-2.18479019

>  <Name>
2f4s_lig

>  <RI>
0

>  <Rbt.Current_Directory>
/home/itssahil/PROJECTS/Mol_Feturizer/New_Systems/rnas/2f4s

>  <Rbt.Executable>
rbdock ($Id: //depot/dev/client3/rdock/2013.1/src/exe/rbdock.cxx#4 $)

>  <Rbt.Library>
libRbt.so (2013.1, Build901 2013/11/27)

>  <Rbt.Parameter_File>
/export/apps/rDock/src/rDock_2013.1_src/data/scripts/dock_solv.prm

>  <Rbt.Receptor>
prm/blind_docking_100.prm

>  <SCORE>
-9.0109

>  <SCORE.INTER>
-17.0203

>  <SCORE.INTER.CONST>
1

>  <SCORE.INTER.POLAR>
-1.03865

>  <SCORE.INTER.ROT>
3

>  <SCORE.INTER.SOLV>
23.4651

>  <SCORE.INTER.VDW>
-21.3064

>  <SCORE.INTER.norm>
-0.77365

>  <SCORE.INTRA>
6.10843

>  <SCORE.INTRA.DIHEDRAL>
6.13531

>  <SCORE.INTRA.DIHEDRAL.0>
1.67653

>  <SCORE.INTRA.POLAR>
0

>  <SCORE.INTRA.POLAR.0>
0

>  <SCORE.INTRA.REPUL>
0

>  <SCORE.INTRA.REPUL.0>
0

>  <SCORE.INTRA.SOLV>
4.85547

>  <SCORE.INTRA.SOLV.lig_0>
-76.6701

>  <SCORE.INTRA.VDW>
0.613041

>  <SCORE.INTRA.VDW.0>
-1.53273

>  <SCORE.INTRA.norm>
0.277656

>  <SCORE.RESTR>
1.90096

>  <SCORE.RESTR.CAVITY>
1.90096

>  <SCORE.RESTR.norm>
0.0864072

>  <SCORE.SYSTEM>
0

>  <SCORE.SYSTEM.CONST>
0

>  <SCORE.SYSTEM.DIHEDRAL>
0

>  <SCORE.SYSTEM.SOLV>
0

>  <SCORE.SYSTEM.norm>
0

>  <SCORE.heavy>
22

>  <SCORE.norm>
-0.409586

>  <RMSD>
8.934

$$$$
2f4s_lig
 OpenBabel11021811433D
libRbt.so/2013.1/901 2013/11/27
 22 23  0  0  0  0  0  0  0  0999 V2000
   27.9187   13.0051   27.5049 N   0  0  0  0  0  0  0  0  0  0  0  0
   23.8121   15.8378   26.9687 N   0  0  0  0  0  0  0  0  0  0  0  0
   21.8506   20.1043   32.7376 N   0  0  0  0  0  0  0  0  0  0  0  0
   26.4980   16.0000   31.1818 O   0  0  0  0  0  0  0  0  0  0  0  0
   26.0092   15.1679   30.0902 C   0  0  2  0  0  0  0  0  0  0  0  0
   21.7689   14.7160   28.9135 N   0  0  0  0  0  0  0  0  0  0  0  0
   28.0017   13.7291   30.2359 O   0  0  0  0  0  0  0  0  0  0  0  0
   27.2042   14.5149   29.3424 C   0  0  1  0  0  0  0  0  0  0  0  0
   24.0134   16.5514   29.7565 O   0  0  0  0  0  0  0  0  0  0  0  0
   26.7257   13.6130   28.2113 C   0  0  1  0  0  0  0  0  0  0  0  0
   23.0800   16.6687   31.8684 O   0  0  0  0  0  0  0  0  0  0  0  0
   25.8622   14.4459   27.2045 C   0  0  0  0  0  0  0  0  0  0  0  0
   20.3157   18.9237   30.9971 O   0  0  0  0  0  0  0  0  0  0  0  0
   24.6382   15.0626   27.9845 C   0  0  1  0  0  0  0  0  0  0  0  0
   19.6782   16.6036   29.4735 O   0  0  0  0  0  0  0  0  0  0  0  0
   25.1423   16.0191   29.0804 C   0  0  2  0  0  0  0  0  0  0  0  0
   23.2288   15.7976   30.6636 C   0  0  1  0  0  0  0  0  0  0  0  0
   22.3940   17.9756   31.6627 C   0  0  2  0  0  0  0  0  0  0  0  0
   22.3689   18.7232   32.9993 C   0  0  0  0  0  0  0  0  0  0  0  0
   20.9810   17.6996   31.1993 C   0  0  2  0  0  0  0  0  0  0  0  0
   21.0139   16.8760   29.9131 C   0  0  1  0  0  0  0  0  0  0  0  0
   21.7605   15.5443   30.1726 C   0  0  1  0  0  0  0  0  0  0  0  0
  5  4  1  1  0  0  0
  5  8  1  0  0  0  0
  5 16  1  0  0  0  0
  8  7  1  1  0  0  0
  8 10  1  0  0  0  0
 10  1  1  6  0  0  0
 10 12  1  0  0  0  0
 11 18  1  0  0  0  0
 12 14  1  0  0  0  0
 14  2  1  6  0  0  0
 14 16  1  0  0  0  0
 16  9  1  1  0  0  0
 17  9  1  6  0  0  0
 17 11  1  0  0  0  0
 17 22  1  0  0  0  0
 18 19  1  1  0  0  0
 18 20  1  0  0  0  0
 19  3  1  0  0  0  0
 20 13  1  6  0  0  0
 20 21  1  0  0  0  0
 21 15  1  1  0  0  0
 21 22  1  0  0  0  0
 22  6  1  6  0  0  0
M  END
>  <CHROM.1>
-43.33051941,131.82017030,172.30444082,23.81882701,16.09279642,29.94494734
0.64680871,0.28919060,-2.17799512

>  <Name>
2f4s_lig

>  <RI>
0

>  <Rbt.Current_Directory>
/home/itssahil/PROJECTS/Mol_Feturizer/New_Systems/rnas/2f4s

>  <Rbt.Executable>
rbdock ($Id: //depot/dev/client3/rdock/2013.1/src/exe/rbdock.cxx#4 $)

>  <Rbt.Library>
libRbt.so (2013.1, Build901 2013/11/27)

>  <Rbt.Parameter_File>
/export/apps/rDock/src/rDock_2013.1_src/data/scripts/dock_solv.prm

>  <Rbt.Receptor>
prm/blind_docking_100.prm

>  <SCORE>
-8.59084

>  <SCORE.INTER>
-16.6159

>  <SCORE.INTER.CONST>
1

>  <SCORE.INTER.POLAR>
-0.955376

>  <SCORE.INTER.ROT>
3

>  <SCORE.INTER.SOLV>
23.563

>  <SCORE.INTER.VDW>
-21.347

>  <SCORE.INTER.norm>
-0.755267

>  <SCORE.INTRA>
6.18808

>  <SCORE.INTRA.DIHEDRAL>
6.28234

>  <SCORE.INTRA.DIHEDRAL.0>
1.67653

>  <SCORE.INTRA.POLAR>
0

>  <SCORE.INTRA.POLAR.0>
0

>  <SCORE.INTRA.REPUL>
0

>  <SCORE.INTRA.REPUL.0>
0

>  <SCORE.INTRA.SOLV>
4.79291

>  <SCORE.INTRA.SOLV.lig_0>
-76.6701

>  <SCORE.INTRA.VDW>
0.650454

>  <SCORE.INTRA.VDW.0>
-1.53273

>  <SCORE.INTRA.norm>
0.281276

>  <SCORE.RESTR>
1.83695

>  <SCORE.RESTR.CAVITY>
1.83695

>  <SCORE.RESTR.norm>
0.0834979

>  <SCORE.SYSTEM>
0

>  <SCORE.SYSTEM.CONST>
0

>  <SCORE.SYSTEM.DIHEDRAL>
0

>  <SCORE.SYSTEM.SOLV>
0

>  <SCORE.SYSTEM.norm>
0

>  <SCORE.heavy>
22

>  <SCORE.norm>
-0.390493

>  <RMSD>
8.945

$$$$
2f4s_lig
 OpenBabel11021811433D
libRbt.so/2013.1/901 2013/11/27
 22 23  0  0  0  0  0  0  0  0999 V2000
   20.5260   19.5653   37.0167 N   0  0  0  0  0  0  0  0  0  0  0  0
   23.4644   23.4783   35.9076 N   0  0  0  0  0  0  0  0  0  0  0  0
   28.5364   17.4134   35.6799 N   0  0  0  0  0  0  0  0  0  0  0  0
   24.9744   18.8034   34.9823 O   0  0  0  0  0  0  0  0  0  0  0  0
   24.2262   19.6785   35.8753 C   0  0  2  0  0  0  0  0  0  0  0  0
   27.5362   23.9212   35.6914 N   0  0  0  0  0  0  0  0  0  0  0  0
   22.6974   17.8415   36.4666 O   0  0  0  0  0  0  0  0  0  0  0  0
   22.7556   19.1909   35.9895 C   0  0  1  0  0  0  0  0  0  0  0  0
   25.6025   21.6311   35.3260 O   0  0  0  0  0  0  0  0  0  0  0  0
   21.9517   20.0685   36.9411 C   0  0  1  0  0  0  0  0  0  0  0  0
   26.7402   20.4535   36.9581 O   0  0  0  0  0  0  0  0  0  0  0  0
   21.9805   21.5517   36.4389 C   0  0  0  0  0  0  0  0  0  0  0  0
   29.6445   19.5526   34.8992 O   0  0  0  0  0  0  0  0  0  0  0  0
   23.4820   22.0290   36.3710 C   0  0  1  0  0  0  0  0  0  0  0  0
   29.8694   22.3892   35.0156 O   0  0  0  0  0  0  0  0  0  0  0  0
   24.2602   21.1706   35.3573 C   0  0  2  0  0  0  0  0  0  0  0  0
   26.3804   21.8271   36.4935 C   0  0  1  0  0  0  0  0  0  0  0  0
   27.5459   19.6239   36.0180 C   0  0  2  0  0  0  0  0  0  0  0  0
   27.7820   18.2550   36.6633 C   0  0  0  0  0  0  0  0  0  0  0  0
   28.8682   20.3207   35.7877 C   0  0  2  0  0  0  0  0  0  0  0  0
   28.6207   21.7204   35.2279 C   0  0  1  0  0  0  0  0  0  0  0  0
   27.7575   22.5298   36.2267 C   0  0  1  0  0  0  0  0  0  0  0  0
  5  4  1  6  0  0  0
  5  8  1  0  0  0  0
  5 16  1  0  0  0  0
  8  7  1  1  0  0  0
  8 10  1  0  0  0  0
 10  1  1  6  0  0  0
 10 12  1  0  0  0  0
 11 18  1  0  0  0  0
 12 14  1  0  0  0  0
 14  2  1  6  0  0  0
 14 16  1  0  0  0  0
 16  9  1  1  0  0  0
 17  9  1  6  0  0  0
 17 11  1  0  0  0  0
 17 22  1  0  0  0  0
 18 19  1  1  0  0  0
 18 20  1  0  0  0  0
 19  3  1  0  0  0  0
 20 13  1  6  0  0  0
 20 21  1  0  0  0  0
 21 15  1  1  0  0  0
 21 22  1  0  0  0  0
 22  6  1  6  0  0  0
M  END
>  <CHROM.1>
-66.88144399,74.20394862,177.37182664,25.72886444,20.56587979,35.95396169
-3.03253110,0.12826811,-0.03592968

>  <Name>
2f4s_lig

>  <RI>
0

>  <Rbt.Current_Directory>
/home/itssahil/PROJECTS/Mol_Feturizer/New_Systems/rnas/2f4s

>  <Rbt.Executable>
rbdock ($Id: //depot/dev/client3/rdock/2013.1/src/exe/rbdock.cxx#4 $)

>  <Rbt.Library>
libRbt.so (2013.1, Build901 2013/11/27)

>  <Rbt.Parameter_File>
/export/apps/rDock/src/rDock_2013.1_src/data/scripts/dock_solv.prm

>  <Rbt.Receptor>
prm/pocket_docking_8.prm

>  <SCORE>
-6.69949

>  <SCORE.INTER>
-8.74873

>  <SCORE.INTER.CONST>
1

>  <SCORE.INTER.POLAR>
-2.38157

>  <SCORE.INTER.ROT>
3

>  <SCORE.INTER.SOLV>
14.5228

>  <SCORE.INTER.VDW>
-8.33484

>  <SCORE.INTER.norm>
-0.39767

>  <SCORE.INTRA>
2.04924

>  <SCORE.INTRA.DIHEDRAL>
-0.344198

>  <SCORE.INTRA.DIHEDRAL.0>
1.67653

>  <SCORE.INTRA.POLAR>
0

>  <SCORE.INTRA.POLAR.0>
0

>  <SCORE.INTRA.REPUL>
0

>  <SCORE.INTRA.REPUL.0>
0

>  <SCORE.INTRA.SOLV>
2.64663

>  <SCORE.INTRA.SOLV.lig_0>
-76.6701

>  <SCORE.INTRA.VDW>
0.898025

>  <SCORE.INTRA.VDW.0>
-1.53273

>  <SCORE.INTRA.norm>
0.0931472

>  <SCORE.RESTR>
0

>  <SCORE.RESTR.CAVITY>
0

>  <SCORE.RESTR.norm>
0

>  <SCORE.SYSTEM>
0

>  <SCORE.SYSTEM.CONST>
0

>  <SCORE.SYSTEM.DIHEDRAL>
0

>  <SCORE.SYSTEM.SOLV>
0

>  <SCORE.SYSTEM.norm>
0

>  <SCORE.heavy>
22

>  <SCORE.norm>
-0.304522

>  <RMSD>
9.054

$$$$
2f4s_lig
 OpenBabel11021811433D
libRbt.so/2013.1/901 2013/11/27
 22 23  0  0  0  0  0  0  0  0999 V2000
   17.5862    9.6613   32.8074 N   0  0  0  0  0  0  0  0  0  0  0  0
   16.3787   13.0400   29.3000 N   0  0  0  0  0  0  0  0  0  0  0  0
   21.3473   15.0858   33.4692 N   0  0  0  0  0  0  0  0  0  0  0  0
   20.8619   13.1388   31.5095 O   0  0  0  0  0  0  0  0  0  0  0  0
   19.4394   12.8678   31.6711 C   0  0  2  0  0  0  0  0  0  0  0  0
   17.3522   16.7295   28.5479 N   0  0  0  0  0  0  0  0  0  0  0  0
   19.9136   11.1596   33.3795 O   0  0  0  0  0  0  0  0  0  0  0  0
   19.2270   11.4041   32.1464 C   0  0  1  0  0  0  0  0  0  0  0  0
   18.8037   14.4704   29.9287 O   0  0  0  0  0  0  0  0  0  0  0  0
   17.7491   11.0964   32.3541 C   0  0  1  0  0  0  0  0  0  0  0  0
   19.0484   15.8125   31.7952 O   0  0  0  0  0  0  0  0  0  0  0  0
   16.9692   11.3378   31.0175 C   0  0  0  0  0  0  0  0  0  0  0  0
   21.7182   17.9452   30.4498 O   0  0  0  0  0  0  0  0  0  0  0  0
   17.1724   12.8401   30.5827 C   0  0  1  0  0  0  0  0  0  0  0  0
   19.5407   18.5804   28.7278 O   0  0  0  0  0  0  0  0  0  0  0  0
   18.6641   13.1122   30.3165 C   0  0  2  0  0  0  0  0  0  0  0  0
   18.1752   15.5390   30.6141 C   0  0  1  0  0  0  0  0  0  0  0  0
   20.4488   16.2306   31.5034 C   0  0  2  0  0  0  0  0  0  0  0  0
   21.1796   16.4324   32.8343 C   0  0  0  0  0  0  0  0  0  0  0  0
   20.4028   17.5338   30.7373 C   0  0  2  0  0  0  0  0  0  0  0  0
   19.5954   17.3470   29.4539 C   0  0  1  0  0  0  0  0  0  0  0  0
   18.1606   16.8861   29.8101 C   0  0  1  0  0  0  0  0  0  0  0  0
  5  4  1  6  0  0  0
  5  8  1  0  0  0  0
  5 16  1  0  0  0  0
  8  7  1  1  0  0  0
  8 10  1  0  0  0  0
 10  1  1  6  0  0  0
 10 12  1  0  0  0  0
 11 18  1  0  0  0  0
 12 14  1  0  0  0  0
 14  2  1  6  0  0  0
 14 16  1  0  0  0  0
 16  9  1  1  0  0  0
 17  9  1  6  0  0  0
 17 11  1  0  0  0  0
 17 22  1  0  0  0  0
 18 19  1  1  0  0  0
 18 20  1  0  0  0  0
 19  3  1  0  0  0  0
 20 13  1  6  0  0  0
 20 21  1  0  0  0  0
 21 15  1  1  0  0  0
 21 22  1  0  0  0  0
 22  6  1  6  0  0  0
M  END
>  <CHROM.1>
-70.55662505,81.03626019,68.90888734,19.11919926,14.49293812,31.04453459
-1.88900515,-0.65172958,-0.49284964

>  <Name>
2f4s_lig

>  <RI>
0

>  <Rbt.Current_Directory>
/home/itssahil/PROJECTS/Mol_Feturizer/New_Systems/rnas/2f4s

>  <Rbt.Executable>
rbdock ($Id: //depot/dev/client3/rdock/2013.1/src/exe/rbdock.cxx#4 $)

>  <Rbt.Library>
libRbt.so (2013.1, Build901 2013/11/27)

>  <Rbt.Parameter_File>
/export/apps/rDock/src/rDock_2013.1_src/data/scripts/dock_solv.prm

>  <Rbt.Receptor>
prm/pocket_docking_8.prm

>  <SCORE>
-3.77906

>  <SCORE.INTER>
-6.26333

>  <SCORE.INTER.CONST>
1

>  <SCORE.INTER.POLAR>
-1.69217

>  <SCORE.INTER.ROT>
3

>  <SCORE.INTER.SOLV>
16.8167

>  <SCORE.INTER.VDW>
-9.74057

>  <SCORE.INTER.norm>
-0.284697

>  <SCORE.INTRA>
2.25868

>  <SCORE.INTRA.DIHEDRAL>
1.20883

>  <SCORE.INTRA.DIHEDRAL.0>
1.67653

>  <SCORE.INTRA.POLAR>
0

>  <SCORE.INTRA.POLAR.0>
0

>  <SCORE.INTRA.REPUL>
0

>  <SCORE.INTRA.REPUL.0>
0

>  <SCORE.INTRA.SOLV>
3.51551

>  <SCORE.INTRA.SOLV.lig_0>
-76.6701

>  <SCORE.INTRA.VDW>
-0.103495

>  <SCORE.INTRA.VDW.0>
-1.53273

>  <SCORE.INTRA.norm>
0.102667

>  <SCORE.RESTR>
0.225598

>  <SCORE.RESTR.CAVITY>
0.225598

>  <SCORE.RESTR.norm>
0.0102545

>  <SCORE.SYSTEM>
0

>  <SCORE.SYSTEM.CONST>
0

>  <SCORE.SYSTEM.DIHEDRAL>
0

>  <SCORE.SYSTEM.SOLV>
0

>  <SCORE.SYSTEM.norm>
0

>  <SCORE.heavy>
22

>  <SCORE.norm>
-0.171775

>  <RMSD>
9.083

$$$$
2f4s_lig
 OpenBabel11021811433D
libRbt.so/2013.1/901 2013/11/27
 22 23  0  0  0  0  0  0  0  0999 V2000
   19.5192   18.5556   32.0544 N   0  0  0  0  0  0  0  0  0  0  0  0
   21.6920   14.6499   29.7740 N   0  0  0  0  0  0  0  0  0  0  0  0
   28.2793   13.9281   30.1634 N   0  0  0  0  0  0  0  0  0  0  0  0
   24.2688   17.5022   32.9702 O   0  0  0  0  0  0  0  0  0  0  0  0
   23.2351   17.4659   31.9441 C   0  0  2  0  0  0  0  0  0  0  0  0
   23.1892   17.3661   28.6697 N   0  0  0  0  0  0  0  0  0  0  0  0
   22.0607   19.3559   32.9977 O   0  0  0  0  0  0  0  0  0  0  0  0
   21.8993   18.0171   32.5145 C   0  0  1  0  0  0  0  0  0  0  0  0
   24.2317   15.5261   30.8249 O   0  0  0  0  0  0  0  0  0  0  0  0
   20.8029   18.0208   31.4562 C   0  0  1  0  0  0  0  0  0  0  0  0
   26.2934   15.5228   29.7787 O   0  0  0  0  0  0  0  0  0  0  0  0
   20.5884   16.5661   30.9169 C   0  0  0  0  0  0  0  0  0  0  0  0
   25.3743   13.2865   27.0146 O   0  0  0  0  0  0  0  0  0  0  0  0
   21.9497   16.0503   30.3105 C   0  0  1  0  0  0  0  0  0  0  0  0
   23.7182   15.5478   26.5106 O   0  0  0  0  0  0  0  0  0  0  0  0
   23.0260   15.9939   31.4098 C   0  0  2  0  0  0  0  0  0  0  0  0
   25.0612   16.3355   30.0104 C   0  0  1  0  0  0  0  0  0  0  0  0
   26.1086   14.2219   29.0754 C   0  0  2  0  0  0  0  0  0  0  0  0
   27.4735   13.5359   28.9629 C   0  0  0  0  0  0  0  0  0  0  0  0
   25.5581   14.5050   27.6955 C   0  0  2  0  0  0  0  0  0  0  0  0
   24.2405   15.2689   27.8148 C   0  0  1  0  0  0  0  0  0  0  0  0
   24.4811   16.5957   28.5762 C   0  0  1  0  0  0  0  0  0  0  0  0
  5  4  1  1  0  0  0
  5  8  1  0  0  0  0
  5 16  1  0  0  0  0
  8  7  1  6  0  0  0
  8 10  1  0  0  0  0
 10  1  1  1  0  0  0
 10 12  1  0  0  0  0
 11 18  1  0  0  0  0
 12 14  1  0  0  0  0
 14  2  1  1  0  0  0
 14 16  1  0  0  0  0
 16  9  1  6  0  0  0
 17  9  1  1  0  0  0
 17 11  1  0  0  0  0
 17 22  1  0  0  0  0
 18 19  1  6  0  0  0
 18 20  1  0  0  0  0
 19  3  1  0  0  0  0
 20 13  1  1  0  0  0
 20 21  1  0  0  0  0
 21 15  1  6  0  0  0
 21 22  1  0  0  0  0
 22  6  1  1  0  0  0
M  END
>  <CHROM.1>
-40.79075203,172.12192110,31.77103708,23.80068267,16.07882661,30.06328223
2.36690615,-0.33170129,1.09914910

>  <Name>
2f4s_lig

>  <RI>
0

>  <Rbt.Current_Directory>
/home/itssahil/PROJECTS/Mol_Feturizer/New_Systems/rnas/2f4s

>  <Rbt.Executable>
rbdock ($Id: //depot/dev/client3/rdock/2013.1/src/exe/rbdock.cxx#4 $)

>  <Rbt.Library>
libRbt.so (2013.1, Build901 2013/11/27)

>  <Rbt.Parameter_File>
/export/apps/rDock/src/rDock_2013.1_src/data/scripts/dock_solv.prm

>  <Rbt.Receptor>
prm/blind_docking_100.prm

>  <SCORE>
7.14651

>  <SCORE.INTER>
-3.04097

>  <SCORE.INTER.CONST>
1

>  <SCORE.INTER.POLAR>
-0.950111

>  <SCORE.INTER.ROT>
3

>  <SCORE.INTER.SOLV>
26.9062

>  <SCORE.INTER.VDW>
-13.429

>  <SCORE.INTER.norm>
-0.138226

>  <SCORE.INTRA>
8.45557

>  <SCORE.INTRA.DIHEDRAL>
2.80845

>  <SCORE.INTRA.DIHEDRAL.0>
1.67653

>  <SCORE.INTRA.POLAR>
0

>  <SCORE.INTRA.POLAR.0>
0

>  <SCORE.INTRA.REPUL>
0

>  <SCORE.INTRA.REPUL.0>
0

>  <SCORE.INTRA.SOLV>
7.18675

>  <SCORE.INTRA.SOLV.lig_0>
-76.6701

>  <SCORE.INTRA.VDW>
3.45797

>  <SCORE.INTRA.VDW.0>
-1.53273

>  <SCORE.INTRA.norm>
0.384344

>  <SCORE.RESTR>
1.73191

>  <SCORE.RESTR.CAVITY>
1.73191

>  <SCORE.RESTR.norm>
0.0787231

>  <SCORE.SYSTEM>
0

>  <SCORE.SYSTEM.CONST>
0

>  <SCORE.SYSTEM.DIHEDRAL>
0

>  <SCORE.SYSTEM.SOLV>
0

>  <SCORE.SYSTEM.norm>
0

>  <SCORE.heavy>
22

>  <SCORE.norm>
0.324841

>  <RMSD>
9.397

$$$$
2f4s_lig
 OpenBabel11021811433D
libRbt.so/2013.1/901 2013/11/27
 22 23  0  0  0  0  0  0  0  0999 V2000
   22.7497   18.2717   34.2781 N   0  0  0  0  0  0  0  0  0  0  0  0
   21.4643   16.7080   29.6870 N   0  0  0  0  0  0  0  0  0  0  0  0
   28.3938   12.7205   29.4150 N   0  0  0  0  0  0  0  0  0  0  0  0
   25.5666   14.9435   31.9339 O   0  0  0  0  0  0  0  0  0  0  0  0
   24.6983   16.0962   31.7331 C   0  0  2  0  0  0  0  0  0  0  0  0
   23.4631   16.1327   26.6405 N   0  0  0  0  0  0  0  0  0  0  0  0
   25.2265   16.9420   33.9841 O   0  0  0  0  0  0  0  0  0  0  0  0
   24.1541   16.5971   33.0992 C   0  0  1  0  0  0  0  0  0  0  0  0
   24.0012   15.3466   29.5058 O   0  0  0  0  0  0  0  0  0  0  0  0
   23.2646   17.8224   32.9273 C   0  0  1  0  0  0  0  0  0  0  0  0
   26.2460   15.7863   29.1702 O   0  0  0  0  0  0  0  0  0  0  0  0
   22.0697   17.4750   31.9764 C   0  0  0  0  0  0  0  0  0  0  0  0
   26.9943   12.7639   27.2231 O   0  0  0  0  0  0  0  0  0  0  0  0
   22.6534   17.0079   30.5878 C   0  0  1  0  0  0  0  0  0  0  0  0
   25.1803   14.1304   25.5048 O   0  0  0  0  0  0  0  0  0  0  0  0
   23.4960   15.7331   30.7747 C   0  0  2  0  0  0  0  0  0  0  0  0
   24.8666   16.1627   28.7366 C   0  0  1  0  0  0  0  0  0  0  0  0
   26.6497   14.3695   28.9449 C   0  0  2  0  0  0  0  0  0  0  0  0
   28.0731   14.1826   29.4788 C   0  0  0  0  0  0  0  0  0  0  0  0
   26.6172   14.1000   27.4571 C   0  0  2  0  0  0  0  0  0  0  0  0
   25.2155   14.3755   26.9156 C   0  0  1  0  0  0  0  0  0  0  0  0
   24.8336   15.8491   27.1998 C   0  0  1  0  0  0  0  0  0  0  0  0
  5  4  1  1  0  0  0
  5  8  1  0  0  0  0
  5 16  1  0  0  0  0
  8  7  1  1  0  0  0
  8 10  1  0  0  0  0
 10  1  1  1  0  0  0
 10 12  1  0  0  0  0
 11 18  1  0  0  0  0
 12 14  1  0  0  0  0
 14  2  1  6  0  0  0
 14 16  1  0  0  0  0
 16  9  1  6  0  0  0
 17  9  1  1  0  0  0
 17 11  1  0  0  0  0
 17 22  1  0  0  0  0
 18 19  1  6  0  0  0
 18 20  1  0  0  0  0
 19  3  1  0  0  0  0
 20 13  1  1  0  0  0
 20 21  1  0  0  0  0
 21 15  1  6  0  0  0
 21 22  1  0  0  0  0
 22  6  1  1  0  0  0
M  END
>  <CHROM.1>
-55.22509584,89.64719752,172.49323847,24.84586508,15.58391400,29.86046854
-2.09683747,0.52666806,-1.82606918

>  <Name>
2f4s_lig

>  <RI>
0

>  <Rbt.Current_Directory>
/home/itssahil/PROJECTS/Mol_Feturizer/New_Systems/rnas/2f4s

>  <Rbt.Executable>
rbdock ($Id: //depot/dev/client3/rdock/2013.1/src/exe/rbdock.cxx#4 $)

>  <Rbt.Library>
libRbt.so (2013.1, Build901 2013/11/27)

>  <Rbt.Parameter_File>
/export/apps/rDock/src/rDock_2013.1_src/data/scripts/dock_solv.prm

>  <Rbt.Receptor>
prm/blind_docking_100.prm

>  <SCORE>
1.00518

>  <SCORE.INTER>
-4.57021

>  <SCORE.INTER.CONST>
1

>  <SCORE.INTER.POLAR>
0

>  <SCORE.INTER.ROT>
3

>  <SCORE.INTER.SOLV>
26.1628

>  <SCORE.INTER.VDW>
-17.3677

>  <SCORE.INTER.norm>
-0.207737

>  <SCORE.INTRA>
2.91058

>  <SCORE.INTRA.DIHEDRAL>
2.20855

>  <SCORE.INTRA.DIHEDRAL.0>
1.67653

>  <SCORE.INTRA.POLAR>
0

>  <SCORE.INTRA.POLAR.0>
0

>  <SCORE.INTRA.REPUL>
0

>  <SCORE.INTRA.REPUL.0>
0

>  <SCORE.INTRA.SOLV>
2.84968

>  <SCORE.INTRA.SOLV.lig_0>
-76.6701

>  <SCORE.INTRA.VDW>
0.38147

>  <SCORE.INTRA.VDW.0>
-1.53273

>  <SCORE.INTRA.norm>
0.132299

>  <SCORE.RESTR>
2.66481

>  <SCORE.RESTR.CAVITY>
2.66481

>  <SCORE.RESTR.norm>
0.121128

>  <SCORE.SYSTEM>
0

>  <SCORE.SYSTEM.CONST>
0

>  <SCORE.SYSTEM.DIHEDRAL>
0

>  <SCORE.SYSTEM.SOLV>
0

>  <SCORE.SYSTEM.norm>
0

>  <SCORE.heavy>
22

>  <SCORE.norm>
0.0456902

>  <RMSD>
9.751

$$$$
2f4s_lig
 OpenBabel11021811433D
libRbt.so/2013.1/901 2013/11/27
 22 23  0  0  0  0  0  0  0  0999 V2000
   22.7682   18.1317   34.1909 N   0  0  0  0  0  0  0  0  0  0  0  0
   21.4114   16.5214   29.6366 N   0  0  0  0  0  0  0  0  0  0  0  0
   28.2259   14.7596   30.4453 N   0  0  0  0  0  0  0  0  0  0  0  0
   25.6496   14.9271   31.7547 O   0  0  0  0  0  0  0  0  0  0  0  0
   24.7283   16.0427   31.5830 C   0  0  2  0  0  0  0  0  0  0  0  0
   23.4189   16.1938   26.5605 N   0  0  0  0  0  0  0  0  0  0  0  0
   25.2883   16.9070   33.8193 O   0  0  0  0  0  0  0  0  0  0  0  0
   24.2051   16.5187   32.9662 C   0  0  1  0  0  0  0  0  0  0  0  0
   23.9962   15.2675   29.3758 O   0  0  0  0  0  0  0  0  0  0  0  0
   23.2605   17.7060   32.8241 C   0  0  1  0  0  0  0  0  0  0  0  0
   26.2471   15.6396   29.0013 O   0  0  0  0  0  0  0  0  0  0  0  0
   22.0530   17.3101   31.9086 C   0  0  0  0  0  0  0  0  0  0  0  0
   26.8353   12.6778   26.9114 O   0  0  0  0  0  0  0  0  0  0  0  0
   22.6135   16.8696   30.5020 C   0  0  1  0  0  0  0  0  0  0  0  0
   25.0324   14.1809   25.2987 O   0  0  0  0  0  0  0  0  0  0  0  0
   23.5139   15.6309   30.6603 C   0  0  2  0  0  0  0  0  0  0  0  0
   24.8726   16.0837   28.6193 C   0  0  1  0  0  0  0  0  0  0  0  0
   26.5923   14.2200   28.7068 C   0  0  2  0  0  0  0  0  0  0  0  0
   28.0203   13.9591   29.1958 C   0  0  0  0  0  0  0  0  0  0  0  0
   26.5139   14.0154   27.2104 C   0  0  2  0  0  0  0  0  0  0  0  0
   25.1108   14.3642   26.7171 C   0  0  1  0  0  0  0  0  0  0  0  0
   24.7909   15.8372   27.0721 C   0  0  1  0  0  0  0  0  0  0  0  0
  5  4  1  1  0  0  0
  5  8  1  0  0  0  0
  5 16  1  0  0  0  0
  8  7  1  1  0  0  0
  8 10  1  0  0  0  0
 10  1  1  1  0  0  0
 10 12  1  0  0  0  0
 11 18  1  0  0  0  0
 12 14  1  0  0  0  0
 14  2  1  6  0  0  0
 14 16  1  0  0  0  0
 16  9  1  6  0  0  0
 17  9  1  1  0  0  0
 17 11  1  0  0  0  0
 17 22  1  0  0  0  0
 18 19  1  6  0  0  0
 18 20  1  0  0  0  0
 19  3  1  0  0  0  0
 20 13  1  1  0  0  0
 20 21  1  0  0  0  0
 21 15  1  6  0  0  0
 21 22  1  0  0  0  0
 22  6  1  1  0  0  0
M  END
>  <CHROM.1>
-51.06016882,91.04042494,35.36736732,24.81265816,15.59566368,29.75788200
2.00671758,-0.43905606,1.28949298

>  <Name>
2f4s_lig

>  <RI>
0

>  <Rbt.Current_Directory>
/home/itssahil/PROJECTS/Mol_Feturizer/New_Systems/rnas/2f4s

>  <Rbt.Executable>
rbdock ($Id: //depot/dev/client3/rdock/2013.1/src/exe/rbdock.cxx#4 $)

>  <Rbt.Library>
libRbt.so (2013.1, Build901 2013/11/27)

>  <Rbt.Parameter_File>
/export/apps/rDock/src/rDock_2013.1_src/data/scripts/dock_solv.prm

>  <Rbt.Receptor>
prm/blind_docking_100.prm

>  <SCORE>
5.50154

>  <SCORE.INTER>
-1.57712

>  <SCORE.INTER.CONST>
1

>  <SCORE.INTER.POLAR>
-0.654639

>  <SCORE.INTER.ROT>
3

>  <SCORE.INTER.SOLV>
29.9753

>  <SCORE.INTER.VDW>
-14.461

>  <SCORE.INTER.norm>
-0.0716875

>  <SCORE.INTRA>
4.12129

>  <SCORE.INTRA.DIHEDRAL>
4.42878

>  <SCORE.INTRA.DIHEDRAL.0>
1.67653

>  <SCORE.INTRA.POLAR>
0

>  <SCORE.INTRA.POLAR.0>
0

>  <SCORE.INTRA.REPUL>
0

>  <SCORE.INTRA.REPUL.0>
0

>  <SCORE.INTRA.SOLV>
3.52806

>  <SCORE.INTRA.SOLV.lig_0>
-76.6701

>  <SCORE.INTRA.VDW>
0.142878

>  <SCORE.INTRA.VDW.0>
-1.53273

>  <SCORE.INTRA.norm>
0.187332

>  <SCORE.RESTR>
2.95737

>  <SCORE.RESTR.CAVITY>
2.95737

>  <SCORE.RESTR.norm>
0.134426

>  <SCORE.SYSTEM>
0

>  <SCORE.SYSTEM.CONST>
0

>  <SCORE.SYSTEM.DIHEDRAL>
0

>  <SCORE.SYSTEM.SOLV>
0

>  <SCORE.SYSTEM.norm>
0

>  <SCORE.heavy>
22

>  <SCORE.norm>
0.25007

>  <RMSD>
9.828

$$$$
2f4s_lig
 OpenBabel11021811433D
libRbt.so/2013.1/901 2013/11/27
 22 23  0  0  0  0  0  0  0  0999 V2000
   20.0806   18.4517   31.6456 N   0  0  0  0  0  0  0  0  0  0  0  0
   22.0975   14.7632   28.9064 N   0  0  0  0  0  0  0  0  0  0  0  0
   29.1818   13.5860   28.2071 N   0  0  0  0  0  0  0  0  0  0  0  0
   24.6214   16.7943   32.7137 O   0  0  0  0  0  0  0  0  0  0  0  0
   23.6828   17.0265   31.6238 C   0  0  2  0  0  0  0  0  0  0  0  0
   23.8116   16.4389   27.6323 N   0  0  0  0  0  0  0  0  0  0  0  0
   22.5891   18.8317   32.8914 O   0  0  0  0  0  0  0  0  0  0  0  0
   22.3550   17.6105   32.1802 C   0  0  1  0  0  0  0  0  0  0  0  0
   24.6014   15.2007   30.2706 O   0  0  0  0  0  0  0  0  0  0  0  0
   21.3605   17.8934   31.0609 C   0  0  1  0  0  0  0  0  0  0  0  0
   26.8228   15.4018   29.6622 O   0  0  0  0  0  0  0  0  0  0  0  0
   21.0685   16.5727   30.2713 C   0  0  0  0  0  0  0  0  0  0  0  0
   26.8740   12.6111   27.2758 O   0  0  0  0  0  0  0  0  0  0  0  0
   22.4279   16.0267   29.6873 C   0  0  1  0  0  0  0  0  0  0  0  0
   25.0641   14.4175   26.0221 O   0  0  0  0  0  0  0  0  0  0  0  0
   23.3942   15.6875   30.8367 C   0  0  2  0  0  0  0  0  0  0  0  0
   25.4663   16.0026   29.4860 C   0  0  1  0  0  0  0  0  0  0  0  0
   26.9884   13.9913   29.2105 C   0  0  2  0  0  0  0  0  0  0  0  0
   28.4282   13.5571   29.5016 C   0  0  0  0  0  0  0  0  0  0  0  0
   26.7243   13.9378   27.7223 C   0  0  2  0  0  0  0  0  0  0  0  0
   25.3174   14.4573   27.4313 C   0  0  1  0  0  0  0  0  0  0  0  0
   25.1890   15.9127   27.9444 C   0  0  1  0  0  0  0  0  0  0  0  0
  5  4  1  1  0  0  0
  5  8  1  0  0  0  0
  5 16  1  0  0  0  0
  8  7  1  6  0  0  0
  8 10  1  0  0  0  0
 10  1  1  1  0  0  0
 10 12  1  0  0  0  0
 11 18  1  0  0  0  0
 12 14  1  0  0  0  0
 14  2  1  1  0  0  0
 14 16  1  0  0  0  0
 16  9  1  6  0  0  0
 17  9  1  1  0  0  0
 17 11  1  0  0  0  0
 17 22  1  0  0  0  0
 18 19  1  6  0  0  0
 18 20  1  0  0  0  0
 19  3  1  0  0  0  0
 20 13  1  1  0  0  0
 20 21  1  0  0  0  0
 21 15  1  6  0  0  0
 21 22  1  0  0  0  0
 22  6  1  1  0  0  0
M  END
>  <CHROM.1>
-50.92696134,152.97698433,-103.03418635,24.49114161,15.67868656,29.64861250
2.41863067,-0.33574833,1.12278586

>  <Name>
2f4s_lig

>  <RI>
0

>  <Rbt.Current_Directory>
/home/itssahil/PROJECTS/Mol_Feturizer/New_Systems/rnas/2f4s

>  <Rbt.Executable>
rbdock ($Id: //depot/dev/client3/rdock/2013.1/src/exe/rbdock.cxx#4 $)

>  <Rbt.Library>
libRbt.so (2013.1, Build901 2013/11/27)

>  <Rbt.Parameter_File>
/export/apps/rDock/src/rDock_2013.1_src/data/scripts/dock_solv.prm

>  <Rbt.Receptor>
prm/blind_docking_100.prm

>  <SCORE>
6.80554

>  <SCORE.INTER>
-6.06415

>  <SCORE.INTER.CONST>
1

>  <SCORE.INTER.POLAR>
0

>  <SCORE.INTER.ROT>
3

>  <SCORE.INTER.SOLV>
21.8534

>  <SCORE.INTER.VDW>
-16.9272

>  <SCORE.INTER.norm>
-0.275643

>  <SCORE.INTRA>
11.1085

>  <SCORE.INTRA.DIHEDRAL>
6.10116

>  <SCORE.INTRA.DIHEDRAL.0>
1.67653

>  <SCORE.INTRA.POLAR>
0

>  <SCORE.INTRA.POLAR.0>
0

>  <SCORE.INTRA.REPUL>
0

>  <SCORE.INTRA.REPUL.0>
0

>  <SCORE.INTRA.SOLV>
7.77215

>  <SCORE.INTRA.SOLV.lig_0>
-76.6701

>  <SCORE.INTRA.VDW>
4.17188

>  <SCORE.INTRA.VDW.0>
-1.53273

>  <SCORE.INTRA.norm>
0.504933

>  <SCORE.RESTR>
1.76116

>  <SCORE.RESTR.CAVITY>
1.76116

>  <SCORE.RESTR.norm>
0.0800526

>  <SCORE.SYSTEM>
0

>  <SCORE.SYSTEM.CONST>
0

>  <SCORE.SYSTEM.DIHEDRAL>
0

>  <SCORE.SYSTEM.SOLV>
0

>  <SCORE.SYSTEM.norm>
0

>  <SCORE.heavy>
22

>  <SCORE.norm>
0.309343

>  <RMSD>
9.918

$$$$
2f4s_lig
 OpenBabel11021811433D
libRbt.so/2013.1/901 2013/11/27
 22 23  0  0  0  0  0  0  0  0999 V2000
   19.9557   18.3493   31.6959 N   0  0  0  0  0  0  0  0  0  0  0  0
   21.9553   14.7010   28.8911 N   0  0  0  0  0  0  0  0  0  0  0  0
   28.6574   12.3836   29.1693 N   0  0  0  0  0  0  0  0  0  0  0  0
   24.5988   16.8570   32.5455 O   0  0  0  0  0  0  0  0  0  0  0  0
   23.5986   17.0457   31.5029 C   0  0  2  0  0  0  0  0  0  0  0  0
   23.6107   16.2705   27.4301 N   0  0  0  0  0  0  0  0  0  0  0  0
   22.5099   18.8269   32.8082 O   0  0  0  0  0  0  0  0  0  0  0  0
   22.2817   17.5909   32.1211 C   0  0  1  0  0  0  0  0  0  0  0  0
   24.5090   15.2372   30.1213 O   0  0  0  0  0  0  0  0  0  0  0  0
   21.2225   17.8280   31.0516 C   0  0  1  0  0  0  0  0  0  0  0  0
   26.7048   15.5727   29.4803 O   0  0  0  0  0  0  0  0  0  0  0  0
   20.9359   16.4897   30.2901 C   0  0  0  0  0  0  0  0  0  0  0  0
   26.9525   12.6712   27.2430 O   0  0  0  0  0  0  0  0  0  0  0  0
   22.2817   15.9833   29.6424 C   0  0  1  0  0  0  0  0  0  0  0  0
   25.0028   14.2668   25.9152 O   0  0  0  0  0  0  0  0  0  0  0  0
   23.3162   15.6893   30.7439 C   0  0  2  0  0  0  0  0  0  0  0  0
   25.3054   16.0593   29.2868 C   0  0  1  0  0  0  0  0  0  0  0  0
   26.9740   14.1568   29.1014 C   0  0  2  0  0  0  0  0  0  0  0  0
   28.4445   13.8485   29.3999 C   0  0  0  0  0  0  0  0  0  0  0  0
   26.7053   14.0046   27.6209 C   0  0  2  0  0  0  0  0  0  0  0  0
   25.2613   14.4003   27.3176 C   0  0  1  0  0  0  0  0  0  0  0  0
   25.0260   15.8670   27.7551 C   0  0  1  0  0  0  0  0  0  0  0  0
  5  4  1  1  0  0  0
  5  8  1  0  0  0  0
  5 16  1  0  0  0  0
  8  7  1  6  0  0  0
  8 10  1  0  0  0  0
 10  1  1  1  0  0  0
 10 12  1  0  0  0  0
 11 18  1  0  0  0  0
 12 14  1  0  0  0  0
 14  2  1  1  0  0  0
 14 16  1  0  0  0  0
 16  9  1  6  0  0  0
 17  9  1  1  0  0  0
 17 11  1  0  0  0  0
 17 22  1  0  0  0  0
 18 19  1  6  0  0  0
 18 20  1  0  0  0  0
 19  3  1  0  0  0  0
 20 13  1  1  0  0  0
 20 21  1  0  0  0  0
 21 15  1  6  0  0  0
 21 22  1  0  0  0  0
 22  6  1  1  0  0  0
M  END
>  <CHROM.1>
-50.88583293,148.74178249,173.35286739,24.38669992,15.63111467,29.59987376
2.42938442,-0.36548096,1.12731936

>  <Name>
2f4s_lig

>  <RI>
0

>  <Rbt.Current_Directory>
/home/itssahil/PROJECTS/Mol_Feturizer/New_Systems/rnas/2f4s

>  <Rbt.Executable>
rbdock ($Id: //depot/dev/client3/rdock/2013.1/src/exe/rbdock.cxx#4 $)

>  <Rbt.Library>
libRbt.so (2013.1, Build901 2013/11/27)

>  <Rbt.Parameter_File>
/export/apps/rDock/src/rDock_2013.1_src/data/scripts/dock_solv.prm

>  <Rbt.Receptor>
prm/blind_docking_100.prm

>  <SCORE>
1.42034

>  <SCORE.INTER>
-6.62017

>  <SCORE.INTER.CONST>
1

>  <SCORE.INTER.POLAR>
0

>  <SCORE.INTER.ROT>
3

>  <SCORE.INTER.SOLV>
23.442

>  <SCORE.INTER.VDW>
-17.8274

>  <SCORE.INTER.norm>
-0.300917

>  <SCORE.INTRA>
6.47824

>  <SCORE.INTRA.DIHEDRAL>
2.74729

>  <SCORE.INTRA.DIHEDRAL.0>
1.67653

>  <SCORE.INTRA.POLAR>
0

>  <SCORE.INTRA.POLAR.0>
0

>  <SCORE.INTRA.REPUL>
0

>  <SCORE.INTRA.REPUL.0>
0

>  <SCORE.INTRA.SOLV>
6.53494

>  <SCORE.INTRA.SOLV.lig_0>
-76.6701

>  <SCORE.INTRA.VDW>
1.83712

>  <SCORE.INTRA.VDW.0>
-1.53273

>  <SCORE.INTRA.norm>
0.294465

>  <SCORE.RESTR>
1.56227

>  <SCORE.RESTR.CAVITY>
1.56227

>  <SCORE.RESTR.norm>
0.0710122

>  <SCORE.SYSTEM>
0

>  <SCORE.SYSTEM.CONST>
0

>  <SCORE.SYSTEM.DIHEDRAL>
0

>  <SCORE.SYSTEM.SOLV>
0

>  <SCORE.SYSTEM.norm>
0

>  <SCORE.heavy>
22

>  <SCORE.norm>
0.0645609

>  <RMSD>
9.924

$$$$
2f4s_lig
 OpenBabel11021811433D
libRbt.so/2013.1/901 2013/11/27
 22 23  0  0  0  0  0  0  0  0999 V2000
   15.9291   10.6409   46.2467 N   0  0  0  0  0  0  0  0  0  0  0  0
   20.9106   11.1818   45.9852 N   0  0  0  0  0  0  0  0  0  0  0  0
   19.9241   12.1910   40.7556 N   0  0  0  0  0  0  0  0  0  0  0  0
   18.4409    8.5393   42.5344 O   0  0  0  0  0  0  0  0  0  0  0  0
   18.5206    8.9191   43.9387 C   0  0  2  0  0  0  0  0  0  0  0  0
   23.0495    7.1211   43.4148 N   0  0  0  0  0  0  0  0  0  0  0  0
   16.0780    8.7223   44.1765 O   0  0  0  0  0  0  0  0  0  0  0  0
   17.1946    9.5955   44.3834 C   0  0  1  0  0  0  0  0  0  0  0  0
   20.9482    9.2460   43.8467 O   0  0  0  0  0  0  0  0  0  0  0  0
   17.2337    9.9788   45.8577 C   0  0  1  0  0  0  0  0  0  0  0  0
   20.8766    9.5928   41.5620 O   0  0  0  0  0  0  0  0  0  0  0  0
   18.4358   10.9487   46.1166 C   0  0  0  0  0  0  0  0  0  0  0  0
   24.0344   11.4498   41.3052 O   0  0  0  0  0  0  0  0  0  0  0  0
   19.7685   10.2200   45.6924 C   0  0  1  0  0  0  0  0  0  0  0  0
   24.9337    8.8846   42.1547 O   0  0  0  0  0  0  0  0  0  0  0  0
   19.7347    9.8989   44.1871 C   0  0  2  0  0  0  0  0  0  0  0  0
   21.1443    8.5697   42.6175 C   0  0  1  0  0  0  0  0  0  0  0  0
   21.7621   10.7915   41.5591 C   0  0  2  0  0  0  0  0  0  0  0  0
   21.3096   11.7230   40.4304 C   0  0  0  0  0  0  0  0  0  0  0  0
   23.1807   10.3303   41.3098 C   0  0  2  0  0  0  0  0  0  0  0  0
   23.5936    9.3321   42.3901 C   0  0  1  0  0  0  0  0  0  0  0  0
   22.6274    8.1221   42.3702 C   0  0  1  0  0  0  0  0  0  0  0  0
  5  4  1  6  0  0  0
  5  8  1  0  0  0  0
  5 16  1  0  0  0  0
  8  7  1  1  0  0  0
  8 10  1  0  0  0  0
 10  1  1  6  0  0  0
 10 12  1  0  0  0  0
 11 18  1  0  0  0  0
 12 14  1  0  0  0  0
 14  2  1  6  0  0  0
 14 16  1  0  0  0  0
 16  9  1  1  0  0  0
 17  9  1  1  0  0  0
 17 11  1  0  0  0  0
 17 22  1  0  0  0  0
 18 19  1  6  0  0  0
 18 20  1  0  0  0  0
 19  3  1  0  0  0  0
 20 13  1  1  0  0  0
 20 21  1  0  0  0  0
 21 15  1  6  0  0  0
 21 22  1  0  0  0  0
 22  6  1  1  0  0  0
M  END
>  <CHROM.1>
49.90987068,56.92087446,64.16159572,20.45371204,9.81017712,43.27932674,2.73380249
-0.33922940,2.21089106

>  <Name>
2f4s_lig

>  <RI>
0

>  <Rbt.Current_Directory>
/home/itssahil/PROJECTS/Mol_Feturizer/New_Systems/rnas/2f4s

>  <Rbt.Executable>
rbdock ($Id: //depot/dev/client3/rdock/2013.1/src/exe/rbdock.cxx#4 $)

>  <Rbt.Library>
libRbt.so (2013.1, Build901 2013/11/27)

>  <Rbt.Parameter_File>
/export/apps/rDock/src/rDock_2013.1_src/data/scripts/dock_solv.prm

>  <Rbt.Receptor>
prm/pocket_docking_8.prm

>  <SCORE>
-6.46768

>  <SCORE.INTER>
-6.84617

>  <SCORE.INTER.CONST>
1

>  <SCORE.INTER.POLAR>
-1.79978

>  <SCORE.INTER.ROT>
3

>  <SCORE.INTER.SOLV>
12.3893

>  <SCORE.INTER.VDW>
-8.29463

>  <SCORE.INTER.norm>
-0.31119

>  <SCORE.INTRA>
0.378493

>  <SCORE.INTRA.DIHEDRAL>
-0.919499

>  <SCORE.INTRA.DIHEDRAL.0>
1.67653

>  <SCORE.INTRA.POLAR>
0

>  <SCORE.INTRA.POLAR.0>
0

>  <SCORE.INTRA.REPUL>
0

>  <SCORE.INTRA.REPUL.0>
0

>  <SCORE.INTRA.SOLV>
-0.101322

>  <SCORE.INTRA.SOLV.lig_0>
-76.6701

>  <SCORE.INTRA.VDW>
0.888904

>  <SCORE.INTRA.VDW.0>
-1.53273

>  <SCORE.INTRA.norm>
0.0172042

>  <SCORE.RESTR>
0

>  <SCORE.RESTR.CAVITY>
0

>  <SCORE.RESTR.norm>
0

>  <SCORE.SYSTEM>
0

>  <SCORE.SYSTEM.CONST>
0

>  <SCORE.SYSTEM.DIHEDRAL>
0

>  <SCORE.SYSTEM.SOLV>
0

>  <SCORE.SYSTEM.norm>
0

>  <SCORE.heavy>
22

>  <SCORE.norm>
-0.293985

>  <RMSD>
10.036

$$$$
2f4s_lig
 OpenBabel11021811433D
libRbt.so/2013.1/901 2013/11/27
 22 23  0  0  0  0  0  0  0  0999 V2000
   16.5087    9.1491   46.1249 N   0  0  0  0  0  0  0  0  0  0  0  0
   19.6721    8.2802   42.3283 N   0  0  0  0  0  0  0  0  0  0  0  0
   22.3933   12.7603   39.8598 N   0  0  0  0  0  0  0  0  0  0  0  0
   20.9687   11.2974   46.0973 O   0  0  0  0  0  0  0  0  0  0  0  0
   19.8872   10.8265   45.2420 C   0  0  2  0  0  0  0  0  0  0  0  0
   23.4024    8.4596   44.6351 N   0  0  0  0  0  0  0  0  0  0  0  0
   18.2484   11.1776   47.0455 O   0  0  0  0  0  0  0  0  0  0  0  0
   18.7502   10.2177   46.1081 C   0  0  1  0  0  0  0  0  0  0  0  0
   21.4008   10.3378   43.3769 O   0  0  0  0  0  0  0  0  0  0  0  0
   17.5883    9.7418   45.2446 C   0  0  1  0  0  0  0  0  0  0  0  0
   22.7418   10.4547   41.4972 O   0  0  0  0  0  0  0  0  0  0  0  0
   18.0996    8.6763   44.2168 C   0  0  0  0  0  0  0  0  0  0  0  0
   25.3072   12.6573   42.9299 O   0  0  0  0  0  0  0  0  0  0  0  0
   19.2236    9.3356   43.3286 C   0  0  1  0  0  0  0  0  0  0  0  0
   25.5907   10.3162   44.5265 O   0  0  0  0  0  0  0  0  0  0  0  0
   20.4142    9.7510   44.2118 C   0  0  2  0  0  0  0  0  0  0  0  0
   22.3408    9.5776   42.6384 C   0  0  1  0  0  0  0  0  0  0  0  0
   23.3916   11.7485   41.8502 C   0  0  2  0  0  0  0  0  0  0  0  0
   23.6963   12.5052   40.5537 C   0  0  0  0  0  0  0  0  0  0  0  0
   24.6782   11.4459   42.5854 C   0  0  2  0  0  0  0  0  0  0  0  0
   24.3749   10.6138   43.8302 C   0  0  1  0  0  0  0  0  0  0  0  0
   23.6763    9.2966   43.4121 C   0  0  1  0  0  0  0  0  0  0  0  0
  5  4  1  1  0  0  0
  5  8  1  0  0  0  0
  5 16  1  0  0  0  0
  8  7  1  1  0  0  0
  8 10  1  0  0  0  0
 10  1  1  1  0  0  0
 10 12  1  0  0  0  0
 11 18  1  0  0  0  0
 12 14  1  0  0  0  0
 14  2  1  6  0  0  0
 14 16  1  0  0  0  0
 16  9  1  6  0  0  0
 17  9  1  1  0  0  0
 17 11  1  0  0  0  0
 17 22  1  0  0  0  0
 18 19  1  6  0  0  0
 18 20  1  0  0  0  0
 19  3  1  0  0  0  0
 20 13  1  1  0  0  0
 20 21  1  0  0  0  0
 21 15  1  6  0  0  0
 21 22  1  0  0  0  0
 22  6  1  1  0  0  0
M  END
>  <CHROM.1>
160.47271924,155.49256113,61.13278401,21.50673696,10.42148324,43.72723685
2.63645127,0.19704432,1.70704186

>  <Name>
2f4s_lig

>  <RI>
0

>  <Rbt.Current_Directory>
/home/itssahil/PROJECTS/Mol_Feturizer/New_Systems/rnas/2f4s

>  <Rbt.Executable>
rbdock ($Id: //depot/dev/client3/rdock/2013.1/src/exe/rbdock.cxx#4 $)

>  <Rbt.Library>
libRbt.so (2013.1, Build901 2013/11/27)

>  <Rbt.Parameter_File>
/export/apps/rDock/src/rDock_2013.1_src/data/scripts/dock_solv.prm

>  <Rbt.Receptor>
prm/pocket_docking_8.prm

>  <SCORE>
-8.47588

>  <SCORE.INTER>
-10.5787

>  <SCORE.INTER.CONST>
1

>  <SCORE.INTER.POLAR>
-1.63891

>  <SCORE.INTER.ROT>
3

>  <SCORE.INTER.SOLV>
11.842

>  <SCORE.INTER.VDW>
-11.1368

>  <SCORE.INTER.norm>
-0.480851

>  <SCORE.INTRA>
2.10284

>  <SCORE.INTRA.DIHEDRAL>
2.69119

>  <SCORE.INTRA.DIHEDRAL.0>
1.67653

>  <SCORE.INTRA.POLAR>
0

>  <SCORE.INTRA.POLAR.0>
0

>  <SCORE.INTRA.REPUL>
0

>  <SCORE.INTRA.REPUL.0>
0

>  <SCORE.INTRA.SOLV>
1.56682

>  <SCORE.INTRA.SOLV.lig_0>
-76.6701

>  <SCORE.INTRA.VDW>
-0.0261588

>  <SCORE.INTRA.VDW.0>
-1.53273

>  <SCORE.INTRA.norm>
0.0955838

>  <SCORE.RESTR>
0

>  <SCORE.RESTR.CAVITY>
0

>  <SCORE.RESTR.norm>
0

>  <SCORE.SYSTEM>
0

>  <SCORE.SYSTEM.CONST>
0

>  <SCORE.SYSTEM.DIHEDRAL>
0

>  <SCORE.SYSTEM.SOLV>
0

>  <SCORE.SYSTEM.norm>
0

>  <SCORE.heavy>
22

>  <SCORE.norm>
-0.385267

>  <RMSD>
10.136

$$$$
2f4s_lig
 OpenBabel11021811433D
libRbt.so/2013.1/901 2013/11/27
 22 23  0  0  0  0  0  0  0  0999 V2000
   23.7470   16.7937   36.3168 N   0  0  0  0  0  0  0  0  0  0  0  0
   28.6018   16.4843   37.5462 N   0  0  0  0  0  0  0  0  0  0  0  0
   33.0307   19.4045   32.4329 N   0  0  0  0  0  0  0  0  0  0  0  0
   26.9270   20.2073   34.6610 O   0  0  0  0  0  0  0  0  0  0  0  0
   26.7953   18.8010   35.0185 C   0  0  2  0  0  0  0  0  0  0  0  0
   29.0416   21.0771   37.4239 N   0  0  0  0  0  0  0  0  0  0  0  0
   24.3931   18.8435   34.4812 O   0  0  0  0  0  0  0  0  0  0  0  0
   25.3465   18.5065   35.4957 C   0  0  1  0  0  0  0  0  0  0  0  0
   29.1484   18.6147   35.6797 O   0  0  0  0  0  0  0  0  0  0  0  0
   25.1665   17.0353   35.8496 C   0  0  1  0  0  0  0  0  0  0  0  0
   31.4574   18.6952   35.7644 O   0  0  0  0  0  0  0  0  0  0  0  0
   26.1848   16.6363   36.9707 C   0  0  0  0  0  0  0  0  0  0  0  0
   31.8801   21.5016   33.4339 O   0  0  0  0  0  0  0  0  0  0  0  0
   27.6452   16.9100   36.4422 C   0  0  1  0  0  0  0  0  0  0  0  0
   30.5039   22.7418   35.5968 O   0  0  0  0  0  0  0  0  0  0  0  0
   27.8252   18.4111   36.1513 C   0  0  2  0  0  0  0  0  0  0  0  0
   30.2116   19.0348   36.5162 C   0  0  1  0  0  0  0  0  0  0  0  0
   31.6381   19.3606   34.4432 C   0  0  2  0  0  0  0  0  0  0  0  0
   32.9488   18.8620   33.8270 C   0  0  0  0  0  0  0  0  0  0  0  0
   31.7110   20.8538   34.6723 C   0  0  2  0  0  0  0  0  0  0  0  0
   30.4373   21.3293   35.3689 C   0  0  1  0  0  0  0  0  0  0  0  0
   30.2815   20.5888   36.7200 C   0  0  1  0  0  0  0  0  0  0  0  0
  5  4  1  1  0  0  0
  5  8  1  0  0  0  0
  5 16  1  0  0  0  0
  8  7  1  6  0  0  0
  8 10  1  0  0  0  0
 10  1  1  1  0  0  0
 10 12  1  0  0  0  0
 11 18  1  0  0  0  0
 12 14  1  0  0  0  0
 14  2  1  1  0  0  0
 14 16  1  0  0  0  0
 16  9  1  6  0  0  0
 17  9  1  6  0  0  0
 17 11  1  0  0  0  0
 17 22  1  0  0  0  0
 18 19  1  1  0  0  0
 18 20  1  0  0  0  0
 19  3  1  0  0  0  0
 20 13  1  6  0  0  0
 20 21  1  0  0  0  0
 21 15  1  1  0  0  0
 21 22  1  0  0  0  0
 22  6  1  6  0  0  0
M  END
>  <CHROM.1>
146.32218351,162.01732955,173.03690912,28.87250934,19.16119618,35.46444208
-2.68633705,0.10179947,-0.28505537

>  <Name>
2f4s_lig

>  <RI>
0

>  <Rbt.Current_Directory>
/home/itssahil/PROJECTS/Mol_Feturizer/New_Systems/rnas/2f4s

>  <Rbt.Executable>
rbdock ($Id: //depot/dev/client3/rdock/2013.1/src/exe/rbdock.cxx#4 $)

>  <Rbt.Library>
libRbt.so (2013.1, Build901 2013/11/27)

>  <Rbt.Parameter_File>
/export/apps/rDock/src/rDock_2013.1_src/data/scripts/dock_solv.prm

>  <Rbt.Receptor>
prm/pocket_docking_8.prm

>  <SCORE>
-6.1632

>  <SCORE.INTER>
-9.82471

>  <SCORE.INTER.CONST>
1

>  <SCORE.INTER.POLAR>
-1.42116

>  <SCORE.INTER.ROT>
3

>  <SCORE.INTER.SOLV>
12.3621

>  <SCORE.INTER.VDW>
-11.5333

>  <SCORE.INTER.norm>
-0.446578

>  <SCORE.INTRA>
3.66151

>  <SCORE.INTRA.DIHEDRAL>
4.33476

>  <SCORE.INTRA.DIHEDRAL.0>
1.67653

>  <SCORE.INTRA.POLAR>
0

>  <SCORE.INTRA.POLAR.0>
0

>  <SCORE.INTRA.REPUL>
0

>  <SCORE.INTRA.REPUL.0>
0

>  <SCORE.INTRA.SOLV>
2.93708

>  <SCORE.INTRA.SOLV.lig_0>
-76.6701

>  <SCORE.INTRA.VDW>
0.0255895

>  <SCORE.INTRA.VDW.0>
-1.53273

>  <SCORE.INTRA.norm>
0.166432

>  <SCORE.RESTR>
0

>  <SCORE.RESTR.CAVITY>
0

>  <SCORE.RESTR.norm>
0

>  <SCORE.SYSTEM>
0

>  <SCORE.SYSTEM.CONST>
0

>  <SCORE.SYSTEM.DIHEDRAL>
0

>  <SCORE.SYSTEM.SOLV>
0

>  <SCORE.SYSTEM.norm>
0

>  <SCORE.heavy>
22

>  <SCORE.norm>
-0.280145

>  <RMSD>
10.302

$$$$
2f4s_lig
 OpenBabel11021811433D
libRbt.so/2013.1/901 2013/11/27
 22 23  0  0  0  0  0  0  0  0999 V2000
   23.0452   16.9882   33.8186 N   0  0  0  0  0  0  0  0  0  0  0  0
   26.6381   15.2325   30.7880 N   0  0  0  0  0  0  0  0  0  0  0  0
   28.6639   13.9707   30.0216 N   0  0  0  0  0  0  0  0  0  0  0  0
   22.5263   17.3673   28.9101 O   0  0  0  0  0  0  0  0  0  0  0  0
   23.0814   16.5374   29.9712 C   0  0  2  0  0  0  0  0  0  0  0  0
   24.3032   16.0881   25.6072 N   0  0  0  0  0  0  0  0  0  0  0  0
   21.3878   17.3574   31.5590 O   0  0  0  0  0  0  0  0  0  0  0  0
   22.7948   17.1815   31.3557 C   0  0  1  0  0  0  0  0  0  0  0  0
   24.8850   15.6909   28.5433 O   0  0  0  0  0  0  0  0  0  0  0  0
   23.3372   16.3220   32.4910 C   0  0  1  0  0  0  0  0  0  0  0  0
   27.1373   15.5420   28.0429 O   0  0  0  0  0  0  0  0  0  0  0  0
   24.8799   16.1229   32.3086 C   0  0  0  0  0  0  0  0  0  0  0  0
   27.0488   12.1464   26.6474 O   0  0  0  0  0  0  0  0  0  0  0  0
   25.1350   15.4331   30.9135 C   0  0  1  0  0  0  0  0  0  0  0  0
   25.4448   13.5845   24.7847 O   0  0  0  0  0  0  0  0  0  0  0  0
   24.6376   16.3460   29.7780 C   0  0  2  0  0  0  0  0  0  0  0  0
   25.8431   16.1463   27.6045 C   0  0  1  0  0  0  0  0  0  0  0  0
   27.2025   14.0533   28.0620 C   0  0  2  0  0  0  0  0  0  0  0  0
   28.5890   13.6373   28.5629 C   0  0  0  0  0  0  0  0  0  0  0  0
   26.9925   13.5531   26.6503 C   0  0  2  0  0  0  0  0  0  0  0  0
   25.6459   14.0477   26.1251 C   0  0  1  0  0  0  0  0  0  0  0  0
   25.6190   15.5958   26.1526 C   0  0  1  0  0  0  0  0  0  0  0  0
  5  4  1  6  0  0  0
  5  8  1  0  0  0  0
  5 16  1  0  0  0  0
  8  7  1  1  0  0  0
  8 10  1  0  0  0  0
 10  1  1  1  0  0  0
 10 12  1  0  0  0  0
 11 18  1  0  0  0  0
 12 14  1  0  0  0  0
 14  2  1  6  0  0  0
 14 16  1  0  0  0  0
 16  9  1  6  0  0  0
 17  9  1  1  0  0  0
 17 11  1  0  0  0  0
 17 22  1  0  0  0  0
 18 19  1  6  0  0  0
 18 20  1  0  0  0  0
 19  3  1  0  0  0  0
 20 13  1  1  0  0  0
 20 21  1  0  0  0  0
 21 15  1  6  0  0  0
 21 22  1  0  0  0  0
 22  6  1  1  0  0  0
M  END
>  <CHROM.1>
131.75896087,85.72522063,70.41602118,25.20763861,15.39801093,28.99915507
-2.22740911,0.52237899,-1.72750569

>  <Name>
2f4s_lig

>  <RI>
0

>  <Rbt.Current_Directory>
/home/itssahil/PROJECTS/Mol_Feturizer/New_Systems/rnas/2f4s

>  <Rbt.Executable>
rbdock ($Id: //depot/dev/client3/rdock/2013.1/src/exe/rbdock.cxx#4 $)

>  <Rbt.Library>
libRbt.so (2013.1, Build901 2013/11/27)

>  <Rbt.Parameter_File>
/export/apps/rDock/src/rDock_2013.1_src/data/scripts/dock_solv.prm

>  <Rbt.Receptor>
prm/blind_docking_100.prm

>  <SCORE>
-3.04469

>  <SCORE.INTER>
-13.8057

>  <SCORE.INTER.CONST>
1

>  <SCORE.INTER.POLAR>
-1.85136

>  <SCORE.INTER.ROT>
3

>  <SCORE.INTER.SOLV>
30.9385

>  <SCORE.INTER.VDW>
-18.9454

>  <SCORE.INTER.norm>
-0.627532

>  <SCORE.INTRA>
6.6366

>  <SCORE.INTRA.DIHEDRAL>
8.05946

>  <SCORE.INTRA.DIHEDRAL.0>
1.67653

>  <SCORE.INTRA.POLAR>
0

>  <SCORE.INTRA.POLAR.0>
0

>  <SCORE.INTRA.REPUL>
0

>  <SCORE.INTRA.REPUL.0>
0

>  <SCORE.INTRA.SOLV>
5.41078

>  <SCORE.INTRA.SOLV.lig_0>
-76.6701

>  <SCORE.INTRA.VDW>
-0.0985222

>  <SCORE.INTRA.VDW.0>
-1.53273

>  <SCORE.INTRA.norm>
0.301664

>  <SCORE.RESTR>
4.12442

>  <SCORE.RESTR.CAVITY>
4.12442

>  <SCORE.RESTR.norm>
0.187473

>  <SCORE.SYSTEM>
0

>  <SCORE.SYSTEM.CONST>
0

>  <SCORE.SYSTEM.DIHEDRAL>
0

>  <SCORE.SYSTEM.SOLV>
0

>  <SCORE.SYSTEM.norm>
0

>  <SCORE.heavy>
22

>  <SCORE.norm>
-0.138395

>  <RMSD>
10.458

$$$$
2f4s_lig
 OpenBabel11021811433D
libRbt.so/2013.1/901 2013/11/27
 22 23  0  0  0  0  0  0  0  0999 V2000
    1.0681  -13.0299   28.0434 N   0  0  0  0  0  0  0  0  0  0  0  0
    3.7717   -8.8178   27.6897 N   0  0  0  0  0  0  0  0  0  0  0  0
    9.6764   -9.9425   22.9325 N   0  0  0  0  0  0  0  0  0  0  0  0
    4.4248  -12.5562   24.4357 O   0  0  0  0  0  0  0  0  0  0  0  0
    4.1226  -12.1906   25.8134 C   0  0  2  0  0  0  0  0  0  0  0  0
    3.4915   -8.1020   24.4330 N   0  0  0  0  0  0  0  0  0  0  0  0
    2.7393  -14.2081   26.0919 O   0  0  0  0  0  0  0  0  0  0  0  0
    2.7486  -12.7825   26.2320 C   0  0  1  0  0  0  0  0  0  0  0  0
    5.3893  -10.0967   25.6725 O   0  0  0  0  0  0  0  0  0  0  0  0
    2.4154  -12.4432   27.6797 C   0  0  1  0  0  0  0  0  0  0  0  0
    7.1254   -8.6093   25.3279 O   0  0  0  0  0  0  0  0  0  0  0  0
    2.4007  -10.8880   27.8648 C   0  0  0  0  0  0  0  0  0  0  0  0
    7.4471   -9.1476   21.7096 O   0  0  0  0  0  0  0  0  0  0  0  0
    3.8189  -10.3226   27.4696 C   0  0  1  0  0  0  0  0  0  0  0  0
    4.8432   -8.0103   21.9008 O   0  0  0  0  0  0  0  0  0  0  0  0
    4.1081  -10.6204   25.9871 C   0  0  2  0  0  0  0  0  0  0  0  0
    5.6558   -8.7086   25.5784 C   0  0  1  0  0  0  0  0  0  0  0  0
    7.6311   -9.2473   24.0797 C   0  0  2  0  0  0  0  0  0  0  0  0
    9.1505   -9.0610   24.0238 C   0  0  0  0  0  0  0  0  0  0  0  0
    6.9830   -8.5571   22.9003 C   0  0  2  0  0  0  0  0  0  0  0  0
    5.4635   -8.6699   23.0106 C   0  0  1  0  0  0  0  0  0  0  0  0
    4.9931   -8.0191   24.3347 C   0  0  1  0  0  0  0  0  0  0  0  0
  5  4  1  6  0  0  0
  5  8  1  0  0  0  0
  5 16  1  0  0  0  0
  8  7  1  1  0  0  0
  8 10  1  0  0  0  0
 10  1  1  6  0  0  0
 10 12  1  0  0  0  0
 11 18  1  0  0  0  0
 12 14  1  0  0  0  0
 14  2  1  6  0  0  0
 14 16  1  0  0  0  0
 16  9  1  1  0  0  0
 17  9  1  6  0  0  0
 17 11  1  0  0  0  0
 17 22  1  0  0  0  0
 18 19  1  6  0  0  0
 18 20  1  0  0  0  0
 19  3  1  0  0  0  0
 20 13  1  6  0  0  0
 20 21  1  0  0  0  0
 21 15  1  6  0  0  0
 21 22  1  0  0  0  0
 22  6  1  1  0  0  0
M  END
>  <CHROM.1>
172.28354154,176.16300986,168.29872774,4.99530158,-10.19386178,25.10402764
-2.63301386,0.68030011,-0.00274912

>  <Name>
2f4s_lig

>  <RI>
8.9913e+06

>  <Rbt.Current_Directory>
/home/itssahil/PROJECTS/Mol_Feturizer/New_Systems/rnas/2f4s

>  <Rbt.Executable>
rbdock ($Id: //depot/dev/client3/rdock/2013.1/src/exe/rbdock.cxx#4 $)

>  <Rbt.Library>
libRbt.so (2013.1, Build901 2013/11/27)

>  <Rbt.Parameter_File>
/export/apps/rDock/src/rDock_2013.1_src/data/scripts/dock_solv.prm

>  <Rbt.Receptor>
prm/blind_docking_40.prm

>  <SCORE>
-11.4116

>  <SCORE.INTER>
-13.7223

>  <SCORE.INTER.CONST>
1

>  <SCORE.INTER.POLAR>
-1.0198

>  <SCORE.INTER.ROT>
3

>  <SCORE.INTER.SOLV>
13.999

>  <SCORE.INTER.VDW>
-16.0152

>  <SCORE.INTER.norm>
-0.62374

>  <SCORE.INTRA>
2.31068

>  <SCORE.INTRA.DIHEDRAL>
-0.686998

>  <SCORE.INTRA.DIHEDRAL.0>
1.67653

>  <SCORE.INTRA.POLAR>
0

>  <SCORE.INTRA.POLAR.0>
0

>  <SCORE.INTRA.REPUL>
0

>  <SCORE.INTRA.REPUL.0>
0

>  <SCORE.INTRA.SOLV>
4.48968

>  <SCORE.INTRA.SOLV.lig_0>
-76.6701

>  <SCORE.INTRA.VDW>
0.409338

>  <SCORE.INTRA.VDW.0>
-1.53273

>  <SCORE.INTRA.norm>
0.105031

>  <SCORE.RESTR>
0

>  <SCORE.RESTR.CAVITY>
0

>  <SCORE.RESTR.norm>
0

>  <SCORE.SYSTEM>
0

>  <SCORE.SYSTEM.CONST>
0

>  <SCORE.SYSTEM.DIHEDRAL>
0

>  <SCORE.SYSTEM.SOLV>
0

>  <SCORE.SYSTEM.norm>
0

>  <SCORE.heavy>
22

>  <SCORE.norm>
-0.518709

>  <RMSD>
33.177

$$$$
2f4s_lig
 OpenBabel11021811433D
libRbt.so/2013.1/901 2013/11/27
 22 23  0  0  0  0  0  0  0  0999 V2000
    1.7001  -13.4498   27.7411 N   0  0  0  0  0  0  0  0  0  0  0  0
    4.0092   -9.0380   27.1253 N   0  0  0  0  0  0  0  0  0  0  0  0
   10.1489   -9.6789   22.6001 N   0  0  0  0  0  0  0  0  0  0  0  0
    5.2014  -12.9679   24.2748 O   0  0  0  0  0  0  0  0  0  0  0  0
    4.7863  -12.5129   25.5952 C   0  0  2  0  0  0  0  0  0  0  0  0
    3.8525   -8.4039   24.1293 N   0  0  0  0  0  0  0  0  0  0  0  0
    3.5860  -14.6251   25.9944 O   0  0  0  0  0  0  0  0  0  0  0  0
    3.4523  -13.1990   25.9996 C   0  0  1  0  0  0  0  0  0  0  0  0
    5.8554  -10.3243   25.3200 O   0  0  0  0  0  0  0  0  0  0  0  0
    3.0047  -12.7668   27.3906 C   0  0  1  0  0  0  0  0  0  0  0  0
    7.4963   -8.7147   25.0724 O   0  0  0  0  0  0  0  0  0  0  0  0
    2.8323  -11.2105   27.4271 C   0  0  0  0  0  0  0  0  0  0  0  0
    7.9126   -9.0736   21.4415 O   0  0  0  0  0  0  0  0  0  0  0  0
    4.2113  -10.5443   27.0508 C   0  0  1  0  0  0  0  0  0  0  0  0
    5.2374   -8.1156   21.6300 O   0  0  0  0  0  0  0  0  0  0  0  0
    4.6133  -10.9428   25.6191 C   0  0  2  0  0  0  0  0  0  0  0  0
    6.0324   -8.9192   25.2899 C   0  0  1  0  0  0  0  0  0  0  0  0
    8.0633   -9.2640   23.8084 C   0  0  2  0  0  0  0  0  0  0  0  0
    9.5680   -8.9781   23.7899 C   0  0  0  0  0  0  0  0  0  0  0  0
    7.3913   -8.5664   22.6469 C   0  0  2  0  0  0  0  0  0  0  0  0
    5.8807   -8.7814   22.7228 C   0  0  1  0  0  0  0  0  0  0  0  0
    5.3470   -8.2204   24.0638 C   0  0  1  0  0  0  0  0  0  0  0  0
  5  4  1  6  0  0  0
  5  8  1  0  0  0  0
  5 16  1  0  0  0  0
  8  7  1  1  0  0  0
  8 10  1  0  0  0  0
 10  1  1  6  0  0  0
 10 12  1  0  0  0  0
 11 18  1  0  0  0  0
 12 14  1  0  0  0  0
 14  2  1  6  0  0  0
 14 16  1  0  0  0  0
 16  9  1  1  0  0  0
 17  9  1  6  0  0  0
 17 11  1  0  0  0  0
 17 22  1  0  0  0  0
 18 19  1  1  0  0  0
 18 20  1  0  0  0  0
 19  3  1  0  0  0  0
 20 13  1  6  0  0  0
 20 21  1  0  0  0  0
 21 15  1  6  0  0  0
 21 22  1  0  0  0  0
 22  6  1  1  0  0  0
M  END
>  <CHROM.1>
-178.75107034,174.59170781,173.22098657,5.48495734,-10.38731494,24.81173915
2.45698849,-0.58961673,2.95186333

>  <Name>
2f4s_lig

>  <RI>
0

>  <Rbt.Current_Directory>
/home/itssahil/PROJECTS/Mol_Feturizer/New_Systems/rnas/2f4s

>  <Rbt.Executable>
rbdock ($Id: //depot/dev/client3/rdock/2013.1/src/exe/rbdock.cxx#4 $)

>  <Rbt.Library>
libRbt.so (2013.1, Build901 2013/11/27)

>  <Rbt.Parameter_File>
/export/apps/rDock/src/rDock_2013.1_src/data/scripts/dock_solv.prm

>  <Rbt.Receptor>
prm/blind_docking_80.prm

>  <SCORE>
-10.4494

>  <SCORE.INTER>
-13.4954

>  <SCORE.INTER.CONST>
1

>  <SCORE.INTER.POLAR>
-0.866956

>  <SCORE.INTER.ROT>
3

>  <SCORE.INTER.SOLV>
12.9039

>  <SCORE.INTER.VDW>
-16.0084

>  <SCORE.INTER.norm>
-0.613427

>  <SCORE.INTRA>
2.96665

>  <SCORE.INTRA.DIHEDRAL>
-1.20968

>  <SCORE.INTRA.DIHEDRAL.0>
1.67653

>  <SCORE.INTRA.POLAR>
0

>  <SCORE.INTRA.POLAR.0>
0

>  <SCORE.INTRA.REPUL>
0

>  <SCORE.INTRA.REPUL.0>
0

>  <SCORE.INTRA.SOLV>
5.17268

>  <SCORE.INTRA.SOLV.lig_0>
-76.6701

>  <SCORE.INTRA.VDW>
0.985156

>  <SCORE.INTRA.VDW.0>
-1.53273

>  <SCORE.INTRA.norm>
0.134848

>  <SCORE.RESTR>
0.0793122

>  <SCORE.RESTR.CAVITY>
0.0793122

>  <SCORE.RESTR.norm>
0.0036051

>  <SCORE.SYSTEM>
0

>  <SCORE.SYSTEM.CONST>
0

>  <SCORE.SYSTEM.DIHEDRAL>
0

>  <SCORE.SYSTEM.SOLV>
0

>  <SCORE.SYSTEM.norm>
0

>  <SCORE.heavy>
22

>  <SCORE.norm>
-0.474974

>  <RMSD>
33.197

$$$$
2f4s_lig
 OpenBabel11021811433D
libRbt.so/2013.1/901 2013/11/27
 22 23  0  0  0  0  0  0  0  0999 V2000
    1.7151  -13.4725   27.7930 N   0  0  0  0  0  0  0  0  0  0  0  0
    4.0044   -9.0611   27.1037 N   0  0  0  0  0  0  0  0  0  0  0  0
   10.1777   -9.7580   22.6755 N   0  0  0  0  0  0  0  0  0  0  0  0
    5.1976  -13.0263   24.3029 O   0  0  0  0  0  0  0  0  0  0  0  0
    4.7872  -12.5543   25.6188 C   0  0  2  0  0  0  0  0  0  0  0  0
    3.8609   -8.4243   24.1223 N   0  0  0  0  0  0  0  0  0  0  0  0
    3.5969  -14.6652   26.0536 O   0  0  0  0  0  0  0  0  0  0  0  0
    3.4578  -13.2396   26.0394 C   0  0  1  0  0  0  0  0  0  0  0  0
    5.8466  -10.3658   25.3076 O   0  0  0  0  0  0  0  0  0  0  0  0
    3.0154  -12.7895   27.4264 C   0  0  1  0  0  0  0  0  0  0  0  0
    7.4949   -8.7587   25.0949 O   0  0  0  0  0  0  0  0  0  0  0  0
    2.8373  -11.2336   27.4419 C   0  0  0  0  0  0  0  0  0  0  0  0
    7.9435   -9.0742   21.4638 O   0  0  0  0  0  0  0  0  0  0  0  0
    4.2119  -10.5676   27.0494 C   0  0  1  0  0  0  0  0  0  0  0  0
    5.2696   -8.1098   21.6396 O   0  0  0  0  0  0  0  0  0  0  0  0
    4.6083  -10.9846   25.6215 C   0  0  2  0  0  0  0  0  0  0  0  0
    6.0283   -8.9610   25.2964 C   0  0  1  0  0  0  0  0  0  0  0  0
    8.0717   -9.2943   23.8295 C   0  0  2  0  0  0  0  0  0  0  0  0
    9.5774   -9.0131   23.8284 C   0  0  0  0  0  0  0  0  0  0  0  0
    7.4127   -8.5802   22.6706 C   0  0  2  0  0  0  0  0  0  0  0  0
    5.9008   -8.7912   22.7299 C   0  0  1  0  0  0  0  0  0  0  0  0
    5.3565   -8.2449   24.0728 C   0  0  1  0  0  0  0  0  0  0  0  0
  5  4  1  6  0  0  0
  5  8  1  0  0  0  0
  5 16  1  0  0  0  0
  8  7  1  1  0  0  0
  8 10  1  0  0  0  0
 10  1  1  6  0  0  0
 10 12  1  0  0  0  0
 11 18  1  0  0  0  0
 12 14  1  0  0  0  0
 14  2  1  6  0  0  0
 14 16  1  0  0  0  0
 16  9  1  1  0  0  0
 17  9  1  6  0  0  0
 17 11  1  0  0  0  0
 17 22  1  0  0  0  0
 18 19  1  1  0  0  0
 18 20  1  0  0  0  0
 19  3  1  0  0  0  0
 20 13  1  6  0  0  0
 20 21  1  0  0  0  0
 21 15  1  6  0  0  0
 21 22  1  0  0  0  0
 22  6  1  6  0  0  0
M  END
>  <CHROM.1>
-176.77607149,172.90753604,170.39738517,5.49369503,-10.41788271,24.83231056
2.43973574,-0.57082460,2.92403635

>  <Name>
2f4s_lig

>  <RI>
0

>  <Rbt.Current_Directory>
/home/itssahil/PROJECTS/Mol_Feturizer/New_Systems/rnas/2f4s

>  <Rbt.Executable>
rbdock ($Id: //depot/dev/client3/rdock/2013.1/src/exe/rbdock.cxx#4 $)

>  <Rbt.Library>
libRbt.so (2013.1, Build901 2013/11/27)

>  <Rbt.Parameter_File>
/export/apps/rDock/src/rDock_2013.1_src/data/scripts/dock_solv.prm

>  <Rbt.Receptor>
prm/blind_docking_80.prm

>  <SCORE>
-10.4534

>  <SCORE.INTER>
-13.5977

>  <SCORE.INTER.CONST>
1

>  <SCORE.INTER.POLAR>
-0.854838

>  <SCORE.INTER.ROT>
3

>  <SCORE.INTER.SOLV>
13.0428

>  <SCORE.INTER.VDW>
-16.1633

>  <SCORE.INTER.norm>
-0.618079

>  <SCORE.INTRA>
3.08005

>  <SCORE.INTRA.DIHEDRAL>
-0.907975

>  <SCORE.INTRA.DIHEDRAL.0>
1.67653

>  <SCORE.INTRA.POLAR>
0

>  <SCORE.INTRA.POLAR.0>
0

>  <SCORE.INTRA.REPUL>
0

>  <SCORE.INTRA.REPUL.0>
0

>  <SCORE.INTRA.SOLV>
5.11352

>  <SCORE.INTRA.SOLV.lig_0>
-76.6701

>  <SCORE.INTRA.VDW>
0.977272

>  <SCORE.INTRA.VDW.0>
-1.53273

>  <SCORE.INTRA.norm>
0.140002

>  <SCORE.RESTR>
0.0643027

>  <SCORE.RESTR.CAVITY>
0.0643027

>  <SCORE.RESTR.norm>
0.00292285

>  <SCORE.SYSTEM>
0

>  <SCORE.SYSTEM.CONST>
0

>  <SCORE.SYSTEM.DIHEDRAL>
0

>  <SCORE.SYSTEM.SOLV>
0

>  <SCORE.SYSTEM.norm>
0

>  <SCORE.heavy>
22

>  <SCORE.norm>
-0.475154

>  <RMSD>
33.209

$$$$
2f4s_lig
 OpenBabel11021811433D
libRbt.so/2013.1/901 2013/11/27
 22 23  0  0  0  0  0  0  0  0999 V2000
    0.9448  -13.3820   27.7197 N   0  0  0  0  0  0  0  0  0  0  0  0
    4.4489   -9.8453   28.3438 N   0  0  0  0  0  0  0  0  0  0  0  0
    9.0622  -10.3405   23.3063 N   0  0  0  0  0  0  0  0  0  0  0  0
    3.2638  -11.4925   23.7751 O   0  0  0  0  0  0  0  0  0  0  0  0
    3.4306  -11.8393   25.1804 C   0  0  2  0  0  0  0  0  0  0  0  0
    3.3723   -7.6221   25.4917 N   0  0  0  0  0  0  0  0  0  0  0  0
    1.6981  -13.5794   25.0026 O   0  0  0  0  0  0  0  0  0  0  0  0
    2.1070  -12.4247   25.7450 C   0  0  1  0  0  0  0  0  0  0  0  0
    5.1096  -10.0912   25.5465 O   0  0  0  0  0  0  0  0  0  0  0  0
    2.2564  -12.8261   27.2074 C   0  0  1  0  0  0  0  0  0  0  0  0
    6.9687   -8.7494   25.2495 O   0  0  0  0  0  0  0  0  0  0  0  0
    2.6877  -11.5802   28.0528 C   0  0  0  0  0  0  0  0  0  0  0  0
    6.4440   -8.0637   21.6802 O   0  0  0  0  0  0  0  0  0  0  0  0
    4.0518  -11.0337   27.4804 C   0  0  1  0  0  0  0  0  0  0  0  0
    4.1714   -6.8122   22.8548 O   0  0  0  0  0  0  0  0  0  0  0  0
    3.8630  -10.5748   26.0230 C   0  0  2  0  0  0  0  0  0  0  0  0
    5.5871   -8.7853   25.8171 C   0  0  1  0  0  0  0  0  0  0  0  0
    7.0897   -8.9745   23.7813 C   0  0  2  0  0  0  0  0  0  0  0  0
    8.5742   -8.9276   23.4065 C   0  0  0  0  0  0  0  0  0  0  0  0
    6.3431   -7.8677   23.0707 C   0  0  2  0  0  0  0  0  0  0  0  0
    4.8823   -7.8641   23.5179 C   0  0  1  0  0  0  0  0  0  0  0  0
    4.8131   -7.6561   25.0509 C   0  0  1  0  0  0  0  0  0  0  0  0
  5  4  1  6  0  0  0
  5  8  1  0  0  0  0
  5 16  1  0  0  0  0
  8  7  1  6  0  0  0
  8 10  1  0  0  0  0
 10  1  1  1  0  0  0
 10 12  1  0  0  0  0
 11 18  1  0  0  0  0
 12 14  1  0  0  0  0
 14  2  1  1  0  0  0
 14 16  1  0  0  0  0
 16  9  1  6  0  0  0
 17  9  1  6  0  0  0
 17 11  1  0  0  0  0
 17 22  1  0  0  0  0
 18 19  1  6  0  0  0
 18 20  1  0  0  0  0
 19  3  1  0  0  0  0
 20 13  1  6  0  0  0
 20 21  1  0  0  0  0
 21 15  1  6  0  0  0
 21 22  1  0  0  0  0
 22  6  1  1  0  0  0
M  END
>  <CHROM.1>
161.68264699,174.63192941,98.85604367,4.60413881,-10.00775011,25.10223519
-2.79045296,0.81524719,0.41111990

>  <Name>
2f4s_lig

>  <RI>
0

>  <Rbt.Current_Directory>
/home/itssahil/PROJECTS/Mol_Feturizer/New_Systems/rnas/2f4s

>  <Rbt.Executable>
rbdock ($Id: //depot/dev/client3/rdock/2013.1/src/exe/rbdock.cxx#4 $)

>  <Rbt.Library>
libRbt.so (2013.1, Build901 2013/11/27)

>  <Rbt.Parameter_File>
/export/apps/rDock/src/rDock_2013.1_src/data/scripts/dock_solv.prm

>  <Rbt.Receptor>
prm/blind_docking_80.prm

>  <SCORE>
-3.74878

>  <SCORE.INTER>
-7.41711

>  <SCORE.INTER.CONST>
1

>  <SCORE.INTER.POLAR>
-1.4465

>  <SCORE.INTER.ROT>
3

>  <SCORE.INTER.SOLV>
19.4336

>  <SCORE.INTER.VDW>
-12.201

>  <SCORE.INTER.norm>
-0.337141

>  <SCORE.INTRA>
3.07854

>  <SCORE.INTRA.DIHEDRAL>
3.95764

>  <SCORE.INTRA.DIHEDRAL.0>
1.67653

>  <SCORE.INTRA.POLAR>
0

>  <SCORE.INTRA.POLAR.0>
0

>  <SCORE.INTRA.REPUL>
0

>  <SCORE.INTRA.REPUL.0>
0

>  <SCORE.INTRA.SOLV>
2.47473

>  <SCORE.INTRA.SOLV.lig_0>
-76.6701

>  <SCORE.INTRA.VDW>
-0.137646

>  <SCORE.INTRA.VDW.0>
-1.53273

>  <SCORE.INTRA.norm>
0.139934

>  <SCORE.RESTR>
0.589786

>  <SCORE.RESTR.CAVITY>
0.589786

>  <SCORE.RESTR.norm>
0.0268085

>  <SCORE.SYSTEM>
0

>  <SCORE.SYSTEM.CONST>
0

>  <SCORE.SYSTEM.DIHEDRAL>
0

>  <SCORE.SYSTEM.SOLV>
0

>  <SCORE.SYSTEM.norm>
0

>  <SCORE.heavy>
22

>  <SCORE.norm>
-0.170399

>  <RMSD>
33.221

$$$$
2f4s_lig
 OpenBabel11021811433D
libRbt.so/2013.1/901 2013/11/27
 22 23  0  0  0  0  0  0  0  0999 V2000
    0.8584  -13.4581   27.5383 N   0  0  0  0  0  0  0  0  0  0  0  0
    4.5056  -10.1066   28.3393 N   0  0  0  0  0  0  0  0  0  0  0  0
    9.2394  -10.1112   24.2716 N   0  0  0  0  0  0  0  0  0  0  0  0
    3.0530  -11.2434   23.6929 O   0  0  0  0  0  0  0  0  0  0  0  0
    3.2735  -11.7366   25.0461 C   0  0  2  0  0  0  0  0  0  0  0  0
    3.3107   -7.6067   25.3133 N   0  0  0  0  0  0  0  0  0  0  0  0
    1.4765  -13.3985   24.7808 O   0  0  0  0  0  0  0  0  0  0  0  0
    1.9587  -12.3381   25.6144 C   0  0  1  0  0  0  0  0  0  0  0  0
    5.0260  -10.0845   25.5019 O   0  0  0  0  0  0  0  0  0  0  0  0
    2.1626  -12.8909   27.0196 C   0  0  1  0  0  0  0  0  0  0  0  0
    6.9070   -8.7593   25.2763 O   0  0  0  0  0  0  0  0  0  0  0  0
    2.6750  -11.7509   27.9635 C   0  0  0  0  0  0  0  0  0  0  0  0
    6.5702   -8.1366   21.6729 O   0  0  0  0  0  0  0  0  0  0  0  0
    4.0285  -11.1885   27.3815 C   0  0  1  0  0  0  0  0  0  0  0  0
    4.2491   -6.8503   22.7066 O   0  0  0  0  0  0  0  0  0  0  0  0
    3.7875  -10.5779   25.9890 C   0  0  2  0  0  0  0  0  0  0  0  0
    5.4980   -8.7766   25.7729 C   0  0  1  0  0  0  0  0  0  0  0  0
    7.1014   -9.0121   23.8205 C   0  0  2  0  0  0  0  0  0  0  0  0
    8.6034   -8.9809   23.5216 C   0  0  0  0  0  0  0  0  0  0  0  0
    6.3996   -7.9144   23.0526 C   0  0  2  0  0  0  0  0  0  0  0  0
    4.9180   -7.8939   23.4242 C   0  0  1  0  0  0  0  0  0  0  0  0
    4.7719   -7.6573   24.9476 C   0  0  1  0  0  0  0  0  0  0  0  0
  5  4  1  6  0  0  0
  5  8  1  0  0  0  0
  5 16  1  0  0  0  0
  8  7  1  6  0  0  0
  8 10  1  0  0  0  0
 10  1  1  1  0  0  0
 10 12  1  0  0  0  0
 11 18  1  0  0  0  0
 12 14  1  0  0  0  0
 14  2  1  1  0  0  0
 14 16  1  0  0  0  0
 16  9  1  6  0  0  0
 17  9  1  6  0  0  0
 17 11  1  0  0  0  0
 17 22  1  0  0  0  0
 18 19  1  1  0  0  0
 18 20  1  0  0  0  0
 19  3  1  0  0  0  0
 20 13  1  6  0  0  0
 20 21  1  0  0  0  0
 21 15  1  6  0  0  0
 21 22  1  0  0  0  0
 22  6  1  1  0  0  0
M  END
>  <CHROM.1>
155.28955244,170.82410596,63.66528684,4.56747995,-10.01165799,25.07212026
-2.34413148,-0.30745348,-0.93620789

>  <Name>
2f4s_lig

>  <RI>
0

>  <Rbt.Current_Directory>
/home/itssahil/PROJECTS/Mol_Feturizer/New_Systems/rnas/2f4s

>  <Rbt.Executable>
rbdock ($Id: //depot/dev/client3/rdock/2013.1/src/exe/rbdock.cxx#4 $)

>  <Rbt.Library>
libRbt.so (2013.1, Build901 2013/11/27)

>  <Rbt.Parameter_File>
/export/apps/rDock/src/rDock_2013.1_src/data/scripts/dock_solv.prm

>  <Rbt.Receptor>
prm/blind_docking_80.prm

>  <SCORE>
-5.62074

>  <SCORE.INTER>
-7.73594

>  <SCORE.INTER.CONST>
1

>  <SCORE.INTER.POLAR>
-1.45705

>  <SCORE.INTER.ROT>
3

>  <SCORE.INTER.SOLV>
22.0355

>  <SCORE.INTER.VDW>
-13.2456

>  <SCORE.INTER.norm>
-0.351634

>  <SCORE.INTRA>
1.62205

>  <SCORE.INTRA.DIHEDRAL>
1.52043

>  <SCORE.INTRA.DIHEDRAL.0>
1.67653

>  <SCORE.INTRA.POLAR>
0

>  <SCORE.INTRA.POLAR.0>
0

>  <SCORE.INTRA.REPUL>
0

>  <SCORE.INTRA.REPUL.0>
0

>  <SCORE.INTRA.SOLV>
2.17256

>  <SCORE.INTRA.SOLV.lig_0>
-76.6701

>  <SCORE.INTRA.VDW>
-0.224448

>  <SCORE.INTRA.VDW.0>
-1.53273

>  <SCORE.INTRA.norm>
0.0737294

>  <SCORE.RESTR>
0.493158

>  <SCORE.RESTR.CAVITY>
0.493158

>  <SCORE.RESTR.norm>
0.0224163

>  <SCORE.SYSTEM>
0

>  <SCORE.SYSTEM.CONST>
0

>  <SCORE.SYSTEM.DIHEDRAL>
0

>  <SCORE.SYSTEM.SOLV>
0

>  <SCORE.SYSTEM.norm>
0

>  <SCORE.heavy>
22

>  <SCORE.norm>
-0.255488

>  <RMSD>
33.254

$$$$
2f4s_lig
 OpenBabel11021811433D
libRbt.so/2013.1/901 2013/11/27
 22 23  0  0  0  0  0  0  0  0999 V2000
    1.4124  -14.0717   27.6753 N   0  0  0  0  0  0  0  0  0  0  0  0
    5.3336  -13.3208   24.6362 N   0  0  0  0  0  0  0  0  0  0  0  0
    9.5107  -10.2176   24.1496 N   0  0  0  0  0  0  0  0  0  0  0  0
    3.7070   -9.6852   27.6573 O   0  0  0  0  0  0  0  0  0  0  0  0
    3.3365  -10.8196   26.8215 C   0  0  2  0  0  0  0  0  0  0  0  0
    3.3758   -8.1693   25.3241 N   0  0  0  0  0  0  0  0  0  0  0  0
    1.4017  -11.3072   28.2639 O   0  0  0  0  0  0  0  0  0  0  0  0
    2.5726  -11.8762   27.6662 C   0  0  1  0  0  0  0  0  0  0  0  0
    5.2661  -10.5238   25.3391 O   0  0  0  0  0  0  0  0  0  0  0  0
    2.1438  -13.0643   26.8139 C   0  0  1  0  0  0  0  0  0  0  0  0
    7.0477   -9.0509   25.3795 O   0  0  0  0  0  0  0  0  0  0  0  0
    3.4044  -13.7220   26.1571 C   0  0  0  0  0  0  0  0  0  0  0  0
    6.8548   -8.0387   21.8547 O   0  0  0  0  0  0  0  0  0  0  0  0
    4.1350  -12.6365   25.2768 C   0  0  1  0  0  0  0  0  0  0  0  0
    4.3893   -7.0499   22.8813 O   0  0  0  0  0  0  0  0  0  0  0  0
    4.6157  -11.4759   26.1668 C   0  0  2  0  0  0  0  0  0  0  0  0
    5.6200   -9.2261   25.7834 C   0  0  1  0  0  0  0  0  0  0  0  0
    7.3380   -9.1182   23.9193 C   0  0  2  0  0  0  0  0  0  0  0  0
    8.8467   -8.9456   23.7187 C   0  0  0  0  0  0  0  0  0  0  0  0
    6.5947   -7.9912   23.2375 C   0  0  2  0  0  0  0  0  0  0  0  0
    5.0984   -8.1197   23.5172 C   0  0  1  0  0  0  0  0  0  0  0  0
    4.8538   -8.0728   25.0456 C   0  0  1  0  0  0  0  0  0  0  0  0
  5  4  1  1  0  0  0
  5  8  1  0  0  0  0
  5 16  1  0  0  0  0
  8  7  1  6  0  0  0
  8 10  1  0  0  0  0
 10  1  1  1  0  0  0
 10 12  1  0  0  0  0
 11 18  1  0  0  0  0
 12 14  1  0  0  0  0
 14  2  1  1  0  0  0
 14 16  1  0  0  0  0
 16  9  1  6  0  0  0
 17  9  1  6  0  0  0
 17 11  1  0  0  0  0
 17 22  1  0  0  0  0
 18 19  1  1  0  0  0
 18 20  1  0  0  0  0
 19  3  1  0  0  0  0
 20 13  1  6  0  0  0
 20 21  1  0  0  0  0
 21 15  1  6  0  0  0
 21 22  1  0  0  0  0
 22  6  1  6  0  0  0
M  END
>  <CHROM.1>
51.58114879,131.09131899,73.77471852,4.86153467,-10.25819216,25.32418425
-2.36827121,0.46865590,-0.30424478

>  <Name>
2f4s_lig

>  <RI>
8.9913e+06

>  <Rbt.Current_Directory>
/home/itssahil/PROJECTS/Mol_Feturizer/New_Systems/rnas/2f4s

>  <Rbt.Executable>
rbdock ($Id: //depot/dev/client3/rdock/2013.1/src/exe/rbdock.cxx#4 $)

>  <Rbt.Library>
libRbt.so (2013.1, Build901 2013/11/27)

>  <Rbt.Parameter_File>
/export/apps/rDock/src/rDock_2013.1_src/data/scripts/dock_solv.prm

>  <Rbt.Receptor>
prm/blind_docking_40.prm

>  <SCORE>
-6.38304

>  <SCORE.INTER>
-10.9289

>  <SCORE.INTER.CONST>
1

>  <SCORE.INTER.POLAR>
-0.813751

>  <SCORE.INTER.ROT>
3

>  <SCORE.INTER.SOLV>
20.9858

>  <SCORE.INTER.VDW>
-17.1687

>  <SCORE.INTER.norm>
-0.496769

>  <SCORE.INTRA>
4.5217

>  <SCORE.INTRA.DIHEDRAL>
5.88099

>  <SCORE.INTRA.DIHEDRAL.0>
1.67653

>  <SCORE.INTRA.POLAR>
0

>  <SCORE.INTRA.POLAR.0>
0

>  <SCORE.INTRA.REPUL>
0

>  <SCORE.INTRA.REPUL.0>
0

>  <SCORE.INTRA.SOLV>
1.76048

>  <SCORE.INTRA.SOLV.lig_0>
-76.6701

>  <SCORE.INTRA.VDW>
0.700966

>  <SCORE.INTRA.VDW.0>
-1.53273

>  <SCORE.INTRA.norm>
0.205532

>  <SCORE.RESTR>
0.0241809

>  <SCORE.RESTR.CAVITY>
0.0241809

>  <SCORE.RESTR.norm>
0.00109913

>  <SCORE.SYSTEM>
0

>  <SCORE.SYSTEM.CONST>
0

>  <SCORE.SYSTEM.DIHEDRAL>
0

>  <SCORE.SYSTEM.SOLV>
0

>  <SCORE.SYSTEM.norm>
0

>  <SCORE.heavy>
22

>  <SCORE.norm>
-0.290138

>  <RMSD>
33.282

$$$$
2f4s_lig
 OpenBabel11021811433D
libRbt.so/2013.1/901 2013/11/27
 22 23  0  0  0  0  0  0  0  0999 V2000
    1.7872  -14.6239   27.7020 N   0  0  0  0  0  0  0  0  0  0  0  0
    5.3889  -13.3377   24.4541 N   0  0  0  0  0  0  0  0  0  0  0  0
    9.1467   -9.4554   22.4764 N   0  0  0  0  0  0  0  0  0  0  0  0
    3.5918  -10.0141   27.7275 O   0  0  0  0  0  0  0  0  0  0  0  0
    3.2889  -11.1515   26.8687 C   0  0  2  0  0  0  0  0  0  0  0  0
    3.2610   -8.1748   25.2539 N   0  0  0  0  0  0  0  0  0  0  0  0
    1.5205  -11.9003   28.4092 O   0  0  0  0  0  0  0  0  0  0  0  0
    2.7021  -12.3154   27.7140 C   0  0  1  0  0  0  0  0  0  0  0  0
    5.0701  -10.5922   25.2802 O   0  0  0  0  0  0  0  0  0  0  0  0
    2.3460  -13.5119   26.8401 C   0  0  1  0  0  0  0  0  0  0  0  0
    6.8952   -9.1834   25.4513 O   0  0  0  0  0  0  0  0  0  0  0  0
    3.6221  -14.0030   26.0763 C   0  0  0  0  0  0  0  0  0  0  0  0
    6.9036   -8.0567   21.9561 O   0  0  0  0  0  0  0  0  0  0  0  0
    4.1704  -12.8127   25.1989 C   0  0  1  0  0  0  0  0  0  0  0  0
    4.4259   -7.0159   22.8984 O   0  0  0  0  0  0  0  0  0  0  0  0
    4.5835  -11.6392   26.1058 C   0  0  2  0  0  0  0  0  0  0  0  0
    5.4448   -9.3218   25.7825 C   0  0  1  0  0  0  0  0  0  0  0  0
    7.2523   -9.2154   24.0048 C   0  0  2  0  0  0  0  0  0  0  0  0
    8.7737   -9.0887   23.8803 C   0  0  0  0  0  0  0  0  0  0  0  0
    6.5797   -8.0431   23.3261 C   0  0  2  0  0  0  0  0  0  0  0  0
    5.0683   -8.1286   23.5316 C   0  0  1  0  0  0  0  0  0  0  0  0
    4.7530   -8.1206   25.0477 C   0  0  1  0  0  0  0  0  0  0  0  0
  5  4  1  1  0  0  0
  5  8  1  0  0  0  0
  5 16  1  0  0  0  0
  8  7  1  6  0  0  0
  8 10  1  0  0  0  0
 10  1  1  1  0  0  0
 10 12  1  0  0  0  0
 11 18  1  0  0  0  0
 12 14  1  0  0  0  0
 14  2  1  1  0  0  0
 14 16  1  0  0  0  0
 16  9  1  6  0  0  0
 17  9  1  6  0  0  0
 17 11  1  0  0  0  0
 17 22  1  0  0  0  0
 18 19  1  1  0  0  0
 18 20  1  0  0  0  0
 19  3  1  0  0  0  0
 20 13  1  6  0  0  0
 20 21  1  0  0  0  0
 21 15  1  6  0  0  0
 21 22  1  0  0  0  0
 22  6  1  6  0  0  0
M  END
>  <CHROM.1>
58.40578880,118.62127097,166.37219080,4.84746533,-10.40402553,25.26721867
-2.34998381,0.59091804,-0.21453714

>  <Name>
2f4s_lig

>  <RI>
0

>  <Rbt.Current_Directory>
/home/itssahil/PROJECTS/Mol_Feturizer/New_Systems/rnas/2f4s

>  <Rbt.Executable>
rbdock ($Id: //depot/dev/client3/rdock/2013.1/src/exe/rbdock.cxx#4 $)

>  <Rbt.Library>
libRbt.so (2013.1, Build901 2013/11/27)

>  <Rbt.Parameter_File>
/export/apps/rDock/src/rDock_2013.1_src/data/scripts/dock_solv.prm

>  <Rbt.Receptor>
prm/blind_docking_80.prm

>  <SCORE>
-7.38322

>  <SCORE.INTER>
-12.1632

>  <SCORE.INTER.CONST>
1

>  <SCORE.INTER.POLAR>
-0.596202

>  <SCORE.INTER.ROT>
3

>  <SCORE.INTER.SOLV>
16.7671

>  <SCORE.INTER.VDW>
-17.3105

>  <SCORE.INTER.norm>
-0.552873

>  <SCORE.INTRA>
4.64104

>  <SCORE.INTRA.DIHEDRAL>
6.08499

>  <SCORE.INTRA.DIHEDRAL.0>
1.67653

>  <SCORE.INTRA.POLAR>
0

>  <SCORE.INTRA.POLAR.0>
0

>  <SCORE.INTRA.REPUL>
0

>  <SCORE.INTRA.REPUL.0>
0

>  <SCORE.INTRA.SOLV>
2.24415

>  <SCORE.INTRA.SOLV.lig_0>
-76.6701

>  <SCORE.INTRA.VDW>
0.476476

>  <SCORE.INTRA.VDW.0>
-1.53273

>  <SCORE.INTRA.norm>
0.210957

>  <SCORE.RESTR>
0.138956

>  <SCORE.RESTR.CAVITY>
0.138956

>  <SCORE.RESTR.norm>
0.00631618

>  <SCORE.SYSTEM>
0

>  <SCORE.SYSTEM.CONST>
0

>  <SCORE.SYSTEM.DIHEDRAL>
0

>  <SCORE.SYSTEM.SOLV>
0

>  <SCORE.SYSTEM.norm>
0

>  <SCORE.heavy>
22

>  <SCORE.norm>
-0.335601

>  <RMSD>
33.434

$$$$
2f4s_lig
 OpenBabel11021811433D
libRbt.so/2013.1/901 2013/11/27
 22 23  0  0  0  0  0  0  0  0999 V2000
    1.7923  -14.6241   27.7267 N   0  0  0  0  0  0  0  0  0  0  0  0
    5.3696  -13.3416   24.4505 N   0  0  0  0  0  0  0  0  0  0  0  0
    9.1485   -9.5031   22.4910 N   0  0  0  0  0  0  0  0  0  0  0  0
    3.6066  -10.0181   27.7425 O   0  0  0  0  0  0  0  0  0  0  0  0
    3.2942  -11.1538   26.8849 C   0  0  2  0  0  0  0  0  0  0  0  0
    3.2576   -8.1766   25.2481 N   0  0  0  0  0  0  0  0  0  0  0  0
    1.5370  -11.9008   28.4392 O   0  0  0  0  0  0  0  0  0  0  0  0
    2.7120  -12.3175   27.7337 C   0  0  1  0  0  0  0  0  0  0  0  0
    5.0633  -10.5964   25.2824 O   0  0  0  0  0  0  0  0  0  0  0  0
    2.3462  -13.5123   26.8615 C   0  0  1  0  0  0  0  0  0  0  0  0
    6.8901   -9.1896   25.4527 O   0  0  0  0  0  0  0  0  0  0  0  0
    3.6149  -14.0051   26.0865 C   0  0  0  0  0  0  0  0  0  0  0  0
    6.9046   -8.0711   21.9549 O   0  0  0  0  0  0  0  0  0  0  0  0
    4.1583  -12.8150   25.2060 C   0  0  1  0  0  0  0  0  0  0  0  0
    4.4271   -7.0248   22.8915 O   0  0  0  0  0  0  0  0  0  0  0  0
    4.5814  -11.6434   26.1108 C   0  0  2  0  0  0  0  0  0  0  0  0
    5.4391   -9.3253   25.7822 C   0  0  1  0  0  0  0  0  0  0  0  0
    7.2490   -9.2255   24.0067 C   0  0  2  0  0  0  0  0  0  0  0  0
    8.7708   -9.1011   23.8839 C   0  0  0  0  0  0  0  0  0  0  0  0
    6.5789   -8.0539   23.3244 C   0  0  2  0  0  0  0  0  0  0  0  0
    5.0672   -8.1369   23.5281 C   0  0  1  0  0  0  0  0  0  0  0  0
    4.7498   -8.1250   25.0438 C   0  0  1  0  0  0  0  0  0  0  0  0
  5  4  1  1  0  0  0
  5  8  1  0  0  0  0
  5 16  1  0  0  0  0
  8  7  1  6  0  0  0
  8 10  1  0  0  0  0
 10  1  1  1  0  0  0
 10 12  1  0  0  0  0
 11 18  1  0  0  0  0
 12 14  1  0  0  0  0
 14  2  1  1  0  0  0
 14 16  1  0  0  0  0
 16  9  1  6  0  0  0
 17  9  1  6  0  0  0
 17 11  1  0  0  0  0
 17 22  1  0  0  0  0
 18 19  1  1  0  0  0
 18 20  1  0  0  0  0
 19  3  1  0  0  0  0
 20 13  1  6  0  0  0
 20 21  1  0  0  0  0
 21 15  1  6  0  0  0
 21 22  1  0  0  0  0
 22  6  1  6  0  0  0
M  END
>  <CHROM.1>
58.10820161,118.25259169,165.04300869,4.84686923,-10.41110370,25.27387938
-2.35027188,0.59388181,-0.21617017

>  <Name>
2f4s_lig

>  <RI>
0

>  <Rbt.Current_Directory>
/home/itssahil/PROJECTS/Mol_Feturizer/New_Systems/rnas/2f4s

>  <Rbt.Executable>
rbdock ($Id: //depot/dev/client3/rdock/2013.1/src/exe/rbdock.cxx#4 $)

>  <Rbt.Library>
libRbt.so (2013.1, Build901 2013/11/27)

>  <Rbt.Parameter_File>
/export/apps/rDock/src/rDock_2013.1_src/data/scripts/dock_solv.prm

>  <Rbt.Receptor>
prm/blind_docking_80.prm

>  <SCORE>
-7.37531

>  <SCORE.INTER>
-12.1763

>  <SCORE.INTER.CONST>
1

>  <SCORE.INTER.POLAR>
-0.583946

>  <SCORE.INTER.ROT>
3

>  <SCORE.INTER.SOLV>
16.7887

>  <SCORE.INTER.VDW>
-17.3673

>  <SCORE.INTER.norm>
-0.553468

>  <SCORE.INTRA>
4.65855

>  <SCORE.INTRA.DIHEDRAL>
6.2085

>  <SCORE.INTRA.DIHEDRAL.0>
1.67653

>  <SCORE.INTRA.POLAR>
0

>  <SCORE.INTRA.POLAR.0>
0

>  <SCORE.INTRA.REPUL>
0

>  <SCORE.INTRA.REPUL.0>
0

>  <SCORE.INTRA.SOLV>
2.18748

>  <SCORE.INTRA.SOLV.lig_0>
-76.6701

>  <SCORE.INTRA.VDW>
0.460559

>  <SCORE.INTRA.VDW.0>
-1.53273

>  <SCORE.INTRA.norm>
0.211752

>  <SCORE.RESTR>
0.142446

>  <SCORE.RESTR.CAVITY>
0.142446

>  <SCORE.RESTR.norm>
0.00647481

>  <SCORE.SYSTEM>
0

>  <SCORE.SYSTEM.CONST>
0

>  <SCORE.SYSTEM.DIHEDRAL>
0

>  <SCORE.SYSTEM.SOLV>
0

>  <SCORE.SYSTEM.norm>
0

>  <SCORE.heavy>
22

>  <SCORE.norm>
-0.335241

>  <RMSD>
33.437

$$$$
2f4s_lig
 OpenBabel11021811433D
libRbt.so/2013.1/901 2013/11/27
 22 23  0  0  0  0  0  0  0  0999 V2000
    1.7903  -14.6221   27.7361 N   0  0  0  0  0  0  0  0  0  0  0  0
    5.3746  -13.3488   24.4640 N   0  0  0  0  0  0  0  0  0  0  0  0
    9.1343   -9.4846   22.4709 N   0  0  0  0  0  0  0  0  0  0  0  0
    3.5984  -10.0137   27.7370 O   0  0  0  0  0  0  0  0  0  0  0  0
    3.2898  -11.1535   26.8835 C   0  0  2  0  0  0  0  0  0  0  0  0
    3.2505   -8.1854   25.2485 N   0  0  0  0  0  0  0  0  0  0  0  0
    1.5295  -11.8962   28.4363 O   0  0  0  0  0  0  0  0  0  0  0  0
    2.7069  -12.3143   27.7357 C   0  0  1  0  0  0  0  0  0  0  0  0
    5.0625  -10.6005   25.2833 O   0  0  0  0  0  0  0  0  0  0  0  0
    2.3450  -13.5132   26.8676 C   0  0  1  0  0  0  0  0  0  0  0  0
    6.8862   -9.1887   25.4446 O   0  0  0  0  0  0  0  0  0  0  0  0
    3.6164  -14.0077   26.0981 C   0  0  0  0  0  0  0  0  0  0  0  0
    6.8873   -8.0787   21.9441 O   0  0  0  0  0  0  0  0  0  0  0  0
    4.1606  -12.8206   25.2140 C   0  0  1  0  0  0  0  0  0  0  0  0
    4.4100   -7.0364   22.8856 O   0  0  0  0  0  0  0  0  0  0  0  0
    4.5797  -11.6446   26.1149 C   0  0  2  0  0  0  0  0  0  0  0  0
    5.4366   -9.3272   25.7789 C   0  0  1  0  0  0  0  0  0  0  0  0
    7.2409   -9.2272   23.9976 C   0  0  2  0  0  0  0  0  0  0  0  0
    8.7619   -9.0993   23.8699 C   0  0  0  0  0  0  0  0  0  0  0  0
    6.5657   -8.0589   23.3145 C   0  0  2  0  0  0  0  0  0  0  0  0
    5.0548   -8.1452   23.5230 C   0  0  1  0  0  0  0  0  0  0  0  0
    4.7420   -8.1305   25.0396 C   0  0  1  0  0  0  0  0  0  0  0  0
  5  4  1  1  0  0  0
  5  8  1  0  0  0  0
  5 16  1  0  0  0  0
  8  7  1  6  0  0  0
  8 10  1  0  0  0  0
 10  1  1  1  0  0  0
 10 12  1  0  0  0  0
 11 18  1  0  0  0  0
 12 14  1  0  0  0  0
 14  2  1  1  0  0  0
 14 16  1  0  0  0  0
 16  9  1  6  0  0  0
 17  9  1  6  0  0  0
 17 11  1  0  0  0  0
 17 22  1  0  0  0  0
 18 19  1  1  0  0  0
 18 20  1  0  0  0  0
 19  3  1  0  0  0  0
 20 13  1  6  0  0  0
 20 21  1  0  0  0  0
 21 15  1  6  0  0  0
 21 22  1  0  0  0  0
 22  6  1  6  0  0  0
M  END
>  <CHROM.1>
58.17569302,118.55989579,165.85344993,4.84062357,-10.41272894,25.27171369
-2.34859958,0.59406219,-0.21979526

>  <Name>
2f4s_lig

>  <RI>
0

>  <Rbt.Current_Directory>
/home/itssahil/PROJECTS/Mol_Feturizer/New_Systems/rnas/2f4s

>  <Rbt.Executable>
rbdock ($Id: //depot/dev/client3/rdock/2013.1/src/exe/rbdock.cxx#4 $)

>  <Rbt.Library>
libRbt.so (2013.1, Build901 2013/11/27)

>  <Rbt.Parameter_File>
/export/apps/rDock/src/rDock_2013.1_src/data/scripts/dock_solv.prm

>  <Rbt.Receptor>
prm/blind_docking_80.prm

>  <SCORE>
-7.40427

>  <SCORE.INTER>
-12.2112

>  <SCORE.INTER.CONST>
1

>  <SCORE.INTER.POLAR>
-0.571025

>  <SCORE.INTER.ROT>
3

>  <SCORE.INTER.SOLV>
16.7307

>  <SCORE.INTER.VDW>
-17.4143

>  <SCORE.INTER.norm>
-0.555053

>  <SCORE.INTRA>
4.65357

>  <SCORE.INTRA.DIHEDRAL>
6.13526

>  <SCORE.INTRA.DIHEDRAL.0>
1.67653

>  <SCORE.INTRA.POLAR>
0

>  <SCORE.INTRA.POLAR.0>
0

>  <SCORE.INTRA.REPUL>
0

>  <SCORE.INTRA.REPUL.0>
0

>  <SCORE.INTRA.SOLV>
2.2232

>  <SCORE.INTRA.SOLV.lig_0>
-76.6701

>  <SCORE.INTRA.VDW>
0.47434

>  <SCORE.INTRA.VDW.0>
-1.53273

>  <SCORE.INTRA.norm>
0.211526

>  <SCORE.RESTR>
0.153327

>  <SCORE.RESTR.CAVITY>
0.153327

>  <SCORE.RESTR.norm>
0.0069694

>  <SCORE.SYSTEM>
0

>  <SCORE.SYSTEM.CONST>
0

>  <SCORE.SYSTEM.DIHEDRAL>
0

>  <SCORE.SYSTEM.SOLV>
0

>  <SCORE.SYSTEM.norm>
0

>  <SCORE.heavy>
22

>  <SCORE.norm>
-0.336558

>  <RMSD>
33.442

$$$$
2f4s_lig
 OpenBabel11021811433D
libRbt.so/2013.1/901 2013/11/27
 22 23  0  0  0  0  0  0  0  0999 V2000
    4.1089  -16.0129   27.1665 N   0  0  0  0  0  0  0  0  0  0  0  0
    5.8994  -13.2629   23.3708 N   0  0  0  0  0  0  0  0  0  0  0  0
    9.3847  -10.3182   23.9590 N   0  0  0  0  0  0  0  0  0  0  0  0
    4.4515  -11.0968   27.6372 O   0  0  0  0  0  0  0  0  0  0  0  0
    4.2089  -12.1706   26.6828 C   0  0  2  0  0  0  0  0  0  0  0  0
    3.2217   -8.5481   25.0251 N   0  0  0  0  0  0  0  0  0  0  0  0
    3.3445  -13.6250   28.4713 O   0  0  0  0  0  0  0  0  0  0  0  0
    4.2902  -13.5472   27.3983 C   0  0  1  0  0  0  0  0  0  0  0  0
    5.1218  -10.8845   24.8063 O   0  0  0  0  0  0  0  0  0  0  0  0
    4.0114  -14.6925   26.4326 C   0  0  1  0  0  0  0  0  0  0  0  0
    6.8973   -9.4151   24.9896 O   0  0  0  0  0  0  0  0  0  0  0  0
    5.0404  -14.6472   25.2527 C   0  0  0  0  0  0  0  0  0  0  0  0
    6.6950   -8.0620   21.5817 O   0  0  0  0  0  0  0  0  0  0  0  0
    4.9063  -13.2553   24.5236 C   0  0  1  0  0  0  0  0  0  0  0  0
    4.2269   -7.1895   22.7031 O   0  0  0  0  0  0  0  0  0  0  0  0
    5.2540  -12.1162   25.4992 C   0  0  2  0  0  0  0  0  0  0  0  0
    5.4709   -9.6353   25.3758 C   0  0  1  0  0  0  0  0  0  0  0  0
    7.1858   -9.3372   23.5295 C   0  0  2  0  0  0  0  0  0  0  0  0
    8.6934   -9.1392   23.3453 C   0  0  0  0  0  0  0  0  0  0  0  0
    6.4368   -8.1519   22.9627 C   0  0  2  0  0  0  0  0  0  0  0  0
    4.9414   -8.3136   23.2300 C   0  0  1  0  0  0  0  0  0  0  0  0
    4.6989   -8.4184   24.7559 C   0  0  1  0  0  0  0  0  0  0  0  0
  5  4  1  1  0  0  0
  5  8  1  0  0  0  0
  5 16  1  0  0  0  0
  8  7  1  1  0  0  0
  8 10  1  0  0  0  0
 10  1  1  1  0  0  0
 10 12  1  0  0  0  0
 11 18  1  0  0  0  0
 12 14  1  0  0  0  0
 14  2  1  6  0  0  0
 14 16  1  0  0  0  0
 16  9  1  6  0  0  0
 17  9  1  6  0  0  0
 17 11  1  0  0  0  0
 17 22  1  0  0  0  0
 18 19  1  1  0  0  0
 18 20  1  0  0  0  0
 19  3  1  0  0  0  0
 20 13  1  6  0  0  0
 20 21  1  0  0  0  0
 21 15  1  1  0  0  0
 21 22  1  0  0  0  0
 22  6  1  6  0  0  0
M  END
>  <CHROM.1>
68.43694439,91.59835071,60.25065781,5.38378170,-10.95725373,24.94115655,-1.94190940
0.57735311,-0.36705444

>  <Name>
2f4s_lig

>  <RI>
0

>  <Rbt.Current_Directory>
/home/itssahil/PROJECTS/Mol_Feturizer/New_Systems/rnas/2f4s

>  <Rbt.Executable>
rbdock ($Id: //depot/dev/client3/rdock/2013.1/src/exe/rbdock.cxx#4 $)

>  <Rbt.Library>
libRbt.so (2013.1, Build901 2013/11/27)

>  <Rbt.Parameter_File>
/export/apps/rDock/src/rDock_2013.1_src/data/scripts/dock_solv.prm

>  <Rbt.Receptor>
prm/blind_docking_60.prm

>  <SCORE>
-5.08716

>  <SCORE.INTER>
-7.38432

>  <SCORE.INTER.CONST>
1

>  <SCORE.INTER.POLAR>
-0.606176

>  <SCORE.INTER.ROT>
3

>  <SCORE.INTER.SOLV>
25.6269

>  <SCORE.INTER.VDW>
-17.0446

>  <SCORE.INTER.norm>
-0.335651

>  <SCORE.INTRA>
1.60424

>  <SCORE.INTRA.DIHEDRAL>
2.59981

>  <SCORE.INTRA.DIHEDRAL.0>
1.67653

>  <SCORE.INTRA.POLAR>
0

>  <SCORE.INTRA.POLAR.0>
0

>  <SCORE.INTRA.REPUL>
0

>  <SCORE.INTRA.REPUL.0>
0

>  <SCORE.INTRA.SOLV>
0.395236

>  <SCORE.INTRA.SOLV.lig_0>
-76.6701

>  <SCORE.INTRA.VDW>
0.106712

>  <SCORE.INTRA.VDW.0>
-1.53273

>  <SCORE.INTRA.norm>
0.0729199

>  <SCORE.RESTR>
0.692926

>  <SCORE.RESTR.CAVITY>
0.692926

>  <SCORE.RESTR.norm>
0.0314966

>  <SCORE.SYSTEM>
0

>  <SCORE.SYSTEM.CONST>
0

>  <SCORE.SYSTEM.DIHEDRAL>
0

>  <SCORE.SYSTEM.SOLV>
0

>  <SCORE.SYSTEM.norm>
0

>  <SCORE.heavy>
22

>  <SCORE.norm>
-0.231234

>  <RMSD>
33.674

$$$$
2f4s_lig
 OpenBabel11021811433D
libRbt.so/2013.1/901 2013/11/27
 22 23  0  0  0  0  0  0  0  0999 V2000
    4.8796  -16.1734   27.4770 N   0  0  0  0  0  0  0  0  0  0  0  0
    2.3918  -11.8245   27.7480 N   0  0  0  0  0  0  0  0  0  0  0  0
    7.7362   -8.5782   23.4127 N   0  0  0  0  0  0  0  0  0  0  0  0
    5.4301  -12.7966   23.8991 O   0  0  0  0  0  0  0  0  0  0  0  0
    5.1943  -12.9664   25.3268 C   0  0  2  0  0  0  0  0  0  0  0  0
    3.3952   -8.6924   27.5159 N   0  0  0  0  0  0  0  0  0  0  0  0
    6.3627  -15.1334   25.3073 O   0  0  0  0  0  0  0  0  0  0  0  0
    5.1455  -14.4780   25.6823 C   0  0  1  0  0  0  0  0  0  0  0  0
    3.9276  -10.8748   25.4983 O   0  0  0  0  0  0  0  0  0  0  0  0
    4.9295  -14.6908   27.1756 C   0  0  1  0  0  0  0  0  0  0  0  0
    5.9054   -9.8211   24.9298 O   0  0  0  0  0  0  0  0  0  0  0  0
    3.5953  -13.9994   27.6173 C   0  0  0  0  0  0  0  0  0  0  0  0
    4.4016   -7.0991   22.9766 O   0  0  0  0  0  0  0  0  0  0  0  0
    3.6914  -12.4620   27.2792 C   0  0  1  0  0  0  0  0  0  0  0  0
    3.4033   -6.5627   25.5892 O   0  0  0  0  0  0  0  0  0  0  0  0
    3.8452  -12.2675   25.7598 C   0  0  2  0  0  0  0  0  0  0  0  0
    4.9361  -10.0435   26.0448 C   0  0  1  0  0  0  0  0  0  0  0  0
    5.3752   -9.1409   23.7144 C   0  0  2  0  0  0  0  0  0  0  0  0
    6.5072   -9.0350   22.6880 C   0  0  0  0  0  0  0  0  0  0  0  0
    4.9087   -7.7584   24.1124 C   0  0  2  0  0  0  0  0  0  0  0  0
    3.8432   -7.8695   25.2015 C   0  0  1  0  0  0  0  0  0  0  0  0
    4.4345   -8.6072   26.4279 C   0  0  1  0  0  0  0  0  0  0  0  0
  5  4  1  6  0  0  0
  5  8  1  0  0  0  0
  5 16  1  0  0  0  0
  8  7  1  1  0  0  0
  8 10  1  0  0  0  0
 10  1  1  6  0  0  0
 10 12  1  0  0  0  0
 11 18  1  0  0  0  0
 12 14  1  0  0  0  0
 14  2  1  6  0  0  0
 14 16  1  0  0  0  0
 16  9  1  1  0  0  0
 17  9  1  6  0  0  0
 17 11  1  0  0  0  0
 17 22  1  0  0  0  0
 18 19  1  6  0  0  0
 18 20  1  0  0  0  0
 19  3  1  0  0  0  0
 20 13  1  6  0  0  0
 20 21  1  0  0  0  0
 21 15  1  1  0  0  0
 21 22  1  0  0  0  0
 22  6  1  1  0  0  0
M  END
>  <CHROM.1>
-57.44559562,102.75438715,-44.70604666,4.74807384,-10.92451491,25.48096571
1.59901510,-0.82862952,2.83843682

>  <Name>
2f4s_lig

>  <RI>
8.9913e+06

>  <Rbt.Current_Directory>
/home/itssahil/PROJECTS/Mol_Feturizer/New_Systems/rnas/2f4s

>  <Rbt.Executable>
rbdock ($Id: //depot/dev/client3/rdock/2013.1/src/exe/rbdock.cxx#4 $)

>  <Rbt.Library>
libRbt.so (2013.1, Build901 2013/11/27)

>  <Rbt.Parameter_File>
/export/apps/rDock/src/rDock_2013.1_src/data/scripts/dock_solv.prm

>  <Rbt.Receptor>
prm/blind_docking_40.prm

>  <SCORE>
-5.36262

>  <SCORE.INTER>
-10.0078

>  <SCORE.INTER.CONST>
1

>  <SCORE.INTER.POLAR>
-0.746365

>  <SCORE.INTER.ROT>
3

>  <SCORE.INTER.SOLV>
17.0202

>  <SCORE.INTER.VDW>
-15.4574

>  <SCORE.INTER.norm>
-0.4549

>  <SCORE.INTRA>
4.63089

>  <SCORE.INTRA.DIHEDRAL>
4.96209

>  <SCORE.INTRA.DIHEDRAL.0>
1.67653

>  <SCORE.INTRA.POLAR>
0

>  <SCORE.INTRA.POLAR.0>
0

>  <SCORE.INTRA.REPUL>
0

>  <SCORE.INTRA.REPUL.0>
0

>  <SCORE.INTRA.SOLV>
3.90759

>  <SCORE.INTRA.SOLV.lig_0>
-76.6701

>  <SCORE.INTRA.VDW>
0.196048

>  <SCORE.INTRA.VDW.0>
-1.53273

>  <SCORE.INTRA.norm>
0.210495

>  <SCORE.RESTR>
0.0142923

>  <SCORE.RESTR.CAVITY>
0.0142923

>  <SCORE.RESTR.norm>
0.00064965

>  <SCORE.SYSTEM>
0

>  <SCORE.SYSTEM.CONST>
0

>  <SCORE.SYSTEM.DIHEDRAL>
0

>  <SCORE.SYSTEM.SOLV>
0

>  <SCORE.SYSTEM.norm>
0

>  <SCORE.heavy>
22

>  <SCORE.norm>
-0.243755

>  <RMSD>
33.675

$$$$
2f4s_lig
 OpenBabel11021811433D
libRbt.so/2013.1/901 2013/11/27
 22 23  0  0  0  0  0  0  0  0999 V2000
    2.8280  -15.5032   27.3854 N   0  0  0  0  0  0  0  0  0  0  0  0
    5.6745  -13.4644   23.7914 N   0  0  0  0  0  0  0  0  0  0  0  0
    9.3827  -10.3030   23.9715 N   0  0  0  0  0  0  0  0  0  0  0  0
    4.0192  -10.7037   27.6163 O   0  0  0  0  0  0  0  0  0  0  0  0
    3.7286  -11.7984   26.6996 C   0  0  2  0  0  0  0  0  0  0  0  0
    3.2924   -8.5079   25.2543 N   0  0  0  0  0  0  0  0  0  0  0  0
    2.3371  -12.9107   28.3990 O   0  0  0  0  0  0  0  0  0  0  0  0
    3.4353  -13.0981   27.4986 C   0  0  1  0  0  0  0  0  0  0  0  0
    5.1488  -10.8673   24.9319 O   0  0  0  0  0  0  0  0  0  0  0  0
    3.0977  -14.2573   26.5690 C   0  0  1  0  0  0  0  0  0  0  0  0
    6.9504   -9.4226   25.0414 O   0  0  0  0  0  0  0  0  0  0  0  0
    4.2870  -14.5008   25.5794 C   0  0  0  0  0  0  0  0  0  0  0  0
    6.6074   -8.0430   21.6554 O   0  0  0  0  0  0  0  0  0  0  0  0
    4.5341  -13.1779   24.7573 C   0  0  1  0  0  0  0  0  0  0  0  0
    4.2062   -7.1463   22.8966 O   0  0  0  0  0  0  0  0  0  0  0  0
    4.9358  -12.0361   25.7087 C   0  0  2  0  0  0  0  0  0  0  0  0
    5.5408   -9.6269   25.4925 C   0  0  1  0  0  0  0  0  0  0  0  0
    7.1714   -9.3382   23.5700 C   0  0  2  0  0  0  0  0  0  0  0  0
    8.6714   -9.1587   23.3167 C   0  0  0  0  0  0  0  0  0  0  0  0
    6.4127   -8.1392   23.0464 C   0  0  2  0  0  0  0  0  0  0  0  0
    4.9294   -8.2833   23.3823 C   0  0  1  0  0  0  0  0  0  0  0  0
    4.7570   -8.3956   24.9171 C   0  0  1  0  0  0  0  0  0  0  0  0
  5  4  1  1  0  0  0
  5  8  1  0  0  0  0
  5 16  1  0  0  0  0
  8  7  1  1  0  0  0
  8 10  1  0  0  0  0
 10  1  1  1  0  0  0
 10 12  1  0  0  0  0
 11 18  1  0  0  0  0
 12 14  1  0  0  0  0
 14  2  1  6  0  0  0
 14 16  1  0  0  0  0
 16  9  1  6  0  0  0
 17  9  1  6  0  0  0
 17 11  1  0  0  0  0
 17 22  1  0  0  0  0
 18 19  1  1  0  0  0
 18 20  1  0  0  0  0
 19  3  1  0  0  0  0
 20 13  1  6  0  0  0
 20 21  1  0  0  0  0
 21 15  1  1  0  0  0
 21 22  1  0  0  0  0
 22  6  1  6  0  0  0
M  END
>  <CHROM.1>
63.61275261,110.00977246,56.43724893,5.08807322,-10.81187614,25.06502284
-2.13221362,0.55550853,-0.29976465

>  <Name>
2f4s_lig

>  <RI>
0

>  <Rbt.Current_Directory>
/home/itssahil/PROJECTS/Mol_Feturizer/New_Systems/rnas/2f4s

>  <Rbt.Executable>
rbdock ($Id: //depot/dev/client3/rdock/2013.1/src/exe/rbdock.cxx#4 $)

>  <Rbt.Library>
libRbt.so (2013.1, Build901 2013/11/27)

>  <Rbt.Parameter_File>
/export/apps/rDock/src/rDock_2013.1_src/data/scripts/dock_solv.prm

>  <Rbt.Receptor>
prm/blind_docking_60.prm

>  <SCORE>
-3.1889

>  <SCORE.INTER>
-6.80062

>  <SCORE.INTER.CONST>
1

>  <SCORE.INTER.POLAR>
0

>  <SCORE.INTER.ROT>
3

>  <SCORE.INTER.SOLV>
22.8477

>  <SCORE.INTER.VDW>
-17.7496

>  <SCORE.INTER.norm>
-0.309119

>  <SCORE.INTRA>
3.28794

>  <SCORE.INTRA.DIHEDRAL>
5.08919

>  <SCORE.INTRA.DIHEDRAL.0>
1.67653

>  <SCORE.INTRA.POLAR>
0

>  <SCORE.INTRA.POLAR.0>
0

>  <SCORE.INTRA.REPUL>
0

>  <SCORE.INTRA.REPUL.0>
0

>  <SCORE.INTRA.SOLV>
1.02821

>  <SCORE.INTRA.SOLV.lig_0>
-76.6701

>  <SCORE.INTRA.VDW>
0.229236

>  <SCORE.INTRA.VDW.0>
-1.53273

>  <SCORE.INTRA.norm>
0.149452

>  <SCORE.RESTR>
0.323785

>  <SCORE.RESTR.CAVITY>
0.323785

>  <SCORE.RESTR.norm>
0.0147175

>  <SCORE.SYSTEM>
0

>  <SCORE.SYSTEM.CONST>
0

>  <SCORE.SYSTEM.DIHEDRAL>
0

>  <SCORE.SYSTEM.SOLV>
0

>  <SCORE.SYSTEM.norm>
0

>  <SCORE.heavy>
22

>  <SCORE.norm>
-0.14495

>  <RMSD>
33.679

$$$$
2f4s_lig
 OpenBabel11021811433D
libRbt.so/2013.1/901 2013/11/27
 22 23  0  0  0  0  0  0  0  0999 V2000
    4.6098  -16.2250   27.0920 N   0  0  0  0  0  0  0  0  0  0  0  0
    5.8819  -13.1298   23.3534 N   0  0  0  0  0  0  0  0  0  0  0  0
    9.1245   -9.6188   22.3355 N   0  0  0  0  0  0  0  0  0  0  0  0
    4.5010  -11.3277   27.8072 O   0  0  0  0  0  0  0  0  0  0  0  0
    4.3046  -12.3733   26.8117 C   0  0  2  0  0  0  0  0  0  0  0  0
    3.1483   -8.5042   24.9807 N   0  0  0  0  0  0  0  0  0  0  0  0
    3.7000  -13.9915   28.5660 O   0  0  0  0  0  0  0  0  0  0  0  0
    4.5644  -13.7676   27.4459 C   0  0  1  0  0  0  0  0  0  0  0  0
    4.9683  -10.9133   24.9579 O   0  0  0  0  0  0  0  0  0  0  0  0
    4.3382  -14.8873   26.4374 C   0  0  1  0  0  0  0  0  0  0  0  0
    6.7795   -9.5065   25.2499 O   0  0  0  0  0  0  0  0  0  0  0  0
    5.2817  -14.6823   25.2042 C   0  0  0  0  0  0  0  0  0  0  0  0
    6.8937   -8.2254   21.8102 O   0  0  0  0  0  0  0  0  0  0  0  0
    4.9672  -13.2774   24.5604 C   0  0  1  0  0  0  0  0  0  0  0  0
    4.3816   -7.2372   22.7176 O   0  0  0  0  0  0  0  0  0  0  0  0
    5.2630  -12.1574   25.5745 C   0  0  2  0  0  0  0  0  0  0  0  0
    5.3201   -9.6651   25.5278 C   0  0  1  0  0  0  0  0  0  0  0  0
    7.1828   -9.4727   23.8157 C   0  0  2  0  0  0  0  0  0  0  0  0
    8.7067   -9.3347   23.7459 C   0  0  0  0  0  0  0  0  0  0  0  0
    6.5261   -8.2740   23.1684 C   0  0  2  0  0  0  0  0  0  0  0  0
    5.0094   -8.3744   23.3212 C   0  0  1  0  0  0  0  0  0  0  0  0
    4.6457   -8.4351   24.8252 C   0  0  1  0  0  0  0  0  0  0  0  0
  5  4  1  1  0  0  0
  5  8  1  0  0  0  0
  5 16  1  0  0  0  0
  8  7  1  1  0  0  0
  8 10  1  0  0  0  0
 10  1  1  1  0  0  0
 10 12  1  0  0  0  0
 11 18  1  0  0  0  0
 12 14  1  0  0  0  0
 14  2  1  6  0  0  0
 14 16  1  0  0  0  0
 16  9  1  6  0  0  0
 17  9  1  6  0  0  0
 17 11  1  0  0  0  0
 17 22  1  0  0  0  0
 18 19  1  1  0  0  0
 18 20  1  0  0  0  0
 19  3  1  0  0  0  0
 20 13  1  6  0  0  0
 20 21  1  0  0  0  0
 21 15  1  1  0  0  0
 21 22  1  0  0  0  0
 22  6  1  6  0  0  0
M  END
>  <CHROM.1>
73.33876853,77.74736525,167.13232070,5.45724935,-11.02946107,24.97110394
-1.93534395,0.68725508,-0.34191974

>  <Name>
2f4s_lig

>  <RI>
0

>  <Rbt.Current_Directory>
/home/itssahil/PROJECTS/Mol_Feturizer/New_Systems/rnas/2f4s

>  <Rbt.Executable>
rbdock ($Id: //depot/dev/client3/rdock/2013.1/src/exe/rbdock.cxx#4 $)

>  <Rbt.Library>
libRbt.so (2013.1, Build901 2013/11/27)

>  <Rbt.Parameter_File>
/export/apps/rDock/src/rDock_2013.1_src/data/scripts/dock_solv.prm

>  <Rbt.Receptor>
prm/blind_docking_60.prm

>  <SCORE>
-7.3041

>  <SCORE.INTER>
-9.47557

>  <SCORE.INTER.CONST>
1

>  <SCORE.INTER.POLAR>
-0.835236

>  <SCORE.INTER.ROT>
3

>  <SCORE.INTER.SOLV>
21.3187

>  <SCORE.INTER.VDW>
-16.2392

>  <SCORE.INTER.norm>
-0.430708

>  <SCORE.INTRA>
1.3699

>  <SCORE.INTRA.DIHEDRAL>
1.2848

>  <SCORE.INTRA.DIHEDRAL.0>
1.67653

>  <SCORE.INTRA.POLAR>
0

>  <SCORE.INTRA.POLAR.0>
0

>  <SCORE.INTRA.REPUL>
0

>  <SCORE.INTRA.REPUL.0>
0

>  <SCORE.INTRA.SOLV>
1.11882

>  <SCORE.INTRA.SOLV.lig_0>
-76.6701

>  <SCORE.INTRA.VDW>
0.168093

>  <SCORE.INTRA.VDW.0>
-1.53273

>  <SCORE.INTRA.norm>
0.0622682

>  <SCORE.RESTR>
0.801574

>  <SCORE.RESTR.CAVITY>
0.801574

>  <SCORE.RESTR.norm>
0.0364352

>  <SCORE.SYSTEM>
0

>  <SCORE.SYSTEM.CONST>
0

>  <SCORE.SYSTEM.DIHEDRAL>
0

>  <SCORE.SYSTEM.SOLV>
0

>  <SCORE.SYSTEM.norm>
0

>  <SCORE.heavy>
22

>  <SCORE.norm>
-0.332004

>  <RMSD>
33.682

$$$$
2f4s_lig
 OpenBabel11021811433D
libRbt.so/2013.1/901 2013/11/27
 22 23  0  0  0  0  0  0  0  0999 V2000
    4.5982  -16.2254   27.0903 N   0  0  0  0  0  0  0  0  0  0  0  0
    5.8892  -13.1344   23.3546 N   0  0  0  0  0  0  0  0  0  0  0  0
    9.1143   -9.6417   22.3039 N   0  0  0  0  0  0  0  0  0  0  0  0
    4.5008  -11.3276   27.8042 O   0  0  0  0  0  0  0  0  0  0  0  0
    4.3044  -12.3729   26.8083 C   0  0  2  0  0  0  0  0  0  0  0  0
    3.1605   -8.5037   24.9968 N   0  0  0  0  0  0  0  0  0  0  0  0
    3.6904  -13.9890   28.5612 O   0  0  0  0  0  0  0  0  0  0  0  0
    4.5585  -13.7677   27.4435 C   0  0  1  0  0  0  0  0  0  0  0  0
    4.9772  -10.9151   24.9561 O   0  0  0  0  0  0  0  0  0  0  0  0
    4.3321  -14.8871   26.4347 C   0  0  1  0  0  0  0  0  0  0  0  0
    6.7926   -9.5109   25.2340 O   0  0  0  0  0  0  0  0  0  0  0  0
    5.2796  -14.6849   25.2041 C   0  0  0  0  0  0  0  0  0  0  0  0
    6.8790   -8.2265   21.7947 O   0  0  0  0  0  0  0  0  0  0  0  0
    4.9708  -13.2793   24.5591 C   0  0  1  0  0  0  0  0  0  0  0  0
    4.3760   -7.2360   22.7246 O   0  0  0  0  0  0  0  0  0  0  0  0
    5.2667  -12.1599   25.5737 C   0  0  2  0  0  0  0  0  0  0  0  0
    5.3354   -9.6679   25.5242 C   0  0  1  0  0  0  0  0  0  0  0  0
    7.1837   -9.4762   23.7963 C   0  0  2  0  0  0  0  0  0  0  0  0
    8.7071   -9.3400   23.7137 C   0  0  0  0  0  0  0  0  0  0  0  0
    6.5230   -8.2760   23.1559 C   0  0  2  0  0  0  0  0  0  0  0  0
    5.0075   -8.3746   23.3216 C   0  0  1  0  0  0  0  0  0  0  0  0
    4.6566   -8.4364   24.8286 C   0  0  1  0  0  0  0  0  0  0  0  0
  5  4  1  1  0  0  0
  5  8  1  0  0  0  0
  5 16  1  0  0  0  0
  8  7  1  1  0  0  0
  8 10  1  0  0  0  0
 10  1  1  1  0  0  0
 10 12  1  0  0  0  0
 11 18  1  0  0  0  0
 12 14  1  0  0  0  0
 14  2  1  6  0  0  0
 14 16  1  0  0  0  0
 16  9  1  6  0  0  0
 17  9  1  6  0  0  0
 17 11  1  0  0  0  0
 17 22  1  0  0  0  0
 18 19  1  1  0  0  0
 18 20  1  0  0  0  0
 19  3  1  0  0  0  0
 20 13  1  6  0  0  0
 20 21  1  0  0  0  0
 21 15  1  1  0  0  0
 21 22  1  0  0  0  0
 22  6  1  6  0  0  0
M  END
>  <CHROM.1>
73.59368605,78.23215497,166.36787497,5.45737319,-11.03180799,24.96539578
-1.93816613,0.69264669,-0.34011180

>  <Name>
2f4s_lig

>  <RI>
0

>  <Rbt.Current_Directory>
/home/itssahil/PROJECTS/Mol_Feturizer/New_Systems/rnas/2f4s

>  <Rbt.Executable>
rbdock ($Id: //depot/dev/client3/rdock/2013.1/src/exe/rbdock.cxx#4 $)

>  <Rbt.Library>
libRbt.so (2013.1, Build901 2013/11/27)

>  <Rbt.Parameter_File>
/export/apps/rDock/src/rDock_2013.1_src/data/scripts/dock_solv.prm

>  <Rbt.Receptor>
prm/blind_docking_60.prm

>  <SCORE>
-7.21483

>  <SCORE.INTER>
-9.42646

>  <SCORE.INTER.CONST>
1

>  <SCORE.INTER.POLAR>
-0.830115

>  <SCORE.INTER.ROT>
3

>  <SCORE.INTER.SOLV>
21.3014

>  <SCORE.INTER.VDW>
-16.2177

>  <SCORE.INTER.norm>
-0.428475

>  <SCORE.INTRA>
1.43064

>  <SCORE.INTRA.DIHEDRAL>
1.45408

>  <SCORE.INTRA.DIHEDRAL.0>
1.67653

>  <SCORE.INTRA.POLAR>
0

>  <SCORE.INTRA.POLAR.0>
0

>  <SCORE.INTRA.REPUL>
0

>  <SCORE.INTRA.REPUL.0>
0

>  <SCORE.INTRA.SOLV>
1.12517

>  <SCORE.INTRA.SOLV.lig_0>
-76.6701

>  <SCORE.INTRA.VDW>
0.141019

>  <SCORE.INTRA.VDW.0>
-1.53273

>  <SCORE.INTRA.norm>
0.0650293

>  <SCORE.RESTR>
0.780982

>  <SCORE.RESTR.CAVITY>
0.780982

>  <SCORE.RESTR.norm>
0.0354992

>  <SCORE.SYSTEM>
0

>  <SCORE.SYSTEM.CONST>
0

>  <SCORE.SYSTEM.DIHEDRAL>
0

>  <SCORE.SYSTEM.SOLV>
0

>  <SCORE.SYSTEM.norm>
0

>  <SCORE.heavy>
22

>  <SCORE.norm>
-0.327947

>  <RMSD>
33.686

$$$$
2f4s_lig
 OpenBabel11021811433D
libRbt.so/2013.1/901 2013/11/27
 22 23  0  0  0  0  0  0  0  0999 V2000
    4.0151  -16.0863   27.1806 N   0  0  0  0  0  0  0  0  0  0  0  0
    5.8298  -13.3016   23.4218 N   0  0  0  0  0  0  0  0  0  0  0  0
    9.2998   -8.6946   24.1585 N   0  0  0  0  0  0  0  0  0  0  0  0
    4.4277  -11.1834   27.7274 O   0  0  0  0  0  0  0  0  0  0  0  0
    4.1668  -12.2386   26.7571 C   0  0  2  0  0  0  0  0  0  0  0  0
    3.4214   -8.4508   25.2928 N   0  0  0  0  0  0  0  0  0  0  0  0
    3.2887  -13.7089   28.5258 O   0  0  0  0  0  0  0  0  0  0  0  0
    4.2315  -13.6273   27.4505 C   0  0  1  0  0  0  0  0  0  0  0  0
    5.0906  -10.9357   24.8976 O   0  0  0  0  0  0  0  0  0  0  0  0
    3.9333  -14.7532   26.4680 C   0  0  1  0  0  0  0  0  0  0  0  0
    6.9908   -9.6188   24.8949 O   0  0  0  0  0  0  0  0  0  0  0  0
    4.9585  -14.7035   25.2850 C   0  0  0  0  0  0  0  0  0  0  0  0
    6.5614   -8.2432   21.5172 O   0  0  0  0  0  0  0  0  0  0  0  0
    4.8411  -13.2985   24.5784 C   0  0  1  0  0  0  0  0  0  0  0  0
    4.2983   -7.1729   22.8749 O   0  0  0  0  0  0  0  0  0  0  0  0
    5.2081  -12.1799   25.5705 C   0  0  2  0  0  0  0  0  0  0  0  0
    5.5969   -9.7214   25.4228 C   0  0  1  0  0  0  0  0  0  0  0  0
    7.1373   -9.5606   23.4130 C   0  0  2  0  0  0  0  0  0  0  0  0
    8.6302   -9.4875   23.0781 C   0  0  0  0  0  0  0  0  0  0  0  0
    6.4359   -8.3156   22.9176 C   0  0  2  0  0  0  0  0  0  0  0  0
    4.9665   -8.3539   23.3337 C   0  0  1  0  0  0  0  0  0  0  0  0
    4.8699   -8.4429   24.8767 C   0  0  1  0  0  0  0  0  0  0  0  0
  5  4  1  1  0  0  0
  5  8  1  0  0  0  0
  5 16  1  0  0  0  0
  8  7  1  1  0  0  0
  8 10  1  0  0  0  0
 10  1  1  1  0  0  0
 10 12  1  0  0  0  0
 11 18  1  0  0  0  0
 12 14  1  0  0  0  0
 14  2  1  6  0  0  0
 14 16  1  0  0  0  0
 16  9  1  6  0  0  0
 17  9  1  6  0  0  0
 17 11  1  0  0  0  0
 17 22  1  0  0  0  0
 18 19  1  1  0  0  0
 18 20  1  0  0  0  0
 19  3  1  0  0  0  0
 20 13  1  6  0  0  0
 20 21  1  0  0  0  0
 21 15  1  1  0  0  0
 21 22  1  0  0  0  0
 22  6  1  6  0  0  0
M  END
>  <CHROM.1>
75.81685692,90.55133852,-34.19525489,5.37021055,-10.96915265,24.98407721
-2.00522426,0.67654630,-0.28826352

>  <Name>
2f4s_lig

>  <RI>
0

>  <Rbt.Current_Directory>
/home/itssahil/PROJECTS/Mol_Feturizer/New_Systems/rnas/2f4s

>  <Rbt.Executable>
rbdock ($Id: //depot/dev/client3/rdock/2013.1/src/exe/rbdock.cxx#4 $)

>  <Rbt.Library>
libRbt.so (2013.1, Build901 2013/11/27)

>  <Rbt.Parameter_File>
/export/apps/rDock/src/rDock_2013.1_src/data/scripts/dock_solv.prm

>  <Rbt.Receptor>
prm/blind_docking_60.prm

>  <SCORE>
-0.343241

>  <SCORE.INTER>
-4.61159

>  <SCORE.INTER.CONST>
1

>  <SCORE.INTER.POLAR>
-0.600913

>  <SCORE.INTER.ROT>
3

>  <SCORE.INTER.SOLV>
26.1094

>  <SCORE.INTER.VDW>
-15.3745

>  <SCORE.INTER.norm>
-0.209618

>  <SCORE.INTRA>
3.81189

>  <SCORE.INTRA.DIHEDRAL>
5.29065

>  <SCORE.INTRA.DIHEDRAL.0>
1.67653

>  <SCORE.INTRA.POLAR>
0

>  <SCORE.INTRA.POLAR.0>
0

>  <SCORE.INTRA.REPUL>
0

>  <SCORE.INTRA.REPUL.0>
0

>  <SCORE.INTRA.SOLV>
1.94496

>  <SCORE.INTRA.SOLV.lig_0>
-76.6701

>  <SCORE.INTRA.VDW>
0.194087

>  <SCORE.INTRA.VDW.0>
-1.53273

>  <SCORE.INTRA.norm>
0.173268

>  <SCORE.RESTR>
0.456456

>  <SCORE.RESTR.CAVITY>
0.456456

>  <SCORE.RESTR.norm>
0.020748

>  <SCORE.SYSTEM>
0

>  <SCORE.SYSTEM.CONST>
0

>  <SCORE.SYSTEM.DIHEDRAL>
0

>  <SCORE.SYSTEM.SOLV>
0

>  <SCORE.SYSTEM.norm>
0

>  <SCORE.heavy>
22

>  <SCORE.norm>
-0.0156019

>  <RMSD>
33.686

$$$$
2f4s_lig
 OpenBabel11021811433D
libRbt.so/2013.1/901 2013/11/27
 22 23  0  0  0  0  0  0  0  0999 V2000
    4.6305  -16.2313   27.1105 N   0  0  0  0  0  0  0  0  0  0  0  0
    5.8853  -13.1327   23.3689 N   0  0  0  0  0  0  0  0  0  0  0  0
    9.1173   -9.6818   22.3201 N   0  0  0  0  0  0  0  0  0  0  0  0
    4.5059  -11.3342   27.8246 O   0  0  0  0  0  0  0  0  0  0  0  0
    4.3114  -12.3808   26.8297 C   0  0  2  0  0  0  0  0  0  0  0  0
    3.1658   -8.4955   24.9928 N   0  0  0  0  0  0  0  0  0  0  0  0
    3.7155  -14.0005   28.5855 O   0  0  0  0  0  0  0  0  0  0  0  0
    4.5771  -13.7740   27.4638 C   0  0  1  0  0  0  0  0  0  0  0  0
    4.9667  -10.9190   24.9744 O   0  0  0  0  0  0  0  0  0  0  0  0
    4.3531  -14.8948   26.4560 C   0  0  1  0  0  0  0  0  0  0  0  0
    6.7907   -9.5246   25.2462 O   0  0  0  0  0  0  0  0  0  0  0  0
    5.2937  -14.6867   25.2211 C   0  0  0  0  0  0  0  0  0  0  0  0
    6.8935   -8.2664   21.7977 O   0  0  0  0  0  0  0  0  0  0  0  0
    4.9732  -13.2831   24.5775 C   0  0  1  0  0  0  0  0  0  0  0  0
    4.3950   -7.2526   22.7142 O   0  0  0  0  0  0  0  0  0  0  0  0
    5.2668  -12.1618   25.5907 C   0  0  2  0  0  0  0  0  0  0  0  0
    5.3318   -9.6699   25.5341 C   0  0  1  0  0  0  0  0  0  0  0  0
    7.1853   -9.5031   23.8093 C   0  0  2  0  0  0  0  0  0  0  0  0
    8.7098   -9.3775   23.7293 C   0  0  0  0  0  0  0  0  0  0  0  0
    6.5340   -8.3034   23.1584 C   0  0  2  0  0  0  0  0  0  0  0  0
    5.0175   -8.3909   23.3211 C   0  0  1  0  0  0  0  0  0  0  0  0
    4.6627   -8.4392   24.8277 C   0  0  1  0  0  0  0  0  0  0  0  0
  5  4  1  1  0  0  0
  5  8  1  0  0  0  0
  5 16  1  0  0  0  0
  8  7  1  1  0  0  0
  8 10  1  0  0  0  0
 10  1  1  1  0  0  0
 10 12  1  0  0  0  0
 11 18  1  0  0  0  0
 12 14  1  0  0  0  0
 14  2  1  6  0  0  0
 14 16  1  0  0  0  0
 16  9  1  6  0  0  0
 17  9  1  6  0  0  0
 17 11  1  0  0  0  0
 17 22  1  0  0  0  0
 18 19  1  1  0  0  0
 18 20  1  0  0  0  0
 19  3  1  0  0  0  0
 20 13  1  6  0  0  0
 20 21  1  0  0  0  0
 21 15  1  1  0  0  0
 21 22  1  0  0  0  0
 22  6  1  6  0  0  0
M  END
>  <CHROM.1>
74.25844044,77.12053215,166.80414948,5.46555061,-11.04429185,24.97760878
-1.93513692,0.69382665,-0.34544386

>  <Name>
2f4s_lig

>  <RI>
0

>  <Rbt.Current_Directory>
/home/itssahil/PROJECTS/Mol_Feturizer/New_Systems/rnas/2f4s

>  <Rbt.Executable>
rbdock ($Id: //depot/dev/client3/rdock/2013.1/src/exe/rbdock.cxx#4 $)

>  <Rbt.Library>
libRbt.so (2013.1, Build901 2013/11/27)

>  <Rbt.Parameter_File>
/export/apps/rDock/src/rDock_2013.1_src/data/scripts/dock_solv.prm

>  <Rbt.Receptor>
prm/blind_docking_60.prm

>  <SCORE>
-7.02683

>  <SCORE.INTER>
-9.15058

>  <SCORE.INTER.CONST>
1

>  <SCORE.INTER.POLAR>
-0.851058

>  <SCORE.INTER.ROT>
3

>  <SCORE.INTER.SOLV>
21.3597

>  <SCORE.INTER.VDW>
-15.9834

>  <SCORE.INTER.norm>
-0.415935

>  <SCORE.INTRA>
1.36758

>  <SCORE.INTRA.DIHEDRAL>
1.33629

>  <SCORE.INTRA.DIHEDRAL.0>
1.67653

>  <SCORE.INTRA.POLAR>
0

>  <SCORE.INTRA.POLAR.0>
0

>  <SCORE.INTRA.REPUL>
0

>  <SCORE.INTRA.REPUL.0>
0

>  <SCORE.INTRA.SOLV>
1.12522

>  <SCORE.INTRA.SOLV.lig_0>
-76.6701

>  <SCORE.INTRA.VDW>
0.136828

>  <SCORE.INTRA.VDW.0>
-1.53273

>  <SCORE.INTRA.norm>
0.0621627

>  <SCORE.RESTR>
0.756169

>  <SCORE.RESTR.CAVITY>
0.756169

>  <SCORE.RESTR.norm>
0.0343713

>  <SCORE.SYSTEM>
0

>  <SCORE.SYSTEM.CONST>
0

>  <SCORE.SYSTEM.DIHEDRAL>
0

>  <SCORE.SYSTEM.SOLV>
0

>  <SCORE.SYSTEM.norm>
0

>  <SCORE.heavy>
22

>  <SCORE.norm>
-0.319401

>  <RMSD>
33.687

$$$$
2f4s_lig
 OpenBabel11021811433D
libRbt.so/2013.1/901 2013/11/27
 22 23  0  0  0  0  0  0  0  0999 V2000
    4.3129  -16.1492   27.1360 N   0  0  0  0  0  0  0  0  0  0  0  0
    5.8698  -13.2103   23.3790 N   0  0  0  0  0  0  0  0  0  0  0  0
    9.1458   -9.5699   22.2136 N   0  0  0  0  0  0  0  0  0  0  0  0
    4.4703  -11.2401   27.7551 O   0  0  0  0  0  0  0  0  0  0  0  0
    4.2416  -12.2929   26.7742 C   0  0  2  0  0  0  0  0  0  0  0  0
    3.2327   -8.4963   24.9984 N   0  0  0  0  0  0  0  0  0  0  0  0
    3.4936  -13.8369   28.5400 O   0  0  0  0  0  0  0  0  0  0  0  0
    4.4012  -13.6865   27.4419 C   0  0  1  0  0  0  0  0  0  0  0  0
    5.0419  -10.9121   24.9136 O   0  0  0  0  0  0  0  0  0  0  0  0
    4.1387  -14.8118   26.4485 C   0  0  1  0  0  0  0  0  0  0  0  0
    6.8645   -9.5155   25.1835 O   0  0  0  0  0  0  0  0  0  0  0  0
    5.1274  -14.6871   25.2402 C   0  0  0  0  0  0  0  0  0  0  0  0
    6.9142   -8.1988   21.7557 O   0  0  0  0  0  0  0  0  0  0  0  0
    4.9140  -13.2799   24.5609 C   0  0  1  0  0  0  0  0  0  0  0  0
    4.4252   -7.2104   22.7242 O   0  0  0  0  0  0  0  0  0  0  0  0
    5.2457  -12.1583   25.5620 C   0  0  2  0  0  0  0  0  0  0  0  0
    5.4103   -9.6713   25.4893 C   0  0  1  0  0  0  0  0  0  0  0  0
    7.2388   -9.4683   23.7417 C   0  0  2  0  0  0  0  0  0  0  0  0
    8.7615   -9.3355   23.6425 C   0  0  0  0  0  0  0  0  0  0  0  0
    6.5740   -8.2602   23.1205 C   0  0  2  0  0  0  0  0  0  0  0  0
    5.0603   -8.3563   23.3029 C   0  0  1  0  0  0  0  0  0  0  0  0
    4.7269   -8.4315   24.8133 C   0  0  1  0  0  0  0  0  0  0  0  0
  5  4  1  1  0  0  0
  5  8  1  0  0  0  0
  5 16  1  0  0  0  0
  8  7  1  1  0  0  0
  8 10  1  0  0  0  0
 10  1  1  1  0  0  0
 10 12  1  0  0  0  0
 11 18  1  0  0  0  0
 12 14  1  0  0  0  0
 14  2  1  6  0  0  0
 14 16  1  0  0  0  0
 16  9  1  6  0  0  0
 17  9  1  6  0  0  0
 17 11  1  0  0  0  0
 17 22  1  0  0  0  0
 18 19  1  1  0  0  0
 18 20  1  0  0  0  0
 19  3  1  0  0  0  0
 20 13  1  6  0  0  0
 20 21  1  0  0  0  0
 21 15  1  1  0  0  0
 21 22  1  0  0  0  0
 22  6  1  6  0  0  0
M  END
>  <CHROM.1>
71.21568557,83.08575517,168.63416822,5.43570087,-11.00129860,24.94451236
-1.99073737,0.69739106,-0.31257324

>  <Name>
2f4s_lig

>  <RI>
0

>  <Rbt.Current_Directory>
/home/itssahil/PROJECTS/Mol_Feturizer/New_Systems/rnas/2f4s

>  <Rbt.Executable>
rbdock ($Id: //depot/dev/client3/rdock/2013.1/src/exe/rbdock.cxx#4 $)

>  <Rbt.Library>
libRbt.so (2013.1, Build901 2013/11/27)

>  <Rbt.Parameter_File>
/export/apps/rDock/src/rDock_2013.1_src/data/scripts/dock_solv.prm

>  <Rbt.Receptor>
prm/blind_docking_60.prm

>  <SCORE>
-6.60262

>  <SCORE.INTER>
-9.06967

>  <SCORE.INTER.CONST>
1

>  <SCORE.INTER.POLAR>
-0.711872

>  <SCORE.INTER.ROT>
3

>  <SCORE.INTER.SOLV>
20.8985

>  <SCORE.INTER.VDW>
-16.2397

>  <SCORE.INTER.norm>
-0.412258

>  <SCORE.INTRA>
1.79323

>  <SCORE.INTRA.DIHEDRAL>
1.77588

>  <SCORE.INTRA.DIHEDRAL.0>
1.67653

>  <SCORE.INTRA.POLAR>
0

>  <SCORE.INTRA.POLAR.0>
0

>  <SCORE.INTRA.REPUL>
0

>  <SCORE.INTRA.REPUL.0>
0

>  <SCORE.INTRA.SOLV>
1.25348

>  <SCORE.INTRA.SOLV.lig_0>
-76.6701

>  <SCORE.INTRA.VDW>
0.278549

>  <SCORE.INTRA.VDW.0>
-1.53273

>  <SCORE.INTRA.norm>
0.0815104

>  <SCORE.RESTR>
0.673828

>  <SCORE.RESTR.CAVITY>
0.673828

>  <SCORE.RESTR.norm>
0.0306286

>  <SCORE.SYSTEM>
0

>  <SCORE.SYSTEM.CONST>
0

>  <SCORE.SYSTEM.DIHEDRAL>
0

>  <SCORE.SYSTEM.SOLV>
0

>  <SCORE.SYSTEM.norm>
0

>  <SCORE.heavy>
22

>  <SCORE.norm>
-0.300119

>  <RMSD>
33.689

$$$$
2f4s_lig
 OpenBabel11021811433D
libRbt.so/2013.1/901 2013/11/27
 22 23  0  0  0  0  0  0  0  0999 V2000
    1.1079  -14.6068   25.8297 N   0  0  0  0  0  0  0  0  0  0  0  0
    5.1166  -12.2521   27.7171 N   0  0  0  0  0  0  0  0  0  0  0  0
    9.3698   -9.5670   22.7006 N   0  0  0  0  0  0  0  0  0  0  0  0
    2.9040  -10.5952   23.5518 O   0  0  0  0  0  0  0  0  0  0  0  0
    3.2756  -11.7614   24.3422 C   0  0  2  0  0  0  0  0  0  0  0  0
    3.2752   -8.3360   25.0757 N   0  0  0  0  0  0  0  0  0  0  0  0
    1.3185  -13.0031   23.5118 O   0  0  0  0  0  0  0  0  0  0  0  0
    2.0098  -12.5898   24.6963 C   0  0  1  0  0  0  0  0  0  0  0  0
    5.2158  -10.6353   25.3301 O   0  0  0  0  0  0  0  0  0  0  0  0
    2.3674  -13.8348   25.4989 C   0  0  1  0  0  0  0  0  0  0  0  0
    6.9477   -9.1123   25.4922 O   0  0  0  0  0  0  0  0  0  0  0  0
    3.1117  -13.4174   26.8122 C   0  0  0  0  0  0  0  0  0  0  0  0
    7.0553   -8.1968   21.9375 O   0  0  0  0  0  0  0  0  0  0  0  0
    4.4101  -12.6133   26.4188 C   0  0  1  0  0  0  0  0  0  0  0  0
    4.4810   -7.2517   22.7055 O   0  0  0  0  0  0  0  0  0  0  0  0
    4.0230  -11.3280   25.6649 C   0  0  2  0  0  0  0  0  0  0  0  0
    5.4937   -9.3172   25.7683 C   0  0  1  0  0  0  0  0  0  0  0  0
    7.3732   -9.2089   24.0672 C   0  0  2  0  0  0  0  0  0  0  0  0
    8.8891   -8.9992   24.0009 C   0  0  0  0  0  0  0  0  0  0  0  0
    6.6674   -8.1212   23.2887 C   0  0  2  0  0  0  0  0  0  0  0  0
    5.1554   -8.2844   23.4336 C   0  0  1  0  0  0  0  0  0  0  0  0
    4.7696   -8.2053   24.9313 C   0  0  1  0  0  0  0  0  0  0  0  0
  5  4  1  1  0  0  0
  5  8  1  0  0  0  0
  5 16  1  0  0  0  0
  8  7  1  6  0  0  0
  8 10  1  0  0  0  0
 10  1  1  1  0  0  0
 10 12  1  0  0  0  0
 11 18  1  0  0  0  0
 12 14  1  0  0  0  0
 14  2  1  1  0  0  0
 14 16  1  0  0  0  0
 16  9  1  6  0  0  0
 17  9  1  6  0  0  0
 17 11  1  0  0  0  0
 17 22  1  0  0  0  0
 18 19  1  1  0  0  0
 18 20  1  0  0  0  0
 19  3  1  0  0  0  0
 20 13  1  6  0  0  0
 20 21  1  0  0  0  0
 21 15  1  6  0  0  0
 21 22  1  0  0  0  0
 22  6  1  6  0  0  0
M  END
>  <CHROM.1>
122.53459776,166.29013962,160.13494827,4.74535422,-10.48294841,24.63192493
-2.36552283,-0.30060220,-0.70160616

>  <Name>
2f4s_lig

>  <RI>
0

>  <Rbt.Current_Directory>
/home/itssahil/PROJECTS/Mol_Feturizer/New_Systems/rnas/2f4s

>  <Rbt.Executable>
rbdock ($Id: //depot/dev/client3/rdock/2013.1/src/exe/rbdock.cxx#4 $)

>  <Rbt.Library>
libRbt.so (2013.1, Build901 2013/11/27)

>  <Rbt.Parameter_File>
/export/apps/rDock/src/rDock_2013.1_src/data/scripts/dock_solv.prm

>  <Rbt.Receptor>
prm/blind_docking_80.prm

>  <SCORE>
-4.02858

>  <SCORE.INTER>
-9.43849

>  <SCORE.INTER.CONST>
1

>  <SCORE.INTER.POLAR>
-0.810128

>  <SCORE.INTER.ROT>
3

>  <SCORE.INTER.SOLV>
15.8454

>  <SCORE.INTER.VDW>
-14.4737

>  <SCORE.INTER.norm>
-0.429022

>  <SCORE.INTRA>
5.01552

>  <SCORE.INTRA.DIHEDRAL>
7.73431

>  <SCORE.INTRA.DIHEDRAL.0>
1.67653

>  <SCORE.INTRA.POLAR>
0

>  <SCORE.INTRA.POLAR.0>
0

>  <SCORE.INTRA.REPUL>
0

>  <SCORE.INTRA.REPUL.0>
0

>  <SCORE.INTRA.SOLV>
3.35405

>  <SCORE.INTRA.SOLV.lig_0>
-76.6701

>  <SCORE.INTRA.VDW>
-0.528662

>  <SCORE.INTRA.VDW.0>
-1.53273

>  <SCORE.INTRA.norm>
0.227978

>  <SCORE.RESTR>
0.394391

>  <SCORE.RESTR.CAVITY>
0.394391

>  <SCORE.RESTR.norm>
0.0179269

>  <SCORE.SYSTEM>
0

>  <SCORE.SYSTEM.CONST>
0

>  <SCORE.SYSTEM.DIHEDRAL>
0

>  <SCORE.SYSTEM.SOLV>
0

>  <SCORE.SYSTEM.norm>
0

>  <SCORE.heavy>
22

>  <SCORE.norm>
-0.183117

>  <RMSD>
33.690

$$$$
2f4s_lig
 OpenBabel11021811433D
libRbt.so/2013.1/901 2013/11/27
 22 23  0  0  0  0  0  0  0  0999 V2000
    4.2881  -16.1382   27.1341 N   0  0  0  0  0  0  0  0  0  0  0  0
    5.8857  -13.2184   23.3793 N   0  0  0  0  0  0  0  0  0  0  0  0
    9.1416   -9.5594   22.1758 N   0  0  0  0  0  0  0  0  0  0  0  0
    4.4638  -11.2279   27.7390 O   0  0  0  0  0  0  0  0  0  0  0  0
    4.2373  -12.2827   26.7597 C   0  0  2  0  0  0  0  0  0  0  0  0
    3.2445   -8.4990   24.9994 N   0  0  0  0  0  0  0  0  0  0  0  0
    3.4695  -13.8177   28.5249 O   0  0  0  0  0  0  0  0  0  0  0  0
    4.3856  -13.6749   27.4330 C   0  0  1  0  0  0  0  0  0  0  0  0
    5.0575  -10.9116   24.9007 O   0  0  0  0  0  0  0  0  0  0  0  0
    4.1251  -14.8021   26.4412 C   0  0  1  0  0  0  0  0  0  0  0  0
    6.8792   -9.5120   25.1602 O   0  0  0  0  0  0  0  0  0  0  0  0
    5.1230  -14.6858   25.2397 C   0  0  0  0  0  0  0  0  0  0  0  0
    6.9047   -8.1920   21.7335 O   0  0  0  0  0  0  0  0  0  0  0  0
    4.9211  -13.2798   24.5545 C   0  0  1  0  0  0  0  0  0  0  0  0
    4.4202   -7.2089   22.7188 O   0  0  0  0  0  0  0  0  0  0  0  0
    5.2508  -12.1566   25.5544 C   0  0  2  0  0  0  0  0  0  0  0  0
    5.4274   -9.6707   25.4752 C   0  0  1  0  0  0  0  0  0  0  0  0
    7.2442   -9.4627   23.7162 C   0  0  2  0  0  0  0  0  0  0  0  0
    8.7661   -9.3271   23.6074 C   0  0  0  0  0  0  0  0  0  0  0  0
    6.5734   -8.2553   23.1003 C   0  0  2  0  0  0  0  0  0  0  0  0
    5.0610   -8.3542   23.2924 C   0  0  1  0  0  0  0  0  0  0  0  0
    4.7375   -8.4314   24.8048 C   0  0  1  0  0  0  0  0  0  0  0  0
  5  4  1  1  0  0  0
  5  8  1  0  0  0  0
  5 16  1  0  0  0  0
  8  7  1  1  0  0  0
  8 10  1  0  0  0  0
 10  1  1  1  0  0  0
 10 12  1  0  0  0  0
 11 18  1  0  0  0  0
 12 14  1  0  0  0  0
 14  2  1  6  0  0  0
 14 16  1  0  0  0  0
 16  9  1  6  0  0  0
 17  9  1  6  0  0  0
 17 11  1  0  0  0  0
 17 22  1  0  0  0  0
 18 19  1  1  0  0  0
 18 20  1  0  0  0  0
 19  3  1  0  0  0  0
 20 13  1  6  0  0  0
 20 21  1  0  0  0  0
 21 15  1  1  0  0  0
 21 22  1  0  0  0  0
 22  6  1  6  0  0  0
M  END
>  <CHROM.1>
71.20880228,83.98328423,168.63848826,5.43539811,-10.99618284,24.93108670
-1.99556645,0.69929851,-0.31080106

>  <Name>
2f4s_lig

>  <RI>
0

>  <Rbt.Current_Directory>
/home/itssahil/PROJECTS/Mol_Feturizer/New_Systems/rnas/2f4s

>  <Rbt.Executable>
rbdock ($Id: //depot/dev/client3/rdock/2013.1/src/exe/rbdock.cxx#4 $)

>  <Rbt.Library>
libRbt.so (2013.1, Build901 2013/11/27)

>  <Rbt.Parameter_File>
/export/apps/rDock/src/rDock_2013.1_src/data/scripts/dock_solv.prm

>  <Rbt.Receptor>
prm/blind_docking_60.prm

>  <SCORE>
-6.5747

>  <SCORE.INTER>
-9.12223

>  <SCORE.INTER.CONST>
1

>  <SCORE.INTER.POLAR>
-0.701602

>  <SCORE.INTER.ROT>
3

>  <SCORE.INTER.SOLV>
20.8508

>  <SCORE.INTER.VDW>
-16.2931

>  <SCORE.INTER.norm>
-0.414647

>  <SCORE.INTRA>
1.88402

>  <SCORE.INTRA.DIHEDRAL>
1.92916

>  <SCORE.INTRA.DIHEDRAL.0>
1.67653

>  <SCORE.INTRA.POLAR>
0

>  <SCORE.INTRA.POLAR.0>
0

>  <SCORE.INTRA.REPUL>
0

>  <SCORE.INTRA.REPUL.0>
0

>  <SCORE.INTRA.SOLV>
1.28414

>  <SCORE.INTRA.SOLV.lig_0>
-76.6701

>  <SCORE.INTRA.VDW>
0.27737

>  <SCORE.INTRA.VDW.0>
-1.53273

>  <SCORE.INTRA.norm>
0.0856373

>  <SCORE.RESTR>
0.663512

>  <SCORE.RESTR.CAVITY>
0.663512

>  <SCORE.RESTR.norm>
0.0301596

>  <SCORE.SYSTEM>
0

>  <SCORE.SYSTEM.CONST>
0

>  <SCORE.SYSTEM.DIHEDRAL>
0

>  <SCORE.SYSTEM.SOLV>
0

>  <SCORE.SYSTEM.norm>
0

>  <SCORE.heavy>
22

>  <SCORE.norm>
-0.29885

>  <RMSD>
33.691

$$$$
2f4s_lig
 OpenBabel11021811433D
libRbt.so/2013.1/901 2013/11/27
 22 23  0  0  0  0  0  0  0  0999 V2000
    4.8874  -16.2374   24.9913 N   0  0  0  0  0  0  0  0  0  0  0  0
    5.9998  -11.6340   23.3339 N   0  0  0  0  0  0  0  0  0  0  0  0
    7.4142   -9.6165   22.3969 N   0  0  0  0  0  0  0  0  0  0  0  0
    3.8665  -12.2952   27.8063 O   0  0  0  0  0  0  0  0  0  0  0  0
    3.9588  -12.7622   26.4292 C   0  0  2  0  0  0  0  0  0  0  0  0
    3.6760   -8.3324   27.4403 N   0  0  0  0  0  0  0  0  0  0  0  0
    3.4576  -15.0683   27.1309 O   0  0  0  0  0  0  0  0  0  0  0  0
    4.3847  -14.2560   26.4010 C   0  0  1  0  0  0  0  0  0  0  0  0
    4.5553  -10.5417   25.5793 O   0  0  0  0  0  0  0  0  0  0  0  0
    4.4617  -14.7848   24.9740 C   0  0  1  0  0  0  0  0  0  0  0  0
    6.1917   -9.1398   24.7416 O   0  0  0  0  0  0  0  0  0  0  0  0
    5.4815  -13.9276   24.1504 C   0  0  0  0  0  0  0  0  0  0  0  0
    3.9675   -7.0431   22.7063 O   0  0  0  0  0  0  0  0  0  0  0  0
    5.0012  -12.4256   24.1654 C   0  0  1  0  0  0  0  0  0  0  0  0
    3.0577   -6.4700   25.3434 O   0  0  0  0  0  0  0  0  0  0  0  0
    4.9916  -11.8920   25.6095 C   0  0  2  0  0  0  0  0  0  0  0  0
    5.3803   -9.4537   25.9563 C   0  0  1  0  0  0  0  0  0  0  0  0
    5.4351   -8.7270   23.5258 C   0  0  2  0  0  0  0  0  0  0  0  0
    6.4375   -8.4805   22.3941 C   0  0  0  0  0  0  0  0  0  0  0  0
    4.6913   -7.4492   23.8436 C   0  0  2  0  0  0  0  0  0  0  0  0
    3.7590   -7.6794   25.0317 C   0  0  1  0  0  0  0  0  0  0  0  0
    4.5890   -8.1330   26.2578 C   0  0  1  0  0  0  0  0  0  0  0  0
  5  4  1  1  0  0  0
  5  8  1  0  0  0  0
  5 16  1  0  0  0  0
  8  7  1  1  0  0  0
  8 10  1  0  0  0  0
 10  1  1  1  0  0  0
 10 12  1  0  0  0  0
 11 18  1  0  0  0  0
 12 14  1  0  0  0  0
 14  2  1  6  0  0  0
 14 16  1  0  0  0  0
 16  9  1  6  0  0  0
 17  9  1  6  0  0  0
 17 11  1  0  0  0  0
 17 22  1  0  0  0  0
 18 19  1  6  0  0  0
 18 20  1  0  0  0  0
 19  3  1  0  0  0  0
 20 13  1  6  0  0  0
 20 21  1  0  0  0  0
 21 15  1  1  0  0  0
 21 22  1  0  0  0  0
 22  6  1  1  0  0  0
M  END
>  <CHROM.1>
127.74265717,83.43393971,45.13232770,4.78269711,-10.71773103,25.02347723
-1.64225973,1.00742659,-0.17261319

>  <Name>
2f4s_lig

>  <RI>
0

>  <Rbt.Current_Directory>
/home/itssahil/PROJECTS/Mol_Feturizer/New_Systems/rnas/2f4s

>  <Rbt.Executable>
rbdock ($Id: //depot/dev/client3/rdock/2013.1/src/exe/rbdock.cxx#4 $)

>  <Rbt.Library>
libRbt.so (2013.1, Build901 2013/11/27)

>  <Rbt.Parameter_File>
/export/apps/rDock/src/rDock_2013.1_src/data/scripts/dock_solv.prm

>  <Rbt.Receptor>
prm/blind_docking_60.prm

>  <SCORE>
6.40908

>  <SCORE.INTER>
-0.832544

>  <SCORE.INTER.CONST>
1

>  <SCORE.INTER.POLAR>
0

>  <SCORE.INTER.ROT>
3

>  <SCORE.INTER.SOLV>
14.8078

>  <SCORE.INTER.VDW>
-11.091

>  <SCORE.INTER.norm>
-0.0378429

>  <SCORE.INTRA>
6.55253

>  <SCORE.INTRA.DIHEDRAL>
8.38583

>  <SCORE.INTRA.DIHEDRAL.0>
1.67653

>  <SCORE.INTRA.POLAR>
0

>  <SCORE.INTRA.POLAR.0>
0

>  <SCORE.INTRA.REPUL>
0

>  <SCORE.INTRA.REPUL.0>
0

>  <SCORE.INTRA.SOLV>
5.35937

>  <SCORE.INTRA.SOLV.lig_0>
-76.6701

>  <SCORE.INTRA.VDW>
-0.320064

>  <SCORE.INTRA.VDW.0>
-1.53273

>  <SCORE.INTRA.norm>
0.297842

>  <SCORE.RESTR>
0.68909

>  <SCORE.RESTR.CAVITY>
0.68909

>  <SCORE.RESTR.norm>
0.0313223

>  <SCORE.SYSTEM>
0

>  <SCORE.SYSTEM.CONST>
0

>  <SCORE.SYSTEM.DIHEDRAL>
0

>  <SCORE.SYSTEM.SOLV>
0

>  <SCORE.SYSTEM.norm>
0

>  <SCORE.heavy>
22

>  <SCORE.norm>
0.291322

>  <RMSD>
33.695

$$$$
2f4s_lig
 OpenBabel11021811433D
libRbt.so/2013.1/901 2013/11/27
 22 23  0  0  0  0  0  0  0  0999 V2000
    4.1790  -16.1719   27.1030 N   0  0  0  0  0  0  0  0  0  0  0  0
    5.8577  -13.2740   23.3667 N   0  0  0  0  0  0  0  0  0  0  0  0
    9.3014   -8.6771   24.1604 N   0  0  0  0  0  0  0  0  0  0  0  0
    4.4734  -11.2705   27.7326 O   0  0  0  0  0  0  0  0  0  0  0  0
    4.2238  -12.3146   26.7475 C   0  0  2  0  0  0  0  0  0  0  0  0
    3.4219   -8.4592   25.2599 N   0  0  0  0  0  0  0  0  0  0  0  0
    3.4139  -13.8389   28.5032 O   0  0  0  0  0  0  0  0  0  0  0  0
    4.3361  -13.7133   27.4143 C   0  0  1  0  0  0  0  0  0  0  0  0
    5.0822  -10.9550   24.8974 O   0  0  0  0  0  0  0  0  0  0  0  0
    4.0507  -14.8290   26.4163 C   0  0  1  0  0  0  0  0  0  0  0  0
    6.9896   -9.6486   24.9132 O   0  0  0  0  0  0  0  0  0  0  0  0
    5.0543  -14.7313   25.2179 C   0  0  0  0  0  0  0  0  0  0  0  0
    6.6111   -8.2860   21.5241 O   0  0  0  0  0  0  0  0  0  0  0  0
    4.8888  -13.3175   24.5392 C   0  0  1  0  0  0  0  0  0  0  0  0
    4.3367   -7.1972   22.8479 O   0  0  0  0  0  0  0  0  0  0  0  0
    5.2432  -12.2075   25.5454 C   0  0  2  0  0  0  0  0  0  0  0  0
    5.5884   -9.7411   25.4236 C   0  0  1  0  0  0  0  0  0  0  0  0
    7.1554   -9.5978   23.4330 C   0  0  2  0  0  0  0  0  0  0  0  0
    8.6528   -9.5344   23.1170 C   0  0  0  0  0  0  0  0  0  0  0  0
    6.4673   -8.3513   22.9231 C   0  0  2  0  0  0  0  0  0  0  0  0
    4.9925   -8.3797   23.3205 C   0  0  1  0  0  0  0  0  0  0  0  0
    4.8756   -8.4612   24.8625 C   0  0  1  0  0  0  0  0  0  0  0  0
  5  4  1  1  0  0  0
  5  8  1  0  0  0  0
  5 16  1  0  0  0  0
  8  7  1  1  0  0  0
  8 10  1  0  0  0  0
 10  1  1  1  0  0  0
 10 12  1  0  0  0  0
 11 18  1  0  0  0  0
 12 14  1  0  0  0  0
 14  2  1  6  0  0  0
 14 16  1  0  0  0  0
 16  9  1  6  0  0  0
 17  9  1  6  0  0  0
 17 11  1  0  0  0  0
 17 22  1  0  0  0  0
 18 19  1  1  0  0  0
 18 20  1  0  0  0  0
 19  3  1  0  0  0  0
 20 13  1  6  0  0  0
 20 21  1  0  0  0  0
 21 15  1  1  0  0  0
 21 22  1  0  0  0  0
 22  6  1  6  0  0  0
M  END
>  <CHROM.1>
77.09335199,87.27993715,-37.27490819,5.41539432,-11.00959899,24.96757765
-1.98601237,0.67914830,-0.29109923

>  <Name>
2f4s_lig

>  <RI>
8.9913e+06

>  <Rbt.Current_Directory>
/home/itssahil/PROJECTS/Mol_Feturizer/New_Systems/rnas/2f4s

>  <Rbt.Executable>
rbdock ($Id: //depot/dev/client3/rdock/2013.1/src/exe/rbdock.cxx#4 $)

>  <Rbt.Library>
libRbt.so (2013.1, Build901 2013/11/27)

>  <Rbt.Parameter_File>
/export/apps/rDock/src/rDock_2013.1_src/data/scripts/dock_solv.prm

>  <Rbt.Receptor>
prm/blind_docking_40.prm

>  <SCORE>
-0.544067

>  <SCORE.INTER>
-4.35135

>  <SCORE.INTER.CONST>
1

>  <SCORE.INTER.POLAR>
-0.6874

>  <SCORE.INTER.ROT>
3

>  <SCORE.INTER.SOLV>
26.2461

>  <SCORE.INTER.VDW>
-14.9583

>  <SCORE.INTER.norm>
-0.197789

>  <SCORE.INTRA>
3.3012

>  <SCORE.INTRA.DIHEDRAL>
4.47145

>  <SCORE.INTRA.DIHEDRAL.0>
1.67653

>  <SCORE.INTRA.POLAR>
0

>  <SCORE.INTRA.POLAR.0>
0

>  <SCORE.INTRA.REPUL>
0

>  <SCORE.INTRA.REPUL.0>
0

>  <SCORE.INTRA.SOLV>
1.94585

>  <SCORE.INTRA.SOLV.lig_0>
-76.6701

>  <SCORE.INTRA.VDW>
0.0925491

>  <SCORE.INTRA.VDW.0>
-1.53273

>  <SCORE.INTRA.norm>
0.150054

>  <SCORE.RESTR>
0.506085

>  <SCORE.RESTR.CAVITY>
0.506085

>  <SCORE.RESTR.norm>
0.0230038

>  <SCORE.SYSTEM>
0

>  <SCORE.SYSTEM.CONST>
0

>  <SCORE.SYSTEM.DIHEDRAL>
0

>  <SCORE.SYSTEM.SOLV>
0

>  <SCORE.SYSTEM.norm>
0

>  <SCORE.heavy>
22

>  <SCORE.norm>
-0.0247303

>  <RMSD>
33.698

$$$$
2f4s_lig
 OpenBabel11021811433D
libRbt.so/2013.1/901 2013/11/27
 22 23  0  0  0  0  0  0  0  0999 V2000
    4.7108  -16.2281   27.1580 N   0  0  0  0  0  0  0  0  0  0  0  0
    5.8693  -13.1386   23.3780 N   0  0  0  0  0  0  0  0  0  0  0  0
    9.0649   -9.7181   22.2796 N   0  0  0  0  0  0  0  0  0  0  0  0
    4.5268  -11.3283   27.8402 O   0  0  0  0  0  0  0  0  0  0  0  0
    4.3334  -12.3845   26.8554 C   0  0  2  0  0  0  0  0  0  0  0  0
    3.1292   -8.5120   24.9848 N   0  0  0  0  0  0  0  0  0  0  0  0
    3.7850  -14.0001   28.6304 O   0  0  0  0  0  0  0  0  0  0  0  0
    4.6276  -13.7693   27.4952 C   0  0  1  0  0  0  0  0  0  0  0  0
    4.9419  -10.9268   24.9810 O   0  0  0  0  0  0  0  0  0  0  0  0
    4.4054  -14.9003   26.4984 C   0  0  1  0  0  0  0  0  0  0  0  0
    6.7612   -9.5203   25.2196 O   0  0  0  0  0  0  0  0  0  0  0  0
    5.3257  -14.6878   25.2490 C   0  0  0  0  0  0  0  0  0  0  0  0
    6.8281   -8.3049   21.7549 O   0  0  0  0  0  0  0  0  0  0  0  0
    4.9764  -13.2934   24.6003 C   0  0  1  0  0  0  0  0  0  0  0  0
    4.3325   -7.2919   22.6803 O   0  0  0  0  0  0  0  0  0  0  0  0
    5.2682  -12.1609   25.6016 C   0  0  2  0  0  0  0  0  0  0  0  0
    5.3056   -9.6691   25.5219 C   0  0  1  0  0  0  0  0  0  0  0  0
    7.1434   -9.5149   23.7791 C   0  0  2  0  0  0  0  0  0  0  0  0
    8.6665   -9.3829   23.6843 C   0  0  0  0  0  0  0  0  0  0  0  0
    6.4805   -8.3266   23.1190 C   0  0  2  0  0  0  0  0  0  0  0  0
    4.9659   -8.4194   23.2960 C   0  0  1  0  0  0  0  0  0  0  0  0
    4.6244   -8.4506   24.8061 C   0  0  1  0  0  0  0  0  0  0  0  0
  5  4  1  1  0  0  0
  5  8  1  0  0  0  0
  5 16  1  0  0  0  0
  8  7  1  1  0  0  0
  8 10  1  0  0  0  0
 10  1  1  1  0  0  0
 10 12  1  0  0  0  0
 11 18  1  0  0  0  0
 12 14  1  0  0  0  0
 14  2  1  6  0  0  0
 14 16  1  0  0  0  0
 16  9  1  6  0  0  0
 17  9  1  6  0  0  0
 17 11  1  0  0  0  0
 17 22  1  0  0  0  0
 18 19  1  1  0  0  0
 18 20  1  0  0  0  0
 19  3  1  0  0  0  0
 20 13  1  6  0  0  0
 20 21  1  0  0  0  0
 21 15  1  1  0  0  0
 21 22  1  0  0  0  0
 22  6  1  6  0  0  0
M  END
>  <CHROM.1>
74.73852254,76.29992354,166.17116184,5.45575515,-11.05465353,24.97552207
-1.91598930,0.70097973,-0.36722181

>  <Name>
2f4s_lig

>  <RI>
0

>  <Rbt.Current_Directory>
/home/itssahil/PROJECTS/Mol_Feturizer/New_Systems/rnas/2f4s

>  <Rbt.Executable>
rbdock ($Id: //depot/dev/client3/rdock/2013.1/src/exe/rbdock.cxx#4 $)

>  <Rbt.Library>
libRbt.so (2013.1, Build901 2013/11/27)

>  <Rbt.Parameter_File>
/export/apps/rDock/src/rDock_2013.1_src/data/scripts/dock_solv.prm

>  <Rbt.Receptor>
prm/blind_docking_60.prm

>  <SCORE>
-7.21831

>  <SCORE.INTER>
-9.32464

>  <SCORE.INTER.CONST>
1

>  <SCORE.INTER.POLAR>
-0.875394

>  <SCORE.INTER.ROT>
3

>  <SCORE.INTER.SOLV>
21.622

>  <SCORE.INTER.VDW>
-16.1058

>  <SCORE.INTER.norm>
-0.423847

>  <SCORE.INTRA>
1.31463

>  <SCORE.INTRA.DIHEDRAL>
1.33955

>  <SCORE.INTRA.DIHEDRAL.0>
1.67653

>  <SCORE.INTRA.POLAR>
0

>  <SCORE.INTRA.POLAR.0>
0

>  <SCORE.INTRA.REPUL>
0

>  <SCORE.INTRA.REPUL.0>
0

>  <SCORE.INTRA.SOLV>
1.10555

>  <SCORE.INTRA.SOLV.lig_0>
-76.6701

>  <SCORE.INTRA.VDW>
0.092084

>  <SCORE.INTRA.VDW.0>
-1.53273

>  <SCORE.INTRA.norm>
0.059756

>  <SCORE.RESTR>
0.791703

>  <SCORE.RESTR.CAVITY>
0.791703

>  <SCORE.RESTR.norm>
0.0359865

>  <SCORE.SYSTEM>
0

>  <SCORE.SYSTEM.CONST>
0

>  <SCORE.SYSTEM.DIHEDRAL>
0

>  <SCORE.SYSTEM.SOLV>
0

>  <SCORE.SYSTEM.norm>
0

>  <SCORE.heavy>
22

>  <SCORE.norm>
-0.328105

>  <RMSD>
33.698

$$$$
2f4s_lig
 OpenBabel11021811433D
libRbt.so/2013.1/901 2013/11/27
 22 23  0  0  0  0  0  0  0  0999 V2000
    4.7088  -16.2404   27.1368 N   0  0  0  0  0  0  0  0  0  0  0  0
    5.8725  -13.1438   23.3641 N   0  0  0  0  0  0  0  0  0  0  0  0
    9.0928   -9.7112   22.3106 N   0  0  0  0  0  0  0  0  0  0  0  0
    4.5282  -11.3419   27.8291 O   0  0  0  0  0  0  0  0  0  0  0  0
    4.3346  -12.3958   26.8419 C   0  0  2  0  0  0  0  0  0  0  0  0
    3.1316   -8.5209   24.9641 N   0  0  0  0  0  0  0  0  0  0  0  0
    3.7837  -14.0147   28.6131 O   0  0  0  0  0  0  0  0  0  0  0  0
    4.6273  -13.7822   27.4791 C   0  0  1  0  0  0  0  0  0  0  0  0
    4.9457  -10.9346   24.9711 O   0  0  0  0  0  0  0  0  0  0  0  0
    4.4050  -14.9109   26.4797 C   0  0  1  0  0  0  0  0  0  0  0  0
    6.7619   -9.5277   25.2306 O   0  0  0  0  0  0  0  0  0  0  0  0
    5.3263  -14.6965   25.2315 C   0  0  0  0  0  0  0  0  0  0  0  0
    6.8608   -8.3032   21.7699 O   0  0  0  0  0  0  0  0  0  0  0  0
    4.9786  -13.3005   24.5855 C   0  0  1  0  0  0  0  0  0  0  0  0
    4.3560   -7.2940   22.6743 O   0  0  0  0  0  0  0  0  0  0  0  0
    5.2706  -12.1704   25.5893 C   0  0  2  0  0  0  0  0  0  0  0  0
    5.3035   -9.6782   25.5187 C   0  0  1  0  0  0  0  0  0  0  0  0
    7.1576   -9.5184   23.7938 C   0  0  2  0  0  0  0  0  0  0  0  0
    8.6815   -9.3853   23.7138 C   0  0  0  0  0  0  0  0  0  0  0  0
    6.5003   -8.3287   23.1306 C   0  0  2  0  0  0  0  0  0  0  0  0
    4.9842   -8.4228   23.2929 C   0  0  1  0  0  0  0  0  0  0  0  0
    4.6284   -8.4581   24.7997 C   0  0  1  0  0  0  0  0  0  0  0  0
  5  4  1  1  0  0  0
  5  8  1  0  0  0  0
  5 16  1  0  0  0  0
  8  7  1  1  0  0  0
  8 10  1  0  0  0  0
 10  1  1  1  0  0  0
 10 12  1  0  0  0  0
 11 18  1  0  0  0  0
 12 14  1  0  0  0  0
 14  2  1  6  0  0  0
 14 16  1  0  0  0  0
 16  9  1  6  0  0  0
 17  9  1  6  0  0  0
 17 11  1  0  0  0  0
 17 22  1  0  0  0  0
 18 19  1  1  0  0  0
 18 20  1  0  0  0  0
 19  3  1  0  0  0  0
 20 13  1  6  0  0  0
 20 21  1  0  0  0  0
 21 15  1  1  0  0  0
 21 22  1  0  0  0  0
 22  6  1  6  0  0  0
M  END
>  <CHROM.1>
74.37630383,76.09141477,166.39331346,5.46350679,-11.06151747,24.97141844
-1.91753228,0.69434275,-0.36354341

>  <Name>
2f4s_lig

>  <RI>
0

>  <Rbt.Current_Directory>
/home/itssahil/PROJECTS/Mol_Feturizer/New_Systems/rnas/2f4s

>  <Rbt.Executable>
rbdock ($Id: //depot/dev/client3/rdock/2013.1/src/exe/rbdock.cxx#4 $)

>  <Rbt.Library>
libRbt.so (2013.1, Build901 2013/11/27)

>  <Rbt.Parameter_File>
/export/apps/rDock/src/rDock_2013.1_src/data/scripts/dock_solv.prm

>  <Rbt.Receptor>
prm/blind_docking_60.prm

>  <SCORE>
-7.3354

>  <SCORE.INTER>
-9.43568

>  <SCORE.INTER.CONST>
1

>  <SCORE.INTER.POLAR>
-0.880277

>  <SCORE.INTER.ROT>
3

>  <SCORE.INTER.SOLV>
21.5691

>  <SCORE.INTER.VDW>
-16.1459

>  <SCORE.INTER.norm>
-0.428895

>  <SCORE.INTRA>
1.27207

>  <SCORE.INTRA.DIHEDRAL>
1.2443

>  <SCORE.INTRA.DIHEDRAL.0>
1.67653

>  <SCORE.INTRA.POLAR>
0

>  <SCORE.INTRA.POLAR.0>
0

>  <SCORE.INTRA.REPUL>
0

>  <SCORE.INTRA.REPUL.0>
0

>  <SCORE.INTRA.SOLV>
1.08594

>  <SCORE.INTRA.SOLV.lig_0>
-76.6701

>  <SCORE.INTRA.VDW>
0.106949

>  <SCORE.INTRA.VDW.0>
-1.53273

>  <SCORE.INTRA.norm>
0.0578213

>  <SCORE.RESTR>
0.828217

>  <SCORE.RESTR.CAVITY>
0.828217

>  <SCORE.RESTR.norm>
0.0376462

>  <SCORE.SYSTEM>
0

>  <SCORE.SYSTEM.CONST>
0

>  <SCORE.SYSTEM.DIHEDRAL>
0

>  <SCORE.SYSTEM.SOLV>
0

>  <SCORE.SYSTEM.norm>
0

>  <SCORE.heavy>
22

>  <SCORE.norm>
-0.333427

>  <RMSD>
33.701

$$$$
2f4s_lig
 OpenBabel11021811433D
libRbt.so/2013.1/901 2013/11/27
 22 23  0  0  0  0  0  0  0  0999 V2000
    4.8200  -16.2272   25.0193 N   0  0  0  0  0  0  0  0  0  0  0  0
    5.9767  -11.6299   23.3752 N   0  0  0  0  0  0  0  0  0  0  0  0
    7.4183   -9.6407   22.4571 N   0  0  0  0  0  0  0  0  0  0  0  0
    3.7728  -12.2784   27.8152 O   0  0  0  0  0  0  0  0  0  0  0  0
    3.8841  -12.7469   26.4401 C   0  0  2  0  0  0  0  0  0  0  0  0
    3.6011   -8.3078   27.4326 N   0  0  0  0  0  0  0  0  0  0  0  0
    3.3627  -15.0503   27.1359 O   0  0  0  0  0  0  0  0  0  0  0  0
    4.3041  -14.2425   26.4196 C   0  0  1  0  0  0  0  0  0  0  0  0
    4.5027  -10.5297   25.5976 O   0  0  0  0  0  0  0  0  0  0  0  0
    4.4007  -14.7729   24.9943 C   0  0  1  0  0  0  0  0  0  0  0  0
    6.1626   -9.1405   24.7851 O   0  0  0  0  0  0  0  0  0  0  0  0
    5.4365  -13.9207   24.1857 C   0  0  0  0  0  0  0  0  0  0  0  0
    3.9890   -7.0399   22.6998 O   0  0  0  0  0  0  0  0  0  0  0  0
    4.9622  -12.4166   24.1921 C   0  0  1  0  0  0  0  0  0  0  0  0
    3.0329   -6.4507   25.3168 O   0  0  0  0  0  0  0  0  0  0  0  0
    4.9329  -11.8818   25.6355 C   0  0  2  0  0  0  0  0  0  0  0  0
    5.3267   -9.4447   25.9856 C   0  0  1  0  0  0  0  0  0  0  0  0
    5.4314   -8.7286   23.5536 C   0  0  2  0  0  0  0  0  0  0  0  0
    6.4563   -8.4923   22.4400 C   0  0  0  0  0  0  0  0  0  0  0  0
    4.6889   -7.4452   23.8521 C   0  0  2  0  0  0  0  0  0  0  0  0
    3.7331   -7.6653   25.0233 C   0  0  1  0  0  0  0  0  0  0  0  0
    4.5373   -8.1184   26.2667 C   0  0  1  0  0  0  0  0  0  0  0  0
  5  4  1  1  0  0  0
  5  8  1  0  0  0  0
  5 16  1  0  0  0  0
  8  7  1  1  0  0  0
  8 10  1  0  0  0  0
 10  1  1  1  0  0  0
 10 12  1  0  0  0  0
 11 18  1  0  0  0  0
 12 14  1  0  0  0  0
 14  2  1  6  0  0  0
 14 16  1  0  0  0  0
 16  9  1  6  0  0  0
 17  9  1  6  0  0  0
 17 11  1  0  0  0  0
 17 22  1  0  0  0  0
 18 19  1  6  0  0  0
 18 20  1  0  0  0  0
 19  3  1  0  0  0  0
 20 13  1  6  0  0  0
 20 21  1  0  0  0  0
 21 15  1  1  0  0  0
 21 22  1  0  0  0  0
 22  6  1  1  0  0  0
M  END
>  <CHROM.1>
127.77246403,83.12731633,45.68148079,4.74119033,-10.70956681,25.04191580
-1.65625182,0.99233790,-0.16290632

>  <Name>
2f4s_lig

>  <RI>
0

>  <Rbt.Current_Directory>
/home/itssahil/PROJECTS/Mol_Feturizer/New_Systems/rnas/2f4s

>  <Rbt.Executable>
rbdock ($Id: //depot/dev/client3/rdock/2013.1/src/exe/rbdock.cxx#4 $)

>  <Rbt.Library>
libRbt.so (2013.1, Build901 2013/11/27)

>  <Rbt.Parameter_File>
/export/apps/rDock/src/rDock_2013.1_src/data/scripts/dock_solv.prm

>  <Rbt.Receptor>
prm/blind_docking_60.prm

>  <SCORE>
5.95228

>  <SCORE.INTER>
-1.40689

>  <SCORE.INTER.CONST>
1

>  <SCORE.INTER.POLAR>
0

>  <SCORE.INTER.ROT>
3

>  <SCORE.INTER.SOLV>
14.5557

>  <SCORE.INTER.VDW>
-11.3898

>  <SCORE.INTER.norm>
-0.0639496

>  <SCORE.INTRA>
6.54078

>  <SCORE.INTRA.DIHEDRAL>
8.27907

>  <SCORE.INTRA.DIHEDRAL.0>
1.67653

>  <SCORE.INTRA.POLAR>
0

>  <SCORE.INTRA.POLAR.0>
0

>  <SCORE.INTRA.REPUL>
0

>  <SCORE.INTRA.REPUL.0>
0

>  <SCORE.INTRA.SOLV>
5.38384

>  <SCORE.INTRA.SOLV.lig_0>
-76.6701

>  <SCORE.INTRA.VDW>
-0.290675

>  <SCORE.INTRA.VDW.0>
-1.53273

>  <SCORE.INTRA.norm>
0.297308

>  <SCORE.RESTR>
0.818396

>  <SCORE.RESTR.CAVITY>
0.818396

>  <SCORE.RESTR.norm>
0.0371998

>  <SCORE.SYSTEM>
0

>  <SCORE.SYSTEM.CONST>
0

>  <SCORE.SYSTEM.DIHEDRAL>
0

>  <SCORE.SYSTEM.SOLV>
0

>  <SCORE.SYSTEM.norm>
0

>  <SCORE.heavy>
22

>  <SCORE.norm>
0.270558

>  <RMSD>
33.703

$$$$
2f4s_lig
 OpenBabel11021811433D
libRbt.so/2013.1/901 2013/11/27
 22 23  0  0  0  0  0  0  0  0999 V2000
    1.1151  -14.6431   25.7880 N   0  0  0  0  0  0  0  0  0  0  0  0
    5.1323  -12.3211   27.6974 N   0  0  0  0  0  0  0  0  0  0  0  0
    9.3633   -9.5580   22.7136 N   0  0  0  0  0  0  0  0  0  0  0  0
    2.8953  -10.5877   23.5765 O   0  0  0  0  0  0  0  0  0  0  0  0
    3.2722  -11.7683   24.3426 C   0  0  2  0  0  0  0  0  0  0  0  0
    3.2571   -8.3767   25.0847 N   0  0  0  0  0  0  0  0  0  0  0  0
    1.3115  -12.9957   23.4997 O   0  0  0  0  0  0  0  0  0  0  0  0
    2.0091  -12.6043   24.6880 C   0  0  1  0  0  0  0  0  0  0  0  0
    5.2170  -10.6593   25.3408 O   0  0  0  0  0  0  0  0  0  0  0  0
    2.3720  -13.8639   25.4649 C   0  0  1  0  0  0  0  0  0  0  0  0
    6.9358   -9.1216   25.5032 O   0  0  0  0  0  0  0  0  0  0  0  0
    3.1234  -13.4708   26.7817 C   0  0  0  0  0  0  0  0  0  0  0  0
    7.0373   -8.2065   21.9482 O   0  0  0  0  0  0  0  0  0  0  0  0
    4.4189  -12.6583   26.3963 C   0  0  1  0  0  0  0  0  0  0  0  0
    4.4547   -7.2830   22.7146 O   0  0  0  0  0  0  0  0  0  0  0  0
    4.0266  -11.3593   25.6690 C   0  0  2  0  0  0  0  0  0  0  0  0
    5.4835   -9.3387   25.7787 C   0  0  1  0  0  0  0  0  0  0  0  0
    7.3629   -9.2151   24.0784 C   0  0  2  0  0  0  0  0  0  0  0  0
    8.8769   -8.9925   24.0128 C   0  0  0  0  0  0  0  0  0  0  0  0
    6.6482   -8.1337   23.2992 C   0  0  2  0  0  0  0  0  0  0  0  0
    5.1376   -8.3097   23.4435 C   0  0  1  0  0  0  0  0  0  0  0  0
    4.7504   -8.2333   24.9409 C   0  0  1  0  0  0  0  0  0  0  0  0
  5  4  1  1  0  0  0
  5  8  1  0  0  0  0
  5 16  1  0  0  0  0
  8  7  1  6  0  0  0
  8 10  1  0  0  0  0
 10  1  1  1  0  0  0
 10 12  1  0  0  0  0
 11 18  1  0  0  0  0
 12 14  1  0  0  0  0
 14  2  1  1  0  0  0
 14 16  1  0  0  0  0
 16  9  1  6  0  0  0
 17  9  1  6  0  0  0
 17 11  1  0  0  0  0
 17 22  1  0  0  0  0
 18 19  1  1  0  0  0
 18 20  1  0  0  0  0
 19  3  1  0  0  0  0
 20 13  1  6  0  0  0
 20 21  1  0  0  0  0
 21 15  1  6  0  0  0
 21 22  1  0  0  0  0
 22  6  1  6  0  0  0
M  END
>  <CHROM.1>
121.13482806,166.65600245,160.07569620,4.73893040,-10.50354647,24.63173246
-2.36321621,-0.29957131,-0.69224356

>  <Name>
2f4s_lig

>  <RI>
0

>  <Rbt.Current_Directory>
/home/itssahil/PROJECTS/Mol_Feturizer/New_Systems/rnas/2f4s

>  <Rbt.Executable>
rbdock ($Id: //depot/dev/client3/rdock/2013.1/src/exe/rbdock.cxx#4 $)

>  <Rbt.Library>
libRbt.so (2013.1, Build901 2013/11/27)

>  <Rbt.Parameter_File>
/export/apps/rDock/src/rDock_2013.1_src/data/scripts/dock_solv.prm

>  <Rbt.Receptor>
prm/blind_docking_80.prm

>  <SCORE>
-4.20886

>  <SCORE.INTER>
-9.71769

>  <SCORE.INTER.CONST>
1

>  <SCORE.INTER.POLAR>
-0.804876

>  <SCORE.INTER.ROT>
3

>  <SCORE.INTER.SOLV>
15.7234

>  <SCORE.INTER.VDW>
-14.6367

>  <SCORE.INTER.norm>
-0.441713

>  <SCORE.INTRA>
5.08391

>  <SCORE.INTRA.DIHEDRAL>
7.72301

>  <SCORE.INTRA.DIHEDRAL.0>
1.67653

>  <SCORE.INTRA.POLAR>
0

>  <SCORE.INTRA.POLAR.0>
0

>  <SCORE.INTRA.REPUL>
0

>  <SCORE.INTRA.REPUL.0>
0

>  <SCORE.INTRA.SOLV>
3.41782

>  <SCORE.INTRA.SOLV.lig_0>
-76.6701

>  <SCORE.INTRA.VDW>
-0.486507

>  <SCORE.INTRA.VDW.0>
-1.53273

>  <SCORE.INTRA.norm>
0.231087

>  <SCORE.RESTR>
0.424923

>  <SCORE.RESTR.CAVITY>
0.424923

>  <SCORE.RESTR.norm>
0.0193147

>  <SCORE.SYSTEM>
0

>  <SCORE.SYSTEM.CONST>
0

>  <SCORE.SYSTEM.DIHEDRAL>
0

>  <SCORE.SYSTEM.SOLV>
0

>  <SCORE.SYSTEM.norm>
0

>  <SCORE.heavy>
22

>  <SCORE.norm>
-0.191312

>  <RMSD>
33.709

$$$$
2f4s_lig
 OpenBabel11021811433D
libRbt.so/2013.1/901 2013/11/27
 22 23  0  0  0  0  0  0  0  0999 V2000
    2.7750  -15.6105   27.4765 N   0  0  0  0  0  0  0  0  0  0  0  0
    5.5023  -13.3850   23.9009 N   0  0  0  0  0  0  0  0  0  0  0  0
    9.1562   -8.7423   24.0381 N   0  0  0  0  0  0  0  0  0  0  0  0
    3.7319  -10.7623   27.7711 O   0  0  0  0  0  0  0  0  0  0  0  0
    3.4908  -11.8568   26.8400 C   0  0  2  0  0  0  0  0  0  0  0  0
    3.3999   -8.2324   25.5647 N   0  0  0  0  0  0  0  0  0  0  0  0
    2.1630  -13.0595   28.5287 O   0  0  0  0  0  0  0  0  0  0  0  0
    3.2649  -13.1804   27.6215 C   0  0  1  0  0  0  0  0  0  0  0  0
    4.8559  -10.8329   25.0803 O   0  0  0  0  0  0  0  0  0  0  0  0
    2.9799  -14.3415   26.6768 C   0  0  1  0  0  0  0  0  0  0  0  0
    6.8482   -9.6631   24.9943 O   0  0  0  0  0  0  0  0  0  0  0  0
    4.1752  -14.5128   25.6793 C   0  0  0  0  0  0  0  0  0  0  0  0
    6.3675   -8.2318   21.6467 O   0  0  0  0  0  0  0  0  0  0  0  0
    4.3538  -13.1680   24.8752 C   0  0  1  0  0  0  0  0  0  0  0  0
    4.2576   -7.0049   23.1142 O   0  0  0  0  0  0  0  0  0  0  0  0
    4.7036  -12.0214   25.8412 C   0  0  2  0  0  0  0  0  0  0  0  0
    5.4766   -9.6645   25.5866 C   0  0  1  0  0  0  0  0  0  0  0  0
    6.9296   -9.6041   23.5074 C   0  0  2  0  0  0  0  0  0  0  0  0
    8.4065   -9.6412   23.1030 C   0  0  0  0  0  0  0  0  0  0  0  0
    6.3022   -8.3059   23.0511 C   0  0  2  0  0  0  0  0  0  0  0  0
    4.8551   -8.2365   23.5357 C   0  0  1  0  0  0  0  0  0  0  0  0
    4.8239   -8.3305   25.0811 C   0  0  1  0  0  0  0  0  0  0  0  0
  5  4  1  1  0  0  0
  5  8  1  0  0  0  0
  5 16  1  0  0  0  0
  8  7  1  1  0  0  0
  8 10  1  0  0  0  0
 10  1  1  1  0  0  0
 10 12  1  0  0  0  0
 11 18  1  0  0  0  0
 12 14  1  0  0  0  0
 14  2  1  6  0  0  0
 14 16  1  0  0  0  0
 16  9  1  6  0  0  0
 17  9  1  6  0  0  0
 17 11  1  0  0  0  0
 17 22  1  0  0  0  0
 18 19  1  1  0  0  0
 18 20  1  0  0  0  0
 19  3  1  0  0  0  0
 20 13  1  6  0  0  0
 20 21  1  0  0  0  0
 21 15  1  1  0  0  0
 21 22  1  0  0  0  0
 22  6  1  6  0  0  0
M  END
>  <CHROM.1>
78.45946016,102.07241241,-42.45850514,4.94445636,-10.79979922,25.15753437
-2.18310902,0.66192370,-0.20957991

>  <Name>
2f4s_lig

>  <RI>
0

>  <Rbt.Current_Directory>
/home/itssahil/PROJECTS/Mol_Feturizer/New_Systems/rnas/2f4s

>  <Rbt.Executable>
rbdock ($Id: //depot/dev/client3/rdock/2013.1/src/exe/rbdock.cxx#4 $)

>  <Rbt.Library>
libRbt.so (2013.1, Build901 2013/11/27)

>  <Rbt.Parameter_File>
/export/apps/rDock/src/rDock_2013.1_src/data/scripts/dock_solv.prm

>  <Rbt.Receptor>
prm/blind_docking_60.prm

>  <SCORE>
-0.07079

>  <SCORE.INTER>
-4.71967

>  <SCORE.INTER.CONST>
1

>  <SCORE.INTER.POLAR>
0

>  <SCORE.INTER.ROT>
3

>  <SCORE.INTER.SOLV>
22.548

>  <SCORE.INTER.VDW>
-16.2624

>  <SCORE.INTER.norm>
-0.21453

>  <SCORE.INTRA>
4.59799

>  <SCORE.INTRA.DIHEDRAL>
6.60686

>  <SCORE.INTRA.DIHEDRAL.0>
1.67653

>  <SCORE.INTRA.POLAR>
0

>  <SCORE.INTRA.POLAR.0>
0

>  <SCORE.INTRA.REPUL>
0

>  <SCORE.INTRA.REPUL.0>
0

>  <SCORE.INTRA.SOLV>
2.58005

>  <SCORE.INTRA.SOLV.lig_0>
-76.6701

>  <SCORE.INTRA.VDW>
0.00453821

>  <SCORE.INTRA.VDW.0>
-1.53273

>  <SCORE.INTRA.norm>
0.208999

>  <SCORE.RESTR>
0.0508862

>  <SCORE.RESTR.CAVITY>
0.0508862

>  <SCORE.RESTR.norm>
0.00231301

>  <SCORE.SYSTEM>
0

>  <SCORE.SYSTEM.CONST>
0

>  <SCORE.SYSTEM.DIHEDRAL>
0

>  <SCORE.SYSTEM.SOLV>
0

>  <SCORE.SYSTEM.norm>
0

>  <SCORE.heavy>
22

>  <SCORE.norm>
-0.00321773

>  <RMSD>
33.718

$$$$
2f4s_lig
 OpenBabel11021811433D
libRbt.so/2013.1/901 2013/11/27
 22 23  0  0  0  0  0  0  0  0999 V2000
    4.7909  -16.2220   27.4639 N   0  0  0  0  0  0  0  0  0  0  0  0
    2.3104  -11.8676   27.7131 N   0  0  0  0  0  0  0  0  0  0  0  0
    7.6962   -8.5789   23.4111 N   0  0  0  0  0  0  0  0  0  0  0  0
    5.4254  -12.8225   23.9216 O   0  0  0  0  0  0  0  0  0  0  0  0
    5.1593  -13.0013   25.3429 C   0  0  2  0  0  0  0  0  0  0  0  0
    3.3897   -8.7436   27.5470 N   0  0  0  0  0  0  0  0  0  0  0  0
    6.3218  -15.1716   25.3327 O   0  0  0  0  0  0  0  0  0  0  0  0
    5.0989  -14.5151   25.6868 C   0  0  1  0  0  0  0  0  0  0  0  0
    3.8954  -10.9071   25.5024 O   0  0  0  0  0  0  0  0  0  0  0  0
    4.8513  -14.7375   27.1738 C   0  0  1  0  0  0  0  0  0  0  0  0
    5.8760   -9.8596   24.9325 O   0  0  0  0  0  0  0  0  0  0  0  0
    3.5102  -14.0452   27.5924 C   0  0  0  0  0  0  0  0  0  0  0  0
    4.3769   -7.1072   23.0188 O   0  0  0  0  0  0  0  0  0  0  0  0
    3.6177  -12.5058   27.2670 C   0  0  1  0  0  0  0  0  0  0  0  0
    3.3988   -6.5931   25.6435 O   0  0  0  0  0  0  0  0  0  0  0  0
    3.8036  -12.3013   25.7525 C   0  0  2  0  0  0  0  0  0  0  0  0
    4.9125  -10.0881   26.0513 C   0  0  1  0  0  0  0  0  0  0  0  0
    5.3423   -9.1629   23.7280 C   0  0  2  0  0  0  0  0  0  0  0  0
    6.4683   -9.0529   22.6955 C   0  0  0  0  0  0  0  0  0  0  0  0
    4.8871   -7.7820   24.1441 C   0  0  2  0  0  0  0  0  0  0  0  0
    3.8279   -7.8983   25.2387 C   0  0  1  0  0  0  0  0  0  0  0  0
    4.4225   -8.6530   26.4532 C   0  0  1  0  0  0  0  0  0  0  0  0
  5  4  1  6  0  0  0
  5  8  1  0  0  0  0
  5 16  1  0  0  0  0
  8  7  1  1  0  0  0
  8 10  1  0  0  0  0
 10  1  1  6  0  0  0
 10 12  1  0  0  0  0
 11 18  1  0  0  0  0
 12 14  1  0  0  0  0
 14  2  1  6  0  0  0
 14 16  1  0  0  0  0
 16  9  1  1  0  0  0
 17  9  1  6  0  0  0
 17 11  1  0  0  0  0
 17 22  1  0  0  0  0
 18 19  1  6  0  0  0
 18 20  1  0  0  0  0
 19  3  1  0  0  0  0
 20 13  1  6  0  0  0
 20 21  1  0  0  0  0
 21 15  1  1  0  0  0
 21 22  1  0  0  0  0
 22  6  1  1  0  0  0
M  END
>  <CHROM.1>
-55.97072556,102.95031005,-46.08640578,4.70972496,-10.95797702,25.49190008
1.61032808,-0.82465234,2.85051709

>  <Name>
2f4s_lig

>  <RI>
8.9913e+06

>  <Rbt.Current_Directory>
/home/itssahil/PROJECTS/Mol_Feturizer/New_Systems/rnas/2f4s

>  <Rbt.Executable>
rbdock ($Id: //depot/dev/client3/rdock/2013.1/src/exe/rbdock.cxx#4 $)

>  <Rbt.Library>
libRbt.so (2013.1, Build901 2013/11/27)

>  <Rbt.Parameter_File>
/export/apps/rDock/src/rDock_2013.1_src/data/scripts/dock_solv.prm

>  <Rbt.Receptor>
prm/blind_docking_40.prm

>  <SCORE>
-5.36067

>  <SCORE.INTER>
-9.96452

>  <SCORE.INTER.CONST>
1

>  <SCORE.INTER.POLAR>
-0.711935

>  <SCORE.INTER.ROT>
3

>  <SCORE.INTER.SOLV>
16.5217

>  <SCORE.INTER.VDW>
-15.3771

>  <SCORE.INTER.norm>
-0.452933

>  <SCORE.INTRA>
4.57131

>  <SCORE.INTRA.DIHEDRAL>
4.90501

>  <SCORE.INTRA.DIHEDRAL.0>
1.67653

>  <SCORE.INTRA.POLAR>
0

>  <SCORE.INTRA.POLAR.0>
0

>  <SCORE.INTRA.REPUL>
0

>  <SCORE.INTRA.REPUL.0>
0

>  <SCORE.INTRA.SOLV>
3.90211

>  <SCORE.INTRA.SOLV.lig_0>
-76.6701

>  <SCORE.INTRA.VDW>
0.167747

>  <SCORE.INTRA.VDW.0>
-1.53273

>  <SCORE.INTRA.norm>
0.207787

>  <SCORE.RESTR>
0.032536

>  <SCORE.RESTR.CAVITY>
0.032536

>  <SCORE.RESTR.norm>
0.00147891

>  <SCORE.SYSTEM>
0

>  <SCORE.SYSTEM.CONST>
0

>  <SCORE.SYSTEM.DIHEDRAL>
0

>  <SCORE.SYSTEM.SOLV>
0

>  <SCORE.SYSTEM.norm>
0

>  <SCORE.heavy>
22

>  <SCORE.norm>
-0.243667

>  <RMSD>
33.719

$$$$
2f4s_lig
 OpenBabel11021811433D
libRbt.so/2013.1/901 2013/11/27
 22 23  0  0  0  0  0  0  0  0999 V2000
    4.7940  -16.2641   24.9409 N   0  0  0  0  0  0  0  0  0  0  0  0
    5.7723  -11.5205   23.6304 N   0  0  0  0  0  0  0  0  0  0  0  0
    7.0226   -8.6251   22.1413 N   0  0  0  0  0  0  0  0  0  0  0  0
    3.4515  -12.5573   27.9350 O   0  0  0  0  0  0  0  0  0  0  0  0
    3.6340  -12.9311   26.5386 C   0  0  2  0  0  0  0  0  0  0  0  0
    2.7637   -8.3238   27.1983 N   0  0  0  0  0  0  0  0  0  0  0  0
    3.2063  -15.2968   27.0698 O   0  0  0  0  0  0  0  0  0  0  0  0
    4.1298  -14.4002   26.4412 C   0  0  1  0  0  0  0  0  0  0  0  0
    4.1682  -10.6372   25.8594 O   0  0  0  0  0  0  0  0  0  0  0  0
    4.3026  -14.8331   24.9904 C   0  0  1  0  0  0  0  0  0  0  0  0
    6.0758   -9.3413   25.6958 O   0  0  0  0  0  0  0  0  0  0  0  0
    5.3212  -13.8818   24.2760 C   0  0  0  0  0  0  0  0  0  0  0  0
    4.9265   -7.2244   22.9239 O   0  0  0  0  0  0  0  0  0  0  0  0
    4.7713  -12.4060   24.3579 C   0  0  1  0  0  0  0  0  0  0  0  0
    3.1044   -6.5145   24.9943 O   0  0  0  0  0  0  0  0  0  0  0  0
    4.6649  -11.9666   25.8296 C   0  0  2  0  0  0  0  0  0  0  0  0
    4.8432   -9.5737   26.5076 C   0  0  1  0  0  0  0  0  0  0  0  0
    5.8699   -8.9405   24.2752 C   0  0  2  0  0  0  0  0  0  0  0  0
    7.2427   -8.7807   23.6149 C   0  0  0  0  0  0  0  0  0  0  0  0
    5.1328   -7.6200   24.2591 C   0  0  2  0  0  0  0  0  0  0  0  0
    3.8037   -7.7645   24.9983 C   0  0  1  0  0  0  0  0  0  0  0  0
    4.0711   -8.2090   26.4574 C   0  0  1  0  0  0  0  0  0  0  0  0
  5  4  1  1  0  0  0
  5  8  1  0  0  0  0
  5 16  1  0  0  0  0
  8  7  1  6  0  0  0
  8 10  1  0  0  0  0
 10  1  1  1  0  0  0
 10 12  1  0  0  0  0
 11 18  1  0  0  0  0
 12 14  1  0  0  0  0
 14  2  1  6  0  0  0
 14 16  1  0  0  0  0
 16  9  1  6  0  0  0
 17  9  1  6  0  0  0
 17 11  1  0  0  0  0
 17 22  1  0  0  0  0
 18 19  1  1  0  0  0
 18 20  1  0  0  0  0
 19  3  1  0  0  0  0
 20 13  1  6  0  0  0
 20 21  1  0  0  0  0
 21 15  1  1  0  0  0
 21 22  1  0  0  0  0
 22  6  1  1  0  0  0
M  END
>  <CHROM.1>
118.89342490,68.44928538,169.88605523,4.67008957,-10.77782844,25.23660797
-1.75570880,0.89940904,-0.08041070

>  <Name>
2f4s_lig

>  <RI>
0

>  <Rbt.Current_Directory>
/home/itssahil/PROJECTS/Mol_Feturizer/New_Systems/rnas/2f4s

>  <Rbt.Executable>
rbdock ($Id: //depot/dev/client3/rdock/2013.1/src/exe/rbdock.cxx#4 $)

>  <Rbt.Library>
libRbt.so (2013.1, Build901 2013/11/27)

>  <Rbt.Parameter_File>
/export/apps/rDock/src/rDock_2013.1_src/data/scripts/dock_solv.prm

>  <Rbt.Receptor>
prm/blind_docking_60.prm

>  <SCORE>
4.34886

>  <SCORE.INTER>
-3.42247

>  <SCORE.INTER.CONST>
1

>  <SCORE.INTER.POLAR>
0

>  <SCORE.INTER.ROT>
3

>  <SCORE.INTER.SOLV>
14.5983

>  <SCORE.INTER.VDW>
-12.7478

>  <SCORE.INTER.norm>
-0.155567

>  <SCORE.INTRA>
6.13118

>  <SCORE.INTRA.DIHEDRAL>
6.301

>  <SCORE.INTRA.DIHEDRAL.0>
1.67653

>  <SCORE.INTRA.POLAR>
0

>  <SCORE.INTRA.POLAR.0>
0

>  <SCORE.INTRA.REPUL>
0

>  <SCORE.INTRA.REPUL.0>
0

>  <SCORE.INTRA.SOLV>
5.0607

>  <SCORE.INTRA.SOLV.lig_0>
-76.6701

>  <SCORE.INTRA.VDW>
0.450335

>  <SCORE.INTRA.VDW.0>
-1.53273

>  <SCORE.INTRA.norm>
0.27869

>  <SCORE.RESTR>
1.64015

>  <SCORE.RESTR.CAVITY>
1.64015

>  <SCORE.RESTR.norm>
0.0745521

>  <SCORE.SYSTEM>
0

>  <SCORE.SYSTEM.CONST>
0

>  <SCORE.SYSTEM.DIHEDRAL>
0

>  <SCORE.SYSTEM.SOLV>
0

>  <SCORE.SYSTEM.norm>
0

>  <SCORE.heavy>
22

>  <SCORE.norm>
0.197675

>  <RMSD>
33.722

$$$$
2f4s_lig
 OpenBabel11021811433D
libRbt.so/2013.1/901 2013/11/27
 22 23  0  0  0  0  0  0  0  0999 V2000
    4.7799  -16.2349   27.4188 N   0  0  0  0  0  0  0  0  0  0  0  0
    2.2992  -11.8817   27.6871 N   0  0  0  0  0  0  0  0  0  0  0  0
    7.7002   -8.5837   23.4129 N   0  0  0  0  0  0  0  0  0  0  0  0
    5.4283  -12.8124   23.9012 O   0  0  0  0  0  0  0  0  0  0  0  0
    5.1569  -13.0004   25.3203 C   0  0  2  0  0  0  0  0  0  0  0  0
    3.3904   -8.7544   27.5456 N   0  0  0  0  0  0  0  0  0  0  0  0
    6.3191  -15.1708   25.3003 O   0  0  0  0  0  0  0  0  0  0  0  0
    5.0949  -14.5165   25.6541 C   0  0  1  0  0  0  0  0  0  0  0  0
    3.8927  -10.9071   25.4887 O   0  0  0  0  0  0  0  0  0  0  0  0
    4.8416  -14.7485   27.1387 C   0  0  1  0  0  0  0  0  0  0  0  0
    5.8751   -9.8596   24.9249 O   0  0  0  0  0  0  0  0  0  0  0  0
    3.4991  -14.0587   27.5567 C   0  0  0  0  0  0  0  0  0  0  0  0
    4.3804   -7.0939   23.0268 O   0  0  0  0  0  0  0  0  0  0  0  0
    3.6081  -12.5172   27.2418 C   0  0  1  0  0  0  0  0  0  0  0  0
    3.4030   -6.5932   25.6544 O   0  0  0  0  0  0  0  0  0  0  0  0
    3.7998  -12.3029   25.7294 C   0  0  2  0  0  0  0  0  0  0  0  0
    4.9111  -10.0929   26.0424 C   0  0  1  0  0  0  0  0  0  0  0  0
    5.3425   -9.1551   23.7244 C   0  0  2  0  0  0  0  0  0  0  0  0
    6.4688   -9.0411   22.6925 C   0  0  0  0  0  0  0  0  0  0  0  0
    4.8895   -7.7759   24.1483 C   0  0  2  0  0  0  0  0  0  0  0  0
    3.8301   -7.8968   25.2422 C   0  0  1  0  0  0  0  0  0  0  0  0
    4.4234   -8.6593   26.4524 C   0  0  1  0  0  0  0  0  0  0  0  0
  5  4  1  6  0  0  0
  5  8  1  0  0  0  0
  5 16  1  0  0  0  0
  8  7  1  1  0  0  0
  8 10  1  0  0  0  0
 10  1  1  6  0  0  0
 10 12  1  0  0  0  0
 11 18  1  0  0  0  0
 12 14  1  0  0  0  0
 14  2  1  6  0  0  0
 14 16  1  0  0  0  0
 16  9  1  1  0  0  0
 17  9  1  6  0  0  0
 17 11  1  0  0  0  0
 17 22  1  0  0  0  0
 18 19  1  6  0  0  0
 18 20  1  0  0  0  0
 19  3  1  0  0  0  0
 20 13  1  6  0  0  0
 20 21  1  0  0  0  0
 21 15  1  1  0  0  0
 21 22  1  0  0  0  0
 22  6  1  1  0  0  0
M  END
>  <CHROM.1>
-55.69880391,102.85815122,-45.64120288,4.70762569,-10.95957422,25.47807553
1.61216482,-0.82308863,2.85746619

>  <Name>
2f4s_lig

>  <RI>
8.9913e+06

>  <Rbt.Current_Directory>
/home/itssahil/PROJECTS/Mol_Feturizer/New_Systems/rnas/2f4s

>  <Rbt.Executable>
rbdock ($Id: //depot/dev/client3/rdock/2013.1/src/exe/rbdock.cxx#4 $)

>  <Rbt.Library>
libRbt.so (2013.1, Build901 2013/11/27)

>  <Rbt.Parameter_File>
/export/apps/rDock/src/rDock_2013.1_src/data/scripts/dock_solv.prm

>  <Rbt.Receptor>
prm/blind_docking_40.prm

>  <SCORE>
-5.38853

>  <SCORE.INTER>
-10.0015

>  <SCORE.INTER.CONST>
1

>  <SCORE.INTER.POLAR>
-0.696859

>  <SCORE.INTER.ROT>
3

>  <SCORE.INTER.SOLV>
16.312

>  <SCORE.INTER.VDW>
-15.3821

>  <SCORE.INTER.norm>
-0.454612

>  <SCORE.INTRA>
4.58377

>  <SCORE.INTRA.DIHEDRAL>
4.94446

>  <SCORE.INTRA.DIHEDRAL.0>
1.67653

>  <SCORE.INTRA.POLAR>
0

>  <SCORE.INTRA.POLAR.0>
0

>  <SCORE.INTRA.REPUL>
0

>  <SCORE.INTRA.REPUL.0>
0

>  <SCORE.INTRA.SOLV>
3.88371

>  <SCORE.INTRA.SOLV.lig_0>
-76.6701

>  <SCORE.INTRA.VDW>
0.169683

>  <SCORE.INTRA.VDW.0>
-1.53273

>  <SCORE.INTRA.norm>
0.208353

>  <SCORE.RESTR>
0.0291656

>  <SCORE.RESTR.CAVITY>
0.0291656

>  <SCORE.RESTR.norm>
0.00132571

>  <SCORE.SYSTEM>
0

>  <SCORE.SYSTEM.CONST>
0

>  <SCORE.SYSTEM.DIHEDRAL>
0

>  <SCORE.SYSTEM.SOLV>
0

>  <SCORE.SYSTEM.norm>
0

>  <SCORE.heavy>
22

>  <SCORE.norm>
-0.244933

>  <RMSD>
33.726

$$$$
2f4s_lig
 OpenBabel11021811433D
libRbt.so/2013.1/901 2013/11/27
 22 23  0  0  0  0  0  0  0  0999 V2000
    4.7868  -16.3033   27.0864 N   0  0  0  0  0  0  0  0  0  0  0  0
    2.3006  -12.0880   28.1937 N   0  0  0  0  0  0  0  0  0  0  0  0
    3.8270   -9.5058   21.8731 N   0  0  0  0  0  0  0  0  0  0  0  0
    5.2376  -12.3387   24.1562 O   0  0  0  0  0  0  0  0  0  0  0  0
    5.0398  -12.7621   25.5362 C   0  0  2  0  0  0  0  0  0  0  0  0
    4.9385   -9.0592   28.3314 N   0  0  0  0  0  0  0  0  0  0  0  0
    6.2105  -14.8835   25.0999 O   0  0  0  0  0  0  0  0  0  0  0  0
    5.0026  -14.3131   25.6171 C   0  0  1  0  0  0  0  0  0  0  0  0
    3.7750  -10.7425   26.1111 O   0  0  0  0  0  0  0  0  0  0  0  0
    4.8265  -14.7904   27.0535 C   0  0  1  0  0  0  0  0  0  0  0  0
    5.0484   -9.5562   24.5892 O   0  0  0  0  0  0  0  0  0  0  0  0
    3.5035  -14.1972   27.6458 C   0  0  0  0  0  0  0  0  0  0  0  0
    3.0091   -6.5022   24.6036 O   0  0  0  0  0  0  0  0  0  0  0  0
    3.5883  -12.6236   27.5854 C   0  0  1  0  0  0  0  0  0  0  0  0
    3.9879   -6.5626   27.2773 O   0  0  0  0  0  0  0  0  0  0  0  0
    3.7016  -12.1600   26.1217 C   0  0  2  0  0  0  0  0  0  0  0  0
    4.9959  -10.0320   26.0045 C   0  0  1  0  0  0  0  0  0  0  0  0
    3.9573   -8.6380   24.1561 C   0  0  2  0  0  0  0  0  0  0  0  0
    4.1749   -8.2923   22.6798 C   0  0  0  0  0  0  0  0  0  0  0  0
    4.0346   -7.3831   24.9966 C   0  0  2  0  0  0  0  0  0  0  0  0
    3.9067   -7.7463   26.4750 C   0  0  1  0  0  0  0  0  0  0  0  0
    5.0438   -8.7219   26.8663 C   0  0  1  0  0  0  0  0  0  0  0  0
  5  4  1  6  0  0  0
  5  8  1  0  0  0  0
  5 16  1  0  0  0  0
  8  7  1  1  0  0  0
  8 10  1  0  0  0  0
 10  1  1  6  0  0  0
 10 12  1  0  0  0  0
 11 18  1  0  0  0  0
 12 14  1  0  0  0  0
 14  2  1  6  0  0  0
 14 16  1  0  0  0  0
 16  9  1  1  0  0  0
 17  9  1  6  0  0  0
 17 11  1  0  0  0  0
 17 22  1  0  0  0  0
 18 19  1  6  0  0  0
 18 20  1  0  0  0  0
 19  3  1  0  0  0  0
 20 13  1  6  0  0  0
 20 21  1  0  0  0  0
 21 15  1  1  0  0  0
 21 22  1  0  0  0  0
 22  6  1  1  0  0  0
M  END
>  <CHROM.1>
-18.44437377,103.16942398,72.75785362,4.31928399,-10.84158535,25.79396039
1.10841767,-1.34376655,2.48028128

>  <Name>
2f4s_lig

>  <RI>
8.9913e+06

>  <Rbt.Current_Directory>
/home/itssahil/PROJECTS/Mol_Feturizer/New_Systems/rnas/2f4s

>  <Rbt.Executable>
rbdock ($Id: //depot/dev/client3/rdock/2013.1/src/exe/rbdock.cxx#4 $)

>  <Rbt.Library>
libRbt.so (2013.1, Build901 2013/11/27)

>  <Rbt.Parameter_File>
/export/apps/rDock/src/rDock_2013.1_src/data/scripts/dock_solv.prm

>  <Rbt.Receptor>
prm/blind_docking_40.prm

>  <SCORE>
-2.49515

>  <SCORE.INTER>
-10.0999

>  <SCORE.INTER.CONST>
1

>  <SCORE.INTER.POLAR>
-1.25305

>  <SCORE.INTER.ROT>
3

>  <SCORE.INTER.SOLV>
21.3355

>  <SCORE.INTER.VDW>
-15.2683

>  <SCORE.INTER.norm>
-0.459088

>  <SCORE.INTRA>
6.79103

>  <SCORE.INTRA.DIHEDRAL>
10.3494

>  <SCORE.INTRA.DIHEDRAL.0>
1.67653

>  <SCORE.INTRA.POLAR>
0

>  <SCORE.INTRA.POLAR.0>
0

>  <SCORE.INTRA.REPUL>
0

>  <SCORE.INTRA.REPUL.0>
0

>  <SCORE.INTRA.SOLV>
1.09319

>  <SCORE.INTRA.SOLV.lig_0>
-76.6701

>  <SCORE.INTRA.VDW>
1.06974

>  <SCORE.INTRA.VDW.0>
-1.53273

>  <SCORE.INTRA.norm>
0.308683

>  <SCORE.RESTR>
0.813751

>  <SCORE.RESTR.CAVITY>
0.813751

>  <SCORE.RESTR.norm>
0.0369887

>  <SCORE.SYSTEM>
0

>  <SCORE.SYSTEM.CONST>
0

>  <SCORE.SYSTEM.DIHEDRAL>
0

>  <SCORE.SYSTEM.SOLV>
0

>  <SCORE.SYSTEM.norm>
0

>  <SCORE.heavy>
22

>  <SCORE.norm>
-0.113416

>  <RMSD>
33.728

$$$$
2f4s_lig
 OpenBabel11021811433D
libRbt.so/2013.1/901 2013/11/27
 22 23  0  0  0  0  0  0  0  0999 V2000
    4.0444  -16.0685   27.1856 N   0  0  0  0  0  0  0  0  0  0  0  0
    5.9119  -13.3644   23.3940 N   0  0  0  0  0  0  0  0  0  0  0  0
    9.3936  -10.2753   24.0388 N   0  0  0  0  0  0  0  0  0  0  0  0
    4.4187  -11.1514   27.6206 O   0  0  0  0  0  0  0  0  0  0  0  0
    4.1817  -12.2313   26.6716 C   0  0  2  0  0  0  0  0  0  0  0  0
    3.1580   -8.6909   24.9833 N   0  0  0  0  0  0  0  0  0  0  0  0
    3.2797  -13.6639   28.4592 O   0  0  0  0  0  0  0  0  0  0  0  0
    4.2417  -13.6024   27.3996 C   0  0  1  0  0  0  0  0  0  0  0  0
    5.1321  -10.9681   24.7982 O   0  0  0  0  0  0  0  0  0  0  0  0
    3.9680  -14.7536   26.4394 C   0  0  1  0  0  0  0  0  0  0  0  0
    6.8580   -9.4468   25.0266 O   0  0  0  0  0  0  0  0  0  0  0  0
    5.0145  -14.7262   25.2745 C   0  0  0  0  0  0  0  0  0  0  0  0
    6.6906   -8.0852   21.6202 O   0  0  0  0  0  0  0  0  0  0  0  0
    4.9021  -13.3394   24.5320 C   0  0  1  0  0  0  0  0  0  0  0  0
    4.1731   -7.2924   22.6895 O   0  0  0  0  0  0  0  0  0  0  0  0
    5.2444  -12.1950   25.5031 C   0  0  2  0  0  0  0  0  0  0  0  0
    5.4306   -9.7116   25.3800 C   0  0  1  0  0  0  0  0  0  0  0  0
    7.1763   -9.3537   23.5736 C   0  0  2  0  0  0  0  0  0  0  0  0
    8.6810   -9.1097   23.4238 C   0  0  0  0  0  0  0  0  0  0  0  0
    6.4046   -8.1890   22.9947 C   0  0  2  0  0  0  0  0  0  0  0  0
    4.9092   -8.3968   23.2280 C   0  0  1  0  0  0  0  0  0  0  0  0
    4.6362   -8.5156   24.7476 C   0  0  1  0  0  0  0  0  0  0  0  0
  5  4  1  1  0  0  0
  5  8  1  0  0  0  0
  5 16  1  0  0  0  0
  8  7  1  1  0  0  0
  8 10  1  0  0  0  0
 10  1  1  1  0  0  0
 10 12  1  0  0  0  0
 11 18  1  0  0  0  0
 12 14  1  0  0  0  0
 14  2  1  6  0  0  0
 14 16  1  0  0  0  0
 16  9  1  6  0  0  0
 17  9  1  6  0  0  0
 17 11  1  0  0  0  0
 17 22  1  0  0  0  0
 18 19  1  1  0  0  0
 18 20  1  0  0  0  0
 19  3  1  0  0  0  0
 20 13  1  6  0  0  0
 20 21  1  0  0  0  0
 21 15  1  1  0  0  0
 21 22  1  0  0  0  0
 22  6  1  6  0  0  0
M  END
>  <CHROM.1>
65.77256655,93.71624381,60.68997096,5.35470954,-11.01563669,24.95392789,-1.94118418
0.54671464,-0.37211266

>  <Name>
2f4s_lig

>  <RI>
0

>  <Rbt.Current_Directory>
/home/itssahil/PROJECTS/Mol_Feturizer/New_Systems/rnas/2f4s

>  <Rbt.Executable>
rbdock ($Id: //depot/dev/client3/rdock/2013.1/src/exe/rbdock.cxx#4 $)

>  <Rbt.Library>
libRbt.so (2013.1, Build901 2013/11/27)

>  <Rbt.Parameter_File>
/export/apps/rDock/src/rDock_2013.1_src/data/scripts/dock_solv.prm

>  <Rbt.Receptor>
prm/blind_docking_80.prm

>  <SCORE>
-5.81359

>  <SCORE.INTER>
-7.90987

>  <SCORE.INTER.CONST>
1

>  <SCORE.INTER.POLAR>
-0.602713

>  <SCORE.INTER.ROT>
3

>  <SCORE.INTER.SOLV>
25.6421

>  <SCORE.INTER.VDW>
-17.4116

>  <SCORE.INTER.norm>
-0.35954

>  <SCORE.INTRA>
1.79858

>  <SCORE.INTRA.DIHEDRAL>
2.80304

>  <SCORE.INTRA.DIHEDRAL.0>
1.67653

>  <SCORE.INTRA.POLAR>
0

>  <SCORE.INTRA.POLAR.0>
0

>  <SCORE.INTRA.REPUL>
0

>  <SCORE.INTRA.REPUL.0>
0

>  <SCORE.INTRA.SOLV>
0.387882

>  <SCORE.INTRA.SOLV.lig_0>
-76.6701

>  <SCORE.INTRA.VDW>
0.203121

>  <SCORE.INTRA.VDW.0>
-1.53273

>  <SCORE.INTRA.norm>
0.0817538

>  <SCORE.RESTR>
0.297702

>  <SCORE.RESTR.CAVITY>
0.297702

>  <SCORE.RESTR.norm>
0.0135319

>  <SCORE.SYSTEM>
0

>  <SCORE.SYSTEM.CONST>
0

>  <SCORE.SYSTEM.DIHEDRAL>
0

>  <SCORE.SYSTEM.SOLV>
0

>  <SCORE.SYSTEM.norm>
0

>  <SCORE.heavy>
22

>  <SCORE.norm>
-0.264254

>  <RMSD>
33.729

$$$$
2f4s_lig
 OpenBabel11021811433D
libRbt.so/2013.1/901 2013/11/27
 22 23  0  0  0  0  0  0  0  0999 V2000
    4.6710  -16.2623   27.1771 N   0  0  0  0  0  0  0  0  0  0  0  0
    5.8794  -13.2308   23.3658 N   0  0  0  0  0  0  0  0  0  0  0  0
    9.1526   -9.6716   22.3733 N   0  0  0  0  0  0  0  0  0  0  0  0
    4.5259  -11.3529   27.7967 O   0  0  0  0  0  0  0  0  0  0  0  0
    4.3292  -12.4197   26.8240 C   0  0  2  0  0  0  0  0  0  0  0  0
    3.1090   -8.6076   24.8770 N   0  0  0  0  0  0  0  0  0  0  0  0
    3.7559  -14.0080   28.6157 O   0  0  0  0  0  0  0  0  0  0  0  0
    4.6073  -13.7989   27.4829 C   0  0  1  0  0  0  0  0  0  0  0  0
    4.9619  -10.9910   24.9353 O   0  0  0  0  0  0  0  0  0  0  0  0
    4.3813  -14.9402   26.4990 C   0  0  1  0  0  0  0  0  0  0  0  0
    6.7472   -9.5539   25.2394 O   0  0  0  0  0  0  0  0  0  0  0  0
    5.3109  -14.7515   25.2527 C   0  0  0  0  0  0  0  0  0  0  0  0
    6.9159   -8.3325   21.7803 O   0  0  0  0  0  0  0  0  0  0  0  0
    4.9778  -13.3624   24.5845 C   0  0  1  0  0  0  0  0  0  0  0  0
    4.3722   -7.3637   22.6175 O   0  0  0  0  0  0  0  0  0  0  0  0
    5.2735  -12.2200   25.5733 C   0  0  2  0  0  0  0  0  0  0  0  0
    5.2846   -9.7281   25.4898 C   0  0  1  0  0  0  0  0  0  0  0  0
    7.1800   -9.5400   23.8134 C   0  0  2  0  0  0  0  0  0  0  0  0
    8.7030   -9.3818   23.7727 C   0  0  0  0  0  0  0  0  0  0  0  0
    6.5206   -8.3622   23.1312 C   0  0  2  0  0  0  0  0  0  0  0  0
    5.0026   -8.4811   23.2543 C   0  0  1  0  0  0  0  0  0  0  0  0
    4.6084   -8.5203   24.7513 C   0  0  1  0  0  0  0  0  0  0  0  0
  5  4  1  1  0  0  0
  5  8  1  0  0  0  0
  5 16  1  0  0  0  0
  8  7  1  1  0  0  0
  8 10  1  0  0  0  0
 10  1  1  1  0  0  0
 10 12  1  0  0  0  0
 11 18  1  0  0  0  0
 12 14  1  0  0  0  0
 14  2  1  6  0  0  0
 14 16  1  0  0  0  0
 16  9  1  6  0  0  0
 17  9  1  6  0  0  0
 17 11  1  0  0  0  0
 17 22  1  0  0  0  0
 18 19  1  1  0  0  0
 18 20  1  0  0  0  0
 19  3  1  0  0  0  0
 20 13  1  6  0  0  0
 20 21  1  0  0  0  0
 21 15  1  1  0  0  0
 21 22  1  0  0  0  0
 22  6  1  6  0  0  0
M  END
>  <CHROM.1>
72.04313638,77.04052318,167.68872052,5.46521806,-11.09755852,24.96600405
-1.92055942,0.67111102,-0.36914101

>  <Name>
2f4s_lig

>  <RI>
0

>  <Rbt.Current_Directory>
/home/itssahil/PROJECTS/Mol_Feturizer/New_Systems/rnas/2f4s

>  <Rbt.Executable>
rbdock ($Id: //depot/dev/client3/rdock/2013.1/src/exe/rbdock.cxx#4 $)

>  <Rbt.Library>
libRbt.so (2013.1, Build901 2013/11/27)

>  <Rbt.Parameter_File>
/export/apps/rDock/src/rDock_2013.1_src/data/scripts/dock_solv.prm

>  <Rbt.Receptor>
prm/blind_docking_60.prm

>  <SCORE>
-7.73207

>  <SCORE.INTER>
-9.92492

>  <SCORE.INTER.CONST>
1

>  <SCORE.INTER.POLAR>
-0.87855

>  <SCORE.INTER.ROT>
3

>  <SCORE.INTER.SOLV>
21.5853

>  <SCORE.INTER.VDW>
-16.4832

>  <SCORE.INTER.norm>
-0.451133

>  <SCORE.INTRA>
1.24261

>  <SCORE.INTRA.DIHEDRAL>
0.987168

>  <SCORE.INTRA.DIHEDRAL.0>
1.67653

>  <SCORE.INTRA.POLAR>
0

>  <SCORE.INTRA.POLAR.0>
0

>  <SCORE.INTRA.REPUL>
0

>  <SCORE.INTRA.REPUL.0>
0

>  <SCORE.INTRA.SOLV>
1.06005

>  <SCORE.INTRA.SOLV.lig_0>
-76.6701

>  <SCORE.INTRA.VDW>
0.219004

>  <SCORE.INTRA.VDW.0>
-1.53273

>  <SCORE.INTRA.norm>
0.0564823

>  <SCORE.RESTR>
0.950234

>  <SCORE.RESTR.CAVITY>
0.950234

>  <SCORE.RESTR.norm>
0.0431925

>  <SCORE.SYSTEM>
0

>  <SCORE.SYSTEM.CONST>
0

>  <SCORE.SYSTEM.DIHEDRAL>
0

>  <SCORE.SYSTEM.SOLV>
0

>  <SCORE.SYSTEM.norm>
0

>  <SCORE.heavy>
22

>  <SCORE.norm>
-0.351458

>  <RMSD>
33.732

$$$$
2f4s_lig
 OpenBabel11021811433D
libRbt.so/2013.1/901 2013/11/27
 22 23  0  0  0  0  0  0  0  0999 V2000
    2.7821  -15.5973   27.4705 N   0  0  0  0  0  0  0  0  0  0  0  0
    5.6206  -13.5138   23.8958 N   0  0  0  0  0  0  0  0  0  0  0  0
    9.1533   -9.6930   22.3080 N   0  0  0  0  0  0  0  0  0  0  0  0
    3.8588  -10.7701   27.6851 O   0  0  0  0  0  0  0  0  0  0  0  0
    3.6040  -11.8765   26.7720 C   0  0  2  0  0  0  0  0  0  0  0  0
    3.2439   -8.4828   25.0482 N   0  0  0  0  0  0  0  0  0  0  0  0
    2.2198  -13.0111   28.4627 O   0  0  0  0  0  0  0  0  0  0  0  0
    3.3321  -13.1780   27.5756 C   0  0  1  0  0  0  0  0  0  0  0  0
    5.0219  -10.9230   25.0145 O   0  0  0  0  0  0  0  0  0  0  0  0
    3.0319  -14.3502   26.6494 C   0  0  1  0  0  0  0  0  0  0  0  0
    6.8615   -9.5454   25.2657 O   0  0  0  0  0  0  0  0  0  0  0  0
    4.2376  -14.5718   25.6746 C   0  0  0  0  0  0  0  0  0  0  0  0
    6.9406   -8.2925   21.8147 O   0  0  0  0  0  0  0  0  0  0  0  0
    4.4631  -13.2483   24.8472 C   0  0  1  0  0  0  0  0  0  0  0  0
    4.4611   -7.2544   22.7554 O   0  0  0  0  0  0  0  0  0  0  0  0
    4.8274  -12.0919   25.7960 C   0  0  2  0  0  0  0  0  0  0  0  0
    5.4044   -9.6768   25.5687 C   0  0  1  0  0  0  0  0  0  0  0  0
    7.2415   -9.5294   23.8248 C   0  0  2  0  0  0  0  0  0  0  0  0
    8.7662   -9.4182   23.7289 C   0  0  0  0  0  0  0  0  0  0  0  0
    6.5947   -8.3245   23.1790 C   0  0  2  0  0  0  0  0  0  0  0  0
    5.0793   -8.3976   23.3574 C   0  0  1  0  0  0  0  0  0  0  0  0
    4.7396   -8.4407   24.8676 C   0  0  1  0  0  0  0  0  0  0  0  0
  5  4  1  1  0  0  0
  5  8  1  0  0  0  0
  5 16  1  0  0  0  0
  8  7  1  1  0  0  0
  8 10  1  0  0  0  0
 10  1  1  1  0  0  0
 10 12  1  0  0  0  0
 11 18  1  0  0  0  0
 12 14  1  0  0  0  0
 14  2  1  6  0  0  0
 14 16  1  0  0  0  0
 16  9  1  6  0  0  0
 17  9  1  6  0  0  0
 17 11  1  0  0  0  0
 17 22  1  0  0  0  0
 18 19  1  1  0  0  0
 18 20  1  0  0  0  0
 19  3  1  0  0  0  0
 20 13  1  6  0  0  0
 20 21  1  0  0  0  0
 21 15  1  1  0  0  0
 21 22  1  0  0  0  0
 22  6  1  6  0  0  0
M  END
>  <CHROM.1>
64.89841013,102.50075238,168.25249098,5.06853387,-10.88126800,25.06911250
-2.21167263,0.63795355,-0.23814293

>  <Name>
2f4s_lig

>  <RI>
0

>  <Rbt.Current_Directory>
/home/itssahil/PROJECTS/Mol_Feturizer/New_Systems/rnas/2f4s

>  <Rbt.Executable>
rbdock ($Id: //depot/dev/client3/rdock/2013.1/src/exe/rbdock.cxx#4 $)

>  <Rbt.Library>
libRbt.so (2013.1, Build901 2013/11/27)

>  <Rbt.Parameter_File>
/export/apps/rDock/src/rDock_2013.1_src/data/scripts/dock_solv.prm

>  <Rbt.Receptor>
prm/blind_docking_60.prm

>  <SCORE>
-4.65197

>  <SCORE.INTER>
-8.46531

>  <SCORE.INTER.CONST>
1

>  <SCORE.INTER.POLAR>
0

>  <SCORE.INTER.ROT>
3

>  <SCORE.INTER.SOLV>
17.6035

>  <SCORE.INTER.VDW>
-17.1114

>  <SCORE.INTER.norm>
-0.384787

>  <SCORE.INTRA>
3.63245

>  <SCORE.INTRA.DIHEDRAL>
4.67753

>  <SCORE.INTRA.DIHEDRAL.0>
1.67653

>  <SCORE.INTRA.POLAR>
0

>  <SCORE.INTRA.POLAR.0>
0

>  <SCORE.INTRA.REPUL>
0

>  <SCORE.INTRA.REPUL.0>
0

>  <SCORE.INTRA.SOLV>
1.75692

>  <SCORE.INTRA.SOLV.lig_0>
-76.6701

>  <SCORE.INTRA.VDW>
0.415221

>  <SCORE.INTRA.VDW.0>
-1.53273

>  <SCORE.INTRA.norm>
0.165111

>  <SCORE.RESTR>
0.180883

>  <SCORE.RESTR.CAVITY>
0.180883

>  <SCORE.RESTR.norm>
0.00822193

>  <SCORE.SYSTEM>
0

>  <SCORE.SYSTEM.CONST>
0

>  <SCORE.SYSTEM.DIHEDRAL>
0

>  <SCORE.SYSTEM.SOLV>
0

>  <SCORE.SYSTEM.norm>
0

>  <SCORE.heavy>
22

>  <SCORE.norm>
-0.211453

>  <RMSD>
33.753

$$$$
2f4s_lig
 OpenBabel11021811433D
libRbt.so/2013.1/901 2013/11/27
 22 23  0  0  0  0  0  0  0  0999 V2000
    2.7804  -15.5962   27.4439 N   0  0  0  0  0  0  0  0  0  0  0  0
    5.6215  -13.4894   23.8850 N   0  0  0  0  0  0  0  0  0  0  0  0
    9.1462   -9.7057   22.3047 N   0  0  0  0  0  0  0  0  0  0  0  0
    3.8254  -10.7626   27.6705 O   0  0  0  0  0  0  0  0  0  0  0  0
    3.5817  -11.8693   26.7547 C   0  0  2  0  0  0  0  0  0  0  0  0
    3.2428   -8.4499   25.0371 N   0  0  0  0  0  0  0  0  0  0  0  0
    2.1972  -13.0151   28.4374 O   0  0  0  0  0  0  0  0  0  0  0  0
    3.3145  -13.1737   27.5551 C   0  0  1  0  0  0  0  0  0  0  0  0
    5.0014  -10.9041   25.0049 O   0  0  0  0  0  0  0  0  0  0  0  0
    3.0259  -14.3464   26.6258 C   0  0  1  0  0  0  0  0  0  0  0  0
    6.8515   -9.5413   25.2592 O   0  0  0  0  0  0  0  0  0  0  0  0
    4.2373  -14.5587   25.6561 C   0  0  0  0  0  0  0  0  0  0  0  0
    6.9454   -8.2877   21.8088 O   0  0  0  0  0  0  0  0  0  0  0  0
    4.4581  -13.2326   24.8317 C   0  0  1  0  0  0  0  0  0  0  0  0
    4.4730   -7.2302   22.7465 O   0  0  0  0  0  0  0  0  0  0  0  0
    4.8108  -12.0754   25.7838 C   0  0  2  0  0  0  0  0  0  0  0  0
    5.3929   -9.6612   25.5602 C   0  0  1  0  0  0  0  0  0  0  0  0
    7.2337   -9.5278   23.8189 C   0  0  2  0  0  0  0  0  0  0  0  0
    8.7593   -9.4286   23.7252 C   0  0  0  0  0  0  0  0  0  0  0  0
    6.5974   -8.3175   23.1726 C   0  0  2  0  0  0  0  0  0  0  0  0
    5.0812   -8.3786   23.3489 C   0  0  1  0  0  0  0  0  0  0  0  0
    4.7390   -8.4196   24.8586 C   0  0  1  0  0  0  0  0  0  0  0  0
  5  4  1  1  0  0  0
  5  8  1  0  0  0  0
  5 16  1  0  0  0  0
  8  7  1  1  0  0  0
  8 10  1  0  0  0  0
 10  1  1  1  0  0  0
 10 12  1  0  0  0  0
 11 18  1  0  0  0  0
 12 14  1  0  0  0  0
 14  2  1  6  0  0  0
 14 16  1  0  0  0  0
 16  9  1  6  0  0  0
 17  9  1  6  0  0  0
 17 11  1  0  0  0  0
 17 22  1  0  0  0  0
 18 19  1  1  0  0  0
 18 20  1  0  0  0  0
 19  3  1  0  0  0  0
 20 13  1  6  0  0  0
 20 21  1  0  0  0  0
 21 15  1  1  0  0  0
 21 22  1  0  0  0  0
 22  6  1  6  0  0  0
M  END
>  <CHROM.1>
65.87793625,101.78158038,168.26224380,5.06071659,-10.87152930,25.05677999
-2.21256722,0.63660952,-0.23623469

>  <Name>
2f4s_lig

>  <RI>
0

>  <Rbt.Current_Directory>
/home/itssahil/PROJECTS/Mol_Feturizer/New_Systems/rnas/2f4s

>  <Rbt.Executable>
rbdock ($Id: //depot/dev/client3/rdock/2013.1/src/exe/rbdock.cxx#4 $)

>  <Rbt.Library>
libRbt.so (2013.1, Build901 2013/11/27)

>  <Rbt.Parameter_File>
/export/apps/rDock/src/rDock_2013.1_src/data/scripts/dock_solv.prm

>  <Rbt.Receptor>
prm/blind_docking_60.prm

>  <SCORE>
-4.80263

>  <SCORE.INTER>
-8.57706

>  <SCORE.INTER.CONST>
1

>  <SCORE.INTER.POLAR>
0

>  <SCORE.INTER.ROT>
3

>  <SCORE.INTER.SOLV>
17.5831

>  <SCORE.INTER.VDW>
-17.1791

>  <SCORE.INTER.norm>
-0.389866

>  <SCORE.INTRA>
3.57155

>  <SCORE.INTRA.DIHEDRAL>
4.62219

>  <SCORE.INTRA.DIHEDRAL.0>
1.67653

>  <SCORE.INTRA.POLAR>
0

>  <SCORE.INTRA.POLAR.0>
0

>  <SCORE.INTRA.REPUL>
0

>  <SCORE.INTRA.REPUL.0>
0

>  <SCORE.INTRA.SOLV>
1.7513

>  <SCORE.INTRA.SOLV.lig_0>
-76.6701

>  <SCORE.INTRA.VDW>
0.384803

>  <SCORE.INTRA.VDW.0>
-1.53273

>  <SCORE.INTRA.norm>
0.162343

>  <SCORE.RESTR>
0.202883

>  <SCORE.RESTR.CAVITY>
0.202883

>  <SCORE.RESTR.norm>
0.00922197

>  <SCORE.SYSTEM>
0

>  <SCORE.SYSTEM.CONST>
0

>  <SCORE.SYSTEM.DIHEDRAL>
0

>  <SCORE.SYSTEM.SOLV>
0

>  <SCORE.SYSTEM.norm>
0

>  <SCORE.heavy>
22

>  <SCORE.norm>
-0.218301

>  <RMSD>
33.754

$$$$
2f4s_lig
 OpenBabel11021811433D
libRbt.so/2013.1/901 2013/11/27
 22 23  0  0  0  0  0  0  0  0999 V2000
    2.8021  -15.6027   27.4489 N   0  0  0  0  0  0  0  0  0  0  0  0
    5.6525  -13.5080   23.8903 N   0  0  0  0  0  0  0  0  0  0  0  0
    9.1405   -9.6955   22.2697 N   0  0  0  0  0  0  0  0  0  0  0  0
    3.8376  -10.7661   27.6558 O   0  0  0  0  0  0  0  0  0  0  0  0
    3.5993  -11.8777   26.7445 C   0  0  2  0  0  0  0  0  0  0  0  0
    3.2418   -8.4812   25.0355 N   0  0  0  0  0  0  0  0  0  0  0  0
    2.2106  -13.0179   28.4277 O   0  0  0  0  0  0  0  0  0  0  0  0
    3.3315  -13.1787   27.5503 C   0  0  1  0  0  0  0  0  0  0  0  0
    5.0237  -10.9185   24.9952 O   0  0  0  0  0  0  0  0  0  0  0  0
    3.0484  -14.3564   26.6257 C   0  0  1  0  0  0  0  0  0  0  0  0
    6.8621   -9.5376   25.2361 O   0  0  0  0  0  0  0  0  0  0  0  0
    4.2638  -14.5713   25.6615 C   0  0  0  0  0  0  0  0  0  0  0  0
    6.9220   -8.2878   21.7835 O   0  0  0  0  0  0  0  0  0  0  0  0
    4.4853  -13.2488   24.8314 C   0  0  1  0  0  0  0  0  0  0  0  0
    4.4456   -7.2529   22.7355 O   0  0  0  0  0  0  0  0  0  0  0  0
    4.8323  -12.0863   25.7791 C   0  0  2  0  0  0  0  0  0  0  0  0
    5.4067   -9.6711   25.5464 C   0  0  1  0  0  0  0  0  0  0  0  0
    7.2350   -9.5224   23.7933 C   0  0  2  0  0  0  0  0  0  0  0  0
    8.7590   -9.4086   23.6898 C   0  0  0  0  0  0  0  0  0  0  0  0
    6.5830   -8.3191   23.1496 C   0  0  2  0  0  0  0  0  0  0  0  0
    5.0686   -8.3946   23.3356 C   0  0  1  0  0  0  0  0  0  0  0  0
    4.7364   -8.4368   24.8475 C   0  0  1  0  0  0  0  0  0  0  0  0
  5  4  1  1  0  0  0
  5  8  1  0  0  0  0
  5 16  1  0  0  0  0
  8  7  1  1  0  0  0
  8 10  1  0  0  0  0
 10  1  1  1  0  0  0
 10 12  1  0  0  0  0
 11 18  1  0  0  0  0
 12 14  1  0  0  0  0
 14  2  1  6  0  0  0
 14 16  1  0  0  0  0
 16  9  1  6  0  0  0
 17  9  1  6  0  0  0
 17 11  1  0  0  0  0
 17 22  1  0  0  0  0
 18 19  1  1  0  0  0
 18 20  1  0  0  0  0
 19  3  1  0  0  0  0
 20 13  1  6  0  0  0
 20 21  1  0  0  0  0
 21 15  1  1  0  0  0
 21 22  1  0  0  0  0
 22  6  1  6  0  0  0
M  END
>  <CHROM.1>
65.66900396,102.63312181,167.78549052,5.06821504,-10.87910450,25.04492362
-2.20730979,0.63683067,-0.24231911

>  <Name>
2f4s_lig

>  <RI>
0

>  <Rbt.Current_Directory>
/home/itssahil/PROJECTS/Mol_Feturizer/New_Systems/rnas/2f4s

>  <Rbt.Executable>
rbdock ($Id: //depot/dev/client3/rdock/2013.1/src/exe/rbdock.cxx#4 $)

>  <Rbt.Library>
libRbt.so (2013.1, Build901 2013/11/27)

>  <Rbt.Parameter_File>
/export/apps/rDock/src/rDock_2013.1_src/data/scripts/dock_solv.prm

>  <Rbt.Receptor>
prm/blind_docking_60.prm

>  <SCORE>
-4.73536

>  <SCORE.INTER>
-8.56802

>  <SCORE.INTER.CONST>
1

>  <SCORE.INTER.POLAR>
0

>  <SCORE.INTER.ROT>
3

>  <SCORE.INTER.SOLV>
17.6251

>  <SCORE.INTER.VDW>
-17.1871

>  <SCORE.INTER.norm>
-0.389455

>  <SCORE.INTRA>
3.64423

>  <SCORE.INTRA.DIHEDRAL>
4.77345

>  <SCORE.INTRA.DIHEDRAL.0>
1.67653

>  <SCORE.INTRA.POLAR>
0

>  <SCORE.INTRA.POLAR.0>
0

>  <SCORE.INTRA.REPUL>
0

>  <SCORE.INTRA.REPUL.0>
0

>  <SCORE.INTRA.SOLV>
1.76832

>  <SCORE.INTRA.SOLV.lig_0>
-76.6701

>  <SCORE.INTRA.VDW>
0.373347

>  <SCORE.INTRA.VDW.0>
-1.53273

>  <SCORE.INTRA.norm>
0.165647

>  <SCORE.RESTR>
0.188423

>  <SCORE.RESTR.CAVITY>
0.188423

>  <SCORE.RESTR.norm>
0.00856466

>  <SCORE.SYSTEM>
0

>  <SCORE.SYSTEM.CONST>
0

>  <SCORE.SYSTEM.DIHEDRAL>
0

>  <SCORE.SYSTEM.SOLV>
0

>  <SCORE.SYSTEM.norm>
0

>  <SCORE.heavy>
22

>  <SCORE.norm>
-0.215244

>  <RMSD>
33.760

$$$$
2f4s_lig
 OpenBabel11021811433D
libRbt.so/2013.1/901 2013/11/27
 22 23  0  0  0  0  0  0  0  0999 V2000
    5.0974  -16.3358   27.4584 N   0  0  0  0  0  0  0  0  0  0  0  0
    2.5457  -12.0343   27.8599 N   0  0  0  0  0  0  0  0  0  0  0  0
    7.5289   -8.4745   23.2512 N   0  0  0  0  0  0  0  0  0  0  0  0
    5.4212  -12.9389   23.8720 O   0  0  0  0  0  0  0  0  0  0  0  0
    5.2543  -13.1172   25.3083 C   0  0  2  0  0  0  0  0  0  0  0  0
    3.4938   -8.9145   27.6294 N   0  0  0  0  0  0  0  0  0  0  0  0
    6.4600  -15.2622   25.2269 O   0  0  0  0  0  0  0  0  0  0  0  0
    5.2495  -14.6305   25.6599 C   0  0  1  0  0  0  0  0  0  0  0  0
    3.9589  -11.0498   25.5457 O   0  0  0  0  0  0  0  0  0  0  0  0
    5.1063  -14.8516   27.1607 C   0  0  1  0  0  0  0  0  0  0  0  0
    5.8732   -9.9371   24.8806 O   0  0  0  0  0  0  0  0  0  0  0  0
    3.7815  -14.1863   27.6658 C   0  0  0  0  0  0  0  0  0  0  0  0
    4.1905   -7.2230   23.0675 O   0  0  0  0  0  0  0  0  0  0  0  0
    3.8339  -12.6464   27.3296 C   0  0  1  0  0  0  0  0  0  0  0  0
    3.3359   -6.7544   25.7434 O   0  0  0  0  0  0  0  0  0  0  0  0
    3.9141  -12.4445   25.8055 C   0  0  2  0  0  0  0  0  0  0  0  0
    4.9774  -10.2021   26.0466 C   0  0  1  0  0  0  0  0  0  0  0  0
    5.2555   -9.2510   23.7107 C   0  0  2  0  0  0  0  0  0  0  0  0
    6.3219   -9.0999   22.6215 C   0  0  0  0  0  0  0  0  0  0  0  0
    4.7799   -7.8875   24.1598 C   0  0  2  0  0  0  0  0  0  0  0  0
    3.7837   -8.0432   25.3075 C   0  0  1  0  0  0  0  0  0  0  0  0
    4.4645   -8.7854   26.4838 C   0  0  1  0  0  0  0  0  0  0  0  0
  5  4  1  6  0  0  0
  5  8  1  0  0  0  0
  5 16  1  0  0  0  0
  8  7  1  1  0  0  0
  8 10  1  0  0  0  0
 10  1  1  6  0  0  0
 10 12  1  0  0  0  0
 11 18  1  0  0  0  0
 12 14  1  0  0  0  0
 14  2  1  6  0  0  0
 14 16  1  0  0  0  0
 16  9  1  1  0  0  0
 17  9  1  6  0  0  0
 17 11  1  0  0  0  0
 17 22  1  0  0  0  0
 18 19  1  6  0  0  0
 18 20  1  0  0  0  0
 19  3  1  0  0  0  0
 20 13  1  6  0  0  0
 20 21  1  0  0  0  0
 21 15  1  1  0  0  0
 21 22  1  0  0  0  0
 22  6  1  1  0  0  0
M  END
>  <CHROM.1>
-57.33077579,103.82999878,-51.15366891,4.76337396,-11.06940525,25.49959363
1.54747472,-0.87453662,2.80568795

>  <Name>
2f4s_lig

>  <RI>
0

>  <Rbt.Current_Directory>
/home/itssahil/PROJECTS/Mol_Feturizer/New_Systems/rnas/2f4s

>  <Rbt.Executable>
rbdock ($Id: //depot/dev/client3/rdock/2013.1/src/exe/rbdock.cxx#4 $)

>  <Rbt.Library>
libRbt.so (2013.1, Build901 2013/11/27)

>  <Rbt.Parameter_File>
/export/apps/rDock/src/rDock_2013.1_src/data/scripts/dock_solv.prm

>  <Rbt.Receptor>
prm/blind_docking_60.prm

>  <SCORE>
-2.56497

>  <SCORE.INTER>
-8.3846

>  <SCORE.INTER.CONST>
1

>  <SCORE.INTER.POLAR>
-0.679979

>  <SCORE.INTER.ROT>
3

>  <SCORE.INTER.SOLV>
17.5997

>  <SCORE.INTER.VDW>
-14.7897

>  <SCORE.INTER.norm>
-0.381118

>  <SCORE.INTRA>
4.50386

>  <SCORE.INTRA.DIHEDRAL>
4.59001

>  <SCORE.INTRA.DIHEDRAL.0>
1.67653

>  <SCORE.INTRA.POLAR>
0

>  <SCORE.INTRA.POLAR.0>
0

>  <SCORE.INTRA.REPUL>
0

>  <SCORE.INTRA.REPUL.0>
0

>  <SCORE.INTRA.SOLV>
4.05512

>  <SCORE.INTRA.SOLV.lig_0>
-76.6701

>  <SCORE.INTRA.VDW>
0.181299

>  <SCORE.INTRA.VDW.0>
-1.53273

>  <SCORE.INTRA.norm>
0.204721

>  <SCORE.RESTR>
1.31576

>  <SCORE.RESTR.CAVITY>
1.31576

>  <SCORE.RESTR.norm>
0.0598073

>  <SCORE.SYSTEM>
0

>  <SCORE.SYSTEM.CONST>
0

>  <SCORE.SYSTEM.DIHEDRAL>
0

>  <SCORE.SYSTEM.SOLV>
0

>  <SCORE.SYSTEM.norm>
0

>  <SCORE.heavy>
22

>  <SCORE.norm>
-0.11659

>  <RMSD>
33.767

$$$$
2f4s_lig
 OpenBabel11021811433D
libRbt.so/2013.1/901 2013/11/27
 22 23  0  0  0  0  0  0  0  0999 V2000
    2.6097  -15.6130   27.3713 N   0  0  0  0  0  0  0  0  0  0  0  0
    5.5609  -13.5579   23.8724 N   0  0  0  0  0  0  0  0  0  0  0  0
    9.2001   -8.7213   24.0586 N   0  0  0  0  0  0  0  0  0  0  0  0
    3.7378  -10.7993   27.6217 O   0  0  0  0  0  0  0  0  0  0  0  0
    3.4927  -11.9012   26.7005 C   0  0  2  0  0  0  0  0  0  0  0  0
    3.4008   -8.4294   25.4864 N   0  0  0  0  0  0  0  0  0  0  0  0
    2.0534  -13.0219   28.3540 O   0  0  0  0  0  0  0  0  0  0  0  0
    3.1854  -13.2007   27.4946 C   0  0  1  0  0  0  0  0  0  0  0  0
    4.9653  -10.9619   24.9806 O   0  0  0  0  0  0  0  0  0  0  0  0
    2.8947  -14.3678   26.5591 C   0  0  1  0  0  0  0  0  0  0  0  0
    6.9105   -9.7130   24.9409 O   0  0  0  0  0  0  0  0  0  0  0  0
    4.1216  -14.6021   25.6142 C   0  0  0  0  0  0  0  0  0  0  0  0
    6.4174   -8.2466   21.6104 O   0  0  0  0  0  0  0  0  0  0  0  0
    4.3833  -13.2801   24.7951 C   0  0  1  0  0  0  0  0  0  0  0  0
    4.2413   -7.1285   23.0680 O   0  0  0  0  0  0  0  0  0  0  0  0
    4.7375  -12.1296   25.7548 C   0  0  2  0  0  0  0  0  0  0  0  0
    5.5322   -9.7785   25.5142 C   0  0  1  0  0  0  0  0  0  0  0  0
    7.0090   -9.6262   23.4564 C   0  0  2  0  0  0  0  0  0  0  0  0
    8.4915   -9.5982   23.0720 C   0  0  0  0  0  0  0  0  0  0  0  0
    6.3366   -8.3464   23.0124 C   0  0  2  0  0  0  0  0  0  0  0  0
    4.8816   -8.3424   23.4779 C   0  0  1  0  0  0  0  0  0  0  0  0
    4.8338   -8.4631   25.0211 C   0  0  1  0  0  0  0  0  0  0  0  0
  5  4  1  1  0  0  0
  5  8  1  0  0  0  0
  5 16  1  0  0  0  0
  8  7  1  1  0  0  0
  8 10  1  0  0  0  0
 10  1  1  1  0  0  0
 10 12  1  0  0  0  0
 11 18  1  0  0  0  0
 12 14  1  0  0  0  0
 14  2  1  6  0  0  0
 14 16  1  0  0  0  0
 16  9  1  6  0  0  0
 17  9  1  6  0  0  0
 17 11  1  0  0  0  0
 17 22  1  0  0  0  0
 18 19  1  1  0  0  0
 18 20  1  0  0  0  0
 19  3  1  0  0  0  0
 20 13  1  6  0  0  0
 20 21  1  0  0  0  0
 21 15  1  1  0  0  0
 21 22  1  0  0  0  0
 22  6  1  6  0  0  0
M  END
>  <CHROM.1>
74.33438765,108.05660007,-40.64688063,4.95277462,-10.86456835,25.08084182
-2.19809214,0.62878997,-0.20392555

>  <Name>
2f4s_lig

>  <RI>
0

>  <Rbt.Current_Directory>
/home/itssahil/PROJECTS/Mol_Feturizer/New_Systems/rnas/2f4s

>  <Rbt.Executable>
rbdock ($Id: //depot/dev/client3/rdock/2013.1/src/exe/rbdock.cxx#4 $)

>  <Rbt.Library>
libRbt.so (2013.1, Build901 2013/11/27)

>  <Rbt.Parameter_File>
/export/apps/rDock/src/rDock_2013.1_src/data/scripts/dock_solv.prm

>  <Rbt.Receptor>
prm/blind_docking_60.prm

>  <SCORE>
0.00818072

>  <SCORE.INTER>
-4.84482

>  <SCORE.INTER.CONST>
1

>  <SCORE.INTER.POLAR>
0

>  <SCORE.INTER.ROT>
3

>  <SCORE.INTER.SOLV>
21.9965

>  <SCORE.INTER.VDW>
-16.1621

>  <SCORE.INTER.norm>
-0.220219

>  <SCORE.INTRA>
4.83498

>  <SCORE.INTRA.DIHEDRAL>
6.99642

>  <SCORE.INTRA.DIHEDRAL.0>
1.67653

>  <SCORE.INTRA.POLAR>
0

>  <SCORE.INTRA.POLAR.0>
0

>  <SCORE.INTRA.REPUL>
0

>  <SCORE.INTRA.REPUL.0>
0

>  <SCORE.INTRA.SOLV>
2.63192

>  <SCORE.INTRA.SOLV.lig_0>
-76.6701

>  <SCORE.INTRA.VDW>
0.0208041

>  <SCORE.INTRA.VDW.0>
-1.53273

>  <SCORE.INTRA.norm>
0.219772

>  <SCORE.RESTR>
0.0180184

>  <SCORE.RESTR.CAVITY>
0.0180184

>  <SCORE.RESTR.norm>
0.000819019

>  <SCORE.SYSTEM>
0

>  <SCORE.SYSTEM.CONST>
0

>  <SCORE.SYSTEM.DIHEDRAL>
0

>  <SCORE.SYSTEM.SOLV>
0

>  <SCORE.SYSTEM.norm>
0

>  <SCORE.heavy>
22

>  <SCORE.norm>
0.000371851

>  <RMSD>
33.793

$$$$
2f4s_lig
 OpenBabel11021811433D
libRbt.so/2013.1/901 2013/11/27
 22 23  0  0  0  0  0  0  0  0999 V2000
    4.5939  -16.3550   27.1410 N   0  0  0  0  0  0  0  0  0  0  0  0
    5.9538  -13.4197   23.3056 N   0  0  0  0  0  0  0  0  0  0  0  0
    9.3080  -10.2976   24.0378 N   0  0  0  0  0  0  0  0  0  0  0  0
    4.5519  -11.4334   27.6737 O   0  0  0  0  0  0  0  0  0  0  0  0
    4.3506  -12.5122   26.7153 C   0  0  2  0  0  0  0  0  0  0  0  0
    2.9619   -8.9604   24.9351 N   0  0  0  0  0  0  0  0  0  0  0  0
    3.7023  -14.0551   28.5210 O   0  0  0  0  0  0  0  0  0  0  0  0
    4.5821  -13.8857   27.4034 C   0  0  1  0  0  0  0  0  0  0  0  0
    5.0565  -11.1320   24.8166 O   0  0  0  0  0  0  0  0  0  0  0  0
    4.3499  -15.0386   26.4345 C   0  0  1  0  0  0  0  0  0  0  0  0
    6.6918   -9.5251   25.1145 O   0  0  0  0  0  0  0  0  0  0  0  0
    5.3098  -14.8934   25.2054 C   0  0  0  0  0  0  0  0  0  0  0  0
    6.5814   -8.1561   21.7087 O   0  0  0  0  0  0  0  0  0  0  0  0
    5.0238  -13.5089   24.5066 C   0  0  1  0  0  0  0  0  0  0  0  0
    3.9881   -7.4995   22.6856 O   0  0  0  0  0  0  0  0  0  0  0  0
    5.3255  -12.3566   25.4820 C   0  0  2  0  0  0  0  0  0  0  0  0
    5.2679   -9.8648   25.4134 C   0  0  1  0  0  0  0  0  0  0  0  0
    7.0587   -9.4081   23.6748 C   0  0  2  0  0  0  0  0  0  0  0  0
    8.5534   -9.0862   23.5823 C   0  0  0  0  0  0  0  0  0  0  0  0
    6.2501   -8.2816   23.0712 C   0  0  2  0  0  0  0  0  0  0  0  0
    4.7598   -8.5674   23.2476 C   0  0  1  0  0  0  0  0  0  0  0  0
    4.4368   -8.7081   24.7556 C   0  0  1  0  0  0  0  0  0  0  0  0
  5  4  1  1  0  0  0
  5  8  1  0  0  0  0
  5 16  1  0  0  0  0
  8  7  1  1  0  0  0
  8 10  1  0  0  0  0
 10  1  1  1  0  0  0
 10 12  1  0  0  0  0
 11 18  1  0  0  0  0
 12 14  1  0  0  0  0
 14  2  1  6  0  0  0
 14 16  1  0  0  0  0
 16  9  1  6  0  0  0
 17  9  1  6  0  0  0
 17 11  1  0  0  0  0
 17 22  1  0  0  0  0
 18 19  1  1  0  0  0
 18 20  1  0  0  0  0
 19  3  1  0  0  0  0
 20 13  1  6  0  0  0
 20 21  1  0  0  0  0
 21 15  1  1  0  0  0
 21 22  1  0  0  0  0
 22  6  1  6  0  0  0
M  END
>  <CHROM.1>
65.21168154,87.63689132,68.68740046,5.39031374,-11.18962867,24.97536848,-1.83816826
0.52626982,-0.41235034

>  <Name>
2f4s_lig

>  <RI>
0

>  <Rbt.Current_Directory>
/home/itssahil/PROJECTS/Mol_Feturizer/New_Systems/rnas/2f4s

>  <Rbt.Executable>
rbdock ($Id: //depot/dev/client3/rdock/2013.1/src/exe/rbdock.cxx#4 $)

>  <Rbt.Library>
libRbt.so (2013.1, Build901 2013/11/27)

>  <Rbt.Parameter_File>
/export/apps/rDock/src/rDock_2013.1_src/data/scripts/dock_solv.prm

>  <Rbt.Receptor>
prm/blind_docking_80.prm

>  <SCORE>
-6.95686

>  <SCORE.INTER>
-8.68082

>  <SCORE.INTER.CONST>
1

>  <SCORE.INTER.POLAR>
-0.882761

>  <SCORE.INTER.ROT>
3

>  <SCORE.INTER.SOLV>
26.5543

>  <SCORE.INTER.VDW>
-17.2961

>  <SCORE.INTER.norm>
-0.394583

>  <SCORE.INTRA>
1.19358

>  <SCORE.INTRA.DIHEDRAL>
1.94108

>  <SCORE.INTRA.DIHEDRAL.0>
1.67653

>  <SCORE.INTRA.POLAR>
0

>  <SCORE.INTRA.POLAR.0>
0

>  <SCORE.INTRA.REPUL>
0

>  <SCORE.INTRA.REPUL.0>
0

>  <SCORE.INTRA.SOLV>
0.0821607

>  <SCORE.INTRA.SOLV.lig_0>
-76.6701

>  <SCORE.INTRA.VDW>
0.181959

>  <SCORE.INTRA.VDW.0>
-1.53273

>  <SCORE.INTRA.norm>
0.0542536

>  <SCORE.RESTR>
0.53038

>  <SCORE.RESTR.CAVITY>
0.53038

>  <SCORE.RESTR.norm>
0.0241082

>  <SCORE.SYSTEM>
0

>  <SCORE.SYSTEM.CONST>
0

>  <SCORE.SYSTEM.DIHEDRAL>
0

>  <SCORE.SYSTEM.SOLV>
0

>  <SCORE.SYSTEM.norm>
0

>  <SCORE.heavy>
22

>  <SCORE.norm>
-0.316221

>  <RMSD>
33.827

$$$$
2f4s_lig
 OpenBabel11021811433D
libRbt.so/2013.1/901 2013/11/27
 22 23  0  0  0  0  0  0  0  0999 V2000
    4.5958  -16.3028   27.1197 N   0  0  0  0  0  0  0  0  0  0  0  0
    5.8510  -13.2083   23.3747 N   0  0  0  0  0  0  0  0  0  0  0  0
    8.4514   -8.2471   22.7327 N   0  0  0  0  0  0  0  0  0  0  0  0
    4.5015  -11.4056   27.8379 O   0  0  0  0  0  0  0  0  0  0  0  0
    4.2968  -12.4503   26.8431 C   0  0  2  0  0  0  0  0  0  0  0  0
    3.4566   -8.5661   25.9871 N   0  0  0  0  0  0  0  0  0  0  0  0
    3.6998  -14.0681   28.6004 O   0  0  0  0  0  0  0  0  0  0  0  0
    4.5576  -13.8454   27.4750 C   0  0  1  0  0  0  0  0  0  0  0  0
    4.9519  -10.9908   24.9859 O   0  0  0  0  0  0  0  0  0  0  0  0
    4.3229  -14.9642   26.4675 C   0  0  1  0  0  0  0  0  0  0  0  0
    6.7218   -9.6199   24.4086 O   0  0  0  0  0  0  0  0  0  0  0  0
    5.2591  -14.7605   25.2285 C   0  0  0  0  0  0  0  0  0  0  0  0
    5.1867   -8.1708   21.4037 O   0  0  0  0  0  0  0  0  0  0  0  0
    4.9435  -13.3547   24.5873 C   0  0  1  0  0  0  0  0  0  0  0  0
    3.4714   -7.2017   23.4601 O   0  0  0  0  0  0  0  0  0  0  0  0
    5.2479  -12.2358   25.6001 C   0  0  2  0  0  0  0  0  0  0  0  0
    5.5789   -9.7763   25.3582 C   0  0  1  0  0  0  0  0  0  0  0  0
    6.3751   -9.5193   22.9627 C   0  0  2  0  0  0  0  0  0  0  0  0
    7.6751   -9.3945   22.1622 C   0  0  0  0  0  0  0  0  0  0  0  0
    5.5269   -8.2828   22.7652 C   0  0  2  0  0  0  0  0  0  0  0  0
    4.2750   -8.3742   23.6360 C   0  0  1  0  0  0  0  0  0  0  0  0
    4.6894   -8.5057   25.1223 C   0  0  1  0  0  0  0  0  0  0  0  0
  5  4  1  1  0  0  0
  5  8  1  0  0  0  0
  5 16  1  0  0  0  0
  8  7  1  1  0  0  0
  8 10  1  0  0  0  0
 10  1  1  1  0  0  0
 10 12  1  0  0  0  0
 11 18  1  0  0  0  0
 12 14  1  0  0  0  0
 14  2  1  6  0  0  0
 14 16  1  0  0  0  0
 16  9  1  6  0  0  0
 17  9  1  6  0  0  0
 17 11  1  0  0  0  0
 17 22  1  0  0  0  0
 18 19  1  6  0  0  0
 18 20  1  0  0  0  0
 19  3  1  0  0  0  0
 20 13  1  6  0  0  0
 20 21  1  0  0  0  0
 21 15  1  1  0  0  0
 21 22  1  0  0  0  0
 22  6  1  1  0  0  0
M  END
>  <CHROM.1>
89.54348438,94.58442315,-53.82565158,5.15550803,-11.02298801,24.91678323
-1.84966460,0.88493490,-0.36667891

>  <Name>
2f4s_lig

>  <RI>
0

>  <Rbt.Current_Directory>
/home/itssahil/PROJECTS/Mol_Feturizer/New_Systems/rnas/2f4s

>  <Rbt.Executable>
rbdock ($Id: //depot/dev/client3/rdock/2013.1/src/exe/rbdock.cxx#4 $)

>  <Rbt.Library>
libRbt.so (2013.1, Build901 2013/11/27)

>  <Rbt.Parameter_File>
/export/apps/rDock/src/rDock_2013.1_src/data/scripts/dock_solv.prm

>  <Rbt.Receptor>
prm/blind_docking_60.prm

>  <SCORE>
0.603213

>  <SCORE.INTER>
-4.45765

>  <SCORE.INTER.CONST>
1

>  <SCORE.INTER.POLAR>
-0.899106

>  <SCORE.INTER.ROT>
3

>  <SCORE.INTER.SOLV>
23.402

>  <SCORE.INTER.VDW>
-13.3754

>  <SCORE.INTER.norm>
-0.202621

>  <SCORE.INTRA>
4.53422

>  <SCORE.INTRA.DIHEDRAL>
6.41528

>  <SCORE.INTRA.DIHEDRAL.0>
1.67653

>  <SCORE.INTRA.POLAR>
0

>  <SCORE.INTRA.POLAR.0>
0

>  <SCORE.INTRA.REPUL>
0

>  <SCORE.INTRA.REPUL.0>
0

>  <SCORE.INTRA.SOLV>
3.04759

>  <SCORE.INTRA.SOLV.lig_0>
-76.6701

>  <SCORE.INTRA.VDW>
-0.19722

>  <SCORE.INTRA.VDW.0>
-1.53273

>  <SCORE.INTRA.norm>
0.206101

>  <SCORE.RESTR>
0.526649

>  <SCORE.RESTR.CAVITY>
0.526649

>  <SCORE.RESTR.norm>
0.0239386

>  <SCORE.SYSTEM>
0

>  <SCORE.SYSTEM.CONST>
0

>  <SCORE.SYSTEM.DIHEDRAL>
0

>  <SCORE.SYSTEM.SOLV>
0

>  <SCORE.SYSTEM.norm>
0

>  <SCORE.heavy>
22

>  <SCORE.norm>
0.0274188

>  <RMSD>
33.844

$$$$
2f4s_lig
 OpenBabel11021811433D
libRbt.so/2013.1/901 2013/11/27
 22 23  0  0  0  0  0  0  0  0999 V2000
    4.7769  -16.4251   27.2596 N   0  0  0  0  0  0  0  0  0  0  0  0
    5.9495  -13.5573   23.3128 N   0  0  0  0  0  0  0  0  0  0  0  0
    9.2133  -10.1633   24.1478 N   0  0  0  0  0  0  0  0  0  0  0  0
    4.4894  -11.4967   27.6271 O   0  0  0  0  0  0  0  0  0  0  0  0
    4.3342  -12.6164   26.7077 C   0  0  2  0  0  0  0  0  0  0  0  0
    2.6850   -9.2780   24.6053 N   0  0  0  0  0  0  0  0  0  0  0  0
    3.7823  -14.1276   28.5714 O   0  0  0  0  0  0  0  0  0  0  0  0
    4.6418  -13.9521   27.4390 C   0  0  1  0  0  0  0  0  0  0  0  0
    4.9511  -11.2677   24.7560 O   0  0  0  0  0  0  0  0  0  0  0  0
    4.4596  -15.1477   26.5119 C   0  0  1  0  0  0  0  0  0  0  0  0
    6.4071   -9.5262   25.1949 O   0  0  0  0  0  0  0  0  0  0  0  0
    5.3993  -14.9961   25.2681 C   0  0  0  0  0  0  0  0  0  0  0  0
    6.5549   -8.2099   21.7698 O   0  0  0  0  0  0  0  0  0  0  0  0
    5.0366  -13.6524   24.5265 C   0  0  1  0  0  0  0  0  0  0  0  0
    3.8259   -7.7618   22.4496 O   0  0  0  0  0  0  0  0  0  0  0  0
    5.2884  -12.4537   25.4591 C   0  0  2  0  0  0  0  0  0  0  0  0
    4.9918   -9.9806   25.3462 C   0  0  1  0  0  0  0  0  0  0  0  0
    6.9172   -9.3952   23.8008 C   0  0  2  0  0  0  0  0  0  0  0  0
    8.3816   -8.9503   23.8625 C   0  0  0  0  0  0  0  0  0  0  0  0
    6.0892   -8.3473   23.0913 C   0  0  2  0  0  0  0  0  0  0  0  0
    4.6170   -8.7548   23.1126 C   0  0  1  0  0  0  0  0  0  0  0  0
    4.1450   -8.9051   24.5798 C   0  0  1  0  0  0  0  0  0  0  0  0
  5  4  1  1  0  0  0
  5  8  1  0  0  0  0
  5 16  1  0  0  0  0
  8  7  1  1  0  0  0
  8 10  1  0  0  0  0
 10  1  1  1  0  0  0
 10 12  1  0  0  0  0
 11 18  1  0  0  0  0
 12 14  1  0  0  0  0
 14  2  1  6  0  0  0
 14 16  1  0  0  0  0
 16  9  1  6  0  0  0
 17  9  1  6  0  0  0
 17 11  1  0  0  0  0
 17 22  1  0  0  0  0
 18 19  1  1  0  0  0
 18 20  1  0  0  0  0
 19  3  1  0  0  0  0
 20 13  1  6  0  0  0
 20 21  1  0  0  0  0
 21 15  1  1  0  0  0
 21 22  1  0  0  0  0
 22  6  1  6  0  0  0
M  END
>  <CHROM.1>
59.49713879,85.50041972,80.14477024,5.31182610,-11.28117957,24.97339198,-1.78200195
0.42203921,-0.46655260

>  <Name>
2f4s_lig

>  <RI>
0

>  <Rbt.Current_Directory>
/home/itssahil/PROJECTS/Mol_Feturizer/New_Systems/rnas/2f4s

>  <Rbt.Executable>
rbdock ($Id: //depot/dev/client3/rdock/2013.1/src/exe/rbdock.cxx#4 $)

>  <Rbt.Library>
libRbt.so (2013.1, Build901 2013/11/27)

>  <Rbt.Parameter_File>
/export/apps/rDock/src/rDock_2013.1_src/data/scripts/dock_solv.prm

>  <Rbt.Receptor>
prm/blind_docking_80.prm

>  <SCORE>
-8.03662

>  <SCORE.INTER>
-10.2793

>  <SCORE.INTER.CONST>
1

>  <SCORE.INTER.POLAR>
-0.917054

>  <SCORE.INTER.ROT>
3

>  <SCORE.INTER.SOLV>
27.1916

>  <SCORE.INTER.VDW>
-18.4599

>  <SCORE.INTER.norm>
-0.467243

>  <SCORE.INTRA>
1.57488

>  <SCORE.INTRA.DIHEDRAL>
2.49774

>  <SCORE.INTRA.DIHEDRAL.0>
1.67653

>  <SCORE.INTRA.POLAR>
0

>  <SCORE.INTRA.POLAR.0>
0

>  <SCORE.INTRA.REPUL>
0

>  <SCORE.INTRA.REPUL.0>
0

>  <SCORE.INTRA.SOLV>
-0.208168

>  <SCORE.INTRA.SOLV.lig_0>
-76.6701

>  <SCORE.INTRA.VDW>
0.430093

>  <SCORE.INTRA.VDW.0>
-1.53273

>  <SCORE.INTRA.norm>
0.0715855

>  <SCORE.RESTR>
0.667843

>  <SCORE.RESTR.CAVITY>
0.667843

>  <SCORE.RESTR.norm>
0.0303565

>  <SCORE.SYSTEM>
0

>  <SCORE.SYSTEM.CONST>
0

>  <SCORE.SYSTEM.DIHEDRAL>
0

>  <SCORE.SYSTEM.SOLV>
0

>  <SCORE.SYSTEM.norm>
0

>  <SCORE.heavy>
22

>  <SCORE.norm>
-0.365301

>  <RMSD>
33.932

$$$$
2f4s_lig
 OpenBabel11021811433D
libRbt.so/2013.1/901 2013/11/27
 22 23  0  0  0  0  0  0  0  0999 V2000
    4.7500  -16.3322   27.2728 N   0  0  0  0  0  0  0  0  0  0  0  0
    5.8491  -13.3482   23.3916 N   0  0  0  0  0  0  0  0  0  0  0  0
    8.5707  -10.0800   22.7540 N   0  0  0  0  0  0  0  0  0  0  0  0
    4.5169  -11.4160   27.8055 O   0  0  0  0  0  0  0  0  0  0  0  0
    4.3284  -12.5040   26.8549 C   0  0  2  0  0  0  0  0  0  0  0  0
    2.9821   -8.9696   25.8683 N   0  0  0  0  0  0  0  0  0  0  0  0
    3.8098  -14.0700   28.6826 O   0  0  0  0  0  0  0  0  0  0  0  0
    4.6421  -13.8652   27.5349 C   0  0  1  0  0  0  0  0  0  0  0  0
    4.9084  -11.0982   24.9324 O   0  0  0  0  0  0  0  0  0  0  0  0
    4.4257  -15.0286   26.5749 C   0  0  1  0  0  0  0  0  0  0  0  0
    6.4949   -9.4561   24.5694 O   0  0  0  0  0  0  0  0  0  0  0  0
    5.3351  -14.8448   25.3131 C   0  0  0  0  0  0  0  0  0  0  0  0
    5.0289   -8.1103   21.4831 O   0  0  0  0  0  0  0  0  0  0  0  0
    4.9662  -13.4749   24.6244 C   0  0  1  0  0  0  0  0  0  0  0  0
    3.0129   -7.5014   23.4003 O   0  0  0  0  0  0  0  0  0  0  0  0
    5.2523  -12.3091   25.5883 C   0  0  2  0  0  0  0  0  0  0  0  0
    5.3097   -9.8233   25.4018 C   0  0  1  0  0  0  0  0  0  0  0  0
    6.2654   -9.3403   23.1014 C   0  0  2  0  0  0  0  0  0  0  0  0
    7.5969   -8.9882   22.4311 C   0  0  0  0  0  0  0  0  0  0  0  0
    5.2610   -8.2344   22.8661 C   0  0  2  0  0  0  0  0  0  0  0  0
    3.9656   -8.5497   23.6120 C   0  0  1  0  0  0  0  0  0  0  0  0
    4.2629   -8.6880   25.1255 C   0  0  1  0  0  0  0  0  0  0  0  0
  5  4  1  1  0  0  0
  5  8  1  0  0  0  0
  5 16  1  0  0  0  0
  8  7  1  1  0  0  0
  8 10  1  0  0  0  0
 10  1  1  1  0  0  0
 10 12  1  0  0  0  0
 11 18  1  0  0  0  0
 12 14  1  0  0  0  0
 14  2  1  6  0  0  0
 14 16  1  0  0  0  0
 16  9  1  6  0  0  0
 17  9  1  6  0  0  0
 17 11  1  0  0  0  0
 17 22  1  0  0  0  0
 18 19  1  6  0  0  0
 18 20  1  0  0  0  0
 19  3  1  0  0  0  0
 20 13  1  6  0  0  0
 20 21  1  0  0  0  0
 21 15  1  1  0  0  0
 21 22  1  0  0  0  0
 22  6  1  1  0  0  0
M  END
>  <CHROM.1>
77.46949941,99.40895367,59.09456118,5.05937628,-11.14843039,24.96472856,-1.73074471
0.77478792,-0.48076856

>  <Name>
2f4s_lig

>  <RI>
0

>  <Rbt.Current_Directory>
/home/itssahil/PROJECTS/Mol_Feturizer/New_Systems/rnas/2f4s

>  <Rbt.Executable>
rbdock ($Id: //depot/dev/client3/rdock/2013.1/src/exe/rbdock.cxx#4 $)

>  <Rbt.Library>
libRbt.so (2013.1, Build901 2013/11/27)

>  <Rbt.Parameter_File>
/export/apps/rDock/src/rDock_2013.1_src/data/scripts/dock_solv.prm

>  <Rbt.Receptor>
prm/blind_docking_60.prm

>  <SCORE>
-4.03209

>  <SCORE.INTER>
-8.11956

>  <SCORE.INTER.CONST>
1

>  <SCORE.INTER.POLAR>
-0.942198

>  <SCORE.INTER.ROT>
3

>  <SCORE.INTER.SOLV>
22.3893

>  <SCORE.INTER.VDW>
-15.3355

>  <SCORE.INTER.norm>
-0.369071

>  <SCORE.INTRA>
2.94927

>  <SCORE.INTRA.DIHEDRAL>
5.00601

>  <SCORE.INTRA.DIHEDRAL.0>
1.67653

>  <SCORE.INTRA.POLAR>
0

>  <SCORE.INTRA.POLAR.0>
0

>  <SCORE.INTRA.REPUL>
0

>  <SCORE.INTRA.REPUL.0>
0

>  <SCORE.INTRA.SOLV>
1.13641

>  <SCORE.INTRA.SOLV.lig_0>
-76.6701

>  <SCORE.INTRA.VDW>
-0.121941

>  <SCORE.INTRA.VDW.0>
-1.53273

>  <SCORE.INTRA.norm>
0.134058

>  <SCORE.RESTR>
1.1382

>  <SCORE.RESTR.CAVITY>
1.1382

>  <SCORE.RESTR.norm>
0.0517364

>  <SCORE.SYSTEM>
0

>  <SCORE.SYSTEM.CONST>
0

>  <SCORE.SYSTEM.DIHEDRAL>
0

>  <SCORE.SYSTEM.SOLV>
0

>  <SCORE.SYSTEM.norm>
0

>  <SCORE.heavy>
22

>  <SCORE.norm>
-0.183277

>  <RMSD>
33.950

$$$$
2f4s_lig
 OpenBabel11021811433D
libRbt.so/2013.1/901 2013/11/27
 22 23  0  0  0  0  0  0  0  0999 V2000
    4.7898  -16.4830   27.2506 N   0  0  0  0  0  0  0  0  0  0  0  0
    5.9578  -13.5862   23.3238 N   0  0  0  0  0  0  0  0  0  0  0  0
    9.1922  -10.1457   24.2055 N   0  0  0  0  0  0  0  0  0  0  0  0
    4.4968  -11.5576   27.6529 O   0  0  0  0  0  0  0  0  0  0  0  0
    4.3426  -12.6710   26.7257 C   0  0  2  0  0  0  0  0  0  0  0  0
    2.6725   -9.3365   24.6831 N   0  0  0  0  0  0  0  0  0  0  0  0
    3.7930  -14.1959   28.5788 O   0  0  0  0  0  0  0  0  0  0  0  0
    4.6519  -14.0115   27.4474 C   0  0  1  0  0  0  0  0  0  0  0  0
    4.9574  -11.3079   24.7834 O   0  0  0  0  0  0  0  0  0  0  0  0
    4.4707  -15.2007   26.5120 C   0  0  1  0  0  0  0  0  0  0  0  0
    6.4053   -9.5574   25.2129 O   0  0  0  0  0  0  0  0  0  0  0  0
    5.4099  -15.0393   25.2691 C   0  0  0  0  0  0  0  0  0  0  0  0
    6.4886   -8.2141   21.7962 O   0  0  0  0  0  0  0  0  0  0  0  0
    5.0454  -13.6909   24.5370 C   0  0  1  0  0  0  0  0  0  0  0  0
    3.7669   -7.7944   22.5217 O   0  0  0  0  0  0  0  0  0  0  0  0
    5.2961  -12.4985   25.4780 C   0  0  2  0  0  0  0  0  0  0  0  0
    4.9964  -10.0250   25.3827 C   0  0  1  0  0  0  0  0  0  0  0  0
    6.8925   -9.4116   23.8121 C   0  0  2  0  0  0  0  0  0  0  0  0
    8.3539   -8.9547   23.8545 C   0  0  0  0  0  0  0  0  0  0  0  0
    6.0447   -8.3654   23.1236 C   0  0  2  0  0  0  0  0  0  0  0  0
    4.5765   -8.7857   23.1647 C   0  0  1  0  0  0  0  0  0  0  0  0
    4.1287   -8.9509   24.6378 C   0  0  1  0  0  0  0  0  0  0  0  0
  5  4  1  1  0  0  0
  5  8  1  0  0  0  0
  5 16  1  0  0  0  0
  8  7  1  1  0  0  0
  8 10  1  0  0  0  0
 10  1  1  1  0  0  0
 10 12  1  0  0  0  0
 11 18  1  0  0  0  0
 12 14  1  0  0  0  0
 14  2  1  6  0  0  0
 14 16  1  0  0  0  0
 16  9  1  6  0  0  0
 17  9  1  6  0  0  0
 17 11  1  0  0  0  0
 17 22  1  0  0  0  0
 18 19  1  1  0  0  0
 18 20  1  0  0  0  0
 19  3  1  0  0  0  0
 20 13  1  6  0  0  0
 20 21  1  0  0  0  0
 21 15  1  1  0  0  0
 21 22  1  0  0  0  0
 22  6  1  6  0  0  0
M  END
>  <CHROM.1>
59.47787221,86.48048219,76.53493584,5.30203776,-11.31835981,24.99872819,-1.77533289
0.42324148,-0.46201874

>  <Name>
2f4s_lig

>  <RI>
0

>  <Rbt.Current_Directory>
/home/itssahil/PROJECTS/Mol_Feturizer/New_Systems/rnas/2f4s

>  <Rbt.Executable>
rbdock ($Id: //depot/dev/client3/rdock/2013.1/src/exe/rbdock.cxx#4 $)

>  <Rbt.Library>
libRbt.so (2013.1, Build901 2013/11/27)

>  <Rbt.Parameter_File>
/export/apps/rDock/src/rDock_2013.1_src/data/scripts/dock_solv.prm

>  <Rbt.Receptor>
prm/blind_docking_80.prm

>  <SCORE>
-7.92529

>  <SCORE.INTER>
-10.0643

>  <SCORE.INTER.CONST>
1

>  <SCORE.INTER.POLAR>
-0.926345

>  <SCORE.INTER.ROT>
3

>  <SCORE.INTER.SOLV>
27.2089

>  <SCORE.INTER.VDW>
-18.2913

>  <SCORE.INTER.norm>
-0.457466

>  <SCORE.INTRA>
1.48508

>  <SCORE.INTRA.DIHEDRAL>
2.26444

>  <SCORE.INTRA.DIHEDRAL.0>
1.67653

>  <SCORE.INTRA.POLAR>
0

>  <SCORE.INTRA.POLAR.0>
0

>  <SCORE.INTRA.REPUL>
0

>  <SCORE.INTRA.REPUL.0>
0

>  <SCORE.INTRA.SOLV>
-0.156011

>  <SCORE.INTRA.SOLV.lig_0>
-76.6701

>  <SCORE.INTRA.VDW>
0.430864

>  <SCORE.INTRA.VDW.0>
-1.53273

>  <SCORE.INTRA.norm>
0.0675036

>  <SCORE.RESTR>
0.653894

>  <SCORE.RESTR.CAVITY>
0.653894

>  <SCORE.RESTR.norm>
0.0297225

>  <SCORE.SYSTEM>
0

>  <SCORE.SYSTEM.CONST>
0

>  <SCORE.SYSTEM.DIHEDRAL>
0

>  <SCORE.SYSTEM.SOLV>
0

>  <SCORE.SYSTEM.norm>
0

>  <SCORE.heavy>
22

>  <SCORE.norm>
-0.36024

>  <RMSD>
33.955

$$$$
2f4s_lig
 OpenBabel11021811433D
libRbt.so/2013.1/901 2013/11/27
 22 23  0  0  0  0  0  0  0  0999 V2000
    4.9775  -16.3758   27.3727 N   0  0  0  0  0  0  0  0  0  0  0  0
    5.9027  -13.5956   23.2996 N   0  0  0  0  0  0  0  0  0  0  0  0
    9.1943   -9.5436   22.9278 N   0  0  0  0  0  0  0  0  0  0  0  0
    4.3718  -11.4660   27.5553 O   0  0  0  0  0  0  0  0  0  0  0  0
    4.2775  -12.6287   26.6824 C   0  0  2  0  0  0  0  0  0  0  0  0
    2.6656   -9.2445   24.0789 N   0  0  0  0  0  0  0  0  0  0  0  0
    3.8527  -14.0980   28.6118 O   0  0  0  0  0  0  0  0  0  0  0  0
    4.6826  -13.9117   27.4592 C   0  0  1  0  0  0  0  0  0  0  0  0
    4.7766  -11.3208   24.6703 O   0  0  0  0  0  0  0  0  0  0  0  0
    4.5662  -15.1522   26.5820 C   0  0  1  0  0  0  0  0  0  0  0  0
    6.2446   -9.6226   25.2238 O   0  0  0  0  0  0  0  0  0  0  0  0
    5.4762  -14.9889   25.3177 C   0  0  0  0  0  0  0  0  0  0  0  0
    6.9564   -8.5278   21.7916 O   0  0  0  0  0  0  0  0  0  0  0  0
    5.0154  -13.7021   24.5311 C   0  0  1  0  0  0  0  0  0  0  0  0
    4.1857   -7.9167   22.0359 O   0  0  0  0  0  0  0  0  0  0  0  0
    5.2010  -12.4537   25.4127 C   0  0  2  0  0  0  0  0  0  0  0  0
    4.8001  -10.0029   25.1891 C   0  0  1  0  0  0  0  0  0  0  0  0
    6.9573   -9.6008   23.9152 C   0  0  2  0  0  0  0  0  0  0  0  0
    8.4190   -9.2190   24.1680 C   0  0  0  0  0  0  0  0  0  0  0  0
    6.2978   -8.5625   23.0353 C   0  0  2  0  0  0  0  0  0  0  0  0
    4.8183   -8.9015   22.8614 C   0  0  1  0  0  0  0  0  0  0  0  0
    4.1317   -8.9397   24.2488 C   0  0  1  0  0  0  0  0  0  0  0  0
  5  4  1  1  0  0  0
  5  8  1  0  0  0  0
  5 16  1  0  0  0  0
  8  7  1  1  0  0  0
  8 10  1  0  0  0  0
 10  1  1  1  0  0  0
 10 12  1  0  0  0  0
 11 18  1  0  0  0  0
 12 14  1  0  0  0  0
 14  2  1  6  0  0  0
 14 16  1  0  0  0  0
 16  9  1  6  0  0  0
 17  9  1  6  0  0  0
 17 11  1  0  0  0  0
 17 22  1  0  0  0  0
 18 19  1  1  0  0  0
 18 20  1  0  0  0  0
 19  3  1  0  0  0  0
 20 13  1  6  0  0  0
 20 21  1  0  0  0  0
 21 15  1  6  0  0  0
 21 22  1  0  0  0  0
 22  6  1  6  0  0  0
M  END
>  <CHROM.1>
62.55225827,72.67804976,165.52554369,5.35117742,-11.31928802,24.86274861
-1.81283798,0.45459659,-0.49646959

>  <Name>
2f4s_lig

>  <RI>
8.9913e+06

>  <Rbt.Current_Directory>
/home/itssahil/PROJECTS/Mol_Feturizer/New_Systems/rnas/2f4s

>  <Rbt.Executable>
rbdock ($Id: //depot/dev/client3/rdock/2013.1/src/exe/rbdock.cxx#4 $)

>  <Rbt.Library>
libRbt.so (2013.1, Build901 2013/11/27)

>  <Rbt.Parameter_File>
/export/apps/rDock/src/rDock_2013.1_src/data/scripts/dock_solv.prm

>  <Rbt.Receptor>
prm/blind_docking_40.prm

>  <SCORE>
-11.3686

>  <SCORE.INTER>
-12.6931

>  <SCORE.INTER.CONST>
1

>  <SCORE.INTER.POLAR>
-0.914382

>  <SCORE.INTER.ROT>
3

>  <SCORE.INTER.SOLV>
23.9421

>  <SCORE.INTER.VDW>
-18.9948

>  <SCORE.INTER.norm>
-0.576959

>  <SCORE.INTRA>
0.814264

>  <SCORE.INTRA.DIHEDRAL>
-0.0328348

>  <SCORE.INTRA.DIHEDRAL.0>
1.67653

>  <SCORE.INTRA.POLAR>
0

>  <SCORE.INTRA.POLAR.0>
0

>  <SCORE.INTRA.REPUL>
0

>  <SCORE.INTRA.REPUL.0>
0

>  <SCORE.INTRA.SOLV>
0.674505

>  <SCORE.INTRA.SOLV.lig_0>
-76.6701

>  <SCORE.INTRA.VDW>
0.493428

>  <SCORE.INTRA.VDW.0>
-1.53273

>  <SCORE.INTRA.norm>
0.037012

>  <SCORE.RESTR>
0.510264

>  <SCORE.RESTR.CAVITY>
0.510264

>  <SCORE.RESTR.norm>
0.0231938

>  <SCORE.SYSTEM>
0

>  <SCORE.SYSTEM.CONST>
0

>  <SCORE.SYSTEM.DIHEDRAL>
0

>  <SCORE.SYSTEM.SOLV>
0

>  <SCORE.SYSTEM.norm>
0

>  <SCORE.heavy>
22

>  <SCORE.norm>
-0.516754

>  <RMSD>
33.987

$$$$
2f4s_lig
 OpenBabel11021811433D
libRbt.so/2013.1/901 2013/11/27
 22 23  0  0  0  0  0  0  0  0999 V2000
    4.3886  -16.0941   27.4821 N   0  0  0  0  0  0  0  0  0  0  0  0
    2.9108  -11.3598   26.7214 N   0  0  0  0  0  0  0  0  0  0  0  0
    8.5818   -9.7977   21.4872 N   0  0  0  0  0  0  0  0  0  0  0  0
    5.7879  -13.7093   23.3758 O   0  0  0  0  0  0  0  0  0  0  0  0
    5.4728  -13.5312   24.7871 C   0  0  2  0  0  0  0  0  0  0  0  0
    3.3701   -8.6921   25.4164 N   0  0  0  0  0  0  0  0  0  0  0  0
    6.1360  -15.8517   25.2737 O   0  0  0  0  0  0  0  0  0  0  0  0
    5.0808  -14.8942   25.4212 C   0  0  1  0  0  0  0  0  0  0  0  0
    4.6924  -11.2312   24.4561 O   0  0  0  0  0  0  0  0  0  0  0  0
    4.7735  -14.7480   26.9065 C   0  0  1  0  0  0  0  0  0  0  0  0
    6.7543  -10.2220   24.7306 O   0  0  0  0  0  0  0  0  0  0  0  0
    3.6101  -13.7180   27.1034 C   0  0  0  0  0  0  0  0  0  0  0  0
    6.5890   -8.0791   21.7530 O   0  0  0  0  0  0  0  0  0  0  0  0
    4.0533  -12.3367   26.4850 C   0  0  1  0  0  0  0  0  0  0  0  0
    4.4648   -7.0386   23.3391 O   0  0  0  0  0  0  0  0  0  0  0  0
    4.2969  -12.4926   24.9729 C   0  0  2  0  0  0  0  0  0  0  0  0
    5.3484  -10.2471   25.2358 C   0  0  1  0  0  0  0  0  0  0  0  0
    6.9390   -9.8541   23.2983 C   0  0  2  0  0  0  0  0  0  0  0  0
    8.4347   -9.9144   22.9735 C   0  0  0  0  0  0  0  0  0  0  0  0
    6.4249   -8.4453   23.1024 C   0  0  2  0  0  0  0  0  0  0  0  0
    4.9555   -8.3728   23.5140 C   0  0  1  0  0  0  0  0  0  0  0  0
    4.8147   -8.7911   24.9983 C   0  0  1  0  0  0  0  0  0  0  0  0
  5  4  1  6  0  0  0
  5  8  1  0  0  0  0
  5 16  1  0  0  0  0
  8  7  1  1  0  0  0
  8 10  1  0  0  0  0
 10  1  1  6  0  0  0
 10 12  1  0  0  0  0
 11 18  1  0  0  0  0
 12 14  1  0  0  0  0
 14  2  1  6  0  0  0
 14 16  1  0  0  0  0
 16  9  1  1  0  0  0
 17  9  1  6  0  0  0
 17 11  1  0  0  0  0
 17 22  1  0  0  0  0
 18 19  1  1  0  0  0
 18 20  1  0  0  0  0
 19  3  1  0  0  0  0
 20 13  1  6  0  0  0
 20 21  1  0  0  0  0
 21 15  1  1  0  0  0
 21 22  1  0  0  0  0
 22  6  1  6  0  0  0
M  END
>  <CHROM.1>
-89.58707996,108.56631841,169.54272184,5.37742055,-11.32414804,24.63513166
1.85714919,-0.68373050,2.84150263

>  <Name>
2f4s_lig

>  <RI>
0

>  <Rbt.Current_Directory>
/home/itssahil/PROJECTS/Mol_Feturizer/New_Systems/rnas/2f4s

>  <Rbt.Executable>
rbdock ($Id: //depot/dev/client3/rdock/2013.1/src/exe/rbdock.cxx#4 $)

>  <Rbt.Library>
libRbt.so (2013.1, Build901 2013/11/27)

>  <Rbt.Parameter_File>
/export/apps/rDock/src/rDock_2013.1_src/data/scripts/dock_solv.prm

>  <Rbt.Receptor>
prm/blind_docking_60.prm

>  <SCORE>
-2.48003

>  <SCORE.INTER>
-11.4361

>  <SCORE.INTER.CONST>
1

>  <SCORE.INTER.POLAR>
-0.650309

>  <SCORE.INTER.ROT>
3

>  <SCORE.INTER.SOLV>
15.1422

>  <SCORE.INTER.VDW>
-16.1037

>  <SCORE.INTER.norm>
-0.519821

>  <SCORE.INTRA>
7.78692

>  <SCORE.INTRA.DIHEDRAL>
8.71008

>  <SCORE.INTRA.DIHEDRAL.0>
1.67653

>  <SCORE.INTRA.POLAR>
0

>  <SCORE.INTRA.POLAR.0>
0

>  <SCORE.INTRA.REPUL>
0

>  <SCORE.INTRA.REPUL.0>
0

>  <SCORE.INTRA.SOLV>
4.09442

>  <SCORE.INTRA.SOLV.lig_0>
-76.6701

>  <SCORE.INTRA.VDW>
1.38467

>  <SCORE.INTRA.VDW.0>
-1.53273

>  <SCORE.INTRA.norm>
0.353951

>  <SCORE.RESTR>
1.16911

>  <SCORE.RESTR.CAVITY>
1.16911

>  <SCORE.RESTR.norm>
0.0531414

>  <SCORE.SYSTEM>
0

>  <SCORE.SYSTEM.CONST>
0

>  <SCORE.SYSTEM.DIHEDRAL>
0

>  <SCORE.SYSTEM.SOLV>
0

>  <SCORE.SYSTEM.norm>
0

>  <SCORE.heavy>
22

>  <SCORE.norm>
-0.112729

>  <RMSD>
34.005

$$$$
2f4s_lig
 OpenBabel11021811433D
libRbt.so/2013.1/901 2013/11/27
 22 23  0  0  0  0  0  0  0  0999 V2000
    4.9978  -16.4161   27.3780 N   0  0  0  0  0  0  0  0  0  0  0  0
    5.9350  -13.6157   23.3215 N   0  0  0  0  0  0  0  0  0  0  0  0
    9.1625   -9.4999   22.9848 N   0  0  0  0  0  0  0  0  0  0  0  0
    4.3029  -11.5178   27.5554 O   0  0  0  0  0  0  0  0  0  0  0  0
    4.2423  -12.6811   26.6803 C   0  0  2  0  0  0  0  0  0  0  0  0
    2.6213   -9.3127   24.0520 N   0  0  0  0  0  0  0  0  0  0  0  0
    3.8145  -14.1597   28.6018 O   0  0  0  0  0  0  0  0  0  0  0  0
    4.6583  -13.9576   27.4620 C   0  0  1  0  0  0  0  0  0  0  0  0
    4.7485  -11.3625   24.6769 O   0  0  0  0  0  0  0  0  0  0  0  0
    4.5770  -15.1990   26.5821 C   0  0  1  0  0  0  0  0  0  0  0  0
    6.1874   -9.6460   25.2498 O   0  0  0  0  0  0  0  0  0  0  0  0
    5.5028  -15.0184   25.3318 C   0  0  0  0  0  0  0  0  0  0  0  0
    6.9362   -8.5460   21.8271 O   0  0  0  0  0  0  0  0  0  0  0  0
    5.0313  -13.7390   24.5394 C   0  0  1  0  0  0  0  0  0  0  0  0
    4.1549   -7.9686   22.0299 O   0  0  0  0  0  0  0  0  0  0  0  0
    5.1816  -12.4885   25.4247 C   0  0  2  0  0  0  0  0  0  0  0  0
    4.7483  -10.0438   25.1944 C   0  0  1  0  0  0  0  0  0  0  0  0
    6.9190   -9.6168   23.9518 C   0  0  2  0  0  0  0  0  0  0  0  0
    8.3721   -9.2170   24.2256 C   0  0  0  0  0  0  0  0  0  0  0  0
    6.2598   -8.5875   23.0611 C   0  0  2  0  0  0  0  0  0  0  0  0
    4.7874   -8.9447   22.8658 C   0  0  1  0  0  0  0  0  0  0  0  0
    4.0809   -8.9899   24.2431 C   0  0  1  0  0  0  0  0  0  0  0  0
  5  4  1  1  0  0  0
  5  8  1  0  0  0  0
  5 16  1  0  0  0  0
  8  7  1  1  0  0  0
  8 10  1  0  0  0  0
 10  1  1  1  0  0  0
 10 12  1  0  0  0  0
 11 18  1  0  0  0  0
 12 14  1  0  0  0  0
 14  2  1  6  0  0  0
 14 16  1  0  0  0  0
 16  9  1  6  0  0  0
 17  9  1  6  0  0  0
 17 11  1  0  0  0  0
 17 22  1  0  0  0  0
 18 19  1  1  0  0  0
 18 20  1  0  0  0  0
 19  3  1  0  0  0  0
 20 13  1  6  0  0  0
 20 21  1  0  0  0  0
 21 15  1  6  0  0  0
 21 22  1  0  0  0  0
 22  6  1  6  0  0  0
M  END
>  <CHROM.1>
62.93327183,72.37471774,166.98377436,5.32565286,-11.35363635,24.87495570
-1.80618864,0.43623208,-0.49940716

>  <Name>
2f4s_lig

>  <RI>
8.9913e+06

>  <Rbt.Current_Directory>
/home/itssahil/PROJECTS/Mol_Feturizer/New_Systems/rnas/2f4s

>  <Rbt.Executable>
rbdock ($Id: //depot/dev/client3/rdock/2013.1/src/exe/rbdock.cxx#4 $)

>  <Rbt.Library>
libRbt.so (2013.1, Build901 2013/11/27)

>  <Rbt.Parameter_File>
/export/apps/rDock/src/rDock_2013.1_src/data/scripts/dock_solv.prm

>  <Rbt.Receptor>
prm/blind_docking_40.prm

>  <SCORE>
-11.3799

>  <SCORE.INTER>
-12.6588

>  <SCORE.INTER.CONST>
1

>  <SCORE.INTER.POLAR>
-0.925867

>  <SCORE.INTER.ROT>
3

>  <SCORE.INTER.SOLV>
24.0248

>  <SCORE.INTER.VDW>
-18.9612

>  <SCORE.INTER.norm>
-0.5754

>  <SCORE.INTRA>
0.778924

>  <SCORE.INTRA.DIHEDRAL>
-0.188056

>  <SCORE.INTRA.DIHEDRAL.0>
1.67653

>  <SCORE.INTRA.POLAR>
0

>  <SCORE.INTRA.POLAR.0>
0

>  <SCORE.INTRA.REPUL>
0

>  <SCORE.INTRA.REPUL.0>
0

>  <SCORE.INTRA.SOLV>
0.714213

>  <SCORE.INTRA.SOLV.lig_0>
-76.6701

>  <SCORE.INTRA.VDW>
0.515846

>  <SCORE.INTRA.VDW.0>
-1.53273

>  <SCORE.INTRA.norm>
0.0354056

>  <SCORE.RESTR>
0.499988

>  <SCORE.RESTR.CAVITY>
0.499988

>  <SCORE.RESTR.norm>
0.0227267

>  <SCORE.SYSTEM>
0

>  <SCORE.SYSTEM.CONST>
0

>  <SCORE.SYSTEM.DIHEDRAL>
0

>  <SCORE.SYSTEM.SOLV>
0

>  <SCORE.SYSTEM.norm>
0

>  <SCORE.heavy>
22

>  <SCORE.norm>
-0.517267

>  <RMSD>
34.021

$$$$
2f4s_lig
 OpenBabel11021811433D
libRbt.so/2013.1/901 2013/11/27
 22 23  0  0  0  0  0  0  0  0999 V2000
    5.0142  -16.4630   27.3848 N   0  0  0  0  0  0  0  0  0  0  0  0
    5.9246  -13.6459   23.3337 N   0  0  0  0  0  0  0  0  0  0  0  0
    9.1386   -9.5173   22.9376 N   0  0  0  0  0  0  0  0  0  0  0  0
    4.3718  -11.5592   27.6028 O   0  0  0  0  0  0  0  0  0  0  0  0
    4.2874  -12.7162   26.7212 C   0  0  2  0  0  0  0  0  0  0  0  0
    2.6199   -9.3501   24.1782 N   0  0  0  0  0  0  0  0  0  0  0  0
    3.8707  -14.2028   28.6390 O   0  0  0  0  0  0  0  0  0  0  0  0
    4.7009  -14.0018   27.4891 C   0  0  1  0  0  0  0  0  0  0  0  0
    4.7796  -11.3896   24.7195 O   0  0  0  0  0  0  0  0  0  0  0  0
    4.5950  -15.2366   26.6025 C   0  0  1  0  0  0  0  0  0  0  0  0
    6.2214   -9.6681   25.2697 O   0  0  0  0  0  0  0  0  0  0  0  0
    5.5055  -15.0572   25.3408 C   0  0  0  0  0  0  0  0  0  0  0  0
    6.8634   -8.5259   21.8391 O   0  0  0  0  0  0  0  0  0  0  0  0
    5.0363  -13.7680   24.5631 C   0  0  1  0  0  0  0  0  0  0  0  0
    4.0848   -7.9725   22.1278 O   0  0  0  0  0  0  0  0  0  0  0  0
    5.2114  -12.5248   25.4542 C   0  0  2  0  0  0  0  0  0  0  0  0
    4.7844  -10.0766   25.2512 C   0  0  1  0  0  0  0  0  0  0  0  0
    6.9152   -9.6194   23.9516 C   0  0  2  0  0  0  0  0  0  0  0  0
    8.3725   -9.2111   24.1881 C   0  0  0  0  0  0  0  0  0  0  0  0
    6.2230   -8.5859   23.0914 C   0  0  2  0  0  0  0  0  0  0  0  0
    4.7483   -8.9525   22.9345 C   0  0  1  0  0  0  0  0  0  0  0  0
    4.0820   -9.0179   24.3309 C   0  0  1  0  0  0  0  0  0  0  0  0
  5  4  1  1  0  0  0
  5  8  1  0  0  0  0
  5 16  1  0  0  0  0
  8  7  1  1  0  0  0
  8 10  1  0  0  0  0
 10  1  1  1  0  0  0
 10 12  1  0  0  0  0
 11 18  1  0  0  0  0
 12 14  1  0  0  0  0
 14  2  1  6  0  0  0
 14 16  1  0  0  0  0
 16  9  1  6  0  0  0
 17  9  1  6  0  0  0
 17 11  1  0  0  0  0
 17 22  1  0  0  0  0
 18 19  1  1  0  0  0
 18 20  1  0  0  0  0
 19  3  1  0  0  0  0
 20 13  1  6  0  0  0
 20 21  1  0  0  0  0
 21 15  1  6  0  0  0
 21 22  1  0  0  0  0
 22  6  1  6  0  0  0
M  END
>  <CHROM.1>
62.12587651,73.99313252,165.12380699,5.33147632,-11.37770786,24.90749053
-1.80003602,0.45733257,-0.49312028

>  <Name>
2f4s_lig

>  <RI>
8.9913e+06

>  <Rbt.Current_Directory>
/home/itssahil/PROJECTS/Mol_Feturizer/New_Systems/rnas/2f4s

>  <Rbt.Executable>
rbdock ($Id: //depot/dev/client3/rdock/2013.1/src/exe/rbdock.cxx#4 $)

>  <Rbt.Library>
libRbt.so (2013.1, Build901 2013/11/27)

>  <Rbt.Parameter_File>
/export/apps/rDock/src/rDock_2013.1_src/data/scripts/dock_solv.prm

>  <Rbt.Receptor>
prm/blind_docking_40.prm

>  <SCORE>
-11.2312

>  <SCORE.INTER>
-12.6242

>  <SCORE.INTER.CONST>
1

>  <SCORE.INTER.POLAR>
-0.926326

>  <SCORE.INTER.ROT>
3

>  <SCORE.INTER.SOLV>
23.7879

>  <SCORE.INTER.VDW>
-18.8577

>  <SCORE.INTER.norm>
-0.573829

>  <SCORE.INTRA>
0.910045

>  <SCORE.INTRA.DIHEDRAL>
0.14981

>  <SCORE.INTRA.DIHEDRAL.0>
1.67653

>  <SCORE.INTRA.POLAR>
0

>  <SCORE.INTRA.POLAR.0>
0

>  <SCORE.INTRA.REPUL>
0

>  <SCORE.INTRA.REPUL.0>
0

>  <SCORE.INTRA.SOLV>
0.673025

>  <SCORE.INTRA.SOLV.lig_0>
-76.6701

>  <SCORE.INTRA.VDW>
0.498627

>  <SCORE.INTRA.VDW.0>
-1.53273

>  <SCORE.INTRA.norm>
0.0413657

>  <SCORE.RESTR>
0.482948

>  <SCORE.RESTR.CAVITY>
0.482948

>  <SCORE.RESTR.norm>
0.0219522

>  <SCORE.SYSTEM>
0

>  <SCORE.SYSTEM.CONST>
0

>  <SCORE.SYSTEM.DIHEDRAL>
0

>  <SCORE.SYSTEM.SOLV>
0

>  <SCORE.SYSTEM.norm>
0

>  <SCORE.heavy>
22

>  <SCORE.norm>
-0.510511

>  <RMSD>
34.025

$$$$
2f4s_lig
 OpenBabel11021811433D
libRbt.so/2013.1/901 2013/11/27
 22 23  0  0  0  0  0  0  0  0999 V2000
    3.4297  -15.9613   27.5734 N   0  0  0  0  0  0  0  0  0  0  0  0
    3.8891  -10.9822   27.1566 N   0  0  0  0  0  0  0  0  0  0  0  0
    9.7889  -10.0132   24.0659 N   0  0  0  0  0  0  0  0  0  0  0  0
    5.5332  -14.0136   23.5374 O   0  0  0  0  0  0  0  0  0  0  0  0
    5.3510  -13.8295   24.9712 C   0  0  2  0  0  0  0  0  0  0  0  0
    3.1255   -9.6656   24.1596 N   0  0  0  0  0  0  0  0  0  0  0  0
    5.0725  -16.2545   25.2921 O   0  0  0  0  0  0  0  0  0  0  0  0
    4.4773  -14.9771   25.5485 C   0  0  1  0  0  0  0  0  0  0  0  0
    5.5177  -11.3892   24.8105 O   0  0  0  0  0  0  0  0  0  0  0  0
    4.2919  -14.8306   27.0539 C   0  0  1  0  0  0  0  0  0  0  0  0
    6.7603   -9.4724   25.1665 O   0  0  0  0  0  0  0  0  0  0  0  0
    3.6265  -13.4483   27.3693 C   0  0  0  0  0  0  0  0  0  0  0  0
    7.1975   -8.5755   21.6323 O   0  0  0  0  0  0  0  0  0  0  0  0
    4.5549  -12.3048   26.8059 C   0  0  1  0  0  0  0  0  0  0  0  0
    4.3797   -8.3187   21.9549 O   0  0  0  0  0  0  0  0  0  0  0  0
    4.6771  -12.4336   25.2767 C   0  0  2  0  0  0  0  0  0  0  0  0
    5.3804  -10.0420   25.2263 C   0  0  1  0  0  0  0  0  0  0  0  0
    7.4176   -9.4628   23.8290 C   0  0  2  0  0  0  0  0  0  0  0  0
    8.8220   -8.8717   23.9856 C   0  0  0  0  0  0  0  0  0  0  0  0
    6.5933   -8.5959   22.9037 C   0  0  2  0  0  0  0  0  0  0  0  0
    5.1683   -9.1408   22.8232 C   0  0  1  0  0  0  0  0  0  0  0  0
    4.5418   -9.1566   24.2393 C   0  0  1  0  0  0  0  0  0  0  0  0
  5  4  1  6  0  0  0
  5  8  1  0  0  0  0
  5 16  1  0  0  0  0
  8  7  1  1  0  0  0
  8 10  1  0  0  0  0
 10  1  1  6  0  0  0
 10 12  1  0  0  0  0
 11 18  1  0  0  0  0
 12 14  1  0  0  0  0
 14  2  1  6  0  0  0
 14 16  1  0  0  0  0
 16  9  1  1  0  0  0
 17  9  1  6  0  0  0
 17 11  1  0  0  0  0
 17 22  1  0  0  0  0
 18 19  1  1  0  0  0
 18 20  1  0  0  0  0
 19  3  1  0  0  0  0
 20 13  1  6  0  0  0
 20 21  1  0  0  0  0
 21 15  1  6  0  0  0
 21 22  1  0  0  0  0
 22  6  1  6  0  0  0
M  END
>  <CHROM.1>
-163.21068382,149.66665317,98.65868752,5.45420856,-11.43751737,24.74695467
1.94139790,-0.30856595,2.75825062

>  <Name>
2f4s_lig

>  <RI>
0

>  <Rbt.Current_Directory>
/home/itssahil/PROJECTS/Mol_Feturizer/New_Systems/rnas/2f4s

>  <Rbt.Executable>
rbdock ($Id: //depot/dev/client3/rdock/2013.1/src/exe/rbdock.cxx#4 $)

>  <Rbt.Library>
libRbt.so (2013.1, Build901 2013/11/27)

>  <Rbt.Parameter_File>
/export/apps/rDock/src/rDock_2013.1_src/data/scripts/dock_solv.prm

>  <Rbt.Receptor>
prm/blind_docking_80.prm

>  <SCORE>
-2.93466

>  <SCORE.INTER>
-9.65439

>  <SCORE.INTER.CONST>
1

>  <SCORE.INTER.POLAR>
-0.126753

>  <SCORE.INTER.ROT>
3

>  <SCORE.INTER.SOLV>
20.1721

>  <SCORE.INTER.VDW>
-18.3378

>  <SCORE.INTER.norm>
-0.438836

>  <SCORE.INTRA>
6.71973

>  <SCORE.INTRA.DIHEDRAL>
7.1124

>  <SCORE.INTRA.DIHEDRAL.0>
1.67653

>  <SCORE.INTRA.POLAR>
0

>  <SCORE.INTRA.POLAR.0>
0

>  <SCORE.INTRA.REPUL>
0

>  <SCORE.INTRA.REPUL.0>
0

>  <SCORE.INTRA.SOLV>
3.05416

>  <SCORE.INTRA.SOLV.lig_0>
-76.6701

>  <SCORE.INTRA.VDW>
1.63645

>  <SCORE.INTRA.VDW.0>
-1.53273

>  <SCORE.INTRA.norm>
0.305442

>  <SCORE.RESTR>
0

>  <SCORE.RESTR.CAVITY>
0

>  <SCORE.RESTR.norm>
0

>  <SCORE.SYSTEM>
0

>  <SCORE.SYSTEM.CONST>
0

>  <SCORE.SYSTEM.DIHEDRAL>
0

>  <SCORE.SYSTEM.SOLV>
0

>  <SCORE.SYSTEM.norm>
0

>  <SCORE.heavy>
22

>  <SCORE.norm>
-0.133394

>  <RMSD>
34.025

$$$$
2f4s_lig
 OpenBabel11021811433D
libRbt.so/2013.1/901 2013/11/27
 22 23  0  0  0  0  0  0  0  0999 V2000
    5.0835  -16.3666   27.4450 N   0  0  0  0  0  0  0  0  0  0  0  0
    5.9877  -13.6891   23.2990 N   0  0  0  0  0  0  0  0  0  0  0  0
    9.2809   -9.5866   23.1325 N   0  0  0  0  0  0  0  0  0  0  0  0
    4.3328  -11.4734   27.4635 O   0  0  0  0  0  0  0  0  0  0  0  0
    4.2853  -12.6652   26.6266 C   0  0  2  0  0  0  0  0  0  0  0  0
    2.6786   -9.3893   23.7755 N   0  0  0  0  0  0  0  0  0  0  0  0
    3.8748  -14.0852   28.5955 O   0  0  0  0  0  0  0  0  0  0  0  0
    4.7160  -13.9107   27.4492 C   0  0  1  0  0  0  0  0  0  0  0  0
    4.7759  -11.4066   24.5811 O   0  0  0  0  0  0  0  0  0  0  0  0
    4.6486  -15.1809   26.6102 C   0  0  1  0  0  0  0  0  0  0  0  0
    6.1660   -9.6655   25.1986 O   0  0  0  0  0  0  0  0  0  0  0  0
    5.5720  -15.0305   25.3542 C   0  0  0  0  0  0  0  0  0  0  0  0
    7.1180   -8.6442   21.8021 O   0  0  0  0  0  0  0  0  0  0  0  0
    5.0857  -13.7830   24.5209 C   0  0  1  0  0  0  0  0  0  0  0  0
    4.3259   -8.0834   21.8188 O   0  0  0  0  0  0  0  0  0  0  0  0
    5.2220  -12.5027   25.3649 C   0  0  2  0  0  0  0  0  0  0  0  0
    4.7356  -10.0757   25.0646 C   0  0  1  0  0  0  0  0  0  0  0  0
    6.9761   -9.6626   23.9477 C   0  0  2  0  0  0  0  0  0  0  0  0
    8.4070   -9.2450   24.3004 C   0  0  0  0  0  0  0  0  0  0  0  0
    6.3669   -8.6606   22.9927 C   0  0  2  0  0  0  0  0  0  0  0  0
    4.9115   -9.0338   22.7161 C   0  0  1  0  0  0  0  0  0  0  0  0
    4.1217   -9.0506   24.0480 C   0  0  1  0  0  0  0  0  0  0  0  0
  5  4  1  1  0  0  0
  5  8  1  0  0  0  0
  5 16  1  0  0  0  0
  8  7  1  1  0  0  0
  8 10  1  0  0  0  0
 10  1  1  1  0  0  0
 10 12  1  0  0  0  0
 11 18  1  0  0  0  0
 12 14  1  0  0  0  0
 14  2  1  6  0  0  0
 14 16  1  0  0  0  0
 16  9  1  6  0  0  0
 17  9  1  6  0  0  0
 17 11  1  0  0  0  0
 17 22  1  0  0  0  0
 18 19  1  1  0  0  0
 18 20  1  0  0  0  0
 19  3  1  0  0  0  0
 20 13  1  6  0  0  0
 20 21  1  0  0  0  0
 21 15  1  6  0  0  0
 21 22  1  0  0  0  0
 22  6  1  6  0  0  0
M  END
>  <CHROM.1>
61.62769250,69.66100539,165.46302714,5.39217411,-11.38370361,24.82286033
-1.80164392,0.37611656,-0.53120846

>  <Name>
2f4s_lig

>  <RI>
0

>  <Rbt.Current_Directory>
/home/itssahil/PROJECTS/Mol_Feturizer/New_Systems/rnas/2f4s

>  <Rbt.Executable>
rbdock ($Id: //depot/dev/client3/rdock/2013.1/src/exe/rbdock.cxx#4 $)

>  <Rbt.Library>
libRbt.so (2013.1, Build901 2013/11/27)

>  <Rbt.Parameter_File>
/export/apps/rDock/src/rDock_2013.1_src/data/scripts/dock_solv.prm

>  <Rbt.Receptor>
prm/blind_docking_80.prm

>  <SCORE>
-11.1759

>  <SCORE.INTER>
-12.2127

>  <SCORE.INTER.CONST>
1

>  <SCORE.INTER.POLAR>
-0.904638

>  <SCORE.INTER.ROT>
3

>  <SCORE.INTER.SOLV>
25.251

>  <SCORE.INTER.VDW>
-19.1434

>  <SCORE.INTER.norm>
-0.555124

>  <SCORE.INTRA>
0.6783

>  <SCORE.INTRA.DIHEDRAL>
-0.349118

>  <SCORE.INTRA.DIHEDRAL.0>
1.67653

>  <SCORE.INTRA.POLAR>
0

>  <SCORE.INTRA.POLAR.0>
0

>  <SCORE.INTRA.REPUL>
0

>  <SCORE.INTRA.REPUL.0>
0

>  <SCORE.INTRA.SOLV>
0.641887

>  <SCORE.INTRA.SOLV.lig_0>
-76.6701

>  <SCORE.INTRA.VDW>
0.531915

>  <SCORE.INTRA.VDW.0>
-1.53273

>  <SCORE.INTRA.norm>
0.0308318

>  <SCORE.RESTR>
0.358522

>  <SCORE.RESTR.CAVITY>
0.358522

>  <SCORE.RESTR.norm>
0.0162964

>  <SCORE.SYSTEM>
0

>  <SCORE.SYSTEM.CONST>
0

>  <SCORE.SYSTEM.DIHEDRAL>
0

>  <SCORE.SYSTEM.SOLV>
0

>  <SCORE.SYSTEM.norm>
0

>  <SCORE.heavy>
22

>  <SCORE.norm>
-0.507996

>  <RMSD>
34.029

$$$$
2f4s_lig
 OpenBabel11021811433D
libRbt.so/2013.1/901 2013/11/27
 22 23  0  0  0  0  0  0  0  0999 V2000
    5.0811  -16.4063   27.4217 N   0  0  0  0  0  0  0  0  0  0  0  0
    5.9279  -13.6417   23.3210 N   0  0  0  0  0  0  0  0  0  0  0  0
    9.1687   -9.5547   23.0022 N   0  0  0  0  0  0  0  0  0  0  0  0
    4.3238  -11.5158   27.5516 O   0  0  0  0  0  0  0  0  0  0  0  0
    4.2672  -12.6900   26.6909 C   0  0  2  0  0  0  0  0  0  0  0  0
    2.6163   -9.3419   23.9855 N   0  0  0  0  0  0  0  0  0  0  0  0
    3.8842  -14.1514   28.6349 O   0  0  0  0  0  0  0  0  0  0  0  0
    4.7102  -13.9517   27.4818 C   0  0  1  0  0  0  0  0  0  0  0  0
    4.7295  -11.3885   24.6658 O   0  0  0  0  0  0  0  0  0  0  0  0
    4.6338  -15.2043   26.6175 C   0  0  1  0  0  0  0  0  0  0  0  0
    6.1659   -9.6681   25.2333 O   0  0  0  0  0  0  0  0  0  0  0  0
    5.5407  -15.0263   25.3530 C   0  0  0  0  0  0  0  0  0  0  0  0
    6.9616   -8.6178   21.8056 O   0  0  0  0  0  0  0  0  0  0  0  0
    5.0420  -13.7626   24.5522 C   0  0  1  0  0  0  0  0  0  0  0  0
    4.1795   -8.0301   21.9648 O   0  0  0  0  0  0  0  0  0  0  0  0
    5.1873  -12.4999   25.4208 C   0  0  2  0  0  0  0  0  0  0  0  0
    4.7265  -10.0628   25.1650 C   0  0  1  0  0  0  0  0  0  0  0  0
    6.9141   -9.6589   23.9445 C   0  0  2  0  0  0  0  0  0  0  0  0
    8.3647   -9.2592   24.2313 C   0  0  0  0  0  0  0  0  0  0  0  0
    6.2693   -8.6403   23.0312 C   0  0  2  0  0  0  0  0  0  0  0  0
    4.7984   -8.9962   22.8221 C   0  0  1  0  0  0  0  0  0  0  0  0
    4.0743   -9.0203   24.1907 C   0  0  1  0  0  0  0  0  0  0  0  0
  5  4  1  1  0  0  0
  5  8  1  0  0  0  0
  5 16  1  0  0  0  0
  8  7  1  1  0  0  0
  8 10  1  0  0  0  0
 10  1  1  1  0  0  0
 10 12  1  0  0  0  0
 11 18  1  0  0  0  0
 12 14  1  0  0  0  0
 14  2  1  6  0  0  0
 14 16  1  0  0  0  0
 16  9  1  6  0  0  0
 17  9  1  6  0  0  0
 17 11  1  0  0  0  0
 17 22  1  0  0  0  0
 18 19  1  1  0  0  0
 18 20  1  0  0  0  0
 19  3  1  0  0  0  0
 20 13  1  6  0  0  0
 20 21  1  0  0  0  0
 21 15  1  6  0  0  0
 21 22  1  0  0  0  0
 22  6  1  6  0  0  0
M  END
>  <CHROM.1>
63.34430908,70.43312284,167.28294631,5.34145371,-11.37929080,24.86783298
-1.79502329,0.42624256,-0.51738408

>  <Name>
2f4s_lig

>  <RI>
8.9913e+06

>  <Rbt.Current_Directory>
/home/itssahil/PROJECTS/Mol_Feturizer/New_Systems/rnas/2f4s

>  <Rbt.Executable>
rbdock ($Id: //depot/dev/client3/rdock/2013.1/src/exe/rbdock.cxx#4 $)

>  <Rbt.Library>
libRbt.so (2013.1, Build901 2013/11/27)

>  <Rbt.Parameter_File>
/export/apps/rDock/src/rDock_2013.1_src/data/scripts/dock_solv.prm

>  <Rbt.Receptor>
prm/blind_docking_40.prm

>  <SCORE>
-11.3504

>  <SCORE.INTER>
-12.4949

>  <SCORE.INTER.CONST>
1

>  <SCORE.INTER.POLAR>
-0.919856

>  <SCORE.INTER.ROT>
3

>  <SCORE.INTER.SOLV>
24.4122

>  <SCORE.INTER.VDW>
-19.0011

>  <SCORE.INTER.norm>
-0.56795

>  <SCORE.INTRA>
0.651614

>  <SCORE.INTRA.DIHEDRAL>
-0.39999

>  <SCORE.INTRA.DIHEDRAL.0>
1.67653

>  <SCORE.INTRA.POLAR>
0

>  <SCORE.INTRA.POLAR.0>
0

>  <SCORE.INTRA.REPUL>
0

>  <SCORE.INTRA.REPUL.0>
0

>  <SCORE.INTRA.SOLV>
0.712922

>  <SCORE.INTRA.SOLV.lig_0>
-76.6701

>  <SCORE.INTRA.VDW>
0.495148

>  <SCORE.INTRA.VDW.0>
-1.53273

>  <SCORE.INTRA.norm>
0.0296188

>  <SCORE.RESTR>
0.492878

>  <SCORE.RESTR.CAVITY>
0.492878

>  <SCORE.RESTR.norm>
0.0224035

>  <SCORE.SYSTEM>
0

>  <SCORE.SYSTEM.CONST>
0

>  <SCORE.SYSTEM.DIHEDRAL>
0

>  <SCORE.SYSTEM.SOLV>
0

>  <SCORE.SYSTEM.norm>
0

>  <SCORE.heavy>
22

>  <SCORE.norm>
-0.515927

>  <RMSD>
34.033

$$$$
2f4s_lig
 OpenBabel11021811433D
libRbt.so/2013.1/901 2013/11/27
 22 23  0  0  0  0  0  0  0  0999 V2000
    5.3341  -16.4861   27.5438 N   0  0  0  0  0  0  0  0  0  0  0  0
    3.1057  -11.9907   27.5052 N   0  0  0  0  0  0  0  0  0  0  0  0
    8.4363   -9.1508   23.2443 N   0  0  0  0  0  0  0  0  0  0  0  0
    5.5718  -13.6567   23.4885 O   0  0  0  0  0  0  0  0  0  0  0  0
    5.5152  -13.6199   24.9440 C   0  0  2  0  0  0  0  0  0  0  0  0
    3.4204   -9.0119   26.4789 N   0  0  0  0  0  0  0  0  0  0  0  0
    6.5701  -15.8399   25.0854 O   0  0  0  0  0  0  0  0  0  0  0  0
    5.4432  -15.0646   25.5107 C   0  0  1  0  0  0  0  0  0  0  0  0
    4.3794  -11.4479   24.9744 O   0  0  0  0  0  0  0  0  0  0  0  0
    5.4129  -15.0628   27.0342 C   0  0  1  0  0  0  0  0  0  0  0  0
    6.4118  -10.3988   24.6373 O   0  0  0  0  0  0  0  0  0  0  0  0
    4.1805  -14.2357   27.5342 C   0  0  0  0  0  0  0  0  0  0  0  0
    5.2768   -8.0819   22.0240 O   0  0  0  0  0  0  0  0  0  0  0  0
    4.3029  -12.7661   26.9752 C   0  0  1  0  0  0  0  0  0  0  0  0
    3.7723   -7.2027   24.2765 O   0  0  0  0  0  0  0  0  0  0  0  0
    4.2674  -12.7854   25.4362 C   0  0  2  0  0  0  0  0  0  0  0  0
    5.2451  -10.4953   25.5657 C   0  0  1  0  0  0  0  0  0  0  0  0
    6.1206   -9.9381   23.2503 C   0  0  2  0  0  0  0  0  0  0  0  0
    7.4313   -9.9352   22.4575 C   0  0  0  0  0  0  0  0  0  0  0  0
    5.5607   -8.5353   23.3263 C   0  0  2  0  0  0  0  0  0  0  0  0
    4.3029   -8.5306   24.1933 C   0  0  1  0  0  0  0  0  0  0  0  0
    4.6528   -9.0434   25.6120 C   0  0  1  0  0  0  0  0  0  0  0  0
  5  4  1  6  0  0  0
  5  8  1  0  0  0  0
  5 16  1  0  0  0  0
  8  7  1  1  0  0  0
  8 10  1  0  0  0  0
 10  1  1  6  0  0  0
 10 12  1  0  0  0  0
 11 18  1  0  0  0  0
 12 14  1  0  0  0  0
 14  2  1  1  0  0  0
 14 16  1  0  0  0  0
 16  9  1  6  0  0  0
 17  9  1  6  0  0  0
 17 11  1  0  0  0  0
 17 22  1  0  0  0  0
 18 19  1  6  0  0  0
 18 20  1  0  0  0  0
 19  3  1  0  0  0  0
 20 13  1  6  0  0  0
 20 21  1  0  0  0  0
 21 15  1  1  0  0  0
 21 22  1  0  0  0  0
 22  6  1  1  0  0  0
M  END
>  <CHROM.1>
-76.83193536,103.00520902,-52.26286312,5.22303348,-11.49480718,25.00826012
1.62432280,-0.78663120,2.76700709

>  <Name>
2f4s_lig

>  <RI>
0

>  <Rbt.Current_Directory>
/home/itssahil/PROJECTS/Mol_Feturizer/New_Systems/rnas/2f4s

>  <Rbt.Executable>
rbdock ($Id: //depot/dev/client3/rdock/2013.1/src/exe/rbdock.cxx#4 $)

>  <Rbt.Library>
libRbt.so (2013.1, Build901 2013/11/27)

>  <Rbt.Parameter_File>
/export/apps/rDock/src/rDock_2013.1_src/data/scripts/dock_solv.prm

>  <Rbt.Receptor>
prm/blind_docking_60.prm

>  <SCORE>
-2.99646

>  <SCORE.INTER>
-9.16565

>  <SCORE.INTER.CONST>
1

>  <SCORE.INTER.POLAR>
-0.757849

>  <SCORE.INTER.ROT>
3

>  <SCORE.INTER.SOLV>
18.2591

>  <SCORE.INTER.VDW>
-15.2706

>  <SCORE.INTER.norm>
-0.41662

>  <SCORE.INTRA>
5.58897

>  <SCORE.INTRA.DIHEDRAL>
5.67336

>  <SCORE.INTRA.DIHEDRAL.0>
1.67653

>  <SCORE.INTRA.POLAR>
0

>  <SCORE.INTRA.POLAR.0>
0

>  <SCORE.INTRA.REPUL>
0

>  <SCORE.INTRA.REPUL.0>
0

>  <SCORE.INTRA.SOLV>
4.29401

>  <SCORE.INTRA.SOLV.lig_0>
-76.6701

>  <SCORE.INTRA.VDW>
0.605288

>  <SCORE.INTRA.VDW.0>
-1.53273

>  <SCORE.INTRA.norm>
0.254044

>  <SCORE.RESTR>
0.580217

>  <SCORE.RESTR.CAVITY>
0.580217

>  <SCORE.RESTR.norm>
0.0263735

>  <SCORE.SYSTEM>
0

>  <SCORE.SYSTEM.CONST>
0

>  <SCORE.SYSTEM.DIHEDRAL>
0

>  <SCORE.SYSTEM.SOLV>
0

>  <SCORE.SYSTEM.norm>
0

>  <SCORE.heavy>
22

>  <SCORE.norm>
-0.136203

>  <RMSD>
34.040

$$$$
2f4s_lig
 OpenBabel11021811433D
libRbt.so/2013.1/901 2013/11/27
 22 23  0  0  0  0  0  0  0  0999 V2000
    4.7425  -16.2890   27.4421 N   0  0  0  0  0  0  0  0  0  0  0  0
    2.7340  -11.7197   26.9286 N   0  0  0  0  0  0  0  0  0  0  0  0
    8.8210   -9.3926   23.4325 N   0  0  0  0  0  0  0  0  0  0  0  0
    5.7610  -13.5915   23.4180 O   0  0  0  0  0  0  0  0  0  0  0  0
    5.4662  -13.5095   24.8425 C   0  0  2  0  0  0  0  0  0  0  0  0
    3.4415   -8.7667   25.9491 N   0  0  0  0  0  0  0  0  0  0  0  0
    6.3929  -15.7608   25.2091 O   0  0  0  0  0  0  0  0  0  0  0  0
    5.2434  -14.9333   25.4228 C   0  0  1  0  0  0  0  0  0  0  0  0
    4.4292  -11.2983   24.6329 O   0  0  0  0  0  0  0  0  0  0  0  0
    4.9617  -14.8852   26.9196 C   0  0  1  0  0  0  0  0  0  0  0  0
    6.5482  -10.3791   24.5307 O   0  0  0  0  0  0  0  0  0  0  0  0
    3.6980  -13.9999   27.1883 C   0  0  0  0  0  0  0  0  0  0  0  0
    5.8906   -8.0803   21.7434 O   0  0  0  0  0  0  0  0  0  0  0  0
    3.9701  -12.5529   26.6233 C   0  0  1  0  0  0  0  0  0  0  0  0
    4.1744   -7.0480   23.7681 O   0  0  0  0  0  0  0  0  0  0  0  0
    4.1887  -12.6166   25.1007 C   0  0  2  0  0  0  0  0  0  0  0  0
    5.2714  -10.3800   25.3068 C   0  0  1  0  0  0  0  0  0  0  0  0
    6.4604   -9.9443   23.1079 C   0  0  2  0  0  0  0  0  0  0  0  0
    7.8571  -10.0412   22.4866 C   0  0  0  0  0  0  0  0  0  0  0  0
    5.9822   -8.5098   23.0810 C   0  0  2  0  0  0  0  0  0  0  0  0
    4.6290   -8.4063   23.7824 C   0  0  1  0  0  0  0  0  0  0  0  0
    4.7678   -8.8954   25.2451 C   0  0  1  0  0  0  0  0  0  0  0  0
  5  4  1  6  0  0  0
  5  8  1  0  0  0  0
  5 16  1  0  0  0  0
  8  7  1  1  0  0  0
  8 10  1  0  0  0  0
 10  1  1  6  0  0  0
 10 12  1  0  0  0  0
 11 18  1  0  0  0  0
 12 14  1  0  0  0  0
 14  2  1  6  0  0  0
 14 16  1  0  0  0  0
 16  9  1  1  0  0  0
 17  9  1  6  0  0  0
 17 11  1  0  0  0  0
 17 22  1  0  0  0  0
 18 19  1  1  0  0  0
 18 20  1  0  0  0  0
 19  3  1  0  0  0  0
 20 13  1  6  0  0  0
 20 21  1  0  0  0  0
 21 15  1  1  0  0  0
 21 22  1  0  0  0  0
 22  6  1  6  0  0  0
M  END
>  <CHROM.1>
-73.90124211,102.41651036,-47.59449964,5.26282700,-11.39271427,24.78548471
1.75141614,-0.66651130,2.81785467

>  <Name>
2f4s_lig

>  <RI>
0

>  <Rbt.Current_Directory>
/home/itssahil/PROJECTS/Mol_Feturizer/New_Systems/rnas/2f4s

>  <Rbt.Executable>
rbdock ($Id: //depot/dev/client3/rdock/2013.1/src/exe/rbdock.cxx#4 $)

>  <Rbt.Library>
libRbt.so (2013.1, Build901 2013/11/27)

>  <Rbt.Parameter_File>
/export/apps/rDock/src/rDock_2013.1_src/data/scripts/dock_solv.prm

>  <Rbt.Receptor>
prm/blind_docking_80.prm

>  <SCORE>
-4.99911

>  <SCORE.INTER>
-10.5809

>  <SCORE.INTER.CONST>
1

>  <SCORE.INTER.POLAR>
-0.844067

>  <SCORE.INTER.ROT>
3

>  <SCORE.INTER.SOLV>
16.8823

>  <SCORE.INTER.VDW>
-15.4678

>  <SCORE.INTER.norm>
-0.480952

>  <SCORE.INTRA>
5.34712

>  <SCORE.INTRA.DIHEDRAL>
5.52033

>  <SCORE.INTRA.DIHEDRAL.0>
1.67653

>  <SCORE.INTRA.POLAR>
0

>  <SCORE.INTRA.POLAR.0>
0

>  <SCORE.INTRA.REPUL>
0

>  <SCORE.INTRA.REPUL.0>
0

>  <SCORE.INTRA.SOLV>
4.17948

>  <SCORE.INTRA.SOLV.lig_0>
-76.6701

>  <SCORE.INTRA.VDW>
0.497214

>  <SCORE.INTRA.VDW.0>
-1.53273

>  <SCORE.INTRA.norm>
0.243051

>  <SCORE.RESTR>
0.234714

>  <SCORE.RESTR.CAVITY>
0.234714

>  <SCORE.RESTR.norm>
0.0106688

>  <SCORE.SYSTEM>
0

>  <SCORE.SYSTEM.CONST>
0

>  <SCORE.SYSTEM.DIHEDRAL>
0

>  <SCORE.SYSTEM.SOLV>
0

>  <SCORE.SYSTEM.norm>
0

>  <SCORE.heavy>
22

>  <SCORE.norm>
-0.227232

>  <RMSD>
34.043

$$$$
2f4s_lig
 OpenBabel11021811433D
libRbt.so/2013.1/901 2013/11/27
 22 23  0  0  0  0  0  0  0  0999 V2000
    4.7163  -17.0477   27.2091 N   0  0  0  0  0  0  0  0  0  0  0  0
    3.6769  -12.1493   27.5264 N   0  0  0  0  0  0  0  0  0  0  0  0
    4.5324   -8.8078   29.1268 N   0  0  0  0  0  0  0  0  0  0  0  0
    5.7261  -14.0656   23.3888 O   0  0  0  0  0  0  0  0  0  0  0  0
    5.6532  -14.1272   24.8427 C   0  0  2  0  0  0  0  0  0  0  0  0
    5.7367   -9.9609   22.6990 N   0  0  0  0  0  0  0  0  0  0  0  0
    6.1200  -16.5442   24.8080 O   0  0  0  0  0  0  0  0  0  0  0  0
    5.2135  -15.5472   25.2940 C   0  0  1  0  0  0  0  0  0  0  0  0
    5.0927  -11.7494   25.0450 O   0  0  0  0  0  0  0  0  0  0  0  0
    5.1561  -15.6544   26.8129 C   0  0  1  0  0  0  0  0  0  0  0  0
    3.5707  -10.1745   25.7854 O   0  0  0  0  0  0  0  0  0  0  0  0
    4.1589  -14.5868   27.3776 C   0  0  0  0  0  0  0  0  0  0  0  0
    6.0267   -7.7779   27.0930 O   0  0  0  0  0  0  0  0  0  0  0  0
    4.6533  -13.1559   26.9359 C   0  0  1  0  0  0  0  0  0  0  0  0
    6.6065   -7.7447   24.3050 O   0  0  0  0  0  0  0  0  0  0  0  0
    4.6430  -13.0480   25.4002 C   0  0  2  0  0  0  0  0  0  0  0  0
    4.2273  -10.7353   24.5661 C   0  0  1  0  0  0  0  0  0  0  0  0
    4.4703   -9.5532   26.7981 C   0  0  2  0  0  0  0  0  0  0  0  0
    3.6139   -9.0700   27.9726 C   0  0  0  0  0  0  0  0  0  0  0  0
    5.1692   -8.3782   26.1515 C   0  0  2  0  0  0  0  0  0  0  0  0
    5.9491   -8.8547   24.9273 C   0  0  1  0  0  0  0  0  0  0  0  0
    4.9754   -9.5163   23.9213 C   0  0  1  0  0  0  0  0  0  0  0  0
  5  4  1  6  0  0  0
  5  8  1  0  0  0  0
  5 16  1  0  0  0  0
  8  7  1  1  0  0  0
  8 10  1  0  0  0  0
 10  1  1  6  0  0  0
 10 12  1  0  0  0  0
 11 18  1  0  0  0  0
 12 14  1  0  0  0  0
 14  2  1  1  0  0  0
 14 16  1  0  0  0  0
 16  9  1  1  0  0  0
 17  9  1  1  0  0  0
 17 11  1  0  0  0  0
 17 22  1  0  0  0  0
 18 19  1  1  0  0  0
 18 20  1  0  0  0  0
 19  3  1  0  0  0  0
 20 13  1  1  0  0  0
 20 21  1  0  0  0  0
 21 15  1  6  0  0  0
 21 22  1  0  0  0  0
 22  6  1  6  0  0  0
M  END
>  <CHROM.1>
137.04539080,79.83058094,164.39250942,5.00561631,-11.71959555,25.79707979
1.58729693,-1.22217306,-3.10326869

>  <Name>
2f4s_lig

>  <RI>
0

>  <Rbt.Current_Directory>
/home/itssahil/PROJECTS/Mol_Feturizer/New_Systems/rnas/2f4s

>  <Rbt.Executable>
rbdock ($Id: //depot/dev/client3/rdock/2013.1/src/exe/rbdock.cxx#4 $)

>  <Rbt.Library>
libRbt.so (2013.1, Build901 2013/11/27)

>  <Rbt.Parameter_File>
/export/apps/rDock/src/rDock_2013.1_src/data/scripts/dock_solv.prm

>  <Rbt.Receptor>
prm/blind_docking_60.prm

>  <SCORE>
-3.22921

>  <SCORE.INTER>
-9.75197

>  <SCORE.INTER.CONST>
1

>  <SCORE.INTER.POLAR>
-1.33033

>  <SCORE.INTER.ROT>
3

>  <SCORE.INTER.SOLV>
22.219

>  <SCORE.INTER.VDW>
-15.0732

>  <SCORE.INTER.norm>
-0.443271

>  <SCORE.INTRA>
5.81439

>  <SCORE.INTRA.DIHEDRAL>
6.82489

>  <SCORE.INTRA.DIHEDRAL.0>
1.67653

>  <SCORE.INTRA.POLAR>
0

>  <SCORE.INTRA.POLAR.0>
0

>  <SCORE.INTRA.REPUL>
0

>  <SCORE.INTRA.REPUL.0>
0

>  <SCORE.INTRA.SOLV>
4.74302

>  <SCORE.INTRA.SOLV.lig_0>
-76.6701

>  <SCORE.INTRA.VDW>
0.0304337

>  <SCORE.INTRA.VDW.0>
-1.53273

>  <SCORE.INTRA.norm>
0.264291

>  <SCORE.RESTR>
0.708366

>  <SCORE.RESTR.CAVITY>
0.708366

>  <SCORE.RESTR.norm>
0.0321984

>  <SCORE.SYSTEM>
0

>  <SCORE.SYSTEM.CONST>
0

>  <SCORE.SYSTEM.DIHEDRAL>
0

>  <SCORE.SYSTEM.SOLV>
0

>  <SCORE.SYSTEM.norm>
0

>  <SCORE.heavy>
22

>  <SCORE.norm>
-0.146782

>  <RMSD>
34.050

$$$$
2f4s_lig
 OpenBabel11021811433D
libRbt.so/2013.1/901 2013/11/27
 22 23  0  0  0  0  0  0  0  0999 V2000
    5.3361  -16.4954   27.5388 N   0  0  0  0  0  0  0  0  0  0  0  0
    3.1045  -12.0018   27.4816 N   0  0  0  0  0  0  0  0  0  0  0  0
    8.5063   -9.2249   23.3151 N   0  0  0  0  0  0  0  0  0  0  0  0
    5.5864  -13.6753   23.4778 O   0  0  0  0  0  0  0  0  0  0  0  0
    5.5246  -13.6351   24.9330 C   0  0  2  0  0  0  0  0  0  0  0  0
    3.3953   -9.0012   26.3927 N   0  0  0  0  0  0  0  0  0  0  0  0
    6.5805  -15.8540   25.0834 O   0  0  0  0  0  0  0  0  0  0  0  0
    5.4515  -15.0786   25.5027 C   0  0  1  0  0  0  0  0  0  0  0  0
    4.3870  -11.4639   24.9542 O   0  0  0  0  0  0  0  0  0  0  0  0
    5.4157  -15.0733   27.0261 C   0  0  1  0  0  0  0  0  0  0  0  0
    6.4325  -10.4276   24.6594 O   0  0  0  0  0  0  0  0  0  0  0  0
    4.1809  -14.2459   27.5198 C   0  0  0  0  0  0  0  0  0  0  0  0
    5.3823   -8.1477   21.9789 O   0  0  0  0  0  0  0  0  0  0  0  0
    4.3042  -12.7775   26.9578 C   0  0  1  0  0  0  0  0  0  0  0  0
    3.8175   -7.2279   24.1734 O   0  0  0  0  0  0  0  0  0  0  0  0
    4.2743  -12.8004   25.4187 C   0  0  2  0  0  0  0  0  0  0  0  0
    5.2394  -10.5054   25.5553 C   0  0  1  0  0  0  0  0  0  0  0  0
    6.1831   -9.9875   23.2576 C   0  0  2  0  0  0  0  0  0  0  0  0
    7.5159  -10.0018   22.5028 C   0  0  0  0  0  0  0  0  0  0  0  0
    5.6269   -8.5817   23.2957 C   0  0  2  0  0  0  0  0  0  0  0  0
    4.3448   -8.5588   24.1261 C   0  0  1  0  0  0  0  0  0  0  0  0
    4.6519   -9.0507   25.5620 C   0  0  1  0  0  0  0  0  0  0  0  0
  5  4  1  6  0  0  0
  5  8  1  0  0  0  0
  5 16  1  0  0  0  0
  8  7  1  1  0  0  0
  8 10  1  0  0  0  0
 10  1  1  6  0  0  0
 10 12  1  0  0  0  0
 11 18  1  0  0  0  0
 12 14  1  0  0  0  0
 14  2  1  1  0  0  0
 14 16  1  0  0  0  0
 16  9  1  6  0  0  0
 17  9  1  6  0  0  0
 17 11  1  0  0  0  0
 17 22  1  0  0  0  0
 18 19  1  6  0  0  0
 18 20  1  0  0  0  0
 19  3  1  0  0  0  0
 20 13  1  6  0  0  0
 20 21  1  0  0  0  0
 21 15  1  1  0  0  0
 21 22  1  0  0  0  0
 22  6  1  1  0  0  0
M  END
>  <CHROM.1>
-77.52324178,101.84401413,-51.49161331,5.24753835,-11.51943483,24.99054066
-1.63128767,0.77041667,-0.37382512

>  <Name>
2f4s_lig

>  <RI>
0

>  <Rbt.Current_Directory>
/home/itssahil/PROJECTS/Mol_Feturizer/New_Systems/rnas/2f4s

>  <Rbt.Executable>
rbdock ($Id: //depot/dev/client3/rdock/2013.1/src/exe/rbdock.cxx#4 $)

>  <Rbt.Library>
libRbt.so (2013.1, Build901 2013/11/27)

>  <Rbt.Parameter_File>
/export/apps/rDock/src/rDock_2013.1_src/data/scripts/dock_solv.prm

>  <Rbt.Receptor>
prm/blind_docking_60.prm

>  <SCORE>
-3.30757

>  <SCORE.INTER>
-9.51224

>  <SCORE.INTER.CONST>
1

>  <SCORE.INTER.POLAR>
-0.753449

>  <SCORE.INTER.ROT>
3

>  <SCORE.INTER.SOLV>
18.3119

>  <SCORE.INTER.VDW>
-15.534

>  <SCORE.INTER.norm>
-0.432374

>  <SCORE.INTRA>
5.55802

>  <SCORE.INTRA.DIHEDRAL>
5.65029

>  <SCORE.INTRA.DIHEDRAL.0>
1.67653

>  <SCORE.INTRA.POLAR>
0

>  <SCORE.INTRA.POLAR.0>
0

>  <SCORE.INTRA.REPUL>
0

>  <SCORE.INTRA.REPUL.0>
0

>  <SCORE.INTRA.SOLV>
4.21284

>  <SCORE.INTRA.SOLV.lig_0>
-76.6701

>  <SCORE.INTRA.VDW>
0.626458

>  <SCORE.INTRA.VDW.0>
-1.53273

>  <SCORE.INTRA.norm>
0.252637

>  <SCORE.RESTR>
0.646647

>  <SCORE.RESTR.CAVITY>
0.646647

>  <SCORE.RESTR.norm>
0.0293931

>  <SCORE.SYSTEM>
0

>  <SCORE.SYSTEM.CONST>
0

>  <SCORE.SYSTEM.DIHEDRAL>
0

>  <SCORE.SYSTEM.SOLV>
0

>  <SCORE.SYSTEM.norm>
0

>  <SCORE.heavy>
22

>  <SCORE.norm>
-0.150344

>  <RMSD>
34.053

$$$$
2f4s_lig
 OpenBabel11021811433D
libRbt.so/2013.1/901 2013/11/27
 22 23  0  0  0  0  0  0  0  0999 V2000
    5.0420  -16.3794   27.4590 N   0  0  0  0  0  0  0  0  0  0  0  0
    5.9801  -13.7490   23.2905 N   0  0  0  0  0  0  0  0  0  0  0  0
    9.2809   -9.5374   23.1258 N   0  0  0  0  0  0  0  0  0  0  0  0
    4.3501  -11.4776   27.4347 O   0  0  0  0  0  0  0  0  0  0  0  0
    4.2886  -12.6760   26.6082 C   0  0  2  0  0  0  0  0  0  0  0  0
    2.6770   -9.4511   23.7337 N   0  0  0  0  0  0  0  0  0  0  0  0
    3.8603  -14.0739   28.5891 O   0  0  0  0  0  0  0  0  0  0  0  0
    4.7040  -13.9194   27.4418 C   0  0  1  0  0  0  0  0  0  0  0  0
    4.7952  -11.4412   24.5522 O   0  0  0  0  0  0  0  0  0  0  0  0
    4.6218  -15.1960   26.6138 C   0  0  1  0  0  0  0  0  0  0  0  0
    6.1579   -9.6824   25.1803 O   0  0  0  0  0  0  0  0  0  0  0  0
    5.5475  -15.0675   25.3570 C   0  0  0  0  0  0  0  0  0  0  0  0
    7.1195   -8.6458   21.7912 O   0  0  0  0  0  0  0  0  0  0  0  0
    5.0766  -13.8216   24.5126 C   0  0  1  0  0  0  0  0  0  0  0  0
    4.3202   -8.1219   21.7892 O   0  0  0  0  0  0  0  0  0  0  0  0
    5.2278  -12.5357   25.3456 C   0  0  2  0  0  0  0  0  0  0  0  0
    4.7340  -10.1113   25.0363 C   0  0  1  0  0  0  0  0  0  0  0  0
    6.9765   -9.6677   23.9351 C   0  0  2  0  0  0  0  0  0  0  0  0
    8.3993   -9.2315   24.2978 C   0  0  0  0  0  0  0  0  0  0  0  0
    6.3606   -8.6731   22.9766 C   0  0  2  0  0  0  0  0  0  0  0  0
    4.9122   -9.0653   22.6898 C   0  0  1  0  0  0  0  0  0  0  0  0
    4.1135   -9.0936   24.0163 C   0  0  1  0  0  0  0  0  0  0  0  0
  5  4  1  1  0  0  0
  5  8  1  0  0  0  0
  5 16  1  0  0  0  0
  8  7  1  1  0  0  0
  8 10  1  0  0  0  0
 10  1  1  1  0  0  0
 10 12  1  0  0  0  0
 11 18  1  0  0  0  0
 12 14  1  0  0  0  0
 14  2  1  6  0  0  0
 14 16  1  0  0  0  0
 16  9  1  6  0  0  0
 17  9  1  6  0  0  0
 17 11  1  0  0  0  0
 17 22  1  0  0  0  0
 18 19  1  1  0  0  0
 18 20  1  0  0  0  0
 19  3  1  0  0  0  0
 20 13  1  6  0  0  0
 20 21  1  0  0  0  0
 21 15  1  6  0  0  0
 21 22  1  0  0  0  0
 22  6  1  6  0  0  0
M  END
>  <CHROM.1>
59.74376190,70.82239112,166.49119820,5.38667313,-11.40278210,24.80768132
-1.80422993,0.36131762,-0.53397179

>  <Name>
2f4s_lig

>  <RI>
0

>  <Rbt.Current_Directory>
/home/itssahil/PROJECTS/Mol_Feturizer/New_Systems/rnas/2f4s

>  <Rbt.Executable>
rbdock ($Id: //depot/dev/client3/rdock/2013.1/src/exe/rbdock.cxx#4 $)

>  <Rbt.Library>
libRbt.so (2013.1, Build901 2013/11/27)

>  <Rbt.Parameter_File>
/export/apps/rDock/src/rDock_2013.1_src/data/scripts/dock_solv.prm

>  <Rbt.Receptor>
prm/blind_docking_80.prm

>  <SCORE>
-11.1842

>  <SCORE.INTER>
-12.3182

>  <SCORE.INTER.CONST>
1

>  <SCORE.INTER.POLAR>
-0.903293

>  <SCORE.INTER.ROT>
3

>  <SCORE.INTER.SOLV>
25.347

>  <SCORE.INTER.VDW>
-19.2502

>  <SCORE.INTER.norm>
-0.559919

>  <SCORE.INTRA>
0.789373

>  <SCORE.INTRA.DIHEDRAL>
-0.347985

>  <SCORE.INTRA.DIHEDRAL.0>
1.67653

>  <SCORE.INTRA.POLAR>
0

>  <SCORE.INTRA.POLAR.0>
0

>  <SCORE.INTRA.REPUL>
0

>  <SCORE.INTRA.REPUL.0>
0

>  <SCORE.INTRA.SOLV>
0.636365

>  <SCORE.INTRA.SOLV.lig_0>
-76.6701

>  <SCORE.INTRA.VDW>
0.645183

>  <SCORE.INTRA.VDW.0>
-1.53273

>  <SCORE.INTRA.norm>
0.0358806

>  <SCORE.RESTR>
0.344635

>  <SCORE.RESTR.CAVITY>
0.344635

>  <SCORE.RESTR.norm>
0.0156652

>  <SCORE.SYSTEM>
0

>  <SCORE.SYSTEM.CONST>
0

>  <SCORE.SYSTEM.DIHEDRAL>
0

>  <SCORE.SYSTEM.SOLV>
0

>  <SCORE.SYSTEM.norm>
0

>  <SCORE.heavy>
22

>  <SCORE.norm>
-0.508373

>  <RMSD>
34.054

$$$$
2f4s_lig
 OpenBabel11021811433D
libRbt.so/2013.1/901 2013/11/27
 22 23  0  0  0  0  0  0  0  0999 V2000
    4.9166  -16.4516   27.4252 N   0  0  0  0  0  0  0  0  0  0  0  0
    5.9738  -13.7655   23.3212 N   0  0  0  0  0  0  0  0  0  0  0  0
    9.2855   -9.5853   22.9712 N   0  0  0  0  0  0  0  0  0  0  0  0
    4.3762  -11.5313   27.4981 O   0  0  0  0  0  0  0  0  0  0  0  0
    4.2855  -12.7097   26.6461 C   0  0  2  0  0  0  0  0  0  0  0  0
    2.7333   -9.4027   23.9463 N   0  0  0  0  0  0  0  0  0  0  0  0
    3.7960  -14.1345   28.5933 O   0  0  0  0  0  0  0  0  0  0  0  0
    4.6546  -13.9825   27.4569 C   0  0  1  0  0  0  0  0  0  0  0  0
    4.8488  -11.4488   24.6209 O   0  0  0  0  0  0  0  0  0  0  0  0
    4.5408  -15.2384   26.6015 C   0  0  1  0  0  0  0  0  0  0  0  0
    6.2808   -9.7286   25.2001 O   0  0  0  0  0  0  0  0  0  0  0  0
    5.4816  -15.1126   25.3557 C   0  0  0  0  0  0  0  0  0  0  0  0
    7.0818   -8.6597   21.7793 O   0  0  0  0  0  0  0  0  0  0  0  0
    5.0571  -13.8354   24.5337 C   0  0  1  0  0  0  0  0  0  0  0  0
    4.2983   -8.0779   21.9356 O   0  0  0  0  0  0  0  0  0  0  0  0
    5.2401  -12.5724   25.3949 C   0  0  2  0  0  0  0  0  0  0  0  0
    4.8423  -10.1256   25.1267 C   0  0  1  0  0  0  0  0  0  0  0  0
    7.0317   -9.7116   23.9129 C   0  0  2  0  0  0  0  0  0  0  0  0
    8.4810   -9.3107   24.2048 C   0  0  0  0  0  0  0  0  0  0  0  0
    6.3870   -8.6896   23.0034 C   0  0  2  0  0  0  0  0  0  0  0  0
    4.9172   -9.0472   22.7894 C   0  0  1  0  0  0  0  0  0  0  0  0
    4.1903   -9.0795   24.1563 C   0  0  1  0  0  0  0  0  0  0  0  0
  5  4  1  1  0  0  0
  5  8  1  0  0  0  0
  5 16  1  0  0  0  0
  8  7  1  1  0  0  0
  8 10  1  0  0  0  0
 10  1  1  1  0  0  0
 10 12  1  0  0  0  0
 11 18  1  0  0  0  0
 12 14  1  0  0  0  0
 14  2  1  6  0  0  0
 14 16  1  0  0  0  0
 16  9  1  6  0  0  0
 17  9  1  6  0  0  0
 17 11  1  0  0  0  0
 17 22  1  0  0  0  0
 18 19  1  1  0  0  0
 18 20  1  0  0  0  0
 19  3  1  0  0  0  0
 20 13  1  6  0  0  0
 20 21  1  0  0  0  0
 21 15  1  6  0  0  0
 21 22  1  0  0  0  0
 22  6  1  6  0  0  0
M  END
>  <CHROM.1>
60.67004767,73.88040192,167.85421096,5.39374452,-11.42924385,24.83959254
-1.82977852,0.42360164,-0.50357368

>  <Name>
2f4s_lig

>  <RI>
0

>  <Rbt.Current_Directory>
/home/itssahil/PROJECTS/Mol_Feturizer/New_Systems/rnas/2f4s

>  <Rbt.Executable>
rbdock ($Id: //depot/dev/client3/rdock/2013.1/src/exe/rbdock.cxx#4 $)

>  <Rbt.Library>
libRbt.so (2013.1, Build901 2013/11/27)

>  <Rbt.Parameter_File>
/export/apps/rDock/src/rDock_2013.1_src/data/scripts/dock_solv.prm

>  <Rbt.Receptor>
prm/blind_docking_80.prm

>  <SCORE>
-11.0116

>  <SCORE.INTER>
-12.2477

>  <SCORE.INTER.CONST>
1

>  <SCORE.INTER.POLAR>
-0.923364

>  <SCORE.INTER.ROT>
3

>  <SCORE.INTER.SOLV>
24.1828

>  <SCORE.INTER.VDW>
-18.7482

>  <SCORE.INTER.norm>
-0.556715

>  <SCORE.INTRA>
0.93589

>  <SCORE.INTRA.DIHEDRAL>
-0.126678

>  <SCORE.INTRA.DIHEDRAL.0>
1.67653

>  <SCORE.INTRA.POLAR>
0

>  <SCORE.INTRA.POLAR.0>
0

>  <SCORE.INTRA.REPUL>
0

>  <SCORE.INTRA.REPUL.0>
0

>  <SCORE.INTRA.SOLV>
0.715928

>  <SCORE.INTRA.SOLV.lig_0>
-76.6701

>  <SCORE.INTRA.VDW>
0.641265

>  <SCORE.INTRA.VDW.0>
-1.53273

>  <SCORE.INTRA.norm>
0.0425405

>  <SCORE.RESTR>
0.300241

>  <SCORE.RESTR.CAVITY>
0.300241

>  <SCORE.RESTR.norm>
0.0136473

>  <SCORE.SYSTEM>
0

>  <SCORE.SYSTEM.CONST>
0

>  <SCORE.SYSTEM.DIHEDRAL>
0

>  <SCORE.SYSTEM.SOLV>
0

>  <SCORE.SYSTEM.norm>
0

>  <SCORE.heavy>
22

>  <SCORE.norm>
-0.500527

>  <RMSD>
34.063

$$$$
2f4s_lig
 OpenBabel11021811433D
libRbt.so/2013.1/901 2013/11/27
 22 23  0  0  0  0  0  0  0  0999 V2000
    4.7313  -17.0599   27.1869 N   0  0  0  0  0  0  0  0  0  0  0  0
    3.5622  -12.1912   27.5105 N   0  0  0  0  0  0  0  0  0  0  0  0
    4.6013   -8.7132   29.1246 N   0  0  0  0  0  0  0  0  0  0  0  0
    5.7332  -14.0318   23.4009 O   0  0  0  0  0  0  0  0  0  0  0  0
    5.6359  -14.1034   24.8529 C   0  0  2  0  0  0  0  0  0  0  0  0
    5.5519   -9.9534   22.6850 N   0  0  0  0  0  0  0  0  0  0  0  0
    6.1646  -16.5076   24.8142 O   0  0  0  0  0  0  0  0  0  0  0  0
    5.2245  -15.5366   25.2889 C   0  0  1  0  0  0  0  0  0  0  0  0
    5.0116  -11.7418   25.0572 O   0  0  0  0  0  0  0  0  0  0  0  0
    5.1426  -15.6537   26.8059 C   0  0  1  0  0  0  0  0  0  0  0  0
    3.5106  -10.1747   25.8548 O   0  0  0  0  0  0  0  0  0  0  0  0
    4.1087  -14.6149   27.3580 C   0  0  0  0  0  0  0  0  0  0  0  0
    6.0018   -7.7613   27.0610 O   0  0  0  0  0  0  0  0  0  0  0  0
    4.5743  -13.1694   26.9327 C   0  0  1  0  0  0  0  0  0  0  0  0
    6.4711   -7.7294   24.2523 O   0  0  0  0  0  0  0  0  0  0  0  0
    4.5888  -13.0533   25.3976 C   0  0  2  0  0  0  0  0  0  0  0  0
    4.1220  -10.7336   24.6113 C   0  0  1  0  0  0  0  0  0  0  0  0
    4.4457   -9.5464   26.8303 C   0  0  2  0  0  0  0  0  0  0  0  0
    3.6334   -9.0662   28.0370 C   0  0  0  0  0  0  0  0  0  0  0  0
    5.1115   -8.3683   26.1550 C   0  0  2  0  0  0  0  0  0  0  0  0
    5.8454   -8.8422   24.9017 C   0  0  1  0  0  0  0  0  0  0  0  0
    4.8367   -9.5113   23.9358 C   0  0  1  0  0  0  0  0  0  0  0  0
  5  4  1  6  0  0  0
  5  8  1  0  0  0  0
  5 16  1  0  0  0  0
  8  7  1  1  0  0  0
  8 10  1  0  0  0  0
 10  1  1  6  0  0  0
 10 12  1  0  0  0  0
 11 18  1  0  0  0  0
 12 14  1  0  0  0  0
 14  2  1  1  0  0  0
 14 16  1  0  0  0  0
 16  9  1  1  0  0  0
 17  9  1  1  0  0  0
 17 11  1  0  0  0  0
 17 22  1  0  0  0  0
 18 19  1  1  0  0  0
 18 20  1  0  0  0  0
 19  3  1  0  0  0  0
 20 13  1  1  0  0  0
 20 21  1  0  0  0  0
 21 15  1  6  0  0  0
 21 22  1  0  0  0  0
 22  6  1  6  0  0  0
M  END
>  <CHROM.1>
139.26989189,81.57304494,167.94831045,4.95713936,-11.71066452,25.80003918
1.56174981,-1.23585542,-3.12584767

>  <Name>
2f4s_lig

>  <RI>
0

>  <Rbt.Current_Directory>
/home/itssahil/PROJECTS/Mol_Feturizer/New_Systems/rnas/2f4s

>  <Rbt.Executable>
rbdock ($Id: //depot/dev/client3/rdock/2013.1/src/exe/rbdock.cxx#4 $)

>  <Rbt.Library>
libRbt.so (2013.1, Build901 2013/11/27)

>  <Rbt.Parameter_File>
/export/apps/rDock/src/rDock_2013.1_src/data/scripts/dock_solv.prm

>  <Rbt.Receptor>
prm/blind_docking_60.prm

>  <SCORE>
-3.63191

>  <SCORE.INTER>
-9.99169

>  <SCORE.INTER.CONST>
1

>  <SCORE.INTER.POLAR>
-1.32889

>  <SCORE.INTER.ROT>
3

>  <SCORE.INTER.SOLV>
21.8674

>  <SCORE.INTER.VDW>
-15.1207

>  <SCORE.INTER.norm>
-0.454168

>  <SCORE.INTRA>
5.56168

>  <SCORE.INTRA.DIHEDRAL>
6.44531

>  <SCORE.INTRA.DIHEDRAL.0>
1.67653

>  <SCORE.INTRA.POLAR>
0

>  <SCORE.INTRA.POLAR.0>
0

>  <SCORE.INTRA.REPUL>
0

>  <SCORE.INTRA.REPUL.0>
0

>  <SCORE.INTRA.SOLV>
4.59035

>  <SCORE.INTRA.SOLV.lig_0>
-76.6701

>  <SCORE.INTRA.VDW>
0.0438449

>  <SCORE.INTRA.VDW.0>
-1.53273

>  <SCORE.INTRA.norm>
0.252803

>  <SCORE.RESTR>
0.798102

>  <SCORE.RESTR.CAVITY>
0.798102

>  <SCORE.RESTR.norm>
0.0362773

>  <SCORE.SYSTEM>
0

>  <SCORE.SYSTEM.CONST>
0

>  <SCORE.SYSTEM.DIHEDRAL>
0

>  <SCORE.SYSTEM.SOLV>
0

>  <SCORE.SYSTEM.norm>
0

>  <SCORE.heavy>
22

>  <SCORE.norm>
-0.165087

>  <RMSD>
34.066

$$$$
2f4s_lig
 OpenBabel11021811433D
libRbt.so/2013.1/901 2013/11/27
 22 23  0  0  0  0  0  0  0  0999 V2000
    4.9532  -16.4195   27.4199 N   0  0  0  0  0  0  0  0  0  0  0  0
    5.9671  -13.7364   23.3030 N   0  0  0  0  0  0  0  0  0  0  0  0
    9.2666   -9.5770   23.0051 N   0  0  0  0  0  0  0  0  0  0  0  0
    4.3301  -11.5086   27.4681 O   0  0  0  0  0  0  0  0  0  0  0  0
    4.2596  -12.6926   26.6219 C   0  0  2  0  0  0  0  0  0  0  0  0
    2.6983   -9.3935   23.8622 N   0  0  0  0  0  0  0  0  0  0  0  0
    3.7932  -14.1158   28.5760 O   0  0  0  0  0  0  0  0  0  0  0  0
    4.6497  -13.9550   27.4392 C   0  0  1  0  0  0  0  0  0  0  0  0
    4.8027  -11.4325   24.5907 O   0  0  0  0  0  0  0  0  0  0  0  0
    4.5575  -15.2169   26.5900 C   0  0  1  0  0  0  0  0  0  0  0  0
    6.2231   -9.7067   25.1817 O   0  0  0  0  0  0  0  0  0  0  0  0
    5.4966  -15.0815   25.3440 C   0  0  0  0  0  0  0  0  0  0  0  0
    7.0843   -8.6643   21.7674 O   0  0  0  0  0  0  0  0  0  0  0  0
    5.0512  -13.8157   24.5155 C   0  0  1  0  0  0  0  0  0  0  0  0
    4.2982   -8.0835   21.8692 O   0  0  0  0  0  0  0  0  0  0  0  0
    5.2125  -12.5456   25.3704 C   0  0  2  0  0  0  0  0  0  0  0  0
    4.7863  -10.1054   25.0858 C   0  0  1  0  0  0  0  0  0  0  0  0
    6.9968   -9.6993   23.9080 C   0  0  2  0  0  0  0  0  0  0  0  0
    8.4404   -9.2950   24.2226 C   0  0  0  0  0  0  0  0  0  0  0  0
    6.3678   -8.6851   22.9790 C   0  0  2  0  0  0  0  0  0  0  0  0
    4.9023   -9.0455   22.7416 C   0  0  1  0  0  0  0  0  0  0  0  0
    4.1511   -9.0675   24.0956 C   0  0  1  0  0  0  0  0  0  0  0  0
  5  4  1  1  0  0  0
  5  8  1  0  0  0  0
  5 16  1  0  0  0  0
  8  7  1  1  0  0  0
  8 10  1  0  0  0  0
 10  1  1  1  0  0  0
 10 12  1  0  0  0  0
 11 18  1  0  0  0  0
 12 14  1  0  0  0  0
 14  2  1  6  0  0  0
 14 16  1  0  0  0  0
 16  9  1  6  0  0  0
 17  9  1  6  0  0  0
 17 11  1  0  0  0  0
 17 22  1  0  0  0  0
 18 19  1  1  0  0  0
 18 20  1  0  0  0  0
 19  3  1  0  0  0  0
 20 13  1  6  0  0  0
 20 21  1  0  0  0  0
 21 15  1  6  0  0  0
 21 22  1  0  0  0  0
 22  6  1  6  0  0  0
M  END
>  <CHROM.1>
61.31687063,72.26924691,167.92934500,5.37486286,-11.41313666,24.81602188
-1.82169848,0.40726047,-0.51408625

>  <Name>
2f4s_lig

>  <RI>
0

>  <Rbt.Current_Directory>
/home/itssahil/PROJECTS/Mol_Feturizer/New_Systems/rnas/2f4s

>  <Rbt.Executable>
rbdock ($Id: //depot/dev/client3/rdock/2013.1/src/exe/rbdock.cxx#4 $)

>  <Rbt.Library>
libRbt.so (2013.1, Build901 2013/11/27)

>  <Rbt.Parameter_File>
/export/apps/rDock/src/rDock_2013.1_src/data/scripts/dock_solv.prm

>  <Rbt.Receptor>
prm/blind_docking_80.prm

>  <SCORE>
-11.1095

>  <SCORE.INTER>
-12.2537

>  <SCORE.INTER.CONST>
1

>  <SCORE.INTER.POLAR>
-0.915071

>  <SCORE.INTER.ROT>
3

>  <SCORE.INTER.SOLV>
24.4196

>  <SCORE.INTER.VDW>
-18.8588

>  <SCORE.INTER.norm>
-0.556987

>  <SCORE.INTRA>
0.801777

>  <SCORE.INTRA.DIHEDRAL>
-0.312172

>  <SCORE.INTRA.DIHEDRAL.0>
1.67653

>  <SCORE.INTRA.POLAR>
0

>  <SCORE.INTRA.POLAR.0>
0

>  <SCORE.INTRA.REPUL>
0

>  <SCORE.INTRA.REPUL.0>
0

>  <SCORE.INTRA.SOLV>
0.709207

>  <SCORE.INTRA.SOLV.lig_0>
-76.6701

>  <SCORE.INTRA.VDW>
0.60326

>  <SCORE.INTRA.VDW.0>
-1.53273

>  <SCORE.INTRA.norm>
0.0364444

>  <SCORE.RESTR>
0.342447

>  <SCORE.RESTR.CAVITY>
0.342447

>  <SCORE.RESTR.norm>
0.0155658

>  <SCORE.SYSTEM>
0

>  <SCORE.SYSTEM.CONST>
0

>  <SCORE.SYSTEM.DIHEDRAL>
0

>  <SCORE.SYSTEM.SOLV>
0

>  <SCORE.SYSTEM.norm>
0

>  <SCORE.heavy>
22

>  <SCORE.norm>
-0.504977

>  <RMSD>
34.067

$$$$
2f4s_lig
 OpenBabel11021811433D
libRbt.so/2013.1/901 2013/11/27
 22 23  0  0  0  0  0  0  0  0999 V2000
    4.7239  -17.0506   27.1939 N   0  0  0  0  0  0  0  0  0  0  0  0
    3.5691  -12.1779   27.5088 N   0  0  0  0  0  0  0  0  0  0  0  0
    4.5825   -8.7490   29.1177 N   0  0  0  0  0  0  0  0  0  0  0  0
    5.7256  -14.0341   23.3985 O   0  0  0  0  0  0  0  0  0  0  0  0
    5.6314  -14.1020   24.8509 C   0  0  2  0  0  0  0  0  0  0  0  0
    5.5690   -9.9703   22.6670 N   0  0  0  0  0  0  0  0  0  0  0  0
    6.1533  -16.5078   24.8166 O   0  0  0  0  0  0  0  0  0  0  0  0
    5.2170  -15.5331   25.2911 C   0  0  1  0  0  0  0  0  0  0  0  0
    5.0142  -11.7382   25.0511 O   0  0  0  0  0  0  0  0  0  0  0  0
    5.1382  -15.6465   26.8087 C   0  0  1  0  0  0  0  0  0  0  0  0
    3.5115  -10.1624   25.8282 O   0  0  0  0  0  0  0  0  0  0  0  0
    4.1084  -14.6034   27.3607 C   0  0  0  0  0  0  0  0  0  0  0  0
    6.0002   -7.7428   27.0270 O   0  0  0  0  0  0  0  0  0  0  0  0
    4.5772  -13.1603   26.9309 C   0  0  1  0  0  0  0  0  0  0  0  0
    6.4836   -7.7347   24.2205 O   0  0  0  0  0  0  0  0  0  0  0  0
    4.5885  -13.0477   25.3955 C   0  0  2  0  0  0  0  0  0  0  0  0
    4.1283  -10.7325   24.5925 C   0  0  1  0  0  0  0  0  0  0  0  0
    4.4426   -9.5274   26.8033 C   0  0  2  0  0  0  0  0  0  0  0  0
    3.6251   -9.0362   28.0018 C   0  0  0  0  0  0  0  0  0  0  0  0
    5.1136   -8.3560   26.1215 C   0  0  2  0  0  0  0  0  0  0  0  0
    5.8530   -8.8412   24.8759 C   0  0  1  0  0  0  0  0  0  0  0  0
    4.8482   -9.5168   23.9105 C   0  0  1  0  0  0  0  0  0  0  0  0
  5  4  1  6  0  0  0
  5  8  1  0  0  0  0
  5 16  1  0  0  0  0
  8  7  1  1  0  0  0
  8 10  1  0  0  0  0
 10  1  1  6  0  0  0
 10 12  1  0  0  0  0
 11 18  1  0  0  0  0
 12 14  1  0  0  0  0
 14  2  1  1  0  0  0
 14 16  1  0  0  0  0
 16  9  1  1  0  0  0
 17  9  1  1  0  0  0
 17 11  1  0  0  0  0
 17 22  1  0  0  0  0
 18 19  1  1  0  0  0
 18 20  1  0  0  0  0
 19  3  1  0  0  0  0
 20 13  1  1  0  0  0
 20 21  1  0  0  0  0
 21 15  1  6  0  0  0
 21 22  1  0  0  0  0
 22  6  1  6  0  0  0
M  END
>  <CHROM.1>
138.63496827,81.81199247,164.81124361,4.95686747,-11.70649822,25.78711132
1.56550688,-1.23366829,-3.12760250

>  <Name>
2f4s_lig

>  <RI>
0

>  <Rbt.Current_Directory>
/home/itssahil/PROJECTS/Mol_Feturizer/New_Systems/rnas/2f4s

>  <Rbt.Executable>
rbdock ($Id: //depot/dev/client3/rdock/2013.1/src/exe/rbdock.cxx#4 $)

>  <Rbt.Library>
libRbt.so (2013.1, Build901 2013/11/27)

>  <Rbt.Parameter_File>
/export/apps/rDock/src/rDock_2013.1_src/data/scripts/dock_solv.prm

>  <Rbt.Receptor>
prm/blind_docking_60.prm

>  <SCORE>
-3.62143

>  <SCORE.INTER>
-10.0418

>  <SCORE.INTER.CONST>
1

>  <SCORE.INTER.POLAR>
-1.34383

>  <SCORE.INTER.ROT>
3

>  <SCORE.INTER.SOLV>
21.9384

>  <SCORE.INTER.VDW>
-15.1279

>  <SCORE.INTER.norm>
-0.456445

>  <SCORE.INTRA>
5.62223

>  <SCORE.INTRA.DIHEDRAL>
6.86498

>  <SCORE.INTRA.DIHEDRAL.0>
1.67653

>  <SCORE.INTRA.POLAR>
0

>  <SCORE.INTRA.POLAR.0>
0

>  <SCORE.INTRA.REPUL>
0

>  <SCORE.INTRA.REPUL.0>
0

>  <SCORE.INTRA.SOLV>
4.55223

>  <SCORE.INTRA.SOLV.lig_0>
-76.6701

>  <SCORE.INTRA.VDW>
-0.0863747

>  <SCORE.INTRA.VDW.0>
-1.53273

>  <SCORE.INTRA.norm>
0.255556

>  <SCORE.RESTR>
0.798125

>  <SCORE.RESTR.CAVITY>
0.798125

>  <SCORE.RESTR.norm>
0.0362784

>  <SCORE.SYSTEM>
0

>  <SCORE.SYSTEM.CONST>
0

>  <SCORE.SYSTEM.DIHEDRAL>
0

>  <SCORE.SYSTEM.SOLV>
0

>  <SCORE.SYSTEM.norm>
0

>  <SCORE.heavy>
22

>  <SCORE.norm>
-0.16461

>  <RMSD>
34.068

$$$$
2f4s_lig
 OpenBabel11021811433D
libRbt.so/2013.1/901 2013/11/27
 22 23  0  0  0  0  0  0  0  0999 V2000
    4.4005   -6.2684   27.0137 N   0  0  0  0  0  0  0  0  0  0  0  0
    5.5110   -9.8074   23.6346 N   0  0  0  0  0  0  0  0  0  0  0  0
    5.9974  -16.5621   27.3149 N   0  0  0  0  0  0  0  0  0  0  0  0
    3.4379  -11.0192   28.0192 O   0  0  0  0  0  0  0  0  0  0  0  0
    4.3562  -10.1300   27.3200 C   0  0  2  0  0  0  0  0  0  0  0  0
    1.9821  -11.9936   24.8288 N   0  0  0  0  0  0  0  0  0  0  0  0
    3.8605   -8.3056   28.8972 O   0  0  0  0  0  0  0  0  0  0  0  0
    3.9138   -8.6527   27.5084 C   0  0  1  0  0  0  0  0  0  0  0  0
    4.8911  -11.8096   25.6167 O   0  0  0  0  0  0  0  0  0  0  0  0
    4.8717   -7.6930   26.8132 C   0  0  1  0  0  0  0  0  0  0  0  0
    5.2251  -13.9275   24.7519 O   0  0  0  0  0  0  0  0  0  0  0  0
    4.9414   -8.0344   25.2863 C   0  0  0  0  0  0  0  0  0  0  0  0
    3.6352  -15.7744   27.4990 O   0  0  0  0  0  0  0  0  0  0  0  0
    5.4300   -9.5255   25.1277 C   0  0  1  0  0  0  0  0  0  0  0  0
    1.4363  -14.3166   26.4268 O   0  0  0  0  0  0  0  0  0  0  0  0
    4.4162  -10.4822   25.7812 C   0  0  2  0  0  0  0  0  0  0  0  0
    4.3980  -12.6900   24.6226 C   0  0  1  0  0  0  0  0  0  0  0  0
    5.1522  -14.6419   26.0578 C   0  0  2  0  0  0  0  0  0  0  0  0
    6.0850  -15.8552   25.9969 C   0  0  0  0  0  0  0  0  0  0  0  0
    3.7256  -15.0980   26.2677 C   0  0  2  0  0  0  0  0  0  0  0  0
    2.7905  -13.8903   26.2372 C   0  0  1  0  0  0  0  0  0  0  0  0
    2.9251  -13.1683   24.8739 C   0  0  1  0  0  0  0  0  0  0  0  0
  5  4  1  1  0  0  0
  5  8  1  0  0  0  0
  5 16  1  0  0  0  0
  8  7  1  1  0  0  0
  8 10  1  0  0  0  0
 10  1  1  6  0  0  0
 10 12  1  0  0  0  0
 11 18  1  0  0  0  0
 12 14  1  0  0  0  0
 14  2  1  6  0  0  0
 14 16  1  0  0  0  0
 16  9  1  1  0  0  0
 17  9  1  1  0  0  0
 17 11  1  0  0  0  0
 17 22  1  0  0  0  0
 18 19  1  6  0  0  0
 18 20  1  0  0  0  0
 19  3  1  0  0  0  0
 20 13  1  1  0  0  0
 20 21  1  0  0  0  0
 21 15  1  6  0  0  0
 21 22  1  0  0  0  0
 22  6  1  1  0  0  0
M  END
>  <CHROM.1>
142.51480146,176.49660401,-179.89393679,4.22716424,-11.83650924,26.20735569
1.52408212,0.94642563,0.09679277

>  <Name>
2f4s_lig

>  <RI>
8.9913e+06

>  <Rbt.Current_Directory>
/home/itssahil/PROJECTS/Mol_Feturizer/New_Systems/rnas/2f4s

>  <Rbt.Executable>
rbdock ($Id: //depot/dev/client3/rdock/2013.1/src/exe/rbdock.cxx#4 $)

>  <Rbt.Library>
libRbt.so (2013.1, Build901 2013/11/27)

>  <Rbt.Parameter_File>
/export/apps/rDock/src/rDock_2013.1_src/data/scripts/dock_solv.prm

>  <Rbt.Receptor>
prm/blind_docking_40.prm

>  <SCORE>
-2.6562

>  <SCORE.INTER>
-6.60499

>  <SCORE.INTER.CONST>
1

>  <SCORE.INTER.POLAR>
-1.15222

>  <SCORE.INTER.ROT>
3

>  <SCORE.INTER.SOLV>
16.9024

>  <SCORE.INTER.VDW>
-11.7967

>  <SCORE.INTER.norm>
-0.300227

>  <SCORE.INTRA>
3.76773

>  <SCORE.INTRA.DIHEDRAL>
3.47175

>  <SCORE.INTRA.DIHEDRAL.0>
1.67653

>  <SCORE.INTRA.POLAR>
0

>  <SCORE.INTRA.POLAR.0>
0

>  <SCORE.INTRA.REPUL>
0

>  <SCORE.INTRA.REPUL.0>
0

>  <SCORE.INTRA.SOLV>
3.44649

>  <SCORE.INTRA.SOLV.lig_0>
-76.6701

>  <SCORE.INTRA.VDW>
0.30861

>  <SCORE.INTRA.VDW.0>
-1.53273

>  <SCORE.INTRA.norm>
0.17126

>  <SCORE.RESTR>
0.181059

>  <SCORE.RESTR.CAVITY>
0.181059

>  <SCORE.RESTR.norm>
0.00822996

>  <SCORE.SYSTEM>
0

>  <SCORE.SYSTEM.CONST>
0

>  <SCORE.SYSTEM.DIHEDRAL>
0

>  <SCORE.SYSTEM.SOLV>
0

>  <SCORE.SYSTEM.norm>
0

>  <SCORE.heavy>
22

>  <SCORE.norm>
-0.120736

>  <RMSD>
34.069

$$$$
2f4s_lig
 OpenBabel11021811433D
libRbt.so/2013.1/901 2013/11/27
 22 23  0  0  0  0  0  0  0  0999 V2000
    4.7163  -17.0686   27.2139 N   0  0  0  0  0  0  0  0  0  0  0  0
    3.6503  -12.1757   27.5278 N   0  0  0  0  0  0  0  0  0  0  0  0
    4.5445   -8.7961   29.1093 N   0  0  0  0  0  0  0  0  0  0  0  0
    5.7300  -14.0798   23.3998 O   0  0  0  0  0  0  0  0  0  0  0  0
    5.6501  -14.1424   24.8533 C   0  0  2  0  0  0  0  0  0  0  0  0
    5.7060  -10.0093   22.6811 N   0  0  0  0  0  0  0  0  0  0  0  0
    6.1295  -16.5570   24.8200 O   0  0  0  0  0  0  0  0  0  0  0  0
    5.2155  -15.5649   25.3019 C   0  0  1  0  0  0  0  0  0  0  0  0
    5.0765  -11.7676   25.0537 O   0  0  0  0  0  0  0  0  0  0  0  0
    5.1510  -15.6729   26.8204 C   0  0  1  0  0  0  0  0  0  0  0  0
    3.5611  -10.1820   25.7848 O   0  0  0  0  0  0  0  0  0  0  0  0
    4.1456  -14.6107   27.3805 C   0  0  0  0  0  0  0  0  0  0  0  0
    6.0284   -7.7717   27.0453 O   0  0  0  0  0  0  0  0  0  0  0  0
    4.6348  -13.1770   26.9419 C   0  0  1  0  0  0  0  0  0  0  0  0
    6.5891   -7.7741   24.2532 O   0  0  0  0  0  0  0  0  0  0  0  0
    4.6317  -13.0686   25.4062 C   0  0  2  0  0  0  0  0  0  0  0  0
    4.2088  -10.7586   24.5681 C   0  0  1  0  0  0  0  0  0  0  0  0
    4.4683   -9.5490   26.7834 C   0  0  2  0  0  0  0  0  0  0  0  0
    3.6206   -9.0502   27.9577 C   0  0  0  0  0  0  0  0  0  0  0  0
    5.1639   -8.3829   26.1173 C   0  0  2  0  0  0  0  0  0  0  0  0
    5.9349   -8.8755   24.8939 C   0  0  1  0  0  0  0  0  0  0  0  0
    4.9536   -9.5486   23.9029 C   0  0  1  0  0  0  0  0  0  0  0  0
  5  4  1  6  0  0  0
  5  8  1  0  0  0  0
  5 16  1  0  0  0  0
  8  7  1  1  0  0  0
  8 10  1  0  0  0  0
 10  1  1  6  0  0  0
 10 12  1  0  0  0  0
 11 18  1  0  0  0  0
 12 14  1  0  0  0  0
 14  2  1  1  0  0  0
 14 16  1  0  0  0  0
 16  9  1  1  0  0  0
 17  9  1  1  0  0  0
 17 11  1  0  0  0  0
 17 22  1  0  0  0  0
 18 19  1  1  0  0  0
 18 20  1  0  0  0  0
 19  3  1  0  0  0  0
 20 13  1  1  0  0  0
 20 21  1  0  0  0  0
 21 15  1  6  0  0  0
 21 22  1  0  0  0  0
 22  6  1  6  0  0  0
M  END
>  <CHROM.1>
136.90568014,80.96658714,163.47521240,4.99771843,-11.73460942,25.78914064
1.58476743,-1.22230755,-3.11090386

>  <Name>
2f4s_lig

>  <RI>
0

>  <Rbt.Current_Directory>
/home/itssahil/PROJECTS/Mol_Feturizer/New_Systems/rnas/2f4s

>  <Rbt.Executable>
rbdock ($Id: //depot/dev/client3/rdock/2013.1/src/exe/rbdock.cxx#4 $)

>  <Rbt.Library>
libRbt.so (2013.1, Build901 2013/11/27)

>  <Rbt.Parameter_File>
/export/apps/rDock/src/rDock_2013.1_src/data/scripts/dock_solv.prm

>  <Rbt.Receptor>
prm/blind_docking_60.prm

>  <SCORE>
-3.26806

>  <SCORE.INTER>
-9.73929

>  <SCORE.INTER.CONST>
1

>  <SCORE.INTER.POLAR>
-1.32362

>  <SCORE.INTER.ROT>
3

>  <SCORE.INTER.SOLV>
22.2266

>  <SCORE.INTER.VDW>
-15.0897

>  <SCORE.INTER.norm>
-0.442695

>  <SCORE.INTRA>
5.76424

>  <SCORE.INTRA.DIHEDRAL>
7.12039

>  <SCORE.INTRA.DIHEDRAL.0>
1.67653

>  <SCORE.INTRA.POLAR>
0

>  <SCORE.INTRA.POLAR.0>
0

>  <SCORE.INTRA.REPUL>
0

>  <SCORE.INTRA.REPUL.0>
0

>  <SCORE.INTRA.SOLV>
4.62887

>  <SCORE.INTRA.SOLV.lig_0>
-76.6701

>  <SCORE.INTRA.VDW>
-0.110395

>  <SCORE.INTRA.VDW.0>
-1.53273

>  <SCORE.INTRA.norm>
0.262011

>  <SCORE.RESTR>
0.706991

>  <SCORE.RESTR.CAVITY>
0.706991

>  <SCORE.RESTR.norm>
0.032136

>  <SCORE.SYSTEM>
0

>  <SCORE.SYSTEM.CONST>
0

>  <SCORE.SYSTEM.DIHEDRAL>
0

>  <SCORE.SYSTEM.SOLV>
0

>  <SCORE.SYSTEM.norm>
0

>  <SCORE.heavy>
22

>  <SCORE.norm>
-0.148548

>  <RMSD>
34.070

$$$$
2f4s_lig
 OpenBabel11021811433D
libRbt.so/2013.1/901 2013/11/27
 22 23  0  0  0  0  0  0  0  0999 V2000
    4.7916  -16.3301   27.4356 N   0  0  0  0  0  0  0  0  0  0  0  0
    2.6566  -11.8143   26.9615 N   0  0  0  0  0  0  0  0  0  0  0  0
    8.7003   -9.3355   23.5552 N   0  0  0  0  0  0  0  0  0  0  0  0
    5.7364  -13.5692   23.4366 O   0  0  0  0  0  0  0  0  0  0  0  0
    5.4387  -13.5083   24.8615 C   0  0  2  0  0  0  0  0  0  0  0  0
    3.2666   -8.8270   25.9838 N   0  0  0  0  0  0  0  0  0  0  0  0
    6.4277  -15.7360   25.2086 O   0  0  0  0  0  0  0  0  0  0  0  0
    5.2554  -14.9429   25.4289 C   0  0  1  0  0  0  0  0  0  0  0  0
    4.3406  -11.3250   24.6710 O   0  0  0  0  0  0  0  0  0  0  0  0
    4.9718  -14.9161   26.9258 C   0  0  1  0  0  0  0  0  0  0  0  0
    6.4345  -10.3474   24.5996 O   0  0  0  0  0  0  0  0  0  0  0  0
    3.6837  -14.0689   27.2015 C   0  0  0  0  0  0  0  0  0  0  0  0
    5.7495   -8.0563   21.8126 O   0  0  0  0  0  0  0  0  0  0  0  0
    3.9156  -12.6099   26.6497 C   0  0  1  0  0  0  0  0  0  0  0  0
    3.9796   -7.0800   23.8188 O   0  0  0  0  0  0  0  0  0  0  0  0
    4.1367  -12.6537   25.1268 C   0  0  2  0  0  0  0  0  0  0  0  0
    5.1484  -10.3866   25.3591 C   0  0  1  0  0  0  0  0  0  0  0  0
    6.3530   -9.9094   23.1774 C   0  0  2  0  0  0  0  0  0  0  0  0
    7.7597   -9.9652   22.5738 C   0  0  0  0  0  0  0  0  0  0  0  0
    5.8357   -8.4885   23.1497 C   0  0  2  0  0  0  0  0  0  0  0  0
    4.4713   -8.4252   23.8340 C   0  0  1  0  0  0  0  0  0  0  0  0
    4.6049   -8.9163   25.2965 C   0  0  1  0  0  0  0  0  0  0  0  0
  5  4  1  6  0  0  0
  5  8  1  0  0  0  0
  5 16  1  0  0  0  0
  8  7  1  1  0  0  0
  8 10  1  0  0  0  0
 10  1  1  6  0  0  0
 10 12  1  0  0  0  0
 11 18  1  0  0  0  0
 12 14  1  0  0  0  0
 14  2  1  6  0  0  0
 14 16  1  0  0  0  0
 16  9  1  1  0  0  0
 17  9  1  6  0  0  0
 17 11  1  0  0  0  0
 17 22  1  0  0  0  0
 18 19  1  1  0  0  0
 18 20  1  0  0  0  0
 19  3  1  0  0  0  0
 20 13  1  6  0  0  0
 20 21  1  0  0  0  0
 21 15  1  1  0  0  0
 21 22  1  0  0  0  0
 22  6  1  6  0  0  0
M  END
>  <CHROM.1>
-74.39244601,102.04788026,-45.71999616,5.18194901,-11.40158111,24.82676852
1.71851066,-0.64962514,2.80648745

>  <Name>
2f4s_lig

>  <RI>
0

>  <Rbt.Current_Directory>
/home/itssahil/PROJECTS/Mol_Feturizer/New_Systems/rnas/2f4s

>  <Rbt.Executable>
rbdock ($Id: //depot/dev/client3/rdock/2013.1/src/exe/rbdock.cxx#4 $)

>  <Rbt.Library>
libRbt.so (2013.1, Build901 2013/11/27)

>  <Rbt.Parameter_File>
/export/apps/rDock/src/rDock_2013.1_src/data/scripts/dock_solv.prm

>  <Rbt.Receptor>
prm/blind_docking_80.prm

>  <SCORE>
-5.6124

>  <SCORE.INTER>
-11.4356

>  <SCORE.INTER.CONST>
1

>  <SCORE.INTER.POLAR>
-0.863943

>  <SCORE.INTER.ROT>
3

>  <SCORE.INTER.SOLV>
16.9755

>  <SCORE.INTER.VDW>
-16.0024

>  <SCORE.INTER.norm>
-0.519798

>  <SCORE.INTRA>
5.43438

>  <SCORE.INTRA.DIHEDRAL>
5.69526

>  <SCORE.INTRA.DIHEDRAL.0>
1.67653

>  <SCORE.INTRA.POLAR>
0

>  <SCORE.INTRA.POLAR.0>
0

>  <SCORE.INTRA.REPUL>
0

>  <SCORE.INTRA.REPUL.0>
0

>  <SCORE.INTRA.SOLV>
4.132

>  <SCORE.INTRA.SOLV.lig_0>
-76.6701

>  <SCORE.INTRA.VDW>
0.520751

>  <SCORE.INTRA.VDW.0>
-1.53273

>  <SCORE.INTRA.norm>
0.247017

>  <SCORE.RESTR>
0.388773

>  <SCORE.RESTR.CAVITY>
0.388773

>  <SCORE.RESTR.norm>
0.0176715

>  <SCORE.SYSTEM>
0

>  <SCORE.SYSTEM.CONST>
0

>  <SCORE.SYSTEM.DIHEDRAL>
0

>  <SCORE.SYSTEM.SOLV>
0

>  <SCORE.SYSTEM.norm>
0

>  <SCORE.heavy>
22

>  <SCORE.norm>
-0.255109

>  <RMSD>
34.070

$$$$
2f4s_lig
 OpenBabel11021811433D
libRbt.so/2013.1/901 2013/11/27
 22 23  0  0  0  0  0  0  0  0999 V2000
    4.6964  -17.0469   27.2162 N   0  0  0  0  0  0  0  0  0  0  0  0
    3.5810  -12.1627   27.4929 N   0  0  0  0  0  0  0  0  0  0  0  0
    4.5646   -8.7741   29.1102 N   0  0  0  0  0  0  0  0  0  0  0  0
    5.7284  -14.0673   23.4000 O   0  0  0  0  0  0  0  0  0  0  0  0
    5.6314  -14.1235   24.8527 C   0  0  2  0  0  0  0  0  0  0  0  0
    5.6203   -9.9709   22.6687 N   0  0  0  0  0  0  0  0  0  0  0  0
    6.1337  -16.5337   24.8372 O   0  0  0  0  0  0  0  0  0  0  0  0
    5.2047  -15.5478   25.3030 C   0  0  1  0  0  0  0  0  0  0  0  0
    5.0333  -11.7533   25.0342 O   0  0  0  0  0  0  0  0  0  0  0  0
    5.1227  -15.6491   26.8212 C   0  0  1  0  0  0  0  0  0  0  0  0
    3.5260  -10.1786   25.8046 O   0  0  0  0  0  0  0  0  0  0  0  0
    4.1007  -14.5936   27.3638 C   0  0  0  0  0  0  0  0  0  0  0  0
    6.0073   -7.7741   27.0484 O   0  0  0  0  0  0  0  0  0  0  0  0
    4.5819  -13.1576   26.9239 C   0  0  1  0  0  0  0  0  0  0  0  0
    6.5231   -7.7484   24.2477 O   0  0  0  0  0  0  0  0  0  0  0  0
    4.5964  -13.0567   25.3878 C   0  0  2  0  0  0  0  0  0  0  0  0
    4.1555  -10.7420   24.5723 C   0  0  1  0  0  0  0  0  0  0  0  0
    4.4476   -9.5528   26.7946 C   0  0  2  0  0  0  0  0  0  0  0  0
    3.6176   -9.0674   27.9870 C   0  0  0  0  0  0  0  0  0  0  0  0
    5.1295   -8.3786   26.1286 C   0  0  2  0  0  0  0  0  0  0  0  0
    5.8819   -8.8575   24.8883 C   0  0  1  0  0  0  0  0  0  0  0  0
    4.8865   -9.5238   23.9068 C   0  0  1  0  0  0  0  0  0  0  0  0
  5  4  1  6  0  0  0
  5  8  1  0  0  0  0
  5 16  1  0  0  0  0
  8  7  1  1  0  0  0
  8 10  1  0  0  0  0
 10  1  1  6  0  0  0
 10 12  1  0  0  0  0
 11 18  1  0  0  0  0
 12 14  1  0  0  0  0
 14  2  1  1  0  0  0
 14 16  1  0  0  0  0
 16  9  1  1  0  0  0
 17  9  1  1  0  0  0
 17 11  1  0  0  0  0
 17 22  1  0  0  0  0
 18 19  1  1  0  0  0
 18 20  1  0  0  0  0
 19  3  1  0  0  0  0
 20 13  1  1  0  0  0
 20 21  1  0  0  0  0
 21 15  1  6  0  0  0
 21 22  1  0  0  0  0
 22  6  1  6  0  0  0
M  END
>  <CHROM.1>
138.91916364,80.63987712,165.50385855,4.96445797,-11.72002292,25.78809411
1.57858090,-1.22827449,-3.11674066

>  <Name>
2f4s_lig

>  <RI>
0

>  <Rbt.Current_Directory>
/home/itssahil/PROJECTS/Mol_Feturizer/New_Systems/rnas/2f4s

>  <Rbt.Executable>
rbdock ($Id: //depot/dev/client3/rdock/2013.1/src/exe/rbdock.cxx#4 $)

>  <Rbt.Library>
libRbt.so (2013.1, Build901 2013/11/27)

>  <Rbt.Parameter_File>
/export/apps/rDock/src/rDock_2013.1_src/data/scripts/dock_solv.prm

>  <Rbt.Receptor>
prm/blind_docking_60.prm

>  <SCORE>
-3.52125

>  <SCORE.INTER>
-9.9669

>  <SCORE.INTER.CONST>
1

>  <SCORE.INTER.POLAR>
-1.34718

>  <SCORE.INTER.ROT>
3

>  <SCORE.INTER.SOLV>
21.9397

>  <SCORE.INTER.VDW>
-15.0672

>  <SCORE.INTER.norm>
-0.453041

>  <SCORE.INTRA>
5.67081

>  <SCORE.INTRA.DIHEDRAL>
6.56273

>  <SCORE.INTRA.DIHEDRAL.0>
1.67653

>  <SCORE.INTRA.POLAR>
0

>  <SCORE.INTRA.POLAR.0>
0

>  <SCORE.INTRA.REPUL>
0

>  <SCORE.INTRA.REPUL.0>
0

>  <SCORE.INTRA.SOLV>
4.67158

>  <SCORE.INTRA.SOLV.lig_0>
-76.6701

>  <SCORE.INTRA.VDW>
0.0536501

>  <SCORE.INTRA.VDW.0>
-1.53273

>  <SCORE.INTRA.norm>
0.257764

>  <SCORE.RESTR>
0.774846

>  <SCORE.RESTR.CAVITY>
0.774846

>  <SCORE.RESTR.norm>
0.0352203

>  <SCORE.SYSTEM>
0

>  <SCORE.SYSTEM.CONST>
0

>  <SCORE.SYSTEM.DIHEDRAL>
0

>  <SCORE.SYSTEM.SOLV>
0

>  <SCORE.SYSTEM.norm>
0

>  <SCORE.heavy>
22

>  <SCORE.norm>
-0.160057

>  <RMSD>
34.074

$$$$
2f4s_lig
 OpenBabel11021811433D
libRbt.so/2013.1/901 2013/11/27
 22 23  0  0  0  0  0  0  0  0999 V2000
    4.7170  -17.0547   27.2005 N   0  0  0  0  0  0  0  0  0  0  0  0
    3.5723  -12.1787   27.5015 N   0  0  0  0  0  0  0  0  0  0  0  0
    4.5730   -8.7613   29.1159 N   0  0  0  0  0  0  0  0  0  0  0  0
    5.7266  -14.0508   23.3973 O   0  0  0  0  0  0  0  0  0  0  0  0
    5.6317  -14.1145   24.8498 C   0  0  2  0  0  0  0  0  0  0  0  0
    5.5831   -9.9700   22.6694 N   0  0  0  0  0  0  0  0  0  0  0  0
    6.1485  -16.5215   24.8223 O   0  0  0  0  0  0  0  0  0  0  0  0
    5.2141  -15.5435   25.2938 C   0  0  1  0  0  0  0  0  0  0  0  0
    5.0194  -11.7489   25.0432 O   0  0  0  0  0  0  0  0  0  0  0  0
    5.1344  -15.6525   26.8116 C   0  0  1  0  0  0  0  0  0  0  0  0
    3.5134  -10.1769   25.8217 O   0  0  0  0  0  0  0  0  0  0  0  0
    4.1067  -14.6058   27.3603 C   0  0  0  0  0  0  0  0  0  0  0  0
    5.9970   -7.7624   27.0412 O   0  0  0  0  0  0  0  0  0  0  0  0
    4.5786  -13.1648   26.9267 C   0  0  1  0  0  0  0  0  0  0  0  0
    6.4914   -7.7414   24.2366 O   0  0  0  0  0  0  0  0  0  0  0  0
    4.5908  -13.0565   25.3911 C   0  0  2  0  0  0  0  0  0  0  0  0
    4.1351  -10.7412   24.5858 C   0  0  1  0  0  0  0  0  0  0  0  0
    4.4406   -9.5462   26.8032 C   0  0  2  0  0  0  0  0  0  0  0  0
    3.6183   -9.0606   28.0008 C   0  0  0  0  0  0  0  0  0  0  0  0
    5.1140   -8.3715   26.1295 C   0  0  2  0  0  0  0  0  0  0  0  0
    5.8584   -8.8510   24.8845 C   0  0  1  0  0  0  0  0  0  0  0  0
    4.8574   -9.5223   23.9121 C   0  0  1  0  0  0  0  0  0  0  0  0
  5  4  1  6  0  0  0
  5  8  1  0  0  0  0
  5 16  1  0  0  0  0
  8  7  1  1  0  0  0
  8 10  1  0  0  0  0
 10  1  1  6  0  0  0
 10 12  1  0  0  0  0
 11 18  1  0  0  0  0
 12 14  1  0  0  0  0
 14  2  1  1  0  0  0
 14 16  1  0  0  0  0
 16  9  1  1  0  0  0
 17  9  1  1  0  0  0
 17 11  1  0  0  0  0
 17 22  1  0  0  0  0
 18 19  1  1  0  0  0
 18 20  1  0  0  0  0
 19  3  1  0  0  0  0
 20 13  1  1  0  0  0
 20 21  1  0  0  0  0
 21 15  1  6  0  0  0
 21 22  1  0  0  0  0
 22  6  1  6  0  0  0
M  END
>  <CHROM.1>
138.85491977,81.24651356,165.53511063,4.95766407,-11.71690029,25.78838513
1.56736950,-1.23219001,-3.12544342

>  <Name>
2f4s_lig

>  <RI>
0

>  <Rbt.Current_Directory>
/home/itssahil/PROJECTS/Mol_Feturizer/New_Systems/rnas/2f4s

>  <Rbt.Executable>
rbdock ($Id: //depot/dev/client3/rdock/2013.1/src/exe/rbdock.cxx#4 $)

>  <Rbt.Library>
libRbt.so (2013.1, Build901 2013/11/27)

>  <Rbt.Parameter_File>
/export/apps/rDock/src/rDock_2013.1_src/data/scripts/dock_solv.prm

>  <Rbt.Receptor>
prm/blind_docking_60.prm

>  <SCORE>
-3.65813

>  <SCORE.INTER>
-10.088

>  <SCORE.INTER.CONST>
1

>  <SCORE.INTER.POLAR>
-1.34267

>  <SCORE.INTER.ROT>
3

>  <SCORE.INTER.SOLV>
21.922

>  <SCORE.INTER.VDW>
-15.1571

>  <SCORE.INTER.norm>
-0.458544

>  <SCORE.INTRA>
5.63044

>  <SCORE.INTRA.DIHEDRAL>
6.66819

>  <SCORE.INTRA.DIHEDRAL.0>
1.67653

>  <SCORE.INTRA.POLAR>
0

>  <SCORE.INTRA.POLAR.0>
0

>  <SCORE.INTRA.REPUL>
0

>  <SCORE.INTRA.REPUL.0>
0

>  <SCORE.INTRA.SOLV>
4.61163

>  <SCORE.INTRA.SOLV.lig_0>
-76.6701

>  <SCORE.INTRA.VDW>
-0.00946882

>  <SCORE.INTRA.VDW.0>
-1.53273

>  <SCORE.INTRA.norm>
0.255929

>  <SCORE.RESTR>
0.7994

>  <SCORE.RESTR.CAVITY>
0.7994

>  <SCORE.RESTR.norm>
0.0363364

>  <SCORE.SYSTEM>
0

>  <SCORE.SYSTEM.CONST>
0

>  <SCORE.SYSTEM.DIHEDRAL>
0

>  <SCORE.SYSTEM.SOLV>
0

>  <SCORE.SYSTEM.norm>
0

>  <SCORE.heavy>
22

>  <SCORE.norm>
-0.166279

>  <RMSD>
34.075

$$$$
2f4s_lig
 OpenBabel11021811433D
libRbt.so/2013.1/901 2013/11/27
 22 23  0  0  0  0  0  0  0  0999 V2000
    4.6213  -16.2984   27.4000 N   0  0  0  0  0  0  0  0  0  0  0  0
    2.5822  -11.7520   26.8098 N   0  0  0  0  0  0  0  0  0  0  0  0
    8.7906   -9.4074   23.5075 N   0  0  0  0  0  0  0  0  0  0  0  0
    5.7886  -13.5740   23.4349 O   0  0  0  0  0  0  0  0  0  0  0  0
    5.4283  -13.5008   24.8447 C   0  0  2  0  0  0  0  0  0  0  0  0
    3.3578   -8.7803   25.9088 N   0  0  0  0  0  0  0  0  0  0  0  0
    6.3650  -15.7420   25.2462 O   0  0  0  0  0  0  0  0  0  0  0  0
    5.1968  -14.9293   25.4099 C   0  0  1  0  0  0  0  0  0  0  0  0
    4.3749  -11.3016   24.5950 O   0  0  0  0  0  0  0  0  0  0  0  0
    4.8468  -14.8901   26.8924 C   0  0  1  0  0  0  0  0  0  0  0  0
    6.4941  -10.3791   24.5410 O   0  0  0  0  0  0  0  0  0  0  0  0
    3.5613  -14.0213   27.1060 C   0  0  0  0  0  0  0  0  0  0  0  0
    5.8886   -8.0619   21.7572 O   0  0  0  0  0  0  0  0  0  0  0  0
    3.8411  -12.5690   26.5586 C   0  0  1  0  0  0  0  0  0  0  0  0
    4.1313   -7.0458   23.7546 O   0  0  0  0  0  0  0  0  0  0  0  0
    4.1296  -12.6244   25.0473 C   0  0  2  0  0  0  0  0  0  0  0  0
    5.2023  -10.3869   25.2917 C   0  0  1  0  0  0  0  0  0  0  0  0
    6.4339   -9.9346   23.1198 C   0  0  2  0  0  0  0  0  0  0  0  0
    7.8428  -10.0254   22.5256 C   0  0  0  0  0  0  0  0  0  0  0  0
    5.9543   -8.5005   23.0933 C   0  0  2  0  0  0  0  0  0  0  0  0
    4.5874   -8.4035   23.7686 C   0  0  1  0  0  0  0  0  0  0  0  0
    4.6980   -8.9026   25.2303 C   0  0  1  0  0  0  0  0  0  0  0  0
  5  4  1  6  0  0  0
  5  8  1  0  0  0  0
  5 16  1  0  0  0  0
  8  7  1  1  0  0  0
  8 10  1  0  0  0  0
 10  1  1  6  0  0  0
 10 12  1  0  0  0  0
 11 18  1  0  0  0  0
 12 14  1  0  0  0  0
 14  2  1  6  0  0  0
 14 16  1  0  0  0  0
 16  9  1  1  0  0  0
 17  9  1  6  0  0  0
 17 11  1  0  0  0  0
 17 22  1  0  0  0  0
 18 19  1  1  0  0  0
 18 20  1  0  0  0  0
 19  3  1  0  0  0  0
 20 13  1  6  0  0  0
 20 21  1  0  0  0  0
 21 15  1  1  0  0  0
 21 22  1  0  0  0  0
 22  6  1  6  0  0  0
M  END
>  <CHROM.1>
-72.20633239,102.26305342,-46.44970784,5.20447393,-11.39371152,24.77184059
1.75734632,-0.63482869,2.82197466

>  <Name>
2f4s_lig

>  <RI>
0

>  <Rbt.Current_Directory>
/home/itssahil/PROJECTS/Mol_Feturizer/New_Systems/rnas/2f4s

>  <Rbt.Executable>
rbdock ($Id: //depot/dev/client3/rdock/2013.1/src/exe/rbdock.cxx#4 $)

>  <Rbt.Library>
libRbt.so (2013.1, Build901 2013/11/27)

>  <Rbt.Parameter_File>
/export/apps/rDock/src/rDock_2013.1_src/data/scripts/dock_solv.prm

>  <Rbt.Receptor>
prm/blind_docking_80.prm

>  <SCORE>
-5.13834

>  <SCORE.INTER>
-10.6575

>  <SCORE.INTER.CONST>
1

>  <SCORE.INTER.POLAR>
-0.804397

>  <SCORE.INTER.ROT>
3

>  <SCORE.INTER.SOLV>
16.4605

>  <SCORE.INTER.VDW>
-15.5105

>  <SCORE.INTER.norm>
-0.484431

>  <SCORE.INTRA>
5.21493

>  <SCORE.INTRA.DIHEDRAL>
5.39782

>  <SCORE.INTRA.DIHEDRAL.0>
1.67653

>  <SCORE.INTRA.POLAR>
0

>  <SCORE.INTRA.POLAR.0>
0

>  <SCORE.INTRA.REPUL>
0

>  <SCORE.INTRA.REPUL.0>
0

>  <SCORE.INTRA.SOLV>
4.14193

>  <SCORE.INTRA.SOLV.lig_0>
-76.6701

>  <SCORE.INTRA.VDW>
0.445057

>  <SCORE.INTRA.VDW.0>
-1.53273

>  <SCORE.INTRA.norm>
0.237042

>  <SCORE.RESTR>
0.304213

>  <SCORE.RESTR.CAVITY>
0.304213

>  <SCORE.RESTR.norm>
0.0138279

>  <SCORE.SYSTEM>
0

>  <SCORE.SYSTEM.CONST>
0

>  <SCORE.SYSTEM.DIHEDRAL>
0

>  <SCORE.SYSTEM.SOLV>
0

>  <SCORE.SYSTEM.norm>
0

>  <SCORE.heavy>
22

>  <SCORE.norm>
-0.233561

>  <RMSD>
34.080

$$$$
2f4s_lig
 OpenBabel11021811433D
libRbt.so/2013.1/901 2013/11/27
 22 23  0  0  0  0  0  0  0  0999 V2000
    4.7129  -17.0966   27.1772 N   0  0  0  0  0  0  0  0  0  0  0  0
    3.6501  -12.2064   27.5408 N   0  0  0  0  0  0  0  0  0  0  0  0
    4.5488   -8.7902   29.1224 N   0  0  0  0  0  0  0  0  0  0  0  0
    5.7113  -14.0731   23.3866 O   0  0  0  0  0  0  0  0  0  0  0  0
    5.6377  -14.1490   24.8398 C   0  0  2  0  0  0  0  0  0  0  0  0
    5.6912  -10.0098   22.6967 N   0  0  0  0  0  0  0  0  0  0  0  0
    6.1159  -16.5634   24.7822 O   0  0  0  0  0  0  0  0  0  0  0  0
    5.2044  -15.5754   25.2770 C   0  0  1  0  0  0  0  0  0  0  0  0
    5.0658  -11.7760   25.0645 O   0  0  0  0  0  0  0  0  0  0  0  0
    5.1464  -15.6975   26.7948 C   0  0  1  0  0  0  0  0  0  0  0  0
    3.5533  -10.1919   25.8046 O   0  0  0  0  0  0  0  0  0  0  0  0
    4.1438  -14.6401   27.3690 C   0  0  0  0  0  0  0  0  0  0  0  0
    6.0252   -7.7879   27.0680 O   0  0  0  0  0  0  0  0  0  0  0  0
    4.6317  -13.2026   26.9415 C   0  0  1  0  0  0  0  0  0  0  0  0
    6.5795   -7.7807   24.2746 O   0  0  0  0  0  0  0  0  0  0  0  0
    4.6220  -13.0800   25.4069 C   0  0  2  0  0  0  0  0  0  0  0  0
    4.1978  -10.7647   24.5844 C   0  0  1  0  0  0  0  0  0  0  0  0
    4.4632   -9.5631   26.8034 C   0  0  2  0  0  0  0  0  0  0  0  0
    3.6185   -9.0679   27.9813 C   0  0  0  0  0  0  0  0  0  0  0  0
    5.1581   -8.3951   26.1399 C   0  0  2  0  0  0  0  0  0  0  0  0
    5.9259   -8.8839   24.9129 C   0  0  1  0  0  0  0  0  0  0  0  0
    4.9419   -9.5529   23.9219 C   0  0  1  0  0  0  0  0  0  0  0  0
  5  4  1  6  0  0  0
  5  8  1  0  0  0  0
  5 16  1  0  0  0  0
  8  7  1  1  0  0  0
  8 10  1  0  0  0  0
 10  1  1  6  0  0  0
 10 12  1  0  0  0  0
 11 18  1  0  0  0  0
 12 14  1  0  0  0  0
 14  2  1  1  0  0  0
 14 16  1  0  0  0  0
 16  9  1  1  0  0  0
 17  9  1  1  0  0  0
 17 11  1  0  0  0  0
 17 22  1  0  0  0  0
 18 19  1  1  0  0  0
 18 20  1  0  0  0  0
 19  3  1  0  0  0  0
 20 13  1  1  0  0  0
 20 21  1  0  0  0  0
 21 15  1  6  0  0  0
 21 22  1  0  0  0  0
 22  6  1  6  0  0  0
M  END
>  <CHROM.1>
136.51869858,81.30143161,164.67731733,4.99012697,-11.74644075,25.79253521
1.58531412,-1.22446273,-3.10275156

>  <Name>
2f4s_lig

>  <RI>
0

>  <Rbt.Current_Directory>
/home/itssahil/PROJECTS/Mol_Feturizer/New_Systems/rnas/2f4s

>  <Rbt.Executable>
rbdock ($Id: //depot/dev/client3/rdock/2013.1/src/exe/rbdock.cxx#4 $)

>  <Rbt.Library>
libRbt.so (2013.1, Build901 2013/11/27)

>  <Rbt.Parameter_File>
/export/apps/rDock/src/rDock_2013.1_src/data/scripts/dock_solv.prm

>  <Rbt.Receptor>
prm/blind_docking_60.prm

>  <SCORE>
-3.34102

>  <SCORE.INTER>
-9.81025

>  <SCORE.INTER.CONST>
1

>  <SCORE.INTER.POLAR>
-1.31139

>  <SCORE.INTER.ROT>
3

>  <SCORE.INTER.SOLV>
22.1334

>  <SCORE.INTER.VDW>
-15.1467

>  <SCORE.INTER.norm>
-0.44592

>  <SCORE.INTRA>
5.72628

>  <SCORE.INTRA.DIHEDRAL>
7.10836

>  <SCORE.INTRA.DIHEDRAL.0>
1.67653

>  <SCORE.INTRA.POLAR>
0

>  <SCORE.INTRA.POLAR.0>
0

>  <SCORE.INTRA.REPUL>
0

>  <SCORE.INTRA.REPUL.0>
0

>  <SCORE.INTRA.SOLV>
4.60033

>  <SCORE.INTRA.SOLV.lig_0>
-76.6701

>  <SCORE.INTRA.VDW>
-0.128064

>  <SCORE.INTRA.VDW.0>
-1.53273

>  <SCORE.INTRA.norm>
0.260286

>  <SCORE.RESTR>
0.742945

>  <SCORE.RESTR.CAVITY>
0.742945

>  <SCORE.RESTR.norm>
0.0337702

>  <SCORE.SYSTEM>
0

>  <SCORE.SYSTEM.CONST>
0

>  <SCORE.SYSTEM.DIHEDRAL>
0

>  <SCORE.SYSTEM.SOLV>
0

>  <SCORE.SYSTEM.norm>
0

>  <SCORE.heavy>
22

>  <SCORE.norm>
-0.151864

>  <RMSD>
34.081

$$$$
2f4s_lig
 OpenBabel11021811433D
libRbt.so/2013.1/901 2013/11/27
 22 23  0  0  0  0  0  0  0  0999 V2000
    4.1457  -16.0638   27.3606 N   0  0  0  0  0  0  0  0  0  0  0  0
    2.5263  -11.4177   26.3772 N   0  0  0  0  0  0  0  0  0  0  0  0
    8.4941   -9.5894   21.5148 N   0  0  0  0  0  0  0  0  0  0  0  0
    5.8567  -13.6502   23.3915 O   0  0  0  0  0  0  0  0  0  0  0  0
    5.3842  -13.4749   24.7586 C   0  0  2  0  0  0  0  0  0  0  0  0
    3.1096   -8.7256   25.2459 N   0  0  0  0  0  0  0  0  0  0  0  0
    6.1050  -15.7542   25.3471 O   0  0  0  0  0  0  0  0  0  0  0  0
    4.9943  -14.8499   25.3675 C   0  0  1  0  0  0  0  0  0  0  0  0
    4.5312  -11.2205   24.3125 O   0  0  0  0  0  0  0  0  0  0  0  0
    4.5231  -14.7054   26.8094 C   0  0  1  0  0  0  0  0  0  0  0  0
    6.5550  -10.1628   24.6742 O   0  0  0  0  0  0  0  0  0  0  0  0
    3.2960  -13.7338   26.8663 C   0  0  0  0  0  0  0  0  0  0  0  0
    6.4471   -7.9939   21.7128 O   0  0  0  0  0  0  0  0  0  0  0  0
    3.7342  -12.3377   26.2781 C   0  0  1  0  0  0  0  0  0  0  0  0
    4.2390   -7.0237   23.2271 O   0  0  0  0  0  0  0  0  0  0  0  0
    4.1455  -12.4954   24.8029 C   0  0  2  0  0  0  0  0  0  0  0  0
    5.1322  -10.2284   25.1256 C   0  0  1  0  0  0  0  0  0  0  0  0
    6.7839   -9.7755   23.2535 C   0  0  2  0  0  0  0  0  0  0  0  0
    8.2918   -9.7948   22.9850 C   0  0  0  0  0  0  0  0  0  0  0  0
    6.2419   -8.3781   23.0516 C   0  0  2  0  0  0  0  0  0  0  0  0
    4.7566   -8.3469   23.4079 C   0  0  1  0  0  0  0  0  0  0  0  0
    4.5709   -8.7839   24.8819 C   0  0  1  0  0  0  0  0  0  0  0  0
  5  4  1  6  0  0  0
  5  8  1  0  0  0  0
  5 16  1  0  0  0  0
  8  7  1  1  0  0  0
  8 10  1  0  0  0  0
 10  1  1  6  0  0  0
 10 12  1  0  0  0  0
 11 18  1  0  0  0  0
 12 14  1  0  0  0  0
 14  2  1  6  0  0  0
 14 16  1  0  0  0  0
 16  9  1  1  0  0  0
 17  9  1  6  0  0  0
 17 11  1  0  0  0  0
 17 22  1  0  0  0  0
 18 19  1  1  0  0  0
 18 20  1  0  0  0  0
 19  3  1  0  0  0  0
 20 13  1  6  0  0  0
 20 21  1  0  0  0  0
 21 15  1  1  0  0  0
 21 22  1  0  0  0  0
 22  6  1  6  0  0  0
M  END
>  <CHROM.1>
-85.29996597,108.75205873,172.36497810,5.19769313,-11.28183150,24.54258847
1.84645391,-0.60968483,2.82321587

>  <Name>
2f4s_lig

>  <RI>
0

>  <Rbt.Current_Directory>
/home/itssahil/PROJECTS/Mol_Feturizer/New_Systems/rnas/2f4s

>  <Rbt.Executable>
rbdock ($Id: //depot/dev/client3/rdock/2013.1/src/exe/rbdock.cxx#4 $)

>  <Rbt.Library>
libRbt.so (2013.1, Build901 2013/11/27)

>  <Rbt.Parameter_File>
/export/apps/rDock/src/rDock_2013.1_src/data/scripts/dock_solv.prm

>  <Rbt.Receptor>
prm/blind_docking_80.prm

>  <SCORE>
-4.49393

>  <SCORE.INTER>
-12.1023

>  <SCORE.INTER.CONST>
1

>  <SCORE.INTER.POLAR>
-0.593716

>  <SCORE.INTER.ROT>
3

>  <SCORE.INTER.SOLV>
13.5124

>  <SCORE.INTER.VDW>
-16.1932

>  <SCORE.INTER.norm>
-0.550103

>  <SCORE.INTRA>
7.2577

>  <SCORE.INTRA.DIHEDRAL>
7.76166

>  <SCORE.INTRA.DIHEDRAL.0>
1.67653

>  <SCORE.INTRA.POLAR>
0

>  <SCORE.INTRA.POLAR.0>
0

>  <SCORE.INTRA.REPUL>
0

>  <SCORE.INTRA.REPUL.0>
0

>  <SCORE.INTRA.SOLV>
4.2081

>  <SCORE.INTRA.SOLV.lig_0>
-76.6701

>  <SCORE.INTRA.VDW>
1.27282

>  <SCORE.INTRA.VDW.0>
-1.53273

>  <SCORE.INTRA.norm>
0.329895

>  <SCORE.RESTR>
0.350635

>  <SCORE.RESTR.CAVITY>
0.350635

>  <SCORE.RESTR.norm>
0.015938

>  <SCORE.SYSTEM>
0

>  <SCORE.SYSTEM.CONST>
0

>  <SCORE.SYSTEM.DIHEDRAL>
0

>  <SCORE.SYSTEM.SOLV>
0

>  <SCORE.SYSTEM.norm>
0

>  <SCORE.heavy>
22

>  <SCORE.norm>
-0.20427

>  <RMSD>
34.102

$$$$
2f4s_lig
 OpenBabel11021811433D
libRbt.so/2013.1/901 2013/11/27
 22 23  0  0  0  0  0  0  0  0999 V2000
    7.2719   -7.9667   22.6248 N   0  0  0  0  0  0  0  0  0  0  0  0
    2.3986   -9.1131   22.2887 N   0  0  0  0  0  0  0  0  0  0  0  0
    5.5900  -13.5689   27.6064 N   0  0  0  0  0  0  0  0  0  0  0  0
    4.9512  -10.0053   26.4933 O   0  0  0  0  0  0  0  0  0  0  0  0
    4.9941   -9.9662   25.0375 C   0  0  2  0  0  0  0  0  0  0  0  0
   -0.0288  -11.9235   24.5489 N   0  0  0  0  0  0  0  0  0  0  0  0
    7.3808   -9.3632   25.0798 O   0  0  0  0  0  0  0  0  0  0  0  0
    6.0997   -8.9829   24.5638 C   0  0  1  0  0  0  0  0  0  0  0  0
    2.6055  -10.4737   24.8240 O   0  0  0  0  0  0  0  0  0  0  0  0
    6.1912   -8.9407   23.0433 C   0  0  1  0  0  0  0  0  0  0  0  0
    3.7054  -12.4884   24.5476 O   0  0  0  0  0  0  0  0  0  0  0  0
    4.8088   -8.5112   22.4454 C   0  0  0  0  0  0  0  0  0  0  0  0
    3.0243  -13.8190   27.9019 O   0  0  0  0  0  0  0  0  0  0  0  0
    3.7167   -9.5489   22.9117 C   0  0  1  0  0  0  0  0  0  0  0  0
    0.4054  -13.6601   26.7947 O   0  0  0  0  0  0  0  0  0  0  0  0
    3.5956   -9.5294   24.4464 C   0  0  2  0  0  0  0  0  0  0  0  0
    2.4624  -11.7365   24.1983 C   0  0  1  0  0  0  0  0  0  0  0  0
    3.9486  -12.7328   25.9975 C   0  0  2  0  0  0  0  0  0  0  0  0
    5.2746  -13.4853   26.1443 C   0  0  0  0  0  0  0  0  0  0  0  0
    2.8138  -13.5783   26.5309 C   0  0  2  0  0  0  0  0  0  0  0  0
    1.4854  -12.8603   26.2994 C   0  0  1  0  0  0  0  0  0  0  0  0
    1.2946  -12.6052   24.7839 C   0  0  1  0  0  0  0  0  0  0  0  0
  5  4  1  1  0  0  0
  5  8  1  0  0  0  0
  5 16  1  0  0  0  0
  8  7  1  1  0  0  0
  8 10  1  0  0  0  0
 10  1  1  1  0  0  0
 10 12  1  0  0  0  0
 11 18  1  0  0  0  0
 12 14  1  0  0  0  0
 14  2  1  6  0  0  0
 14 16  1  0  0  0  0
 16  9  1  6  0  0  0
 17  9  1  1  0  0  0
 17 11  1  0  0  0  0
 17 22  1  0  0  0  0
 18 19  1  6  0  0  0
 18 20  1  0  0  0  0
 19  3  1  0  0  0  0
 20 13  1  1  0  0  0
 20 21  1  0  0  0  0
 21 15  1  6  0  0  0
 21 22  1  0  0  0  0
 22  6  1  1  0  0  0
M  END
>  <CHROM.1>
-77.26207226,66.22555062,172.92002952,3.81754048,-11.15205021,25.00304226
-0.93836529,0.26849898,2.37091060

>  <Name>
2f4s_lig

>  <RI>
8.9913e+06

>  <Rbt.Current_Directory>
/home/itssahil/PROJECTS/Mol_Feturizer/New_Systems/rnas/2f4s

>  <Rbt.Executable>
rbdock ($Id: //depot/dev/client3/rdock/2013.1/src/exe/rbdock.cxx#4 $)

>  <Rbt.Library>
libRbt.so (2013.1, Build901 2013/11/27)

>  <Rbt.Parameter_File>
/export/apps/rDock/src/rDock_2013.1_src/data/scripts/dock_solv.prm

>  <Rbt.Receptor>
prm/blind_docking_40.prm

>  <SCORE>
-0.167104

>  <SCORE.INTER>
-2.41165

>  <SCORE.INTER.CONST>
1

>  <SCORE.INTER.POLAR>
0

>  <SCORE.INTER.ROT>
3

>  <SCORE.INTER.SOLV>
19.5103

>  <SCORE.INTER.VDW>
-13.7112

>  <SCORE.INTER.norm>
-0.10962

>  <SCORE.INTRA>
2.19831

>  <SCORE.INTRA.DIHEDRAL>
0.202236

>  <SCORE.INTRA.DIHEDRAL.0>
1.67653

>  <SCORE.INTRA.POLAR>
0

>  <SCORE.INTRA.POLAR.0>
0

>  <SCORE.INTRA.REPUL>
0

>  <SCORE.INTRA.REPUL.0>
0

>  <SCORE.INTRA.SOLV>
2.44672

>  <SCORE.INTRA.SOLV.lig_0>
-76.6701

>  <SCORE.INTRA.VDW>
0.873835

>  <SCORE.INTRA.VDW.0>
-1.53273

>  <SCORE.INTRA.norm>
0.0999233

>  <SCORE.RESTR>
0.0462322

>  <SCORE.RESTR.CAVITY>
0.0462322

>  <SCORE.RESTR.norm>
0.00210146

>  <SCORE.SYSTEM>
0

>  <SCORE.SYSTEM.CONST>
0

>  <SCORE.SYSTEM.DIHEDRAL>
0

>  <SCORE.SYSTEM.SOLV>
0

>  <SCORE.SYSTEM.norm>
0

>  <SCORE.heavy>
22

>  <SCORE.norm>
-0.00759562

>  <RMSD>
34.109

$$$$
2f4s_lig
 OpenBabel11021811433D
libRbt.so/2013.1/901 2013/11/27
 22 23  0  0  0  0  0  0  0  0999 V2000
    4.2236  -16.3870   27.4767 N   0  0  0  0  0  0  0  0  0  0  0  0
    2.7812  -11.6445   26.6995 N   0  0  0  0  0  0  0  0  0  0  0  0
    4.8242   -9.7960   28.4883 N   0  0  0  0  0  0  0  0  0  0  0  0
    5.7049  -14.0014   23.3998 O   0  0  0  0  0  0  0  0  0  0  0  0
    5.3662  -13.8243   24.8057 C   0  0  2  0  0  0  0  0  0  0  0  0
    4.1398   -9.8004   22.0272 N   0  0  0  0  0  0  0  0  0  0  0  0
    6.0101  -16.1488   25.2993 O   0  0  0  0  0  0  0  0  0  0  0  0
    4.9570  -15.1866   25.4304 C   0  0  1  0  0  0  0  0  0  0  0  0
    4.6023  -11.5201   24.4656 O   0  0  0  0  0  0  0  0  0  0  0  0
    4.6247  -15.0416   26.9104 C   0  0  1  0  0  0  0  0  0  0  0  0
    3.9332   -9.7531   25.7979 O   0  0  0  0  0  0  0  0  0  0  0  0
    3.4628  -14.0067   27.0891 C   0  0  0  0  0  0  0  0  0  0  0  0
    7.0061   -7.7701   25.4652 O   0  0  0  0  0  0  0  0  0  0  0  0
    3.9231  -12.6263   26.4811 C   0  0  1  0  0  0  0  0  0  0  0  0
    6.0185   -7.7681   22.7940 O   0  0  0  0  0  0  0  0  0  0  0  0
    4.1921  -12.7806   24.9731 C   0  0  2  0  0  0  0  0  0  0  0  0
    3.7610  -10.3805   24.4529 C   0  0  1  0  0  0  0  0  0  0  0  0
    5.3070   -9.2909   26.1444 C   0  0  2  0  0  0  0  0  0  0  0  0
    5.2778   -8.7099   27.5614 C   0  0  0  0  0  0  0  0  0  0  0  0
    5.7082   -8.2192   25.1556 C   0  0  2  0  0  0  0  0  0  0  0  0
    5.6480   -8.7812   23.7363 C   0  0  1  0  0  0  0  0  0  0  0  0
    4.2102   -9.2726   23.4371 C   0  0  1  0  0  0  0  0  0  0  0  0
  5  4  1  6  0  0  0
  5  8  1  0  0  0  0
  5 16  1  0  0  0  0
  8  7  1  1  0  0  0
  8 10  1  0  0  0  0
 10  1  1  6  0  0  0
 10 12  1  0  0  0  0
 11 18  1  0  0  0  0
 12 14  1  0  0  0  0
 14  2  1  6  0  0  0
 14 16  1  0  0  0  0
 16  9  1  1  0  0  0
 17  9  1  1  0  0  0
 17 11  1  0  0  0  0
 17 22  1  0  0  0  0
 18 19  1  1  0  0  0
 18 20  1  0  0  0  0
 19  3  1  0  0  0  0
 20 13  1  1  0  0  0
 20 21  1  0  0  0  0
 21 15  1  6  0  0  0
 21 22  1  0  0  0  0
 22  6  1  6  0  0  0
M  END
>  <CHROM.1>
178.93647404,85.86474694,59.74872152,4.83335275,-11.47250649,25.34285643
2.15052959,-1.37961448,-2.79135914

>  <Name>
2f4s_lig

>  <RI>
0

>  <Rbt.Current_Directory>
/home/itssahil/PROJECTS/Mol_Feturizer/New_Systems/rnas/2f4s

>  <Rbt.Executable>
rbdock ($Id: //depot/dev/client3/rdock/2013.1/src/exe/rbdock.cxx#4 $)

>  <Rbt.Library>
libRbt.so (2013.1, Build901 2013/11/27)

>  <Rbt.Parameter_File>
/export/apps/rDock/src/rDock_2013.1_src/data/scripts/dock_solv.prm

>  <Rbt.Receptor>
prm/blind_docking_60.prm

>  <SCORE>
-2.27726

>  <SCORE.INTER>
-8.09034

>  <SCORE.INTER.CONST>
1

>  <SCORE.INTER.POLAR>
-2.05374

>  <SCORE.INTER.ROT>
3

>  <SCORE.INTER.SOLV>
23.5556

>  <SCORE.INTER.VDW>
-11.9996

>  <SCORE.INTER.norm>
-0.367743

>  <SCORE.INTRA>
4.35379

>  <SCORE.INTRA.DIHEDRAL>
1.22359

>  <SCORE.INTRA.DIHEDRAL.0>
1.67653

>  <SCORE.INTRA.POLAR>
0

>  <SCORE.INTRA.POLAR.0>
0

>  <SCORE.INTRA.REPUL>
0

>  <SCORE.INTRA.REPUL.0>
0

>  <SCORE.INTRA.SOLV>
4.69937

>  <SCORE.INTRA.SOLV.lig_0>
-76.6701

>  <SCORE.INTRA.VDW>
1.39231

>  <SCORE.INTRA.VDW.0>
-1.53273

>  <SCORE.INTRA.norm>
0.1979

>  <SCORE.RESTR>
1.45929

>  <SCORE.RESTR.CAVITY>
1.45929

>  <SCORE.RESTR.norm>
0.0663316

>  <SCORE.SYSTEM>
0

>  <SCORE.SYSTEM.CONST>
0

>  <SCORE.SYSTEM.DIHEDRAL>
0

>  <SCORE.SYSTEM.SOLV>
0

>  <SCORE.SYSTEM.norm>
0

>  <SCORE.heavy>
22

>  <SCORE.norm>
-0.103512

>  <RMSD>
34.113

$$$$
2f4s_lig
 OpenBabel11021811433D
libRbt.so/2013.1/901 2013/11/27
 22 23  0  0  0  0  0  0  0  0999 V2000
    6.9514   -7.9081   23.0847 N   0  0  0  0  0  0  0  0  0  0  0  0
    2.4587  -10.0467   22.4380 N   0  0  0  0  0  0  0  0  0  0  0  0
    5.2949  -14.6776   25.5525 N   0  0  0  0  0  0  0  0  0  0  0  0
    4.2771   -9.2551   27.0268 O   0  0  0  0  0  0  0  0  0  0  0  0
    4.5874   -9.5995   25.6455 C   0  0  2  0  0  0  0  0  0  0  0  0
   -0.1526  -12.2413   25.3557 N   0  0  0  0  0  0  0  0  0  0  0  0
    6.8045   -8.5458   25.8344 O   0  0  0  0  0  0  0  0  0  0  0  0
    5.6014   -8.5798   25.0576 C   0  0  1  0  0  0  0  0  0  0  0  0
    2.3864  -10.6096   25.2664 O   0  0  0  0  0  0  0  0  0  0  0  0
    5.9707   -8.9290   23.6211 C   0  0  1  0  0  0  0  0  0  0  0  0
    3.5837  -12.5534   24.9016 O   0  0  0  0  0  0  0  0  0  0  0  0
    4.6772   -8.9586   22.7385 C   0  0  0  0  0  0  0  0  0  0  0  0
    3.4156  -13.8197   28.3446 O   0  0  0  0  0  0  0  0  0  0  0  0
    3.6860  -10.0290   23.3374 C   0  0  1  0  0  0  0  0  0  0  0  0
    0.6759  -13.8727   27.5693 O   0  0  0  0  0  0  0  0  0  0  0  0
    3.2760   -9.6238   24.7649 C   0  0  2  0  0  0  0  0  0  0  0  0
    2.2572  -11.8984   24.6928 C   0  0  1  0  0  0  0  0  0  0  0  0
    4.0198  -12.7347   26.3151 C   0  0  2  0  0  0  0  0  0  0  0  0
    5.4037  -13.3913   26.3127 C   0  0  0  0  0  0  0  0  0  0  0  0
    3.0218  -13.6374   27.0053 C   0  0  2  0  0  0  0  0  0  0  0  0
    1.6276  -13.0180   26.9248 C   0  0  1  0  0  0  0  0  0  0  0  0
    1.2345  -12.8246   25.4395 C   0  0  1  0  0  0  0  0  0  0  0  0
  5  4  1  1  0  0  0
  5  8  1  0  0  0  0
  5 16  1  0  0  0  0
  8  7  1  1  0  0  0
  8 10  1  0  0  0  0
 10  1  1  6  0  0  0
 10 12  1  0  0  0  0
 11 18  1  0  0  0  0
 12 14  1  0  0  0  0
 14  2  1  6  0  0  0
 14 16  1  0  0  0  0
 16  9  1  1  0  0  0
 17  9  1  1  0  0  0
 17 11  1  0  0  0  0
 17 22  1  0  0  0  0
 18 19  1  6  0  0  0
 18 20  1  0  0  0  0
 19  3  1  0  0  0  0
 20 13  1  1  0  0  0
 20 21  1  0  0  0  0
 21 15  1  6  0  0  0
 21 22  1  0  0  0  0
 22  6  1  1  0  0  0
M  END
>  <CHROM.1>
-99.69692234,64.72592644,-56.92121600,3.68346786,-11.22891445,25.37480805
-0.97820169,0.29612939,2.43813194

>  <Name>
2f4s_lig

>  <RI>
8.9913e+06

>  <Rbt.Current_Directory>
/home/itssahil/PROJECTS/Mol_Feturizer/New_Systems/rnas/2f4s

>  <Rbt.Executable>
rbdock ($Id: //depot/dev/client3/rdock/2013.1/src/exe/rbdock.cxx#4 $)

>  <Rbt.Library>
libRbt.so (2013.1, Build901 2013/11/27)

>  <Rbt.Parameter_File>
/export/apps/rDock/src/rDock_2013.1_src/data/scripts/dock_solv.prm

>  <Rbt.Receptor>
prm/blind_docking_40.prm

>  <SCORE>
-1.87943

>  <SCORE.INTER>
-6.65366

>  <SCORE.INTER.CONST>
1

>  <SCORE.INTER.POLAR>
-0.788396

>  <SCORE.INTER.ROT>
3

>  <SCORE.INTER.SOLV>
15.7765

>  <SCORE.INTER.VDW>
-12.6666

>  <SCORE.INTER.norm>
-0.302439

>  <SCORE.INTRA>
4.77176

>  <SCORE.INTRA.DIHEDRAL>
3.92708

>  <SCORE.INTRA.DIHEDRAL.0>
1.67653

>  <SCORE.INTRA.POLAR>
0

>  <SCORE.INTRA.POLAR.0>
0

>  <SCORE.INTRA.REPUL>
0

>  <SCORE.INTRA.REPUL.0>
0

>  <SCORE.INTRA.SOLV>
2.701

>  <SCORE.INTRA.SOLV.lig_0>
-76.6701

>  <SCORE.INTRA.VDW>
1.45772

>  <SCORE.INTRA.VDW.0>
-1.53273

>  <SCORE.INTRA.norm>
0.216898

>  <SCORE.RESTR>
0.00247065

>  <SCORE.RESTR.CAVITY>
0.00247065

>  <SCORE.RESTR.norm>
0.000112302

>  <SCORE.SYSTEM>
0

>  <SCORE.SYSTEM.CONST>
0

>  <SCORE.SYSTEM.DIHEDRAL>
0

>  <SCORE.SYSTEM.SOLV>
0

>  <SCORE.SYSTEM.norm>
0

>  <SCORE.heavy>
22

>  <SCORE.norm>
-0.0854286

>  <RMSD>
34.120

$$$$
2f4s_lig
 OpenBabel11021811433D
libRbt.so/2013.1/901 2013/11/27
 22 23  0  0  0  0  0  0  0  0999 V2000
    4.7270  -17.1833   25.5566 N   0  0  0  0  0  0  0  0  0  0  0  0
    2.5914  -13.5331   28.2568 N   0  0  0  0  0  0  0  0  0  0  0  0
    5.2930   -8.4149   29.5199 N   0  0  0  0  0  0  0  0  0  0  0  0
    5.3650  -12.4539   24.2402 O   0  0  0  0  0  0  0  0  0  0  0  0
    5.1836  -13.3404   25.3822 C   0  0  2  0  0  0  0  0  0  0  0  0
    3.1885  -11.0517   23.8925 N   0  0  0  0  0  0  0  0  0  0  0  0
    6.1822  -15.2171   24.1405 O   0  0  0  0  0  0  0  0  0  0  0  0
    5.0369  -14.8092   24.8979 C   0  0  1  0  0  0  0  0  0  0  0  0
    4.0886  -11.6036   26.7214 O   0  0  0  0  0  0  0  0  0  0  0  0
    4.8751  -15.7675   26.0716 C   0  0  1  0  0  0  0  0  0  0  0  0
    3.6553   -9.3962   27.2548 O   0  0  0  0  0  0  0  0  0  0  0  0
    3.6192  -15.3595   26.9137 C   0  0  0  0  0  0  0  0  0  0  0  0
    6.6068   -7.9632   25.6053 O   0  0  0  0  0  0  0  0  0  0  0  0
    3.8158  -13.8798   27.4225 C   0  0  1  0  0  0  0  0  0  0  0  0
    5.1601   -9.0240   23.3935 O   0  0  0  0  0  0  0  0  0  0  0  0
    3.9131  -12.9207   26.2222 C   0  0  2  0  0  0  0  0  0  0  0  0
    3.2509  -10.5207   26.3579 C   0  0  1  0  0  0  0  0  0  0  0  0
    5.0657   -8.9288   27.1395 C   0  0  2  0  0  0  0  0  0  0  0  0
    5.2850   -7.8015   28.1531 C   0  0  0  0  0  0  0  0  0  0  0  0
    5.2775   -8.4084   25.7353 C   0  0  2  0  0  0  0  0  0  0  0  0
    4.9697   -9.5133   24.7262 C   0  0  1  0  0  0  0  0  0  0  0  0
    3.5050   -9.9825   24.9064 C   0  0  1  0  0  0  0  0  0  0  0  0
  5  4  1  6  0  0  0
  5  8  1  0  0  0  0
  5 16  1  0  0  0  0
  8  7  1  1  0  0  0
  8 10  1  0  0  0  0
 10  1  1  6  0  0  0
 10 12  1  0  0  0  0
 11 18  1  0  0  0  0
 12 14  1  0  0  0  0
 14  2  1  1  0  0  0
 14 16  1  0  0  0  0
 16  9  1  1  0  0  0
 17  9  1  1  0  0  0
 17 11  1  0  0  0  0
 17 22  1  0  0  0  0
 18 19  1  1  0  0  0
 18 20  1  0  0  0  0
 19  3  1  0  0  0  0
 20 13  1  1  0  0  0
 20 21  1  0  0  0  0
 21 15  1  6  0  0  0
 21 22  1  0  0  0  0
 22  6  1  6  0  0  0
M  END
>  <CHROM.1>
117.11044001,171.73553366,71.33456720,4.60113101,-11.65265404,25.99701238
1.77809285,-1.24940485,-2.82972407

>  <Name>
2f4s_lig

>  <RI>
0

>  <Rbt.Current_Directory>
/home/itssahil/PROJECTS/Mol_Feturizer/New_Systems/rnas/2f4s

>  <Rbt.Executable>
rbdock ($Id: //depot/dev/client3/rdock/2013.1/src/exe/rbdock.cxx#4 $)

>  <Rbt.Library>
libRbt.so (2013.1, Build901 2013/11/27)

>  <Rbt.Parameter_File>
/export/apps/rDock/src/rDock_2013.1_src/data/scripts/dock_solv.prm

>  <Rbt.Receptor>
prm/blind_docking_60.prm

>  <SCORE>
-6.22079

>  <SCORE.INTER>
-12.6166

>  <SCORE.INTER.CONST>
1

>  <SCORE.INTER.POLAR>
-1.97826

>  <SCORE.INTER.ROT>
3

>  <SCORE.INTER.SOLV>
18.7684

>  <SCORE.INTER.VDW>
-13.673

>  <SCORE.INTER.norm>
-0.573482

>  <SCORE.INTRA>
4.16899

>  <SCORE.INTRA.DIHEDRAL>
6.35435

>  <SCORE.INTRA.DIHEDRAL.0>
1.67653

>  <SCORE.INTRA.POLAR>
0

>  <SCORE.INTRA.POLAR.0>
0

>  <SCORE.INTRA.REPUL>
0

>  <SCORE.INTRA.REPUL.0>
0

>  <SCORE.INTRA.SOLV>
2.77778

>  <SCORE.INTRA.SOLV.lig_0>
-76.6701

>  <SCORE.INTRA.VDW>
-0.397079

>  <SCORE.INTRA.VDW.0>
-1.53273

>  <SCORE.INTRA.norm>
0.189499

>  <SCORE.RESTR>
2.22684

>  <SCORE.RESTR.CAVITY>
2.22684

>  <SCORE.RESTR.norm>
0.10122

>  <SCORE.SYSTEM>
0

>  <SCORE.SYSTEM.CONST>
0

>  <SCORE.SYSTEM.DIHEDRAL>
0

>  <SCORE.SYSTEM.SOLV>
0

>  <SCORE.SYSTEM.norm>
0

>  <SCORE.heavy>
22

>  <SCORE.norm>
-0.282763

>  <RMSD>
34.132

$$$$
2f4s_lig
 OpenBabel11021811433D
libRbt.so/2013.1/901 2013/11/27
 22 23  0  0  0  0  0  0  0  0999 V2000
    4.6395  -17.2320   25.8036 N   0  0  0  0  0  0  0  0  0  0  0  0
    2.5268  -13.4409   28.3214 N   0  0  0  0  0  0  0  0  0  0  0  0
    5.3015   -8.3755   29.5110 N   0  0  0  0  0  0  0  0  0  0  0  0
    5.4081  -12.5687   24.3304 O   0  0  0  0  0  0  0  0  0  0  0  0
    5.1832  -13.4085   25.4997 C   0  0  2  0  0  0  0  0  0  0  0  0
    3.2236  -11.0898   23.9057 N   0  0  0  0  0  0  0  0  0  0  0  0
    6.1670  -15.3502   24.3493 O   0  0  0  0  0  0  0  0  0  0  0  0
    5.0149  -14.8908   25.0660 C   0  0  1  0  0  0  0  0  0  0  0  0
    4.0979  -11.6010   26.7503 O   0  0  0  0  0  0  0  0  0  0  0  0
    4.8074  -15.8016   26.2699 C   0  0  1  0  0  0  0  0  0  0  0  0
    3.6624   -9.3856   27.2473 O   0  0  0  0  0  0  0  0  0  0  0  0
    3.5430  -15.3366   27.0687 C   0  0  0  0  0  0  0  0  0  0  0  0
    6.6301   -7.9800   25.6034 O   0  0  0  0  0  0  0  0  0  0  0  0
    3.7608  -13.8436   27.5275 C   0  0  1  0  0  0  0  0  0  0  0  0
    5.2019   -9.0717   23.3946 O   0  0  0  0  0  0  0  0  0  0  0  0
    3.9045  -12.9317   26.2955 C   0  0  2  0  0  0  0  0  0  0  0  0
    3.2647  -10.5227   26.3635 C   0  0  1  0  0  0  0  0  0  0  0  0
    5.0743   -8.9214   27.1377 C   0  0  2  0  0  0  0  0  0  0  0  0
    5.2859   -7.7796   28.1366 C   0  0  0  0  0  0  0  0  0  0  0  0
    5.2993   -8.4219   25.7281 C   0  0  2  0  0  0  0  0  0  0  0  0
    4.9991   -9.5411   24.7325 C   0  0  1  0  0  0  0  0  0  0  0  0
    3.5323  -10.0061   24.9065 C   0  0  1  0  0  0  0  0  0  0  0  0
  5  4  1  6  0  0  0
  5  8  1  0  0  0  0
  5 16  1  0  0  0  0
  8  7  1  1  0  0  0
  8 10  1  0  0  0  0
 10  1  1  6  0  0  0
 10 12  1  0  0  0  0
 11 18  1  0  0  0  0
 12 14  1  0  0  0  0
 14  2  1  6  0  0  0
 14 16  1  0  0  0  0
 16  9  1  1  0  0  0
 17  9  1  1  0  0  0
 17 11  1  0  0  0  0
 17 22  1  0  0  0  0
 18 19  1  1  0  0  0
 18 20  1  0  0  0  0
 19  3  1  0  0  0  0
 20 13  1  1  0  0  0
 20 21  1  0  0  0  0
 21 15  1  6  0  0  0
 21 22  1  0  0  0  0
 22  6  1  6  0  0  0
M  END
>  <CHROM.1>
119.25317501,170.07572103,72.16645365,4.59625080,-11.67316705,26.06193358
1.80040159,-1.23938116,-2.83883819

>  <Name>
2f4s_lig

>  <RI>
0

>  <Rbt.Current_Directory>
/home/itssahil/PROJECTS/Mol_Feturizer/New_Systems/rnas/2f4s

>  <Rbt.Executable>
rbdock ($Id: //depot/dev/client3/rdock/2013.1/src/exe/rbdock.cxx#4 $)

>  <Rbt.Library>
libRbt.so (2013.1, Build901 2013/11/27)

>  <Rbt.Parameter_File>
/export/apps/rDock/src/rDock_2013.1_src/data/scripts/dock_solv.prm

>  <Rbt.Receptor>
prm/blind_docking_60.prm

>  <SCORE>
-5.99172

>  <SCORE.INTER>
-12.2749

>  <SCORE.INTER.CONST>
1

>  <SCORE.INTER.POLAR>
-1.9757

>  <SCORE.INTER.ROT>
3

>  <SCORE.INTER.SOLV>
18.7506

>  <SCORE.INTER.VDW>
-13.4478

>  <SCORE.INTER.norm>
-0.557949

>  <SCORE.INTRA>
4.09996

>  <SCORE.INTRA.DIHEDRAL>
6.5976

>  <SCORE.INTRA.DIHEDRAL.0>
1.67653

>  <SCORE.INTRA.POLAR>
0

>  <SCORE.INTRA.POLAR.0>
0

>  <SCORE.INTRA.REPUL>
0

>  <SCORE.INTRA.REPUL.0>
0

>  <SCORE.INTRA.SOLV>
2.6291

>  <SCORE.INTRA.SOLV.lig_0>
-76.6701

>  <SCORE.INTRA.VDW>
-0.513394

>  <SCORE.INTRA.VDW.0>
-1.53273

>  <SCORE.INTRA.norm>
0.186362

>  <SCORE.RESTR>
2.1832

>  <SCORE.RESTR.CAVITY>
2.1832

>  <SCORE.RESTR.norm>
0.0992364

>  <SCORE.SYSTEM>
0

>  <SCORE.SYSTEM.CONST>
0

>  <SCORE.SYSTEM.DIHEDRAL>
0

>  <SCORE.SYSTEM.SOLV>
0

>  <SCORE.SYSTEM.norm>
0

>  <SCORE.heavy>
22

>  <SCORE.norm>
-0.272351

>  <RMSD>
34.135

$$$$
2f4s_lig
 OpenBabel11021811433D
libRbt.so/2013.1/901 2013/11/27
 22 23  0  0  0  0  0  0  0  0999 V2000
    4.3505  -16.5868   27.0901 N   0  0  0  0  0  0  0  0  0  0  0  0
    5.9213  -13.6757   23.3173 N   0  0  0  0  0  0  0  0  0  0  0  0
    8.7443  -10.2246   22.7170 N   0  0  0  0  0  0  0  0  0  0  0  0
    4.4852  -11.6718   27.6661 O   0  0  0  0  0  0  0  0  0  0  0  0
    4.2671  -12.7341   26.6932 C   0  0  2  0  0  0  0  0  0  0  0  0
    3.1320   -9.3054   25.8711 N   0  0  0  0  0  0  0  0  0  0  0  0
    3.5132  -14.2651   28.4678 O   0  0  0  0  0  0  0  0  0  0  0  0
    4.4274  -14.1211   27.3745 C   0  0  1  0  0  0  0  0  0  0  0  0
    5.0746  -11.3671   24.8257 O   0  0  0  0  0  0  0  0  0  0  0  0
    4.1759  -15.2562   26.3895 C   0  0  1  0  0  0  0  0  0  0  0  0
    6.6595   -9.7017   24.5815 O   0  0  0  0  0  0  0  0  0  0  0  0
    5.1721  -15.1386   25.1867 C   0  0  0  0  0  0  0  0  0  0  0  0
    5.2210   -8.1712   21.5692 O   0  0  0  0  0  0  0  0  0  0  0  0
    4.9580  -13.7383   24.4934 C   0  0  1  0  0  0  0  0  0  0  0  0
    3.1834   -7.6873   23.4990 O   0  0  0  0  0  0  0  0  0  0  0  0
    5.2788  -12.6065   25.4865 C   0  0  2  0  0  0  0  0  0  0  0  0
    5.4670  -10.1226   25.3771 C   0  0  1  0  0  0  0  0  0  0  0  0
    6.4448   -9.4958   23.1212 C   0  0  2  0  0  0  0  0  0  0  0  0
    7.7820   -9.0995   22.4879 C   0  0  0  0  0  0  0  0  0  0  0  0
    5.4393   -8.3801   22.9442 C   0  0  2  0  0  0  0  0  0  0  0  0
    4.1373   -8.7443   23.6555 C   0  0  1  0  0  0  0  0  0  0  0  0
    4.4194   -8.9751   25.1606 C   0  0  1  0  0  0  0  0  0  0  0  0
  5  4  1  1  0  0  0
  5  8  1  0  0  0  0
  5 16  1  0  0  0  0
  8  7  1  1  0  0  0
  8 10  1  0  0  0  0
 10  1  1  1  0  0  0
 10 12  1  0  0  0  0
 11 18  1  0  0  0  0
 12 14  1  0  0  0  0
 14  2  1  6  0  0  0
 14 16  1  0  0  0  0
 16  9  1  6  0  0  0
 17  9  1  6  0  0  0
 17 11  1  0  0  0  0
 17 22  1  0  0  0  0
 18 19  1  6  0  0  0
 18 20  1  0  0  0  0
 19  3  1  0  0  0  0
 20 13  1  6  0  0  0
 20 21  1  0  0  0  0
 21 15  1  1  0  0  0
 21 22  1  0  0  0  0
 22  6  1  1  0  0  0
M  END
>  <CHROM.1>
72.95893244,107.00773332,60.77027779,5.09312167,-11.37611920,24.91013570
-1.82310025,0.75417199,-0.38762068

>  <Name>
2f4s_lig

>  <RI>
0

>  <Rbt.Current_Directory>
/home/itssahil/PROJECTS/Mol_Feturizer/New_Systems/rnas/2f4s

>  <Rbt.Executable>
rbdock ($Id: //depot/dev/client3/rdock/2013.1/src/exe/rbdock.cxx#4 $)

>  <Rbt.Library>
libRbt.so (2013.1, Build901 2013/11/27)

>  <Rbt.Parameter_File>
/export/apps/rDock/src/rDock_2013.1_src/data/scripts/dock_solv.prm

>  <Rbt.Receptor>
prm/blind_docking_60.prm

>  <SCORE>
-4.08271

>  <SCORE.INTER>
-8.39324

>  <SCORE.INTER.CONST>
1

>  <SCORE.INTER.POLAR>
-0.931434

>  <SCORE.INTER.ROT>
3

>  <SCORE.INTER.SOLV>
21.4067

>  <SCORE.INTER.VDW>
-15.2263

>  <SCORE.INTER.norm>
-0.381511

>  <SCORE.INTRA>
3.19218

>  <SCORE.INTRA.DIHEDRAL>
5.46536

>  <SCORE.INTRA.DIHEDRAL.0>
1.67653

>  <SCORE.INTRA.POLAR>
0

>  <SCORE.INTRA.POLAR.0>
0

>  <SCORE.INTRA.REPUL>
0

>  <SCORE.INTRA.REPUL.0>
0

>  <SCORE.INTRA.SOLV>
1.11645

>  <SCORE.INTRA.SOLV.lig_0>
-76.6701

>  <SCORE.INTRA.VDW>
-0.0987237

>  <SCORE.INTRA.VDW.0>
-1.53273

>  <SCORE.INTRA.norm>
0.145099

>  <SCORE.RESTR>
1.11835

>  <SCORE.RESTR.CAVITY>
1.11835

>  <SCORE.RESTR.norm>
0.0508341

>  <SCORE.SYSTEM>
0

>  <SCORE.SYSTEM.CONST>
0

>  <SCORE.SYSTEM.DIHEDRAL>
0

>  <SCORE.SYSTEM.SOLV>
0

>  <SCORE.SYSTEM.norm>
0

>  <SCORE.heavy>
22

>  <SCORE.norm>
-0.185578

>  <RMSD>
34.138

$$$$
2f4s_lig
 OpenBabel11021811433D
libRbt.so/2013.1/901 2013/11/27
 22 23  0  0  0  0  0  0  0  0999 V2000
    4.7809  -16.7998   24.6827 N   0  0  0  0  0  0  0  0  0  0  0  0
    2.3695  -13.7913   27.8936 N   0  0  0  0  0  0  0  0  0  0  0  0
    5.1749   -8.5010   29.6279 N   0  0  0  0  0  0  0  0  0  0  0  0
    5.1849  -11.8869   24.2280 O   0  0  0  0  0  0  0  0  0  0  0  0
    5.0233  -12.9672   25.1922 C   0  0  2  0  0  0  0  0  0  0  0  0
    2.5931  -10.8459   24.0918 N   0  0  0  0  0  0  0  0  0  0  0  0
    6.1600  -14.5447   23.6819 O   0  0  0  0  0  0  0  0  0  0  0  0
    4.9733  -14.3345   24.4562 C   0  0  1  0  0  0  0  0  0  0  0  0
    3.7957  -11.5494   26.7706 O   0  0  0  0  0  0  0  0  0  0  0  0
    4.8345  -15.4900   25.4398 C   0  0  1  0  0  0  0  0  0  0  0  0
    3.3983   -9.3852   27.4802 O   0  0  0  0  0  0  0  0  0  0  0  0
    3.5351  -15.3001   26.2934 C   0  0  0  0  0  0  0  0  0  0  0  0
    6.1416   -7.8067   25.6177 O   0  0  0  0  0  0  0  0  0  0  0  0
    3.6336  -13.9239   27.0572 C   0  0  1  0  0  0  0  0  0  0  0  0
    4.4785   -8.7588   23.5111 O   0  0  0  0  0  0  0  0  0  0  0  0
    3.7088  -12.7663   26.0451 C   0  0  2  0  0  0  0  0  0  0  0  0
    2.9125  -10.4612   26.5644 C   0  0  1  0  0  0  0  0  0  0  0  0
    4.7833   -8.8878   27.2448 C   0  0  2  0  0  0  0  0  0  0  0  0
    5.0975   -7.8191   28.2962 C   0  0  0  0  0  0  0  0  0  0  0  0
    4.8386   -8.2815   25.8604 C   0  0  2  0  0  0  0  0  0  0  0  0
    4.4366   -9.3295   24.8242 C   0  0  1  0  0  0  0  0  0  0  0  0
    3.0045   -9.8335   25.1296 C   0  0  1  0  0  0  0  0  0  0  0  0
  5  4  1  6  0  0  0
  5  8  1  0  0  0  0
  5 16  1  0  0  0  0
  8  7  1  1  0  0  0
  8 10  1  0  0  0  0
 10  1  1  6  0  0  0
 10 12  1  0  0  0  0
 11 18  1  0  0  0  0
 12 14  1  0  0  0  0
 14  2  1  1  0  0  0
 14 16  1  0  0  0  0
 16  9  1  1  0  0  0
 17  9  1  6  0  0  0
 17 11  1  0  0  0  0
 17 22  1  0  0  0  0
 18 19  1  1  0  0  0
 18 20  1  0  0  0  0
 19  3  1  0  0  0  0
 20 13  1  6  0  0  0
 20 21  1  0  0  0  0
 21 15  1  6  0  0  0
 21 22  1  0  0  0  0
 22  6  1  6  0  0  0
M  END
>  <CHROM.1>
116.75775997,-177.52884098,67.92807940,4.33597658,-11.47532128,25.88608531
-1.65291418,1.25297856,0.30228946

>  <Name>
2f4s_lig

>  <RI>
8.9913e+06

>  <Rbt.Current_Directory>
/home/itssahil/PROJECTS/Mol_Feturizer/New_Systems/rnas/2f4s

>  <Rbt.Executable>
rbdock ($Id: //depot/dev/client3/rdock/2013.1/src/exe/rbdock.cxx#4 $)

>  <Rbt.Library>
libRbt.so (2013.1, Build901 2013/11/27)

>  <Rbt.Parameter_File>
/export/apps/rDock/src/rDock_2013.1_src/data/scripts/dock_solv.prm

>  <Rbt.Receptor>
prm/blind_docking_40.prm

>  <SCORE>
-8.55036

>  <SCORE.INTER>
-12.9194

>  <SCORE.INTER.CONST>
1

>  <SCORE.INTER.POLAR>
-1.96939

>  <SCORE.INTER.ROT>
3

>  <SCORE.INTER.SOLV>
16.3968

>  <SCORE.INTER.VDW>
-13.1139

>  <SCORE.INTER.norm>
-0.587246

>  <SCORE.INTRA>
4.26915

>  <SCORE.INTRA.DIHEDRAL>
5.82368

>  <SCORE.INTRA.DIHEDRAL.0>
1.67653

>  <SCORE.INTRA.POLAR>
0

>  <SCORE.INTRA.POLAR.0>
0

>  <SCORE.INTRA.REPUL>
0

>  <SCORE.INTRA.REPUL.0>
0

>  <SCORE.INTRA.SOLV>
3.05772

>  <SCORE.INTRA.SOLV.lig_0>
-76.6701

>  <SCORE.INTRA.VDW>
-0.17155

>  <SCORE.INTRA.VDW.0>
-1.53273

>  <SCORE.INTRA.norm>
0.194052

>  <SCORE.RESTR>
0.0999113

>  <SCORE.RESTR.CAVITY>
0.0999113

>  <SCORE.RESTR.norm>
0.00454142

>  <SCORE.SYSTEM>
0

>  <SCORE.SYSTEM.CONST>
0

>  <SCORE.SYSTEM.DIHEDRAL>
0

>  <SCORE.SYSTEM.SOLV>
0

>  <SCORE.SYSTEM.norm>
0

>  <SCORE.heavy>
22

>  <SCORE.norm>
-0.388653

>  <RMSD>
34.140

$$$$
2f4s_lig
 OpenBabel11021811433D
libRbt.so/2013.1/901 2013/11/27
 22 23  0  0  0  0  0  0  0  0999 V2000
    4.7197  -16.7721   24.5858 N   0  0  0  0  0  0  0  0  0  0  0  0
    2.2813  -13.7654   27.7780 N   0  0  0  0  0  0  0  0  0  0  0  0
    5.1749   -8.5214   29.6075 N   0  0  0  0  0  0  0  0  0  0  0  0
    5.2236  -11.8615   24.2131 O   0  0  0  0  0  0  0  0  0  0  0  0
    5.0179  -12.9522   25.1570 C   0  0  2  0  0  0  0  0  0  0  0  0
    2.5839  -10.7974   24.0498 N   0  0  0  0  0  0  0  0  0  0  0  0
    6.1643  -14.5288   23.6532 O   0  0  0  0  0  0  0  0  0  0  0  0
    4.9622  -14.3078   24.4002 C   0  0  1  0  0  0  0  0  0  0  0  0
    3.7760  -11.5344   26.7243 O   0  0  0  0  0  0  0  0  0  0  0  0
    4.7774  -15.4743   25.3630 C   0  0  1  0  0  0  0  0  0  0  0  0
    3.4018   -9.3714   27.4499 O   0  0  0  0  0  0  0  0  0  0  0  0
    3.4603  -15.2727   26.1860 C   0  0  0  0  0  0  0  0  0  0  0  0
    6.1642   -7.8092   25.6021 O   0  0  0  0  0  0  0  0  0  0  0  0
    3.5639  -13.9094   26.9720 C   0  0  1  0  0  0  0  0  0  0  0  0
    4.4928   -8.7270   23.4868 O   0  0  0  0  0  0  0  0  0  0  0  0
    3.6858  -12.7392   25.9792 C   0  0  2  0  0  0  0  0  0  0  0  0
    2.9051  -10.4350   26.5256 C   0  0  1  0  0  0  0  0  0  0  0  0
    4.7924   -8.8876   27.2197 C   0  0  2  0  0  0  0  0  0  0  0  0
    5.1173   -7.8305   28.2795 C   0  0  0  0  0  0  0  0  0  0  0  0
    4.8558   -8.2714   25.8400 C   0  0  2  0  0  0  0  0  0  0  0  0
    4.4433   -9.3071   24.7954 C   0  0  1  0  0  0  0  0  0  0  0  0
    3.0055   -9.7975   25.0956 C   0  0  1  0  0  0  0  0  0  0  0  0
  5  4  1  6  0  0  0
  5  8  1  0  0  0  0
  5 16  1  0  0  0  0
  8  7  1  1  0  0  0
  8 10  1  0  0  0  0
 10  1  1  6  0  0  0
 10 12  1  0  0  0  0
 11 18  1  0  0  0  0
 12 14  1  0  0  0  0
 14  2  1  6  0  0  0
 14 16  1  0  0  0  0
 16  9  1  1  0  0  0
 17  9  1  6  0  0  0
 17 11  1  0  0  0  0
 17 22  1  0  0  0  0
 18 19  1  1  0  0  0
 18 20  1  0  0  0  0
 19  3  1  0  0  0  0
 20 13  1  6  0  0  0
 20 21  1  0  0  0  0
 21 15  1  6  0  0  0
 21 22  1  0  0  0  0
 22  6  1  6  0  0  0
M  END
>  <CHROM.1>
117.74848571,-176.80420881,67.48355368,4.32375402,-11.45764335,25.84024468
-1.67373016,1.23184599,0.32955109

>  <Name>
2f4s_lig

>  <RI>
8.9913e+06

>  <Rbt.Current_Directory>
/home/itssahil/PROJECTS/Mol_Feturizer/New_Systems/rnas/2f4s

>  <Rbt.Executable>
rbdock ($Id: //depot/dev/client3/rdock/2013.1/src/exe/rbdock.cxx#4 $)

>  <Rbt.Library>
libRbt.so (2013.1, Build901 2013/11/27)

>  <Rbt.Parameter_File>
/export/apps/rDock/src/rDock_2013.1_src/data/scripts/dock_solv.prm

>  <Rbt.Receptor>
prm/blind_docking_40.prm

>  <SCORE>
-8.5414

>  <SCORE.INTER>
-12.863

>  <SCORE.INTER.CONST>
1

>  <SCORE.INTER.POLAR>
-1.97779

>  <SCORE.INTER.ROT>
3

>  <SCORE.INTER.SOLV>
16.2004

>  <SCORE.INTER.VDW>
-12.9828

>  <SCORE.INTER.norm>
-0.584684

>  <SCORE.INTRA>
4.23171

>  <SCORE.INTRA.DIHEDRAL>
5.84543

>  <SCORE.INTRA.DIHEDRAL.0>
1.67653

>  <SCORE.INTRA.POLAR>
0

>  <SCORE.INTRA.POLAR.0>
0

>  <SCORE.INTRA.REPUL>
0

>  <SCORE.INTRA.REPUL.0>
0

>  <SCORE.INTRA.SOLV>
3.02623

>  <SCORE.INTRA.SOLV.lig_0>
-76.6701

>  <SCORE.INTRA.VDW>
-0.204121

>  <SCORE.INTRA.VDW.0>
-1.53273

>  <SCORE.INTRA.norm>
0.19235

>  <SCORE.RESTR>
0.0899285

>  <SCORE.RESTR.CAVITY>
0.0899285

>  <SCORE.RESTR.norm>
0.00408766

>  <SCORE.SYSTEM>
0

>  <SCORE.SYSTEM.CONST>
0

>  <SCORE.SYSTEM.DIHEDRAL>
0

>  <SCORE.SYSTEM.SOLV>
0

>  <SCORE.SYSTEM.norm>
0

>  <SCORE.heavy>
22

>  <SCORE.norm>
-0.388245

>  <RMSD>
34.149

$$$$
2f4s_lig
 OpenBabel11021811433D
libRbt.so/2013.1/901 2013/11/27
 22 23  0  0  0  0  0  0  0  0999 V2000
    2.8829  -16.5331   25.1948 N   0  0  0  0  0  0  0  0  0  0  0  0
    1.9440  -11.7787   23.8947 N   0  0  0  0  0  0  0  0  0  0  0  0
    7.1776   -8.5836   23.4251 N   0  0  0  0  0  0  0  0  0  0  0  0
    5.4284  -12.8541   27.3142 O   0  0  0  0  0  0  0  0  0  0  0  0
    4.1330  -13.2139   26.7528 C   0  0  2  0  0  0  0  0  0  0  0  0
    3.5605   -8.7647   28.1711 N   0  0  0  0  0  0  0  0  0  0  0  0
    4.5003  -15.5838   27.3095 O   0  0  0  0  0  0  0  0  0  0  0  0
    4.1609  -14.6831   26.2486 C   0  0  1  0  0  0  0  0  0  0  0  0
    3.6522  -10.9144   26.0527 O   0  0  0  0  0  0  0  0  0  0  0  0
    2.8099  -15.1015   25.6815 C   0  0  1  0  0  0  0  0  0  0  0  0
    5.5802   -9.9560   25.2106 O   0  0  0  0  0  0  0  0  0  0  0  0
    2.4149  -14.1454   24.5055 C   0  0  0  0  0  0  0  0  0  0  0  0
    3.9624   -7.0999   23.5641 O   0  0  0  0  0  0  0  0  0  0  0  0
    2.3572  -12.6692   25.0573 C   0  0  1  0  0  0  0  0  0  0  0  0
    3.4035   -6.5843   26.3086 O   0  0  0  0  0  0  0  0  0  0  0  0
    3.7467  -12.2446   25.5666 C   0  0  2  0  0  0  0  0  0  0  0  0
    4.7790  -10.1563   26.4557 C   0  0  1  0  0  0  0  0  0  0  0  0
    4.9137   -9.2129   24.1041 C   0  0  2  0  0  0  0  0  0  0  0  0
    5.8820   -9.1405   22.9194 C   0  0  0  0  0  0  0  0  0  0  0  0
    4.5953   -7.8187   24.5960 C   0  0  2  0  0  0  0  0  0  0  0  0
    3.7017   -7.9018   25.8323 C   0  0  1  0  0  0  0  0  0  0  0  0
    4.4268   -8.7060   26.9393 C   0  0  1  0  0  0  0  0  0  0  0  0
  5  4  1  6  0  0  0
  5  8  1  0  0  0  0
  5 16  1  0  0  0  0
  8  7  1  1  0  0  0
  8 10  1  0  0  0  0
 10  1  1  6  0  0  0
 10 12  1  0  0  0  0
 11 18  1  0  0  0  0
 12 14  1  0  0  0  0
 14  2  1  6  0  0  0
 14 16  1  0  0  0  0
 16  9  1  1  0  0  0
 17  9  1  6  0  0  0
 17 11  1  0  0  0  0
 17 22  1  0  0  0  0
 18 19  1  6  0  0  0
 18 20  1  0  0  0  0
 19  3  1  0  0  0  0
 20 13  1  6  0  0  0
 20 21  1  0  0  0  0
 21 15  1  1  0  0  0
 21 22  1  0  0  0  0
 22  6  1  1  0  0  0
M  END
>  <CHROM.1>
70.61134580,65.28069568,-52.73630795,4.10833263,-11.04966088,25.51510766
-2.80418636,1.39580863,1.08514156

>  <Name>
2f4s_lig

>  <RI>
8.9913e+06

>  <Rbt.Current_Directory>
/home/itssahil/PROJECTS/Mol_Feturizer/New_Systems/rnas/2f4s

>  <Rbt.Executable>
rbdock ($Id: //depot/dev/client3/rdock/2013.1/src/exe/rbdock.cxx#4 $)

>  <Rbt.Library>
libRbt.so (2013.1, Build901 2013/11/27)

>  <Rbt.Parameter_File>
/export/apps/rDock/src/rDock_2013.1_src/data/scripts/dock_solv.prm

>  <Rbt.Receptor>
prm/blind_docking_40.prm

>  <SCORE>
-4.10346

>  <SCORE.INTER>
-5.5648

>  <SCORE.INTER.CONST>
1

>  <SCORE.INTER.POLAR>
-0.511861

>  <SCORE.INTER.ROT>
3

>  <SCORE.INTER.SOLV>
11.3126

>  <SCORE.INTER.VDW>
-11.3745

>  <SCORE.INTER.norm>
-0.252945

>  <SCORE.INTRA>
0.536542

>  <SCORE.INTRA.DIHEDRAL>
-0.654544

>  <SCORE.INTRA.DIHEDRAL.0>
1.67653

>  <SCORE.INTRA.POLAR>
0

>  <SCORE.INTRA.POLAR.0>
0

>  <SCORE.INTRA.REPUL>
0

>  <SCORE.INTRA.REPUL.0>
0

>  <SCORE.INTRA.SOLV>
1.45646

>  <SCORE.INTRA.SOLV.lig_0>
-76.6701

>  <SCORE.INTRA.VDW>
0.135582

>  <SCORE.INTRA.VDW.0>
-1.53273

>  <SCORE.INTRA.norm>
0.0243883

>  <SCORE.RESTR>
0.924795

>  <SCORE.RESTR.CAVITY>
0.924795

>  <SCORE.RESTR.norm>
0.0420361

>  <SCORE.SYSTEM>
0

>  <SCORE.SYSTEM.CONST>
0

>  <SCORE.SYSTEM.DIHEDRAL>
0

>  <SCORE.SYSTEM.SOLV>
0

>  <SCORE.SYSTEM.norm>
0

>  <SCORE.heavy>
22

>  <SCORE.norm>
-0.186521

>  <RMSD>
34.171

$$$$
2f4s_lig
 OpenBabel11021811433D
libRbt.so/2013.1/901 2013/11/27
 22 23  0  0  0  0  0  0  0  0999 V2000
    2.9403  -16.5114   25.1622 N   0  0  0  0  0  0  0  0  0  0  0  0
    1.9361  -11.7446   23.9601 N   0  0  0  0  0  0  0  0  0  0  0  0
    5.3637   -8.3919   22.0173 N   0  0  0  0  0  0  0  0  0  0  0  0
    5.4250  -12.8417   27.3681 O   0  0  0  0  0  0  0  0  0  0  0  0
    4.1368  -13.2083   26.7947 C   0  0  2  0  0  0  0  0  0  0  0  0
    3.4256   -8.8097   28.3101 N   0  0  0  0  0  0  0  0  0  0  0  0
    4.5369  -15.5840   27.3022 O   0  0  0  0  0  0  0  0  0  0  0  0
    4.1877  -14.6659   26.2595 C   0  0  1  0  0  0  0  0  0  0  0  0
    3.6246  -10.9017   26.1420 O   0  0  0  0  0  0  0  0  0  0  0  0
    2.8448  -15.0918   25.6789 C   0  0  1  0  0  0  0  0  0  0  0  0
    5.5993   -9.9311   25.4325 O   0  0  0  0  0  0  0  0  0  0  0  0
    2.4396  -14.1167   24.5222 C   0  0  0  0  0  0  0  0  0  0  0  0
    4.0845   -7.0230   23.7790 O   0  0  0  0  0  0  0  0  0  0  0  0
    2.3586  -12.6535   25.1050 C   0  0  1  0  0  0  0  0  0  0  0  0
    3.3787   -6.5789   26.5020 O   0  0  0  0  0  0  0  0  0  0  0  0
    3.7401  -12.2198   25.6280 C   0  0  2  0  0  0  0  0  0  0  0  0
    4.7306  -10.1607   26.6262 C   0  0  1  0  0  0  0  0  0  0  0  0
    4.9970   -9.1547   24.3120 C   0  0  2  0  0  0  0  0  0  0  0  0
    6.0288   -9.0554   23.1843 C   0  0  0  0  0  0  0  0  0  0  0  0
    4.6574   -7.7727   24.8238 C   0  0  2  0  0  0  0  0  0  0  0  0
    3.6974   -7.8846   26.0069 C   0  0  1  0  0  0  0  0  0  0  0  0
    4.3581   -8.7222   27.1293 C   0  0  1  0  0  0  0  0  0  0  0  0
  5  4  1  6  0  0  0
  5  8  1  0  0  0  0
  5 16  1  0  0  0  0
  8  7  1  1  0  0  0
  8 10  1  0  0  0  0
 10  1  1  6  0  0  0
 10 12  1  0  0  0  0
 11 18  1  0  0  0  0
 12 14  1  0  0  0  0
 14  2  1  6  0  0  0
 14 16  1  0  0  0  0
 16  9  1  1  0  0  0
 17  9  1  6  0  0  0
 17 11  1  0  0  0  0
 17 22  1  0  0  0  0
 18 19  1  6  0  0  0
 18 20  1  0  0  0  0
 19  3  1  0  0  0  0
 20 13  1  6  0  0  0
 20 21  1  0  0  0  0
 21 15  1  1  0  0  0
 21 22  1  0  0  0  0
 22  6  1  1  0  0  0
M  END
>  <CHROM.1>
67.39402877,65.40847046,174.52639293,4.04016467,-11.02127054,25.55894753
3.00102420,1.43765454,1.56593643

>  <Name>
2f4s_lig

>  <RI>
8.9913e+06

>  <Rbt.Current_Directory>
/home/itssahil/PROJECTS/Mol_Feturizer/New_Systems/rnas/2f4s

>  <Rbt.Executable>
rbdock ($Id: //depot/dev/client3/rdock/2013.1/src/exe/rbdock.cxx#4 $)

>  <Rbt.Library>
libRbt.so (2013.1, Build901 2013/11/27)

>  <Rbt.Parameter_File>
/export/apps/rDock/src/rDock_2013.1_src/data/scripts/dock_solv.prm

>  <Rbt.Receptor>
prm/blind_docking_40.prm

>  <SCORE>
-2.56071

>  <SCORE.INTER>
-4.08337

>  <SCORE.INTER.CONST>
1

>  <SCORE.INTER.POLAR>
-0.519681

>  <SCORE.INTER.ROT>
3

>  <SCORE.INTER.SOLV>
13.2534

>  <SCORE.INTER.VDW>
-11.0078

>  <SCORE.INTER.norm>
-0.185608

>  <SCORE.INTRA>
0.584003

>  <SCORE.INTRA.DIHEDRAL>
-1.00923

>  <SCORE.INTRA.DIHEDRAL.0>
1.67653

>  <SCORE.INTRA.POLAR>
0

>  <SCORE.INTRA.POLAR.0>
0

>  <SCORE.INTRA.REPUL>
0

>  <SCORE.INTRA.REPUL.0>
0

>  <SCORE.INTRA.SOLV>
0.972513

>  <SCORE.INTRA.SOLV.lig_0>
-76.6701

>  <SCORE.INTRA.VDW>
0.60236

>  <SCORE.INTRA.VDW.0>
-1.53273

>  <SCORE.INTRA.norm>
0.0265456

>  <SCORE.RESTR>
0.938652

>  <SCORE.RESTR.CAVITY>
0.938652

>  <SCORE.RESTR.norm>
0.042666

>  <SCORE.SYSTEM>
0

>  <SCORE.SYSTEM.CONST>
0

>  <SCORE.SYSTEM.DIHEDRAL>
0

>  <SCORE.SYSTEM.SOLV>
0

>  <SCORE.SYSTEM.norm>
0

>  <SCORE.heavy>
22

>  <SCORE.norm>
-0.116396

>  <RMSD>
34.173

$$$$
2f4s_lig
 OpenBabel11021811433D
libRbt.so/2013.1/901 2013/11/27
 22 23  0  0  0  0  0  0  0  0999 V2000
    3.0424  -15.7052   27.9718 N   0  0  0  0  0  0  0  0  0  0  0  0
    5.3559  -13.2931   24.2294 N   0  0  0  0  0  0  0  0  0  0  0  0
    4.3767   -9.5413   28.4888 N   0  0  0  0  0  0  0  0  0  0  0  0
    1.8064  -11.0276   26.9237 O   0  0  0  0  0  0  0  0  0  0  0  0
    2.2657  -12.2799   26.3375 C   0  0  2  0  0  0  0  0  0  0  0  0
    2.9188   -9.1988   22.2725 N   0  0  0  0  0  0  0  0  0  0  0  0
    1.2009  -13.5680   28.1454 O   0  0  0  0  0  0  0  0  0  0  0  0
    2.4325  -13.3564   27.4451 C   0  0  1  0  0  0  0  0  0  0  0  0
    3.4539  -11.1436   24.5194 O   0  0  0  0  0  0  0  0  0  0  0  0
    2.8841  -14.6893   26.8608 C   0  0  1  0  0  0  0  0  0  0  0  0
    3.3917   -9.3817   26.0150 O   0  0  0  0  0  0  0  0  0  0  0  0
    4.2397  -14.4973   26.1003 C   0  0  0  0  0  0  0  0  0  0  0  0
    6.6883   -7.9918   25.1866 O   0  0  0  0  0  0  0  0  0  0  0  0
    4.0278  -13.4292   24.9596 C   0  0  1  0  0  0  0  0  0  0  0  0
    5.2667   -7.6148   22.7478 O   0  0  0  0  0  0  0  0  0  0  0  0
    3.6344  -12.0743   25.5758 C   0  0  2  0  0  0  0  0  0  0  0  0
    2.8653   -9.8684   24.7041 C   0  0  1  0  0  0  0  0  0  0  0  0
    4.8687   -9.2113   26.1158 C   0  0  2  0  0  0  0  0  0  0  0  0
    5.2043   -8.7374   27.5332 C   0  0  0  0  0  0  0  0  0  0  0  0
    5.2935   -8.1663   25.1084 C   0  0  2  0  0  0  0  0  0  0  0  0
    4.8750   -8.6047   23.7060 C   0  0  1  0  0  0  0  0  0  0  0  0
    3.3388   -8.7951   23.6625 C   0  0  1  0  0  0  0  0  0  0  0  0
  5  4  1  1  0  0  0
  5  8  1  0  0  0  0
  5 16  1  0  0  0  0
  8  7  1  6  0  0  0
  8 10  1  0  0  0  0
 10  1  1  1  0  0  0
 10 12  1  0  0  0  0
 11 18  1  0  0  0  0
 12 14  1  0  0  0  0
 14  2  1  1  0  0  0
 14 16  1  0  0  0  0
 16  9  1  6  0  0  0
 17  9  1  6  0  0  0
 17 11  1  0  0  0  0
 17 22  1  0  0  0  0
 18 19  1  1  0  0  0
 18 20  1  0  0  0  0
 19  3  1  0  0  0  0
 20 13  1  6  0  0  0
 20 21  1  0  0  0  0
 21 15  1  6  0  0  0
 21 22  1  0  0  0  0
 22  6  1  6  0  0  0
M  END
>  <CHROM.1>
51.81844745,39.18161970,43.01235094,3.79096593,-10.97262770,25.66824124,3.06301077
1.25208717,1.19591031

>  <Name>
2f4s_lig

>  <RI>
8.9913e+06

>  <Rbt.Current_Directory>
/home/itssahil/PROJECTS/Mol_Feturizer/New_Systems/rnas/2f4s

>  <Rbt.Executable>
rbdock ($Id: //depot/dev/client3/rdock/2013.1/src/exe/rbdock.cxx#4 $)

>  <Rbt.Library>
libRbt.so (2013.1, Build901 2013/11/27)

>  <Rbt.Parameter_File>
/export/apps/rDock/src/rDock_2013.1_src/data/scripts/dock_solv.prm

>  <Rbt.Receptor>
prm/blind_docking_40.prm

>  <SCORE>
-1.58134

>  <SCORE.INTER>
-4.92614

>  <SCORE.INTER.CONST>
1

>  <SCORE.INTER.POLAR>
-0.800082

>  <SCORE.INTER.ROT>
3

>  <SCORE.INTER.SOLV>
21.3008

>  <SCORE.INTER.VDW>
-13.3174

>  <SCORE.INTER.norm>
-0.223915

>  <SCORE.INTRA>
3.33645

>  <SCORE.INTRA.DIHEDRAL>
1.64264

>  <SCORE.INTRA.DIHEDRAL.0>
1.67653

>  <SCORE.INTRA.POLAR>
0

>  <SCORE.INTRA.POLAR.0>
0

>  <SCORE.INTRA.REPUL>
0

>  <SCORE.INTRA.REPUL.0>
0

>  <SCORE.INTRA.SOLV>
1.70401

>  <SCORE.INTRA.SOLV.lig_0>
-76.6701

>  <SCORE.INTRA.VDW>
1.66312

>  <SCORE.INTRA.VDW.0>
-1.53273

>  <SCORE.INTRA.norm>
0.151657

>  <SCORE.RESTR>
0.00834924

>  <SCORE.RESTR.CAVITY>
0.00834924

>  <SCORE.RESTR.norm>
0.000379511

>  <SCORE.SYSTEM>
0

>  <SCORE.SYSTEM.CONST>
0

>  <SCORE.SYSTEM.DIHEDRAL>
0

>  <SCORE.SYSTEM.SOLV>
0

>  <SCORE.SYSTEM.norm>
0

>  <SCORE.heavy>
22

>  <SCORE.norm>
-0.071879

>  <RMSD>
34.199

$$$$
2f4s_lig
 OpenBabel11021811433D
libRbt.so/2013.1/901 2013/11/27
 22 23  0  0  0  0  0  0  0  0999 V2000
    4.5770  -17.2371   27.0873 N   0  0  0  0  0  0  0  0  0  0  0  0
    3.9630  -12.2847   27.6096 N   0  0  0  0  0  0  0  0  0  0  0  0
    2.6640   -9.9982   28.0027 N   0  0  0  0  0  0  0  0  0  0  0  0
    5.7535  -14.2046   23.3554 O   0  0  0  0  0  0  0  0  0  0  0  0
    5.7068  -14.3160   24.8074 C   0  0  2  0  0  0  0  0  0  0  0  0
    6.5317  -10.4011   22.7747 N   0  0  0  0  0  0  0  0  0  0  0  0
    5.9665  -16.7605   24.6725 O   0  0  0  0  0  0  0  0  0  0  0  0
    5.1583  -15.7106   25.2169 C   0  0  1  0  0  0  0  0  0  0  0  0
    5.3541  -11.9093   25.1105 O   0  0  0  0  0  0  0  0  0  0  0  0
    5.1246  -15.8713   26.7318 C   0  0  1  0  0  0  0  0  0  0  0  0
    3.8019  -10.2169   25.3780 O   0  0  0  0  0  0  0  0  0  0  0  0
    4.2337  -14.7465   27.3597 C   0  0  0  0  0  0  0  0  0  0  0  0
    6.0803   -7.7748   26.9046 O   0  0  0  0  0  0  0  0  0  0  0  0
    4.8379  -13.3460   26.9588 C   0  0  1  0  0  0  0  0  0  0  0  0
    7.1891   -8.0560   24.2966 O   0  0  0  0  0  0  0  0  0  0  0  0
    4.8038  -13.1784   25.4288 C   0  0  2  0  0  0  0  0  0  0  0  0
    4.6517  -10.9245   24.3733 C   0  0  1  0  0  0  0  0  0  0  0  0
    4.5199   -9.5208   26.4829 C   0  0  2  0  0  0  0  0  0  0  0  0
    3.4791   -8.8886   27.4121 C   0  0  0  0  0  0  0  0  0  0  0  0
    5.3909   -8.4439   25.8755 C   0  0  2  0  0  0  0  0  0  0  0  0
    6.3668   -9.0722   24.8821 C   0  0  1  0  0  0  0  0  0  0  0  0
    5.5727   -9.8053   23.7731 C   0  0  1  0  0  0  0  0  0  0  0  0
  5  4  1  6  0  0  0
  5  8  1  0  0  0  0
  5 16  1  0  0  0  0
  8  7  1  6  0  0  0
  8 10  1  0  0  0  0
 10  1  1  6  0  0  0
 10 12  1  0  0  0  0
 11 18  1  0  0  0  0
 12 14  1  0  0  0  0
 14  2  1  1  0  0  0
 14 16  1  0  0  0  0
 16  9  1  1  0  0  0
 17  9  1  1  0  0  0
 17 11  1  0  0  0  0
 17 22  1  0  0  0  0
 18 19  1  1  0  0  0
 18 20  1  0  0  0  0
 19  3  1  0  0  0  0
 20 13  1  1  0  0  0
 20 21  1  0  0  0  0
 21 15  1  6  0  0  0
 21 22  1  0  0  0  0
 22  6  1  6  0  0  0
M  END
>  <CHROM.1>
120.17534341,83.57278265,62.94778082,5.09766584,-11.91944153,25.63841438
1.64148265,-1.00056598,-3.11086043

>  <Name>
2f4s_lig

>  <RI>
0

>  <Rbt.Current_Directory>
/home/itssahil/PROJECTS/Mol_Feturizer/New_Systems/rnas/2f4s

>  <Rbt.Executable>
rbdock ($Id: //depot/dev/client3/rdock/2013.1/src/exe/rbdock.cxx#4 $)

>  <Rbt.Library>
libRbt.so (2013.1, Build901 2013/11/27)

>  <Rbt.Parameter_File>
/export/apps/rDock/src/rDock_2013.1_src/data/scripts/dock_solv.prm

>  <Rbt.Receptor>
prm/blind_docking_60.prm

>  <SCORE>
0.890801

>  <SCORE.INTER>
-5.95066

>  <SCORE.INTER.CONST>
1

>  <SCORE.INTER.POLAR>
-0.262108

>  <SCORE.INTER.ROT>
3

>  <SCORE.INTER.SOLV>
20.1634

>  <SCORE.INTER.VDW>
-15.4146

>  <SCORE.INTER.norm>
-0.270485

>  <SCORE.INTRA>
5.94663

>  <SCORE.INTRA.DIHEDRAL>
7.98256

>  <SCORE.INTRA.DIHEDRAL.0>
1.67653

>  <SCORE.INTRA.POLAR>
0

>  <SCORE.INTRA.POLAR.0>
0

>  <SCORE.INTRA.REPUL>
0

>  <SCORE.INTRA.REPUL.0>
0

>  <SCORE.INTRA.SOLV>
4.97366

>  <SCORE.INTRA.SOLV.lig_0>
-76.6701

>  <SCORE.INTRA.VDW>
-0.531476

>  <SCORE.INTRA.VDW.0>
-1.53273

>  <SCORE.INTRA.norm>
0.270302

>  <SCORE.RESTR>
0.894833

>  <SCORE.RESTR.CAVITY>
0.894833

>  <SCORE.RESTR.norm>
0.0406742

>  <SCORE.SYSTEM>
0

>  <SCORE.SYSTEM.CONST>
0

>  <SCORE.SYSTEM.DIHEDRAL>
0

>  <SCORE.SYSTEM.SOLV>
0

>  <SCORE.SYSTEM.norm>
0

>  <SCORE.heavy>
22

>  <SCORE.norm>
0.040491

>  <RMSD>
34.232

$$$$
2f4s_lig
 OpenBabel11021811433D
libRbt.so/2013.1/901 2013/11/27
 22 23  0  0  0  0  0  0  0  0999 V2000
    2.5863  -17.0295   27.4265 N   0  0  0  0  0  0  0  0  0  0  0  0
    0.9030  -12.3042   27.3082 N   0  0  0  0  0  0  0  0  0  0  0  0
    5.9450   -7.9868   29.4127 N   0  0  0  0  0  0  0  0  0  0  0  0
    5.6989  -13.3350   26.3452 O   0  0  0  0  0  0  0  0  0  0  0  0
    4.5193  -13.6858   27.1250 C   0  0  2  0  0  0  0  0  0  0  0  0
    3.0484  -10.9405   24.1241 N   0  0  0  0  0  0  0  0  0  0  0  0
    5.2265  -16.0423   27.2171 O   0  0  0  0  0  0  0  0  0  0  0  0
    4.1405  -15.1721   26.8778 C   0  0  1  0  0  0  0  0  0  0  0  0
    3.6311  -11.4024   27.0506 O   0  0  0  0  0  0  0  0  0  0  0  0
    2.9262  -15.5805   27.7030 C   0  0  1  0  0  0  0  0  0  0  0  0
    3.2625   -9.1543   27.4448 O   0  0  0  0  0  0  0  0  0  0  0  0
    1.7126  -14.6578   27.3441 C   0  0  0  0  0  0  0  0  0  0  0  0
    6.4350   -7.9424   26.0476 O   0  0  0  0  0  0  0  0  0  0  0  0
    2.1145  -13.1622   27.6422 C   0  0  1  0  0  0  0  0  0  0  0  0
    5.1632   -9.0347   23.7455 O   0  0  0  0  0  0  0  0  0  0  0  0
    3.3017  -12.7506   26.7527 C   0  0  2  0  0  0  0  0  0  0  0  0
    2.8916  -10.2988   26.5588 C   0  0  1  0  0  0  0  0  0  0  0  0
    4.6998   -8.7608   27.4550 C   0  0  2  0  0  0  0  0  0  0  0  0
    4.8753   -7.5993   28.4380 C   0  0  0  0  0  0  0  0  0  0  0  0
    5.0780   -8.3171   26.0595 C   0  0  2  0  0  0  0  0  0  0  0  0
    4.8152   -9.4517   25.0709 C   0  0  1  0  0  0  0  0  0  0  0  0
    3.3173   -9.8415   25.1197 C   0  0  1  0  0  0  0  0  0  0  0  0
  5  4  1  6  0  0  0
  5  8  1  0  0  0  0
  5 16  1  0  0  0  0
  8  7  1  1  0  0  0
  8 10  1  0  0  0  0
 10  1  1  6  0  0  0
 10 12  1  0  0  0  0
 11 18  1  0  0  0  0
 12 14  1  0  0  0  0
 14  2  1  6  0  0  0
 14 16  1  0  0  0  0
 16  9  1  1  0  0  0
 17  9  1  1  0  0  0
 17 11  1  0  0  0  0
 17 22  1  0  0  0  0
 18 19  1  1  0  0  0
 18 20  1  0  0  0  0
 19  3  1  0  0  0  0
 20 13  1  1  0  0  0
 20 21  1  0  0  0  0
 21 15  1  6  0  0  0
 21 22  1  0  0  0  0
 22  6  1  6  0  0  0
M  END
>  <CHROM.1>
165.06319141,161.50228909,125.81770505,3.96459808,-11.54556210,26.72632238
2.32288932,-1.19500768,-2.52644547

>  <Name>
2f4s_lig

>  <RI>
8.9913e+06

>  <Rbt.Current_Directory>
/home/itssahil/PROJECTS/Mol_Feturizer/New_Systems/rnas/2f4s

>  <Rbt.Executable>
rbdock ($Id: //depot/dev/client3/rdock/2013.1/src/exe/rbdock.cxx#4 $)

>  <Rbt.Library>
libRbt.so (2013.1, Build901 2013/11/27)

>  <Rbt.Parameter_File>
/export/apps/rDock/src/rDock_2013.1_src/data/scripts/dock_solv.prm

>  <Rbt.Receptor>
prm/blind_docking_40.prm

>  <SCORE>
-6.20115

>  <SCORE.INTER>
-11.1311

>  <SCORE.INTER.CONST>
1

>  <SCORE.INTER.POLAR>
-1.91912

>  <SCORE.INTER.ROT>
3

>  <SCORE.INTER.SOLV>
16.1914

>  <SCORE.INTER.VDW>
-12.0208

>  <SCORE.INTER.norm>
-0.505961

>  <SCORE.INTRA>
4.16687

>  <SCORE.INTRA.DIHEDRAL>
6.16679

>  <SCORE.INTRA.DIHEDRAL.0>
1.67653

>  <SCORE.INTRA.POLAR>
0

>  <SCORE.INTRA.POLAR.0>
0

>  <SCORE.INTRA.REPUL>
0

>  <SCORE.INTRA.REPUL.0>
0

>  <SCORE.INTRA.SOLV>
2.15521

>  <SCORE.INTRA.SOLV.lig_0>
-76.6701

>  <SCORE.INTRA.VDW>
0.00586272

>  <SCORE.INTRA.VDW.0>
-1.53273

>  <SCORE.INTRA.norm>
0.189403

>  <SCORE.RESTR>
0.763129

>  <SCORE.RESTR.CAVITY>
0.763129

>  <SCORE.RESTR.norm>
0.0346877

>  <SCORE.SYSTEM>
0

>  <SCORE.SYSTEM.CONST>
0

>  <SCORE.SYSTEM.DIHEDRAL>
0

>  <SCORE.SYSTEM.SOLV>
0

>  <SCORE.SYSTEM.norm>
0

>  <SCORE.heavy>
22

>  <SCORE.norm>
-0.28187

>  <RMSD>
34.236

$$$$
2f4s_lig
 OpenBabel11021811433D
libRbt.so/2013.1/901 2013/11/27
 22 23  0  0  0  0  0  0  0  0999 V2000
    4.5468  -17.2319   27.1066 N   0  0  0  0  0  0  0  0  0  0  0  0
    3.9387  -12.2756   27.5984 N   0  0  0  0  0  0  0  0  0  0  0  0
    2.6628  -10.0001   28.0011 N   0  0  0  0  0  0  0  0  0  0  0  0
    5.7528  -14.2217   23.3661 O   0  0  0  0  0  0  0  0  0  0  0  0
    5.6967  -14.3252   24.8183 C   0  0  2  0  0  0  0  0  0  0  0  0
    6.5265  -10.4099   22.7705 N   0  0  0  0  0  0  0  0  0  0  0  0
    5.9527  -16.7709   24.6983 O   0  0  0  0  0  0  0  0  0  0  0  0
    5.1429  -15.7166   25.2318 C   0  0  1  0  0  0  0  0  0  0  0  0
    5.3465  -11.9162   25.1062 O   0  0  0  0  0  0  0  0  0  0  0  0
    5.0992  -15.8690   26.7474 C   0  0  1  0  0  0  0  0  0  0  0  0
    3.7985  -10.2203   25.3753 O   0  0  0  0  0  0  0  0  0  0  0  0
    4.2064  -14.7392   27.3635 C   0  0  0  0  0  0  0  0  0  0  0  0
    6.0835   -7.7843   26.9018 O   0  0  0  0  0  0  0  0  0  0  0  0
    4.8158  -13.3420   26.9589 C   0  0  1  0  0  0  0  0  0  0  0  0
    7.1902   -8.0670   24.2931 O   0  0  0  0  0  0  0  0  0  0  0  0
    4.7918  -13.1826   25.4278 C   0  0  2  0  0  0  0  0  0  0  0  0
    4.6460  -10.9295   24.3698 C   0  0  1  0  0  0  0  0  0  0  0  0
    4.5187   -9.5264   26.4801 C   0  0  2  0  0  0  0  0  0  0  0  0
    3.4799   -8.8922   27.4101 C   0  0  0  0  0  0  0  0  0  0  0  0
    5.3920   -8.4513   25.8728 C   0  0  2  0  0  0  0  0  0  0  0  0
    6.3658   -9.0814   24.8786 C   0  0  1  0  0  0  0  0  0  0  0  0
    5.5695   -9.8122   23.7696 C   0  0  1  0  0  0  0  0  0  0  0  0
  5  4  1  6  0  0  0
  5  8  1  0  0  0  0
  5 16  1  0  0  0  0
  8  7  1  6  0  0  0
  8 10  1  0  0  0  0
 10  1  1  6  0  0  0
 10 12  1  0  0  0  0
 11 18  1  0  0  0  0
 12 14  1  0  0  0  0
 14  2  1  1  0  0  0
 14 16  1  0  0  0  0
 16  9  1  1  0  0  0
 17  9  1  1  0  0  0
 17 11  1  0  0  0  0
 17 22  1  0  0  0  0
 18 19  1  1  0  0  0
 18 20  1  0  0  0  0
 19  3  1  0  0  0  0
 20 13  1  1  0  0  0
 20 21  1  0  0  0  0
 21 15  1  6  0  0  0
 21 22  1  0  0  0  0
 22  6  1  6  0  0  0
M  END
>  <CHROM.1>
120.77721842,83.37013720,62.96723687,5.08864356,-11.92409846,25.64082101
1.64709479,-0.99864944,-3.10918799

>  <Name>
2f4s_lig

>  <RI>
0

>  <Rbt.Current_Directory>
/home/itssahil/PROJECTS/Mol_Feturizer/New_Systems/rnas/2f4s

>  <Rbt.Executable>
rbdock ($Id: //depot/dev/client3/rdock/2013.1/src/exe/rbdock.cxx#4 $)

>  <Rbt.Library>
libRbt.so (2013.1, Build901 2013/11/27)

>  <Rbt.Parameter_File>
/export/apps/rDock/src/rDock_2013.1_src/data/scripts/dock_solv.prm

>  <Rbt.Receptor>
prm/blind_docking_60.prm

>  <SCORE>
0.902276

>  <SCORE.INTER>
-5.97386

>  <SCORE.INTER.CONST>
1

>  <SCORE.INTER.POLAR>
-0.265248

>  <SCORE.INTER.ROT>
3

>  <SCORE.INTER.SOLV>
20.0752

>  <SCORE.INTER.VDW>
-15.3901

>  <SCORE.INTER.norm>
-0.271539

>  <SCORE.INTRA>
5.99217

>  <SCORE.INTRA.DIHEDRAL>
7.94538

>  <SCORE.INTRA.DIHEDRAL.0>
1.67653

>  <SCORE.INTRA.POLAR>
0

>  <SCORE.INTRA.POLAR.0>
0

>  <SCORE.INTRA.REPUL>
0

>  <SCORE.INTRA.REPUL.0>
0

>  <SCORE.INTRA.SOLV>
5.02677

>  <SCORE.INTRA.SOLV.lig_0>
-76.6701

>  <SCORE.INTRA.VDW>
-0.493905

>  <SCORE.INTRA.VDW.0>
-1.53273

>  <SCORE.INTRA.norm>
0.272371

>  <SCORE.RESTR>
0.883966

>  <SCORE.RESTR.CAVITY>
0.883966

>  <SCORE.RESTR.norm>
0.0401803

>  <SCORE.SYSTEM>
0

>  <SCORE.SYSTEM.CONST>
0

>  <SCORE.SYSTEM.DIHEDRAL>
0

>  <SCORE.SYSTEM.SOLV>
0

>  <SCORE.SYSTEM.norm>
0

>  <SCORE.heavy>
22

>  <SCORE.norm>
0.0410125

>  <RMSD>
34.240

$$$$
2f4s_lig
 OpenBabel11021811433D
libRbt.so/2013.1/901 2013/11/27
 22 23  0  0  0  0  0  0  0  0999 V2000
    4.4827  -16.6196   27.4130 N   0  0  0  0  0  0  0  0  0  0  0  0
    2.3938  -12.0958   26.8233 N   0  0  0  0  0  0  0  0  0  0  0  0
    5.3381   -8.6309   28.6007 N   0  0  0  0  0  0  0  0  0  0  0  0
    5.6770  -13.8507   23.4869 O   0  0  0  0  0  0  0  0  0  0  0  0
    5.2934  -13.7927   24.8913 C   0  0  2  0  0  0  0  0  0  0  0  0
    3.7614   -9.7975   22.2655 N   0  0  0  0  0  0  0  0  0  0  0  0
    6.2529  -16.0245   25.2914 O   0  0  0  0  0  0  0  0  0  0  0  0
    5.0717  -15.2283   25.4423 C   0  0  1  0  0  0  0  0  0  0  0  0
    4.2154  -11.6055   24.6408 O   0  0  0  0  0  0  0  0  0  0  0  0
    4.6977  -15.2048   26.9193 C   0  0  1  0  0  0  0  0  0  0  0  0
    3.1025  -10.0791   25.9736 O   0  0  0  0  0  0  0  0  0  0  0  0
    3.3978  -14.3543   27.1187 C   0  0  0  0  0  0  0  0  0  0  0  0
    5.8118   -7.6070   26.1585 O   0  0  0  0  0  0  0  0  0  0  0  0
    3.6671  -12.8945   26.5863 C   0  0  1  0  0  0  0  0  0  0  0  0
    5.1633   -7.5554   23.3859 O   0  0  0  0  0  0  0  0  0  0  0  0
    3.9803  -12.9348   25.0795 C   0  0  2  0  0  0  0  0  0  0  0  0
    3.2006  -10.6189   24.5839 C   0  0  1  0  0  0  0  0  0  0  0  0
    4.3268   -9.4301   26.5221 C   0  0  2  0  0  0  0  0  0  0  0  0
    4.0310   -8.9740   27.9541 C   0  0  0  0  0  0  0  0  0  0  0  0
    4.6551   -8.2337   25.6571 C   0  0  2  0  0  0  0  0  0  0  0  0
    4.8605   -8.6854   24.2123 C   0  0  1  0  0  0  0  0  0  0  0  0
    3.5730   -9.3770   23.7005 C   0  0  1  0  0  0  0  0  0  0  0  0
  5  4  1  6  0  0  0
  5  8  1  0  0  0  0
  5 16  1  0  0  0  0
  8  7  1  1  0  0  0
  8 10  1  0  0  0  0
 10  1  1  6  0  0  0
 10 12  1  0  0  0  0
 11 18  1  0  0  0  0
 12 14  1  0  0  0  0
 14  2  1  6  0  0  0
 14 16  1  0  0  0  0
 16  9  1  1  0  0  0
 17  9  1  1  0  0  0
 17 11  1  0  0  0  0
 17 22  1  0  0  0  0
 18 19  1  1  0  0  0
 18 20  1  0  0  0  0
 19  3  1  0  0  0  0
 20 13  1  1  0  0  0
 20 21  1  0  0  0  0
 21 15  1  6  0  0  0
 21 22  1  0  0  0  0
 22  6  1  6  0  0  0
M  END
>  <CHROM.1>
174.92322315,82.70672636,166.62240932,4.43356743,-11.50775939,25.55569282
1.32615768,-1.43821031,2.78716853

>  <Name>
2f4s_lig

>  <RI>
8.9913e+06

>  <Rbt.Current_Directory>
/home/itssahil/PROJECTS/Mol_Feturizer/New_Systems/rnas/2f4s

>  <Rbt.Executable>
rbdock ($Id: //depot/dev/client3/rdock/2013.1/src/exe/rbdock.cxx#4 $)

>  <Rbt.Library>
libRbt.so (2013.1, Build901 2013/11/27)

>  <Rbt.Parameter_File>
/export/apps/rDock/src/rDock_2013.1_src/data/scripts/dock_solv.prm

>  <Rbt.Receptor>
prm/blind_docking_40.prm

>  <SCORE>
-7.91284

>  <SCORE.INTER>
-13.2709

>  <SCORE.INTER.CONST>
1

>  <SCORE.INTER.POLAR>
-2.32751

>  <SCORE.INTER.ROT>
3

>  <SCORE.INTER.SOLV>
21.0723

>  <SCORE.INTER.VDW>
-13.713

>  <SCORE.INTER.norm>
-0.603222

>  <SCORE.INTRA>
5.17524

>  <SCORE.INTRA.DIHEDRAL>
1.40537

>  <SCORE.INTRA.DIHEDRAL.0>
1.67653

>  <SCORE.INTRA.POLAR>
0

>  <SCORE.INTRA.POLAR.0>
0

>  <SCORE.INTRA.REPUL>
0

>  <SCORE.INTRA.REPUL.0>
0

>  <SCORE.INTRA.SOLV>
3.89008

>  <SCORE.INTRA.SOLV.lig_0>
-76.6701

>  <SCORE.INTRA.VDW>
2.52751

>  <SCORE.INTRA.VDW.0>
-1.53273

>  <SCORE.INTRA.norm>
0.235238

>  <SCORE.RESTR>
0.182802

>  <SCORE.RESTR.CAVITY>
0.182802

>  <SCORE.RESTR.norm>
0.0083092

>  <SCORE.SYSTEM>
0

>  <SCORE.SYSTEM.CONST>
0

>  <SCORE.SYSTEM.DIHEDRAL>
0

>  <SCORE.SYSTEM.SOLV>
0

>  <SCORE.SYSTEM.norm>
0

>  <SCORE.heavy>
22

>  <SCORE.norm>
-0.359675

>  <RMSD>
34.249

$$$$
2f4s_lig
 OpenBabel11021811433D
libRbt.so/2013.1/901 2013/11/27
 22 23  0  0  0  0  0  0  0  0999 V2000
    4.4561  -17.2122   27.1256 N   0  0  0  0  0  0  0  0  0  0  0  0
    3.9109  -12.2440   27.5684 N   0  0  0  0  0  0  0  0  0  0  0  0
    2.6821  -10.0014   28.0021 N   0  0  0  0  0  0  0  0  0  0  0  0
    5.7504  -14.2509   23.3756 O   0  0  0  0  0  0  0  0  0  0  0  0
    5.6747  -14.3412   24.8279 C   0  0  2  0  0  0  0  0  0  0  0  0
    6.5861  -10.4215   22.7806 N   0  0  0  0  0  0  0  0  0  0  0  0
    5.8982  -16.7911   24.7314 O   0  0  0  0  0  0  0  0  0  0  0  0
    5.0966  -15.7213   25.2459 C   0  0  1  0  0  0  0  0  0  0  0  0
    5.3545  -11.9253   25.0913 O   0  0  0  0  0  0  0  0  0  0  0  0
    5.0318  -15.8602   26.7620 C   0  0  1  0  0  0  0  0  0  0  0  0
    3.8135  -10.2194   25.3370 O   0  0  0  0  0  0  0  0  0  0  0  0
    4.1472  -14.7130   27.3574 C   0  0  0  0  0  0  0  0  0  0  0  0
    6.0876   -7.8028   26.9099 O   0  0  0  0  0  0  0  0  0  0  0  0
    4.7809  -13.3278   26.9489 C   0  0  1  0  0  0  0  0  0  0  0  0
    7.2385   -8.0869   24.3206 O   0  0  0  0  0  0  0  0  0  0  0  0
    4.7783  -13.1811   25.4164 C   0  0  2  0  0  0  0  0  0  0  0  0
    4.6739  -10.9320   24.3450 C   0  0  1  0  0  0  0  0  0  0  0  0
    4.5187   -9.5331   26.4562 C   0  0  2  0  0  0  0  0  0  0  0  0
    3.4678   -8.8940   27.3692 C   0  0  0  0  0  0  0  0  0  0  0  0
    5.4099   -8.4626   25.8671 C   0  0  2  0  0  0  0  0  0  0  0  0
    6.3970   -9.0970   24.8888 C   0  0  1  0  0  0  0  0  0  0  0  0
    5.6155   -9.8197   23.7641 C   0  0  1  0  0  0  0  0  0  0  0  0
  5  4  1  6  0  0  0
  5  8  1  0  0  0  0
  5 16  1  0  0  0  0
  8  7  1  1  0  0  0
  8 10  1  0  0  0  0
 10  1  1  6  0  0  0
 10 12  1  0  0  0  0
 11 18  1  0  0  0  0
 12 14  1  0  0  0  0
 14  2  1  1  0  0  0
 14 16  1  0  0  0  0
 16  9  1  1  0  0  0
 17  9  1  1  0  0  0
 17 11  1  0  0  0  0
 17 22  1  0  0  0  0
 18 19  1  1  0  0  0
 18 20  1  0  0  0  0
 19  3  1  0  0  0  0
 20 13  1  1  0  0  0
 20 21  1  0  0  0  0
 21 15  1  6  0  0  0
 21 22  1  0  0  0  0
 22  6  1  6  0  0  0
M  END
>  <CHROM.1>
121.18176458,82.42704750,66.06813240,5.08202240,-11.92787417,25.63861470
1.66797385,-0.98848989,-3.09534955

>  <Name>
2f4s_lig

>  <RI>
0

>  <Rbt.Current_Directory>
/home/itssahil/PROJECTS/Mol_Feturizer/New_Systems/rnas/2f4s

>  <Rbt.Executable>
rbdock ($Id: //depot/dev/client3/rdock/2013.1/src/exe/rbdock.cxx#4 $)

>  <Rbt.Library>
libRbt.so (2013.1, Build901 2013/11/27)

>  <Rbt.Parameter_File>
/export/apps/rDock/src/rDock_2013.1_src/data/scripts/dock_solv.prm

>  <Rbt.Receptor>
prm/blind_docking_60.prm

>  <SCORE>
0.938311

>  <SCORE.INTER>
-6.05785

>  <SCORE.INTER.CONST>
1

>  <SCORE.INTER.POLAR>
-0.264193

>  <SCORE.INTER.ROT>
3

>  <SCORE.INTER.SOLV>
19.8852

>  <SCORE.INTER.VDW>
-15.3863

>  <SCORE.INTER.norm>
-0.275357

>  <SCORE.INTRA>
6.10731

>  <SCORE.INTRA.DIHEDRAL>
7.88324

>  <SCORE.INTRA.DIHEDRAL.0>
1.67653

>  <SCORE.INTRA.POLAR>
0

>  <SCORE.INTRA.POLAR.0>
0

>  <SCORE.INTRA.REPUL>
0

>  <SCORE.INTRA.REPUL.0>
0

>  <SCORE.INTRA.SOLV>
5.10842

>  <SCORE.INTRA.SOLV.lig_0>
-76.6701

>  <SCORE.INTRA.VDW>
-0.388517

>  <SCORE.INTRA.VDW.0>
-1.53273

>  <SCORE.INTRA.norm>
0.277605

>  <SCORE.RESTR>
0.888848

>  <SCORE.RESTR.CAVITY>
0.888848

>  <SCORE.RESTR.norm>
0.0404022

>  <SCORE.SYSTEM>
0

>  <SCORE.SYSTEM.CONST>
0

>  <SCORE.SYSTEM.DIHEDRAL>
0

>  <SCORE.SYSTEM.SOLV>
0

>  <SCORE.SYSTEM.norm>
0

>  <SCORE.heavy>
22

>  <SCORE.norm>
0.0426505

>  <RMSD>
34.249

$$$$
2f4s_lig
 OpenBabel11021811433D
libRbt.so/2013.1/901 2013/11/27
 22 23  0  0  0  0  0  0  0  0999 V2000
    4.6624  -16.6589   27.2338 N   0  0  0  0  0  0  0  0  0  0  0  0
    5.9119  -13.7462   23.3440 N   0  0  0  0  0  0  0  0  0  0  0  0
    8.4744   -9.5013   23.1136 N   0  0  0  0  0  0  0  0  0  0  0  0
    4.4481  -11.7332   27.6795 O   0  0  0  0  0  0  0  0  0  0  0  0
    4.2833  -12.8353   26.7407 C   0  0  2  0  0  0  0  0  0  0  0  0
    2.4846   -9.9164   25.6552 N   0  0  0  0  0  0  0  0  0  0  0  0
    3.6926  -14.3677   28.5750 O   0  0  0  0  0  0  0  0  0  0  0  0
    4.5641  -14.1873   27.4525 C   0  0  1  0  0  0  0  0  0  0  0  0
    4.9372  -11.4650   24.8163 O   0  0  0  0  0  0  0  0  0  0  0  0
    4.3710  -15.3647   26.5046 C   0  0  1  0  0  0  0  0  0  0  0  0
    6.1358   -9.4882   24.7903 O   0  0  0  0  0  0  0  0  0  0  0  0
    5.3233  -15.2077   25.2711 C   0  0  0  0  0  0  0  0  0  0  0  0
    4.7473   -8.1794   21.6527 O   0  0  0  0  0  0  0  0  0  0  0  0
    4.9876  -13.8467   24.5486 C   0  0  1  0  0  0  0  0  0  0  0  0
    2.4483   -8.2275   23.3327 O   0  0  0  0  0  0  0  0  0  0  0  0
    5.2501  -12.6674   25.5027 C   0  0  2  0  0  0  0  0  0  0  0  0
    4.9824  -10.1894   25.4308 C   0  0  1  0  0  0  0  0  0  0  0  0
    6.0479   -9.2727   23.3183 C   0  0  2  0  0  0  0  0  0  0  0  0
    7.3287   -8.5711   22.8559 C   0  0  0  0  0  0  0  0  0  0  0  0
    4.8491   -8.3936   23.0404 C   0  0  2  0  0  0  0  0  0  0  0  0
    3.5866   -9.0594   23.5850 C   0  0  1  0  0  0  0  0  0  0  0  0
    3.7402   -9.2867   25.1091 C   0  0  1  0  0  0  0  0  0  0  0  0
  5  4  1  1  0  0  0
  5  8  1  0  0  0  0
  5 16  1  0  0  0  0
  8  7  1  1  0  0  0
  8 10  1  0  0  0  0
 10  1  1  1  0  0  0
 10 12  1  0  0  0  0
 11 18  1  0  0  0  0
 12 14  1  0  0  0  0
 14  2  1  6  0  0  0
 14 16  1  0  0  0  0
 16  9  1  6  0  0  0
 17  9  1  6  0  0  0
 17 11  1  0  0  0  0
 17 22  1  0  0  0  0
 18 19  1  1  0  0  0
 18 20  1  0  0  0  0
 19  3  1  0  0  0  0
 20 13  1  6  0  0  0
 20 21  1  0  0  0  0
 21 15  1  1  0  0  0
 21 22  1  0  0  0  0
 22  6  1  6  0  0  0
M  END
>  <CHROM.1>
58.96932997,111.16130067,63.72254734,4.86388440,-11.42647682,24.98120470
-1.68121868,0.60618196,-0.48666780

>  <Name>
2f4s_lig

>  <RI>
8.9913e+06

>  <Rbt.Current_Directory>
/home/itssahil/PROJECTS/Mol_Feturizer/New_Systems/rnas/2f4s

>  <Rbt.Executable>
rbdock ($Id: //depot/dev/client3/rdock/2013.1/src/exe/rbdock.cxx#4 $)

>  <Rbt.Library>
libRbt.so (2013.1, Build901 2013/11/27)

>  <Rbt.Parameter_File>
/export/apps/rDock/src/rDock_2013.1_src/data/scripts/dock_solv.prm

>  <Rbt.Receptor>
prm/blind_docking_40.prm

>  <SCORE>
-6.16556

>  <SCORE.INTER>
-10.2638

>  <SCORE.INTER.CONST>
1

>  <SCORE.INTER.POLAR>
-0.940485

>  <SCORE.INTER.ROT>
3

>  <SCORE.INTER.SOLV>
21.7302

>  <SCORE.INTER.VDW>
-16.551

>  <SCORE.INTER.norm>
-0.466536

>  <SCORE.INTRA>
3.40106

>  <SCORE.INTRA.DIHEDRAL>
5.13885

>  <SCORE.INTRA.DIHEDRAL.0>
1.67653

>  <SCORE.INTRA.POLAR>
0

>  <SCORE.INTRA.POLAR.0>
0

>  <SCORE.INTRA.REPUL>
0

>  <SCORE.INTRA.REPUL.0>
0

>  <SCORE.INTRA.SOLV>
0.901524

>  <SCORE.INTRA.SOLV.lig_0>
-76.6701

>  <SCORE.INTRA.VDW>
0.380875

>  <SCORE.INTRA.VDW.0>
-1.53273

>  <SCORE.INTRA.norm>
0.154594

>  <SCORE.RESTR>
0.697181

>  <SCORE.RESTR.CAVITY>
0.697181

>  <SCORE.RESTR.norm>
0.03169

>  <SCORE.SYSTEM>
0

>  <SCORE.SYSTEM.CONST>
0

>  <SCORE.SYSTEM.DIHEDRAL>
0

>  <SCORE.SYSTEM.SOLV>
0

>  <SCORE.SYSTEM.norm>
0

>  <SCORE.heavy>
22

>  <SCORE.norm>
-0.280253

>  <RMSD>
34.251

$$$$
2f4s_lig
 OpenBabel11021811433D
libRbt.so/2013.1/901 2013/11/27
 22 23  0  0  0  0  0  0  0  0999 V2000
    4.4154  -16.6280   27.4267 N   0  0  0  0  0  0  0  0  0  0  0  0
    2.3771  -12.0830   26.8235 N   0  0  0  0  0  0  0  0  0  0  0  0
    5.3046   -8.6232   28.5939 N   0  0  0  0  0  0  0  0  0  0  0  0
    5.6412  -13.8839   23.4929 O   0  0  0  0  0  0  0  0  0  0  0  0
    5.2580  -13.8176   24.8971 C   0  0  2  0  0  0  0  0  0  0  0  0
    3.7905   -9.8200   22.2508 N   0  0  0  0  0  0  0  0  0  0  0  0
    6.1925  -16.0588   25.3037 O   0  0  0  0  0  0  0  0  0  0  0  0
    5.0203  -15.2490   25.4521 C   0  0  1  0  0  0  0  0  0  0  0  0
    4.2045  -11.6193   24.6401 O   0  0  0  0  0  0  0  0  0  0  0  0
    4.6463  -15.2171   26.9290 C   0  0  1  0  0  0  0  0  0  0  0  0
    3.0883  -10.0778   25.9527 O   0  0  0  0  0  0  0  0  0  0  0  0
    3.3558  -14.3517   27.1256 C   0  0  0  0  0  0  0  0  0  0  0  0
    5.8139   -7.6251   26.1554 O   0  0  0  0  0  0  0  0  0  0  0  0
    3.6415  -12.8964   26.5891 C   0  0  1  0  0  0  0  0  0  0  0  0
    5.1966   -7.5827   23.3755 O   0  0  0  0  0  0  0  0  0  0  0  0
    3.9545  -12.9446   25.0825 C   0  0  2  0  0  0  0  0  0  0  0  0
    3.1978  -10.6254   24.5669 C   0  0  1  0  0  0  0  0  0  0  0  0
    4.3113   -9.4352   26.5115 C   0  0  2  0  0  0  0  0  0  0  0  0
    4.0030   -8.9697   27.9379 C   0  0  0  0  0  0  0  0  0  0  0  0
    4.6582   -8.2457   25.6443 C   0  0  2  0  0  0  0  0  0  0  0  0
    4.8762   -8.7063   24.2041 C   0  0  1  0  0  0  0  0  0  0  0  0
    3.5893   -9.3909   23.6815 C   0  0  1  0  0  0  0  0  0  0  0  0
  5  4  1  6  0  0  0
  5  8  1  0  0  0  0
  5 16  1  0  0  0  0
  8  7  1  1  0  0  0
  8 10  1  0  0  0  0
 10  1  1  6  0  0  0
 10 12  1  0  0  0  0
 11 18  1  0  0  0  0
 12 14  1  0  0  0  0
 14  2  1  6  0  0  0
 14 16  1  0  0  0  0
 16  9  1  1  0  0  0
 17  9  1  1  0  0  0
 17 11  1  0  0  0  0
 17 22  1  0  0  0  0
 18 19  1  1  0  0  0
 18 20  1  0  0  0  0
 19  3  1  0  0  0  0
 20 13  1  1  0  0  0
 20 21  1  0  0  0  0
 21 15  1  6  0  0  0
 21 22  1  0  0  0  0
 22  6  1  6  0  0  0
M  END
>  <CHROM.1>
174.24537163,82.71923482,167.03660527,4.41472376,-11.51976750,25.55254254
1.39817867,-1.43161807,2.85679166

>  <Name>
2f4s_lig

>  <RI>
8.9913e+06

>  <Rbt.Current_Directory>
/home/itssahil/PROJECTS/Mol_Feturizer/New_Systems/rnas/2f4s

>  <Rbt.Executable>
rbdock ($Id: //depot/dev/client3/rdock/2013.1/src/exe/rbdock.cxx#4 $)

>  <Rbt.Library>
libRbt.so (2013.1, Build901 2013/11/27)

>  <Rbt.Parameter_File>
/export/apps/rDock/src/rDock_2013.1_src/data/scripts/dock_solv.prm

>  <Rbt.Receptor>
prm/blind_docking_40.prm

>  <SCORE>
-7.73356

>  <SCORE.INTER>
-13.0453

>  <SCORE.INTER.CONST>
1

>  <SCORE.INTER.POLAR>
-2.32607

>  <SCORE.INTER.ROT>
3

>  <SCORE.INTER.SOLV>
20.858

>  <SCORE.INTER.VDW>
-13.496

>  <SCORE.INTER.norm>
-0.592969

>  <SCORE.INTRA>
5.18186

>  <SCORE.INTRA.DIHEDRAL>
1.4068

>  <SCORE.INTRA.DIHEDRAL.0>
1.67653

>  <SCORE.INTRA.POLAR>
0

>  <SCORE.INTRA.POLAR.0>
0

>  <SCORE.INTRA.REPUL>
0

>  <SCORE.INTRA.REPUL.0>
0

>  <SCORE.INTRA.SOLV>
3.90925

>  <SCORE.INTRA.SOLV.lig_0>
-76.6701

>  <SCORE.INTRA.VDW>
2.52384

>  <SCORE.INTRA.VDW.0>
-1.53273

>  <SCORE.INTRA.norm>
0.235539

>  <SCORE.RESTR>
0.129895

>  <SCORE.RESTR.CAVITY>
0.129895

>  <SCORE.RESTR.norm>
0.00590433

>  <SCORE.SYSTEM>
0

>  <SCORE.SYSTEM.CONST>
0

>  <SCORE.SYSTEM.DIHEDRAL>
0

>  <SCORE.SYSTEM.SOLV>
0

>  <SCORE.SYSTEM.norm>
0

>  <SCORE.heavy>
22

>  <SCORE.norm>
-0.351526

>  <RMSD>
34.271

$$$$
2f4s_lig
 OpenBabel11021811433D
libRbt.so/2013.1/901 2013/11/27
 22 23  0  0  0  0  0  0  0  0999 V2000
    4.2684  -16.3418   27.4183 N   0  0  0  0  0  0  0  0  0  0  0  0
    2.3392  -11.8365   26.3430 N   0  0  0  0  0  0  0  0  0  0  0  0
    4.6870   -9.9553   28.3076 N   0  0  0  0  0  0  0  0  0  0  0  0
    5.7780  -13.9205   23.3728 O   0  0  0  0  0  0  0  0  0  0  0  0
    5.3088  -13.7427   24.7407 C   0  0  2  0  0  0  0  0  0  0  0  0
    3.5902   -9.7809   21.9188 N   0  0  0  0  0  0  0  0  0  0  0  0
    6.1829  -15.9552   25.3752 O   0  0  0  0  0  0  0  0  0  0  0  0
    5.0157  -15.1248   25.3869 C   0  0  1  0  0  0  0  0  0  0  0  0
    4.3060  -11.5603   24.2508 O   0  0  0  0  0  0  0  0  0  0  0  0
    4.5507  -14.9757   26.8303 C   0  0  1  0  0  0  0  0  0  0  0  0
    3.6545   -9.8754   25.6937 O   0  0  0  0  0  0  0  0  0  0  0  0
    3.2634  -14.0849   26.8783 C   0  0  0  0  0  0  0  0  0  0  0  0
    6.6012   -7.7354   25.2213 O   0  0  0  0  0  0  0  0  0  0  0  0
    3.6035  -12.6782   26.2518 C   0  0  1  0  0  0  0  0  0  0  0  0
    5.4243   -7.6880   22.6285 O   0  0  0  0  0  0  0  0  0  0  0  0
    4.0093  -12.8451   24.7761 C   0  0  2  0  0  0  0  0  0  0  0  0
    3.4146  -10.4630   24.3411 C   0  0  1  0  0  0  0  0  0  0  0  0
    5.0271   -9.3596   25.9599 C   0  0  2  0  0  0  0  0  0  0  0  0
    5.0737   -8.8305   27.3966 C   0  0  0  0  0  0  0  0  0  0  0  0
    5.3063   -8.2358   24.9871 C   0  0  2  0  0  0  0  0  0  0  0  0
    5.1696   -8.7501   23.5551 C   0  0  1  0  0  0  0  0  0  0  0  0
    3.7380   -9.2998   23.3393 C   0  0  1  0  0  0  0  0  0  0  0  0
  5  4  1  6  0  0  0
  5  8  1  0  0  0  0
  5 16  1  0  0  0  0
  8  7  1  1  0  0  0
  8 10  1  0  0  0  0
 10  1  1  6  0  0  0
 10 12  1  0  0  0  0
 11 18  1  0  0  0  0
 12 14  1  0  0  0  0
 14  2  1  6  0  0  0
 14 16  1  0  0  0  0
 16  9  1  1  0  0  0
 17  9  1  6  0  0  0
 17 11  1  0  0  0  0
 17 22  1  0  0  0  0
 18 19  1  1  0  0  0
 18 20  1  0  0  0  0
 19  3  1  0  0  0  0
 20 13  1  6  0  0  0
 20 21  1  0  0  0  0
 21 15  1  6  0  0  0
 21 22  1  0  0  0  0
 22  6  1  6  0  0  0
M  END
>  <CHROM.1>
-169.63135154,83.74543435,57.60389209,4.59052745,-11.48571691,25.20204175
1.89022437,-1.43475516,-3.07967154

>  <Name>
2f4s_lig

>  <RI>
0

>  <Rbt.Current_Directory>
/home/itssahil/PROJECTS/Mol_Feturizer/New_Systems/rnas/2f4s

>  <Rbt.Executable>
rbdock ($Id: //depot/dev/client3/rdock/2013.1/src/exe/rbdock.cxx#4 $)

>  <Rbt.Library>
libRbt.so (2013.1, Build901 2013/11/27)

>  <Rbt.Parameter_File>
/export/apps/rDock/src/rDock_2013.1_src/data/scripts/dock_solv.prm

>  <Rbt.Receptor>
prm/blind_docking_80.prm

>  <SCORE>
-6.23449

>  <SCORE.INTER>
-11.4857

>  <SCORE.INTER.CONST>
1

>  <SCORE.INTER.POLAR>
-2.07316

>  <SCORE.INTER.ROT>
3

>  <SCORE.INTER.SOLV>
21.9904

>  <SCORE.INTER.VDW>
-13.6767

>  <SCORE.INTER.norm>
-0.522076

>  <SCORE.INTRA>
4.71812

>  <SCORE.INTRA.DIHEDRAL>
1.37803

>  <SCORE.INTRA.DIHEDRAL.0>
1.67653

>  <SCORE.INTRA.POLAR>
0

>  <SCORE.INTRA.POLAR.0>
0

>  <SCORE.INTRA.REPUL>
0

>  <SCORE.INTRA.REPUL.0>
0

>  <SCORE.INTRA.SOLV>
4.26628

>  <SCORE.INTRA.SOLV.lig_0>
-76.6701

>  <SCORE.INTRA.VDW>
1.89597

>  <SCORE.INTRA.VDW.0>
-1.53273

>  <SCORE.INTRA.norm>
0.21446

>  <SCORE.RESTR>
0.533068

>  <SCORE.RESTR.CAVITY>
0.533068

>  <SCORE.RESTR.norm>
0.0242303

>  <SCORE.SYSTEM>
0

>  <SCORE.SYSTEM.CONST>
0

>  <SCORE.SYSTEM.DIHEDRAL>
0

>  <SCORE.SYSTEM.SOLV>
0

>  <SCORE.SYSTEM.norm>
0

>  <SCORE.heavy>
22

>  <SCORE.norm>
-0.283386

>  <RMSD>
34.286

$$$$
2f4s_lig
 OpenBabel11021811433D
libRbt.so/2013.1/901 2013/11/27
 22 23  0  0  0  0  0  0  0  0999 V2000
    4.3941  -17.4355   26.4022 N   0  0  0  0  0  0  0  0  0  0  0  0
    2.3900  -13.2464   28.3026 N   0  0  0  0  0  0  0  0  0  0  0  0
    5.1025   -8.5678   29.4912 N   0  0  0  0  0  0  0  0  0  0  0  0
    5.4760  -13.0507   24.3746 O   0  0  0  0  0  0  0  0  0  0  0  0
    5.1577  -13.7167   25.6308 C   0  0  2  0  0  0  0  0  0  0  0  0
    2.9698  -11.0875   23.8622 N   0  0  0  0  0  0  0  0  0  0  0  0
    6.0804  -15.8390   24.7907 O   0  0  0  0  0  0  0  0  0  0  0  0
    4.9268  -15.2333   25.3857 C   0  0  1  0  0  0  0  0  0  0  0  0
    4.1224  -11.7092   26.5829 O   0  0  0  0  0  0  0  0  0  0  0  0
    4.6206  -15.9659   26.6863 C   0  0  1  0  0  0  0  0  0  0  0  0
    3.5493   -9.5793   27.2758 O   0  0  0  0  0  0  0  0  0  0  0  0
    3.3517  -15.3384   27.3566 C   0  0  0  0  0  0  0  0  0  0  0  0
    6.2399   -7.8095   25.5110 O   0  0  0  0  0  0  0  0  0  0  0  0
    3.6318  -13.8103   27.6276 C   0  0  1  0  0  0  0  0  0  0  0  0
    4.7238   -8.8726   23.3473 O   0  0  0  0  0  0  0  0  0  0  0  0
    3.8754  -13.0772   26.2960 C   0  0  2  0  0  0  0  0  0  0  0  0
    3.1730  -10.6852   26.3443 C   0  0  1  0  0  0  0  0  0  0  0  0
    4.9035   -8.9857   27.0896 C   0  0  2  0  0  0  0  0  0  0  0  0
    5.1043   -7.8993   28.1505 C   0  0  0  0  0  0  0  0  0  0  0  0
    4.9656   -8.3748   25.7075 C   0  0  2  0  0  0  0  0  0  0  0  0
    4.6752   -9.4468   24.6585 C   0  0  1  0  0  0  0  0  0  0  0  0
    3.2720  -10.0503   24.9130 C   0  0  1  0  0  0  0  0  0  0  0  0
  5  4  1  6  0  0  0
  5  8  1  0  0  0  0
  5 16  1  0  0  0  0
  8  7  1  1  0  0  0
  8 10  1  0  0  0  0
 10  1  1  6  0  0  0
 10 12  1  0  0  0  0
 11 18  1  0  0  0  0
 12 14  1  0  0  0  0
 14  2  1  6  0  0  0
 14 16  1  0  0  0  0
 16  9  1  1  0  0  0
 17  9  1  6  0  0  0
 17 11  1  0  0  0  0
 17 22  1  0  0  0  0
 18 19  1  1  0  0  0
 18 20  1  0  0  0  0
 19  3  1  0  0  0  0
 20 13  1  6  0  0  0
 20 21  1  0  0  0  0
 21 15  1  6  0  0  0
 21 22  1  0  0  0  0
 22  6  1  6  0  0  0
M  END
>  <CHROM.1>
137.61805400,156.31457079,64.72110955,4.42262242,-11.77856768,26.14365307
1.74533262,-1.31638366,-2.96115232

>  <Name>
2f4s_lig

>  <RI>
8.9913e+06

>  <Rbt.Current_Directory>
/home/itssahil/PROJECTS/Mol_Feturizer/New_Systems/rnas/2f4s

>  <Rbt.Executable>
rbdock ($Id: //depot/dev/client3/rdock/2013.1/src/exe/rbdock.cxx#4 $)

>  <Rbt.Library>
libRbt.so (2013.1, Build901 2013/11/27)

>  <Rbt.Parameter_File>
/export/apps/rDock/src/rDock_2013.1_src/data/scripts/dock_solv.prm

>  <Rbt.Receptor>
prm/blind_docking_40.prm

>  <SCORE>
-8.11696

>  <SCORE.INTER>
-12.0102

>  <SCORE.INTER.CONST>
1

>  <SCORE.INTER.POLAR>
-1.97897

>  <SCORE.INTER.ROT>
3

>  <SCORE.INTER.SOLV>
18.0594

>  <SCORE.INTER.VDW>
-13.0301

>  <SCORE.INTER.norm>
-0.54592

>  <SCORE.INTRA>
3.80169

>  <SCORE.INTRA.DIHEDRAL>
6.63897

>  <SCORE.INTRA.DIHEDRAL.0>
1.67653

>  <SCORE.INTRA.POLAR>
0

>  <SCORE.INTRA.POLAR.0>
0

>  <SCORE.INTRA.REPUL>
0

>  <SCORE.INTRA.REPUL.0>
0

>  <SCORE.INTRA.SOLV>
1.88556

>  <SCORE.INTRA.SOLV.lig_0>
-76.6701

>  <SCORE.INTRA.VDW>
-0.46057

>  <SCORE.INTRA.VDW.0>
-1.53273

>  <SCORE.INTRA.norm>
0.172804

>  <SCORE.RESTR>
0.0915876

>  <SCORE.RESTR.CAVITY>
0.0915876

>  <SCORE.RESTR.norm>
0.00416307

>  <SCORE.SYSTEM>
0

>  <SCORE.SYSTEM.CONST>
0

>  <SCORE.SYSTEM.DIHEDRAL>
0

>  <SCORE.SYSTEM.SOLV>
0

>  <SCORE.SYSTEM.norm>
0

>  <SCORE.heavy>
22

>  <SCORE.norm>
-0.368953

>  <RMSD>
34.289

$$$$
2f4s_lig
 OpenBabel11021811433D
libRbt.so/2013.1/901 2013/11/27
 22 23  0  0  0  0  0  0  0  0999 V2000
    4.0443  -16.4345   27.5247 N   0  0  0  0  0  0  0  0  0  0  0  0
    2.2752  -11.8227   26.6432 N   0  0  0  0  0  0  0  0  0  0  0  0
    4.8250   -9.8143   28.4878 N   0  0  0  0  0  0  0  0  0  0  0  0
    5.5556  -13.9425   23.5230 O   0  0  0  0  0  0  0  0  0  0  0  0
    5.1264  -13.7916   24.9072 C   0  0  2  0  0  0  0  0  0  0  0  0
    3.4208   -9.8641   22.1369 N   0  0  0  0  0  0  0  0  0  0  0  0
    5.9244  -16.0570   25.4482 O   0  0  0  0  0  0  0  0  0  0  0  0
    4.7926  -15.1815   25.5156 C   0  0  1  0  0  0  0  0  0  0  0  0
    4.2019  -11.5559   24.5128 O   0  0  0  0  0  0  0  0  0  0  0  0
    4.3681  -15.0620   26.9742 C   0  0  1  0  0  0  0  0  0  0  0  0
    3.6191   -9.8068   25.9079 O   0  0  0  0  0  0  0  0  0  0  0  0
    3.1196  -14.1226   27.0827 C   0  0  0  0  0  0  0  0  0  0  0  0
    6.5680   -7.7211   25.2450 O   0  0  0  0  0  0  0  0  0  0  0  0
    3.5018  -12.7106   26.4936 C   0  0  1  0  0  0  0  0  0  0  0  0
    5.2996   -7.7652   22.6955 O   0  0  0  0  0  0  0  0  0  0  0  0
    3.8656  -12.8446   25.0037 C   0  0  2  0  0  0  0  0  0  0  0  0
    3.3251  -10.4459   24.5898 C   0  0  1  0  0  0  0  0  0  0  0  0
    5.0053   -9.2962   26.1042 C   0  0  2  0  0  0  0  0  0  0  0  0
    5.1085   -8.7102   27.5157 C   0  0  0  0  0  0  0  0  0  0  0  0
    5.2606   -8.2159   25.0772 C   0  0  2  0  0  0  0  0  0  0  0  0
    5.0677   -8.7860   23.6731 C   0  0  1  0  0  0  0  0  0  0  0  0
    3.6240   -9.3278   23.5306 C   0  0  1  0  0  0  0  0  0  0  0  0
  5  4  1  6  0  0  0
  5  8  1  0  0  0  0
  5 16  1  0  0  0  0
  8  7  1  1  0  0  0
  8 10  1  0  0  0  0
 10  1  1  6  0  0  0
 10 12  1  0  0  0  0
 11 18  1  0  0  0  0
 12 14  1  0  0  0  0
 14  2  1  6  0  0  0
 14 16  1  0  0  0  0
 16  9  1  1  0  0  0
 17  9  1  6  0  0  0
 17 11  1  0  0  0  0
 17 22  1  0  0  0  0
 18 19  1  1  0  0  0
 18 20  1  0  0  0  0
 19  3  1  0  0  0  0
 20 13  1  6  0  0  0
 20 21  1  0  0  0  0
 21 15  1  6  0  0  0
 21 22  1  0  0  0  0
 22  6  1  6  0  0  0
M  END
>  <CHROM.1>
-173.50354787,89.08853771,60.98791584,4.48040523,-11.49665057,25.36511642
2.16961671,-1.45311238,-2.79016807

>  <Name>
2f4s_lig

>  <RI>
8.9913e+06

>  <Rbt.Current_Directory>
/home/itssahil/PROJECTS/Mol_Feturizer/New_Systems/rnas/2f4s

>  <Rbt.Executable>
rbdock ($Id: //depot/dev/client3/rdock/2013.1/src/exe/rbdock.cxx#4 $)

>  <Rbt.Library>
libRbt.so (2013.1, Build901 2013/11/27)

>  <Rbt.Parameter_File>
/export/apps/rDock/src/rDock_2013.1_src/data/scripts/dock_solv.prm

>  <Rbt.Receptor>
prm/blind_docking_40.prm

>  <SCORE>
-6.88219

>  <SCORE.INTER>
-10.9552

>  <SCORE.INTER.CONST>
1

>  <SCORE.INTER.POLAR>
-2.05472

>  <SCORE.INTER.ROT>
3

>  <SCORE.INTER.SOLV>
21.3853

>  <SCORE.INTER.VDW>
-13.1829

>  <SCORE.INTER.norm>
-0.497965

>  <SCORE.INTRA>
4.0713

>  <SCORE.INTRA.DIHEDRAL>
2.00839

>  <SCORE.INTRA.DIHEDRAL.0>
1.67653

>  <SCORE.INTRA.POLAR>
0

>  <SCORE.INTRA.POLAR.0>
0

>  <SCORE.INTRA.REPUL>
0

>  <SCORE.INTRA.REPUL.0>
0

>  <SCORE.INTRA.SOLV>
3.69269

>  <SCORE.INTRA.SOLV.lig_0>
-76.6701

>  <SCORE.INTRA.VDW>
1.22076

>  <SCORE.INTRA.VDW.0>
-1.53273

>  <SCORE.INTRA.norm>
0.185059

>  <SCORE.RESTR>
0.00173429

>  <SCORE.RESTR.CAVITY>
0.00173429

>  <SCORE.RESTR.norm>
7.88314e-05

>  <SCORE.SYSTEM>
0

>  <SCORE.SYSTEM.CONST>
0

>  <SCORE.SYSTEM.DIHEDRAL>
0

>  <SCORE.SYSTEM.SOLV>
0

>  <SCORE.SYSTEM.norm>
0

>  <SCORE.heavy>
22

>  <SCORE.norm>
-0.312827

>  <RMSD>
34.300

$$$$
2f4s_lig
 OpenBabel11021811433D
libRbt.so/2013.1/901 2013/11/27
 22 23  0  0  0  0  0  0  0  0999 V2000
    5.5878  -16.4877   27.6455 N   0  0  0  0  0  0  0  0  0  0  0  0
    2.8394  -12.2979   27.3844 N   0  0  0  0  0  0  0  0  0  0  0  0
    4.6666   -9.5105   28.5362 N   0  0  0  0  0  0  0  0  0  0  0  0
    5.4906  -13.8663   23.4471 O   0  0  0  0  0  0  0  0  0  0  0  0
    5.4286  -13.7603   24.8990 C   0  0  2  0  0  0  0  0  0  0  0  0
    2.4008  -10.4820   22.6221 N   0  0  0  0  0  0  0  0  0  0  0  0
    6.7405  -15.8285   25.1503 O   0  0  0  0  0  0  0  0  0  0  0  0
    5.5287  -15.1717   25.5405 C   0  0  1  0  0  0  0  0  0  0  0  0
    4.0418  -11.7405   24.8222 O   0  0  0  0  0  0  0  0  0  0  0  0
    5.4969  -15.0938   27.0620 C   0  0  1  0  0  0  0  0  0  0  0  0
    3.3677  -10.0493   26.2471 O   0  0  0  0  0  0  0  0  0  0  0  0
    4.1742  -14.3943   27.5247 C   0  0  0  0  0  0  0  0  0  0  0  0
    5.5312   -7.4254   24.8615 O   0  0  0  0  0  0  0  0  0  0  0  0
    4.1210  -12.9519   26.8893 C   0  0  1  0  0  0  0  0  0  0  0  0
    3.8029   -7.9760   22.6660 O   0  0  0  0  0  0  0  0  0  0  0  0
    4.0896  -13.0558   25.3536 C   0  0  2  0  0  0  0  0  0  0  0  0
    2.9634  -10.8516   25.0533 C   0  0  1  0  0  0  0  0  0  0  0  0
    4.6028   -9.2272   26.1077 C   0  0  2  0  0  0  0  0  0  0  0  0
    4.8583   -8.5106   27.4372 C   0  0  0  0  0  0  0  0  0  0  0  0
    4.3731   -8.2120   25.0104 C   0  0  2  0  0  0  0  0  0  0  0  0
    4.0303   -8.9325   23.7076 C   0  0  1  0  0  0  0  0  0  0  0  0
    2.7593   -9.7930   23.9136 C   0  0  1  0  0  0  0  0  0  0  0  0
  5  4  1  6  0  0  0
  5  8  1  0  0  0  0
  5 16  1  0  0  0  0
  8  7  1  1  0  0  0
  8 10  1  0  0  0  0
 10  1  1  1  0  0  0
 10 12  1  0  0  0  0
 11 18  1  0  0  0  0
 12 14  1  0  0  0  0
 14  2  1  1  0  0  0
 14 16  1  0  0  0  0
 16  9  1  6  0  0  0
 17  9  1  6  0  0  0
 17 11  1  0  0  0  0
 17 22  1  0  0  0  0
 18 19  1  1  0  0  0
 18 20  1  0  0  0  0
 19  3  1  0  0  0  0
 20 13  1  6  0  0  0
 20 21  1  0  0  0  0
 21 15  1  6  0  0  0
 21 22  1  0  0  0  0
 22  6  1  6  0  0  0
M  END
>  <CHROM.1>
-179.94499564,93.30433118,45.09338694,4.42279601,-11.59811953,25.50740442
-0.11789871,-1.36968112,1.21270452

>  <Name>
2f4s_lig

>  <RI>
8.9913e+06

>  <Rbt.Current_Directory>
/home/itssahil/PROJECTS/Mol_Feturizer/New_Systems/rnas/2f4s

>  <Rbt.Executable>
rbdock ($Id: //depot/dev/client3/rdock/2013.1/src/exe/rbdock.cxx#4 $)

>  <Rbt.Library>
libRbt.so (2013.1, Build901 2013/11/27)

>  <Rbt.Parameter_File>
/export/apps/rDock/src/rDock_2013.1_src/data/scripts/dock_solv.prm

>  <Rbt.Receptor>
prm/blind_docking_40.prm

>  <SCORE>
-5.35247

>  <SCORE.INTER>
-9.78677

>  <SCORE.INTER.CONST>
1

>  <SCORE.INTER.POLAR>
-1.58885

>  <SCORE.INTER.ROT>
3

>  <SCORE.INTER.SOLV>
21.7503

>  <SCORE.INTER.VDW>
-14.0784

>  <SCORE.INTER.norm>
-0.444853

>  <SCORE.INTRA>
4.35837

>  <SCORE.INTRA.DIHEDRAL>
3.31836

>  <SCORE.INTRA.DIHEDRAL.0>
1.67653

>  <SCORE.INTRA.POLAR>
0

>  <SCORE.INTRA.POLAR.0>
0

>  <SCORE.INTRA.REPUL>
0

>  <SCORE.INTRA.REPUL.0>
0

>  <SCORE.INTRA.SOLV>
3.92299

>  <SCORE.INTRA.SOLV.lig_0>
-76.6701

>  <SCORE.INTRA.VDW>
0.737694

>  <SCORE.INTRA.VDW.0>
-1.53273

>  <SCORE.INTRA.norm>
0.198108

>  <SCORE.RESTR>
0.0759227

>  <SCORE.RESTR.CAVITY>
0.0759227

>  <SCORE.RESTR.norm>
0.00345103

>  <SCORE.SYSTEM>
0

>  <SCORE.SYSTEM.CONST>
0

>  <SCORE.SYSTEM.DIHEDRAL>
0

>  <SCORE.SYSTEM.SOLV>
0

>  <SCORE.SYSTEM.norm>
0

>  <SCORE.heavy>
22

>  <SCORE.norm>
-0.243294

>  <RMSD>
34.307

$$$$
2f4s_lig
 OpenBabel11021811433D
libRbt.so/2013.1/901 2013/11/27
 22 23  0  0  0  0  0  0  0  0999 V2000
    5.5796  -16.4827   27.6477 N   0  0  0  0  0  0  0  0  0  0  0  0
    2.8554  -12.2789   27.3600 N   0  0  0  0  0  0  0  0  0  0  0  0
    4.7432   -9.5097   28.4898 N   0  0  0  0  0  0  0  0  0  0  0  0
    5.4893  -13.8930   23.4296 O   0  0  0  0  0  0  0  0  0  0  0  0
    5.4309  -13.7755   24.8807 C   0  0  2  0  0  0  0  0  0  0  0  0
    2.4019  -10.4750   22.6092 N   0  0  0  0  0  0  0  0  0  0  0  0
    6.7310  -15.8494   25.1453 O   0  0  0  0  0  0  0  0  0  0  0  0
    5.5240  -15.1825   25.5328 C   0  0  1  0  0  0  0  0  0  0  0  0
    4.0559  -11.7482   24.7911 O   0  0  0  0  0  0  0  0  0  0  0  0
    5.4957  -15.0928   27.0537 C   0  0  1  0  0  0  0  0  0  0  0  0
    3.4239  -10.0435   26.2193 O   0  0  0  0  0  0  0  0  0  0  0  0
    4.1781  -14.3819   27.5137 C   0  0  0  0  0  0  0  0  0  0  0  0
    5.6031   -7.4533   24.7953 O   0  0  0  0  0  0  0  0  0  0  0  0
    4.1321  -12.9442   26.8673 C   0  0  1  0  0  0  0  0  0  0  0  0
    3.8378   -7.9879   22.6255 O   0  0  0  0  0  0  0  0  0  0  0  0
    4.0970  -13.0596   25.3326 C   0  0  2  0  0  0  0  0  0  0  0  0
    2.9926  -10.8442   25.0338 C   0  0  1  0  0  0  0  0  0  0  0  0
    4.6679   -9.2384   26.0602 C   0  0  2  0  0  0  0  0  0  0  0  0
    4.9511   -8.5210   27.3836 C   0  0  0  0  0  0  0  0  0  0  0  0
    4.4368   -8.2239   24.9626 C   0  0  2  0  0  0  0  0  0  0  0  0
    4.0666   -8.9440   23.6672 C   0  0  1  0  0  0  0  0  0  0  0  0
    2.7872   -9.7867   23.8933 C   0  0  1  0  0  0  0  0  0  0  0  0
  5  4  1  6  0  0  0
  5  8  1  0  0  0  0
  5 16  1  0  0  0  0
  8  7  1  1  0  0  0
  8 10  1  0  0  0  0
 10  1  1  1  0  0  0
 10 12  1  0  0  0  0
 11 18  1  0  0  0  0
 12 14  1  0  0  0  0
 14  2  1  1  0  0  0
 14 16  1  0  0  0  0
 16  9  1  6  0  0  0
 17  9  1  6  0  0  0
 17 11  1  0  0  0  0
 17 22  1  0  0  0  0
 18 19  1  1  0  0  0
 18 20  1  0  0  0  0
 19  3  1  0  0  0  0
 20 13  1  6  0  0  0
 20 21  1  0  0  0  0
 21 15  1  6  0  0  0
 21 22  1  0  0  0  0
 22  6  1  6  0  0  0
M  END
>  <CHROM.1>
-178.97382039,92.93751458,44.34824360,4.44955347,-11.60294398,25.48049817
-0.18259459,-1.37558723,1.14045117

>  <Name>
2f4s_lig

>  <RI>
8.9913e+06

>  <Rbt.Current_Directory>
/home/itssahil/PROJECTS/Mol_Feturizer/New_Systems/rnas/2f4s

>  <Rbt.Executable>
rbdock ($Id: //depot/dev/client3/rdock/2013.1/src/exe/rbdock.cxx#4 $)

>  <Rbt.Library>
libRbt.so (2013.1, Build901 2013/11/27)

>  <Rbt.Parameter_File>
/export/apps/rDock/src/rDock_2013.1_src/data/scripts/dock_solv.prm

>  <Rbt.Receptor>
prm/blind_docking_40.prm

>  <SCORE>
-5.32972

>  <SCORE.INTER>
-9.83204

>  <SCORE.INTER.CONST>
1

>  <SCORE.INTER.POLAR>
-1.56585

>  <SCORE.INTER.ROT>
3

>  <SCORE.INTER.SOLV>
21.9835

>  <SCORE.INTER.VDW>
-14.263

>  <SCORE.INTER.norm>
-0.446911

>  <SCORE.INTRA>
4.43583

>  <SCORE.INTRA.DIHEDRAL>
3.33082

>  <SCORE.INTRA.DIHEDRAL.0>
1.67653

>  <SCORE.INTRA.POLAR>
0

>  <SCORE.INTRA.POLAR.0>
0

>  <SCORE.INTRA.REPUL>
0

>  <SCORE.INTRA.REPUL.0>
0

>  <SCORE.INTRA.SOLV>
3.92764

>  <SCORE.INTRA.SOLV.lig_0>
-76.6701

>  <SCORE.INTRA.VDW>
0.806602

>  <SCORE.INTRA.VDW.0>
-1.53273

>  <SCORE.INTRA.norm>
0.201629

>  <SCORE.RESTR>
0.0664915

>  <SCORE.RESTR.CAVITY>
0.0664915

>  <SCORE.RESTR.norm>
0.00302234

>  <SCORE.SYSTEM>
0

>  <SCORE.SYSTEM.CONST>
0

>  <SCORE.SYSTEM.DIHEDRAL>
0

>  <SCORE.SYSTEM.SOLV>
0

>  <SCORE.SYSTEM.norm>
0

>  <SCORE.heavy>
22

>  <SCORE.norm>
-0.24226

>  <RMSD>
34.308

$$$$
2f4s_lig
 OpenBabel11021811433D
libRbt.so/2013.1/901 2013/11/27
 22 23  0  0  0  0  0  0  0  0999 V2000
    4.9326  -16.8555   27.4743 N   0  0  0  0  0  0  0  0  0  0  0  0
    4.3361  -11.8740   27.5386 N   0  0  0  0  0  0  0  0  0  0  0  0
    9.0269   -8.7567   23.3196 N   0  0  0  0  0  0  0  0  0  0  0  0
    5.3626  -14.2715   23.2738 O   0  0  0  0  0  0  0  0  0  0  0  0
    5.5808  -14.2166   24.7133 C   0  0  2  0  0  0  0  0  0  0  0  0
    2.6529  -10.4919   23.9623 N   0  0  0  0  0  0  0  0  0  0  0  0
    5.8548  -16.6615   24.8096 O   0  0  0  0  0  0  0  0  0  0  0  0
    5.1398  -15.5538   25.3698 C   0  0  1  0  0  0  0  0  0  0  0  0
    5.2464  -11.7899   24.8025 O   0  0  0  0  0  0  0  0  0  0  0  0
    5.3829  -15.5408   26.8741 C   0  0  1  0  0  0  0  0  0  0  0  0
    6.0612   -9.7069   25.3873 O   0  0  0  0  0  0  0  0  0  0  0  0
    4.6004  -14.3490   27.5224 C   0  0  0  0  0  0  0  0  0  0  0  0
    6.6866   -8.5105   21.9722 O   0  0  0  0  0  0  0  0  0  0  0  0
    5.0976  -13.0052   26.8636 C   0  0  1  0  0  0  0  0  0  0  0  0
    3.8529   -8.7942   21.9810 O   0  0  0  0  0  0  0  0  0  0  0  0
    4.7850  -13.0128   25.3561 C   0  0  2  0  0  0  0  0  0  0  0  0
    4.8149  -10.5213   25.2620 C   0  0  1  0  0  0  0  0  0  0  0  0
    6.8404   -9.4880   24.1360 C   0  0  2  0  0  0  0  0  0  0  0  0
    8.0839   -8.6624   24.4800 C   0  0  0  0  0  0  0  0  0  0  0  0
    5.9680   -8.7259   23.1635 C   0  0  2  0  0  0  0  0  0  0  0  0
    4.6877   -9.5149   22.8949 C   0  0  1  0  0  0  0  0  0  0  0  0
    3.9316   -9.7396   24.2275 C   0  0  1  0  0  0  0  0  0  0  0  0
  5  4  1  6  0  0  0
  5  8  1  0  0  0  0
  5 16  1  0  0  0  0
  8  7  1  6  0  0  0
  8 10  1  0  0  0  0
 10  1  1  1  0  0  0
 10 12  1  0  0  0  0
 11 18  1  0  0  0  0
 12 14  1  0  0  0  0
 14  2  1  1  0  0  0
 14 16  1  0  0  0  0
 16  9  1  6  0  0  0
 17  9  1  6  0  0  0
 17 11  1  0  0  0  0
 17 22  1  0  0  0  0
 18 19  1  1  0  0  0
 18 20  1  0  0  0  0
 19  3  1  0  0  0  0
 20 13  1  6  0  0  0
 20 21  1  0  0  0  0
 21 15  1  6  0  0  0
 21 22  1  0  0  0  0
 22  6  1  6  0  0  0
M  END
>  <CHROM.1>
-174.09515907,134.35988289,165.26855558,5.41571619,-11.80891802,24.74547158
-1.70800546,0.09796803,-0.41674023

>  <Name>
2f4s_lig

>  <RI>
8.9913e+06

>  <Rbt.Current_Directory>
/home/itssahil/PROJECTS/Mol_Feturizer/New_Systems/rnas/2f4s

>  <Rbt.Executable>
rbdock ($Id: //depot/dev/client3/rdock/2013.1/src/exe/rbdock.cxx#4 $)

>  <Rbt.Library>
libRbt.so (2013.1, Build901 2013/11/27)

>  <Rbt.Parameter_File>
/export/apps/rDock/src/rDock_2013.1_src/data/scripts/dock_solv.prm

>  <Rbt.Receptor>
prm/blind_docking_40.prm

>  <SCORE>
-3.29321

>  <SCORE.INTER>
-8.4596

>  <SCORE.INTER.CONST>
1

>  <SCORE.INTER.POLAR>
-0.599045

>  <SCORE.INTER.ROT>
3

>  <SCORE.INTER.SOLV>
22.3216

>  <SCORE.INTER.VDW>
-16.6835

>  <SCORE.INTER.norm>
-0.384527

>  <SCORE.INTRA>
5.16298

>  <SCORE.INTRA.DIHEDRAL>
5.41434

>  <SCORE.INTRA.DIHEDRAL.0>
1.67653

>  <SCORE.INTRA.POLAR>
0

>  <SCORE.INTRA.POLAR.0>
0

>  <SCORE.INTRA.REPUL>
0

>  <SCORE.INTRA.REPUL.0>
0

>  <SCORE.INTRA.SOLV>
2.63891

>  <SCORE.INTRA.SOLV.lig_0>
-76.6701

>  <SCORE.INTRA.VDW>
1.13635

>  <SCORE.INTRA.VDW.0>
-1.53273

>  <SCORE.INTRA.norm>
0.234681

>  <SCORE.RESTR>
0.00340423

>  <SCORE.RESTR.CAVITY>
0.00340423

>  <SCORE.RESTR.norm>
0.000154738

>  <SCORE.SYSTEM>
0

>  <SCORE.SYSTEM.CONST>
0

>  <SCORE.SYSTEM.DIHEDRAL>
0

>  <SCORE.SYSTEM.SOLV>
0

>  <SCORE.SYSTEM.norm>
0

>  <SCORE.heavy>
22

>  <SCORE.norm>
-0.149691

>  <RMSD>
34.308

$$$$
2f4s_lig
 OpenBabel11021811433D
libRbt.so/2013.1/901 2013/11/27
 22 23  0  0  0  0  0  0  0  0999 V2000
    3.5794  -16.3057   27.5648 N   0  0  0  0  0  0  0  0  0  0  0  0
    2.0500  -11.6525   26.4765 N   0  0  0  0  0  0  0  0  0  0  0  0
    4.8781   -9.6943   28.4444 N   0  0  0  0  0  0  0  0  0  0  0  0
    5.4883  -13.9387   23.6583 O   0  0  0  0  0  0  0  0  0  0  0  0
    4.9571  -13.7485   25.0016 C   0  0  2  0  0  0  0  0  0  0  0  0
    3.4922   -9.8317   22.0645 N   0  0  0  0  0  0  0  0  0  0  0  0
    5.6291  -16.0299   25.6383 O   0  0  0  0  0  0  0  0  0  0  0  0
    4.5274  -15.1151   25.6026 C   0  0  1  0  0  0  0  0  0  0  0  0
    4.1466  -11.4898   24.5016 O   0  0  0  0  0  0  0  0  0  0  0  0
    3.9940  -14.9551   27.0210 C   0  0  1  0  0  0  0  0  0  0  0  0
    3.6164   -9.6778   25.8360 O   0  0  0  0  0  0  0  0  0  0  0  0
    2.7750  -13.9718   27.0161 C   0  0  0  0  0  0  0  0  0  0  0  0
    6.6706   -7.7471   25.1804 O   0  0  0  0  0  0  0  0  0  0  0  0
    3.2523  -12.5844   26.4379 C   0  0  1  0  0  0  0  0  0  0  0  0
    5.4535   -7.8051   22.6064 O   0  0  0  0  0  0  0  0  0  0  0  0
    3.7271  -12.7573   24.9837 C   0  0  2  0  0  0  0  0  0  0  0  0
    3.3203  -10.3396   24.5296 C   0  0  1  0  0  0  0  0  0  0  0  0
    5.0203   -9.2251   26.0482 C   0  0  2  0  0  0  0  0  0  0  0  0
    5.1216   -8.6050   27.4451 C   0  0  0  0  0  0  0  0  0  0  0  0
    5.3457   -8.1866   24.9980 C   0  0  2  0  0  0  0  0  0  0  0  0
    5.1553   -8.7867   23.6060 C   0  0  1  0  0  0  0  0  0  0  0  0
    3.6915   -9.2663   23.4472 C   0  0  1  0  0  0  0  0  0  0  0  0
  5  4  1  6  0  0  0
  5  8  1  0  0  0  0
  5 16  1  0  0  0  0
  8  7  1  1  0  0  0
  8 10  1  0  0  0  0
 10  1  1  6  0  0  0
 10 12  1  0  0  0  0
 11 18  1  0  0  0  0
 12 14  1  0  0  0  0
 14  2  1  6  0  0  0
 14 16  1  0  0  0  0
 16  9  1  1  0  0  0
 17  9  1  6  0  0  0
 17 11  1  0  0  0  0
 17 22  1  0  0  0  0
 18 19  1  1  0  0  0
 18 20  1  0  0  0  0
 19  3  1  0  0  0  0
 20 13  1  6  0  0  0
 20 21  1  0  0  0  0
 21 15  1  6  0  0  0
 21 22  1  0  0  0  0
 22  6  1  6  0  0  0
M  END
>  <CHROM.1>
-171.52228885,91.02391385,65.53844984,4.39173251,-11.42718181,25.34441448
2.47398879,-1.40830276,-2.51110754

>  <Name>
2f4s_lig

>  <RI>
8.9913e+06

>  <Rbt.Current_Directory>
/home/itssahil/PROJECTS/Mol_Feturizer/New_Systems/rnas/2f4s

>  <Rbt.Executable>
rbdock ($Id: //depot/dev/client3/rdock/2013.1/src/exe/rbdock.cxx#4 $)

>  <Rbt.Library>
libRbt.so (2013.1, Build901 2013/11/27)

>  <Rbt.Parameter_File>
/export/apps/rDock/src/rDock_2013.1_src/data/scripts/dock_solv.prm

>  <Rbt.Receptor>
prm/blind_docking_40.prm

>  <SCORE>
-6.92794

>  <SCORE.INTER>
-10.9932

>  <SCORE.INTER.CONST>
1

>  <SCORE.INTER.POLAR>
-1.96102

>  <SCORE.INTER.ROT>
3

>  <SCORE.INTER.SOLV>
20.8075

>  <SCORE.INTER.VDW>
-13.3279

>  <SCORE.INTER.norm>
-0.499691

>  <SCORE.INTRA>
4.06527

>  <SCORE.INTRA.DIHEDRAL>
2.61152

>  <SCORE.INTRA.DIHEDRAL.0>
1.67653

>  <SCORE.INTRA.POLAR>
0

>  <SCORE.INTRA.POLAR.0>
0

>  <SCORE.INTRA.REPUL>
0

>  <SCORE.INTRA.REPUL.0>
0

>  <SCORE.INTRA.SOLV>
3.15754

>  <SCORE.INTRA.SOLV.lig_0>
-76.6701

>  <SCORE.INTRA.VDW>
1.18074

>  <SCORE.INTRA.VDW.0>
-1.53273

>  <SCORE.INTRA.norm>
0.184785

>  <SCORE.RESTR>
0

>  <SCORE.RESTR.CAVITY>
0

>  <SCORE.RESTR.norm>
0

>  <SCORE.SYSTEM>
0

>  <SCORE.SYSTEM.CONST>
0

>  <SCORE.SYSTEM.DIHEDRAL>
0

>  <SCORE.SYSTEM.SOLV>
0

>  <SCORE.SYSTEM.norm>
0

>  <SCORE.heavy>
22

>  <SCORE.norm>
-0.314906

>  <RMSD>
34.314

$$$$
2f4s_lig
 OpenBabel11021811433D
libRbt.so/2013.1/901 2013/11/27
 22 23  0  0  0  0  0  0  0  0999 V2000
    4.4018  -17.4481   26.3963 N   0  0  0  0  0  0  0  0  0  0  0  0
    2.3313  -13.3114   28.3399 N   0  0  0  0  0  0  0  0  0  0  0  0
    5.1060   -8.4763   29.4421 N   0  0  0  0  0  0  0  0  0  0  0  0
    5.4677  -13.0193   24.4580 O   0  0  0  0  0  0  0  0  0  0  0  0
    5.1392  -13.7095   25.6984 C   0  0  2  0  0  0  0  0  0  0  0  0
    2.9909  -11.2171   23.8973 N   0  0  0  0  0  0  0  0  0  0  0  0
    6.0939  -15.8083   24.8351 O   0  0  0  0  0  0  0  0  0  0  0  0
    4.9264  -15.2239   25.4246 C   0  0  1  0  0  0  0  0  0  0  0  0
    4.0715  -11.7285   26.6700 O   0  0  0  0  0  0  0  0  0  0  0  0
    4.6100  -15.9814   26.7083 C   0  0  1  0  0  0  0  0  0  0  0  0
    3.5293   -9.5561   27.2461 O   0  0  0  0  0  0  0  0  0  0  0  0
    3.3262  -15.3776   27.3718 C   0  0  0  0  0  0  0  0  0  0  0  0
    6.2943   -7.9297   25.4586 O   0  0  0  0  0  0  0  0  0  0  0  0
    3.5875  -13.8517   27.6724 C   0  0  1  0  0  0  0  0  0  0  0  0
    4.8025   -9.0661   23.3153 O   0  0  0  0  0  0  0  0  0  0  0  0
    3.8418  -13.0937   26.3567 C   0  0  2  0  0  0  0  0  0  0  0  0
    3.1496  -10.6984   26.3610 C   0  0  1  0  0  0  0  0  0  0  0  0
    4.8996   -9.0000   27.0618 C   0  0  2  0  0  0  0  0  0  0  0  0
    5.1009   -7.8674   28.0733 C   0  0  0  0  0  0  0  0  0  0  0  0
    5.0043   -8.4587   25.6536 C   0  0  2  0  0  0  0  0  0  0  0  0
    4.7136   -9.5745   24.6514 C   0  0  1  0  0  0  0  0  0  0  0  0
    3.2927  -10.1363   24.9033 C   0  0  1  0  0  0  0  0  0  0  0  0
  5  4  1  6  0  0  0
  5  8  1  0  0  0  0
  5 16  1  0  0  0  0
  8  7  1  1  0  0  0
  8 10  1  0  0  0  0
 10  1  1  6  0  0  0
 10 12  1  0  0  0  0
 11 18  1  0  0  0  0
 12 14  1  0  0  0  0
 14  2  1  6  0  0  0
 14 16  1  0  0  0  0
 16  9  1  1  0  0  0
 17  9  1  6  0  0  0
 17 11  1  0  0  0  0
 17 22  1  0  0  0  0
 18 19  1  1  0  0  0
 18 20  1  0  0  0  0
 19  3  1  0  0  0  0
 20 13  1  6  0  0  0
 20 21  1  0  0  0  0
 21 15  1  6  0  0  0
 21 22  1  0  0  0  0
 22  6  1  6  0  0  0
M  END
>  <CHROM.1>
133.60532881,160.97909609,66.74507922,4.42204353,-11.81292782,26.15322784
1.75458542,-1.28168024,-2.95947457

>  <Name>
2f4s_lig

>  <RI>
8.9913e+06

>  <Rbt.Current_Directory>
/home/itssahil/PROJECTS/Mol_Feturizer/New_Systems/rnas/2f4s

>  <Rbt.Executable>
rbdock ($Id: //depot/dev/client3/rdock/2013.1/src/exe/rbdock.cxx#4 $)

>  <Rbt.Library>
libRbt.so (2013.1, Build901 2013/11/27)

>  <Rbt.Parameter_File>
/export/apps/rDock/src/rDock_2013.1_src/data/scripts/dock_solv.prm

>  <Rbt.Receptor>
prm/blind_docking_40.prm

>  <SCORE>
-8.21642

>  <SCORE.INTER>
-12.0243

>  <SCORE.INTER.CONST>
1

>  <SCORE.INTER.POLAR>
-1.97897

>  <SCORE.INTER.ROT>
3

>  <SCORE.INTER.SOLV>
18.0272

>  <SCORE.INTER.VDW>
-13.0287

>  <SCORE.INTER.norm>
-0.546557

>  <SCORE.INTRA>
3.70079

>  <SCORE.INTRA.DIHEDRAL>
6.50538

>  <SCORE.INTRA.DIHEDRAL.0>
1.67653

>  <SCORE.INTRA.POLAR>
0

>  <SCORE.INTRA.POLAR.0>
0

>  <SCORE.INTRA.REPUL>
0

>  <SCORE.INTRA.REPUL.0>
0

>  <SCORE.INTRA.SOLV>
1.99245

>  <SCORE.INTRA.SOLV.lig_0>
-76.6701

>  <SCORE.INTRA.VDW>
-0.548123

>  <SCORE.INTRA.VDW.0>
-1.53273

>  <SCORE.INTRA.norm>
0.168218

>  <SCORE.RESTR>
0.107051

>  <SCORE.RESTR.CAVITY>
0.107051

>  <SCORE.RESTR.norm>
0.00486594

>  <SCORE.SYSTEM>
0

>  <SCORE.SYSTEM.CONST>
0

>  <SCORE.SYSTEM.DIHEDRAL>
0

>  <SCORE.SYSTEM.SOLV>
0

>  <SCORE.SYSTEM.norm>
0

>  <SCORE.heavy>
22

>  <SCORE.norm>
-0.373473

>  <RMSD>
34.315

$$$$
2f4s_lig
 OpenBabel11021811433D
libRbt.so/2013.1/901 2013/11/27
 22 23  0  0  0  0  0  0  0  0999 V2000
    3.3813  -16.2316   27.6501 N   0  0  0  0  0  0  0  0  0  0  0  0
    1.9801  -11.5463   26.5276 N   0  0  0  0  0  0  0  0  0  0  0  0
    4.8268   -9.6077   28.4628 N   0  0  0  0  0  0  0  0  0  0  0  0
    5.3518  -13.9477   23.7249 O   0  0  0  0  0  0  0  0  0  0  0  0
    4.8271  -13.7328   25.0670 C   0  0  2  0  0  0  0  0  0  0  0  0
    3.4650   -9.8239   22.0857 N   0  0  0  0  0  0  0  0  0  0  0  0
    5.4364  -16.0269   25.7205 O   0  0  0  0  0  0  0  0  0  0  0  0
    4.3603  -15.0825   25.6785 C   0  0  1  0  0  0  0  0  0  0  0  0
    4.0788  -11.4564   24.5505 O   0  0  0  0  0  0  0  0  0  0  0  0
    3.8326  -14.8971   27.0960 C   0  0  1  0  0  0  0  0  0  0  0  0
    3.5915   -9.6104   25.8542 O   0  0  0  0  0  0  0  0  0  0  0  0
    2.6412  -13.8806   27.0843 C   0  0  0  0  0  0  0  0  0  0  0  0
    6.6910   -7.7640   25.1690 O   0  0  0  0  0  0  0  0  0  0  0  0
    3.1561  -12.5113   26.4954 C   0  0  1  0  0  0  0  0  0  0  0  0
    5.4738   -7.8358   22.5954 O   0  0  0  0  0  0  0  0  0  0  0  0
    3.6249  -12.7081   25.0423 C   0  0  2  0  0  0  0  0  0  0  0  0
    3.2801  -10.2865   24.5587 C   0  0  1  0  0  0  0  0  0  0  0  0
    5.0057   -9.1878   26.0599 C   0  0  2  0  0  0  0  0  0  0  0  0
    5.1212   -8.5472   27.4465 C   0  0  0  0  0  0  0  0  0  0  0  0
    5.3561   -8.1749   24.9929 C   0  0  2  0  0  0  0  0  0  0  0  0
    5.1520   -8.7932   23.6109 C   0  0  1  0  0  0  0  0  0  0  0  0
    3.6772   -9.2405   23.4590 C   0  0  1  0  0  0  0  0  0  0  0  0
  5  4  1  6  0  0  0
  5  8  1  0  0  0  0
  5 16  1  0  0  0  0
  8  7  1  1  0  0  0
  8 10  1  0  0  0  0
 10  1  1  6  0  0  0
 10 12  1  0  0  0  0
 11 18  1  0  0  0  0
 12 14  1  0  0  0  0
 14  2  1  6  0  0  0
 14 16  1  0  0  0  0
 16  9  1  1  0  0  0
 17  9  1  6  0  0  0
 17 11  1  0  0  0  0
 17 22  1  0  0  0  0
 18 19  1  1  0  0  0
 18 20  1  0  0  0  0
 19  3  1  0  0  0  0
 20 13  1  1  0  0  0
 20 21  1  0  0  0  0
 21 15  1  6  0  0  0
 21 22  1  0  0  0  0
 22  6  1  6  0  0  0
M  END
>  <CHROM.1>
-172.13225431,91.60110866,64.51555860,4.32019659,-11.39092801,25.38162998
2.56047878,-1.38838030,-2.43648218

>  <Name>
2f4s_lig

>  <RI>
8.9913e+06

>  <Rbt.Current_Directory>
/home/itssahil/PROJECTS/Mol_Feturizer/New_Systems/rnas/2f4s

>  <Rbt.Executable>
rbdock ($Id: //depot/dev/client3/rdock/2013.1/src/exe/rbdock.cxx#4 $)

>  <Rbt.Library>
libRbt.so (2013.1, Build901 2013/11/27)

>  <Rbt.Parameter_File>
/export/apps/rDock/src/rDock_2013.1_src/data/scripts/dock_solv.prm

>  <Rbt.Receptor>
prm/blind_docking_40.prm

>  <SCORE>
-6.90761

>  <SCORE.INTER>
-10.9275

>  <SCORE.INTER.CONST>
1

>  <SCORE.INTER.POLAR>
-1.91756

>  <SCORE.INTER.ROT>
3

>  <SCORE.INTER.SOLV>
20.3056

>  <SCORE.INTER.VDW>
-13.2616

>  <SCORE.INTER.norm>
-0.496703

>  <SCORE.INTRA>
4.01987

>  <SCORE.INTRA.DIHEDRAL>
2.63195

>  <SCORE.INTRA.DIHEDRAL.0>
1.67653

>  <SCORE.INTRA.POLAR>
0

>  <SCORE.INTRA.POLAR.0>
0

>  <SCORE.INTRA.REPUL>
0

>  <SCORE.INTRA.REPUL.0>
0

>  <SCORE.INTRA.SOLV>
3.1582

>  <SCORE.INTRA.SOLV.lig_0>
-76.6701

>  <SCORE.INTRA.VDW>
1.12479

>  <SCORE.INTRA.VDW.0>
-1.53273

>  <SCORE.INTRA.norm>
0.182721

>  <SCORE.RESTR>
0

>  <SCORE.RESTR.CAVITY>
0

>  <SCORE.RESTR.norm>
0

>  <SCORE.SYSTEM>
0

>  <SCORE.SYSTEM.CONST>
0

>  <SCORE.SYSTEM.DIHEDRAL>
0

>  <SCORE.SYSTEM.SOLV>
0

>  <SCORE.SYSTEM.norm>
0

>  <SCORE.heavy>
22

>  <SCORE.norm>
-0.313982

>  <RMSD>
34.315

$$$$
2f4s_lig
 OpenBabel11021811433D
libRbt.so/2013.1/901 2013/11/27
 22 23  0  0  0  0  0  0  0  0999 V2000
    4.4454  -16.6091   27.4943 N   0  0  0  0  0  0  0  0  0  0  0  0
    2.3830  -12.0791   26.8608 N   0  0  0  0  0  0  0  0  0  0  0  0
    3.9378   -7.9988   27.9621 N   0  0  0  0  0  0  0  0  0  0  0  0
    5.5161  -13.9617   23.4505 O   0  0  0  0  0  0  0  0  0  0  0  0
    5.1877  -13.8612   24.8665 C   0  0  2  0  0  0  0  0  0  0  0  0
    3.1434   -9.8970   22.3580 N   0  0  0  0  0  0  0  0  0  0  0  0
    6.1384  -16.0923   25.2907 O   0  0  0  0  0  0  0  0  0  0  0  0
    4.9724  -15.2787   25.4649 C   0  0  1  0  0  0  0  0  0  0  0  0
    4.1239  -11.6693   24.5974 O   0  0  0  0  0  0  0  0  0  0  0  0
    4.6561  -15.2108   26.9539 C   0  0  1  0  0  0  0  0  0  0  0  0
    3.5446  -10.0208   26.1113 O   0  0  0  0  0  0  0  0  0  0  0  0
    3.3738  -14.3402   27.1795 C   0  0  0  0  0  0  0  0  0  0  0  0
    6.3620   -7.7735   25.4057 O   0  0  0  0  0  0  0  0  0  0  0  0
    3.6377  -12.8986   26.5972 C   0  0  1  0  0  0  0  0  0  0  0  0
    4.9594   -7.7463   22.9274 O   0  0  0  0  0  0  0  0  0  0  0  0
    3.8919  -12.9834   25.0812 C   0  0  2  0  0  0  0  0  0  0  0  0
    3.2065  -10.6052   24.7784 C   0  0  1  0  0  0  0  0  0  0  0  0
    4.9167   -9.4587   26.2614 C   0  0  2  0  0  0  0  0  0  0  0  0
    5.0718   -8.9405   27.6944 C   0  0  0  0  0  0  0  0  0  0  0  0
    5.0696   -8.3176   25.2807 C   0  0  2  0  0  0  0  0  0  0  0  0
    4.8246   -8.8245   23.8605 C   0  0  1  0  0  0  0  0  0  0  0  0
    3.3995   -9.4229   23.7655 C   0  0  1  0  0  0  0  0  0  0  0  0
  5  4  1  6  0  0  0
  5  8  1  0  0  0  0
  5 16  1  0  0  0  0
  8  7  1  1  0  0  0
  8 10  1  0  0  0  0
 10  1  1  6  0  0  0
 10 12  1  0  0  0  0
 11 18  1  0  0  0  0
 12 14  1  0  0  0  0
 14  2  1  6  0  0  0
 14 16  1  0  0  0  0
 16  9  1  1  0  0  0
 17  9  1  6  0  0  0
 17 11  1  0  0  0  0
 17 22  1  0  0  0  0
 18 19  1  1  0  0  0
 18 20  1  0  0  0  0
 19  3  1  0  0  0  0
 20 13  1  6  0  0  0
 20 21  1  0  0  0  0
 21 15  1  6  0  0  0
 21 22  1  0  0  0  0
 22  6  1  6  0  0  0
M  END
>  <CHROM.1>
-172.88162747,86.62415802,-53.54547985,4.42630293,-11.52764508,25.43918770
1.48818455,-1.41305157,2.89832176

>  <Name>
2f4s_lig

>  <RI>
8.9913e+06

>  <Rbt.Current_Directory>
/home/itssahil/PROJECTS/Mol_Feturizer/New_Systems/rnas/2f4s

>  <Rbt.Executable>
rbdock ($Id: //depot/dev/client3/rdock/2013.1/src/exe/rbdock.cxx#4 $)

>  <Rbt.Library>
libRbt.so (2013.1, Build901 2013/11/27)

>  <Rbt.Parameter_File>
/export/apps/rDock/src/rDock_2013.1_src/data/scripts/dock_solv.prm

>  <Rbt.Receptor>
prm/blind_docking_40.prm

>  <SCORE>
-6.5327

>  <SCORE.INTER>
-11.1493

>  <SCORE.INTER.CONST>
1

>  <SCORE.INTER.POLAR>
-1.66303

>  <SCORE.INTER.ROT>
3

>  <SCORE.INTER.SOLV>
15.5

>  <SCORE.INTER.VDW>
-12.6561

>  <SCORE.INTER.norm>
-0.506786

>  <SCORE.INTRA>
4.61659

>  <SCORE.INTRA.DIHEDRAL>
1.75147

>  <SCORE.INTRA.DIHEDRAL.0>
1.67653

>  <SCORE.INTRA.POLAR>
0

>  <SCORE.INTRA.POLAR.0>
0

>  <SCORE.INTRA.REPUL>
0

>  <SCORE.INTRA.REPUL.0>
0

>  <SCORE.INTRA.SOLV>
4.03183

>  <SCORE.INTRA.SOLV.lig_0>
-76.6701

>  <SCORE.INTRA.VDW>
1.72494

>  <SCORE.INTRA.VDW.0>
-1.53273

>  <SCORE.INTRA.norm>
0.209845

>  <SCORE.RESTR>
0

>  <SCORE.RESTR.CAVITY>
0

>  <SCORE.RESTR.norm>
0

>  <SCORE.SYSTEM>
0

>  <SCORE.SYSTEM.CONST>
0

>  <SCORE.SYSTEM.DIHEDRAL>
0

>  <SCORE.SYSTEM.SOLV>
0

>  <SCORE.SYSTEM.norm>
0

>  <SCORE.heavy>
22

>  <SCORE.norm>
-0.296941

>  <RMSD>
34.322

$$$$
2f4s_lig
 OpenBabel11021811433D
libRbt.so/2013.1/901 2013/11/27
 22 23  0  0  0  0  0  0  0  0999 V2000
    1.9503  -16.5346   26.3101 N   0  0  0  0  0  0  0  0  0  0  0  0
    0.9891  -11.7413   25.1805 N   0  0  0  0  0  0  0  0  0  0  0  0
    6.0390   -8.6143   22.6544 N   0  0  0  0  0  0  0  0  0  0  0  0
    5.5308  -13.1419   26.7302 O   0  0  0  0  0  0  0  0  0  0  0  0
    4.0940  -13.3531   26.8482 C   0  0  2  0  0  0  0  0  0  0  0  0
    4.6981   -9.2774   28.4340 N   0  0  0  0  0  0  0  0  0  0  0  0
    4.4423  -15.7326   27.3758 O   0  0  0  0  0  0  0  0  0  0  0  0
    3.7435  -14.8287   26.5117 C   0  0  1  0  0  0  0  0  0  0  0  0
    3.5728  -11.0336   26.2507 O   0  0  0  0  0  0  0  0  0  0  0  0
    2.2493  -15.0912   26.6547 C   0  0  1  0  0  0  0  0  0  0  0  0
    5.1172  -10.1394   24.7809 O   0  0  0  0  0  0  0  0  0  0  0  0
    1.4539  -14.1289   25.7090 C   0  0  0  0  0  0  0  0  0  0  0  0
    3.4506   -6.9001   24.3170 O   0  0  0  0  0  0  0  0  0  0  0  0
    1.8008  -12.6412   26.1007 C   0  0  1  0  0  0  0  0  0  0  0  0
    4.1485   -6.8071   27.0764 O   0  0  0  0  0  0  0  0  0  0  0  0
    3.3029  -12.3792   25.8883 C   0  0  2  0  0  0  0  0  0  0  0  0
    4.8717  -10.4693   26.2173 C   0  0  1  0  0  0  0  0  0  0  0  0
    4.1866   -9.1570   24.1565 C   0  0  2  0  0  0  0  0  0  0  0  0
    4.5864   -8.9792   22.6886 C   0  0  0  0  0  0  0  0  0  0  0  0
    4.3245   -7.8426   24.8916 C   0  0  2  0  0  0  0  0  0  0  0  0
    4.0112   -8.0470   26.3727 C   0  0  1  0  0  0  0  0  0  0  0  0
    4.9849   -9.0951   26.9657 C   0  0  1  0  0  0  0  0  0  0  0  0
  5  4  1  6  0  0  0
  5  8  1  0  0  0  0
  5 16  1  0  0  0  0
  8  7  1  1  0  0  0
  8 10  1  0  0  0  0
 10  1  1  6  0  0  0
 10 12  1  0  0  0  0
 11 18  1  0  0  0  0
 12 14  1  0  0  0  0
 14  2  1  6  0  0  0
 14 16  1  0  0  0  0
 16  9  1  1  0  0  0
 17  9  1  6  0  0  0
 17 11  1  0  0  0  0
 17 22  1  0  0  0  0
 18 19  1  6  0  0  0
 18 20  1  0  0  0  0
 19  3  1  0  0  0  0
 20 13  1  6  0  0  0
 20 21  1  0  0  0  0
 21 15  1  1  0  0  0
 21 22  1  0  0  0  0
 22  6  1  1  0  0  0
M  END
>  <CHROM.1>
61.09924576,79.48432276,-54.05510491,3.82118810,-11.15403784,25.82586393
2.04941331,1.08018627,2.49413571

>  <Name>
2f4s_lig

>  <RI>
8.9913e+06

>  <Rbt.Current_Directory>
/home/itssahil/PROJECTS/Mol_Feturizer/New_Systems/rnas/2f4s

>  <Rbt.Executable>
rbdock ($Id: //depot/dev/client3/rdock/2013.1/src/exe/rbdock.cxx#4 $)

>  <Rbt.Library>
libRbt.so (2013.1, Build901 2013/11/27)

>  <Rbt.Parameter_File>
/export/apps/rDock/src/rDock_2013.1_src/data/scripts/dock_solv.prm

>  <Rbt.Receptor>
prm/blind_docking_40.prm

>  <SCORE>
-4.47775

>  <SCORE.INTER>
-6.95405

>  <SCORE.INTER.CONST>
1

>  <SCORE.INTER.POLAR>
-1.33085

>  <SCORE.INTER.ROT>
3

>  <SCORE.INTER.SOLV>
12.5829

>  <SCORE.INTER.VDW>
-9.99418

>  <SCORE.INTER.norm>
-0.316093

>  <SCORE.INTRA>
1.32518

>  <SCORE.INTRA.DIHEDRAL>
0.280378

>  <SCORE.INTRA.DIHEDRAL.0>
1.67653

>  <SCORE.INTRA.POLAR>
0

>  <SCORE.INTRA.POLAR.0>
0

>  <SCORE.INTRA.REPUL>
0

>  <SCORE.INTRA.REPUL.0>
0

>  <SCORE.INTRA.SOLV>
1.38924

>  <SCORE.INTRA.SOLV.lig_0>
-76.6701

>  <SCORE.INTRA.VDW>
0.49037

>  <SCORE.INTRA.VDW.0>
-1.53273

>  <SCORE.INTRA.norm>
0.0602354

>  <SCORE.RESTR>
1.15113

>  <SCORE.RESTR.CAVITY>
1.15113

>  <SCORE.RESTR.norm>
0.052324

>  <SCORE.SYSTEM>
0

>  <SCORE.SYSTEM.CONST>
0

>  <SCORE.SYSTEM.DIHEDRAL>
0

>  <SCORE.SYSTEM.SOLV>
0

>  <SCORE.SYSTEM.norm>
0

>  <SCORE.heavy>
22

>  <SCORE.norm>
-0.203534

>  <RMSD>
34.323

$$$$
2f4s_lig
 OpenBabel11021811433D
libRbt.so/2013.1/901 2013/11/27
 22 23  0  0  0  0  0  0  0  0999 V2000
    3.6741  -16.9573   27.1965 N   0  0  0  0  0  0  0  0  0  0  0  0
    3.5564  -11.9446   27.0095 N   0  0  0  0  0  0  0  0  0  0  0  0
    3.8552   -8.4418   28.0405 N   0  0  0  0  0  0  0  0  0  0  0  0
    5.8871  -14.5818   23.4593 O   0  0  0  0  0  0  0  0  0  0  0  0
    5.5520  -14.4899   24.8743 C   0  0  2  0  0  0  0  0  0  0  0  0
    7.1162  -10.6772   22.7181 N   0  0  0  0  0  0  0  0  0  0  0  0
    5.5444  -16.9435   25.0773 O   0  0  0  0  0  0  0  0  0  0  0  0
    4.7759  -15.7594   25.3210 C   0  0  1  0  0  0  0  0  0  0  0  0
    5.4324  -12.0421   24.8202 O   0  0  0  0  0  0  0  0  0  0  0  0
    4.4355  -15.7087   26.8055 C   0  0  1  0  0  0  0  0  0  0  0  0
    3.9722  -10.2505   24.7665 O   0  0  0  0  0  0  0  0  0  0  0  0
    3.5794  -14.4318   27.1049 C   0  0  0  0  0  0  0  0  0  0  0  0
    6.0865   -7.9102   26.6475 O   0  0  0  0  0  0  0  0  0  0  0  0
    4.4087  -13.1605   26.6772 C   0  0  1  0  0  0  0  0  0  0  0  0
    7.6352   -8.3341   24.2955 O   0  0  0  0  0  0  0  0  0  0  0  0
    4.6867  -13.2001   25.1635 C   0  0  2  0  0  0  0  0  0  0  0  0
    4.9439  -11.0377   23.9489 C   0  0  1  0  0  0  0  0  0  0  0  0
    4.5189   -9.5683   25.9734 C   0  0  2  0  0  0  0  0  0  0  0  0
    3.3688   -8.8468   26.6826 C   0  0  0  0  0  0  0  0  0  0  0  0
    5.5557   -8.5650   25.5199 C   0  0  2  0  0  0  0  0  0  0  0  0
    6.6542   -9.2804   24.7355 C   0  0  1  0  0  0  0  0  0  0  0  0
    6.0312   -9.9950   23.5110 C   0  0  1  0  0  0  0  0  0  0  0  0
  5  4  1  6  0  0  0
  5  8  1  0  0  0  0
  5 16  1  0  0  0  0
  8  7  1  1  0  0  0
  8 10  1  0  0  0  0
 10  1  1  6  0  0  0
 10 12  1  0  0  0  0
 11 18  1  0  0  0  0
 12 14  1  0  0  0  0
 14  2  1  6  0  0  0
 14 16  1  0  0  0  0
 16  9  1  1  0  0  0
 17  9  1  1  0  0  0
 17 11  1  0  0  0  0
 17 22  1  0  0  0  0
 18 19  1  6  0  0  0
 18 20  1  0  0  0  0
 19  3  1  0  0  0  0
 20 13  1  1  0  0  0
 20 21  1  0  0  0  0
 21 15  1  6  0  0  0
 21 22  1  0  0  0  0
 22  6  1  1  0  0  0
M  END
>  <CHROM.1>
126.77809956,76.64043553,167.04447578,5.08145820,-11.90049427,25.45336963
1.79534883,-0.91262065,-3.01945008

>  <Name>
2f4s_lig

>  <RI>
0

>  <Rbt.Current_Directory>
/home/itssahil/PROJECTS/Mol_Feturizer/New_Systems/rnas/2f4s

>  <Rbt.Executable>
rbdock ($Id: //depot/dev/client3/rdock/2013.1/src/exe/rbdock.cxx#4 $)

>  <Rbt.Library>
libRbt.so (2013.1, Build901 2013/11/27)

>  <Rbt.Parameter_File>
/export/apps/rDock/src/rDock_2013.1_src/data/scripts/dock_solv.prm

>  <Rbt.Receptor>
prm/blind_docking_60.prm

>  <SCORE>
0.854804

>  <SCORE.INTER>
-5.99391

>  <SCORE.INTER.CONST>
1

>  <SCORE.INTER.POLAR>
-0.318222

>  <SCORE.INTER.ROT>
3

>  <SCORE.INTER.SOLV>
17.4515

>  <SCORE.INTER.VDW>
-14.3524

>  <SCORE.INTER.norm>
-0.27245

>  <SCORE.INTRA>
6.01661

>  <SCORE.INTRA.DIHEDRAL>
7.21018

>  <SCORE.INTRA.DIHEDRAL.0>
1.67653

>  <SCORE.INTRA.POLAR>
0

>  <SCORE.INTRA.POLAR.0>
0

>  <SCORE.INTRA.REPUL>
0

>  <SCORE.INTRA.REPUL.0>
0

>  <SCORE.INTRA.SOLV>
4.83036

>  <SCORE.INTRA.SOLV.lig_0>
-76.6701

>  <SCORE.INTRA.VDW>
-0.00366381

>  <SCORE.INTRA.VDW.0>
-1.53273

>  <SCORE.INTRA.norm>
0.273482

>  <SCORE.RESTR>
0.832106

>  <SCORE.RESTR.CAVITY>
0.832106

>  <SCORE.RESTR.norm>
0.037823

>  <SCORE.SYSTEM>
0

>  <SCORE.SYSTEM.CONST>
0

>  <SCORE.SYSTEM.DIHEDRAL>
0

>  <SCORE.SYSTEM.SOLV>
0

>  <SCORE.SYSTEM.norm>
0

>  <SCORE.heavy>
22

>  <SCORE.norm>
0.0388547

>  <RMSD>
34.326

$$$$
2f4s_lig
 OpenBabel11021811433D
libRbt.so/2013.1/901 2013/11/27
 22 23  0  0  0  0  0  0  0  0999 V2000
    4.1195  -16.6704   27.3342 N   0  0  0  0  0  0  0  0  0  0  0  0
    2.1196  -12.1246   26.6186 N   0  0  0  0  0  0  0  0  0  0  0  0
    5.2884   -8.6559   28.5851 N   0  0  0  0  0  0  0  0  0  0  0  0
    5.6777  -13.8620   23.5670 O   0  0  0  0  0  0  0  0  0  0  0  0
    5.1702  -13.8185   24.9321 C   0  0  2  0  0  0  0  0  0  0  0  0
    3.7513   -9.7934   22.2410 N   0  0  0  0  0  0  0  0  0  0  0  0
    6.0762  -16.0620   25.3874 O   0  0  0  0  0  0  0  0  0  0  0  0
    4.8912  -15.2592   25.4423 C   0  0  1  0  0  0  0  0  0  0  0  0
    4.1323  -11.6207   24.6144 O   0  0  0  0  0  0  0  0  0  0  0  0
    4.3865  -15.2512   26.8801 C   0  0  1  0  0  0  0  0  0  0  0  0
    3.0460  -10.0698   25.9409 O   0  0  0  0  0  0  0  0  0  0  0  0
    3.0792  -14.3938   26.9733 C   0  0  0  0  0  0  0  0  0  0  0  0
    5.8175   -7.6708   26.1631 O   0  0  0  0  0  0  0  0  0  0  0  0
    3.4041  -12.9295   26.4862 C   0  0  1  0  0  0  0  0  0  0  0  0
    5.1999   -7.5928   23.3841 O   0  0  0  0  0  0  0  0  0  0  0  0
    3.8507  -12.9535   25.0130 C   0  0  2  0  0  0  0  0  0  0  0  0
    3.1445  -10.6074   24.5504 C   0  0  1  0  0  0  0  0  0  0  0  0
    4.2811   -9.4552   26.5046 C   0  0  2  0  0  0  0  0  0  0  0  0
    3.9823   -8.9962   27.9351 C   0  0  0  0  0  0  0  0  0  0  0  0
    4.6500   -8.2651   25.6474 C   0  0  2  0  0  0  0  0  0  0  0  0
    4.8587   -8.7172   24.2032 C   0  0  1  0  0  0  0  0  0  0  0  0
    3.5589   -9.3729   23.6754 C   0  0  1  0  0  0  0  0  0  0  0  0
  5  4  1  6  0  0  0
  5  8  1  0  0  0  0
  5 16  1  0  0  0  0
  8  7  1  1  0  0  0
  8 10  1  0  0  0  0
 10  1  1  6  0  0  0
 10 12  1  0  0  0  0
 11 18  1  0  0  0  0
 12 14  1  0  0  0  0
 14  2  1  6  0  0  0
 14 16  1  0  0  0  0
 16  9  1  1  0  0  0
 17  9  1  1  0  0  0
 17 11  1  0  0  0  0
 17 22  1  0  0  0  0
 18 19  1  1  0  0  0
 18 20  1  0  0  0  0
 19  3  1  0  0  0  0
 20 13  1  1  0  0  0
 20 21  1  0  0  0  0
 21 15  1  6  0  0  0
 21 22  1  0  0  0  0
 22  6  1  6  0  0  0
M  END
>  <CHROM.1>
178.50088163,84.37619382,168.06609656,4.32395802,-11.53275999,25.52893216
1.59938831,-1.41705498,3.05764295

>  <Name>
2f4s_lig

>  <RI>
8.9913e+06

>  <Rbt.Current_Directory>
/home/itssahil/PROJECTS/Mol_Feturizer/New_Systems/rnas/2f4s

>  <Rbt.Executable>
rbdock ($Id: //depot/dev/client3/rdock/2013.1/src/exe/rbdock.cxx#4 $)

>  <Rbt.Library>
libRbt.so (2013.1, Build901 2013/11/27)

>  <Rbt.Parameter_File>
/export/apps/rDock/src/rDock_2013.1_src/data/scripts/dock_solv.prm

>  <Rbt.Receptor>
prm/blind_docking_40.prm

>  <SCORE>
-7.72324

>  <SCORE.INTER>
-12.613

>  <SCORE.INTER.CONST>
1

>  <SCORE.INTER.POLAR>
-2.16083

>  <SCORE.INTER.ROT>
3

>  <SCORE.INTER.SOLV>
19.7002

>  <SCORE.INTER.VDW>
-13.3726

>  <SCORE.INTER.norm>
-0.573318

>  <SCORE.INTRA>
4.75526

>  <SCORE.INTRA.DIHEDRAL>
1.45651

>  <SCORE.INTRA.DIHEDRAL.0>
1.67653

>  <SCORE.INTRA.POLAR>
0

>  <SCORE.INTRA.POLAR.0>
0

>  <SCORE.INTRA.REPUL>
0

>  <SCORE.INTRA.REPUL.0>
0

>  <SCORE.INTRA.SOLV>
3.77159

>  <SCORE.INTRA.SOLV.lig_0>
-76.6701

>  <SCORE.INTRA.VDW>
2.14121

>  <SCORE.INTRA.VDW.0>
-1.53273

>  <SCORE.INTRA.norm>
0.216148

>  <SCORE.RESTR>
0.1345

>  <SCORE.RESTR.CAVITY>
0.1345

>  <SCORE.RESTR.norm>
0.00611365

>  <SCORE.SYSTEM>
0

>  <SCORE.SYSTEM.CONST>
0

>  <SCORE.SYSTEM.DIHEDRAL>
0

>  <SCORE.SYSTEM.SOLV>
0

>  <SCORE.SYSTEM.norm>
0

>  <SCORE.heavy>
22

>  <SCORE.norm>
-0.351056

>  <RMSD>
34.344

$$$$
2f4s_lig
 OpenBabel11021811433D
libRbt.so/2013.1/901 2013/11/27
 22 23  0  0  0  0  0  0  0  0999 V2000
    3.5066  -16.9157   27.0505 N   0  0  0  0  0  0  0  0  0  0  0  0
    3.4883  -11.8996   26.9303 N   0  0  0  0  0  0  0  0  0  0  0  0
    3.0018   -7.5965   25.5234 N   0  0  0  0  0  0  0  0  0  0  0  0
    5.9473  -14.5315   23.4638 O   0  0  0  0  0  0  0  0  0  0  0  0
    5.5430  -14.4525   24.8613 C   0  0  2  0  0  0  0  0  0  0  0  0
    7.3445  -10.7237   22.8445 N   0  0  0  0  0  0  0  0  0  0  0  0
    5.4812  -16.9081   25.0282 O   0  0  0  0  0  0  0  0  0  0  0  0
    4.7228  -15.7133   25.2502 C   0  0  1  0  0  0  0  0  0  0  0  0
    5.4702  -12.0025   24.8367 O   0  0  0  0  0  0  0  0  0  0  0  0
    4.3090  -15.6764   26.7163 C   0  0  1  0  0  0  0  0  0  0  0  0
    4.0581  -10.1841   24.6255 O   0  0  0  0  0  0  0  0  0  0  0  0
    3.4619  -14.3879   26.9908 C   0  0  0  0  0  0  0  0  0  0  0  0
    6.0673   -7.8403   26.6144 O   0  0  0  0  0  0  0  0  0  0  0  0
    4.3344  -13.1266   26.6237 C   0  0  1  0  0  0  0  0  0  0  0  0
    7.7877   -8.3530   24.4036 O   0  0  0  0  0  0  0  0  0  0  0  0
    4.6876  -13.1509   25.1254 C   0  0  2  0  0  0  0  0  0  0  0  0
    5.0742  -11.0104   23.9063 C   0  0  1  0  0  0  0  0  0  0  0  0
    4.5223   -9.4832   25.8560 C   0  0  2  0  0  0  0  0  0  0  0  0
    3.3356   -8.7217   26.4545 C   0  0  0  0  0  0  0  0  0  0  0  0
    5.6133   -8.5122   25.4635 C   0  0  2  0  0  0  0  0  0  0  0  0
    6.7546   -9.2685   24.7859 C   0  0  1  0  0  0  0  0  0  0  0  0
    6.2152  -10.0007   23.5325 C   0  0  1  0  0  0  0  0  0  0  0  0
  5  4  1  6  0  0  0
  5  8  1  0  0  0  0
  5 16  1  0  0  0  0
  8  7  1  1  0  0  0
  8 10  1  0  0  0  0
 10  1  1  6  0  0  0
 10 12  1  0  0  0  0
 11 18  1  0  0  0  0
 12 14  1  0  0  0  0
 14  2  1  6  0  0  0
 14 16  1  0  0  0  0
 16  9  1  1  0  0  0
 17  9  1  1  0  0  0
 17 11  1  0  0  0  0
 17 22  1  0  0  0  0
 18 19  1  6  0  0  0
 18 20  1  0  0  0  0
 19  3  1  0  0  0  0
 20 13  1  1  0  0  0
 20 21  1  0  0  0  0
 21 15  1  6  0  0  0
 21 22  1  0  0  0  0
 22  6  1  1  0  0  0
M  END
>  <CHROM.1>
123.53278023,78.00357175,-68.94632816,5.05786982,-11.82483661,25.29777947
1.74909239,-0.74012050,-3.10947899

>  <Name>
2f4s_lig

>  <RI>
0

>  <Rbt.Current_Directory>
/home/itssahil/PROJECTS/Mol_Feturizer/New_Systems/rnas/2f4s

>  <Rbt.Executable>
rbdock ($Id: //depot/dev/client3/rdock/2013.1/src/exe/rbdock.cxx#4 $)

>  <Rbt.Library>
libRbt.so (2013.1, Build901 2013/11/27)

>  <Rbt.Parameter_File>
/export/apps/rDock/src/rDock_2013.1_src/data/scripts/dock_solv.prm

>  <Rbt.Receptor>
prm/blind_docking_60.prm

>  <SCORE>
1.29061

>  <SCORE.INTER>
-5.33649

>  <SCORE.INTER.CONST>
1

>  <SCORE.INTER.POLAR>
-0.274798

>  <SCORE.INTER.ROT>
3

>  <SCORE.INTER.SOLV>
17.2033

>  <SCORE.INTER.VDW>
-13.9761

>  <SCORE.INTER.norm>
-0.242568

>  <SCORE.INTRA>
5.90442

>  <SCORE.INTRA.DIHEDRAL>
7.27039

>  <SCORE.INTRA.DIHEDRAL.0>
1.67653

>  <SCORE.INTRA.POLAR>
0

>  <SCORE.INTRA.POLAR.0>
0

>  <SCORE.INTRA.REPUL>
0

>  <SCORE.INTRA.REPUL.0>
0

>  <SCORE.INTRA.SOLV>
4.61076

>  <SCORE.INTRA.SOLV.lig_0>
-76.6701

>  <SCORE.INTRA.VDW>
-0.0361468

>  <SCORE.INTRA.VDW.0>
-1.53273

>  <SCORE.INTRA.norm>
0.268383

>  <SCORE.RESTR>
0.722671

>  <SCORE.RESTR.CAVITY>
0.722671

>  <SCORE.RESTR.norm>
0.0328487

>  <SCORE.SYSTEM>
0

>  <SCORE.SYSTEM.CONST>
0

>  <SCORE.SYSTEM.DIHEDRAL>
0

>  <SCORE.SYSTEM.SOLV>
0

>  <SCORE.SYSTEM.norm>
0

>  <SCORE.heavy>
22

>  <SCORE.norm>
0.058664

>  <RMSD>
34.352

$$$$
2f4s_lig
 OpenBabel11021811433D
libRbt.so/2013.1/901 2013/11/27
 22 23  0  0  0  0  0  0  0  0999 V2000
    3.9612  -16.6444   27.2295 N   0  0  0  0  0  0  0  0  0  0  0  0
    1.9913  -12.0932   26.4662 N   0  0  0  0  0  0  0  0  0  0  0  0
    5.2185   -8.5970   28.5645 N   0  0  0  0  0  0  0  0  0  0  0  0
    5.6933  -13.7956   23.5700 O   0  0  0  0  0  0  0  0  0  0  0  0
    5.1212  -13.7668   24.9097 C   0  0  2  0  0  0  0  0  0  0  0  0
    3.7598   -9.7098   22.2086 N   0  0  0  0  0  0  0  0  0  0  0  0
    6.0077  -16.0140   25.3846 O   0  0  0  0  0  0  0  0  0  0  0  0
    4.8203  -15.2129   25.3912 C   0  0  1  0  0  0  0  0  0  0  0  0
    4.0966  -11.5667   24.5656 O   0  0  0  0  0  0  0  0  0  0  0  0
    4.2477  -15.2203   26.8033 C   0  0  1  0  0  0  0  0  0  0  0  0
    3.0053  -10.0226   25.8958 O   0  0  0  0  0  0  0  0  0  0  0  0
    2.9361  -14.3651   26.8429 C   0  0  0  0  0  0  0  0  0  0  0  0
    5.7919   -7.6478   26.1805 O   0  0  0  0  0  0  0  0  0  0  0  0
    3.2818  -12.8956   26.3869 C   0  0  1  0  0  0  0  0  0  0  0  0
    5.2104   -7.5336   23.3949 O   0  0  0  0  0  0  0  0  0  0  0  0
    3.7982  -12.9039   24.9366 C   0  0  2  0  0  0  0  0  0  0  0  0
    3.1174  -10.5452   24.5006 C   0  0  1  0  0  0  0  0  0  0  0  0
    4.2378   -9.4240   26.4821 C   0  0  2  0  0  0  0  0  0  0  0  0
    3.9242   -8.9790   27.9138 C   0  0  0  0  0  0  0  0  0  0  0  0
    4.6266   -8.2271   25.6433 C   0  0  2  0  0  0  0  0  0  0  0  0
    4.8502   -8.6645   24.1967 C   0  0  1  0  0  0  0  0  0  0  0  0
    3.5523   -9.3041   23.6451 C   0  0  1  0  0  0  0  0  0  0  0  0
  5  4  1  6  0  0  0
  5  8  1  0  0  0  0
  5 16  1  0  0  0  0
  8  7  1  1  0  0  0
  8 10  1  0  0  0  0
 10  1  1  6  0  0  0
 10 12  1  0  0  0  0
 11 18  1  0  0  0  0
 12 14  1  0  0  0  0
 14  2  1  6  0  0  0
 14 16  1  0  0  0  0
 16  9  1  1  0  0  0
 17  9  1  1  0  0  0
 17 11  1  0  0  0  0
 17 22  1  0  0  0  0
 18 19  1  1  0  0  0
 18 20  1  0  0  0  0
 19  3  1  0  0  0  0
 20 13  1  1  0  0  0
 20 21  1  0  0  0  0
 21 15  1  6  0  0  0
 21 22  1  0  0  0  0
 22  6  1  6  0  0  0
M  END
>  <CHROM.1>
-179.70565628,84.81858802,170.57885372,4.26895358,-11.48677648,25.48625823
1.67217852,-1.39866397,3.13745856

>  <Name>
2f4s_lig

>  <RI>
8.9913e+06

>  <Rbt.Current_Directory>
/home/itssahil/PROJECTS/Mol_Feturizer/New_Systems/rnas/2f4s

>  <Rbt.Executable>
rbdock ($Id: //depot/dev/client3/rdock/2013.1/src/exe/rbdock.cxx#4 $)

>  <Rbt.Library>
libRbt.so (2013.1, Build901 2013/11/27)

>  <Rbt.Parameter_File>
/export/apps/rDock/src/rDock_2013.1_src/data/scripts/dock_solv.prm

>  <Rbt.Receptor>
prm/blind_docking_40.prm

>  <SCORE>
-8.05159

>  <SCORE.INTER>
-12.915

>  <SCORE.INTER.CONST>
1

>  <SCORE.INTER.POLAR>
-2.11464

>  <SCORE.INTER.ROT>
3

>  <SCORE.INTER.SOLV>
18.6258

>  <SCORE.INTER.VDW>
-13.3698

>  <SCORE.INTER.norm>
-0.587046

>  <SCORE.INTRA>
4.68402

>  <SCORE.INTRA.DIHEDRAL>
1.34128

>  <SCORE.INTRA.DIHEDRAL.0>
1.67653

>  <SCORE.INTRA.POLAR>
0

>  <SCORE.INTRA.POLAR.0>
0

>  <SCORE.INTRA.REPUL>
0

>  <SCORE.INTRA.REPUL.0>
0

>  <SCORE.INTRA.SOLV>
3.77661

>  <SCORE.INTRA.SOLV.lig_0>
-76.6701

>  <SCORE.INTRA.VDW>
2.12507

>  <SCORE.INTRA.VDW.0>
-1.53273

>  <SCORE.INTRA.norm>
0.21291

>  <SCORE.RESTR>
0.179395

>  <SCORE.RESTR.CAVITY>
0.179395

>  <SCORE.RESTR.norm>
0.00815433

>  <SCORE.SYSTEM>
0

>  <SCORE.SYSTEM.CONST>
0

>  <SCORE.SYSTEM.DIHEDRAL>
0

>  <SCORE.SYSTEM.SOLV>
0

>  <SCORE.SYSTEM.norm>
0

>  <SCORE.heavy>
22

>  <SCORE.norm>
-0.365981

>  <RMSD>
34.356

$$$$
2f4s_lig
 OpenBabel11021811433D
libRbt.so/2013.1/901 2013/11/27
 22 23  0  0  0  0  0  0  0  0999 V2000
    3.9236  -16.6421   27.2448 N   0  0  0  0  0  0  0  0  0  0  0  0
    2.0001  -12.0721   26.4755 N   0  0  0  0  0  0  0  0  0  0  0  0
    5.2208   -8.6063   28.5638 N   0  0  0  0  0  0  0  0  0  0  0  0
    5.6790  -13.8191   23.5765 O   0  0  0  0  0  0  0  0  0  0  0  0
    5.1096  -13.7816   24.9171 C   0  0  2  0  0  0  0  0  0  0  0  0
    3.8030   -9.7319   22.1953 N   0  0  0  0  0  0  0  0  0  0  0  0
    5.9734  -16.0370   25.3951 O   0  0  0  0  0  0  0  0  0  0  0  0
    4.7944  -15.2234   25.4021 C   0  0  1  0  0  0  0  0  0  0  0  0
    4.1075  -11.5716   24.5702 O   0  0  0  0  0  0  0  0  0  0  0  0
    4.2242  -15.2219   26.8152 C   0  0  1  0  0  0  0  0  0  0  0  0
    3.0163  -10.0089   25.8788 O   0  0  0  0  0  0  0  0  0  0  0  0
    2.9217  -14.3530   26.8553 C   0  0  0  0  0  0  0  0  0  0  0  0
    5.8171   -7.6513   26.1667 O   0  0  0  0  0  0  0  0  0  0  0  0
    3.2820  -12.8881   26.3957 C   0  0  1  0  0  0  0  0  0  0  0  0
    5.2592   -7.5561   23.3756 O   0  0  0  0  0  0  0  0  0  0  0  0
    3.7957  -12.9048   24.9445 C   0  0  2  0  0  0  0  0  0  0  0  0
    3.1361  -10.5438   24.4888 C   0  0  1  0  0  0  0  0  0  0  0  0
    4.2481   -9.4141   26.4701 C   0  0  2  0  0  0  0  0  0  0  0  0
    3.9261   -8.9550   27.8955 C   0  0  0  0  0  0  0  0  0  0  0  0
    4.6522   -8.2270   25.6247 C   0  0  2  0  0  0  0  0  0  0  0  0
    4.8845   -8.6778   24.1837 C   0  0  1  0  0  0  0  0  0  0  0  0
    3.5866   -9.3129   23.6267 C   0  0  1  0  0  0  0  0  0  0  0  0
  5  4  1  6  0  0  0
  5  8  1  0  0  0  0
  5 16  1  0  0  0  0
  8  7  1  1  0  0  0
  8 10  1  0  0  0  0
 10  1  1  6  0  0  0
 10 12  1  0  0  0  0
 11 18  1  0  0  0  0
 12 14  1  0  0  0  0
 14  2  1  6  0  0  0
 14 16  1  0  0  0  0
 16  9  1  1  0  0  0
 17  9  1  1  0  0  0
 17 11  1  0  0  0  0
 17 22  1  0  0  0  0
 18 19  1  1  0  0  0
 18 20  1  0  0  0  0
 19  3  1  0  0  0  0
 20 13  1  1  0  0  0
 20 21  1  0  0  0  0
 21 15  1  6  0  0  0
 21 22  1  0  0  0  0
 22  6  1  6  0  0  0
M  END
>  <CHROM.1>
179.48812648,85.08268248,169.31707790,4.27410181,-11.49010485,25.48388889
1.70916956,-1.39063102,-3.11290154

>  <Name>
2f4s_lig

>  <RI>
8.9913e+06

>  <Rbt.Current_Directory>
/home/itssahil/PROJECTS/Mol_Feturizer/New_Systems/rnas/2f4s

>  <Rbt.Executable>
rbdock ($Id: //depot/dev/client3/rdock/2013.1/src/exe/rbdock.cxx#4 $)

>  <Rbt.Library>
libRbt.so (2013.1, Build901 2013/11/27)

>  <Rbt.Parameter_File>
/export/apps/rDock/src/rDock_2013.1_src/data/scripts/dock_solv.prm

>  <Rbt.Receptor>
prm/blind_docking_40.prm

>  <SCORE>
-7.91582

>  <SCORE.INTER>
-12.7027

>  <SCORE.INTER.CONST>
1

>  <SCORE.INTER.POLAR>
-2.11056

>  <SCORE.INTER.ROT>
3

>  <SCORE.INTER.SOLV>
18.74

>  <SCORE.INTER.VDW>
-13.28

>  <SCORE.INTER.norm>
-0.577397

>  <SCORE.INTRA>
4.6312

>  <SCORE.INTRA.DIHEDRAL>
1.47522

>  <SCORE.INTRA.DIHEDRAL.0>
1.67653

>  <SCORE.INTRA.POLAR>
0

>  <SCORE.INTRA.POLAR.0>
0

>  <SCORE.INTRA.REPUL>
0

>  <SCORE.INTRA.REPUL.0>
0

>  <SCORE.INTRA.SOLV>
3.74481

>  <SCORE.INTRA.SOLV.lig_0>
-76.6701

>  <SCORE.INTRA.VDW>
2.02119

>  <SCORE.INTRA.VDW.0>
-1.53273

>  <SCORE.INTRA.norm>
0.210509

>  <SCORE.RESTR>
0.155723

>  <SCORE.RESTR.CAVITY>
0.155723

>  <SCORE.RESTR.norm>
0.00707832

>  <SCORE.SYSTEM>
0

>  <SCORE.SYSTEM.CONST>
0

>  <SCORE.SYSTEM.DIHEDRAL>
0

>  <SCORE.SYSTEM.SOLV>
0

>  <SCORE.SYSTEM.norm>
0

>  <SCORE.heavy>
22

>  <SCORE.norm>
-0.35981

>  <RMSD>
34.359

$$$$
2f4s_lig
 OpenBabel11021811433D
libRbt.so/2013.1/901 2013/11/27
 22 23  0  0  0  0  0  0  0  0999 V2000
    0.5182  -15.6719   27.3446 N   0  0  0  0  0  0  0  0  0  0  0  0
    4.2296  -13.5137   24.7476 N   0  0  0  0  0  0  0  0  0  0  0  0
    4.1128   -8.8319   21.9833 N   0  0  0  0  0  0  0  0  0  0  0  0
    1.5016  -10.8634   27.9918 O   0  0  0  0  0  0  0  0  0  0  0  0
    1.5050  -11.9406   27.0108 C   0  0  2  0  0  0  0  0  0  0  0  0
    4.6776  -10.0925   28.3111 N   0  0  0  0  0  0  0  0  0  0  0  0
   -0.2907  -13.1100   28.2230 O   0  0  0  0  0  0  0  0  0  0  0  0
    1.0217  -13.2620   27.6695 C   0  0  1  0  0  0  0  0  0  0  0  0
    3.3511  -10.9506   25.7379 O   0  0  0  0  0  0  0  0  0  0  0  0
    0.9849  -14.4042   26.6614 C   0  0  1  0  0  0  0  0  0  0  0  0
    4.8378   -9.6223   24.5672 O   0  0  0  0  0  0  0  0  0  0  0  0
    2.4111  -14.6091   26.0474 C   0  0  0  0  0  0  0  0  0  0  0  0
    3.2781   -6.3998   25.3849 O   0  0  0  0  0  0  0  0  0  0  0  0
    2.8563  -13.2646   25.3537 C   0  0  1  0  0  0  0  0  0  0  0  0
    4.1464   -7.2940   27.9455 O   0  0  0  0  0  0  0  0  0  0  0  0
    2.9485  -12.1395   26.4006 C   0  0  2  0  0  0  0  0  0  0  0  0
    4.6672  -10.4319   25.8113 C   0  0  1  0  0  0  0  0  0  0  0  0
    3.9112   -8.4680   24.3936 C   0  0  2  0  0  0  0  0  0  0  0  0
    4.2276   -7.7922   23.0559 C   0  0  0  0  0  0  0  0  0  0  0  0
    4.1467   -7.4982   25.5299 C   0  0  2  0  0  0  0  0  0  0  0  0
    3.9164   -8.2051   26.8645 C   0  0  1  0  0  0  0  0  0  0  0  0
    4.8813   -9.4105   26.9827 C   0  0  1  0  0  0  0  0  0  0  0  0
  5  4  1  1  0  0  0
  5  8  1  0  0  0  0
  5 16  1  0  0  0  0
  8  7  1  6  0  0  0
  8 10  1  0  0  0  0
 10  1  1  1  0  0  0
 10 12  1  0  0  0  0
 11 18  1  0  0  0  0
 12 14  1  0  0  0  0
 14  2  1  1  0  0  0
 14 16  1  0  0  0  0
 16  9  1  6  0  0  0
 17  9  1  6  0  0  0
 17 11  1  0  0  0  0
 17 22  1  0  0  0  0
 18 19  1  6  0  0  0
 18 20  1  0  0  0  0
 19  3  1  0  0  0  0
 20 13  1  6  0  0  0
 20 21  1  0  0  0  0
 21 15  1  1  0  0  0
 21 22  1  0  0  0  0
 22  6  1  1  0  0  0
M  END
>  <CHROM.1>
139.50092966,154.90323530,56.28322573,3.07288885,-10.76260718,26.10712481
-2.63468097,1.06701219,0.69141934

>  <Name>
2f4s_lig

>  <RI>
8.9913e+06

>  <Rbt.Current_Directory>
/home/itssahil/PROJECTS/Mol_Feturizer/New_Systems/rnas/2f4s

>  <Rbt.Executable>
rbdock ($Id: //depot/dev/client3/rdock/2013.1/src/exe/rbdock.cxx#4 $)

>  <Rbt.Library>
libRbt.so (2013.1, Build901 2013/11/27)

>  <Rbt.Parameter_File>
/export/apps/rDock/src/rDock_2013.1_src/data/scripts/dock_solv.prm

>  <Rbt.Receptor>
prm/blind_docking_40.prm

>  <SCORE>
1.41537

>  <SCORE.INTER>
-3.74541

>  <SCORE.INTER.CONST>
1

>  <SCORE.INTER.POLAR>
-1.14402

>  <SCORE.INTER.ROT>
3

>  <SCORE.INTER.SOLV>
18.636

>  <SCORE.INTER.VDW>
-10.4955

>  <SCORE.INTER.norm>
-0.170246

>  <SCORE.INTRA>
3.8397

>  <SCORE.INTRA.DIHEDRAL>
6.55929

>  <SCORE.INTRA.DIHEDRAL.0>
1.67653

>  <SCORE.INTRA.POLAR>
0

>  <SCORE.INTRA.POLAR.0>
0

>  <SCORE.INTRA.REPUL>
0

>  <SCORE.INTRA.REPUL.0>
0

>  <SCORE.INTRA.SOLV>
1.91166

>  <SCORE.INTRA.SOLV.lig_0>
-76.6701

>  <SCORE.INTRA.VDW>
-0.395774

>  <SCORE.INTRA.VDW.0>
-1.53273

>  <SCORE.INTRA.norm>
0.174532

>  <SCORE.RESTR>
1.32107

>  <SCORE.RESTR.CAVITY>
1.32107

>  <SCORE.RESTR.norm>
0.0600488

>  <SCORE.SYSTEM>
0

>  <SCORE.SYSTEM.CONST>
0

>  <SCORE.SYSTEM.DIHEDRAL>
0

>  <SCORE.SYSTEM.SOLV>
0

>  <SCORE.SYSTEM.norm>
0

>  <SCORE.heavy>
22

>  <SCORE.norm>
0.0643349

>  <RMSD>
34.360

$$$$
2f4s_lig
 OpenBabel11021811433D
libRbt.so/2013.1/901 2013/11/27
 22 23  0  0  0  0  0  0  0  0999 V2000
    3.5647  -16.9849   27.0670 N   0  0  0  0  0  0  0  0  0  0  0  0
    3.4255  -11.9747   26.8340 N   0  0  0  0  0  0  0  0  0  0  0  0
    3.8788   -8.4687   28.0057 N   0  0  0  0  0  0  0  0  0  0  0  0
    6.0208  -14.6194   23.4783 O   0  0  0  0  0  0  0  0  0  0  0  0
    5.5854  -14.5200   24.8651 C   0  0  2  0  0  0  0  0  0  0  0  0
    7.1973  -10.7169   22.7266 N   0  0  0  0  0  0  0  0  0  0  0  0
    5.5805  -16.9721   25.0858 O   0  0  0  0  0  0  0  0  0  0  0  0
    4.7885  -15.7921   25.2654 C   0  0  1  0  0  0  0  0  0  0  0  0
    5.4529  -12.0737   24.7841 O   0  0  0  0  0  0  0  0  0  0  0  0
    4.3432  -15.7335   26.7215 C   0  0  1  0  0  0  0  0  0  0  0  0
    4.0232  -10.2579   24.7211 O   0  0  0  0  0  0  0  0  0  0  0  0
    3.4591  -14.4610   26.9497 C   0  0  0  0  0  0  0  0  0  0  0  0
    6.1401   -7.9704   26.6632 O   0  0  0  0  0  0  0  0  0  0  0  0
    4.3078  -13.1865   26.5723 C   0  0  1  0  0  0  0  0  0  0  0  0
    7.7250   -8.3975   24.3359 O   0  0  0  0  0  0  0  0  0  0  0  0
    4.6928  -13.2347   25.0824 C   0  0  2  0  0  0  0  0  0  0  0  0
    4.9970  -11.0532   23.9138 C   0  0  1  0  0  0  0  0  0  0  0  0
    4.5585   -9.5961   25.9444 C   0  0  2  0  0  0  0  0  0  0  0  0
    3.4074   -8.8626   26.6393 C   0  0  0  0  0  0  0  0  0  0  0  0
    5.6197   -8.6058   25.5197 C   0  0  2  0  0  0  0  0  0  0  0  0
    6.7208   -9.3317   24.7487 C   0  0  1  0  0  0  0  0  0  0  0  0
    6.1090  -10.0245   23.5061 C   0  0  1  0  0  0  0  0  0  0  0  0
  5  4  1  6  0  0  0
  5  8  1  0  0  0  0
  5 16  1  0  0  0  0
  8  7  1  1  0  0  0
  8 10  1  0  0  0  0
 10  1  1  6  0  0  0
 10 12  1  0  0  0  0
 11 18  1  0  0  0  0
 12 14  1  0  0  0  0
 14  2  1  6  0  0  0
 14 16  1  0  0  0  0
 16  9  1  1  0  0  0
 17  9  1  1  0  0  0
 17 11  1  0  0  0  0
 17 22  1  0  0  0  0
 18 19  1  6  0  0  0
 18 20  1  0  0  0  0
 19  3  1  0  0  0  0
 20 13  1  1  0  0  0
 20 21  1  0  0  0  0
 21 15  1  6  0  0  0
 21 22  1  0  0  0  0
 22  6  1  1  0  0  0
M  END
>  <CHROM.1>
129.38216003,77.88108032,167.49022731,5.09820564,-11.93306811,25.41314261
1.80402473,-0.87023450,-3.00997388

>  <Name>
2f4s_lig

>  <RI>
0

>  <Rbt.Current_Directory>
/home/itssahil/PROJECTS/Mol_Feturizer/New_Systems/rnas/2f4s

>  <Rbt.Executable>
rbdock ($Id: //depot/dev/client3/rdock/2013.1/src/exe/rbdock.cxx#4 $)

>  <Rbt.Library>
libRbt.so (2013.1, Build901 2013/11/27)

>  <Rbt.Parameter_File>
/export/apps/rDock/src/rDock_2013.1_src/data/scripts/dock_solv.prm

>  <Rbt.Receptor>
prm/blind_docking_60.prm

>  <SCORE>
1.37003

>  <SCORE.INTER>
-5.25853

>  <SCORE.INTER.CONST>
1

>  <SCORE.INTER.POLAR>
-0.345621

>  <SCORE.INTER.ROT>
3

>  <SCORE.INTER.SOLV>
17.0491

>  <SCORE.INTER.VDW>
-13.6366

>  <SCORE.INTER.norm>
-0.239024

>  <SCORE.INTRA>
5.9784

>  <SCORE.INTRA.DIHEDRAL>
7.1506

>  <SCORE.INTRA.DIHEDRAL.0>
1.67653

>  <SCORE.INTRA.POLAR>
0

>  <SCORE.INTRA.POLAR.0>
0

>  <SCORE.INTRA.REPUL>
0

>  <SCORE.INTRA.REPUL.0>
0

>  <SCORE.INTRA.SOLV>
4.81292

>  <SCORE.INTRA.SOLV.lig_0>
-76.6701

>  <SCORE.INTRA.VDW>
-0.00335269

>  <SCORE.INTRA.VDW.0>
-1.53273

>  <SCORE.INTRA.norm>
0.271746

>  <SCORE.RESTR>
0.650159

>  <SCORE.RESTR.CAVITY>
0.650159

>  <SCORE.RESTR.norm>
0.0295527

>  <SCORE.SYSTEM>
0

>  <SCORE.SYSTEM.CONST>
0

>  <SCORE.SYSTEM.DIHEDRAL>
0

>  <SCORE.SYSTEM.SOLV>
0

>  <SCORE.SYSTEM.norm>
0

>  <SCORE.heavy>
22

>  <SCORE.norm>
0.0622743

>  <RMSD>
34.362

$$$$
2f4s_lig
 OpenBabel11021811433D
libRbt.so/2013.1/901 2013/11/27
 22 23  0  0  0  0  0  0  0  0999 V2000
    3.9577  -16.6219   27.2553 N   0  0  0  0  0  0  0  0  0  0  0  0
    1.9887  -12.0804   26.4345 N   0  0  0  0  0  0  0  0  0  0  0  0
    5.2749   -8.6323   28.5238 N   0  0  0  0  0  0  0  0  0  0  0  0
    5.6937  -13.8180   23.5631 O   0  0  0  0  0  0  0  0  0  0  0  0
    5.1202  -13.7729   24.9018 C   0  0  2  0  0  0  0  0  0  0  0  0
    3.7451   -9.7182   22.1765 N   0  0  0  0  0  0  0  0  0  0  0  0
    6.0062  -16.0142   25.4050 O   0  0  0  0  0  0  0  0  0  0  0  0
    4.8187  -15.2130   25.4006 C   0  0  1  0  0  0  0  0  0  0  0  0
    4.0960  -11.5771   24.5298 O   0  0  0  0  0  0  0  0  0  0  0  0
    4.2446  -15.2031   26.8121 C   0  0  1  0  0  0  0  0  0  0  0  0
    3.0258  -10.0277   25.8711 O   0  0  0  0  0  0  0  0  0  0  0  0
    2.9331  -14.3475   26.8398 C   0  0  0  0  0  0  0  0  0  0  0  0
    5.8270   -7.6670   26.1281 O   0  0  0  0  0  0  0  0  0  0  0  0
    3.2793  -12.8837   26.3663 C   0  0  1  0  0  0  0  0  0  0  0  0
    5.2184   -7.5495   23.3485 O   0  0  0  0  0  0  0  0  0  0  0  0
    3.7972  -12.9097   24.9167 C   0  0  2  0  0  0  0  0  0  0  0  0
    3.1214  -10.5506   24.4747 C   0  0  1  0  0  0  0  0  0  0  0  0
    4.2671   -9.4355   26.4450 C   0  0  2  0  0  0  0  0  0  0  0  0
    3.9701   -8.9891   27.8799 C   0  0  0  0  0  0  0  0  0  0  0  0
    4.6536   -8.2404   25.6025 C   0  0  2  0  0  0  0  0  0  0  0  0
    4.8605   -8.6787   24.1538 C   0  0  1  0  0  0  0  0  0  0  0  0
    3.5539   -9.3116   23.6150 C   0  0  1  0  0  0  0  0  0  0  0  0
  5  4  1  6  0  0  0
  5  8  1  0  0  0  0
  5 16  1  0  0  0  0
  8  7  1  1  0  0  0
  8 10  1  0  0  0  0
 10  1  1  6  0  0  0
 10 12  1  0  0  0  0
 11 18  1  0  0  0  0
 12 14  1  0  0  0  0
 14  2  1  6  0  0  0
 14 16  1  0  0  0  0
 16  9  1  1  0  0  0
 17  9  1  1  0  0  0
 17 11  1  0  0  0  0
 17 22  1  0  0  0  0
 18 19  1  1  0  0  0
 18 20  1  0  0  0  0
 19  3  1  0  0  0  0
 20 13  1  1  0  0  0
 20 21  1  0  0  0  0
 21 15  1  6  0  0  0
 21 22  1  0  0  0  0
 22  6  1  6  0  0  0
M  END
>  <CHROM.1>
-178.52320093,84.15512008,169.78606937,4.27832430,-11.49206323,25.46483995
1.70274519,-1.41185219,-3.12551368

>  <Name>
2f4s_lig

>  <RI>
8.9913e+06

>  <Rbt.Current_Directory>
/home/itssahil/PROJECTS/Mol_Feturizer/New_Systems/rnas/2f4s

>  <Rbt.Executable>
rbdock ($Id: //depot/dev/client3/rdock/2013.1/src/exe/rbdock.cxx#4 $)

>  <Rbt.Library>
libRbt.so (2013.1, Build901 2013/11/27)

>  <Rbt.Parameter_File>
/export/apps/rDock/src/rDock_2013.1_src/data/scripts/dock_solv.prm

>  <Rbt.Receptor>
prm/blind_docking_40.prm

>  <SCORE>
-7.88248

>  <SCORE.INTER>
-12.8447

>  <SCORE.INTER.CONST>
1

>  <SCORE.INTER.POLAR>
-2.12637

>  <SCORE.INTER.ROT>
3

>  <SCORE.INTER.SOLV>
19.026

>  <SCORE.INTER.VDW>
-13.4172

>  <SCORE.INTER.norm>
-0.583849

>  <SCORE.INTRA>
4.79557

>  <SCORE.INTRA.DIHEDRAL>
1.28883

>  <SCORE.INTRA.DIHEDRAL.0>
1.67653

>  <SCORE.INTRA.POLAR>
0

>  <SCORE.INTRA.POLAR.0>
0

>  <SCORE.INTRA.REPUL>
0

>  <SCORE.INTRA.REPUL.0>
0

>  <SCORE.INTRA.SOLV>
3.77193

>  <SCORE.INTRA.SOLV.lig_0>
-76.6701

>  <SCORE.INTRA.VDW>
2.26519

>  <SCORE.INTRA.VDW.0>
-1.53273

>  <SCORE.INTRA.norm>
0.21798

>  <SCORE.RESTR>
0.166627

>  <SCORE.RESTR.CAVITY>
0.166627

>  <SCORE.RESTR.norm>
0.00757395

>  <SCORE.SYSTEM>
0

>  <SCORE.SYSTEM.CONST>
0

>  <SCORE.SYSTEM.DIHEDRAL>
0

>  <SCORE.SYSTEM.SOLV>
0

>  <SCORE.SYSTEM.norm>
0

>  <SCORE.heavy>
22

>  <SCORE.norm>
-0.358294

>  <RMSD>
34.363

$$$$
2f4s_lig
 OpenBabel11021811433D
libRbt.so/2013.1/901 2013/11/27
 22 23  0  0  0  0  0  0  0  0999 V2000
    3.8407  -16.5967   27.3722 N   0  0  0  0  0  0  0  0  0  0  0  0
    1.9814  -12.0142   26.5239 N   0  0  0  0  0  0  0  0  0  0  0  0
    5.3226   -8.6052   28.5173 N   0  0  0  0  0  0  0  0  0  0  0  0
    5.5917  -13.8871   23.6173 O   0  0  0  0  0  0  0  0  0  0  0  0
    5.0413  -13.8098   24.9641 C   0  0  2  0  0  0  0  0  0  0  0  0
    3.7559   -9.7714   22.1917 N   0  0  0  0  0  0  0  0  0  0  0  0
    5.8747  -16.0677   25.4822 O   0  0  0  0  0  0  0  0  0  0  0  0
    4.7093  -15.2349   25.4861 C   0  0  1  0  0  0  0  0  0  0  0  0
    4.0706  -11.5919   24.5800 O   0  0  0  0  0  0  0  0  0  0  0  0
    4.1585  -15.1919   26.9062 C   0  0  1  0  0  0  0  0  0  0  0  0
    3.0374   -9.9937   25.8927 O   0  0  0  0  0  0  0  0  0  0  0  0
    2.8710  -14.3008   26.9436 C   0  0  0  0  0  0  0  0  0  0  0  0
    5.8904   -7.6909   26.0997 O   0  0  0  0  0  0  0  0  0  0  0  0
    3.2487  -12.8529   26.4458 C   0  0  1  0  0  0  0  0  0  0  0  0
    5.2790   -7.6135   23.3193 O   0  0  0  0  0  0  0  0  0  0  0  0
    3.7423  -12.9110   24.9887 C   0  0  2  0  0  0  0  0  0  0  0  0
    3.1186  -10.5455   24.5066 C   0  0  1  0  0  0  0  0  0  0  0  0
    4.2926   -9.4180   26.4532 C   0  0  2  0  0  0  0  0  0  0  0  0
    4.0084   -8.9376   27.8796 C   0  0  0  0  0  0  0  0  0  0  0  0
    4.7036   -8.2483   25.5871 C   0  0  2  0  0  0  0  0  0  0  0  0
    4.8979   -8.7188   24.1468 C   0  0  1  0  0  0  0  0  0  0  0  0
    3.5766   -9.3331   23.6225 C   0  0  1  0  0  0  0  0  0  0  0  0
  5  4  1  6  0  0  0
  5  8  1  0  0  0  0
  5 16  1  0  0  0  0
  8  7  1  1  0  0  0
  8 10  1  0  0  0  0
 10  1  1  6  0  0  0
 10 12  1  0  0  0  0
 11 18  1  0  0  0  0
 12 14  1  0  0  0  0
 14  2  1  6  0  0  0
 14 16  1  0  0  0  0
 16  9  1  1  0  0  0
 17  9  1  1  0  0  0
 17 11  1  0  0  0  0
 17 22  1  0  0  0  0
 18 19  1  1  0  0  0
 18 20  1  0  0  0  0
 19  3  1  0  0  0  0
 20 13  1  1  0  0  0
 20 21  1  0  0  0  0
 21 15  1  6  0  0  0
 21 22  1  0  0  0  0
 22  6  1  6  0  0  0
M  END
>  <CHROM.1>
-179.56155370,84.37432849,169.45390667,4.25840077,-11.49726917,25.50429667
1.83715682,-1.41173198,-3.00629339

>  <Name>
2f4s_lig

>  <RI>
8.9913e+06

>  <Rbt.Current_Directory>
/home/itssahil/PROJECTS/Mol_Feturizer/New_Systems/rnas/2f4s

>  <Rbt.Executable>
rbdock ($Id: //depot/dev/client3/rdock/2013.1/src/exe/rbdock.cxx#4 $)

>  <Rbt.Library>
libRbt.so (2013.1, Build901 2013/11/27)

>  <Rbt.Parameter_File>
/export/apps/rDock/src/rDock_2013.1_src/data/scripts/dock_solv.prm

>  <Rbt.Receptor>
prm/blind_docking_40.prm

>  <SCORE>
-7.07731

>  <SCORE.INTER>
-11.8611

>  <SCORE.INTER.CONST>
1

>  <SCORE.INTER.POLAR>
-2.08765

>  <SCORE.INTER.ROT>
3

>  <SCORE.INTER.SOLV>
19.2377

>  <SCORE.INTER.VDW>
-12.9611

>  <SCORE.INTER.norm>
-0.53914

>  <SCORE.INTRA>
4.74302

>  <SCORE.INTRA.DIHEDRAL>
1.34077

>  <SCORE.INTRA.DIHEDRAL.0>
1.67653

>  <SCORE.INTRA.POLAR>
0

>  <SCORE.INTRA.POLAR.0>
0

>  <SCORE.INTRA.REPUL>
0

>  <SCORE.INTRA.REPUL.0>
0

>  <SCORE.INTRA.SOLV>
3.7713

>  <SCORE.INTRA.SOLV.lig_0>
-76.6701

>  <SCORE.INTRA.VDW>
2.18698

>  <SCORE.INTRA.VDW.0>
-1.53273

>  <SCORE.INTRA.norm>
0.215592

>  <SCORE.RESTR>
0.0407615

>  <SCORE.RESTR.CAVITY>
0.0407615

>  <SCORE.RESTR.norm>
0.0018528

>  <SCORE.SYSTEM>
0

>  <SCORE.SYSTEM.CONST>
0

>  <SCORE.SYSTEM.DIHEDRAL>
0

>  <SCORE.SYSTEM.SOLV>
0

>  <SCORE.SYSTEM.norm>
0

>  <SCORE.heavy>
22

>  <SCORE.norm>
-0.321696

>  <RMSD>
34.368

$$$$
2f4s_lig
 OpenBabel11021811433D
libRbt.so/2013.1/901 2013/11/27
 22 23  0  0  0  0  0  0  0  0999 V2000
    3.9744  -16.6682   27.2415 N   0  0  0  0  0  0  0  0  0  0  0  0
    2.0105  -12.1147   26.4764 N   0  0  0  0  0  0  0  0  0  0  0  0
    5.2001   -8.6465   28.5774 N   0  0  0  0  0  0  0  0  0  0  0  0
    5.6994  -13.8295   23.5709 O   0  0  0  0  0  0  0  0  0  0  0  0
    5.1319  -13.7972   24.9124 C   0  0  2  0  0  0  0  0  0  0  0  0
    3.7906   -9.7473   22.2017 N   0  0  0  0  0  0  0  0  0  0  0  0
    6.0158  -16.0452   25.3885 O   0  0  0  0  0  0  0  0  0  0  0  0
    4.8299  -15.2418   25.3977 C   0  0  1  0  0  0  0  0  0  0  0  0
    4.1103  -11.5958   24.5677 O   0  0  0  0  0  0  0  0  0  0  0  0
    4.2620  -15.2455   26.8117 C   0  0  1  0  0  0  0  0  0  0  0  0
    3.0064  -10.0483   25.8837 O   0  0  0  0  0  0  0  0  0  0  0  0
    2.9523  -14.3877   26.8541 C   0  0  0  0  0  0  0  0  0  0  0  0
    5.7879   -7.6693   26.1829 O   0  0  0  0  0  0  0  0  0  0  0  0
    3.2992  -12.9197   26.3942 C   0  0  1  0  0  0  0  0  0  0  0  0
    5.2290   -7.5654   23.3923 O   0  0  0  0  0  0  0  0  0  0  0  0
    3.8106  -12.9317   24.9422 C   0  0  2  0  0  0  0  0  0  0  0  0
    3.1305  -10.5756   24.4913 C   0  0  1  0  0  0  0  0  0  0  0  0
    4.2334   -9.4463   26.4779 C   0  0  2  0  0  0  0  0  0  0  0  0
    3.9077   -8.9967   27.9055 C   0  0  0  0  0  0  0  0  0  0  0  0
    4.6277   -8.2519   25.6382 C   0  0  2  0  0  0  0  0  0  0  0  0
    4.8636   -8.6939   24.1950 C   0  0  1  0  0  0  0  0  0  0  0  0
    3.5709   -9.3369   23.6351 C   0  0  1  0  0  0  0  0  0  0  0  0
  5  4  1  6  0  0  0
  5  8  1  0  0  0  0
  5 16  1  0  0  0  0
  8  7  1  1  0  0  0
  8 10  1  0  0  0  0
 10  1  1  6  0  0  0
 10 12  1  0  0  0  0
 11 18  1  0  0  0  0
 12 14  1  0  0  0  0
 14  2  1  6  0  0  0
 14 16  1  0  0  0  0
 16  9  1  1  0  0  0
 17  9  1  1  0  0  0
 17 11  1  0  0  0  0
 17 22  1  0  0  0  0
 18 19  1  1  0  0  0
 18 20  1  0  0  0  0
 19  3  1  0  0  0  0
 20 13  1  1  0  0  0
 20 21  1  0  0  0  0
 21 15  1  6  0  0  0
 21 22  1  0  0  0  0
 22  6  1  6  0  0  0
M  END
>  <CHROM.1>
179.64298676,84.75122074,169.06705284,4.27766102,-11.51509130,25.48740892
1.66002627,-1.39249152,3.12360986

>  <Name>
2f4s_lig

>  <RI>
8.9913e+06

>  <Rbt.Current_Directory>
/home/itssahil/PROJECTS/Mol_Feturizer/New_Systems/rnas/2f4s

>  <Rbt.Executable>
rbdock ($Id: //depot/dev/client3/rdock/2013.1/src/exe/rbdock.cxx#4 $)

>  <Rbt.Library>
libRbt.so (2013.1, Build901 2013/11/27)

>  <Rbt.Parameter_File>
/export/apps/rDock/src/rDock_2013.1_src/data/scripts/dock_solv.prm

>  <Rbt.Receptor>
prm/blind_docking_40.prm

>  <SCORE>
-7.9705

>  <SCORE.INTER>
-12.8166

>  <SCORE.INTER.CONST>
1

>  <SCORE.INTER.POLAR>
-2.11967

>  <SCORE.INTER.ROT>
3

>  <SCORE.INTER.SOLV>
18.786

>  <SCORE.INTER.VDW>
-13.3408

>  <SCORE.INTER.norm>
-0.582573

>  <SCORE.INTRA>
4.68172

>  <SCORE.INTRA.DIHEDRAL>
1.4346

>  <SCORE.INTRA.DIHEDRAL.0>
1.67653

>  <SCORE.INTRA.POLAR>
0

>  <SCORE.INTRA.POLAR.0>
0

>  <SCORE.INTRA.REPUL>
0

>  <SCORE.INTRA.REPUL.0>
0

>  <SCORE.INTRA.SOLV>
3.75476

>  <SCORE.INTRA.SOLV.lig_0>
-76.6701

>  <SCORE.INTRA.VDW>
2.08704

>  <SCORE.INTRA.VDW.0>
-1.53273

>  <SCORE.INTRA.norm>
0.212805

>  <SCORE.RESTR>
0.164383

>  <SCORE.RESTR.CAVITY>
0.164383

>  <SCORE.RESTR.norm>
0.00747197

>  <SCORE.SYSTEM>
0

>  <SCORE.SYSTEM.CONST>
0

>  <SCORE.SYSTEM.DIHEDRAL>
0

>  <SCORE.SYSTEM.SOLV>
0

>  <SCORE.SYSTEM.norm>
0

>  <SCORE.heavy>
22

>  <SCORE.norm>
-0.362295

>  <RMSD>
34.373

$$$$
2f4s_lig
 OpenBabel11021811433D
libRbt.so/2013.1/901 2013/11/27
 22 23  0  0  0  0  0  0  0  0999 V2000
    3.5146  -16.9625   27.1405 N   0  0  0  0  0  0  0  0  0  0  0  0
    3.4462  -11.9534   26.8581 N   0  0  0  0  0  0  0  0  0  0  0  0
    3.8830   -8.4808   27.9967 N   0  0  0  0  0  0  0  0  0  0  0  0
    5.9629  -14.6696   23.4996 O   0  0  0  0  0  0  0  0  0  0  0  0
    5.5453  -14.5499   24.8904 C   0  0  2  0  0  0  0  0  0  0  0  0
    7.1973  -10.7542   22.7275 N   0  0  0  0  0  0  0  0  0  0  0  0
    5.5071  -16.9993   25.1360 O   0  0  0  0  0  0  0  0  0  0  0  0
    4.7345  -15.8061   25.3127 C   0  0  1  0  0  0  0  0  0  0  0  0
    5.4477  -12.1028   24.7860 O   0  0  0  0  0  0  0  0  0  0  0  0
    4.3073  -15.7263   26.7732 C   0  0  1  0  0  0  0  0  0  0  0  0
    4.0227  -10.2835   24.7185 O   0  0  0  0  0  0  0  0  0  0  0  0
    3.4447  -14.4386   26.9987 C   0  0  0  0  0  0  0  0  0  0  0  0
    6.1439   -7.9980   26.6582 O   0  0  0  0  0  0  0  0  0  0  0  0
    4.3075  -13.1807   26.5985 C   0  0  1  0  0  0  0  0  0  0  0  0
    7.7296   -8.4334   24.3331 O   0  0  0  0  0  0  0  0  0  0  0  0
    4.6742  -13.2495   25.1049 C   0  0  2  0  0  0  0  0  0  0  0  0
    4.9951  -11.0828   23.9135 C   0  0  1  0  0  0  0  0  0  0  0  0
    4.5587   -9.6209   25.9410 C   0  0  2  0  0  0  0  0  0  0  0  0
    3.4089   -8.8832   26.6337 C   0  0  0  0  0  0  0  0  0  0  0  0
    5.6228   -8.6341   25.5155 C   0  0  2  0  0  0  0  0  0  0  0  0
    6.7226   -9.3642   24.7467 C   0  0  1  0  0  0  0  0  0  0  0  0
    6.1102  -10.0576   23.5048 C   0  0  1  0  0  0  0  0  0  0  0  0
  5  4  1  6  0  0  0
  5  8  1  0  0  0  0
  5 16  1  0  0  0  0
  8  7  1  1  0  0  0
  8 10  1  0  0  0  0
 10  1  1  6  0  0  0
 10 12  1  0  0  0  0
 11 18  1  0  0  0  0
 12 14  1  0  0  0  0
 14  2  1  6  0  0  0
 14 16  1  0  0  0  0
 16  9  1  1  0  0  0
 17  9  1  1  0  0  0
 17 11  1  0  0  0  0
 17 22  1  0  0  0  0
 18 19  1  6  0  0  0
 18 20  1  0  0  0  0
 19  3  1  0  0  0  0
 20 13  1  1  0  0  0
 20 21  1  0  0  0  0
 21 15  1  6  0  0  0
 21 22  1  0  0  0  0
 22  6  1  1  0  0  0
M  END
>  <CHROM.1>
129.55609986,76.68900368,167.82326456,5.08378237,-11.95149255,25.42918626
1.81819232,-0.87555330,-3.00637237

>  <Name>
2f4s_lig

>  <RI>
0

>  <Rbt.Current_Directory>
/home/itssahil/PROJECTS/Mol_Feturizer/New_Systems/rnas/2f4s

>  <Rbt.Executable>
rbdock ($Id: //depot/dev/client3/rdock/2013.1/src/exe/rbdock.cxx#4 $)

>  <Rbt.Library>
libRbt.so (2013.1, Build901 2013/11/27)

>  <Rbt.Parameter_File>
/export/apps/rDock/src/rDock_2013.1_src/data/scripts/dock_solv.prm

>  <Rbt.Receptor>
prm/blind_docking_60.prm

>  <SCORE>
1.57786

>  <SCORE.INTER>
-5.09982

>  <SCORE.INTER.CONST>
1

>  <SCORE.INTER.POLAR>
-0.364739

>  <SCORE.INTER.ROT>
3

>  <SCORE.INTER.SOLV>
17.1575

>  <SCORE.INTER.VDW>
-13.5032

>  <SCORE.INTER.norm>
-0.23181

>  <SCORE.INTRA>
6.07805

>  <SCORE.INTRA.DIHEDRAL>
6.9368

>  <SCORE.INTRA.DIHEDRAL.0>
1.67653

>  <SCORE.INTRA.POLAR>
0

>  <SCORE.INTRA.POLAR.0>
0

>  <SCORE.INTRA.REPUL>
0

>  <SCORE.INTRA.REPUL.0>
0

>  <SCORE.INTRA.SOLV>
4.91761

>  <SCORE.INTRA.SOLV.lig_0>
-76.6701

>  <SCORE.INTRA.VDW>
0.150849

>  <SCORE.INTRA.VDW.0>
-1.53273

>  <SCORE.INTRA.norm>
0.276275

>  <SCORE.RESTR>
0.599633

>  <SCORE.RESTR.CAVITY>
0.599633

>  <SCORE.RESTR.norm>
0.027256

>  <SCORE.SYSTEM>
0

>  <SCORE.SYSTEM.CONST>
0

>  <SCORE.SYSTEM.DIHEDRAL>
0

>  <SCORE.SYSTEM.SOLV>
0

>  <SCORE.SYSTEM.norm>
0

>  <SCORE.heavy>
22

>  <SCORE.norm>
0.0717209

>  <RMSD>
34.379

$$$$
2f4s_lig
 OpenBabel11021811433D
libRbt.so/2013.1/901 2013/11/27
 22 23  0  0  0  0  0  0  0  0999 V2000
    4.5784  -16.3977   27.4322 N   0  0  0  0  0  0  0  0  0  0  0  0
    2.1997  -12.1166   26.3414 N   0  0  0  0  0  0  0  0  0  0  0  0
    4.1024   -7.8007   27.4196 N   0  0  0  0  0  0  0  0  0  0  0  0
    5.8161  -13.8627   23.3642 O   0  0  0  0  0  0  0  0  0  0  0  0
    5.3383  -13.7242   24.7336 C   0  0  2  0  0  0  0  0  0  0  0  0
    2.9062  -10.0199   22.0077 N   0  0  0  0  0  0  0  0  0  0  0  0
    6.4340  -15.8333   25.3761 O   0  0  0  0  0  0  0  0  0  0  0  0
    5.1892  -15.1246   25.3895 C   0  0  1  0  0  0  0  0  0  0  0  0
    4.1182  -11.6571   24.2366 O   0  0  0  0  0  0  0  0  0  0  0  0
    4.7187  -15.0139   26.8347 C   0  0  1  0  0  0  0  0  0  0  0  0
    3.6044   -9.9588   25.7188 O   0  0  0  0  0  0  0  0  0  0  0  0
    3.3485  -14.2570   26.8846 C   0  0  0  0  0  0  0  0  0  0  0  0
    6.2808   -7.6629   24.6935 O   0  0  0  0  0  0  0  0  0  0  0  0
    3.5420  -12.8272   26.2480 C   0  0  1  0  0  0  0  0  0  0  0  0
    4.6881   -7.7918   22.3362 O   0  0  0  0  0  0  0  0  0  0  0  0
    3.9551  -12.9619   24.7711 C   0  0  2  0  0  0  0  0  0  0  0  0
    3.1826  -10.6138   24.4439 C   0  0  1  0  0  0  0  0  0  0  0  0
    4.9644   -9.3495   25.7343 C   0  0  2  0  0  0  0  0  0  0  0  0
    5.2139   -8.7615   27.1265 C   0  0  0  0  0  0  0  0  0  0  0  0
    5.0016   -8.2507   24.6958 C   0  0  2  0  0  0  0  0  0  0  0  0
    4.6632   -8.8295   23.3232 C   0  0  1  0  0  0  0  0  0  0  0  0
    3.2559   -9.4741   23.3683 C   0  0  1  0  0  0  0  0  0  0  0  0
  5  4  1  6  0  0  0
  5  8  1  0  0  0  0
  5 16  1  0  0  0  0
  8  7  1  1  0  0  0
  8 10  1  0  0  0  0
 10  1  1  6  0  0  0
 10 12  1  0  0  0  0
 11 18  1  0  0  0  0
 12 14  1  0  0  0  0
 14  2  1  6  0  0  0
 14 16  1  0  0  0  0
 16  9  1  1  0  0  0
 17  9  1  6  0  0  0
 17 11  1  0  0  0  0
 17 22  1  0  0  0  0
 18 19  1  1  0  0  0
 18 20  1  0  0  0  0
 19  3  1  0  0  0  0
 20 13  1  6  0  0  0
 20 21  1  0  0  0  0
 21 15  1  6  0  0  0
 21 22  1  0  0  0  0
 22  6  1  6  0  0  0
M  END
>  <CHROM.1>
-162.89289248,87.97776040,-55.80134197,4.44337319,-11.44985743,25.08619737
1.24810215,-1.43736262,2.58360026

>  <Name>
2f4s_lig

>  <RI>
0

>  <Rbt.Current_Directory>
/home/itssahil/PROJECTS/Mol_Feturizer/New_Systems/rnas/2f4s

>  <Rbt.Executable>
rbdock ($Id: //depot/dev/client3/rdock/2013.1/src/exe/rbdock.cxx#4 $)

>  <Rbt.Library>
libRbt.so (2013.1, Build901 2013/11/27)

>  <Rbt.Parameter_File>
/export/apps/rDock/src/rDock_2013.1_src/data/scripts/dock_solv.prm

>  <Rbt.Receptor>
prm/blind_docking_80.prm

>  <SCORE>
-1.94306

>  <SCORE.INTER>
-7.73571

>  <SCORE.INTER.CONST>
1

>  <SCORE.INTER.POLAR>
-0.850562

>  <SCORE.INTER.ROT>
3

>  <SCORE.INTER.SOLV>
17.1495

>  <SCORE.INTER.VDW>
-13.6384

>  <SCORE.INTER.norm>
-0.351623

>  <SCORE.INTRA>
5.39247

>  <SCORE.INTRA.DIHEDRAL>
3.00164

>  <SCORE.INTRA.DIHEDRAL.0>
1.67653

>  <SCORE.INTRA.POLAR>
0

>  <SCORE.INTRA.POLAR.0>
0

>  <SCORE.INTRA.REPUL>
0

>  <SCORE.INTRA.REPUL.0>
0

>  <SCORE.INTRA.SOLV>
3.71774

>  <SCORE.INTRA.SOLV.lig_0>
-76.6701

>  <SCORE.INTRA.VDW>
2.03278

>  <SCORE.INTRA.VDW.0>
-1.53273

>  <SCORE.INTRA.norm>
0.245112

>  <SCORE.RESTR>
0.400175

>  <SCORE.RESTR.CAVITY>
0.400175

>  <SCORE.RESTR.norm>
0.0181898

>  <SCORE.SYSTEM>
0

>  <SCORE.SYSTEM.CONST>
0

>  <SCORE.SYSTEM.DIHEDRAL>
0

>  <SCORE.SYSTEM.SOLV>
0

>  <SCORE.SYSTEM.norm>
0

>  <SCORE.heavy>
22

>  <SCORE.norm>
-0.0883211

>  <RMSD>
34.383

$$$$
2f4s_lig
 OpenBabel11021811433D
libRbt.so/2013.1/901 2013/11/27
 22 23  0  0  0  0  0  0  0  0999 V2000
    1.8413  -15.9617   26.6561 N   0  0  0  0  0  0  0  0  0  0  0  0
    2.5487  -11.7603   24.0059 N   0  0  0  0  0  0  0  0  0  0  0  0
    3.8446   -8.0093   27.4175 N   0  0  0  0  0  0  0  0  0  0  0  0
    6.4396  -14.4707   25.5886 O   0  0  0  0  0  0  0  0  0  0  0  0
    5.0922  -14.0014   25.8840 C   0  0  2  0  0  0  0  0  0  0  0  0
    7.4656  -10.8637   22.6771 N   0  0  0  0  0  0  0  0  0  0  0  0
    4.6180  -16.0412   27.1786 O   0  0  0  0  0  0  0  0  0  0  0  0
    4.1449  -15.2117   26.1109 C   0  0  1  0  0  0  0  0  0  0  0  0
    5.3731  -11.9588   24.5584 O   0  0  0  0  0  0  0  0  0  0  0  0
    2.7318  -14.7546   26.4520 C   0  0  1  0  0  0  0  0  0  0  0  0
    4.1455  -10.0213   24.2679 O   0  0  0  0  0  0  0  0  0  0  0  0
    2.1764  -13.8568   25.2951 C   0  0  0  0  0  0  0  0  0  0  0  0
    6.2419   -7.8594   26.3695 O   0  0  0  0  0  0  0  0  0  0  0  0
    3.1369  -12.6189   25.1159 C   0  0  1  0  0  0  0  0  0  0  0  0
    8.0320   -8.5355   24.2603 O   0  0  0  0  0  0  0  0  0  0  0  0
    4.5420  -13.0995   24.7095 C   0  0  2  0  0  0  0  0  0  0  0  0
    5.1219  -10.9393   23.6074 C   0  0  1  0  0  0  0  0  0  0  0  0
    4.6004   -9.3595   25.5233 C   0  0  2  0  0  0  0  0  0  0  0  0
    3.4553   -8.4912   26.0534 C   0  0  0  0  0  0  0  0  0  0  0  0
    5.7953   -8.4928   25.1942 C   0  0  2  0  0  0  0  0  0  0  0  0
    6.9003   -9.3522   24.5824 C   0  0  1  0  0  0  0  0  0  0  0  0
    6.3690  -10.0385   23.2999 C   0  0  1  0  0  0  0  0  0  0  0  0
  5  4  1  6  0  0  0
  5  8  1  0  0  0  0
  5 16  1  0  0  0  0
  8  7  1  1  0  0  0
  8 10  1  0  0  0  0
 10  1  1  6  0  0  0
 10 12  1  0  0  0  0
 11 18  1  0  0  0  0
 12 14  1  0  0  0  0
 14  2  1  6  0  0  0
 14 16  1  0  0  0  0
 16  9  1  1  0  0  0
 17  9  1  1  0  0  0
 17 11  1  0  0  0  0
 17 22  1  0  0  0  0
 18 19  1  6  0  0  0
 18 20  1  0  0  0  0
 19  3  1  0  0  0  0
 20 13  1  1  0  0  0
 20 21  1  0  0  0  0
 21 15  1  6  0  0  0
 21 22  1  0  0  0  0
 22  6  1  1  0  0  0
M  END
>  <CHROM.1>
-178.34846530,84.42084971,171.15191675,4.79282946,-11.61192478,25.22989209
1.99928509,-0.47489865,-3.12588593

>  <Name>
2f4s_lig

>  <RI>
0

>  <Rbt.Current_Directory>
/home/itssahil/PROJECTS/Mol_Feturizer/New_Systems/rnas/2f4s

>  <Rbt.Executable>
rbdock ($Id: //depot/dev/client3/rdock/2013.1/src/exe/rbdock.cxx#4 $)

>  <Rbt.Library>
libRbt.so (2013.1, Build901 2013/11/27)

>  <Rbt.Parameter_File>
/export/apps/rDock/src/rDock_2013.1_src/data/scripts/dock_solv.prm

>  <Rbt.Receptor>
prm/blind_docking_80.prm

>  <SCORE>
-1.89368

>  <SCORE.INTER>
-7.06504

>  <SCORE.INTER.CONST>
1

>  <SCORE.INTER.POLAR>
-1.1372

>  <SCORE.INTER.ROT>
3

>  <SCORE.INTER.SOLV>
15.0564

>  <SCORE.INTER.VDW>
-11.5381

>  <SCORE.INTER.norm>
-0.321138

>  <SCORE.INTRA>
4.77094

>  <SCORE.INTRA.DIHEDRAL>
1.24853

>  <SCORE.INTRA.DIHEDRAL.0>
1.67653

>  <SCORE.INTRA.POLAR>
0

>  <SCORE.INTRA.POLAR.0>
0

>  <SCORE.INTRA.REPUL>
0

>  <SCORE.INTRA.REPUL.0>
0

>  <SCORE.INTRA.SOLV>
3.78724

>  <SCORE.INTRA.SOLV.lig_0>
-76.6701

>  <SCORE.INTRA.VDW>
2.25305

>  <SCORE.INTRA.VDW.0>
-1.53273

>  <SCORE.INTRA.norm>
0.216861

>  <SCORE.RESTR>
0.40042

>  <SCORE.RESTR.CAVITY>
0.40042

>  <SCORE.RESTR.norm>
0.0182009

>  <SCORE.SYSTEM>
0

>  <SCORE.SYSTEM.CONST>
0

>  <SCORE.SYSTEM.DIHEDRAL>
0

>  <SCORE.SYSTEM.SOLV>
0

>  <SCORE.SYSTEM.norm>
0

>  <SCORE.heavy>
22

>  <SCORE.norm>
-0.0860764

>  <RMSD>
34.400

$$$$
2f4s_lig
 OpenBabel11021811433D
libRbt.so/2013.1/901 2013/11/27
 22 23  0  0  0  0  0  0  0  0999 V2000
   -0.8146  -14.9073   26.8306 N   0  0  0  0  0  0  0  0  0  0  0  0
    3.0712  -12.3973   24.8873 N   0  0  0  0  0  0  0  0  0  0  0  0
    2.5528   -8.7033   22.5402 N   0  0  0  0  0  0  0  0  0  0  0  0
    1.4270  -11.3921   29.5000 O   0  0  0  0  0  0  0  0  0  0  0  0
    1.0629  -11.7840   28.1447 C   0  0  2  0  0  0  0  0  0  0  0  0
    4.9324   -8.9684   28.7595 N   0  0  0  0  0  0  0  0  0  0  0  0
   -0.8534  -13.0801   28.9868 O   0  0  0  0  0  0  0  0  0  0  0  0
    0.3190  -13.1477   28.1666 C   0  0  1  0  0  0  0  0  0  0  0  0
    2.9761  -10.6151   27.1537 O   0  0  0  0  0  0  0  0  0  0  0  0
   -0.1028  -13.5729   26.7654 C   0  0  1  0  0  0  0  0  0  0  0  0
    4.3560  -10.3975   25.3115 O   0  0  0  0  0  0  0  0  0  0  0  0
    1.1600  -13.6730   25.8443 C   0  0  0  0  0  0  0  0  0  0  0  0
    3.4945   -6.9138   24.5324 O   0  0  0  0  0  0  0  0  0  0  0  0
    1.8699  -12.2652   25.8120 C   0  0  1  0  0  0  0  0  0  0  0  0
    4.7497   -6.6495   27.0751 O   0  0  0  0  0  0  0  0  0  0  0  0
    2.3443  -11.8841   27.2261 C   0  0  2  0  0  0  0  0  0  0  0  0
    4.3389  -10.4483   26.8047 C   0  0  1  0  0  0  0  0  0  0  0  0
    3.5924   -9.2867   24.6759 C   0  0  2  0  0  0  0  0  0  0  0  0
    3.7108   -9.4279   23.1553 C   0  0  0  0  0  0  0  0  0  0  0  0
    4.2042   -7.9774   25.1216 C   0  0  2  0  0  0  0  0  0  0  0  0
    4.1636   -7.8840   26.6459 C   0  0  1  0  0  0  0  0  0  0  0  0
    4.9450   -9.0735   27.2562 C   0  0  1  0  0  0  0  0  0  0  0  0
  5  4  1  1  0  0  0
  5  8  1  0  0  0  0
  5 16  1  0  0  0  0
  8  7  1  1  0  0  0
  8 10  1  0  0  0  0
 10  1  1  1  0  0  0
 10 12  1  0  0  0  0
 11 18  1  0  0  0  0
 12 14  1  0  0  0  0
 14  2  1  6  0  0  0
 14 16  1  0  0  0  0
 16  9  1  6  0  0  0
 17  9  1  1  0  0  0
 17 11  1  0  0  0  0
 17 22  1  0  0  0  0
 18 19  1  6  0  0  0
 18 20  1  0  0  0  0
 19  3  1  0  0  0  0
 20 13  1  6  0  0  0
 20 21  1  0  0  0  0
 21 15  1  6  0  0  0
 21 22  1  0  0  0  0
 22  6  1  1  0  0  0
M  END
>  <CHROM.1>
158.30137806,86.01562528,157.60133755,2.61470152,-10.62305054,26.43600384
2.83079171,0.92374568,1.56183595

>  <Name>
2f4s_lig

>  <RI>
8.9913e+06

>  <Rbt.Current_Directory>
/home/itssahil/PROJECTS/Mol_Feturizer/New_Systems/rnas/2f4s

>  <Rbt.Executable>
rbdock ($Id: //depot/dev/client3/rdock/2013.1/src/exe/rbdock.cxx#4 $)

>  <Rbt.Library>
libRbt.so (2013.1, Build901 2013/11/27)

>  <Rbt.Parameter_File>
/export/apps/rDock/src/rDock_2013.1_src/data/scripts/dock_solv.prm

>  <Rbt.Receptor>
prm/blind_docking_40.prm

>  <SCORE>
-3.43867

>  <SCORE.INTER>
-8.29866

>  <SCORE.INTER.CONST>
1

>  <SCORE.INTER.POLAR>
-1.78388

>  <SCORE.INTER.ROT>
3

>  <SCORE.INTER.SOLV>
17.3373

>  <SCORE.INTER.VDW>
-10.9653

>  <SCORE.INTER.norm>
-0.377212

>  <SCORE.INTRA>
4.85205

>  <SCORE.INTRA.DIHEDRAL>
4.90963

>  <SCORE.INTRA.DIHEDRAL.0>
1.67653

>  <SCORE.INTRA.POLAR>
0

>  <SCORE.INTRA.POLAR.0>
0

>  <SCORE.INTRA.REPUL>
0

>  <SCORE.INTRA.REPUL.0>
0

>  <SCORE.INTRA.SOLV>
3.5816

>  <SCORE.INTRA.SOLV.lig_0>
-76.6701

>  <SCORE.INTRA.VDW>
0.606432

>  <SCORE.INTRA.VDW.0>
-1.53273

>  <SCORE.INTRA.norm>
0.220548

>  <SCORE.RESTR>
0.00794276

>  <SCORE.RESTR.CAVITY>
0.00794276

>  <SCORE.RESTR.norm>
0.000361035

>  <SCORE.SYSTEM>
0

>  <SCORE.SYSTEM.CONST>
0

>  <SCORE.SYSTEM.DIHEDRAL>
0

>  <SCORE.SYSTEM.SOLV>
0

>  <SCORE.SYSTEM.norm>
0

>  <SCORE.heavy>
22

>  <SCORE.norm>
-0.156303

>  <RMSD>
34.427

$$$$
2f4s_lig
 OpenBabel11021811433D
libRbt.so/2013.1/901 2013/11/27
 22 23  0  0  0  0  0  0  0  0999 V2000
    5.0879  -16.6674   27.0434 N   0  0  0  0  0  0  0  0  0  0  0  0
    4.6997  -11.6949   27.5909 N   0  0  0  0  0  0  0  0  0  0  0  0
    4.9855   -8.5548   28.7383 N   0  0  0  0  0  0  0  0  0  0  0  0
    2.4870  -14.0263   23.7621 O   0  0  0  0  0  0  0  0  0  0  0  0
    3.6415  -13.9866   24.6500 C   0  0  2  0  0  0  0  0  0  0  0  0
    2.4858   -9.8389   22.7118 N   0  0  0  0  0  0  0  0  0  0  0  0
    3.9070  -16.4287   24.4865 O   0  0  0  0  0  0  0  0  0  0  0  0
    3.7789  -15.3372   25.4053 C   0  0  1  0  0  0  0  0  0  0  0  0
    3.4609  -11.5656   24.9889 O   0  0  0  0  0  0  0  0  0  0  0  0
    4.9962  -15.3398   26.3219 C   0  0  1  0  0  0  0  0  0  0  0  0
    2.4586  -10.1093   26.4787 O   0  0  0  0  0  0  0  0  0  0  0  0
    4.8804  -14.1661   27.3524 C   0  0  0  0  0  0  0  0  0  0  0  0
    4.9547   -7.4289   26.2123 O   0  0  0  0  0  0  0  0  0  0  0  0
    4.7819  -12.8081   26.5567 C   0  0  1  0  0  0  0  0  0  0  0  0
    3.8653   -7.4750   23.5815 O   0  0  0  0  0  0  0  0  0  0  0  0
    3.5122  -12.8009   25.6860 C   0  0  2  0  0  0  0  0  0  0  0  0
    2.3742  -10.6629   25.0935 C   0  0  1  0  0  0  0  0  0  0  0  0
    3.6992   -9.3569   26.8189 C   0  0  2  0  0  0  0  0  0  0  0  0
    3.6026   -8.9015   28.2782 C   0  0  0  0  0  0  0  0  0  0  0  0
    3.7864   -8.1530   25.9076 C   0  0  2  0  0  0  0  0  0  0  0  0
    3.7916   -8.6113   24.4503 C   0  0  1  0  0  0  0  0  0  0  0  0
    2.4982   -9.4106   24.1567 C   0  0  1  0  0  0  0  0  0  0  0  0
  5  4  1  6  0  0  0
  5  8  1  0  0  0  0
  5 16  1  0  0  0  0
  8  7  1  6  0  0  0
  8 10  1  0  0  0  0
 10  1  1  1  0  0  0
 10 12  1  0  0  0  0
 11 18  1  0  0  0  0
 12 14  1  0  0  0  0
 14  2  1  1  0  0  0
 14 16  1  0  0  0  0
 16  9  1  6  0  0  0
 17  9  1  6  0  0  0
 17 11  1  0  0  0  0
 17 22  1  0  0  0  0
 18 19  1  1  0  0  0
 18 20  1  0  0  0  0
 19  3  1  0  0  0  0
 20 13  1  1  0  0  0
 20 21  1  0  0  0  0
 21 15  1  6  0  0  0
 21 22  1  0  0  0  0
 22  6  1  6  0  0  0
M  END
>  <CHROM.1>
121.02937462,69.92602857,161.94810446,3.79910328,-11.49736200,25.71572584
-1.41652072,-1.15689634,0.14466078

>  <Name>
2f4s_lig

>  <RI>
8.9913e+06

>  <Rbt.Current_Directory>
/home/itssahil/PROJECTS/Mol_Feturizer/New_Systems/rnas/2f4s

>  <Rbt.Executable>
rbdock ($Id: //depot/dev/client3/rdock/2013.1/src/exe/rbdock.cxx#4 $)

>  <Rbt.Library>
libRbt.so (2013.1, Build901 2013/11/27)

>  <Rbt.Parameter_File>
/export/apps/rDock/src/rDock_2013.1_src/data/scripts/dock_solv.prm

>  <Rbt.Receptor>
prm/blind_docking_40.prm

>  <SCORE>
-2.23385

>  <SCORE.INTER>
-8.6171

>  <SCORE.INTER.CONST>
1

>  <SCORE.INTER.POLAR>
-1.76363

>  <SCORE.INTER.ROT>
3

>  <SCORE.INTER.SOLV>
16.8696

>  <SCORE.INTER.VDW>
-11.0892

>  <SCORE.INTER.norm>
-0.391687

>  <SCORE.INTRA>
6.38326

>  <SCORE.INTRA.DIHEDRAL>
7.15256

>  <SCORE.INTRA.DIHEDRAL.0>
1.67653

>  <SCORE.INTRA.POLAR>
0

>  <SCORE.INTRA.POLAR.0>
0

>  <SCORE.INTRA.REPUL>
0

>  <SCORE.INTRA.REPUL.0>
0

>  <SCORE.INTRA.SOLV>
5.05153

>  <SCORE.INTRA.SOLV.lig_0>
-76.6701

>  <SCORE.INTRA.VDW>
0.281212

>  <SCORE.INTRA.VDW.0>
-1.53273

>  <SCORE.INTRA.norm>
0.290148

>  <SCORE.RESTR>
0

>  <SCORE.RESTR.CAVITY>
0

>  <SCORE.RESTR.norm>
0

>  <SCORE.SYSTEM>
0

>  <SCORE.SYSTEM.CONST>
0

>  <SCORE.SYSTEM.DIHEDRAL>
0

>  <SCORE.SYSTEM.SOLV>
0

>  <SCORE.SYSTEM.norm>
0

>  <SCORE.heavy>
22

>  <SCORE.norm>
-0.101539

>  <RMSD>
34.456

$$$$
2f4s_lig
 OpenBabel11021811433D
libRbt.so/2013.1/901 2013/11/27
 22 23  0  0  0  0  0  0  0  0999 V2000
    1.9959  -16.5988   26.5301 N   0  0  0  0  0  0  0  0  0  0  0  0
    5.7903  -14.6621   23.8792 N   0  0  0  0  0  0  0  0  0  0  0  0
    4.2611   -8.3855   28.5221 N   0  0  0  0  0  0  0  0  0  0  0  0
    3.7956  -12.1397   27.7066 O   0  0  0  0  0  0  0  0  0  0  0  0
    3.5460  -13.0492   26.5960 C   0  0  2  0  0  0  0  0  0  0  0  0
    6.4797  -10.8297   22.7950 N   0  0  0  0  0  0  0  0  0  0  0  0
    1.6862  -14.1021   27.8184 O   0  0  0  0  0  0  0  0  0  0  0  0
    2.9083  -14.3657   27.1192 C   0  0  1  0  0  0  0  0  0  0  0  0
    5.4214  -12.1702   25.2850 O   0  0  0  0  0  0  0  0  0  0  0  0
    2.6065  -15.3287   25.9774 C   0  0  1  0  0  0  0  0  0  0  0  0
    3.8243  -10.5079   25.4612 O   0  0  0  0  0  0  0  0  0  0  0  0
    3.9271  -15.6522   25.2000 C   0  0  0  0  0  0  0  0  0  0  0  0
    6.0678   -7.8800   26.7049 O   0  0  0  0  0  0  0  0  0  0  0  0
    4.5283  -14.3022   24.6493 C   0  0  1  0  0  0  0  0  0  0  0  0
    7.1066   -8.3466   24.0946 O   0  0  0  0  0  0  0  0  0  0  0  0
    4.8849  -13.3699   25.8214 C   0  0  2  0  0  0  0  0  0  0  0  0
    4.6660  -11.2721   24.4916 C   0  0  1  0  0  0  0  0  0  0  0  0
    4.5523   -9.7005   26.4805 C   0  0  2  0  0  0  0  0  0  0  0  0
    3.5200   -9.0234   27.3872 C   0  0  0  0  0  0  0  0  0  0  0  0
    5.3698   -8.6533   25.7578 C   0  0  2  0  0  0  0  0  0  0  0  0
    6.3352   -9.3337   24.7889 C   0  0  1  0  0  0  0  0  0  0  0  0
    5.5324  -10.1806   23.7710 C   0  0  1  0  0  0  0  0  0  0  0  0
  5  4  1  1  0  0  0
  5  8  1  0  0  0  0
  5 16  1  0  0  0  0
  8  7  1  6  0  0  0
  8 10  1  0  0  0  0
 10  1  1  1  0  0  0
 10 12  1  0  0  0  0
 11 18  1  0  0  0  0
 12 14  1  0  0  0  0
 14  2  1  1  0  0  0
 14 16  1  0  0  0  0
 16  9  1  6  0  0  0
 17  9  1  1  0  0  0
 17 11  1  0  0  0  0
 17 22  1  0  0  0  0
 18 19  1  1  0  0  0
 18 20  1  0  0  0  0
 19  3  1  0  0  0  0
 20 13  1  1  0  0  0
 20 21  1  0  0  0  0
 21 15  1  6  0  0  0
 21 22  1  0  0  0  0
 22  6  1  6  0  0  0
M  END
>  <CHROM.1>
-51.78694995,77.97249790,171.74483096,4.49714714,-11.77028367,25.78834006
2.22843932,-0.88721234,-2.70738394

>  <Name>
2f4s_lig

>  <RI>
0

>  <Rbt.Current_Directory>
/home/itssahil/PROJECTS/Mol_Feturizer/New_Systems/rnas/2f4s

>  <Rbt.Executable>
rbdock ($Id: //depot/dev/client3/rdock/2013.1/src/exe/rbdock.cxx#4 $)

>  <Rbt.Library>
libRbt.so (2013.1, Build901 2013/11/27)

>  <Rbt.Parameter_File>
/export/apps/rDock/src/rDock_2013.1_src/data/scripts/dock_solv.prm

>  <Rbt.Receptor>
prm/blind_docking_60.prm

>  <SCORE>
-0.427204

>  <SCORE.INTER>
-3.56654

>  <SCORE.INTER.CONST>
1

>  <SCORE.INTER.POLAR>
-0.209234

>  <SCORE.INTER.ROT>
3

>  <SCORE.INTER.SOLV>
19.5075

>  <SCORE.INTER.VDW>
-13.7827

>  <SCORE.INTER.norm>
-0.162116

>  <SCORE.INTRA>
2.44757

>  <SCORE.INTRA.DIHEDRAL>
0.47704

>  <SCORE.INTRA.DIHEDRAL.0>
1.67653

>  <SCORE.INTRA.POLAR>
0

>  <SCORE.INTRA.POLAR.0>
0

>  <SCORE.INTRA.REPUL>
0

>  <SCORE.INTRA.REPUL.0>
0

>  <SCORE.INTRA.SOLV>
2.56146

>  <SCORE.INTRA.SOLV.lig_0>
-76.6701

>  <SCORE.INTRA.VDW>
0.92832

>  <SCORE.INTRA.VDW.0>
-1.53273

>  <SCORE.INTRA.norm>
0.111253

>  <SCORE.RESTR>
0.69177

>  <SCORE.RESTR.CAVITY>
0.69177

>  <SCORE.RESTR.norm>
0.0314441

>  <SCORE.SYSTEM>
0

>  <SCORE.SYSTEM.CONST>
0

>  <SCORE.SYSTEM.DIHEDRAL>
0

>  <SCORE.SYSTEM.SOLV>
0

>  <SCORE.SYSTEM.norm>
0

>  <SCORE.heavy>
22

>  <SCORE.norm>
-0.0194183

>  <RMSD>
34.465

$$$$
2f4s_lig
 OpenBabel11021811433D
libRbt.so/2013.1/901 2013/11/27
 22 23  0  0  0  0  0  0  0  0999 V2000
    2.3250  -16.1880   28.3219 N   0  0  0  0  0  0  0  0  0  0  0  0
    5.6036  -12.9215   26.3836 N   0  0  0  0  0  0  0  0  0  0  0  0
    4.7879   -9.3512   28.9070 N   0  0  0  0  0  0  0  0  0  0  0  0
    0.6929  -11.9943   26.2588 O   0  0  0  0  0  0  0  0  0  0  0  0
    1.7341  -13.0108   26.1856 C   0  0  2  0  0  0  0  0  0  0  0  0
    2.7993  -10.0108   22.6903 N   0  0  0  0  0  0  0  0  0  0  0  0
    0.2248  -14.6908   27.1657 O   0  0  0  0  0  0  0  0  0  0  0  0
    1.5139  -14.0791   27.2919 C   0  0  1  0  0  0  0  0  0  0  0  0
    3.3859  -11.4394   25.2850 O   0  0  0  0  0  0  0  0  0  0  0  0
    2.5706  -15.1748   27.2242 C   0  0  1  0  0  0  0  0  0  0  0  0
    3.2206   -9.4189   26.3965 O   0  0  0  0  0  0  0  0  0  0  0  0
    3.9949  -14.5413   27.3758 C   0  0  0  0  0  0  0  0  0  0  0  0
    6.4639   -8.0683   25.3276 O   0  0  0  0  0  0  0  0  0  0  0  0
    4.2025  -13.4913   26.2175 C   0  0  1  0  0  0  0  0  0  0  0  0
    5.0656   -8.2544   22.8536 O   0  0  0  0  0  0  0  0  0  0  0  0
    3.1653  -12.3604   26.3422 C   0  0  2  0  0  0  0  0  0  0  0  0
    2.7375  -10.1823   25.2064 C   0  0  1  0  0  0  0  0  0  0  0  0
    4.6867   -9.1620   26.4706 C   0  0  2  0  0  0  0  0  0  0  0  0
    4.9780   -8.3988   27.7663 C   0  0  0  0  0  0  0  0  0  0  0  0
    5.0798   -8.3207   25.2769 C   0  0  2  0  0  0  0  0  0  0  0  0
    4.7038   -9.0501   23.9883 C   0  0  1  0  0  0  0  0  0  0  0  0
    3.1786   -9.3179   23.9738 C   0  0  1  0  0  0  0  0  0  0  0  0
  5  4  1  1  0  0  0
  5  8  1  0  0  0  0
  5 16  1  0  0  0  0
  8  7  1  6  0  0  0
  8 10  1  0  0  0  0
 10  1  1  1  0  0  0
 10 12  1  0  0  0  0
 11 18  1  0  0  0  0
 12 14  1  0  0  0  0
 14  2  1  1  0  0  0
 14 16  1  0  0  0  0
 16  9  1  6  0  0  0
 17  9  1  6  0  0  0
 17 11  1  0  0  0  0
 17 22  1  0  0  0  0
 18 19  1  1  0  0  0
 18 20  1  0  0  0  0
 19  3  1  0  0  0  0
 20 13  1  6  0  0  0
 20 21  1  0  0  0  0
 21 15  1  6  0  0  0
 21 22  1  0  0  0  0
 22  6  1  6  0  0  0
M  END
>  <CHROM.1>
72.51700936,64.02935552,71.15773313,3.49736976,-11.30843844,26.02963896,-2.14985037
-0.75625311,-0.79441867

>  <Name>
2f4s_lig

>  <RI>
8.9913e+06

>  <Rbt.Current_Directory>
/home/itssahil/PROJECTS/Mol_Feturizer/New_Systems/rnas/2f4s

>  <Rbt.Executable>
rbdock ($Id: //depot/dev/client3/rdock/2013.1/src/exe/rbdock.cxx#4 $)

>  <Rbt.Library>
libRbt.so (2013.1, Build901 2013/11/27)

>  <Rbt.Parameter_File>
/export/apps/rDock/src/rDock_2013.1_src/data/scripts/dock_solv.prm

>  <Rbt.Receptor>
prm/blind_docking_40.prm

>  <SCORE>
-10.9817

>  <SCORE.INTER>
-11.726

>  <SCORE.INTER.CONST>
1

>  <SCORE.INTER.POLAR>
-2.61552

>  <SCORE.INTER.ROT>
3

>  <SCORE.INTER.SOLV>
23.1601

>  <SCORE.INTER.VDW>
-12.4189

>  <SCORE.INTER.norm>
-0.532998

>  <SCORE.INTRA>
-0.204674

>  <SCORE.INTRA.DIHEDRAL>
-0.256583

>  <SCORE.INTRA.DIHEDRAL.0>
1.67653

>  <SCORE.INTRA.POLAR>
0

>  <SCORE.INTRA.POLAR.0>
0

>  <SCORE.INTRA.REPUL>
0

>  <SCORE.INTRA.REPUL.0>
0

>  <SCORE.INTRA.SOLV>
0.0687758

>  <SCORE.INTRA.SOLV.lig_0>
-76.6701

>  <SCORE.INTRA.VDW>
-0.11077

>  <SCORE.INTRA.VDW.0>
-1.53273

>  <SCORE.INTRA.norm>
-0.00930337

>  <SCORE.RESTR>
0.94891

>  <SCORE.RESTR.CAVITY>
0.94891

>  <SCORE.RESTR.norm>
0.0431323

>  <SCORE.SYSTEM>
0

>  <SCORE.SYSTEM.CONST>
0

>  <SCORE.SYSTEM.DIHEDRAL>
0

>  <SCORE.SYSTEM.SOLV>
0

>  <SCORE.SYSTEM.norm>
0

>  <SCORE.heavy>
22

>  <SCORE.norm>
-0.499169

>  <RMSD>
34.490

$$$$
2f4s_lig
 OpenBabel11021811433D
libRbt.so/2013.1/901 2013/11/27
 22 23  0  0  0  0  0  0  0  0999 V2000
    2.2259  -16.1902   28.3219 N   0  0  0  0  0  0  0  0  0  0  0  0
    5.5616  -12.9388   26.4571 N   0  0  0  0  0  0  0  0  0  0  0  0
    4.7619   -9.3154   28.9209 N   0  0  0  0  0  0  0  0  0  0  0  0
    0.6594  -11.9868   26.2280 O   0  0  0  0  0  0  0  0  0  0  0  0
    1.6969  -13.0084   26.1762 C   0  0  2  0  0  0  0  0  0  0  0  0
    2.8088  -10.0493   22.6955 N   0  0  0  0  0  0  0  0  0  0  0  0
    0.1584  -14.6816   27.1223 O   0  0  0  0  0  0  0  0  0  0  0  0
    1.4475  -14.0765   27.2766 C   0  0  1  0  0  0  0  0  0  0  0  0
    3.3754  -11.4447   25.3126 O   0  0  0  0  0  0  0  0  0  0  0  0
    2.5000  -15.1775   27.2306 C   0  0  1  0  0  0  0  0  0  0  0  0
    3.1929   -9.4116   26.3981 O   0  0  0  0  0  0  0  0  0  0  0  0
    3.9239  -14.5512   27.4132 C   0  0  0  0  0  0  0  0  0  0  0  0
    6.4418   -8.0630   25.3438 O   0  0  0  0  0  0  0  0  0  0  0  0
    4.1615  -13.5014   26.2606 C   0  0  1  0  0  0  0  0  0  0  0  0
    5.0677   -8.2834   22.8591 O   0  0  0  0  0  0  0  0  0  0  0  0
    3.1276  -12.3654   26.3641 C   0  0  2  0  0  0  0  0  0  0  0  0
    2.7237  -10.1909   25.2128 C   0  0  1  0  0  0  0  0  0  0  0  0
    4.6574   -9.1489   26.4830 C   0  0  2  0  0  0  0  0  0  0  0  0
    4.9340   -8.3693   27.7722 C   0  0  0  0  0  0  0  0  0  0  0  0
    5.0591   -8.3207   25.2830 C   0  0  2  0  0  0  0  0  0  0  0  0
    4.6977   -9.0667   23.9998 C   0  0  1  0  0  0  0  0  0  0  0  0
    3.1736   -9.3397   23.9741 C   0  0  1  0  0  0  0  0  0  0  0  0
  5  4  1  1  0  0  0
  5  8  1  0  0  0  0
  5 16  1  0  0  0  0
  8  7  1  6  0  0  0
  8 10  1  0  0  0  0
 10  1  1  1  0  0  0
 10 12  1  0  0  0  0
 11 18  1  0  0  0  0
 12 14  1  0  0  0  0
 14  2  1  1  0  0  0
 14 16  1  0  0  0  0
 16  9  1  6  0  0  0
 17  9  1  6  0  0  0
 17 11  1  0  0  0  0
 17 22  1  0  0  0  0
 18 19  1  1  0  0  0
 18 20  1  0  0  0  0
 19  3  1  0  0  0  0
 20 13  1  1  0  0  0
 20 21  1  0  0  0  0
 21 15  1  6  0  0  0
 21 22  1  0  0  0  0
 22  6  1  6  0  0  0
M  END
>  <CHROM.1>
71.76117480,65.35699354,72.22393364,3.46314135,-11.31076855,26.03807883,-2.16788003
-0.76573010,-0.80855788

>  <Name>
2f4s_lig

>  <RI>
8.9913e+06

>  <Rbt.Current_Directory>
/home/itssahil/PROJECTS/Mol_Feturizer/New_Systems/rnas/2f4s

>  <Rbt.Executable>
rbdock ($Id: //depot/dev/client3/rdock/2013.1/src/exe/rbdock.cxx#4 $)

>  <Rbt.Library>
libRbt.so (2013.1, Build901 2013/11/27)

>  <Rbt.Parameter_File>
/export/apps/rDock/src/rDock_2013.1_src/data/scripts/dock_solv.prm

>  <Rbt.Receptor>
prm/blind_docking_40.prm

>  <SCORE>
-11.3439

>  <SCORE.INTER>
-12.1998

>  <SCORE.INTER.CONST>
1

>  <SCORE.INTER.POLAR>
-2.70048

>  <SCORE.INTER.ROT>
3

>  <SCORE.INTER.SOLV>
23.0318

>  <SCORE.INTER.VDW>
-12.4089

>  <SCORE.INTER.norm>
-0.554535

>  <SCORE.INTRA>
-0.184743

>  <SCORE.INTRA.DIHEDRAL>
-0.196572

>  <SCORE.INTRA.DIHEDRAL.0>
1.67653

>  <SCORE.INTRA.POLAR>
0

>  <SCORE.INTRA.POLAR.0>
0

>  <SCORE.INTRA.REPUL>
0

>  <SCORE.INTRA.REPUL.0>
0

>  <SCORE.INTRA.SOLV>
0.0146625

>  <SCORE.INTRA.SOLV.lig_0>
-76.6701

>  <SCORE.INTRA.VDW>
-0.0937886

>  <SCORE.INTRA.VDW.0>
-1.53273

>  <SCORE.INTRA.norm>
-0.00839742

>  <SCORE.RESTR>
1.04063

>  <SCORE.RESTR.CAVITY>
1.04063

>  <SCORE.RESTR.norm>
0.0473014

>  <SCORE.SYSTEM>
0

>  <SCORE.SYSTEM.CONST>
0

>  <SCORE.SYSTEM.DIHEDRAL>
0

>  <SCORE.SYSTEM.SOLV>
0

>  <SCORE.SYSTEM.norm>
0

>  <SCORE.heavy>
22

>  <SCORE.norm>
-0.515631

>  <RMSD>
34.509

$$$$
2f4s_lig
 OpenBabel11021811433D
libRbt.so/2013.1/901 2013/11/27
 22 23  0  0  0  0  0  0  0  0999 V2000
    3.4076   -6.8063   23.5791 N   0  0  0  0  0  0  0  0  0  0  0  0
    3.3784  -10.1419   27.3273 N   0  0  0  0  0  0  0  0  0  0  0  0
    5.5734  -16.6471   23.9284 N   0  0  0  0  0  0  0  0  0  0  0  0
    6.0834  -10.9542   23.2025 O   0  0  0  0  0  0  0  0  0  0  0  0
    4.8559  -10.3951   23.7534 C   0  0  2  0  0  0  0  0  0  0  0  0
    2.1388  -12.6940   26.8004 N   0  0  0  0  0  0  0  0  0  0  0  0
    4.7867   -8.6867   21.9818 O   0  0  0  0  0  0  0  0  0  0  0  0
    4.7530   -8.8857   23.4000 C   0  0  1  0  0  0  0  0  0  0  0  0
    4.8270  -11.9709   25.6307 O   0  0  0  0  0  0  0  0  0  0  0  0
    3.4638   -8.2761   23.9369 C   0  0  1  0  0  0  0  0  0  0  0  0
    4.8177  -13.9653   24.4615 O   0  0  0  0  0  0  0  0  0  0  0  0
    3.4021   -8.4617   25.4908 C   0  0  0  0  0  0  0  0  0  0  0  0
    5.6022  -16.1437   27.3119 O   0  0  0  0  0  0  0  0  0  0  0  0
    3.4693  -10.0037   25.8146 C   0  0  1  0  0  0  0  0  0  0  0  0
    3.0520  -15.1132   28.0499 O   0  0  0  0  0  0  0  0  0  0  0  0
    4.8062  -10.5859   25.3208 C   0  0  2  0  0  0  0  0  0  0  0  0
    3.9394  -12.9076   25.0465 C   0  0  1  0  0  0  0  0  0  0  0  0
    5.6879  -14.7089   25.4158 C   0  0  2  0  0  0  0  0  0  0  0  0
    6.5227  -15.7184   24.6218 C   0  0  0  0  0  0  0  0  0  0  0  0
    4.7977  -15.4356   26.3990 C   0  0  2  0  0  0  0  0  0  0  0  0
    3.9041  -14.4301   27.1231 C   0  0  1  0  0  0  0  0  0  0  0  0
    3.0433  -13.6659   26.0872 C   0  0  1  0  0  0  0  0  0  0  0  0
  5  4  1  1  0  0  0
  5  8  1  0  0  0  0
  5 16  1  0  0  0  0
  8  7  1  6  0  0  0
  8 10  1  0  0  0  0
 10  1  1  1  0  0  0
 10 12  1  0  0  0  0
 11 18  1  0  0  0  0
 12 14  1  0  0  0  0
 14  2  1  1  0  0  0
 14 16  1  0  0  0  0
 16  9  1  6  0  0  0
 17  9  1  1  0  0  0
 17 11  1  0  0  0  0
 17 22  1  0  0  0  0
 18 19  1  6  0  0  0
 18 20  1  0  0  0  0
 19  3  1  0  0  0  0
 20 13  1  1  0  0  0
 20 21  1  0  0  0  0
 21 15  1  1  0  0  0
 21 22  1  0  0  0  0
 22  6  1  1  0  0  0
M  END
>  <CHROM.1>
-51.45431106,125.63877759,-59.97108364,4.39992869,-12.15060205,25.20821646
1.74145402,0.91730368,-0.45241219

>  <Name>
2f4s_lig

>  <RI>
0

>  <Rbt.Current_Directory>
/home/itssahil/PROJECTS/Mol_Feturizer/New_Systems/rnas/2f4s

>  <Rbt.Executable>
rbdock ($Id: //depot/dev/client3/rdock/2013.1/src/exe/rbdock.cxx#4 $)

>  <Rbt.Library>
libRbt.so (2013.1, Build901 2013/11/27)

>  <Rbt.Parameter_File>
/export/apps/rDock/src/rDock_2013.1_src/data/scripts/dock_solv.prm

>  <Rbt.Receptor>
prm/blind_docking_80.prm

>  <SCORE>
-5.20426

>  <SCORE.INTER>
-11.1698

>  <SCORE.INTER.CONST>
1

>  <SCORE.INTER.POLAR>
-0.817535

>  <SCORE.INTER.ROT>
3

>  <SCORE.INTER.SOLV>
17.4971

>  <SCORE.INTER.VDW>
-16.1538

>  <SCORE.INTER.norm>
-0.50772

>  <SCORE.INTRA>
5.78572

>  <SCORE.INTRA.DIHEDRAL>
5.64824

>  <SCORE.INTRA.DIHEDRAL.0>
1.67653

>  <SCORE.INTRA.POLAR>
0

>  <SCORE.INTRA.POLAR.0>
0

>  <SCORE.INTRA.REPUL>
0

>  <SCORE.INTRA.REPUL.0>
0

>  <SCORE.INTRA.SOLV>
5.24408

>  <SCORE.INTRA.SOLV.lig_0>
-76.6701

>  <SCORE.INTRA.VDW>
0.339563

>  <SCORE.INTRA.VDW.0>
-1.53273

>  <SCORE.INTRA.norm>
0.262987

>  <SCORE.RESTR>
0.179852

>  <SCORE.RESTR.CAVITY>
0.179852

>  <SCORE.RESTR.norm>
0.0081751

>  <SCORE.SYSTEM>
0

>  <SCORE.SYSTEM.CONST>
0

>  <SCORE.SYSTEM.DIHEDRAL>
0

>  <SCORE.SYSTEM.SOLV>
0

>  <SCORE.SYSTEM.norm>
0

>  <SCORE.heavy>
22

>  <SCORE.norm>
-0.236557

>  <RMSD>
34.533

$$$$
2f4s_lig
 OpenBabel11021811433D
libRbt.so/2013.1/901 2013/11/27
 22 23  0  0  0  0  0  0  0  0999 V2000
    3.4827   -7.0396   23.0377 N   0  0  0  0  0  0  0  0  0  0  0  0
    1.8682  -11.7484   23.6677 N   0  0  0  0  0  0  0  0  0  0  0  0
   -0.9853  -12.2709   27.8883 N   0  0  0  0  0  0  0  0  0  0  0  0
    4.8471   -9.5920   27.0540 O   0  0  0  0  0  0  0  0  0  0  0  0
    4.5135   -9.7166   25.6412 C   0  0  2  0  0  0  0  0  0  0  0  0
    5.2166  -14.4111   26.8611 N   0  0  0  0  0  0  0  0  0  0  0  0
    5.2426   -7.4032   25.2194 O   0  0  0  0  0  0  0  0  0  0  0  0
    4.1573   -8.3233   25.0534 C   0  0  1  0  0  0  0  0  0  0  0  0
    3.6663  -12.0011   25.9094 O   0  0  0  0  0  0  0  0  0  0  0  0
    3.8317   -8.4140   23.5676 C   0  0  1  0  0  0  0  0  0  0  0  0
    2.7213  -11.8201   28.0116 O   0  0  0  0  0  0  0  0  0  0  0  0
    2.6356   -9.4017   23.3511 C   0  0  0  0  0  0  0  0  0  0  0  0
    0.3743  -14.6245   27.6760 O   0  0  0  0  0  0  0  0  0  0  0  0
    3.0422  -10.8144   23.9222 C   0  0  1  0  0  0  0  0  0  0  0  0
    2.8909  -15.9511   27.5446 O   0  0  0  0  0  0  0  0  0  0  0  0
    3.3047  -10.7129   25.4357 C   0  0  2  0  0  0  0  0  0  0  0  0
    3.9369  -12.2763   27.2724 C   0  0  1  0  0  0  0  0  0  0  0  0
    1.4398  -12.4971   27.6647 C   0  0  2  0  0  0  0  0  0  0  0  0
    0.3211  -11.8719   28.5036 C   0  0  0  0  0  0  0  0  0  0  0  0
    1.5760  -13.9658   27.9989 C   0  0  2  0  0  0  0  0  0  0  0  0
    2.7511  -14.5617   27.2257 C   0  0  1  0  0  0  0  0  0  0  0  0
    4.0502  -13.8064   27.5996 C   0  0  1  0  0  0  0  0  0  0  0  0
  5  4  1  1  0  0  0
  5  8  1  0  0  0  0
  5 16  1  0  0  0  0
  8  7  1  6  0  0  0
  8 10  1  0  0  0  0
 10  1  1  1  0  0  0
 10 12  1  0  0  0  0
 11 18  1  0  0  0  0
 12 14  1  0  0  0  0
 14  2  1  1  0  0  0
 14 16  1  0  0  0  0
 16  9  1  6  0  0  0
 17  9  1  6  0  0  0
 17 11  1  0  0  0  0
 17 22  1  0  0  0  0
 18 19  1  1  0  0  0
 18 20  1  0  0  0  0
 19  3  1  0  0  0  0
 20 13  1  6  0  0  0
 20 21  1  0  0  0  0
 21 15  1  1  0  0  0
 21 22  1  0  0  0  0
 22  6  1  6  0  0  0
M  END
>  <CHROM.1>
65.19780097,55.16435142,164.35811883,2.95236456,-11.52509004,26.21572963
1.26226265,0.04904280,-0.52923734

>  <Name>
2f4s_lig

>  <RI>
8.9913e+06

>  <Rbt.Current_Directory>
/home/itssahil/PROJECTS/Mol_Feturizer/New_Systems/rnas/2f4s

>  <Rbt.Executable>
rbdock ($Id: //depot/dev/client3/rdock/2013.1/src/exe/rbdock.cxx#4 $)

>  <Rbt.Library>
libRbt.so (2013.1, Build901 2013/11/27)

>  <Rbt.Parameter_File>
/export/apps/rDock/src/rDock_2013.1_src/data/scripts/dock_solv.prm

>  <Rbt.Receptor>
prm/blind_docking_40.prm

>  <SCORE>
-1.00469

>  <SCORE.INTER>
-1.47699

>  <SCORE.INTER.CONST>
1

>  <SCORE.INTER.POLAR>
-0.287112

>  <SCORE.INTER.ROT>
3

>  <SCORE.INTER.SOLV>
18.0449

>  <SCORE.INTER.VDW>
-11.6426

>  <SCORE.INTER.norm>
-0.067136

>  <SCORE.INTRA>
0.462504

>  <SCORE.INTRA.DIHEDRAL>
-0.448206

>  <SCORE.INTRA.DIHEDRAL.0>
1.67653

>  <SCORE.INTRA.POLAR>
0

>  <SCORE.INTRA.POLAR.0>
0

>  <SCORE.INTRA.REPUL>
0

>  <SCORE.INTRA.REPUL.0>
0

>  <SCORE.INTRA.SOLV>
0.718245

>  <SCORE.INTRA.SOLV.lig_0>
-76.6701

>  <SCORE.INTRA.VDW>
0.327484

>  <SCORE.INTRA.VDW.0>
-1.53273

>  <SCORE.INTRA.norm>
0.0210229

>  <SCORE.RESTR>
0.00979979

>  <SCORE.RESTR.CAVITY>
0.00979979

>  <SCORE.RESTR.norm>
0.000445445

>  <SCORE.SYSTEM>
0

>  <SCORE.SYSTEM.CONST>
0

>  <SCORE.SYSTEM.DIHEDRAL>
0

>  <SCORE.SYSTEM.SOLV>
0

>  <SCORE.SYSTEM.norm>
0

>  <SCORE.heavy>
22

>  <SCORE.norm>
-0.0456676

>  <RMSD>
34.563

$$$$
2f4s_lig
 OpenBabel11021811433D
libRbt.so/2013.1/901 2013/11/27
 22 23  0  0  0  0  0  0  0  0999 V2000
    3.4936  -17.5418   25.9442 N   0  0  0  0  0  0  0  0  0  0  0  0
    2.4542  -12.9820   24.1266 N   0  0  0  0  0  0  0  0  0  0  0  0
    4.3779   -8.2572   28.3525 N   0  0  0  0  0  0  0  0  0  0  0  0
    6.3995  -13.7072   27.1099 O   0  0  0  0  0  0  0  0  0  0  0  0
    5.0272  -14.0900   26.8047 C   0  0  2  0  0  0  0  0  0  0  0  0
    5.0601  -11.8354   22.8958 N   0  0  0  0  0  0  0  0  0  0  0  0
    5.4319  -16.3717   27.6363 O   0  0  0  0  0  0  0  0  0  0  0  0
    4.9510  -15.6152   26.5190 C   0  0  1  0  0  0  0  0  0  0  0  0
    4.4872  -11.8936   25.8599 O   0  0  0  0  0  0  0  0  0  0  0  0
    3.5219  -16.0545   26.2249 C   0  0  1  0  0  0  0  0  0  0  0  0
    3.9619   -9.6439   25.7690 O   0  0  0  0  0  0  0  0  0  0  0  0
    2.9695  -15.2570   24.9953 C   0  0  0  0  0  0  0  0  0  0  0  0
    7.4087   -8.4027   25.5147 O   0  0  0  0  0  0  0  0  0  0  0  0
    3.0237  -13.7171   25.3311 C   0  0  1  0  0  0  0  0  0  0  0  0
    7.1299   -9.8530   23.0797 O   0  0  0  0  0  0  0  0  0  0  0  0
    4.4821  -13.2813   25.5618 C   0  0  2  0  0  0  0  0  0  0  0  0
    3.9751  -10.9110   24.9773 C   0  0  1  0  0  0  0  0  0  0  0  0
    5.2801   -9.1565   26.2645 C   0  0  2  0  0  0  0  0  0  0  0  0
    5.0489   -7.8737   27.0691 C   0  0  0  0  0  0  0  0  0  0  0  0
    6.1560   -8.8634   25.0669 C   0  0  2  0  0  0  0  0  0  0  0  0
    6.3082  -10.1262   24.2207 C   0  0  1  0  0  0  0  0  0  0  0  0
    4.9114  -10.6067   23.7558 C   0  0  1  0  0  0  0  0  0  0  0  0
  5  4  1  6  0  0  0
  5  8  1  0  0  0  0
  5 16  1  0  0  0  0
  8  7  1  1  0  0  0
  8 10  1  0  0  0  0
 10  1  1  6  0  0  0
 10 12  1  0  0  0  0
 11 18  1  0  0  0  0
 12 14  1  0  0  0  0
 14  2  1  6  0  0  0
 14 16  1  0  0  0  0
 16  9  1  1  0  0  0
 17  9  1  1  0  0  0
 17 11  1  0  0  0  0
 17 22  1  0  0  0  0
 18 19  1  6  0  0  0
 18 20  1  0  0  0  0
 19  3  1  0  0  0  0
 20 13  1  1  0  0  0
 20 21  1  0  0  0  0
 21 15  1  6  0  0  0
 21 22  1  0  0  0  0
 22  6  1  1  0  0  0
M  END
>  <CHROM.1>
-175.83927507,170.54579367,71.25538720,4.85145509,-12.07070963,25.60746925
2.70600506,1.31083708,1.92184904

>  <Name>
2f4s_lig

>  <RI>
0

>  <Rbt.Current_Directory>
/home/itssahil/PROJECTS/Mol_Feturizer/New_Systems/rnas/2f4s

>  <Rbt.Executable>
rbdock ($Id: //depot/dev/client3/rdock/2013.1/src/exe/rbdock.cxx#4 $)

>  <Rbt.Library>
libRbt.so (2013.1, Build901 2013/11/27)

>  <Rbt.Parameter_File>
/export/apps/rDock/src/rDock_2013.1_src/data/scripts/dock_solv.prm

>  <Rbt.Receptor>
prm/blind_docking_60.prm

>  <SCORE>
23.29

>  <SCORE.INTER>
19.2382

>  <SCORE.INTER.CONST>
1

>  <SCORE.INTER.POLAR>
-1.36258

>  <SCORE.INTER.ROT>
3

>  <SCORE.INTER.SOLV>
18.3838

>  <SCORE.INTER.VDW>
5.63946

>  <SCORE.INTER.norm>
0.874463

>  <SCORE.INTRA>
2.35857

>  <SCORE.INTRA.DIHEDRAL>
-0.562998

>  <SCORE.INTRA.DIHEDRAL.0>
1.67653

>  <SCORE.INTRA.POLAR>
0

>  <SCORE.INTRA.POLAR.0>
0

>  <SCORE.INTRA.REPUL>
0

>  <SCORE.INTRA.REPUL.0>
0

>  <SCORE.INTRA.SOLV>
3.78897

>  <SCORE.INTRA.SOLV.lig_0>
-76.6701

>  <SCORE.INTRA.VDW>
0.745585

>  <SCORE.INTRA.VDW.0>
-1.53273

>  <SCORE.INTRA.norm>
0.107208

>  <SCORE.RESTR>
1.69328

>  <SCORE.RESTR.CAVITY>
1.69328

>  <SCORE.RESTR.norm>
0.0769674

>  <SCORE.SYSTEM>
0

>  <SCORE.SYSTEM.CONST>
0

>  <SCORE.SYSTEM.DIHEDRAL>
0

>  <SCORE.SYSTEM.SOLV>
0

>  <SCORE.SYSTEM.norm>
0

>  <SCORE.heavy>
22

>  <SCORE.norm>
1.05864

>  <RMSD>
34.602

$$$$
2f4s_lig
 OpenBabel11021811433D
libRbt.so/2013.1/901 2013/11/27
 22 23  0  0  0  0  0  0  0  0999 V2000
    4.5899   -7.2661   23.5801 N   0  0  0  0  0  0  0  0  0  0  0  0
    2.0658  -11.6002   23.7220 N   0  0  0  0  0  0  0  0  0  0  0  0
   -0.4224  -11.6695   28.2748 N   0  0  0  0  0  0  0  0  0  0  0  0
    4.8060  -10.1080   27.6278 O   0  0  0  0  0  0  0  0  0  0  0  0
    4.6858  -10.1399   26.1761 C   0  0  2  0  0  0  0  0  0  0  0  0
    5.3978  -14.3394   27.0327 N   0  0  0  0  0  0  0  0  0  0  0  0
    5.8818   -7.9963   25.9857 O   0  0  0  0  0  0  0  0  0  0  0  0
    4.6880   -8.6932   25.6099 C   0  0  1  0  0  0  0  0  0  0  0  0
    3.4052  -12.2299   26.1982 O   0  0  0  0  0  0  0  0  0  0  0  0
    4.5936   -8.6918   24.0890 C   0  0  1  0  0  0  0  0  0  0  0  0
    2.3474  -12.4684   28.2400 O   0  0  0  0  0  0  0  0  0  0  0  0
    3.2880   -9.4332   23.6430 C   0  0  0  0  0  0  0  0  0  0  0  0
    0.6861  -15.6584   27.4986 O   0  0  0  0  0  0  0  0  0  0  0  0
    3.3340  -10.9081   24.1995 C   0  0  1  0  0  0  0  0  0  0  0  0
    3.4346  -16.3997   27.4183 O   0  0  0  0  0  0  0  0  0  0  0  0
    3.3647  -10.8875   25.7386 C   0  0  2  0  0  0  0  0  0  0  0  0
    3.6660  -12.5784   27.5462 C   0  0  1  0  0  0  0  0  0  0  0  0
    1.2617  -13.3634   27.7488 C   0  0  2  0  0  0  0  0  0  0  0  0
   -0.0040  -13.0787   28.5633 C   0  0  0  0  0  0  0  0  0  0  0  0
    1.6990  -14.7958   27.9589 C   0  0  2  0  0  0  0  0  0  0  0  0
    3.0102  -15.0467   27.2161 C   0  0  1  0  0  0  0  0  0  0  0  0
    4.0948  -14.0747   27.7423 C   0  0  1  0  0  0  0  0  0  0  0  0
  5  4  1  1  0  0  0
  5  8  1  0  0  0  0
  5 16  1  0  0  0  0
  8  7  1  6  0  0  0
  8 10  1  0  0  0  0
 10  1  1  1  0  0  0
 10 12  1  0  0  0  0
 11 18  1  0  0  0  0
 12 14  1  0  0  0  0
 14  2  1  1  0  0  0
 14 16  1  0  0  0  0
 16  9  1  1  0  0  0
 17  9  1  6  0  0  0
 17 11  1  0  0  0  0
 17 22  1  0  0  0  0
 18 19  1  1  0  0  0
 18 20  1  0  0  0  0
 19  3  1  0  0  0  0
 20 13  1  6  0  0  0
 20 21  1  0  0  0  0
 21 15  1  1  0  0  0
 21 22  1  0  0  0  0
 22  6  1  6  0  0  0
M  END
>  <CHROM.1>
52.24344343,83.81999232,64.21116112,3.17715737,-11.90474436,26.47482194,1.19032878
0.09771705,-0.43496438

>  <Name>
2f4s_lig

>  <RI>
0

>  <Rbt.Current_Directory>
/home/itssahil/PROJECTS/Mol_Feturizer/New_Systems/rnas/2f4s

>  <Rbt.Executable>
rbdock ($Id: //depot/dev/client3/rdock/2013.1/src/exe/rbdock.cxx#4 $)

>  <Rbt.Library>
libRbt.so (2013.1, Build901 2013/11/27)

>  <Rbt.Parameter_File>
/export/apps/rDock/src/rDock_2013.1_src/data/scripts/dock_solv.prm

>  <Rbt.Receptor>
prm/blind_docking_80.prm

>  <SCORE>
-3.98343

>  <SCORE.INTER>
-5.68584

>  <SCORE.INTER.CONST>
1

>  <SCORE.INTER.POLAR>
-1.05107

>  <SCORE.INTER.ROT>
3

>  <SCORE.INTER.SOLV>
19.058

>  <SCORE.INTER.VDW>
-12.2397

>  <SCORE.INTER.norm>
-0.258447

>  <SCORE.INTRA>
1.21323

>  <SCORE.INTRA.DIHEDRAL>
1.21537

>  <SCORE.INTRA.DIHEDRAL.0>
1.67653

>  <SCORE.INTRA.POLAR>
0

>  <SCORE.INTRA.POLAR.0>
0

>  <SCORE.INTRA.REPUL>
0

>  <SCORE.INTRA.REPUL.0>
0

>  <SCORE.INTRA.SOLV>
-0.352118

>  <SCORE.INTRA.SOLV.lig_0>
-76.6701

>  <SCORE.INTRA.VDW>
0.781603

>  <SCORE.INTRA.VDW.0>
-1.53273

>  <SCORE.INTRA.norm>
0.0551468

>  <SCORE.RESTR>
0.489178

>  <SCORE.RESTR.CAVITY>
0.489178

>  <SCORE.RESTR.norm>
0.0222353

>  <SCORE.SYSTEM>
0

>  <SCORE.SYSTEM.CONST>
0

>  <SCORE.SYSTEM.DIHEDRAL>
0

>  <SCORE.SYSTEM.SOLV>
0

>  <SCORE.SYSTEM.norm>
0

>  <SCORE.heavy>
22

>  <SCORE.norm>
-0.181065

>  <RMSD>
34.640

$$$$
2f4s_lig
 OpenBabel11021811433D
libRbt.so/2013.1/901 2013/11/27
 22 23  0  0  0  0  0  0  0  0999 V2000
    0.4569  -14.9975   27.1712 N   0  0  0  0  0  0  0  0  0  0  0  0
    1.8386  -11.8459   23.5197 N   0  0  0  0  0  0  0  0  0  0  0  0
    7.8221   -9.1399   21.8844 N   0  0  0  0  0  0  0  0  0  0  0  0
    5.2425  -13.8892   26.5576 O   0  0  0  0  0  0  0  0  0  0  0  0
    3.8903  -13.3599   26.4383 C   0  0  2  0  0  0  0  0  0  0  0  0
    2.5120   -9.8990   25.7881 N   0  0  0  0  0  0  0  0  0  0  0  0
    3.0895  -14.8884   28.1944 O   0  0  0  0  0  0  0  0  0  0  0  0
    2.8563  -14.4427   26.8531 C   0  0  1  0  0  0  0  0  0  0  0  0
    4.5066  -11.8398   24.6167 O   0  0  0  0  0  0  0  0  0  0  0  0
    1.4308  -13.9110   26.7681 C   0  0  1  0  0  0  0  0  0  0  0  0
    6.1904  -10.3127   25.0386 O   0  0  0  0  0  0  0  0  0  0  0  0
    1.1360  -13.4292   25.3073 C   0  0  0  0  0  0  0  0  0  0  0  0
    5.3983   -8.0198   22.2816 O   0  0  0  0  0  0  0  0  0  0  0  0
    2.1760  -12.3050   24.9306 C   0  0  1  0  0  0  0  0  0  0  0  0
    3.0720   -7.8001   23.9096 O   0  0  0  0  0  0  0  0  0  0  0  0
    3.6039  -12.8797   24.9607 C   0  0  2  0  0  0  0  0  0  0  0  0
    4.8542  -10.7922   25.5046 C   0  0  1  0  0  0  0  0  0  0  0  0
    6.2538   -9.7650   23.6541 C   0  0  2  0  0  0  0  0  0  0  0  0
    7.7015   -9.3591   23.3615 C   0  0  0  0  0  0  0  0  0  0  0  0
    5.3537   -8.5516   23.5844 C   0  0  2  0  0  0  0  0  0  0  0  0
    3.9281   -8.9471   23.9652 C   0  0  1  0  0  0  0  0  0  0  0  0
    3.9215   -9.5353   25.3977 C   0  0  1  0  0  0  0  0  0  0  0  0
  5  4  1  6  0  0  0
  5  8  1  0  0  0  0
  5 16  1  0  0  0  0
  8  7  1  1  0  0  0
  8 10  1  0  0  0  0
 10  1  1  6  0  0  0
 10 12  1  0  0  0  0
 11 18  1  0  0  0  0
 12 14  1  0  0  0  0
 14  2  1  6  0  0  0
 14 16  1  0  0  0  0
 16  9  1  1  0  0  0
 17  9  1  6  0  0  0
 17 11  1  0  0  0  0
 17 22  1  0  0  0  0
 18 19  1  1  0  0  0
 18 20  1  0  0  0  0
 19  3  1  0  0  0  0
 20 13  1  6  0  0  0
 20 21  1  0  0  0  0
 21 15  1  1  0  0  0
 21 22  1  0  0  0  0
 22  6  1  6  0  0  0
M  END
>  <CHROM.1>
-41.83900306,155.65765411,166.03541761,3.99353326,-11.34766348,24.98310258
2.10063394,-0.06347997,2.59893630

>  <Name>
2f4s_lig

>  <RI>
8.9913e+06

>  <Rbt.Current_Directory>
/home/itssahil/PROJECTS/Mol_Feturizer/New_Systems/rnas/2f4s

>  <Rbt.Executable>
rbdock ($Id: //depot/dev/client3/rdock/2013.1/src/exe/rbdock.cxx#4 $)

>  <Rbt.Library>
libRbt.so (2013.1, Build901 2013/11/27)

>  <Rbt.Parameter_File>
/export/apps/rDock/src/rDock_2013.1_src/data/scripts/dock_solv.prm

>  <Rbt.Receptor>
prm/blind_docking_40.prm

>  <SCORE>
-0.416965

>  <SCORE.INTER>
-6.78539

>  <SCORE.INTER.CONST>
1

>  <SCORE.INTER.POLAR>
-0.735516

>  <SCORE.INTER.ROT>
3

>  <SCORE.INTER.SOLV>
12.1736

>  <SCORE.INTER.VDW>
-11.7297

>  <SCORE.INTER.norm>
-0.308427

>  <SCORE.INTRA>
6.31047

>  <SCORE.INTRA.DIHEDRAL>
3.10862

>  <SCORE.INTRA.DIHEDRAL.0>
1.67653

>  <SCORE.INTRA.POLAR>
0

>  <SCORE.INTRA.POLAR.0>
0

>  <SCORE.INTRA.REPUL>
0

>  <SCORE.INTRA.REPUL.0>
0

>  <SCORE.INTRA.SOLV>
6.36007

>  <SCORE.INTRA.SOLV.lig_0>
-76.6701

>  <SCORE.INTRA.VDW>
1.57612

>  <SCORE.INTRA.VDW.0>
-1.53273

>  <SCORE.INTRA.norm>
0.286839

>  <SCORE.RESTR>
0.0579572

>  <SCORE.RESTR.CAVITY>
0.0579572

>  <SCORE.RESTR.norm>
0.00263442

>  <SCORE.SYSTEM>
0

>  <SCORE.SYSTEM.CONST>
0

>  <SCORE.SYSTEM.DIHEDRAL>
0

>  <SCORE.SYSTEM.SOLV>
0

>  <SCORE.SYSTEM.norm>
0

>  <SCORE.heavy>
22

>  <SCORE.norm>
-0.0189529

>  <RMSD>
34.679

$$$$
2f4s_lig
 OpenBabel11021811433D
libRbt.so/2013.1/901 2013/11/27
 22 23  0  0  0  0  0  0  0  0999 V2000
    3.2493   -6.5218   25.0634 N   0  0  0  0  0  0  0  0  0  0  0  0
    2.4212  -11.1908   23.4229 N   0  0  0  0  0  0  0  0  0  0  0  0
    5.6806  -16.7156   24.0692 N   0  0  0  0  0  0  0  0  0  0  0  0
    4.7500  -10.3841   27.7722 O   0  0  0  0  0  0  0  0  0  0  0  0
    4.5401   -9.9179   26.4079 C   0  0  2  0  0  0  0  0  0  0  0  0
    1.5320  -13.3264   26.7134 N   0  0  0  0  0  0  0  0  0  0  0  0
    4.8917   -7.5828   27.1045 O   0  0  0  0  0  0  0  0  0  0  0  0
    3.9930   -8.4639   26.4204 C   0  0  1  0  0  0  0  0  0  0  0  0
    4.0781  -12.1746   25.5697 O   0  0  0  0  0  0  0  0  0  0  0  0
    3.7902   -7.9345   25.0060 C   0  0  1  0  0  0  0  0  0  0  0  0
    4.4478  -14.1728   24.4672 O   0  0  0  0  0  0  0  0  0  0  0  0
    2.7975   -8.8674   24.2331 C   0  0  0  0  0  0  0  0  0  0  0  0
    5.5352  -16.0937   27.4020 O   0  0  0  0  0  0  0  0  0  0  0  0
    3.3987  -10.3251   24.2042 C   0  0  1  0  0  0  0  0  0  0  0  0
    2.8265  -15.5086   28.0588 O   0  0  0  0  0  0  0  0  0  0  0  0
    3.5357  -10.8648   25.6395 C   0  0  2  0  0  0  0  0  0  0  0  0
    3.3834  -13.2701   25.0007 C   0  0  1  0  0  0  0  0  0  0  0  0
    5.4122  -14.7226   25.4614 C   0  0  2  0  0  0  0  0  0  0  0  0
    6.4303  -15.5917   24.7166 C   0  0  0  0  0  0  0  0  0  0  0  0
    4.6406  -15.5659   26.4517 C   0  0  2  0  0  0  0  0  0  0  0  0
    3.5670  -14.7133   27.1256 C   0  0  1  0  0  0  0  0  0  0  0  0
    2.6101  -14.1439   26.0494 C   0  0  1  0  0  0  0  0  0  0  0  0
  5  4  1  1  0  0  0
  5  8  1  0  0  0  0
  5 16  1  0  0  0  0
  8  7  1  6  0  0  0
  8 10  1  0  0  0  0
 10  1  1  1  0  0  0
 10 12  1  0  0  0  0
 11 18  1  0  0  0  0
 12 14  1  0  0  0  0
 14  2  1  6  0  0  0
 14 16  1  0  0  0  0
 16  9  1  6  0  0  0
 17  9  1  1  0  0  0
 17 11  1  0  0  0  0
 17 22  1  0  0  0  0
 18 19  1  6  0  0  0
 18 20  1  0  0  0  0
 19  3  1  0  0  0  0
 20 13  1  1  0  0  0
 20 21  1  0  0  0  0
 21 15  1  1  0  0  0
 21 22  1  0  0  0  0
 22  6  1  1  0  0  0
M  END
>  <CHROM.1>
176.67061953,150.61457583,-61.54786184,3.99785187,-12.20836484,25.78039562
3.00231199,-1.44386111,1.37304674

>  <Name>
2f4s_lig

>  <RI>
0

>  <Rbt.Current_Directory>
/home/itssahil/PROJECTS/Mol_Feturizer/New_Systems/rnas/2f4s

>  <Rbt.Executable>
rbdock ($Id: //depot/dev/client3/rdock/2013.1/src/exe/rbdock.cxx#4 $)

>  <Rbt.Library>
libRbt.so (2013.1, Build901 2013/11/27)

>  <Rbt.Parameter_File>
/export/apps/rDock/src/rDock_2013.1_src/data/scripts/dock_solv.prm

>  <Rbt.Receptor>
prm/blind_docking_80.prm

>  <SCORE>
-0.435264

>  <SCORE.INTER>
-5.33224

>  <SCORE.INTER.CONST>
1

>  <SCORE.INTER.POLAR>
-0.786163

>  <SCORE.INTER.ROT>
3

>  <SCORE.INTER.SOLV>
15.3188

>  <SCORE.INTER.VDW>
-11.6405

>  <SCORE.INTER.norm>
-0.242375

>  <SCORE.INTRA>
3.4454

>  <SCORE.INTRA.DIHEDRAL>
1.91568

>  <SCORE.INTRA.DIHEDRAL.0>
1.67653

>  <SCORE.INTRA.POLAR>
0

>  <SCORE.INTRA.POLAR.0>
0

>  <SCORE.INTRA.REPUL>
0

>  <SCORE.INTRA.REPUL.0>
0

>  <SCORE.INTRA.SOLV>
3.66592

>  <SCORE.INTRA.SOLV.lig_0>
-76.6701

>  <SCORE.INTRA.VDW>
0.654592

>  <SCORE.INTRA.VDW.0>
-1.53273

>  <SCORE.INTRA.norm>
0.156609

>  <SCORE.RESTR>
1.45158

>  <SCORE.RESTR.CAVITY>
1.45158

>  <SCORE.RESTR.norm>
0.065981

>  <SCORE.SYSTEM>
0

>  <SCORE.SYSTEM.CONST>
0

>  <SCORE.SYSTEM.DIHEDRAL>
0

>  <SCORE.SYSTEM.SOLV>
0

>  <SCORE.SYSTEM.norm>
0

>  <SCORE.heavy>
22

>  <SCORE.norm>
-0.0197847

>  <RMSD>
34.680

$$$$
2f4s_lig
 OpenBabel11021811433D
libRbt.so/2013.1/901 2013/11/27
 22 23  0  0  0  0  0  0  0  0999 V2000
    1.8742  -16.1022   27.0232 N   0  0  0  0  0  0  0  0  0  0  0  0
    1.9463  -12.1095   23.9853 N   0  0  0  0  0  0  0  0  0  0  0  0
    7.3880   -8.3954   21.7260 N   0  0  0  0  0  0  0  0  0  0  0  0
    6.2043  -14.2293   25.5235 O   0  0  0  0  0  0  0  0  0  0  0  0
    4.8320  -13.8826   25.8690 C   0  0  2  0  0  0  0  0  0  0  0  0
    2.9188  -10.4119   26.1480 N   0  0  0  0  0  0  0  0  0  0  0  0
    4.6677  -15.8344   27.3606 O   0  0  0  0  0  0  0  0  0  0  0  0
    4.0425  -15.1618   26.2612 C   0  0  1  0  0  0  0  0  0  0  0  0
    4.8023  -11.9516   24.3594 O   0  0  0  0  0  0  0  0  0  0  0  0
    2.6090  -14.8301   26.6577 C   0  0  1  0  0  0  0  0  0  0  0  0
    6.4358  -10.3685   24.7724 O   0  0  0  0  0  0  0  0  0  0  0  0
    1.8892  -14.1069   25.4695 C   0  0  0  0  0  0  0  0  0  0  0  0
    5.0490   -7.7401   22.6151 O   0  0  0  0  0  0  0  0  0  0  0  0
    2.6915  -12.7946   25.1214 C   0  0  1  0  0  0  0  0  0  0  0  0
    3.0225   -7.9953   24.5997 O   0  0  0  0  0  0  0  0  0  0  0  0
    4.1158  -13.1564   24.6626 C   0  0  2  0  0  0  0  0  0  0  0  0
    5.2298  -11.0345   25.3508 C   0  0  1  0  0  0  0  0  0  0  0  0
    6.2303   -9.6007   23.5118 C   0  0  2  0  0  0  0  0  0  0  0  0
    7.5798   -9.0251   23.0718 C   0  0  0  0  0  0  0  0  0  0  0  0
    5.2583   -8.4774   23.7961 C   0  0  2  0  0  0  0  0  0  0  0  0
    3.9447   -9.0550   24.3201 C   0  0  1  0  0  0  0  0  0  0  0  0
    4.2168   -9.8653   25.6115 C   0  0  1  0  0  0  0  0  0  0  0  0
  5  4  1  6  0  0  0
  5  8  1  0  0  0  0
  5 16  1  0  0  0  0
  8  7  1  1  0  0  0
  8 10  1  0  0  0  0
 10  1  1  6  0  0  0
 10 12  1  0  0  0  0
 11 18  1  0  0  0  0
 12 14  1  0  0  0  0
 14  2  1  6  0  0  0
 14 16  1  0  0  0  0
 16  9  1  1  0  0  0
 17  9  1  6  0  0  0
 17 11  1  0  0  0  0
 17 22  1  0  0  0  0
 18 19  1  1  0  0  0
 18 20  1  0  0  0  0
 19  3  1  0  0  0  0
 20 13  1  6  0  0  0
 20 21  1  0  0  0  0
 21 15  1  1  0  0  0
 21 22  1  0  0  0  0
 22  6  1  6  0  0  0
M  END
>  <CHROM.1>
-45.23934228,151.21185029,173.47907377,4.43369339,-11.62648498,24.89269783
1.90579084,-0.21174303,2.77207461

>  <Name>
2f4s_lig

>  <RI>
0

>  <Rbt.Current_Directory>
/home/itssahil/PROJECTS/Mol_Feturizer/New_Systems/rnas/2f4s

>  <Rbt.Executable>
rbdock ($Id: //depot/dev/client3/rdock/2013.1/src/exe/rbdock.cxx#4 $)

>  <Rbt.Library>
libRbt.so (2013.1, Build901 2013/11/27)

>  <Rbt.Parameter_File>
/export/apps/rDock/src/rDock_2013.1_src/data/scripts/dock_solv.prm

>  <Rbt.Receptor>
prm/blind_docking_80.prm

>  <SCORE>
-0.405635

>  <SCORE.INTER>
-6.73052

>  <SCORE.INTER.CONST>
1

>  <SCORE.INTER.POLAR>
-0.62838

>  <SCORE.INTER.ROT>
3

>  <SCORE.INTER.SOLV>
12.0791

>  <SCORE.INTER.VDW>
-12.0188

>  <SCORE.INTER.norm>
-0.305933

>  <SCORE.INTRA>
6.2854

>  <SCORE.INTRA.DIHEDRAL>
2.90627

>  <SCORE.INTRA.DIHEDRAL.0>
1.67653

>  <SCORE.INTRA.POLAR>
0

>  <SCORE.INTRA.POLAR.0>
0

>  <SCORE.INTRA.REPUL>
0

>  <SCORE.INTRA.REPUL.0>
0

>  <SCORE.INTRA.SOLV>
6.4042

>  <SCORE.INTRA.SOLV.lig_0>
-76.6701

>  <SCORE.INTRA.VDW>
1.63017

>  <SCORE.INTRA.VDW.0>
-1.53273

>  <SCORE.INTRA.norm>
0.2857

>  <SCORE.RESTR>
0.0394873

>  <SCORE.RESTR.CAVITY>
0.0394873

>  <SCORE.RESTR.norm>
0.00179488

>  <SCORE.SYSTEM>
0

>  <SCORE.SYSTEM.CONST>
0

>  <SCORE.SYSTEM.DIHEDRAL>
0

>  <SCORE.SYSTEM.SOLV>
0

>  <SCORE.SYSTEM.norm>
0

>  <SCORE.heavy>
22

>  <SCORE.norm>
-0.018438

>  <RMSD>
34.682

$$$$
2f4s_lig
 OpenBabel11021811433D
libRbt.so/2013.1/901 2013/11/27
 22 23  0  0  0  0  0  0  0  0999 V2000
    0.1588  -14.8499   26.9815 N   0  0  0  0  0  0  0  0  0  0  0  0
    1.6787  -11.6204   23.4550 N   0  0  0  0  0  0  0  0  0  0  0  0
    8.2430   -8.7823   24.2952 N   0  0  0  0  0  0  0  0  0  0  0  0
    4.9974  -14.0925   26.2596 O   0  0  0  0  0  0  0  0  0  0  0  0
    3.6896  -13.4518   26.2158 C   0  0  2  0  0  0  0  0  0  0  0  0
    2.6357   -9.9443   25.9839 N   0  0  0  0  0  0  0  0  0  0  0  0
    2.8218  -15.0069   27.9159 O   0  0  0  0  0  0  0  0  0  0  0  0
    2.5844  -14.4704   26.6091 C   0  0  1  0  0  0  0  0  0  0  0  0
    4.3709  -11.8868   24.4565 O   0  0  0  0  0  0  0  0  0  0  0  0
    1.2048  -13.8234   26.6023 C   0  0  1  0  0  0  0  0  0  0  0  0
    6.1941  -10.5232   24.8585 O   0  0  0  0  0  0  0  0  0  0  0  0
    0.9053  -13.2396   25.1801 C   0  0  0  0  0  0  0  0  0  0  0  0
    5.3388   -7.9217   22.4118 O   0  0  0  0  0  0  0  0  0  0  0  0
    2.0209  -12.1824   24.8270 C   0  0  1  0  0  0  0  0  0  0  0  0
    3.1855   -7.7113   24.2636 O   0  0  0  0  0  0  0  0  0  0  0  0
    3.3978  -12.8693   24.7766 C   0  0  2  0  0  0  0  0  0  0  0  0
    4.8714  -10.9573   25.4011 C   0  0  1  0  0  0  0  0  0  0  0  0
    6.1777   -9.8466   23.5308 C   0  0  2  0  0  0  0  0  0  0  0  0
    7.6208   -9.5100   23.1429 C   0  0  0  0  0  0  0  0  0  0  0  0
    5.3680   -8.5756   23.6582 C   0  0  2  0  0  0  0  0  0  0  0  0
    3.9552   -8.9121   24.1324 C   0  0  1  0  0  0  0  0  0  0  0  0
    4.0292   -9.6373   25.4987 C   0  0  1  0  0  0  0  0  0  0  0  0
  5  4  1  6  0  0  0
  5  8  1  0  0  0  0
  5 16  1  0  0  0  0
  8  7  1  1  0  0  0
  8 10  1  0  0  0  0
 10  1  1  6  0  0  0
 10 12  1  0  0  0  0
 11 18  1  0  0  0  0
 12 14  1  0  0  0  0
 14  2  1  6  0  0  0
 14 16  1  0  0  0  0
 16  9  1  1  0  0  0
 17  9  1  6  0  0  0
 17 11  1  0  0  0  0
 17 22  1  0  0  0  0
 18 19  1  1  0  0  0
 18 20  1  0  0  0  0
 19  3  1  0  0  0  0
 20 13  1  6  0  0  0
 20 21  1  0  0  0  0
 21 15  1  1  0  0  0
 21 22  1  0  0  0  0
 22  6  1  6  0  0  0
M  END
>  <CHROM.1>
-39.05481428,157.52898529,-51.35067507,3.91219201,-11.34513953,25.01757728
2.16282166,-0.00426923,2.66057591

>  <Name>
2f4s_lig

>  <RI>
8.9913e+06

>  <Rbt.Current_Directory>
/home/itssahil/PROJECTS/Mol_Feturizer/New_Systems/rnas/2f4s

>  <Rbt.Executable>
rbdock ($Id: //depot/dev/client3/rdock/2013.1/src/exe/rbdock.cxx#4 $)

>  <Rbt.Library>
libRbt.so (2013.1, Build901 2013/11/27)

>  <Rbt.Parameter_File>
/export/apps/rDock/src/rDock_2013.1_src/data/scripts/dock_solv.prm

>  <Rbt.Receptor>
prm/blind_docking_40.prm

>  <SCORE>
0.333686

>  <SCORE.INTER>
-6.19581

>  <SCORE.INTER.CONST>
1

>  <SCORE.INTER.POLAR>
-0.85634

>  <SCORE.INTER.ROT>
3

>  <SCORE.INTER.SOLV>
15.5374

>  <SCORE.INTER.VDW>
-12.0552

>  <SCORE.INTER.norm>
-0.281628

>  <SCORE.INTRA>
6.28013

>  <SCORE.INTRA.DIHEDRAL>
2.83751

>  <SCORE.INTRA.DIHEDRAL.0>
1.67653

>  <SCORE.INTRA.POLAR>
0

>  <SCORE.INTRA.POLAR.0>
0

>  <SCORE.INTRA.REPUL>
0

>  <SCORE.INTRA.REPUL.0>
0

>  <SCORE.INTRA.SOLV>
6.8928

>  <SCORE.INTRA.SOLV.lig_0>
-76.6701

>  <SCORE.INTRA.VDW>
1.41498

>  <SCORE.INTRA.VDW.0>
-1.53273

>  <SCORE.INTRA.norm>
0.285461

>  <SCORE.RESTR>
0.249364

>  <SCORE.RESTR.CAVITY>
0.249364

>  <SCORE.RESTR.norm>
0.0113347

>  <SCORE.SYSTEM>
0

>  <SCORE.SYSTEM.CONST>
0

>  <SCORE.SYSTEM.DIHEDRAL>
0

>  <SCORE.SYSTEM.SOLV>
0

>  <SCORE.SYSTEM.norm>
0

>  <SCORE.heavy>
22

>  <SCORE.norm>
0.0151675

>  <RMSD>
34.699

$$$$
2f4s_lig
 OpenBabel11021811433D
libRbt.so/2013.1/901 2013/11/27
 22 23  0  0  0  0  0  0  0  0999 V2000
    2.9320  -16.5181   27.9563 N   0  0  0  0  0  0  0  0  0  0  0  0
    5.6414  -13.6532   24.8535 N   0  0  0  0  0  0  0  0  0  0  0  0
    4.7625   -9.5671   28.4908 N   0  0  0  0  0  0  0  0  0  0  0  0
    1.4425  -11.9095   26.9318 O   0  0  0  0  0  0  0  0  0  0  0  0
    2.1274  -13.0716   26.3810 C   0  0  2  0  0  0  0  0  0  0  0  0
    2.3947  -10.2324   22.4984 N   0  0  0  0  0  0  0  0  0  0  0  0
    0.8826  -14.5729   27.8837 O   0  0  0  0  0  0  0  0  0  0  0  0
    2.1946  -14.2030   27.4435 C   0  0  1  0  0  0  0  0  0  0  0  0
    3.5102  -11.7093   24.8840 O   0  0  0  0  0  0  0  0  0  0  0  0
    2.8798  -15.4459   26.8888 C   0  0  1  0  0  0  0  0  0  0  0  0
    3.2399   -9.7960   26.1533 O   0  0  0  0  0  0  0  0  0  0  0  0
    4.3263  -15.0801   26.4124 C   0  0  0  0  0  0  0  0  0  0  0  0
    6.1051   -7.9550   24.7795 O   0  0  0  0  0  0  0  0  0  0  0  0
    4.2219  -13.9588   25.3083 C   0  0  1  0  0  0  0  0  0  0  0  0
    4.4168   -8.1931   22.4984 O   0  0  0  0  0  0  0  0  0  0  0  0
    3.5854  -12.6910   25.9064 C   0  0  2  0  0  0  0  0  0  0  0  0
    2.7008  -10.5509   24.9821 C   0  0  1  0  0  0  0  0  0  0  0  0
    4.6570   -9.3446   26.0574 C   0  0  2  0  0  0  0  0  0  0  0  0
    5.0224   -8.6221   27.3577 C   0  0  0  0  0  0  0  0  0  0  0  0
    4.7712   -8.3920   24.8883 C   0  0  2  0  0  0  0  0  0  0  0  0
    4.3193   -9.0930   23.6085 C   0  0  1  0  0  0  0  0  0  0  0  0
    2.8538   -9.5666   23.7701 C   0  0  1  0  0  0  0  0  0  0  0  0
  5  4  1  1  0  0  0
  5  8  1  0  0  0  0
  5 16  1  0  0  0  0
  8  7  1  6  0  0  0
  8 10  1  0  0  0  0
 10  1  1  1  0  0  0
 10 12  1  0  0  0  0
 11 18  1  0  0  0  0
 12 14  1  0  0  0  0
 14  2  1  1  0  0  0
 14 16  1  0  0  0  0
 16  9  1  6  0  0  0
 17  9  1  6  0  0  0
 17 11  1  0  0  0  0
 17 22  1  0  0  0  0
 18 19  1  1  0  0  0
 18 20  1  0  0  0  0
 19  3  1  0  0  0  0
 20 13  1  6  0  0  0
 20 21  1  0  0  0  0
 21 15  1  6  0  0  0
 21 22  1  0  0  0  0
 22  6  1  6  0  0  0
M  END
>  <CHROM.1>
47.49518622,62.21505481,56.42389816,3.58306240,-11.51544050,25.72302340,-2.44651094
-1.22422921,-1.25271458

>  <Name>
2f4s_lig

>  <RI>
8.9913e+06

>  <Rbt.Current_Directory>
/home/itssahil/PROJECTS/Mol_Feturizer/New_Systems/rnas/2f4s

>  <Rbt.Executable>
rbdock ($Id: //depot/dev/client3/rdock/2013.1/src/exe/rbdock.cxx#4 $)

>  <Rbt.Library>
libRbt.so (2013.1, Build901 2013/11/27)

>  <Rbt.Parameter_File>
/export/apps/rDock/src/rDock_2013.1_src/data/scripts/dock_solv.prm

>  <Rbt.Receptor>
prm/blind_docking_40.prm

>  <SCORE>
-3.60232

>  <SCORE.INTER>
-4.17874

>  <SCORE.INTER.CONST>
1

>  <SCORE.INTER.POLAR>
-1.0662

>  <SCORE.INTER.ROT>
3

>  <SCORE.INTER.SOLV>
20.6683

>  <SCORE.INTER.VDW>
-11.7213

>  <SCORE.INTER.norm>
-0.189943

>  <SCORE.INTRA>
0.556344

>  <SCORE.INTRA.DIHEDRAL>
-0.711059

>  <SCORE.INTRA.DIHEDRAL.0>
1.67653

>  <SCORE.INTRA.POLAR>
0

>  <SCORE.INTRA.POLAR.0>
0

>  <SCORE.INTRA.REPUL>
0

>  <SCORE.INTRA.REPUL.0>
0

>  <SCORE.INTRA.SOLV>
-0.156768

>  <SCORE.INTRA.SOLV.lig_0>
-76.6701

>  <SCORE.INTRA.VDW>
0.990257

>  <SCORE.INTRA.VDW.0>
-1.53273

>  <SCORE.INTRA.norm>
0.0252883

>  <SCORE.RESTR>
0.0200731

>  <SCORE.RESTR.CAVITY>
0.0200731

>  <SCORE.RESTR.norm>
0.000912412

>  <SCORE.SYSTEM>
0

>  <SCORE.SYSTEM.CONST>
0

>  <SCORE.SYSTEM.DIHEDRAL>
0

>  <SCORE.SYSTEM.SOLV>
0

>  <SCORE.SYSTEM.norm>
0

>  <SCORE.heavy>
22

>  <SCORE.norm>
-0.163742

>  <RMSD>
34.709

$$$$
2f4s_lig
 OpenBabel11021811433D
libRbt.so/2013.1/901 2013/11/27
 22 23  0  0  0  0  0  0  0  0999 V2000
    6.6883   -7.8416   24.0748 N   0  0  0  0  0  0  0  0  0  0  0  0
    3.7499   -9.6659   27.7098 N   0  0  0  0  0  0  0  0  0  0  0  0
    5.6302  -16.6684   27.2985 N   0  0  0  0  0  0  0  0  0  0  0  0
    5.4219  -12.6272   24.0457 O   0  0  0  0  0  0  0  0  0  0  0  0
    4.9612  -11.2932   24.4076 C   0  0  2  0  0  0  0  0  0  0  0  0
    0.5844  -12.6127   25.9288 N   0  0  0  0  0  0  0  0  0  0  0  0
    6.3930  -10.2815   22.6790 O   0  0  0  0  0  0  0  0  0  0  0  0
    6.0549  -10.2426   24.0704 C   0  0  1  0  0  0  0  0  0  0  0  0
    3.5504  -12.1329   26.2278 O   0  0  0  0  0  0  0  0  0  0  0  0
    5.5925   -8.8309   24.4098 C   0  0  1  0  0  0  0  0  0  0  0  0
    3.9504  -14.1225   25.1204 O   0  0  0  0  0  0  0  0  0  0  0  0
    5.2298   -8.7483   25.9311 C   0  0  0  0  0  0  0  0  0  0  0  0
    3.0860  -16.3523   27.9072 O   0  0  0  0  0  0  0  0  0  0  0  0
    4.0919   -9.7975   26.2330 C   0  0  1  0  0  0  0  0  0  0  0  0
    0.5867  -15.0989   27.3663 O   0  0  0  0  0  0  0  0  0  0  0  0
    4.6009  -11.2215   25.9441 C   0  0  2  0  0  0  0  0  0  0  0  0
    2.9851  -12.9897   25.2517 C   0  0  1  0  0  0  0  0  0  0  0  0
    4.1897  -14.9367   26.3454 C   0  0  2  0  0  0  0  0  0  0  0  0
    5.2218  -16.0184   26.0121 C   0  0  0  0  0  0  0  0  0  0  0  0
    2.8812  -15.5790   26.7487 C   0  0  2  0  0  0  0  0  0  0  0  0
    1.8312  -14.4965   26.9924 C   0  0  1  0  0  0  0  0  0  0  0  0
    1.6412  -13.6628   25.7013 C   0  0  1  0  0  0  0  0  0  0  0  0
  5  4  1  1  0  0  0
  5  8  1  0  0  0  0
  5 16  1  0  0  0  0
  8  7  1  6  0  0  0
  8 10  1  0  0  0  0
 10  1  1  1  0  0  0
 10 12  1  0  0  0  0
 11 18  1  0  0  0  0
 12 14  1  0  0  0  0
 14  2  1  1  0  0  0
 14 16  1  0  0  0  0
 16  9  1  6  0  0  0
 17  9  1  1  0  0  0
 17 11  1  0  0  0  0
 17 22  1  0  0  0  0
 18 19  1  6  0  0  0
 18 20  1  0  0  0  0
 19  3  1  0  0  0  0
 20 13  1  1  0  0  0
 20 21  1  0  0  0  0
 21 15  1  6  0  0  0
 21 22  1  0  0  0  0
 22  6  1  1  0  0  0
M  END
>  <CHROM.1>
2.24164484,79.19718918,170.19878109,4.03903107,-12.55223821,25.74281359,-1.10132261
-0.46822525,2.99643537

>  <Name>
2f4s_lig

>  <RI>
8.9913e+06

>  <Rbt.Current_Directory>
/home/itssahil/PROJECTS/Mol_Feturizer/New_Systems/rnas/2f4s

>  <Rbt.Executable>
rbdock ($Id: //depot/dev/client3/rdock/2013.1/src/exe/rbdock.cxx#4 $)

>  <Rbt.Library>
libRbt.so (2013.1, Build901 2013/11/27)

>  <Rbt.Parameter_File>
/export/apps/rDock/src/rDock_2013.1_src/data/scripts/dock_solv.prm

>  <Rbt.Receptor>
prm/blind_docking_40.prm

>  <SCORE>
-0.671151

>  <SCORE.INTER>
-8.59435

>  <SCORE.INTER.CONST>
1

>  <SCORE.INTER.POLAR>
-1.63771

>  <SCORE.INTER.ROT>
3

>  <SCORE.INTER.SOLV>
19.4582

>  <SCORE.INTER.VDW>
-12.3566

>  <SCORE.INTER.norm>
-0.390652

>  <SCORE.INTRA>
7.90439

>  <SCORE.INTRA.DIHEDRAL>
7.54166

>  <SCORE.INTRA.DIHEDRAL.0>
1.67653

>  <SCORE.INTRA.POLAR>
0

>  <SCORE.INTRA.POLAR.0>
0

>  <SCORE.INTRA.REPUL>
0

>  <SCORE.INTRA.REPUL.0>
0

>  <SCORE.INTRA.SOLV>
1.07001

>  <SCORE.INTRA.SOLV.lig_0>
-76.6701

>  <SCORE.INTRA.VDW>
3.59856

>  <SCORE.INTRA.VDW.0>
-1.53273

>  <SCORE.INTRA.norm>
0.35929

>  <SCORE.RESTR>
0.0188073

>  <SCORE.RESTR.CAVITY>
0.0188073

>  <SCORE.RESTR.norm>
0.000854877

>  <SCORE.SYSTEM>
0

>  <SCORE.SYSTEM.CONST>
0

>  <SCORE.SYSTEM.DIHEDRAL>
0

>  <SCORE.SYSTEM.SOLV>
0

>  <SCORE.SYSTEM.norm>
0

>  <SCORE.heavy>
22

>  <SCORE.norm>
-0.0305069

>  <RMSD>
34.744

$$$$
2f4s_lig
 OpenBabel11021811433D
libRbt.so/2013.1/901 2013/11/27
 22 23  0  0  0  0  0  0  0  0999 V2000
    5.1022   -7.5526   23.4020 N   0  0  0  0  0  0  0  0  0  0  0  0
    2.1489  -11.6007   23.6611 N   0  0  0  0  0  0  0  0  0  0  0  0
    6.7601  -15.4347   25.1818 N   0  0  0  0  0  0  0  0  0  0  0  0
    4.5447   -9.9197   27.7140 O   0  0  0  0  0  0  0  0  0  0  0  0
    4.5949  -10.1070   26.2699 C   0  0  2  0  0  0  0  0  0  0  0  0
    0.9238  -13.6174   27.7165 N   0  0  0  0  0  0  0  0  0  0  0  0
    6.0180   -8.1140   26.0164 O   0  0  0  0  0  0  0  0  0  0  0  0
    4.8123   -8.7406   25.5632 C   0  0  1  0  0  0  0  0  0  0  0  0
    3.1136  -12.0587   26.3410 O   0  0  0  0  0  0  0  0  0  0  0  0
    4.8995   -8.9052   24.0508 C   0  0  1  0  0  0  0  0  0  0  0  0
    3.3939  -13.8173   24.8666 O   0  0  0  0  0  0  0  0  0  0  0  0
    3.5872   -9.5741   23.5185 C   0  0  0  0  0  0  0  0  0  0  0  0
    5.1611  -16.0506   27.1850 O   0  0  0  0  0  0  0  0  0  0  0  0
    3.4156  -10.9736   24.2247 C   0  0  1  0  0  0  0  0  0  0  0  0
    2.6003  -15.8426   28.4135 O   0  0  0  0  0  0  0  0  0  0  0  0
    3.2655  -10.7796   25.7446 C   0  0  2  0  0  0  0  0  0  0  0  0
    2.3962  -13.1166   25.7303 C   0  0  1  0  0  0  0  0  0  0  0  0
    4.5690  -14.4161   25.5606 C   0  0  2  0  0  0  0  0  0  0  0  0
    5.4776  -15.0559   24.5064 C   0  0  0  0  0  0  0  0  0  0  0  0
    4.0645  -15.4734   26.5170 C   0  0  2  0  0  0  0  0  0  0  0  0
    3.0887  -14.8443   27.5099 C   0  0  1  0  0  0  0  0  0  0  0  0
    1.9037  -14.2130   26.7385 C   0  0  1  0  0  0  0  0  0  0  0  0
  5  4  1  1  0  0  0
  5  8  1  0  0  0  0
  5 16  1  0  0  0  0
  8  7  1  1  0  0  0
  8 10  1  0  0  0  0
 10  1  1  6  0  0  0
 10 12  1  0  0  0  0
 11 18  1  0  0  0  0
 12 14  1  0  0  0  0
 14  2  1  6  0  0  0
 14 16  1  0  0  0  0
 16  9  1  1  0  0  0
 17  9  1  1  0  0  0
 17 11  1  0  0  0  0
 17 22  1  0  0  0  0
 18 19  1  6  0  0  0
 18 20  1  0  0  0  0
 19  3  1  0  0  0  0
 20 13  1  1  0  0  0
 20 21  1  0  0  0  0
 21 15  1  1  0  0  0
 21 22  1  0  0  0  0
 22  6  1  1  0  0  0
M  END
>  <CHROM.1>
-153.24413972,87.56575759,170.12695284,3.91748452,-12.29971242,25.78418586
-1.39870678,-0.52168154,2.92643859

>  <Name>
2f4s_lig

>  <RI>
0

>  <Rbt.Current_Directory>
/home/itssahil/PROJECTS/Mol_Feturizer/New_Systems/rnas/2f4s

>  <Rbt.Executable>
rbdock ($Id: //depot/dev/client3/rdock/2013.1/src/exe/rbdock.cxx#4 $)

>  <Rbt.Library>
libRbt.so (2013.1, Build901 2013/11/27)

>  <Rbt.Parameter_File>
/export/apps/rDock/src/rDock_2013.1_src/data/scripts/dock_solv.prm

>  <Rbt.Receptor>
prm/blind_docking_80.prm

>  <SCORE>
-1.55848

>  <SCORE.INTER>
-8.54781

>  <SCORE.INTER.CONST>
1

>  <SCORE.INTER.POLAR>
-1.62721

>  <SCORE.INTER.ROT>
3

>  <SCORE.INTER.SOLV>
21.9728

>  <SCORE.INTER.VDW>
-13.1988

>  <SCORE.INTER.norm>
-0.388537

>  <SCORE.INTRA>
6.5814

>  <SCORE.INTRA.DIHEDRAL>
4.82493

>  <SCORE.INTRA.DIHEDRAL.0>
1.67653

>  <SCORE.INTRA.POLAR>
0

>  <SCORE.INTRA.POLAR.0>
0

>  <SCORE.INTRA.REPUL>
0

>  <SCORE.INTRA.REPUL.0>
0

>  <SCORE.INTRA.SOLV>
2.96318

>  <SCORE.INTRA.SOLV.lig_0>
-76.6701

>  <SCORE.INTRA.VDW>
2.68734

>  <SCORE.INTRA.VDW.0>
-1.53273

>  <SCORE.INTRA.norm>
0.299154

>  <SCORE.RESTR>
0.407938

>  <SCORE.RESTR.CAVITY>
0.407938

>  <SCORE.RESTR.norm>
0.0185426

>  <SCORE.SYSTEM>
0

>  <SCORE.SYSTEM.CONST>
0

>  <SCORE.SYSTEM.DIHEDRAL>
0

>  <SCORE.SYSTEM.SOLV>
0

>  <SCORE.SYSTEM.norm>
0

>  <SCORE.heavy>
22

>  <SCORE.norm>
-0.07084

>  <RMSD>
34.745

$$$$
2f4s_lig
 OpenBabel11021811433D
libRbt.so/2013.1/901 2013/11/27
 22 23  0  0  0  0  0  0  0  0999 V2000
    3.0177  -17.4876   25.9975 N   0  0  0  0  0  0  0  0  0  0  0  0
    6.1770  -14.4129   23.6015 N   0  0  0  0  0  0  0  0  0  0  0  0
    2.8509  -10.1155   28.1888 N   0  0  0  0  0  0  0  0  0  0  0  0
    4.0934  -13.0633   27.9406 O   0  0  0  0  0  0  0  0  0  0  0  0
    3.9168  -13.7829   26.6861 C   0  0  2  0  0  0  0  0  0  0  0  0
    6.3587  -11.2137   22.8209 N   0  0  0  0  0  0  0  0  0  0  0  0
    2.3803  -15.3758   27.7647 O   0  0  0  0  0  0  0  0  0  0  0  0
    3.5673  -15.2698   26.9699 C   0  0  1  0  0  0  0  0  0  0  0  0
    5.4920  -12.3386   25.4856 O   0  0  0  0  0  0  0  0  0  0  0  0
    3.3465  -16.0452   25.6768 C   0  0  1  0  0  0  0  0  0  0  0  0
    3.8295  -10.7351   25.5844 O   0  0  0  0  0  0  0  0  0  0  0  0
    4.6342  -15.9639   24.7890 C   0  0  0  0  0  0  0  0  0  0  0  0
    6.0069   -7.9035   26.4370 O   0  0  0  0  0  0  0  0  0  0  0  0
    4.9397  -14.4465   24.4865 C   0  0  1  0  0  0  0  0  0  0  0  0
    6.9331   -8.5879   23.8324 O   0  0  0  0  0  0  0  0  0  0  0  0
    5.2223  -13.6960   25.8007 C   0  0  2  0  0  0  0  0  0  0  0  0
    4.6560  -11.5576   24.6503 C   0  0  1  0  0  0  0  0  0  0  0  0
    4.5693   -9.7990   26.4774 C   0  0  2  0  0  0  0  0  0  0  0  0
    3.5535   -9.0775   27.3682 C   0  0  0  0  0  0  0  0  0  0  0  0
    5.2990   -8.7970   25.6109 C   0  0  2  0  0  0  0  0  0  0  0  0
    6.2451   -9.5311   24.6623 C   0  0  1  0  0  0  0  0  0  0  0  0
    5.4325  -10.5094   23.7787 C   0  0  1  0  0  0  0  0  0  0  0  0
  5  4  1  1  0  0  0
  5  8  1  0  0  0  0
  5 16  1  0  0  0  0
  8  7  1  1  0  0  0
  8 10  1  0  0  0  0
 10  1  1  1  0  0  0
 10 12  1  0  0  0  0
 11 18  1  0  0  0  0
 12 14  1  0  0  0  0
 14  2  1  6  0  0  0
 14 16  1  0  0  0  0
 16  9  1  6  0  0  0
 17  9  1  1  0  0  0
 17 11  1  0  0  0  0
 17 22  1  0  0  0  0
 18 19  1  1  0  0  0
 18 20  1  0  0  0  0
 19  3  1  0  0  0  0
 20 13  1  1  0  0  0
 20 21  1  0  0  0  0
 21 15  1  6  0  0  0
 21 22  1  0  0  0  0
 22  6  1  6  0  0  0
M  END
>  <CHROM.1>
-66.94557279,99.96276875,61.22663745,4.66308455,-12.22122952,25.68968730
-2.04478019,0.93959003,0.27457187

>  <Name>
2f4s_lig

>  <RI>
0

>  <Rbt.Current_Directory>
/home/itssahil/PROJECTS/Mol_Feturizer/New_Systems/rnas/2f4s

>  <Rbt.Executable>
rbdock ($Id: //depot/dev/client3/rdock/2013.1/src/exe/rbdock.cxx#4 $)

>  <Rbt.Library>
libRbt.so (2013.1, Build901 2013/11/27)

>  <Rbt.Parameter_File>
/export/apps/rDock/src/rDock_2013.1_src/data/scripts/dock_solv.prm

>  <Rbt.Receptor>
prm/blind_docking_60.prm

>  <SCORE>
1.66504

>  <SCORE.INTER>
-3.44395

>  <SCORE.INTER.CONST>
1

>  <SCORE.INTER.POLAR>
-0.274548

>  <SCORE.INTER.ROT>
3

>  <SCORE.INTER.SOLV>
21.0088

>  <SCORE.INTER.VDW>
-13.9837

>  <SCORE.INTER.norm>
-0.156543

>  <SCORE.INTRA>
3.8219

>  <SCORE.INTRA.DIHEDRAL>
3.94045

>  <SCORE.INTRA.DIHEDRAL.0>
1.67653

>  <SCORE.INTRA.POLAR>
0

>  <SCORE.INTRA.POLAR.0>
0

>  <SCORE.INTRA.REPUL>
0

>  <SCORE.INTRA.REPUL.0>
0

>  <SCORE.INTRA.SOLV>
3.64697

>  <SCORE.INTRA.SOLV.lig_0>
-76.6701

>  <SCORE.INTRA.VDW>
0.0281872

>  <SCORE.INTRA.VDW.0>
-1.53273

>  <SCORE.INTRA.norm>
0.173723

>  <SCORE.RESTR>
1.2871

>  <SCORE.RESTR.CAVITY>
1.2871

>  <SCORE.RESTR.norm>
0.0585044

>  <SCORE.SYSTEM>
0

>  <SCORE.SYSTEM.CONST>
0

>  <SCORE.SYSTEM.DIHEDRAL>
0

>  <SCORE.SYSTEM.SOLV>
0

>  <SCORE.SYSTEM.norm>
0

>  <SCORE.heavy>
22

>  <SCORE.norm>
0.0756838

>  <RMSD>
34.753

$$$$
2f4s_lig
 OpenBabel11021811433D
libRbt.so/2013.1/901 2013/11/27
 22 23  0  0  0  0  0  0  0  0999 V2000
    4.1195  -17.4817   26.5594 N   0  0  0  0  0  0  0  0  0  0  0  0
    3.3186  -12.6211   27.5125 N   0  0  0  0  0  0  0  0  0  0  0  0
    7.8198   -8.2910   23.1958 N   0  0  0  0  0  0  0  0  0  0  0  0
    5.7707  -14.0495   23.3970 O   0  0  0  0  0  0  0  0  0  0  0  0
    5.5096  -14.3201   24.8047 C   0  0  2  0  0  0  0  0  0  0  0  0
    2.1492  -11.3845   24.7485 N   0  0  0  0  0  0  0  0  0  0  0  0
    5.8437  -16.7332   24.4485 O   0  0  0  0  0  0  0  0  0  0  0  0
    4.9387  -15.7550   24.9739 C   0  0  1  0  0  0  0  0  0  0  0  0
    5.0593  -11.9637   25.3081 O   0  0  0  0  0  0  0  0  0  0  0  0
    4.6821  -16.0814   26.4401 C   0  0  1  0  0  0  0  0  0  0  0  0
    5.4053   -9.7063   25.6676 O   0  0  0  0  0  0  0  0  0  0  0  0
    3.6812  -15.0385   27.0431 C   0  0  0  0  0  0  0  0  0  0  0  0
    5.3241   -8.6871   22.1406 O   0  0  0  0  0  0  0  0  0  0  0  0
    4.3057  -13.5984   26.8914 C   0  0  1  0  0  0  0  0  0  0  0  0
    2.6647   -9.6249   22.5380 O   0  0  0  0  0  0  0  0  0  0  0  0
    4.4974  -13.2639   25.4009 C   0  0  2  0  0  0  0  0  0  0  0  0
    4.3883  -10.7976   25.7515 C   0  0  1  0  0  0  0  0  0  0  0  0
    5.9587   -9.4165   24.3146 C   0  0  2  0  0  0  0  0  0  0  0  0
    6.9955   -8.2968   24.4468 C   0  0  0  0  0  0  0  0  0  0  0  0
    4.8215   -8.9643   23.4260 C   0  0  2  0  0  0  0  0  0  0  0  0
    3.7490  -10.0509   23.3713 C   0  0  1  0  0  0  0  0  0  0  0  0
    3.2286  -10.3341   24.8020 C   0  0  1  0  0  0  0  0  0  0  0  0
  5  4  1  6  0  0  0
  5  8  1  0  0  0  0
  5 16  1  0  0  0  0
  8  7  1  1  0  0  0
  8 10  1  0  0  0  0
 10  1  1  6  0  0  0
 10 12  1  0  0  0  0
 11 18  1  0  0  0  0
 12 14  1  0  0  0  0
 14  2  1  6  0  0  0
 14 16  1  0  0  0  0
 16  9  1  1  0  0  0
 17  9  1  6  0  0  0
 17 11  1  0  0  0  0
 17 22  1  0  0  0  0
 18 19  1  1  0  0  0
 18 20  1  0  0  0  0
 19  3  1  0  0  0  0
 20 13  1  6  0  0  0
 20 21  1  0  0  0  0
 21 15  1  6  0  0  0
 21 22  1  0  0  0  0
 22  6  1  6  0  0  0
M  END
>  <CHROM.1>
179.53894778,171.37429390,163.61374256,4.75253823,-12.09487111,24.83057747
1.68499767,-0.53139764,2.87108984

>  <Name>
2f4s_lig

>  <RI>
0

>  <Rbt.Current_Directory>
/home/itssahil/PROJECTS/Mol_Feturizer/New_Systems/rnas/2f4s

>  <Rbt.Executable>
rbdock ($Id: //depot/dev/client3/rdock/2013.1/src/exe/rbdock.cxx#4 $)

>  <Rbt.Library>
libRbt.so (2013.1, Build901 2013/11/27)

>  <Rbt.Parameter_File>
/export/apps/rDock/src/rDock_2013.1_src/data/scripts/dock_solv.prm

>  <Rbt.Receptor>
prm/blind_docking_80.prm

>  <SCORE>
-4.2359

>  <SCORE.INTER>
-6.96375

>  <SCORE.INTER.CONST>
1

>  <SCORE.INTER.POLAR>
0

>  <SCORE.INTER.ROT>
3

>  <SCORE.INTER.SOLV>
15.6794

>  <SCORE.INTER.VDW>
-15.469

>  <SCORE.INTER.norm>
-0.316534

>  <SCORE.INTRA>
2.72494

>  <SCORE.INTRA.DIHEDRAL>
-0.264411

>  <SCORE.INTRA.DIHEDRAL.0>
1.67653

>  <SCORE.INTRA.POLAR>
0

>  <SCORE.INTRA.POLAR.0>
0

>  <SCORE.INTRA.REPUL>
0

>  <SCORE.INTRA.REPUL.0>
0

>  <SCORE.INTRA.SOLV>
4.51055

>  <SCORE.INTRA.SOLV.lig_0>
-76.6701

>  <SCORE.INTRA.VDW>
0.60187

>  <SCORE.INTRA.VDW.0>
-1.53273

>  <SCORE.INTRA.norm>
0.123861

>  <SCORE.RESTR>
0.0029088

>  <SCORE.RESTR.CAVITY>
0.0029088

>  <SCORE.RESTR.norm>
0.000132218

>  <SCORE.SYSTEM>
0

>  <SCORE.SYSTEM.CONST>
0

>  <SCORE.SYSTEM.DIHEDRAL>
0

>  <SCORE.SYSTEM.SOLV>
0

>  <SCORE.SYSTEM.norm>
0

>  <SCORE.heavy>
22

>  <SCORE.norm>
-0.192541

>  <RMSD>
34.820

$$$$
2f4s_lig
 OpenBabel11021811433D
libRbt.so/2013.1/901 2013/11/27
 22 23  0  0  0  0  0  0  0  0999 V2000
    6.6288   -8.1990   22.8701 N   0  0  0  0  0  0  0  0  0  0  0  0
    2.9648   -8.5053   26.2845 N   0  0  0  0  0  0  0  0  0  0  0  0
    2.8192  -15.7349   23.5412 N   0  0  0  0  0  0  0  0  0  0  0  0
    5.4545  -12.5898   24.8322 O   0  0  0  0  0  0  0  0  0  0  0  0
    4.9093  -11.2993   24.4318 C   0  0  2  0  0  0  0  0  0  0  0  0
    0.2120  -11.5112   26.8733 N   0  0  0  0  0  0  0  0  0  0  0  0
    6.6836  -11.0223   22.7476 O   0  0  0  0  0  0  0  0  0  0  0  0
    6.0393  -10.3971   23.8638 C   0  0  1  0  0  0  0  0  0  0  0  0
    3.1328  -11.3804   26.1189 O   0  0  0  0  0  0  0  0  0  0  0  0
    5.4966   -9.0484   23.4073 C   0  0  1  0  0  0  0  0  0  0  0  0
    2.7609  -13.0157   24.5275 O   0  0  0  0  0  0  0  0  0  0  0  0
    4.7984   -8.3285   24.6103 C   0  0  0  0  0  0  0  0  0  0  0  0
    2.5306  -15.8449   26.8574 O   0  0  0  0  0  0  0  0  0  0  0  0
    3.6333   -9.2507   25.1387 C   0  0  1  0  0  0  0  0  0  0  0  0
    0.2665  -14.2877   27.6052 O   0  0  0  0  0  0  0  0  0  0  0  0
    4.2101  -10.5820   25.6535 C   0  0  2  0  0  0  0  0  0  0  0  0
    2.1205  -11.8863   25.2668 C   0  0  1  0  0  0  0  0  0  0  0  0
    3.2596  -14.1519   25.3529 C   0  0  2  0  0  0  0  0  0  0  0  0
    3.9007  -15.1825   24.4184 C   0  0  0  0  0  0  0  0  0  0  0  0
    2.0794  -14.7691   26.0694 C   0  0  2  0  0  0  0  0  0  0  0  0
    1.3909  -13.7115   26.9305 C   0  0  1  0  0  0  0  0  0  0  0  0
    0.9182  -12.5427   26.0314 C   0  0  1  0  0  0  0  0  0  0  0  0
  5  4  1  1  0  0  0
  5  8  1  0  0  0  0
  5 16  1  0  0  0  0
  8  7  1  6  0  0  0
  8 10  1  0  0  0  0
 10  1  1  1  0  0  0
 10 12  1  0  0  0  0
 11 18  1  0  0  0  0
 12 14  1  0  0  0  0
 14  2  1  1  0  0  0
 14 16  1  0  0  0  0
 16  9  1  6  0  0  0
 17  9  1  1  0  0  0
 17 11  1  0  0  0  0
 17 22  1  0  0  0  0
 18 19  1  6  0  0  0
 18 20  1  0  0  0  0
 19  3  1  0  0  0  0
 20 13  1  1  0  0  0
 20 21  1  0  0  0  0
 21 15  1  6  0  0  0
 21 22  1  0  0  0  0
 22  6  1  1  0  0  0
M  END
>  <CHROM.1>
-51.32559506,75.31554939,-65.13245196,3.46635434,-12.01268516,25.16534603
-0.78884610,-0.63760684,-3.03669905

>  <Name>
2f4s_lig

>  <RI>
0

>  <Rbt.Current_Directory>
/home/itssahil/PROJECTS/Mol_Feturizer/New_Systems/rnas/2f4s

>  <Rbt.Executable>
rbdock ($Id: //depot/dev/client3/rdock/2013.1/src/exe/rbdock.cxx#4 $)

>  <Rbt.Library>
libRbt.so (2013.1, Build901 2013/11/27)

>  <Rbt.Parameter_File>
/export/apps/rDock/src/rDock_2013.1_src/data/scripts/dock_solv.prm

>  <Rbt.Receptor>
prm/blind_docking_80.prm

>  <SCORE>
1.2643

>  <SCORE.INTER>
-2.44561

>  <SCORE.INTER.CONST>
1

>  <SCORE.INTER.POLAR>
-0.519821

>  <SCORE.INTER.ROT>
3

>  <SCORE.INTER.SOLV>
13.2677

>  <SCORE.INTER.VDW>
-9.92024

>  <SCORE.INTER.norm>
-0.111164

>  <SCORE.INTRA>
2.59878

>  <SCORE.INTRA.DIHEDRAL>
-0.00215778

>  <SCORE.INTRA.DIHEDRAL.0>
1.67653

>  <SCORE.INTRA.POLAR>
0

>  <SCORE.INTRA.POLAR.0>
0

>  <SCORE.INTRA.REPUL>
0

>  <SCORE.INTRA.REPUL.0>
0

>  <SCORE.INTRA.SOLV>
2.74025

>  <SCORE.INTRA.SOLV.lig_0>
-76.6701

>  <SCORE.INTRA.VDW>
1.22973

>  <SCORE.INTRA.VDW.0>
-1.53273

>  <SCORE.INTRA.norm>
0.118126

>  <SCORE.RESTR>
1.11113

>  <SCORE.RESTR.CAVITY>
1.11113

>  <SCORE.RESTR.norm>
0.0505059

>  <SCORE.SYSTEM>
0

>  <SCORE.SYSTEM.CONST>
0

>  <SCORE.SYSTEM.DIHEDRAL>
0

>  <SCORE.SYSTEM.SOLV>
0

>  <SCORE.SYSTEM.norm>
0

>  <SCORE.heavy>
22

>  <SCORE.norm>
0.0574682

>  <RMSD>
34.840

$$$$
2f4s_lig
 OpenBabel11021811433D
libRbt.so/2013.1/901 2013/11/27
 22 23  0  0  0  0  0  0  0  0999 V2000
    2.8200  -17.4091   25.7630 N   0  0  0  0  0  0  0  0  0  0  0  0
    1.7783  -13.0864   23.4380 N   0  0  0  0  0  0  0  0  0  0  0  0
    7.9099   -9.2883   23.6661 N   0  0  0  0  0  0  0  0  0  0  0  0
    5.7428  -13.4745   26.4583 O   0  0  0  0  0  0  0  0  0  0  0  0
    4.3675  -13.8858   26.2086 C   0  0  2  0  0  0  0  0  0  0  0  0
    3.1490   -9.8599   27.2225 N   0  0  0  0  0  0  0  0  0  0  0  0
    4.7728  -16.0574   27.2954 O   0  0  0  0  0  0  0  0  0  0  0  0
    4.2858  -15.4335   26.1015 C   0  0  1  0  0  0  0  0  0  0  0  0
    3.8259  -11.8114   25.0201 O   0  0  0  0  0  0  0  0  0  0  0  0
    2.8536  -15.8994   25.8698 C   0  0  1  0  0  0  0  0  0  0  0  0
    5.9047  -10.8187   24.8245 O   0  0  0  0  0  0  0  0  0  0  0  0
    2.2944  -15.2476   24.5601 C   0  0  0  0  0  0  0  0  0  0  0  0
    4.7789   -7.7951   23.0707 O   0  0  0  0  0  0  0  0  0  0  0  0
    2.3545  -13.6793   24.7154 C   0  0  1  0  0  0  0  0  0  0  0  0
    3.4917   -7.5180   25.5959 O   0  0  0  0  0  0  0  0  0  0  0  0
    3.8155  -13.2243   24.8844 C   0  0  2  0  0  0  0  0  0  0  0  0
    4.7962  -11.1147   25.7816 C   0  0  1  0  0  0  0  0  0  0  0  0
    5.5599   -9.9661   23.6519 C   0  0  2  0  0  0  0  0  0  0  0  0
    6.8134   -9.8061   22.7862 C   0  0  0  0  0  0  0  0  0  0  0  0
    5.1115   -8.6159   24.1650 C   0  0  2  0  0  0  0  0  0  0  0  0
    3.9159   -8.7927   25.0993 C   0  0  1  0  0  0  0  0  0  0  0  0
    4.3173   -9.7073   26.2828 C   0  0  1  0  0  0  0  0  0  0  0  0
  5  4  1  6  0  0  0
  5  8  1  0  0  0  0
  5 16  1  0  0  0  0
  8  7  1  1  0  0  0
  8 10  1  0  0  0  0
 10  1  1  6  0  0  0
 10 12  1  0  0  0  0
 11 18  1  0  0  0  0
 12 14  1  0  0  0  0
 14  2  1  6  0  0  0
 14 16  1  0  0  0  0
 16  9  1  1  0  0  0
 17  9  1  6  0  0  0
 17 11  1  0  0  0  0
 17 22  1  0  0  0  0
 18 19  1  6  0  0  0
 18 20  1  0  0  0  0
 19  3  1  0  0  0  0
 20 13  1  6  0  0  0
 20 21  1  0  0  0  0
 21 15  1  1  0  0  0
 21 22  1  0  0  0  0
 22  6  1  1  0  0  0
M  END
>  <CHROM.1>
32.45094706,89.91015641,-54.18274546,4.32533963,-11.90188371,25.11668911
1.82527227,-0.14520933,2.96313338

>  <Name>
2f4s_lig

>  <RI>
0

>  <Rbt.Current_Directory>
/home/itssahil/PROJECTS/Mol_Feturizer/New_Systems/rnas/2f4s

>  <Rbt.Executable>
rbdock ($Id: //depot/dev/client3/rdock/2013.1/src/exe/rbdock.cxx#4 $)

>  <Rbt.Library>
libRbt.so (2013.1, Build901 2013/11/27)

>  <Rbt.Parameter_File>
/export/apps/rDock/src/rDock_2013.1_src/data/scripts/dock_solv.prm

>  <Rbt.Receptor>
prm/blind_docking_80.prm

>  <SCORE>
-0.84401

>  <SCORE.INTER>
-6.93698

>  <SCORE.INTER.CONST>
1

>  <SCORE.INTER.POLAR>
-0.755285

>  <SCORE.INTER.ROT>
3

>  <SCORE.INTER.SOLV>
12.0045

>  <SCORE.INTER.VDW>
-11.7085

>  <SCORE.INTER.norm>
-0.315317

>  <SCORE.INTRA>
5.16091

>  <SCORE.INTRA.DIHEDRAL>
5.18453

>  <SCORE.INTRA.DIHEDRAL.0>
1.67653

>  <SCORE.INTRA.POLAR>
0

>  <SCORE.INTRA.POLAR.0>
0

>  <SCORE.INTRA.REPUL>
0

>  <SCORE.INTRA.REPUL.0>
0

>  <SCORE.INTRA.SOLV>
1.32507

>  <SCORE.INTRA.SOLV.lig_0>
-76.6701

>  <SCORE.INTRA.VDW>
1.90611

>  <SCORE.INTRA.VDW.0>
-1.53273

>  <SCORE.INTRA.norm>
0.234587

>  <SCORE.RESTR>
0.932064

>  <SCORE.RESTR.CAVITY>
0.932064

>  <SCORE.RESTR.norm>
0.0423666

>  <SCORE.SYSTEM>
0

>  <SCORE.SYSTEM.CONST>
0

>  <SCORE.SYSTEM.DIHEDRAL>
0

>  <SCORE.SYSTEM.SOLV>
0

>  <SCORE.SYSTEM.norm>
0

>  <SCORE.heavy>
22

>  <SCORE.norm>
-0.0383641

>  <RMSD>
34.869

$$$$
2f4s_lig
 OpenBabel11021811433D
libRbt.so/2013.1/901 2013/11/27
 22 23  0  0  0  0  0  0  0  0999 V2000
    3.9288   -7.0589   24.7720 N   0  0  0  0  0  0  0  0  0  0  0  0
    3.8922  -11.3817   27.3192 N   0  0  0  0  0  0  0  0  0  0  0  0
    0.9181  -12.7808   25.9572 N   0  0  0  0  0  0  0  0  0  0  0  0
    6.4321  -10.9601   23.0341 O   0  0  0  0  0  0  0  0  0  0  0  0
    5.2448  -10.5648   23.7804 C   0  0  2  0  0  0  0  0  0  0  0  0
    7.0308  -15.0013   25.5799 N   0  0  0  0  0  0  0  0  0  0  0  0
    5.1842   -8.3941   22.6203 O   0  0  0  0  0  0  0  0  0  0  0  0
    5.1881   -9.0177   23.9099 C   0  0  1  0  0  0  0  0  0  0  0  0
    5.2159  -12.6394   25.0858 O   0  0  0  0  0  0  0  0  0  0  0  0
    3.9405   -8.5685   24.6608 C   0  0  1  0  0  0  0  0  0  0  0  0
    3.6153  -13.6306   26.4277 O   0  0  0  0  0  0  0  0  0  0  0  0
    3.9212   -9.2203   26.0848 C   0  0  0  0  0  0  0  0  0  0  0  0
    2.5229  -16.1629   24.0029 O   0  0  0  0  0  0  0  0  0  0  0  0
    3.9402  -10.7885   25.9187 C   0  0  1  0  0  0  0  0  0  0  0  0
    5.2191  -16.9425   24.4857 O   0  0  0  0  0  0  0  0  0  0  0  0
    5.2378  -11.2260   25.2151 C   0  0  2  0  0  0  0  0  0  0  0  0
    5.0861  -13.5154   26.1915 C   0  0  1  0  0  0  0  0  0  0  0  0
    2.8056  -14.1962   25.3118 C   0  0  2  0  0  0  0  0  0  0  0  0
    1.3344  -14.2032   25.7383 C   0  0  0  0  0  0  0  0  0  0  0  0
    3.2756  -15.6109   25.0568 C   0  0  2  0  0  0  0  0  0  0  0  0
    4.7656  -15.6042   24.7198 C   0  0  1  0  0  0  0  0  0  0  0  0
    5.5575  -14.9823   25.8963 C   0  0  1  0  0  0  0  0  0  0  0  0
  5  4  1  1  0  0  0
  5  8  1  0  0  0  0
  5 16  1  0  0  0  0
  8  7  1  6  0  0  0
  8 10  1  0  0  0  0
 10  1  1  1  0  0  0
 10 12  1  0  0  0  0
 11 18  1  0  0  0  0
 12 14  1  0  0  0  0
 14  2  1  1  0  0  0
 14 16  1  0  0  0  0
 16  9  1  6  0  0  0
 17  9  1  6  0  0  0
 17 11  1  0  0  0  0
 17 22  1  0  0  0  0
 18 19  1  1  0  0  0
 18 20  1  0  0  0  0
 19  3  1  0  0  0  0
 20 13  1  6  0  0  0
 20 21  1  0  0  0  0
 21 15  1  1  0  0  0
 21 22  1  0  0  0  0
 22  6  1  6  0  0  0
M  END
>  <CHROM.1>
-174.26226217,85.38406658,62.74112448,4.29313894,-12.41170553,25.04997153
1.46468275,0.41704216,-0.07448187

>  <Name>
2f4s_lig

>  <RI>
0

>  <Rbt.Current_Directory>
/home/itssahil/PROJECTS/Mol_Feturizer/New_Systems/rnas/2f4s

>  <Rbt.Executable>
rbdock ($Id: //depot/dev/client3/rdock/2013.1/src/exe/rbdock.cxx#4 $)

>  <Rbt.Library>
libRbt.so (2013.1, Build901 2013/11/27)

>  <Rbt.Parameter_File>
/export/apps/rDock/src/rDock_2013.1_src/data/scripts/dock_solv.prm

>  <Rbt.Receptor>
prm/blind_docking_80.prm

>  <SCORE>
0.913157

>  <SCORE.INTER>
-3.50568

>  <SCORE.INTER.CONST>
1

>  <SCORE.INTER.POLAR>
0

>  <SCORE.INTER.ROT>
3

>  <SCORE.INTER.SOLV>
16.8793

>  <SCORE.INTER.VDW>
-13.5636

>  <SCORE.INTER.norm>
-0.159349

>  <SCORE.INTRA>
4.35593

>  <SCORE.INTRA.DIHEDRAL>
1.32118

>  <SCORE.INTRA.DIHEDRAL.0>
1.67653

>  <SCORE.INTRA.POLAR>
0

>  <SCORE.INTRA.POLAR.0>
0

>  <SCORE.INTRA.REPUL>
0

>  <SCORE.INTRA.REPUL.0>
0

>  <SCORE.INTRA.SOLV>
4.21826

>  <SCORE.INTRA.SOLV.lig_0>
-76.6701

>  <SCORE.INTRA.VDW>
1.5862

>  <SCORE.INTRA.VDW.0>
-1.53273

>  <SCORE.INTRA.norm>
0.197997

>  <SCORE.RESTR>
0.0629067

>  <SCORE.RESTR.CAVITY>
0.0629067

>  <SCORE.RESTR.norm>
0.0028594

>  <SCORE.SYSTEM>
0

>  <SCORE.SYSTEM.CONST>
0

>  <SCORE.SYSTEM.DIHEDRAL>
0

>  <SCORE.SYSTEM.SOLV>
0

>  <SCORE.SYSTEM.norm>
0

>  <SCORE.heavy>
22

>  <SCORE.norm>
0.0415072

>  <RMSD>
34.919

$$$$
2f4s_lig
 OpenBabel11021811433D
libRbt.so/2013.1/901 2013/11/27
 22 23  0  0  0  0  0  0  0  0999 V2000
    3.9596   -7.0189   24.6431 N   0  0  0  0  0  0  0  0  0  0  0  0
    3.8164  -11.3139   27.2331 N   0  0  0  0  0  0  0  0  0  0  0  0
    0.8808  -12.7534   25.9188 N   0  0  0  0  0  0  0  0  0  0  0  0
    6.4520  -10.9677   22.9994 O   0  0  0  0  0  0  0  0  0  0  0  0
    5.2540  -10.5505   23.7159 C   0  0  2  0  0  0  0  0  0  0  0  0
    6.9818  -14.9645   25.5909 N   0  0  0  0  0  0  0  0  0  0  0  0
    5.2443   -8.3916   22.5325 O   0  0  0  0  0  0  0  0  0  0  0  0
    5.2132   -9.0016   23.8282 C   0  0  1  0  0  0  0  0  0  0  0  0
    5.1721  -12.6107   25.0417 O   0  0  0  0  0  0  0  0  0  0  0  0
    3.9555   -8.5297   24.5476 C   0  0  1  0  0  0  0  0  0  0  0  0
    3.5521  -13.5884   26.3702 O   0  0  0  0  0  0  0  0  0  0  0  0
    3.8979   -9.1662   25.9775 C   0  0  0  0  0  0  0  0  0  0  0  0
    2.5000  -16.1499   23.9583 O   0  0  0  0  0  0  0  0  0  0  0  0
    3.9015  -10.7361   25.8280 C   0  0  1  0  0  0  0  0  0  0  0  0
    5.1892  -16.9205   24.4915 O   0  0  0  0  0  0  0  0  0  0  0  0
    5.2083  -11.1964   25.1569 C   0  0  2  0  0  0  0  0  0  0  0  0
    5.0263  -13.4740   26.1553 C   0  0  1  0  0  0  0  0  0  0  0  0
    2.7603  -14.1678   25.2485 C   0  0  2  0  0  0  0  0  0  0  0  0
    1.2827  -14.1718   25.6524 C   0  0  0  0  0  0  0  0  0  0  0  0
    3.2357  -15.5848   25.0172 C   0  0  2  0  0  0  0  0  0  0  0  0
    4.7307  -15.5801   24.7031 C   0  0  1  0  0  0  0  0  0  0  0  0
    5.5037  -14.9437   25.8844 C   0  0  1  0  0  0  0  0  0  0  0  0
  5  4  1  1  0  0  0
  5  8  1  0  0  0  0
  5 16  1  0  0  0  0
  8  7  1  6  0  0  0
  8 10  1  0  0  0  0
 10  1  1  1  0  0  0
 10 12  1  0  0  0  0
 11 18  1  0  0  0  0
 12 14  1  0  0  0  0
 14  2  1  1  0  0  0
 14 16  1  0  0  0  0
 16  9  1  6  0  0  0
 17  9  1  6  0  0  0
 17 11  1  0  0  0  0
 17 22  1  0  0  0  0
 18 19  1  1  0  0  0
 18 20  1  0  0  0  0
 19  3  1  0  0  0  0
 20 13  1  6  0  0  0
 20 21  1  0  0  0  0
 21 15  1  1  0  0  0
 21 22  1  0  0  0  0
 22  6  1  6  0  0  0
M  END
>  <CHROM.1>
-175.14040269,86.25187553,59.80117472,4.26910322,-12.38188095,24.99257438
1.45269625,0.41010856,-0.08058376

>  <Name>
2f4s_lig

>  <RI>
0

>  <Rbt.Current_Directory>
/home/itssahil/PROJECTS/Mol_Feturizer/New_Systems/rnas/2f4s

>  <Rbt.Executable>
rbdock ($Id: //depot/dev/client3/rdock/2013.1/src/exe/rbdock.cxx#4 $)

>  <Rbt.Library>
libRbt.so (2013.1, Build901 2013/11/27)

>  <Rbt.Parameter_File>
/export/apps/rDock/src/rDock_2013.1_src/data/scripts/dock_solv.prm

>  <Rbt.Receptor>
prm/blind_docking_80.prm

>  <SCORE>
0.81423

>  <SCORE.INTER>
-3.54146

>  <SCORE.INTER.CONST>
1

>  <SCORE.INTER.POLAR>
0

>  <SCORE.INTER.ROT>
3

>  <SCORE.INTER.SOLV>
16.8708

>  <SCORE.INTER.VDW>
-13.5846

>  <SCORE.INTER.norm>
-0.160975

>  <SCORE.INTRA>
4.2693

>  <SCORE.INTRA.DIHEDRAL>
1.40192

>  <SCORE.INTRA.DIHEDRAL.0>
1.67653

>  <SCORE.INTRA.POLAR>
0

>  <SCORE.INTRA.POLAR.0>
0

>  <SCORE.INTRA.REPUL>
0

>  <SCORE.INTRA.REPUL.0>
0

>  <SCORE.INTRA.SOLV>
4.22651

>  <SCORE.INTRA.SOLV.lig_0>
-76.6701

>  <SCORE.INTRA.VDW>
1.45508

>  <SCORE.INTRA.VDW.0>
-1.53273

>  <SCORE.INTRA.norm>
0.194059

>  <SCORE.RESTR>
0.0863866

>  <SCORE.RESTR.CAVITY>
0.0863866

>  <SCORE.RESTR.norm>
0.00392666

>  <SCORE.SYSTEM>
0

>  <SCORE.SYSTEM.CONST>
0

>  <SCORE.SYSTEM.DIHEDRAL>
0

>  <SCORE.SYSTEM.SOLV>
0

>  <SCORE.SYSTEM.norm>
0

>  <SCORE.heavy>
22

>  <SCORE.norm>
0.0370104

>  <RMSD>
34.927

$$$$
2f4s_lig
 OpenBabel11021811433D
libRbt.so/2013.1/901 2013/11/27
 22 23  0  0  0  0  0  0  0  0999 V2000
    4.1344   -7.0034   25.4017 N   0  0  0  0  0  0  0  0  0  0  0  0
    3.6324  -11.4953   27.5804 N   0  0  0  0  0  0  0  0  0  0  0  0
    0.3659  -14.6441   27.2695 N   0  0  0  0  0  0  0  0  0  0  0  0
    6.0245  -11.0232   23.2163 O   0  0  0  0  0  0  0  0  0  0  0  0
    4.9322  -10.5469   24.0547 C   0  0  2  0  0  0  0  0  0  0  0  0
    6.2056  -15.1662   24.3116 N   0  0  0  0  0  0  0  0  0  0  0  0
    5.1110   -8.2917   23.0832 O   0  0  0  0  0  0  0  0  0  0  0  0
    5.0862   -9.0230   24.3147 C   0  0  1  0  0  0  0  0  0  0  0  0
    4.6835  -12.7085   25.1835 O   0  0  0  0  0  0  0  0  0  0  0  0
    3.9415   -8.4862   25.1653 C   0  0  1  0  0  0  0  0  0  0  0  0
    4.0288  -13.8325   27.0948 O   0  0  0  0  0  0  0  0  0  0  0  0
    3.8956   -9.2543   26.5295 C   0  0  0  0  0  0  0  0  0  0  0  0
    1.5042  -15.9693   25.4990 O   0  0  0  0  0  0  0  0  0  0  0  0
    3.6999  -10.7909   26.2334 C   0  0  1  0  0  0  0  0  0  0  0  0
    3.9044  -16.8838   24.2688 O   0  0  0  0  0  0  0  0  0  0  0  0
    4.8976  -11.3268   25.4281 C   0  0  2  0  0  0  0  0  0  0  0  0
    5.1115  -13.7265   26.0707 C   0  0  1  0  0  0  0  0  0  0  0  0
    2.6773  -14.2136   26.5956 C   0  0  2  0  0  0  0  0  0  0  0  0
    1.7128  -14.2391   27.7853 C   0  0  0  0  0  0  0  0  0  0  0  0
    2.7725  -15.5913   25.9791 C   0  0  2  0  0  0  0  0  0  0  0  0
    3.8029  -15.5793   24.8513 C   0  0  1  0  0  0  0  0  0  0  0  0
    5.1798  -15.1504   25.4156 C   0  0  1  0  0  0  0  0  0  0  0  0
  5  4  1  6  0  0  0
  5  8  1  0  0  0  0
  5 16  1  0  0  0  0
  8  7  1  6  0  0  0
  8 10  1  0  0  0  0
 10  1  1  1  0  0  0
 10 12  1  0  0  0  0
 11 18  1  0  0  0  0
 12 14  1  0  0  0  0
 14  2  1  1  0  0  0
 14 16  1  0  0  0  0
 16  9  1  6  0  0  0
 17  9  1  6  0  0  0
 17 11  1  0  0  0  0
 17 22  1  0  0  0  0
 18 19  1  1  0  0  0
 18 20  1  0  0  0  0
 19  3  1  0  0  0  0
 20 13  1  6  0  0  0
 20 21  1  0  0  0  0
 21 15  1  1  0  0  0
 21 22  1  0  0  0  0
 22  6  1  6  0  0  0
M  END
>  <CHROM.1>
154.08574949,84.15254714,-179.13573256,3.96982676,-12.52310208,25.48815557
1.22965096,0.75242251,0.06432687

>  <Name>
2f4s_lig

>  <RI>
0

>  <Rbt.Current_Directory>
/home/itssahil/PROJECTS/Mol_Feturizer/New_Systems/rnas/2f4s

>  <Rbt.Executable>
rbdock ($Id: //depot/dev/client3/rdock/2013.1/src/exe/rbdock.cxx#4 $)

>  <Rbt.Library>
libRbt.so (2013.1, Build901 2013/11/27)

>  <Rbt.Parameter_File>
/export/apps/rDock/src/rDock_2013.1_src/data/scripts/dock_solv.prm

>  <Rbt.Receptor>
prm/blind_docking_80.prm

>  <SCORE>
1.0634

>  <SCORE.INTER>
-4.71288

>  <SCORE.INTER.CONST>
1

>  <SCORE.INTER.POLAR>
-0.661534

>  <SCORE.INTER.ROT>
3

>  <SCORE.INTER.SOLV>
18.207

>  <SCORE.INTER.VDW>
-12.6058

>  <SCORE.INTER.norm>
-0.214222

>  <SCORE.INTRA>
5.40216

>  <SCORE.INTRA.DIHEDRAL>
3.72924

>  <SCORE.INTRA.DIHEDRAL.0>
1.67653

>  <SCORE.INTRA.POLAR>
0

>  <SCORE.INTRA.POLAR.0>
0

>  <SCORE.INTRA.REPUL>
0

>  <SCORE.INTRA.REPUL.0>
0

>  <SCORE.INTRA.SOLV>
4.31539

>  <SCORE.INTRA.SOLV.lig_0>
-76.6701

>  <SCORE.INTRA.VDW>
1.37984

>  <SCORE.INTRA.VDW.0>
-1.53273

>  <SCORE.INTRA.norm>
0.245553

>  <SCORE.RESTR>
0.374125

>  <SCORE.RESTR.CAVITY>
0.374125

>  <SCORE.RESTR.norm>
0.0170057

>  <SCORE.SYSTEM>
0

>  <SCORE.SYSTEM.CONST>
0

>  <SCORE.SYSTEM.DIHEDRAL>
0

>  <SCORE.SYSTEM.SOLV>
0

>  <SCORE.SYSTEM.norm>
0

>  <SCORE.heavy>
22

>  <SCORE.norm>
0.0483363

>  <RMSD>
34.990

$$$$
2f4s_lig
 OpenBabel11021811433D
libRbt.so/2013.1/901 2013/11/27
 22 23  0  0  0  0  0  0  0  0999 V2000
    5.8529   -7.8124   25.9270 N   0  0  0  0  0  0  0  0  0  0  0  0
    2.7999  -10.9505   28.3781 N   0  0  0  0  0  0  0  0  0  0  0  0
    5.3052  -13.4447   24.2814 N   0  0  0  0  0  0  0  0  0  0  0  0
    2.9989  -10.9572   23.3830 O   0  0  0  0  0  0  0  0  0  0  0  0
    3.0670  -10.1517   24.5951 C   0  0  2  0  0  0  0  0  0  0  0  0
   -0.8926  -13.3466   26.0293 N   0  0  0  0  0  0  0  0  0  0  0  0
    4.6012   -8.5634   23.5066 O   0  0  0  0  0  0  0  0  0  0  0  0
    4.4238   -9.3975   24.6575 C   0  0  1  0  0  0  0  0  0  0  0  0
    1.6205  -11.6826   25.8492 O   0  0  0  0  0  0  0  0  0  0  0  0
    4.5154   -8.5210   25.9006 C   0  0  1  0  0  0  0  0  0  0  0  0
    2.5843  -13.3380   24.5546 O   0  0  0  0  0  0  0  0  0  0  0  0
    4.3418   -9.4057   27.1813 C   0  0  0  0  0  0  0  0  0  0  0  0
    3.2326  -15.7042   27.2871 O   0  0  0  0  0  0  0  0  0  0  0  0
    2.9410  -10.1264   27.1067 C   0  0  1  0  0  0  0  0  0  0  0  0
    0.3867  -15.5989   27.2697 O   0  0  0  0  0  0  0  0  0  0  0  0
    2.8932  -11.0548   25.8796 C   0  0  2  0  0  0  0  0  0  0  0  0
    1.2837  -12.7039   24.9272 C   0  0  1  0  0  0  0  0  0  0  0  0
    3.3556  -13.9713   25.6614 C   0  0  2  0  0  0  0  0  0  0  0  0
    4.6579  -14.5328   25.0824 C   0  0  0  0  0  0  0  0  0  0  0  0
    2.5210  -15.0935   26.2370 C   0  0  2  0  0  0  0  0  0  0  0  0
    1.1858  -14.5392   26.7310 C   0  0  1  0  0  0  0  0  0  0  0  0
    0.4384  -13.8684   25.5523 C   0  0  1  0  0  0  0  0  0  0  0  0
  5  4  1  6  0  0  0
  5  8  1  0  0  0  0
  5 16  1  0  0  0  0
  8  7  1  6  0  0  0
  8 10  1  0  0  0  0
 10  1  1  1  0  0  0
 10 12  1  0  0  0  0
 11 18  1  0  0  0  0
 12 14  1  0  0  0  0
 14  2  1  1  0  0  0
 14 16  1  0  0  0  0
 16  9  1  6  0  0  0
 17  9  1  1  0  0  0
 17 11  1  0  0  0  0
 17 22  1  0  0  0  0
 18 19  1  6  0  0  0
 18 20  1  0  0  0  0
 19  3  1  0  0  0  0
 20 13  1  1  0  0  0
 20 21  1  0  0  0  0
 21 15  1  6  0  0  0
 21 22  1  0  0  0  0
 22  6  1  1  0  0  0
M  END
>  <CHROM.1>
69.75126937,25.46362956,50.31035635,2.90925325,-12.06103070,25.71028178,1.00497143
0.54431711,0.12978420

>  <Name>
2f4s_lig

>  <RI>
0

>  <Rbt.Current_Directory>
/home/itssahil/PROJECTS/Mol_Feturizer/New_Systems/rnas/2f4s

>  <Rbt.Executable>
rbdock ($Id: //depot/dev/client3/rdock/2013.1/src/exe/rbdock.cxx#4 $)

>  <Rbt.Library>
libRbt.so (2013.1, Build901 2013/11/27)

>  <Rbt.Parameter_File>
/export/apps/rDock/src/rDock_2013.1_src/data/scripts/dock_solv.prm

>  <Rbt.Receptor>
prm/blind_docking_80.prm

>  <SCORE>
3.84495

>  <SCORE.INTER>
-0.599417

>  <SCORE.INTER.CONST>
1

>  <SCORE.INTER.POLAR>
-1.66173

>  <SCORE.INTER.ROT>
3

>  <SCORE.INTER.SOLV>
16.9319

>  <SCORE.INTER.VDW>
-6.10446

>  <SCORE.INTER.norm>
-0.0272462

>  <SCORE.INTRA>
3.63051

>  <SCORE.INTRA.DIHEDRAL>
3.56563

>  <SCORE.INTRA.DIHEDRAL.0>
1.67653

>  <SCORE.INTRA.POLAR>
0

>  <SCORE.INTRA.POLAR.0>
0

>  <SCORE.INTRA.REPUL>
0

>  <SCORE.INTRA.REPUL.0>
0

>  <SCORE.INTRA.SOLV>
2.35555

>  <SCORE.INTRA.SOLV.lig_0>
-76.6701

>  <SCORE.INTRA.VDW>
0.669928

>  <SCORE.INTRA.VDW.0>
-1.53273

>  <SCORE.INTRA.norm>
0.165023

>  <SCORE.RESTR>
0.813857

>  <SCORE.RESTR.CAVITY>
0.813857

>  <SCORE.RESTR.norm>
0.0369935

>  <SCORE.SYSTEM>
0

>  <SCORE.SYSTEM.CONST>
0

>  <SCORE.SYSTEM.DIHEDRAL>
0

>  <SCORE.SYSTEM.SOLV>
0

>  <SCORE.SYSTEM.norm>
0

>  <SCORE.heavy>
22

>  <SCORE.norm>
0.174771

>  <RMSD>
35.009

$$$$
2f4s_lig
 OpenBabel11021811433D
libRbt.so/2013.1/901 2013/11/27
 22 23  0  0  0  0  0  0  0  0999 V2000
    6.3052   -7.8518   24.3078 N   0  0  0  0  0  0  0  0  0  0  0  0
    3.5108   -9.9554   27.9054 N   0  0  0  0  0  0  0  0  0  0  0  0
    4.7038  -16.9085   24.5677 N   0  0  0  0  0  0  0  0  0  0  0  0
    5.3395  -12.7047   24.1520 O   0  0  0  0  0  0  0  0  0  0  0  0
    4.7990  -11.4125   24.5532 C   0  0  2  0  0  0  0  0  0  0  0  0
    0.5009  -12.9840   26.1776 N   0  0  0  0  0  0  0  0  0  0  0  0
    6.1532  -10.2663   22.8462 O   0  0  0  0  0  0  0  0  0  0  0  0
    5.8228  -10.2868   24.2399 C   0  0  1  0  0  0  0  0  0  0  0  0
    3.4556  -12.3884   26.3564 O   0  0  0  0  0  0  0  0  0  0  0  0
    5.2755   -8.9166   24.6206 C   0  0  1  0  0  0  0  0  0  0  0  0
    3.8774  -14.2614   25.0684 O   0  0  0  0  0  0  0  0  0  0  0  0
    4.9186   -8.8985   26.1455 C   0  0  0  0  0  0  0  0  0  0  0  0
    3.2711  -16.7463   27.7034 O   0  0  0  0  0  0  0  0  0  0  0  0
    3.8503  -10.0248   26.4238 C   0  0  1  0  0  0  0  0  0  0  0  0
    0.6930  -15.5745   27.4024 O   0  0  0  0  0  0  0  0  0  0  0  0
    4.4453  -11.4057   26.0929 C   0  0  2  0  0  0  0  0  0  0  0  0
    2.8730  -13.1902   25.3443 C   0  0  1  0  0  0  0  0  0  0  0  0
    4.2214  -15.1589   26.2073 C   0  0  2  0  0  0  0  0  0  0  0  0
    5.2786  -16.1597   25.7310 C   0  0  0  0  0  0  0  0  0  0  0  0
    2.9672  -15.8933   26.6254 C   0  0  2  0  0  0  0  0  0  0  0  0
    1.8869  -14.8852   27.0136 C   0  0  1  0  0  0  0  0  0  0  0  0
    1.5874  -13.9607   25.8079 C   0  0  1  0  0  0  0  0  0  0  0  0
  5  4  1  1  0  0  0
  5  8  1  0  0  0  0
  5 16  1  0  0  0  0
  8  7  1  6  0  0  0
  8 10  1  0  0  0  0
 10  1  1  1  0  0  0
 10 12  1  0  0  0  0
 11 18  1  0  0  0  0
 12 14  1  0  0  0  0
 14  2  1  1  0  0  0
 14 16  1  0  0  0  0
 16  9  1  6  0  0  0
 17  9  1  1  0  0  0
 17 11  1  0  0  0  0
 17 22  1  0  0  0  0
 18 19  1  6  0  0  0
 18 20  1  0  0  0  0
 19  3  1  0  0  0  0
 20 13  1  1  0  0  0
 20 21  1  0  0  0  0
 21 15  1  6  0  0  0
 21 22  1  0  0  0  0
 22  6  1  1  0  0  0
M  END
>  <CHROM.1>
-2.15083341,79.35947939,-58.20385500,3.89741888,-12.76240896,25.69110121
-1.07526585,-0.65502846,-3.09145428

>  <Name>
2f4s_lig

>  <RI>
0

>  <Rbt.Current_Directory>
/home/itssahil/PROJECTS/Mol_Feturizer/New_Systems/rnas/2f4s

>  <Rbt.Executable>
rbdock ($Id: //depot/dev/client3/rdock/2013.1/src/exe/rbdock.cxx#4 $)

>  <Rbt.Library>
libRbt.so (2013.1, Build901 2013/11/27)

>  <Rbt.Parameter_File>
/export/apps/rDock/src/rDock_2013.1_src/data/scripts/dock_solv.prm

>  <Rbt.Receptor>
prm/blind_docking_80.prm

>  <SCORE>
2.24871

>  <SCORE.INTER>
-6.28369

>  <SCORE.INTER.CONST>
1

>  <SCORE.INTER.POLAR>
-0.871298

>  <SCORE.INTER.ROT>
3

>  <SCORE.INTER.SOLV>
14.7525

>  <SCORE.INTER.VDW>
-11.8023

>  <SCORE.INTER.norm>
-0.285622

>  <SCORE.INTRA>
8.15273

>  <SCORE.INTRA.DIHEDRAL>
7.24846

>  <SCORE.INTRA.DIHEDRAL.0>
1.67653

>  <SCORE.INTRA.POLAR>
0

>  <SCORE.INTRA.POLAR.0>
0

>  <SCORE.INTRA.REPUL>
0

>  <SCORE.INTRA.REPUL.0>
0

>  <SCORE.INTRA.SOLV>
1.75023

>  <SCORE.INTRA.SOLV.lig_0>
-76.6701

>  <SCORE.INTRA.VDW>
3.65339

>  <SCORE.INTRA.VDW.0>
-1.53273

>  <SCORE.INTRA.norm>
0.370579

>  <SCORE.RESTR>
0.37967

>  <SCORE.RESTR.CAVITY>
0.37967

>  <SCORE.RESTR.norm>
0.0172577

>  <SCORE.SYSTEM>
0

>  <SCORE.SYSTEM.CONST>
0

>  <SCORE.SYSTEM.DIHEDRAL>
0

>  <SCORE.SYSTEM.SOLV>
0

>  <SCORE.SYSTEM.norm>
0

>  <SCORE.heavy>
22

>  <SCORE.norm>
0.102214

>  <RMSD>
35.013

$$$$
2f4s_lig
 OpenBabel11021811433D
libRbt.so/2013.1/901 2013/11/27
 22 23  0  0  0  0  0  0  0  0999 V2000
    6.6119   -7.9998   24.4232 N   0  0  0  0  0  0  0  0  0  0  0  0
    3.5295   -9.8838   27.9054 N   0  0  0  0  0  0  0  0  0  0  0  0
   -0.4032  -14.5529   26.8229 N   0  0  0  0  0  0  0  0  0  0  0  0
    5.2817  -12.7636   24.2139 O   0  0  0  0  0  0  0  0  0  0  0  0
    4.8275  -11.4338   24.5989 C   0  0  2  0  0  0  0  0  0  0  0  0
    5.8918  -13.8817   26.7288 N   0  0  0  0  0  0  0  0  0  0  0  0
    6.3297  -10.3944   22.9483 O   0  0  0  0  0  0  0  0  0  0  0  0
    5.9462  -10.3902   24.3284 C   0  0  1  0  0  0  0  0  0  0  0  0
    3.3456  -12.3043   26.3468 O   0  0  0  0  0  0  0  0  0  0  0  0
    5.4921   -8.9821   24.6932 C   0  0  1  0  0  0  0  0  0  0  0  0
    2.1392  -14.1403   27.0668 O   0  0  0  0  0  0  0  0  0  0  0  0
    5.0802   -8.9376   26.2036 C   0  0  0  0  0  0  0  0  0  0  0  0
    2.4767  -16.1160   23.9897 O   0  0  0  0  0  0  0  0  0  0  0  0
    3.9185   -9.9783   26.4374 C   0  0  1  0  0  0  0  0  0  0  0  0
    5.1763  -15.9628   24.8836 O   0  0  0  0  0  0  0  0  0  0  0  0
    4.4174  -11.4007   26.1242 C   0  0  2  0  0  0  0  0  0  0  0  0
    3.4518  -13.4374   27.1903 C   0  0  1  0  0  0  0  0  0  0  0  0
    1.7720  -14.6278   25.7072 C   0  0  2  0  0  0  0  0  0  0  0  0
    0.3919  -15.2875   25.7873 C   0  0  0  0  0  0  0  0  0  0  0  0
    2.8052  -15.6440   25.2747 C   0  0  2  0  0  0  0  0  0  0  0  0
    4.1917  -15.0027   25.2839 C   0  0  1  0  0  0  0  0  0  0  0  0
    4.5124  -14.4885   26.7090 C   0  0  1  0  0  0  0  0  0  0  0  0
  5  4  1  1  0  0  0
  5  8  1  0  0  0  0
  5 16  1  0  0  0  0
  8  7  1  6  0  0  0
  8 10  1  0  0  0  0
 10  1  1  1  0  0  0
 10 12  1  0  0  0  0
 11 18  1  0  0  0  0
 12 14  1  0  0  0  0
 14  2  1  1  0  0  0
 14 16  1  0  0  0  0
 16  9  1  6  0  0  0
 17  9  1  6  0  0  0
 17 11  1  0  0  0  0
 17 22  1  0  0  0  0
 18 19  1  1  0  0  0
 18 20  1  0  0  0  0
 19  3  1  0  0  0  0
 20 13  1  6  0  0  0
 20 21  1  0  0  0  0
 21 15  1  1  0  0  0
 21 22  1  0  0  0  0
 22  6  1  6  0  0  0
M  END
>  <CHROM.1>
116.81887224,-176.59251837,33.30816191,3.96365651,-12.65948080,25.59338560
-0.88160263,-0.62058933,-2.84169561

>  <Name>
2f4s_lig

>  <RI>
0

>  <Rbt.Current_Directory>
/home/itssahil/PROJECTS/Mol_Feturizer/New_Systems/rnas/2f4s

>  <Rbt.Executable>
rbdock ($Id: //depot/dev/client3/rdock/2013.1/src/exe/rbdock.cxx#4 $)

>  <Rbt.Library>
libRbt.so (2013.1, Build901 2013/11/27)

>  <Rbt.Parameter_File>
/export/apps/rDock/src/rDock_2013.1_src/data/scripts/dock_solv.prm

>  <Rbt.Receptor>
prm/blind_docking_80.prm

>  <SCORE>
-0.348502

>  <SCORE.INTER>
-6.36827

>  <SCORE.INTER.CONST>
1

>  <SCORE.INTER.POLAR>
-0.925021

>  <SCORE.INTER.ROT>
3

>  <SCORE.INTER.SOLV>
19.8596

>  <SCORE.INTER.VDW>
-13.382

>  <SCORE.INTER.norm>
-0.289467

>  <SCORE.INTRA>
5.80702

>  <SCORE.INTRA.DIHEDRAL>
7.78894

>  <SCORE.INTRA.DIHEDRAL.0>
1.67653

>  <SCORE.INTRA.POLAR>
0

>  <SCORE.INTRA.POLAR.0>
0

>  <SCORE.INTRA.REPUL>
0

>  <SCORE.INTRA.REPUL.0>
0

>  <SCORE.INTRA.SOLV>
3.45662

>  <SCORE.INTRA.SOLV.lig_0>
-76.6701

>  <SCORE.INTRA.VDW>
0.184239

>  <SCORE.INTRA.VDW.0>
-1.53273

>  <SCORE.INTRA.norm>
0.263955

>  <SCORE.RESTR>
0.212753

>  <SCORE.RESTR.CAVITY>
0.212753

>  <SCORE.RESTR.norm>
0.0096706

>  <SCORE.SYSTEM>
0

>  <SCORE.SYSTEM.CONST>
0

>  <SCORE.SYSTEM.DIHEDRAL>
0

>  <SCORE.SYSTEM.SOLV>
0

>  <SCORE.SYSTEM.norm>
0

>  <SCORE.heavy>
22

>  <SCORE.norm>
-0.015841

>  <RMSD>
35.031

$$$$
2f4s_lig
 OpenBabel11021811433D
libRbt.so/2013.1/901 2013/11/27
 22 23  0  0  0  0  0  0  0  0999 V2000
    6.3551   -7.8190   23.8594 N   0  0  0  0  0  0  0  0  0  0  0  0
    4.4263  -11.2145   27.0101 N   0  0  0  0  0  0  0  0  0  0  0  0
    5.1354  -15.6717   25.4040 N   0  0  0  0  0  0  0  0  0  0  0  0
    2.3991  -10.4675   22.5019 O   0  0  0  0  0  0  0  0  0  0  0  0
    3.0679   -9.8575   23.6436 C   0  0  2  0  0  0  0  0  0  0  0  0
   -0.6068  -12.4087   25.9243 N   0  0  0  0  0  0  0  0  0  0  0  0
    4.1014   -8.1617   22.1883 O   0  0  0  0  0  0  0  0  0  0  0  0
    4.3752   -9.1561   23.1823 C   0  0  1  0  0  0  0  0  0  0  0  0
    2.1911  -11.5239   25.2129 O   0  0  0  0  0  0  0  0  0  0  0  0
    5.0851   -8.4811   24.3496 C   0  0  1  0  0  0  0  0  0  0  0  0
    2.4591  -13.4672   23.9896 O   0  0  0  0  0  0  0  0  0  0  0  0
    5.4149   -9.5454   25.4503 C   0  0  0  0  0  0  0  0  0  0  0  0
    2.9000  -15.7252   26.8520 O   0  0  0  0  0  0  0  0  0  0  0  0
    4.0661  -10.2107   25.9247 C   0  0  1  0  0  0  0  0  0  0  0  0
    0.2194  -14.8358   27.2181 O   0  0  0  0  0  0  0  0  0  0  0  0
    3.3977  -10.9405   24.7455 C   0  0  2  0  0  0  0  0  0  0  0  0
    1.4507  -12.4730   24.4661 C   0  0  1  0  0  0  0  0  0  0  0  0
    3.2070  -14.2114   25.0421 C   0  0  2  0  0  0  0  0  0  0  0  0
    4.2022  -15.1508   24.3542 C   0  0  0  0  0  0  0  0  0  0  0  0
    2.2123  -15.0152   25.8494 C   0  0  2  0  0  0  0  0  0  0  0  0
    1.1699  -14.0795   26.4591 C   0  0  1  0  0  0  0  0  0  0  0  0
    0.4429  -13.3110   25.3282 C   0  0  1  0  0  0  0  0  0  0  0  0
  5  4  1  6  0  0  0
  5  8  1  0  0  0  0
  5 16  1  0  0  0  0
  8  7  1  6  0  0  0
  8 10  1  0  0  0  0
 10  1  1  6  0  0  0
 10 12  1  0  0  0  0
 11 18  1  0  0  0  0
 12 14  1  0  0  0  0
 14  2  1  1  0  0  0
 14 16  1  0  0  0  0
 16  9  1  1  0  0  0
 17  9  1  1  0  0  0
 17 11  1  0  0  0  0
 17 22  1  0  0  0  0
 18 19  1  6  0  0  0
 18 20  1  0  0  0  0
 19  3  1  0  0  0  0
 20 13  1  1  0  0  0
 20 21  1  0  0  0  0
 21 15  1  6  0  0  0
 21 22  1  0  0  0  0
 22  6  1  1  0  0  0
M  END
>  <CHROM.1>
75.33926032,47.35015345,168.30750965,3.05661676,-12.00896081,24.94297845
-1.15371748,0.02246356,2.75877622

>  <Name>
2f4s_lig

>  <RI>
8.9913e+06

>  <Rbt.Current_Directory>
/home/itssahil/PROJECTS/Mol_Feturizer/New_Systems/rnas/2f4s

>  <Rbt.Executable>
rbdock ($Id: //depot/dev/client3/rdock/2013.1/src/exe/rbdock.cxx#4 $)

>  <Rbt.Library>
libRbt.so (2013.1, Build901 2013/11/27)

>  <Rbt.Parameter_File>
/export/apps/rDock/src/rDock_2013.1_src/data/scripts/dock_solv.prm

>  <Rbt.Receptor>
prm/blind_docking_40.prm

>  <SCORE>
-2.1513

>  <SCORE.INTER>
-3.39371

>  <SCORE.INTER.CONST>
1

>  <SCORE.INTER.POLAR>
-0.751913

>  <SCORE.INTER.ROT>
3

>  <SCORE.INTER.SOLV>
13.7546

>  <SCORE.INTER.VDW>
-9.94097

>  <SCORE.INTER.norm>
-0.15426

>  <SCORE.INTRA>
1.24122

>  <SCORE.INTRA.DIHEDRAL>
0.781156

>  <SCORE.INTRA.DIHEDRAL.0>
1.67653

>  <SCORE.INTRA.POLAR>
0

>  <SCORE.INTRA.POLAR.0>
0

>  <SCORE.INTRA.REPUL>
0

>  <SCORE.INTRA.REPUL.0>
0

>  <SCORE.INTRA.SOLV>
1.25011

>  <SCORE.INTRA.SOLV.lig_0>
-76.6701

>  <SCORE.INTRA.VDW>
0.225587

>  <SCORE.INTRA.VDW.0>
-1.53273

>  <SCORE.INTRA.norm>
0.0564192

>  <SCORE.RESTR>
0.0011919

>  <SCORE.RESTR.CAVITY>
0.0011919

>  <SCORE.RESTR.norm>
5.41775e-05

>  <SCORE.SYSTEM>
0

>  <SCORE.SYSTEM.CONST>
0

>  <SCORE.SYSTEM.DIHEDRAL>
0

>  <SCORE.SYSTEM.SOLV>
0

>  <SCORE.SYSTEM.norm>
0

>  <SCORE.heavy>
22

>  <SCORE.norm>
-0.0977862

>  <RMSD>
35.116

$$$$
2f4s_lig
 OpenBabel11021811433D
libRbt.so/2013.1/901 2013/11/27
 22 23  0  0  0  0  0  0  0  0999 V2000
    4.3782   -6.9582   25.4126 N   0  0  0  0  0  0  0  0  0  0  0  0
    2.2724  -10.7500   22.8898 N   0  0  0  0  0  0  0  0  0  0  0  0
    6.0563  -16.7538   24.3686 N   0  0  0  0  0  0  0  0  0  0  0  0
    4.6810  -11.5673   27.1935 O   0  0  0  0  0  0  0  0  0  0  0  0
    4.6296  -10.7842   25.9659 C   0  0  2  0  0  0  0  0  0  0  0  0
    1.2657  -12.6683   26.6748 N   0  0  0  0  0  0  0  0  0  0  0  0
    5.6243   -8.8440   27.1096 O   0  0  0  0  0  0  0  0  0  0  0  0
    4.5200   -9.2717   26.3036 C   0  0  1  0  0  0  0  0  0  0  0  0
    3.5531  -12.5899   24.7053 O   0  0  0  0  0  0  0  0  0  0  0  0
    4.4941   -8.4208   25.0398 C   0  0  1  0  0  0  0  0  0  0  0  0
    3.0432  -14.7557   24.0774 O   0  0  0  0  0  0  0  0  0  0  0  0
    3.2860   -8.8517   24.1410 C   0  0  0  0  0  0  0  0  0  0  0  0
    4.4331  -16.4081   27.0478 O   0  0  0  0  0  0  0  0  0  0  0  0
    3.4466  -10.3794   23.7839 C   0  0  1  0  0  0  0  0  0  0  0  0
    2.2975  -14.8937   28.1685 O   0  0  0  0  0  0  0  0  0  0  0  0
    3.4062  -11.2258   25.0692 C   0  0  2  0  0  0  0  0  0  0  0  0
    2.4609  -13.4868   24.6094 C   0  0  1  0  0  0  0  0  0  0  0  0
    4.0870  -15.4104   24.9157 C   0  0  2  0  0  0  0  0  0  0  0  0
    4.5716  -16.6682   24.1881 C   0  0  0  0  0  0  0  0  0  0  0  0
    3.4610  -15.7889   26.2393 C   0  0  2  0  0  0  0  0  0  0  0  0
    2.8998  -14.5405   26.9179 C   0  0  1  0  0  0  0  0  0  0  0  0
    1.8432  -13.8836   25.9959 C   0  0  1  0  0  0  0  0  0  0  0  0
  5  4  1  1  0  0  0
  5  8  1  0  0  0  0
  5 16  1  0  0  0  0
  8  7  1  1  0  0  0
  8 10  1  0  0  0  0
 10  1  1  1  0  0  0
 10 12  1  0  0  0  0
 11 18  1  0  0  0  0
 12 14  1  0  0  0  0
 14  2  1  6  0  0  0
 14 16  1  0  0  0  0
 16  9  1  6  0  0  0
 17  9  1  1  0  0  0
 17 11  1  0  0  0  0
 17 22  1  0  0  0  0
 18 19  1  6  0  0  0
 18 20  1  0  0  0  0
 19  3  1  0  0  0  0
 20 13  1  1  0  0  0
 20 21  1  0  0  0  0
 21 15  1  1  0  0  0
 21 22  1  0  0  0  0
 22  6  1  1  0  0  0
M  END
>  <CHROM.1>
142.94026152,174.64222610,139.87270412,3.68369313,-12.52739023,25.52615975
-1.23957863,1.40118444,2.76409304

>  <Name>
2f4s_lig

>  <RI>
0

>  <Rbt.Current_Directory>
/home/itssahil/PROJECTS/Mol_Feturizer/New_Systems/rnas/2f4s

>  <Rbt.Executable>
rbdock ($Id: //depot/dev/client3/rdock/2013.1/src/exe/rbdock.cxx#4 $)

>  <Rbt.Library>
libRbt.so (2013.1, Build901 2013/11/27)

>  <Rbt.Parameter_File>
/export/apps/rDock/src/rDock_2013.1_src/data/scripts/dock_solv.prm

>  <Rbt.Receptor>
prm/blind_docking_80.prm

>  <SCORE>
6.19585

>  <SCORE.INTER>
1.0016

>  <SCORE.INTER.CONST>
1

>  <SCORE.INTER.POLAR>
-0.914979

>  <SCORE.INTER.ROT>
3

>  <SCORE.INTER.SOLV>
17.0585

>  <SCORE.INTER.VDW>
-7.56852

>  <SCORE.INTER.norm>
0.0455271

>  <SCORE.INTRA>
4.40429

>  <SCORE.INTRA.DIHEDRAL>
7.42655

>  <SCORE.INTRA.DIHEDRAL.0>
1.67653

>  <SCORE.INTRA.POLAR>
0

>  <SCORE.INTRA.POLAR.0>
0

>  <SCORE.INTRA.REPUL>
0

>  <SCORE.INTRA.REPUL.0>
0

>  <SCORE.INTRA.SOLV>
2.37767

>  <SCORE.INTRA.SOLV.lig_0>
-76.6701

>  <SCORE.INTRA.VDW>
-0.497811

>  <SCORE.INTRA.VDW.0>
-1.53273

>  <SCORE.INTRA.norm>
0.200195

>  <SCORE.RESTR>
0.789963

>  <SCORE.RESTR.CAVITY>
0.789963

>  <SCORE.RESTR.norm>
0.0359074

>  <SCORE.SYSTEM>
0

>  <SCORE.SYSTEM.CONST>
0

>  <SCORE.SYSTEM.DIHEDRAL>
0

>  <SCORE.SYSTEM.SOLV>
0

>  <SCORE.SYSTEM.norm>
0

>  <SCORE.heavy>
22

>  <SCORE.norm>
0.28163

>  <RMSD>
35.125

$$$$
2f4s_lig
 OpenBabel11021811433D
libRbt.so/2013.1/901 2013/11/27
 22 23  0  0  0  0  0  0  0  0999 V2000
    4.8929  -18.0009   25.4966 N   0  0  0  0  0  0  0  0  0  0  0  0
    2.6970  -13.9717   27.5262 N   0  0  0  0  0  0  0  0  0  0  0  0
    4.2069   -7.3762   26.6228 N   0  0  0  0  0  0  0  0  0  0  0  0
    5.6995  -13.5191   23.5550 O   0  0  0  0  0  0  0  0  0  0  0  0
    5.4397  -14.2295   24.8002 C   0  0  2  0  0  0  0  0  0  0  0  0
    1.9304  -12.2121   23.9631 N   0  0  0  0  0  0  0  0  0  0  0  0
    6.4618  -16.2787   23.8960 O   0  0  0  0  0  0  0  0  0  0  0  0
    5.2873  -15.7506   24.5234 C   0  0  1  0  0  0  0  0  0  0  0  0
    4.3132  -12.3036   25.8154 O   0  0  0  0  0  0  0  0  0  0  0  0
    5.0440  -16.5279   25.8113 C   0  0  1  0  0  0  0  0  0  0  0  0
    3.8510  -10.1330   26.4634 O   0  0  0  0  0  0  0  0  0  0  0  0
    3.7546  -15.9861   26.5163 C   0  0  0  0  0  0  0  0  0  0  0  0
    5.1018   -8.4962   23.4234 O   0  0  0  0  0  0  0  0  0  0  0  0
    3.9557  -14.4513   26.8185 C   0  0  1  0  0  0  0  0  0  0  0  0
    2.9017   -9.9971   22.4147 O   0  0  0  0  0  0  0  0  0  0  0  0
    4.1361  -13.6763   25.5006 C   0  0  2  0  0  0  0  0  0  0  0  0
    3.2336  -11.3986   25.9641 C   0  0  1  0  0  0  0  0  0  0  0  0
    4.8561   -9.4875   25.5723 C   0  0  2  0  0  0  0  0  0  0  0  0
    5.3856   -8.2319   26.2719 C   0  0  0  0  0  0  0  0  0  0  0  0
    4.1671   -9.1068   24.2810 C   0  0  2  0  0  0  0  0  0  0  0  0
    3.5636  -10.3523   23.6342 C   0  0  1  0  0  0  0  0  0  0  0  0
    2.5499  -10.9998   24.6095 C   0  0  1  0  0  0  0  0  0  0  0  0
  5  4  1  6  0  0  0
  5  8  1  0  0  0  0
  5 16  1  0  0  0  0
  8  7  1  1  0  0  0
  8 10  1  0  0  0  0
 10  1  1  6  0  0  0
 10 12  1  0  0  0  0
 11 18  1  0  0  0  0
 12 14  1  0  0  0  0
 14  2  1  6  0  0  0
 14 16  1  0  0  0  0
 16  9  1  1  0  0  0
 17  9  1  6  0  0  0
 17 11  1  0  0  0  0
 17 22  1  0  0  0  0
 18 19  1  1  0  0  0
 18 20  1  0  0  0  0
 19  3  1  0  0  0  0
 20 13  1  6  0  0  0
 20 21  1  0  0  0  0
 21 15  1  6  0  0  0
 21 22  1  0  0  0  0
 22  6  1  6  0  0  0
M  END
>  <CHROM.1>
155.18096276,172.74547971,-54.99645199,4.26588256,-12.35593652,25.12397942
-1.26078027,1.21603451,-0.35627825

>  <Name>
2f4s_lig

>  <RI>
0

>  <Rbt.Current_Directory>
/home/itssahil/PROJECTS/Mol_Feturizer/New_Systems/rnas/2f4s

>  <Rbt.Executable>
rbdock ($Id: //depot/dev/client3/rdock/2013.1/src/exe/rbdock.cxx#4 $)

>  <Rbt.Library>
libRbt.so (2013.1, Build901 2013/11/27)

>  <Rbt.Parameter_File>
/export/apps/rDock/src/rDock_2013.1_src/data/scripts/dock_solv.prm

>  <Rbt.Receptor>
prm/blind_docking_80.prm

>  <SCORE>
-0.142641

>  <SCORE.INTER>
-3.10122

>  <SCORE.INTER.CONST>
1

>  <SCORE.INTER.POLAR>
0

>  <SCORE.INTER.ROT>
3

>  <SCORE.INTER.SOLV>
13.5287

>  <SCORE.INTER.VDW>
-12.177

>  <SCORE.INTER.norm>
-0.140964

>  <SCORE.INTRA>
2.55184

>  <SCORE.INTRA.DIHEDRAL>
1.43624

>  <SCORE.INTRA.DIHEDRAL.0>
1.67653

>  <SCORE.INTRA.POLAR>
0

>  <SCORE.INTRA.POLAR.0>
0

>  <SCORE.INTRA.REPUL>
0

>  <SCORE.INTRA.REPUL.0>
0

>  <SCORE.INTRA.SOLV>
3.93017

>  <SCORE.INTRA.SOLV.lig_0>
-76.6701

>  <SCORE.INTRA.VDW>
-0.131366

>  <SCORE.INTRA.VDW.0>
-1.53273

>  <SCORE.INTRA.norm>
0.115993

>  <SCORE.RESTR>
0.406737

>  <SCORE.RESTR.CAVITY>
0.406737

>  <SCORE.RESTR.norm>
0.018488

>  <SCORE.SYSTEM>
0

>  <SCORE.SYSTEM.CONST>
0

>  <SCORE.SYSTEM.DIHEDRAL>
0

>  <SCORE.SYSTEM.SOLV>
0

>  <SCORE.SYSTEM.norm>
0

>  <SCORE.heavy>
22

>  <SCORE.norm>
-0.00648368

>  <RMSD>
35.144

$$$$
2f4s_lig
 OpenBabel11021811433D
libRbt.so/2013.1/901 2013/11/27
 22 23  0  0  0  0  0  0  0  0999 V2000
   -0.8536  -15.4329   26.9450 N   0  0  0  0  0  0  0  0  0  0  0  0
    1.7247  -13.1049   23.3244 N   0  0  0  0  0  0  0  0  0  0  0  0
    2.9831   -6.2514   25.2891 N   0  0  0  0  0  0  0  0  0  0  0  0
    2.3234  -11.8225   28.1189 O   0  0  0  0  0  0  0  0  0  0  0  0
    1.3916  -12.2796   27.0964 C   0  0  2  0  0  0  0  0  0  0  0  0
    5.2283  -12.4800   24.3834 N   0  0  0  0  0  0  0  0  0  0  0  0
    0.0683  -13.4923   28.7815 O   0  0  0  0  0  0  0  0  0  0  0  0
    0.7470  -13.6259   27.5272 C   0  0  1  0  0  0  0  0  0  0  0  0
    2.6461  -11.2021   25.2871 O   0  0  0  0  0  0  0  0  0  0  0  0
   -0.2568  -14.1177   26.4916 C   0  0  1  0  0  0  0  0  0  0  0  0
    2.9293   -9.5684   23.6759 O   0  0  0  0  0  0  0  0  0  0  0  0
    0.4574  -14.2910   25.1085 C   0  0  0  0  0  0  0  0  0  0  0  0
    5.5559   -7.6871   25.4216 O   0  0  0  0  0  0  0  0  0  0  0  0
    1.0667  -12.9006   24.6811 C   0  0  1  0  0  0  0  0  0  0  0  0
    6.8519  -10.1738   24.9245 O   0  0  0  0  0  0  0  0  0  0  0  0
    2.1236  -12.4532   25.7072 C   0  0  2  0  0  0  0  0  0  0  0  0
    3.2238  -10.9945   24.0104 C   0  0  1  0  0  0  0  0  0  0  0  0
    3.4944   -8.5402   24.5949 C   0  0  2  0  0  0  0  0  0  0  0  0
    3.0590   -7.1580   24.0989 C   0  0  0  0  0  0  0  0  0  0  0  0
    5.0023   -8.6504   24.5570 C   0  0  2  0  0  0  0  0  0  0  0  0
    5.4247  -10.0602   24.9668 C   0  0  1  0  0  0  0  0  0  0  0  0
    4.7896  -11.0900   24.0002 C   0  0  1  0  0  0  0  0  0  0  0  0
  5  4  1  1  0  0  0
  5  8  1  0  0  0  0
  5 16  1  0  0  0  0
  8  7  1  1  0  0  0
  8 10  1  0  0  0  0
 10  1  1  1  0  0  0
 10 12  1  0  0  0  0
 11 18  1  0  0  0  0
 12 14  1  0  0  0  0
 14  2  1  6  0  0  0
 14 16  1  0  0  0  0
 16  9  1  6  0  0  0
 17  9  1  1  0  0  0
 17 11  1  0  0  0  0
 17 22  1  0  0  0  0
 18 19  1  6  0  0  0
 18 20  1  0  0  0  0
 19  3  1  0  0  0  0
 20 13  1  1  0  0  0
 20 21  1  0  0  0  0
 21 15  1  6  0  0  0
 21 22  1  0  0  0  0
 22  6  1  1  0  0  0
M  END
>  <CHROM.1>
-172.53700126,148.88854776,151.22228364,2.75289656,-11.21449786,25.43418232
-2.45641855,0.68359434,0.27975026

>  <Name>
2f4s_lig

>  <RI>
0

>  <Rbt.Current_Directory>
/home/itssahil/PROJECTS/Mol_Feturizer/New_Systems/rnas/2f4s

>  <Rbt.Executable>
rbdock ($Id: //depot/dev/client3/rdock/2013.1/src/exe/rbdock.cxx#4 $)

>  <Rbt.Library>
libRbt.so (2013.1, Build901 2013/11/27)

>  <Rbt.Parameter_File>
/export/apps/rDock/src/rDock_2013.1_src/data/scripts/dock_solv.prm

>  <Rbt.Receptor>
prm/blind_docking_80.prm

>  <SCORE>
8.33949

>  <SCORE.INTER>
1.834

>  <SCORE.INTER.CONST>
1

>  <SCORE.INTER.POLAR>
-0.845395

>  <SCORE.INTER.ROT>
3

>  <SCORE.INTER.SOLV>
18.834

>  <SCORE.INTER.VDW>
-7.83734

>  <SCORE.INTER.norm>
0.0833636

>  <SCORE.INTRA>
5.05182

>  <SCORE.INTRA.DIHEDRAL>
4.88786

>  <SCORE.INTRA.DIHEDRAL.0>
1.67653

>  <SCORE.INTRA.POLAR>
0

>  <SCORE.INTRA.POLAR.0>
0

>  <SCORE.INTRA.REPUL>
0

>  <SCORE.INTRA.REPUL.0>
0

>  <SCORE.INTRA.SOLV>
3.1715

>  <SCORE.INTRA.SOLV.lig_0>
-76.6701

>  <SCORE.INTRA.VDW>
1.02214

>  <SCORE.INTRA.VDW.0>
-1.53273

>  <SCORE.INTRA.norm>
0.229628

>  <SCORE.RESTR>
1.45368

>  <SCORE.RESTR.CAVITY>
1.45368

>  <SCORE.RESTR.norm>
0.0660762

>  <SCORE.SYSTEM>
0

>  <SCORE.SYSTEM.CONST>
0

>  <SCORE.SYSTEM.DIHEDRAL>
0

>  <SCORE.SYSTEM.SOLV>
0

>  <SCORE.SYSTEM.norm>
0

>  <SCORE.heavy>
22

>  <SCORE.norm>
0.379068

>  <RMSD>
35.192

$$$$
2f4s_lig
 OpenBabel11021811433D
libRbt.so/2013.1/901 2013/11/27
 22 23  0  0  0  0  0  0  0  0999 V2000
    5.2267   -8.1439   24.1076 N   0  0  0  0  0  0  0  0  0  0  0  0
    3.4635  -10.5129   28.1641 N   0  0  0  0  0  0  0  0  0  0  0  0
    6.1715  -15.5547   23.9887 N   0  0  0  0  0  0  0  0  0  0  0  0
    5.5544  -13.0740   24.4145 O   0  0  0  0  0  0  0  0  0  0  0  0
    4.7384  -11.9262   24.7882 C   0  0  2  0  0  0  0  0  0  0  0  0
    1.2395  -13.8508   27.9976 N   0  0  0  0  0  0  0  0  0  0  0  0
    5.5634  -10.6525   22.8495 O   0  0  0  0  0  0  0  0  0  0  0  0
    5.3942  -10.6161   24.2715 C   0  0  1  0  0  0  0  0  0  0  0  0
    3.8890  -13.0236   26.8088 O   0  0  0  0  0  0  0  0  0  0  0  0
    4.5493   -9.3969   24.6203 C   0  0  1  0  0  0  0  0  0  0  0  0
    3.5675  -14.5572   25.1089 O   0  0  0  0  0  0  0  0  0  0  0  0
    4.3579   -9.3169   26.1727 C   0  0  0  0  0  0  0  0  0  0  0  0
    4.3327  -17.5589   27.0812 O   0  0  0  0  0  0  0  0  0  0  0  0
    3.6560  -10.6423   26.6603 C   0  0  1  0  0  0  0  0  0  0  0  0
    1.9781  -16.6016   28.3657 O   0  0  0  0  0  0  0  0  0  0  0  0
    4.5546  -11.8547   26.3556 C   0  0  2  0  0  0  0  0  0  0  0  0
    2.8602  -13.6620   26.0736 C   0  0  1  0  0  0  0  0  0  0  0  0
    4.4241  -15.6247   25.6987 C   0  0  2  0  0  0  0  0  0  0  0  0
    5.0769  -16.4067   24.5548 C   0  0  0  0  0  0  0  0  0  0  0  0
    3.5406  -16.5431   26.5131 C   0  0  2  0  0  0  0  0  0  0  0  0
    2.8235  -15.7388   27.5960 C   0  0  1  0  0  0  0  0  0  0  0  0
    1.9720  -14.6276   26.9339 C   0  0  1  0  0  0  0  0  0  0  0  0
  5  4  1  1  0  0  0
  5  8  1  0  0  0  0
  5 16  1  0  0  0  0
  8  7  1  6  0  0  0
  8 10  1  0  0  0  0
 10  1  1  1  0  0  0
 10 12  1  0  0  0  0
 11 18  1  0  0  0  0
 12 14  1  0  0  0  0
 14  2  1  1  0  0  0
 14 16  1  0  0  0  0
 16  9  1  6  0  0  0
 17  9  1  1  0  0  0
 17 11  1  0  0  0  0
 17 22  1  0  0  0  0
 18 19  1  6  0  0  0
 18 20  1  0  0  0  0
 19  3  1  0  0  0  0
 20 13  1  1  0  0  0
 20 21  1  0  0  0  0
 21 15  1  6  0  0  0
 21 22  1  0  0  0  0
 22  6  1  1  0  0  0
M  END
>  <CHROM.1>
-36.68356918,84.50849069,75.10512167,4.05268396,-13.22137231,25.86289318
-1.20017549,-0.88895716,3.12248880

>  <Name>
2f4s_lig

>  <RI>
0

>  <Rbt.Current_Directory>
/home/itssahil/PROJECTS/Mol_Feturizer/New_Systems/rnas/2f4s

>  <Rbt.Executable>
rbdock ($Id: //depot/dev/client3/rdock/2013.1/src/exe/rbdock.cxx#4 $)

>  <Rbt.Library>
libRbt.so (2013.1, Build901 2013/11/27)

>  <Rbt.Parameter_File>
/export/apps/rDock/src/rDock_2013.1_src/data/scripts/dock_solv.prm

>  <Rbt.Receptor>
prm/blind_docking_60.prm

>  <SCORE>
6.23296

>  <SCORE.INTER>
1.30445

>  <SCORE.INTER.CONST>
1

>  <SCORE.INTER.POLAR>
0

>  <SCORE.INTER.ROT>
3

>  <SCORE.INTER.SOLV>
20.615

>  <SCORE.INTER.VDW>
-11.602

>  <SCORE.INTER.norm>
0.0592932

>  <SCORE.INTRA>
4.27929

>  <SCORE.INTRA.DIHEDRAL>
4.11184

>  <SCORE.INTRA.DIHEDRAL.0>
1.67653

>  <SCORE.INTRA.POLAR>
0

>  <SCORE.INTRA.POLAR.0>
0

>  <SCORE.INTRA.REPUL>
0

>  <SCORE.INTRA.REPUL.0>
0

>  <SCORE.INTRA.SOLV>
2.64367

>  <SCORE.INTRA.SOLV.lig_0>
-76.6701

>  <SCORE.INTRA.VDW>
0.901534

>  <SCORE.INTRA.VDW.0>
-1.53273

>  <SCORE.INTRA.norm>
0.194513

>  <SCORE.RESTR>
0.649216

>  <SCORE.RESTR.CAVITY>
0.649216

>  <SCORE.RESTR.norm>
0.0295098

>  <SCORE.SYSTEM>
0

>  <SCORE.SYSTEM.CONST>
0

>  <SCORE.SYSTEM.DIHEDRAL>
0

>  <SCORE.SYSTEM.SOLV>
0

>  <SCORE.SYSTEM.norm>
0

>  <SCORE.heavy>
22

>  <SCORE.norm>
0.283316

>  <RMSD>
35.280

$$$$
2f4s_lig
 OpenBabel11021811433D
libRbt.so/2013.1/901 2013/11/27
 22 23  0  0  0  0  0  0  0  0999 V2000
   -2.0024  -11.6903   28.0352 N   0  0  0  0  0  0  0  0  0  0  0  0
    2.8789  -12.7485   28.5140 N   0  0  0  0  0  0  0  0  0  0  0  0
    4.5027  -18.4277   27.9151 N   0  0  0  0  0  0  0  0  0  0  0  0
    0.1892  -14.7172   24.7884 O   0  0  0  0  0  0  0  0  0  0  0  0
    0.1942  -14.2868   26.1803 C   0  0  2  0  0  0  0  0  0  0  0  0
    4.4856  -12.6560   25.3634 N   0  0  0  0  0  0  0  0  0  0  0  0
   -2.1923  -13.6956   26.0523 O   0  0  0  0  0  0  0  0  0  0  0  0
   -0.8949  -13.2021   26.4060 C   0  0  1  0  0  0  0  0  0  0  0  0
    2.5884  -14.7400   26.4473 O   0  0  0  0  0  0  0  0  0  0  0  0
   -0.9364  -12.7510   27.8609 C   0  0  1  0  0  0  0  0  0  0  0  0
    4.4071  -15.9819   27.1510 O   0  0  0  0  0  0  0  0  0  0  0  0
    0.4651  -12.1889   28.2769 C   0  0  0  0  0  0  0  0  0  0  0  0
    5.3783  -17.2435   23.8418 O   0  0  0  0  0  0  0  0  0  0  0  0
    1.5409  -13.3239   28.0735 C   0  0  1  0  0  0  0  0  0  0  0  0
    5.8116  -14.4441   23.5490 O   0  0  0  0  0  0  0  0  0  0  0  0
    1.6115  -13.7198   26.5874 C   0  0  2  0  0  0  0  0  0  0  0  0
    3.9287  -14.5924   26.8814 C   0  0  1  0  0  0  0  0  0  0  0  0
    4.4130  -16.9189   25.9921 C   0  0  2  0  0  0  0  0  0  0  0  0
    4.9047  -18.2855   26.4789 C   0  0  0  0  0  0  0  0  0  0  0  0
    5.3600  -16.3721   24.9474 C   0  0  2  0  0  0  0  0  0  0  0  0
    4.9135  -14.9713   24.5323 C   0  0  1  0  0  0  0  0  0  0  0  0
    4.8969  -14.0465   25.7742 C   0  0  1  0  0  0  0  0  0  0  0  0
  5  4  1  6  0  0  0
  5  8  1  0  0  0  0
  5 16  1  0  0  0  0
  8  7  1  1  0  0  0
  8 10  1  0  0  0  0
 10  1  1  6  0  0  0
 10 12  1  0  0  0  0
 11 18  1  0  0  0  0
 12 14  1  0  0  0  0
 14  2  1  6  0  0  0
 14 16  1  0  0  0  0
 16  9  1  1  0  0  0
 17  9  1  6  0  0  0
 17 11  1  0  0  0  0
 17 22  1  0  0  0  0
 18 19  1  1  0  0  0
 18 20  1  0  0  0  0
 19  3  1  0  0  0  0
 20 13  1  6  0  0  0
 20 21  1  0  0  0  0
 21 15  1  6  0  0  0
 21 22  1  0  0  0  0
 22  6  1  6  0  0  0
M  END
>  <CHROM.1>
-172.44114467,154.24460171,30.11031906,2.57273582,-14.61772112,26.30839095
2.77170343,0.47299281,-0.38902087

>  <Name>
2f4s_lig

>  <RI>
0

>  <Rbt.Current_Directory>
/home/itssahil/PROJECTS/Mol_Feturizer/New_Systems/rnas/2f4s

>  <Rbt.Executable>
rbdock ($Id: //depot/dev/client3/rdock/2013.1/src/exe/rbdock.cxx#4 $)

>  <Rbt.Library>
libRbt.so (2013.1, Build901 2013/11/27)

>  <Rbt.Parameter_File>
/export/apps/rDock/src/rDock_2013.1_src/data/scripts/dock_solv.prm

>  <Rbt.Receptor>
prm/blind_docking_80.prm

>  <SCORE>
1.11821

>  <SCORE.INTER>
-4.64983

>  <SCORE.INTER.CONST>
1

>  <SCORE.INTER.POLAR>
-1.25363

>  <SCORE.INTER.ROT>
3

>  <SCORE.INTER.SOLV>
16.9553

>  <SCORE.INTER.VDW>
-10.1729

>  <SCORE.INTER.norm>
-0.211356

>  <SCORE.INTRA>
5.01769

>  <SCORE.INTRA.DIHEDRAL>
4.07779

>  <SCORE.INTRA.DIHEDRAL.0>
1.67653

>  <SCORE.INTRA.POLAR>
0

>  <SCORE.INTRA.POLAR.0>
0

>  <SCORE.INTRA.REPUL>
0

>  <SCORE.INTRA.REPUL.0>
0

>  <SCORE.INTRA.SOLV>
3.25462

>  <SCORE.INTRA.SOLV.lig_0>
-76.6701

>  <SCORE.INTRA.VDW>
1.35148

>  <SCORE.INTRA.VDW.0>
-1.53273

>  <SCORE.INTRA.norm>
0.228077

>  <SCORE.RESTR>
0.750353

>  <SCORE.RESTR.CAVITY>
0.750353

>  <SCORE.RESTR.norm>
0.0341069

>  <SCORE.SYSTEM>
0

>  <SCORE.SYSTEM.CONST>
0

>  <SCORE.SYSTEM.DIHEDRAL>
0

>  <SCORE.SYSTEM.SOLV>
0

>  <SCORE.SYSTEM.norm>
0

>  <SCORE.heavy>
22

>  <SCORE.norm>
0.0508276

>  <RMSD>
37.311

$$$$
