2juk_lig
 OpenBabel02221317003D

124127  0  0  1  0  0  0  0  0999 V2000
    2.3110    3.4760    2.3220 C   0  0  2  0  0  0  0  0  0  0  0  0
    3.2000    4.7020    2.1110 C   0  0  2  0  0  0  0  0  0  0  0  0
    4.4890    4.5220    2.9050 C   0  0  1  0  0  0  0  0  0  0  0  0
    5.1360    3.1780    2.6070 C   0  0  2  0  0  0  0  0  0  0  0  0
    4.1310    2.0410    2.7660 C   0  0  2  0  0  0  0  0  0  0  0  0
    4.6610    0.6800    2.3360 C   0  0  0  0  0  0  0  0  0  0  0  0
    3.0230    2.3190    1.9240 O   0  0  0  0  0  0  0  0  0  0  0  0
    2.4870    5.9340    2.5260 N   0  0  0  0  0  0  0  0  0  0  0  0
    2.7780    7.1750    2.1280 C   0  0  0  0  0  0  0  0  0  0  0  0
    2.0490    8.1930    2.5630 N   0  0  0  0  0  0  0  0  0  0  0  0
    3.7840    7.4250    1.3050 N   0  0  0  0  0  0  0  0  0  0  0  0
    5.7940    0.2240    3.1610 N   0  0  0  0  0  0  0  0  0  0  0  0
    5.7270   -0.7010    4.1170 C   0  0  0  0  0  0  0  0  0  0  0  0
    4.5810   -1.2670    4.4620 N   0  0  0  0  0  0  0  0  0  0  0  0
    6.8300   -1.0720    4.7470 N   0  0  0  0  0  0  0  0  0  0  0  0
    5.4120    5.5440    2.5030 O   0  0  0  0  0  0  0  0  0  0  0  0
    6.1830    2.9840    3.5690 O   0  0  0  0  0  0  0  0  0  0  0  0
    1.1390    3.6380    1.5430 O   0  0  0  0  0  0  0  0  0  0  0  0
   -1.8720    2.1100    0.5600 C   0  0  2  0  0  0  0  0  0  0  0  0
   -1.4690    3.5440    0.2620 C   0  0  0  0  0  0  0  0  0  0  0  0
   -1.1420    4.2940    1.5440 C   0  0  1  0  0  0  0  0  0  0  0  0
   -0.0400    3.6060    2.3350 C   0  0  1  0  0  0  0  0  0  0  0  0
   -0.4730    2.1700    2.6220 C   0  0  1  0  0  0  0  0  0  0  0  0
   -0.7600    1.4040    1.3360 C   0  0  1  0  0  0  0  0  0  0  0  0
   -2.1820    1.4400   -0.7120 N   0  0  0  0  0  0  0  0  0  0  0  0
   -2.9920    0.3930   -0.8530 C   0  0  0  0  0  0  0  0  0  0  0  0
   -3.2700   -0.0590   -2.0690 N   0  0  0  0  0  0  0  0  0  0  0  0
   -3.5320   -0.2130    0.1980 N   0  0  0  0  0  0  0  0  0  0  0  0
   -0.7460    5.6680    1.2180 N   0  0  0  0  0  0  0  0  0  0  0  0
   -1.6030    6.6690    1.0240 C   0  0  0  0  0  0  0  0  0  0  0  0
   -1.1400    7.8750    0.7370 N   0  0  0  0  0  0  0  0  0  0  0  0
   -2.9150    6.4890    1.1100 N   0  0  0  0  0  0  0  0  0  0  0  0
   -1.2180    0.1000    1.7210 O   0  0  0  0  0  0  0  0  0  0  0  0
    0.5370    1.4960    3.3460 O   0  0  0  0  0  0  0  0  0  0  0  0
    0.2190    1.4050    4.7240 C   0  0  1  0  0  0  0  0  0  0  0  0
    1.3260    0.6290    5.4230 C   0  0  2  0  0  0  0  0  0  0  0  0
    2.1000    1.6980    6.1480 C   0  0  1  0  0  0  0  0  0  0  0  0
    0.9890    2.6590    6.5100 C   0  0  1  0  0  0  0  0  0  0  0  0
    1.4530    4.0690    6.8530 C   0  0  0  0  0  0  0  0  0  0  0  0
    0.1630    2.6860    5.3500 O   0  0  0  0  0  0  0  0  0  0  0  0
    2.1690   -0.0150    4.4560 O   0  0  0  0  0  0  0  0  0  0  0  0
    2.0770    4.6280    5.6930 O   0  0  0  0  0  0  0  0  0  0  0  0
    2.7190    1.1590    7.2990 O   0  0  0  0  0  0  0  0  0  0  0  0
    4.0950    1.4730    7.2680 C   0  0  2  0  0  0  0  0  0  0  0  0
    4.8040    0.6120    8.3060 C   0  0  2  0  0  0  0  0  0  0  0  0
    6.2880    0.9430    8.3120 C   0  0  1  0  0  0  0  0  0  0  0  0
    6.4870    2.4390    8.4900 C   0  0  2  0  0  0  0  0  0  0  0  0
    5.6700    3.2110    7.4550 C   0  0  2  0  0  0  0  0  0  0  0  0
    5.7540    4.7250    7.6030 C   0  0  0  0  0  0  0  0  0  0  0  0
    4.3090    2.8350    7.5940 O   0  0  0  0  0  0  0  0  0  0  0  0
    4.6030   -0.8250    8.0280 N   0  0  0  0  0  0  0  0  0  0  0  0
    3.6910   -1.6000    8.6120 C   0  0  0  0  0  0  0  0  0  0  0  0
    2.8400   -1.1240    9.5110 N   0  0  0  0  0  0  0  0  0  0  0  0
    3.6310   -2.8800    8.2900 N   0  0  0  0  0  0  0  0  0  0  0  0
    4.7700    5.3860    6.7290 N   0  0  0  0  0  0  0  0  0  0  0  0
    4.8740    6.6300    6.2750 C   0  0  0  0  0  0  0  0  0  0  0  0
    3.9090    7.1290    5.5170 N   0  0  0  0  0  0  0  0  0  0  0  0
    5.9300    7.3820    6.5680 N   0  0  0  0  0  0  0  0  0  0  0  0
    6.8870    0.2720    9.4310 O   0  0  0  0  0  0  0  0  0  0  0  0
    7.8710    2.7380    8.2570 O   0  0  0  0  0  0  0  0  0  0  0  0
    2.2820    9.1340    2.2750 H   0  0  0  0  0  0  0  0  0  0  0  0
    3.9520    8.3670    0.9860 H   0  0  0  0  0  0  0  0  0  0  0  0
    6.6920    0.6470    2.9800 H   0  0  0  0  0  0  0  0  0  0  0  0
    3.7160   -0.9630    4.0420 H   0  0  0  0  0  0  0  0  0  0  0  0
    7.7160   -0.6780    4.4600 H   0  0  0  0  0  0  0  0  0  0  0  0
    6.7770   -1.7450    5.4970 H   0  0  0  0  0  0  0  0  0  0  0  0
    4.3810    6.6670    1.0060 H   0  0  0  0  0  0  0  0  0  0  0  0
    1.2670    8.0310    3.1780 H   0  0  0  0  0  0  0  0  0  0  0  0
    4.5820   -2.0060    5.1500 H   0  0  0  0  0  0  0  0  0  0  0  0
   -1.7440    1.8200   -1.5380 H   0  0  0  0  0  0  0  0  0  0  0  0
   -2.8900    0.4050   -2.8800 H   0  0  0  0  0  0  0  0  0  0  0  0
   -4.1760   -0.9760    0.0660 H   0  0  0  0  0  0  0  0  0  0  0  0
    0.2420    5.8540    1.1370 H   0  0  0  0  0  0  0  0  0  0  0  0
   -3.2880    0.0920    1.1290 H   0  0  0  0  0  0  0  0  0  0  0  0
   -3.8630   -0.8680   -2.1810 H   0  0  0  0  0  0  0  0  0  0  0  0
   -1.7910    8.6250    0.5520 H   0  0  0  0  0  0  0  0  0  0  0  0
   -3.5390    7.2700    0.9640 H   0  0  0  0  0  0  0  0  0  0  0  0
   -3.2900    5.5780    1.3200 H   0  0  0  0  0  0  0  0  0  0  0  0
   -0.1490    8.0480    0.7020 H   0  0  0  0  0  0  0  0  0  0  0  0
    5.2030   -1.2560    7.3410 H   0  0  0  0  0  0  0  0  0  0  0  0
    2.8640   -0.1480    9.7590 H   0  0  0  0  0  0  0  0  0  0  0  0
    4.2650   -3.2450    7.5910 H   0  0  0  0  0  0  0  0  0  0  0  0
    3.9570    4.8480    6.4630 H   0  0  0  0  0  0  0  0  0  0  0  0
    3.9820    8.0680    5.1550 H   0  0  0  0  0  0  0  0  0  0  0  0
    6.6670    7.0090    7.1440 H   0  0  0  0  0  0  0  0  0  0  0  0
    5.9920    8.3240    6.2120 H   0  0  0  0  0  0  0  0  0  0  0  0
    2.9570   -3.4810    8.7440 H   0  0  0  0  0  0  0  0  0  0  0  0
    3.1020    6.5610    5.3100 H   0  0  0  0  0  0  0  0  0  0  0  0
    2.1710   -1.7450    9.9400 H   0  0  0  0  0  0  0  0  0  0  0  0
    1.7140    5.8230    3.1630 H   0  0  0  0  0  0  0  0  0  0  0  0
    6.2200    5.4780    3.0250 H   0  0  0  0  0  0  0  0  0  0  0  0
    6.8880    3.6270    3.4200 H   0  0  0  0  0  0  0  0  0  0  0  0
   -0.5270   -0.3460    2.2240 H   0  0  0  0  0  0  0  0  0  0  0  0
    1.6200   -0.5470    3.8700 H   0  0  0  0  0  0  0  0  0  0  0  0
    1.4200    4.6770    4.9900 H   0  0  0  0  0  0  0  0  0  0  0  0
    7.8390    0.4300    9.4320 H   0  0  0  0  0  0  0  0  0  0  0  0
    8.4150    2.3160    8.9340 H   0  0  0  0  0  0  0  0  0  0  0  0
    2.0360    3.3770    3.3890 H   0  0  0  0  0  0  0  0  0  0  0  0
    3.4410    4.7720    1.0480 H   0  0  0  0  0  0  0  0  0  0  0  0
    4.2790    4.6080    3.9740 H   0  0  0  0  0  0  0  0  0  0  0  0
    5.5490    3.1730    1.5950 H   0  0  0  0  0  0  0  0  0  0  0  0
    3.7940    1.9880    3.8010 H   0  0  0  0  0  0  0  0  0  0  0  0
    4.9960    0.7410    1.2990 H   0  0  0  0  0  0  0  0  0  0  0  0
   -2.7810    2.1170    1.1640 H   0  0  0  0  0  0  0  0  0  0  0  0
   -2.2800    4.0470   -0.2720 H   0  0  0  0  0  0  0  0  0  0  0  0
   -2.0320    4.3330    2.1680 H   0  0  0  0  0  0  0  0  0  0  0  0
    0.1240    4.1460    3.2720 H   0  0  0  0  0  0  0  0  0  0  0  0
   -1.3890    2.1890    3.2170 H   0  0  0  0  0  0  0  0  0  0  0  0
    0.1430    1.3230    0.7270 H   0  0  0  0  0  0  0  0  0  0  0  0
   -0.7350    0.8640    4.8590 H   0  0  0  0  0  0  0  0  0  0  0  0
    0.9110   -0.1010    6.1210 H   0  0  0  0  0  0  0  0  0  0  0  0
    2.8270    2.1770    5.4900 H   0  0  0  0  0  0  0  0  0  0  0  0
    0.4120    2.2450    7.3410 H   0  0  0  0  0  0  0  0  0  0  0  0
    2.1630    4.0450    7.6820 H   0  0  0  0  0  0  0  0  0  0  0  0
    4.4990    1.2560    6.2610 H   0  0  0  0  0  0  0  0  0  0  0  0
    4.3860    0.8470    9.2870 H   0  0  0  0  0  0  0  0  0  0  0  0
    6.7540    0.6090    7.3820 H   0  0  0  0  0  0  0  0  0  0  0  0
    6.2080    2.7250    9.5060 H   0  0  0  0  0  0  0  0  0  0  0  0
    6.0100    2.9530    6.4520 H   0  0  0  0  0  0  0  0  0  0  0  0
    6.7580    5.0690    7.3420 H   0  0  0  0  0  0  0  0  0  0  0  0
    3.8600   -0.0600    2.3900 H   0  0  0  0  0  0  0  0  0  0  0  0
   -0.6000    3.5560   -0.4030 H   0  0  0  0  0  0  0  0  0  0  0  0
    0.6000    4.6880    7.1400 H   0  0  0  0  0  0  0  0  0  0  0  0
    5.5400    5.0190    8.6310 H   0  0  0  0  0  0  0  0  0  0  0  0
  1  2  1  0  0  0  0
  1  7  1  0  0  0  0
  1 18  1  0  0  0  0
  1 98  1  1  0  0  0
  2  3  1  0  0  0  0
  2  8  1  0  0  0  0
  2 99  1  6  0  0  0
  3  4  1  0  0  0  0
  3 16  1  0  0  0  0
  3100  1  1  0  0  0
  4  5  1  0  0  0  0
  4 17  1  0  0  0  0
  4101  1  6  0  0  0
  5  6  1  0  0  0  0
  5  7  1  0  0  0  0
  5102  1  1  0  0  0
  6 12  1  0  0  0  0
  6103  1  0  0  0  0
  6121  1  0  0  0  0
  8  9  1  0  0  0  0
  8 90  1  0  0  0  0
  9 10  1  0  0  0  0
  9 11  1  0  0  0  0
 10 61  1  0  0  0  0
 10 68  1  0  0  0  0
 11 62  1  0  0  0  0
 11 67  1  0  0  0  0
 12 13  1  0  0  0  0
 12 63  1  0  0  0  0
 13 14  1  0  0  0  0
 13 15  1  0  0  0  0
 14 64  1  0  0  0  0
 14 69  1  0  0  0  0
 15 65  1  0  0  0  0
 15 66  1  0  0  0  0
 16 91  1  0  0  0  0
 17 92  1  0  0  0  0
 18 22  1  0  0  0  0
 19 20  1  0  0  0  0
 19 24  1  0  0  0  0
 19 25  1  0  0  0  0
 19104  1  1  0  0  0
 20105  1  0  0  0  0
 20122  1  0  0  0  0
 21 20  1  0  0  0  0
 21 29  1  0  0  0  0
 21106  1  1  0  0  0
 22 21  1  0  0  0  0
 22107  1  1  0  0  0
 23 22  1  0  0  0  0
 23 34  1  0  0  0  0
 23108  1  1  0  0  0
 24 23  1  0  0  0  0
 24 33  1  0  0  0  0
 24109  1  6  0  0  0
 25 26  1  0  0  0  0
 25 70  1  0  0  0  0
 26 27  1  0  0  0  0
 26 28  1  0  0  0  0
 27 71  1  0  0  0  0
 27 75  1  0  0  0  0
 28 72  1  0  0  0  0
 28 74  1  0  0  0  0
 29 30  1  0  0  0  0
 29 73  1  0  0  0  0
 30 31  1  0  0  0  0
 30 32  1  0  0  0  0
 31 76  1  0  0  0  0
 31 79  1  0  0  0  0
 32 77  1  0  0  0  0
 32 78  1  0  0  0  0
 33 93  1  0  0  0  0
 34 35  1  0  0  0  0
 35 36  1  0  0  0  0
 35 40  1  0  0  0  0
 35110  1  1  0  0  0
 36 37  1  0  0  0  0
 36 41  1  0  0  0  0
 36111  1  1  0  0  0
 37 38  1  0  0  0  0
 37 43  1  0  0  0  0
 37112  1  6  0  0  0
 38 39  1  0  0  0  0
 38 40  1  0  0  0  0
 38113  1  1  0  0  0
 39 42  1  0  0  0  0
 39114  1  0  0  0  0
 39123  1  0  0  0  0
 41 94  1  0  0  0  0
 42 95  1  0  0  0  0
 44 43  1  0  0  0  0
 44 50  1  0  0  0  0
 44115  1  6  0  0  0
 45 44  1  0  0  0  0
 45 51  1  0  0  0  0
 45116  1  1  0  0  0
 46 45  1  0  0  0  0
 46 59  1  0  0  0  0
 46117  1  6  0  0  0
 47 46  1  0  0  0  0
 47 48  1  0  0  0  0
 47 60  1  0  0  0  0
 47118  1  1  0  0  0
 48 49  1  0  0  0  0
 48 50  1  0  0  0  0
 48119  1  6  0  0  0
 49 55  1  0  0  0  0
 49120  1  0  0  0  0
 49124  1  0  0  0  0
 51 52  1  0  0  0  0
 51 80  1  0  0  0  0
 52 53  1  0  0  0  0
 52 54  1  0  0  0  0
 53 81  1  0  0  0  0
 53 89  1  0  0  0  0
 54 82  1  0  0  0  0
 54 87  1  0  0  0  0
 55 56  1  0  0  0  0
 55 83  1  0  0  0  0
 56 57  1  0  0  0  0
 56 58  1  0  0  0  0
 57 84  1  0  0  0  0
 57 88  1  0  0  0  0
 58 85  1  0  0  0  0
 58 86  1  0  0  0  0
 59 96  1  0  0  0  0
 60 97  1  0  0  0  0
M  END
$$$$
