ligand
  PyMOL2.2          3D                             0

 25 27  0  0  0  0  0  0  0  0999 V2000
   12.1650  -22.5630   25.5400 N   0  0  0  0  0  0  0  0  0  0  0  0
   11.2170  -22.8300   24.5030 C   0  0  0  0  0  0  0  0  0  0  0  0
   11.5870  -23.2100   23.3990 O   0  0  0  0  0  0  0  0  0  0  0  0
   -1.4270  -21.3840   26.0710 N   0  0  0  0  0  0  0  0  0  0  0  0
    0.4290  -21.3520   24.5480 N   0  0  0  0  0  0  0  0  0  0  0  0
   -0.0850  -21.0170   25.7540 C   0  0  0  0  0  0  0  0  0  0  0  0
    0.6560  -20.3240   26.6700 N   0  0  0  0  0  0  0  0  0  0  0  0
    1.9350  -19.9430   26.4220 C   0  0  0  0  0  0  0  0  0  0  0  0
    2.5140  -20.2870   25.1770 C   0  0  0  0  0  0  0  0  0  0  0  0
    2.6340  -19.2580   27.3880 O   0  0  0  0  0  0  0  0  0  0  0  0
    4.4740  -18.6600   25.0790 C   0  0  0  0  0  0  0  0  0  0  0  0
    3.8600  -19.9270   24.7620 N   0  0  0  0  0  0  0  0  0  0  0  0
    5.5950  -18.3430   24.6960 O   0  0  0  0  0  0  0  0  0  0  0  0
    4.4930  -20.8600   23.9310 C   0  0  0  0  0  0  0  0  0  0  0  0
    3.6310  -21.0950   22.6640 C   0  0  0  0  0  0  0  0  0  0  0  0
    1.7130  -20.9960   24.2270 C   0  0  0  0  0  0  0  0  0  0  0  0
    2.2770  -21.3730   22.9280 N   0  0  0  0  0  0  0  0  0  0  0  0
    4.7240  -22.1660   24.6640 C   0  0  0  0  0  0  0  0  0  0  0  0
    5.6960  -22.1600   25.7220 N   0  0  0  0  0  0  0  0  0  0  0  0
    9.7670  -22.6540   24.7950 C   0  0  0  0  0  0  0  0  0  0  0  0
    8.8150  -22.8040   23.7960 C   0  0  0  0  0  0  0  0  0  0  0  0
    7.4700  -22.6340   24.1010 C   0  0  0  0  0  0  0  0  0  0  0  0
    7.0790  -22.3280   25.4030 C   0  0  0  0  0  0  0  0  0  0  0  0
    8.0310  -22.1900   26.3980 C   0  0  0  0  0  0  0  0  0  0  0  0
    9.3770  -22.3490   26.0910 C   0  0  0  0  0  0  0  0  0  0  0  0
  1  2  1  0  0  0  0
  2  3  2  0  0  0  0
  5  6  4  0  0  0  0
  5 16  4  0  0  0  0
  4  6  1  0  0  0  0
  6  7  4  0  0  0  0
  7  8  4  0  0  0  0
  8  9  4  0  0  0  0
  8 10  2  0  0  0  0
  9 12  1  0  0  0  0
  9 16  4  0  0  0  0
 11 13  1  0  0  0  0
 11 12  1  0  0  0  0
 12 14  1  0  0  0  0
 14 15  1  0  0  0  0
 14 18  1  0  0  0  0
 15 17  1  0  0  0  0
 16 17  1  0  0  0  0
 18 19  1  0  0  0  0
 19 23  1  0  0  0  0
  2 20  1  0  0  0  0
 20 21  4  0  0  0  0
 20 25  4  0  0  0  0
 21 22  4  0  0  0  0
 22 23  4  0  0  0  0
 23 24  4  0  0  0  0
 24 25  4  0  0  0  0
M  END
$$$$
