ligand
 OpenBabel11021811503D
libRbt.so/2013.1/901 2013/11/27
 25 27  0  0  0  0  0  0  0  0999 V2000
   11.7454  -23.5783   26.0433 N   0  0  0  0  0  0  0  0  0  0  0  0
   10.9466  -23.0332   24.9897 C   0  0  0  0  0  0  0  0  0  0  0  0
   11.4482  -22.7386   23.9119 O   0  0  0  0  0  0  0  0  0  0  0  0
   -1.7058  -21.1706   25.9224 N   0  0  0  0  0  0  0  0  0  0  0  0
    0.2141  -21.3588   24.4928 N   0  0  0  0  0  0  0  0  0  0  0  0
   -0.3346  -20.8953   25.6395 C   0  0  0  0  0  0  0  0  0  0  0  0
    0.3996  -20.1591   26.5269 N   0  0  0  0  0  0  0  0  0  0  0  0
    1.7057  -19.8610   26.3084 C   0  0  0  0  0  0  0  0  0  0  0  0
    2.3205  -20.3398   25.1267 C   0  0  0  0  0  0  0  0  0  0  0  0
    2.3954  -19.1264   27.2442 O   0  0  0  0  0  0  0  0  0  0  0  0
    4.3620  -18.8201   24.9829 C   0  0  0  0  0  0  0  0  0  0  0  0
    3.6996  -20.0804   24.7471 N   0  0  0  0  0  0  0  0  0  0  0  0
    5.5260  -18.7337   25.3590 O   0  0  0  0  0  0  0  0  0  0  0  0
    4.3207  -21.1113   24.0307 C   0  0  2  0  0  0  0  0  0  0  0  0
    3.5040  -21.4171   22.7488 C   0  0  0  0  0  0  0  0  0  0  0  0
    1.5271  -21.0922   24.2041 C   0  0  0  0  0  0  0  0  0  0  0  0
    2.1275  -21.6080   22.9708 N   0  0  0  0  0  0  0  0  0  0  0  0
    4.4537  -22.3568   24.8835 C   0  0  0  0  0  0  0  0  0  0  0  0
    5.3863  -22.3063   25.9752 N   0  0  0  0  0  0  0  0  0  0  0  0
    9.4870  -22.8458   25.2206 C   0  0  0  0  0  0  0  0  0  0  0  0
    8.5645  -23.1343   24.2243 C   0  0  0  0  0  0  0  0  0  0  0  0
    7.2097  -22.9495   24.4715 C   0  0  0  0  0  0  0  0  0  0  0  0
    6.7795  -22.4902   25.7148 C   0  0  0  0  0  0  0  0  0  0  0  0
    7.7023  -22.2141   26.7086 C   0  0  0  0  0  0  0  0  0  0  0  0
    9.0581  -22.3882   26.4581 C   0  0  0  0  0  0  0  0  0  0  0  0
  1  2  1  0  0  0  0
  2  3  2  0  0  0  0
  2 20  1  0  0  0  0
  4  6  1  0  0  0  0
  5  6  2  0  0  0  0
  5 16  1  0  0  0  0
  6  7  1  0  0  0  0
  7  8  1  0  0  0  0
  8  9  1  0  0  0  0
  8 10  2  0  0  0  0
  9 12  1  0  0  0  0
  9 16  2  0  0  0  0
 11 13  1  0  0  0  0
 11 12  1  0  0  0  0
 12 14  1  0  0  0  0
 14 15  1  0  0  0  0
 14 18  1  1  0  0  0
 15 17  1  0  0  0  0
 16 17  1  0  0  0  0
 18 19  1  0  0  0  0
 19 23  1  0  0  0  0
 20 21  2  0  0  0  0
 20 25  1  0  0  0  0
 21 22  1  0  0  0  0
 22 23  2  0  0  0  0
 23 24  1  0  0  0  0
 24 25  2  0  0  0  0
M  END
>  <CHROM.1>
139.57581666,-69.66932496,-80.02756736,-11.48661358,-139.69779481,4.87764067
-21.37823224,25.15159668,-0.17010073,-0.18253906,0.88666696

>  <Name>
ligand

>  <RI>
0

>  <Rbt.Current_Directory>
/home/itssahil/PROJECTS/Mol_Feturizer/New_Systems/rnas/4LVV

>  <Rbt.Executable>
rbdock ($Id: //depot/dev/client3/rdock/2013.1/src/exe/rbdock.cxx#4 $)

>  <Rbt.Library>
libRbt.so (2013.1, Build901 2013/11/27)

>  <Rbt.Parameter_File>
/export/apps/rDock/src/rDock_2013.1_src/data/scripts/dock_solv.prm

>  <Rbt.Receptor>
prm/pocket_docking_2.prm

>  <SCORE>
-9.5852

>  <SCORE.INTER>
-9.10151

>  <SCORE.INTER.CONST>
1

>  <SCORE.INTER.POLAR>
0

>  <SCORE.INTER.ROT>
5

>  <SCORE.INTER.SOLV>
24.3917

>  <SCORE.INTER.VDW>
-21.1316

>  <SCORE.INTER.norm>
-0.36406

>  <SCORE.INTRA>
-0.483696

>  <SCORE.INTRA.DIHEDRAL>
-0.168694

>  <SCORE.INTRA.DIHEDRAL.0>
3.94806

>  <SCORE.INTRA.POLAR>
0

>  <SCORE.INTRA.POLAR.0>
0

>  <SCORE.INTRA.REPUL>
0

>  <SCORE.INTRA.REPUL.0>
0

>  <SCORE.INTRA.SOLV>
0.235953

>  <SCORE.INTRA.SOLV.lig_0>
-70.9803

>  <SCORE.INTRA.VDW>
-0.517325

>  <SCORE.INTRA.VDW.0>
-0.709409

>  <SCORE.INTRA.norm>
-0.0193478

>  <SCORE.RESTR>
0

>  <SCORE.RESTR.CAVITY>
0

>  <SCORE.RESTR.norm>
0

>  <SCORE.SYSTEM>
0

>  <SCORE.SYSTEM.CONST>
0

>  <SCORE.SYSTEM.DIHEDRAL>
0

>  <SCORE.SYSTEM.SOLV>
0

>  <SCORE.SYSTEM.norm>
0

>  <SCORE.heavy>
25

>  <SCORE.norm>
-0.383408

>  <RMSD>
0.487

$$$$
ligand
 OpenBabel11021811503D
libRbt.so/2013.1/901 2013/11/27
 25 27  0  0  0  0  0  0  0  0999 V2000
   11.7407  -23.8130   26.0410 N   0  0  0  0  0  0  0  0  0  0  0  0
   10.9399  -23.1753   25.0423 C   0  0  0  0  0  0  0  0  0  0  0  0
   11.4185  -22.8697   23.9571 O   0  0  0  0  0  0  0  0  0  0  0  0
   -1.7153  -21.2586   25.9128 N   0  0  0  0  0  0  0  0  0  0  0  0
    0.2287  -21.4344   24.5145 N   0  0  0  0  0  0  0  0  0  0  0  0
   -0.3514  -20.9446   25.6345 C   0  0  0  0  0  0  0  0  0  0  0  0
    0.3437  -20.1457   26.4987 N   0  0  0  0  0  0  0  0  0  0  0  0
    1.6407  -19.8086   26.2830 C   0  0  0  0  0  0  0  0  0  0  0  0
    2.2879  -20.3127   25.1295 C   0  0  0  0  0  0  0  0  0  0  0  0
    2.2909  -19.0109   27.1952 O   0  0  0  0  0  0  0  0  0  0  0  0
    4.2743  -18.7255   24.9459 C   0  0  0  0  0  0  0  0  0  0  0  0
    3.6615  -20.0182   24.7553 N   0  0  0  0  0  0  0  0  0  0  0  0
    5.4398  -18.5807   25.2985 O   0  0  0  0  0  0  0  0  0  0  0  0
    4.3291  -21.0541   24.0898 C   0  0  2  0  0  0  0  0  0  0  0  0
    3.5410  -21.4427   22.8125 C   0  0  0  0  0  0  0  0  0  0  0  0
    1.5347  -21.1314   24.2300 C   0  0  0  0  0  0  0  0  0  0  0  0
    2.1697  -21.6751   23.0263 N   0  0  0  0  0  0  0  0  0  0  0  0
    4.4965  -22.2575   24.9953 C   0  0  0  0  0  0  0  0  0  0  0  0
    5.4375  -22.1390   26.0745 N   0  0  0  0  0  0  0  0  0  0  0  0
    9.5057  -22.9040   25.3393 C   0  0  0  0  0  0  0  0  0  0  0  0
    9.1024  -22.5092   26.6075 C   0  0  0  0  0  0  0  0  0  0  0  0
    7.7568  -22.2629   26.8522 C   0  0  0  0  0  0  0  0  0  0  0  0
    6.8212  -22.3989   25.8285 C   0  0  0  0  0  0  0  0  0  0  0  0
    7.2295  -22.7824   24.5630 C   0  0  0  0  0  0  0  0  0  0  0  0
    8.5736  -23.0395   24.3208 C   0  0  0  0  0  0  0  0  0  0  0  0
  1  2  1  0  0  0  0
  2  3  2  0  0  0  0
  2 20  1  0  0  0  0
  4  6  1  0  0  0  0
  5  6  2  0  0  0  0
  5 16  1  0  0  0  0
  6  7  1  0  0  0  0
  7  8  1  0  0  0  0
  8  9  1  0  0  0  0
  8 10  2  0  0  0  0
  9 12  1  0  0  0  0
  9 16  2  0  0  0  0
 11 13  1  0  0  0  0
 11 12  1  0  0  0  0
 12 14  1  0  0  0  0
 14 15  1  0  0  0  0
 14 18  1  1  0  0  0
 15 17  1  0  0  0  0
 16 17  1  0  0  0  0
 18 19  1  0  0  0  0
 19 23  1  0  0  0  0
 20 21  2  0  0  0  0
 20 25  1  0  0  0  0
 21 22  1  0  0  0  0
 22 23  2  0  0  0  0
 23 24  1  0  0  0  0
 24 25  2  0  0  0  0
M  END
>  <CHROM.1>
141.51227756,-71.20486189,-84.46950956,178.62941672,37.64123898,4.86974117
-21.37260129,25.19027185,-0.18465147,-0.18271746,0.81332054

>  <Name>
ligand

>  <RI>
0

>  <Rbt.Current_Directory>
/home/itssahil/PROJECTS/Mol_Feturizer/New_Systems/rnas/4LVV

>  <Rbt.Executable>
rbdock ($Id: //depot/dev/client3/rdock/2013.1/src/exe/rbdock.cxx#4 $)

>  <Rbt.Library>
libRbt.so (2013.1, Build901 2013/11/27)

>  <Rbt.Parameter_File>
/export/apps/rDock/src/rDock_2013.1_src/data/scripts/dock_solv.prm

>  <Rbt.Receptor>
prm/pocket_docking_2.prm

>  <SCORE>
-9.64893

>  <SCORE.INTER>
-9.51144

>  <SCORE.INTER.CONST>
1

>  <SCORE.INTER.POLAR>
0

>  <SCORE.INTER.ROT>
5

>  <SCORE.INTER.SOLV>
24.4042

>  <SCORE.INTER.VDW>
-21.409

>  <SCORE.INTER.norm>
-0.380458

>  <SCORE.INTRA>
-0.137492

>  <SCORE.INTRA.DIHEDRAL>
0.0101694

>  <SCORE.INTRA.DIHEDRAL.0>
3.94806

>  <SCORE.INTRA.POLAR>
0

>  <SCORE.INTRA.POLAR.0>
0

>  <SCORE.INTRA.REPUL>
0

>  <SCORE.INTRA.REPUL.0>
0

>  <SCORE.INTRA.SOLV>
0.200183

>  <SCORE.INTRA.SOLV.lig_0>
-70.9803

>  <SCORE.INTRA.VDW>
-0.242668

>  <SCORE.INTRA.VDW.0>
-0.709409

>  <SCORE.INTRA.norm>
-0.00549969

>  <SCORE.RESTR>
0

>  <SCORE.RESTR.CAVITY>
0

>  <SCORE.RESTR.norm>
0

>  <SCORE.SYSTEM>
0

>  <SCORE.SYSTEM.CONST>
0

>  <SCORE.SYSTEM.DIHEDRAL>
0

>  <SCORE.SYSTEM.SOLV>
0

>  <SCORE.SYSTEM.norm>
0

>  <SCORE.heavy>
25

>  <SCORE.norm>
-0.385957

>  <RMSD>
0.532

$$$$
ligand
 OpenBabel11021811503D
libRbt.so/2013.1/901 2013/11/27
 25 27  0  0  0  0  0  0  0  0999 V2000
   11.6568  -24.0635   24.7132 N   0  0  0  0  0  0  0  0  0  0  0  0
   10.7085  -23.4637   23.8264 C   0  0  0  0  0  0  0  0  0  0  0  0
   11.0135  -23.1972   22.6705 O   0  0  0  0  0  0  0  0  0  0  0  0
   -1.8141  -21.2229   25.8789 N   0  0  0  0  0  0  0  0  0  0  0  0
    0.1295  -21.4014   24.4803 N   0  0  0  0  0  0  0  0  0  0  0  0
   -0.4427  -20.9317   25.6130 C   0  0  0  0  0  0  0  0  0  0  0  0
    0.2677  -20.1744   26.5018 N   0  0  0  0  0  0  0  0  0  0  0  0
    1.5726  -19.8604   26.2991 C   0  0  0  0  0  0  0  0  0  0  0  0
    2.2116  -20.3450   25.1327 C   0  0  0  0  0  0  0  0  0  0  0  0
    2.2379  -19.1047   27.2358 O   0  0  0  0  0  0  0  0  0  0  0  0
    4.2336  -18.7983   25.0002 C   0  0  0  0  0  0  0  0  0  0  0  0
    3.5926  -20.0707   24.7704 N   0  0  0  0  0  0  0  0  0  0  0  0
    4.8256  -18.5228   26.0383 O   0  0  0  0  0  0  0  0  0  0  0  0
    4.2387  -21.1014   24.0761 C   0  0  2  0  0  0  0  0  0  0  0  0
    3.4457  -21.4344   22.7862 C   0  0  0  0  0  0  0  0  0  0  0  0
    1.4428  -21.1197   24.2078 C   0  0  0  0  0  0  0  0  0  0  0  0
    2.0689  -21.6420   22.9901 N   0  0  0  0  0  0  0  0  0  0  0  0
    4.3763  -22.3343   24.9463 C   0  0  0  0  0  0  0  0  0  0  0  0
    5.4963  -22.3797   25.8450 N   0  0  0  0  0  0  0  0  0  0  0  0
    9.3346  -23.1837   24.3293 C   0  0  0  0  0  0  0  0  0  0  0  0
    8.2196  -23.4632   23.5511 C   0  0  0  0  0  0  0  0  0  0  0  0
    6.9514  -23.1911   24.0495 C   0  0  0  0  0  0  0  0  0  0  0  0
    6.7995  -22.6537   25.3262 C   0  0  0  0  0  0  0  0  0  0  0  0
    7.9137  -22.3867   26.1025 C   0  0  0  0  0  0  0  0  0  0  0  0
    9.1827  -22.6484   25.6001 C   0  0  0  0  0  0  0  0  0  0  0  0
  1  2  1  0  0  0  0
  2  3  2  0  0  0  0
  2 20  1  0  0  0  0
  4  6  1  0  0  0  0
  5  6  2  0  0  0  0
  5 16  1  0  0  0  0
  6  7  1  0  0  0  0
  7  8  1  0  0  0  0
  8  9  1  0  0  0  0
  8 10  2  0  0  0  0
  9 12  1  0  0  0  0
  9 16  2  0  0  0  0
 11 13  1  0  0  0  0
 11 12  1  0  0  0  0
 12 14  1  0  0  0  0
 14 15  1  0  0  0  0
 14 18  1  1  0  0  0
 15 17  1  0  0  0  0
 16 17  1  0  0  0  0
 18 19  1  0  0  0  0
 19 23  1  0  0  0  0
 20 21  2  0  0  0  0
 20 25  1  0  0  0  0
 21 22  1  0  0  0  0
 22 23  2  0  0  0  0
 23 24  1  0  0  0  0
 24 25  2  0  0  0  0
M  END
>  <CHROM.1>
89.15409521,-83.82691453,-75.60846895,-15.75945401,-136.83514707,4.74291118
-21.48890503,24.88669933,-0.30464104,-0.11892829,0.77767866

>  <Name>
ligand

>  <RI>
0

>  <Rbt.Current_Directory>
/home/itssahil/PROJECTS/Mol_Feturizer/New_Systems/rnas/4LVV

>  <Rbt.Executable>
rbdock ($Id: //depot/dev/client3/rdock/2013.1/src/exe/rbdock.cxx#4 $)

>  <Rbt.Library>
libRbt.so (2013.1, Build901 2013/11/27)

>  <Rbt.Parameter_File>
/export/apps/rDock/src/rDock_2013.1_src/data/scripts/dock_solv.prm

>  <Rbt.Receptor>
prm/pocket_docking_2.prm

>  <SCORE>
-9.94251

>  <SCORE.INTER>
-10.1026

>  <SCORE.INTER.CONST>
1

>  <SCORE.INTER.POLAR>
0

>  <SCORE.INTER.ROT>
5

>  <SCORE.INTER.SOLV>
25.4519

>  <SCORE.INTER.VDW>
-22.1524

>  <SCORE.INTER.norm>
-0.404104

>  <SCORE.INTRA>
0.160087

>  <SCORE.INTRA.DIHEDRAL>
1.46994

>  <SCORE.INTRA.DIHEDRAL.0>
3.94806

>  <SCORE.INTRA.POLAR>
0

>  <SCORE.INTRA.POLAR.0>
0

>  <SCORE.INTRA.REPUL>
0

>  <SCORE.INTRA.REPUL.0>
0

>  <SCORE.INTRA.SOLV>
0.0308416

>  <SCORE.INTRA.SOLV.lig_0>
-70.9803

>  <SCORE.INTRA.VDW>
-0.590305

>  <SCORE.INTRA.VDW.0>
-0.709409

>  <SCORE.INTRA.norm>
0.00640348

>  <SCORE.RESTR>
0

>  <SCORE.RESTR.CAVITY>
0

>  <SCORE.RESTR.norm>
0

>  <SCORE.SYSTEM>
0

>  <SCORE.SYSTEM.CONST>
0

>  <SCORE.SYSTEM.DIHEDRAL>
0

>  <SCORE.SYSTEM.SOLV>
0

>  <SCORE.SYSTEM.norm>
0

>  <SCORE.heavy>
25

>  <SCORE.norm>
-0.3977

>  <RMSD>
0.709

$$$$
ligand
 OpenBabel11021811503D
libRbt.so/2013.1/901 2013/11/27
 25 27  0  0  0  0  0  0  0  0999 V2000
   11.7645  -23.9954   24.5602 N   0  0  0  0  0  0  0  0  0  0  0  0
   10.7485  -23.5655   23.6500 C   0  0  0  0  0  0  0  0  0  0  0  0
   10.9854  -23.4561   22.4533 O   0  0  0  0  0  0  0  0  0  0  0  0
   -1.7211  -21.2336   25.9065 N   0  0  0  0  0  0  0  0  0  0  0  0
    0.2056  -21.4186   24.4856 N   0  0  0  0  0  0  0  0  0  0  0  0
   -0.3522  -20.9463   25.6243 C   0  0  0  0  0  0  0  0  0  0  0  0
    0.3705  -20.1900   26.5042 N   0  0  0  0  0  0  0  0  0  0  0  0
    1.6738  -19.8797   26.2860 C   0  0  0  0  0  0  0  0  0  0  0  0
    2.2980  -20.3670   25.1127 C   0  0  0  0  0  0  0  0  0  0  0  0
    2.3519  -19.1249   27.2141 O   0  0  0  0  0  0  0  0  0  0  0  0
    4.3224  -18.8258   24.9553 C   0  0  0  0  0  0  0  0  0  0  0  0
    3.6753  -20.0967   24.7341 N   0  0  0  0  0  0  0  0  0  0  0  0
    5.0849  -18.6150   25.8923 O   0  0  0  0  0  0  0  0  0  0  0  0
    4.3106  -21.1298   24.0335 C   0  0  2  0  0  0  0  0  0  0  0  0
    3.5018  -21.4620   22.7532 C   0  0  0  0  0  0  0  0  0  0  0  0
    1.5164  -21.1406   24.1976 C   0  0  0  0  0  0  0  0  0  0  0  0
    2.1269  -21.6658   22.9732 N   0  0  0  0  0  0  0  0  0  0  0  0
    4.4551  -22.3623   24.9032 C   0  0  0  0  0  0  0  0  0  0  0  0
    5.5939  -22.4168   25.7775 N   0  0  0  0  0  0  0  0  0  0  0  0
    9.3891  -23.2689   24.1817 C   0  0  0  0  0  0  0  0  0  0  0  0
    8.2539  -23.5504   23.4341 C   0  0  0  0  0  0  0  0  0  0  0  0
    6.9998  -23.2625   23.9588 C   0  0  0  0  0  0  0  0  0  0  0  0
    6.8823  -22.7072   25.2315 C   0  0  0  0  0  0  0  0  0  0  0  0
    8.0166  -22.4382   25.9774 C   0  0  0  0  0  0  0  0  0  0  0  0
    9.2714  -22.7157   25.4485 C   0  0  0  0  0  0  0  0  0  0  0  0
  1  2  1  0  0  0  0
  2  3  2  0  0  0  0
  2 20  1  0  0  0  0
  4  6  1  0  0  0  0
  5  6  2  0  0  0  0
  5 16  1  0  0  0  0
  6  7  1  0  0  0  0
  7  8  1  0  0  0  0
  8  9  1  0  0  0  0
  8 10  2  0  0  0  0
  9 12  1  0  0  0  0
  9 16  2  0  0  0  0
 11 13  1  0  0  0  0
 11 12  1  0  0  0  0
 12 14  1  0  0  0  0
 14 15  1  0  0  0  0
 14 18  1  1  0  0  0
 15 17  1  0  0  0  0
 16 17  1  0  0  0  0
 18 19  1  0  0  0  0
 19 23  1  0  0  0  0
 20 21  2  0  0  0  0
 20 25  1  0  0  0  0
 21 22  1  0  0  0  0
 22 23  2  0  0  0  0
 23 24  1  0  0  0  0
 24 25  2  0  0  0  0
M  END
>  <CHROM.1>
100.03109213,-84.53905983,-75.72828871,-16.35976913,-144.92698313,4.82662759
-21.53538595,24.81774207,-0.32083747,-0.11139466,0.77532600

>  <Name>
ligand

>  <RI>
0

>  <Rbt.Current_Directory>
/home/itssahil/PROJECTS/Mol_Feturizer/New_Systems/rnas/4LVV

>  <Rbt.Executable>
rbdock ($Id: //depot/dev/client3/rdock/2013.1/src/exe/rbdock.cxx#4 $)

>  <Rbt.Library>
libRbt.so (2013.1, Build901 2013/11/27)

>  <Rbt.Parameter_File>
/export/apps/rDock/src/rDock_2013.1_src/data/scripts/dock_solv.prm

>  <Rbt.Receptor>
prm/pocket_docking_2.prm

>  <SCORE>
-9.87729

>  <SCORE.INTER>
-10.1072

>  <SCORE.INTER.CONST>
1

>  <SCORE.INTER.POLAR>
0

>  <SCORE.INTER.ROT>
5

>  <SCORE.INTER.SOLV>
24.8739

>  <SCORE.INTER.VDW>
-21.9628

>  <SCORE.INTER.norm>
-0.404288

>  <SCORE.INTRA>
0.229922

>  <SCORE.INTRA.DIHEDRAL>
1.56151

>  <SCORE.INTRA.DIHEDRAL.0>
3.94806

>  <SCORE.INTRA.POLAR>
0

>  <SCORE.INTRA.POLAR.0>
0

>  <SCORE.INTRA.REPUL>
0

>  <SCORE.INTRA.REPUL.0>
0

>  <SCORE.INTRA.SOLV>
0.0303923

>  <SCORE.INTRA.SOLV.lig_0>
-70.9803

>  <SCORE.INTRA.VDW>
-0.566027

>  <SCORE.INTRA.VDW.0>
-0.709409

>  <SCORE.INTRA.norm>
0.00919688

>  <SCORE.RESTR>
0

>  <SCORE.RESTR.CAVITY>
0

>  <SCORE.RESTR.norm>
0

>  <SCORE.SYSTEM>
0

>  <SCORE.SYSTEM.CONST>
0

>  <SCORE.SYSTEM.DIHEDRAL>
0

>  <SCORE.SYSTEM.SOLV>
0

>  <SCORE.SYSTEM.norm>
0

>  <SCORE.heavy>
25

>  <SCORE.norm>
-0.395091

>  <RMSD>
0.716

$$$$
ligand
 OpenBabel11021811503D
libRbt.so/2013.1/901 2013/11/27
 25 27  0  0  0  0  0  0  0  0999 V2000
   11.7821  -24.1855   24.4411 N   0  0  0  0  0  0  0  0  0  0  0  0
   10.8459  -23.4451   23.6533 C   0  0  0  0  0  0  0  0  0  0  0  0
   11.1646  -22.9970   22.5589 O   0  0  0  0  0  0  0  0  0  0  0  0
   -1.5903  -21.1627   25.9410 N   0  0  0  0  0  0  0  0  0  0  0  0
    0.2762  -21.3343   24.4402 N   0  0  0  0  0  0  0  0  0  0  0  0
   -0.2158  -20.9318   25.6347 C   0  0  0  0  0  0  0  0  0  0  0  0
    0.5789  -20.2986   26.5489 N   0  0  0  0  0  0  0  0  0  0  0  0
    1.8912  -20.0466   26.3107 C   0  0  0  0  0  0  0  0  0  0  0  0
    2.4474  -20.4650   25.0781 C   0  0  0  0  0  0  0  0  0  0  0  0
    2.6428  -19.4165   27.2745 O   0  0  0  0  0  0  0  0  0  0  0  0
    4.5562  -19.0361   24.9791 C   0  0  0  0  0  0  0  0  0  0  0  0
    3.8262  -20.2431   24.6740 N   0  0  0  0  0  0  0  0  0  0  0  0
    4.4079  -17.9876   24.3607 O   0  0  0  0  0  0  0  0  0  0  0  0
    4.3750  -21.2461   23.8650 C   0  0  2  0  0  0  0  0  0  0  0  0
    3.5077  -21.4176   22.5913 C   0  0  0  0  0  0  0  0  0  0  0  0
    1.5918  -21.1089   24.1294 C   0  0  0  0  0  0  0  0  0  0  0  0
    2.1305  -21.5596   22.8432 N   0  0  0  0  0  0  0  0  0  0  0  0
    4.4711  -22.5562   24.6204 C   0  0  0  0  0  0  0  0  0  0  0  0
    5.5394  -22.6863   25.5723 N   0  0  0  0  0  0  0  0  0  0  0  0
    9.4676  -23.2428   24.1807 C   0  0  0  0  0  0  0  0  0  0  0  0
    9.2591  -22.7263   25.4522 C   0  0  0  0  0  0  0  0  0  0  0  0
    7.9608  -22.5488   25.9146 C   0  0  0  0  0  0  0  0  0  0  0  0
    6.8762  -22.8747   25.1029 C   0  0  0  0  0  0  0  0  0  0  0  0
    7.0889  -23.3793   23.8318 C   0  0  0  0  0  0  0  0  0  0  0  0
    8.3871  -23.5673   23.3732 C   0  0  0  0  0  0  0  0  0  0  0  0
  1  2  1  0  0  0  0
  2  3  2  0  0  0  0
  2 20  1  0  0  0  0
  4  6  1  0  0  0  0
  5  6  2  0  0  0  0
  5 16  1  0  0  0  0
  6  7  1  0  0  0  0
  7  8  1  0  0  0  0
  8  9  1  0  0  0  0
  8 10  2  0  0  0  0
  9 12  1  0  0  0  0
  9 16  2  0  0  0  0
 11 13  1  0  0  0  0
 11 12  1  0  0  0  0
 12 14  1  0  0  0  0
 14 15  1  0  0  0  0
 14 18  1  1  0  0  0
 15 17  1  0  0  0  0
 16 17  1  0  0  0  0
 18 19  1  0  0  0  0
 19 23  1  0  0  0  0
 20 21  2  0  0  0  0
 20 25  1  0  0  0  0
 21 22  1  0  0  0  0
 22 23  2  0  0  0  0
 23 24  1  0  0  0  0
 24 25  2  0  0  0  0
M  END
>  <CHROM.1>
-78.10354970,-76.88417213,-74.02103218,157.69904673,52.21406896,4.88466945
-21.55379141,24.69179175,-0.32439757,-0.08746693,0.69500432

>  <Name>
ligand

>  <RI>
0

>  <Rbt.Current_Directory>
/home/itssahil/PROJECTS/Mol_Feturizer/New_Systems/rnas/4LVV

>  <Rbt.Executable>
rbdock ($Id: //depot/dev/client3/rdock/2013.1/src/exe/rbdock.cxx#4 $)

>  <Rbt.Library>
libRbt.so (2013.1, Build901 2013/11/27)

>  <Rbt.Parameter_File>
/export/apps/rDock/src/rDock_2013.1_src/data/scripts/dock_solv.prm

>  <Rbt.Receptor>
prm/pocket_docking_3.prm

>  <SCORE>
-10.0185

>  <SCORE.INTER>
-9.42466

>  <SCORE.INTER.CONST>
1

>  <SCORE.INTER.POLAR>
0

>  <SCORE.INTER.ROT>
5

>  <SCORE.INTER.SOLV>
24.9309

>  <SCORE.INTER.VDW>
-21.5267

>  <SCORE.INTER.norm>
-0.376986

>  <SCORE.INTRA>
-0.59382

>  <SCORE.INTRA.DIHEDRAL>
0.264993

>  <SCORE.INTRA.DIHEDRAL.0>
3.94806

>  <SCORE.INTRA.POLAR>
0

>  <SCORE.INTRA.POLAR.0>
0

>  <SCORE.INTRA.REPUL>
0

>  <SCORE.INTRA.REPUL.0>
0

>  <SCORE.INTRA.SOLV>
-0.32238

>  <SCORE.INTRA.SOLV.lig_0>
-70.9803

>  <SCORE.INTRA.VDW>
-0.565126

>  <SCORE.INTRA.VDW.0>
-0.709409

>  <SCORE.INTRA.norm>
-0.0237528

>  <SCORE.RESTR>
0

>  <SCORE.RESTR.CAVITY>
0

>  <SCORE.RESTR.norm>
0

>  <SCORE.SYSTEM>
0

>  <SCORE.SYSTEM.CONST>
0

>  <SCORE.SYSTEM.DIHEDRAL>
0

>  <SCORE.SYSTEM.SOLV>
0

>  <SCORE.SYSTEM.norm>
0

>  <SCORE.heavy>
25

>  <SCORE.norm>
-0.400739

>  <RMSD>
0.726

$$$$
ligand
 OpenBabel11021811503D
libRbt.so/2013.1/901 2013/11/27
 25 27  0  0  0  0  0  0  0  0999 V2000
   11.6028  -22.3503   23.7190 N   0  0  0  0  0  0  0  0  0  0  0  0
   10.7165  -23.4351   24.0069 C   0  0  0  0  0  0  0  0  0  0  0  0
   11.0695  -24.5951   23.8338 O   0  0  0  0  0  0  0  0  0  0  0  0
   -1.8217  -21.2543   25.8961 N   0  0  0  0  0  0  0  0  0  0  0  0
    0.1287  -21.4505   24.5094 N   0  0  0  0  0  0  0  0  0  0  0  0
   -0.4545  -20.9503   25.6232 C   0  0  0  0  0  0  0  0  0  0  0  0
    0.2408  -20.1503   26.4863 N   0  0  0  0  0  0  0  0  0  0  0  0
    1.5410  -19.8223   26.2756 C   0  0  0  0  0  0  0  0  0  0  0  0
    2.1914  -20.3375   25.1288 C   0  0  0  0  0  0  0  0  0  0  0  0
    2.1910  -19.0230   27.1864 O   0  0  0  0  0  0  0  0  0  0  0  0
    4.1882  -18.7635   24.9462 C   0  0  0  0  0  0  0  0  0  0  0  0
    3.5687  -20.0536   24.7602 N   0  0  0  0  0  0  0  0  0  0  0  0
    4.1318  -17.8656   24.1129 O   0  0  0  0  0  0  0  0  0  0  0  0
    4.2336  -21.0976   24.1047 C   0  0  2  0  0  0  0  0  0  0  0  0
    3.4500  -21.4893   22.8256 C   0  0  0  0  0  0  0  0  0  0  0  0
    1.4380  -21.1572   24.2302 C   0  0  0  0  0  0  0  0  0  0  0  0
    2.0762  -21.7121   23.0334 N   0  0  0  0  0  0  0  0  0  0  0  0
    4.3887  -22.2964   25.0185 C   0  0  0  0  0  0  0  0  0  0  0  0
    5.4887  -22.2773   25.9426 N   0  0  0  0  0  0  0  0  0  0  0  0
    9.3591  -23.1295   24.5387 C   0  0  0  0  0  0  0  0  0  0  0  0
    9.1932  -22.6149   25.8171 C   0  0  0  0  0  0  0  0  0  0  0  0
    7.9135  -22.3396   26.2836 C   0  0  0  0  0  0  0  0  0  0  0  0
    6.8059  -22.5665   25.4690 C   0  0  0  0  0  0  0  0  0  0  0  0
    6.9770  -23.0696   24.1911 C   0  0  0  0  0  0  0  0  0  0  0  0
    8.2558  -23.3554   23.7284 C   0  0  0  0  0  0  0  0  0  0  0  0
  1  2  1  0  0  0  0
  2  3  2  0  0  0  0
  2 20  1  0  0  0  0
  4  6  1  0  0  0  0
  5  6  2  0  0  0  0
  5 16  1  0  0  0  0
  6  7  1  0  0  0  0
  7  8  1  0  0  0  0
  8  9  1  0  0  0  0
  8 10  2  0  0  0  0
  9 12  1  0  0  0  0
  9 16  2  0  0  0  0
 11 13  1  0  0  0  0
 11 12  1  0  0  0  0
 12 14  1  0  0  0  0
 14 15  1  0  0  0  0
 14 18  1  1  0  0  0
 15 17  1  0  0  0  0
 16 17  1  0  0  0  0
 18 19  1  0  0  0  0
 19 23  1  0  0  0  0
 20 21  2  0  0  0  0
 20 25  1  0  0  0  0
 21 22  1  0  0  0  0
 22 23  2  0  0  0  0
 23 24  1  0  0  0  0
 24 25  2  0  0  0  0
M  END
>  <CHROM.1>
-87.65893896,-82.42132723,-77.44716458,169.27162711,-69.05108309,4.70540235
-21.43101727,24.86151104,-0.31750714,-0.00973531,0.37341406

>  <Name>
ligand

>  <RI>
0

>  <Rbt.Current_Directory>
/home/itssahil/PROJECTS/Mol_Feturizer/New_Systems/rnas/4LVV

>  <Rbt.Executable>
rbdock ($Id: //depot/dev/client3/rdock/2013.1/src/exe/rbdock.cxx#4 $)

>  <Rbt.Library>
libRbt.so (2013.1, Build901 2013/11/27)

>  <Rbt.Parameter_File>
/export/apps/rDock/src/rDock_2013.1_src/data/scripts/dock_solv.prm

>  <Rbt.Receptor>
prm/pocket_docking_2.prm

>  <SCORE>
-10.0779

>  <SCORE.INTER>
-9.94795

>  <SCORE.INTER.CONST>
1

>  <SCORE.INTER.POLAR>
0

>  <SCORE.INTER.ROT>
5

>  <SCORE.INTER.SOLV>
25.7187

>  <SCORE.INTER.VDW>
-22.1382

>  <SCORE.INTER.norm>
-0.397918

>  <SCORE.INTRA>
-0.129986

>  <SCORE.INTRA.DIHEDRAL>
0.972605

>  <SCORE.INTRA.DIHEDRAL.0>
3.94806

>  <SCORE.INTRA.POLAR>
0

>  <SCORE.INTRA.POLAR.0>
0

>  <SCORE.INTRA.REPUL>
0

>  <SCORE.INTRA.REPUL.0>
0

>  <SCORE.INTRA.SOLV>
-0.427716

>  <SCORE.INTRA.SOLV.lig_0>
-70.9803

>  <SCORE.INTRA.VDW>
-0.40243

>  <SCORE.INTRA.VDW.0>
-0.709409

>  <SCORE.INTRA.norm>
-0.00519943

>  <SCORE.RESTR>
0

>  <SCORE.RESTR.CAVITY>
0

>  <SCORE.RESTR.norm>
0

>  <SCORE.SYSTEM>
0

>  <SCORE.SYSTEM.CONST>
0

>  <SCORE.SYSTEM.DIHEDRAL>
0

>  <SCORE.SYSTEM.SOLV>
0

>  <SCORE.SYSTEM.norm>
0

>  <SCORE.heavy>
25

>  <SCORE.norm>
-0.403117

>  <RMSD>
0.749

$$$$
ligand
 OpenBabel11021811503D
libRbt.so/2013.1/901 2013/11/27
 25 27  0  0  0  0  0  0  0  0999 V2000
   11.4650  -24.4513   25.0810 N   0  0  0  0  0  0  0  0  0  0  0  0
   10.9787  -23.1083   25.0088 C   0  0  0  0  0  0  0  0  0  0  0  0
   11.7310  -22.1843   24.7253 O   0  0  0  0  0  0  0  0  0  0  0  0
   -1.7152  -21.2840   25.9337 N   0  0  0  0  0  0  0  0  0  0  0  0
    0.2339  -21.4744   24.5445 N   0  0  0  0  0  0  0  0  0  0  0  0
   -0.3525  -20.9669   25.6533 C   0  0  0  0  0  0  0  0  0  0  0  0
    0.3351  -20.1473   26.5040 N   0  0  0  0  0  0  0  0  0  0  0  0
    1.6307  -19.8063   26.2855 C   0  0  0  0  0  0  0  0  0  0  0  0
    2.2844  -20.3284   25.1437 C   0  0  0  0  0  0  0  0  0  0  0  0
    2.2732  -18.9873   27.1841 O   0  0  0  0  0  0  0  0  0  0  0  0
    4.2613  -18.7326   24.9353 C   0  0  0  0  0  0  0  0  0  0  0  0
    3.6572  -20.0325   24.7678 N   0  0  0  0  0  0  0  0  0  0  0  0
    3.6893  -17.6853   24.6529 O   0  0  0  0  0  0  0  0  0  0  0  0
    4.3331  -21.0768   24.1240 C   0  0  2  0  0  0  0  0  0  0  0  0
    3.5511  -21.4946   22.8523 C   0  0  0  0  0  0  0  0  0  0  0  0
    1.5388  -21.1688   24.2579 C   0  0  0  0  0  0  0  0  0  0  0  0
    2.1806  -21.7314   23.0667 N   0  0  0  0  0  0  0  0  0  0  0  0
    4.5053  -22.2616   25.0530 C   0  0  0  0  0  0  0  0  0  0  0  0
    5.4770  -22.1341   26.1035 N   0  0  0  0  0  0  0  0  0  0  0  0
    9.5341  -22.8544   25.2682 C   0  0  0  0  0  0  0  0  0  0  0  0
    8.5875  -23.0355   24.2692 C   0  0  0  0  0  0  0  0  0  0  0  0
    7.2474  -22.7908   24.5435 C   0  0  0  0  0  0  0  0  0  0  0  0
    6.8553  -22.3793   25.8157 C   0  0  0  0  0  0  0  0  0  0  0  0
    7.8014  -22.2104   26.8116 C   0  0  0  0  0  0  0  0  0  0  0  0
    9.1430  -22.4443   26.5346 C   0  0  0  0  0  0  0  0  0  0  0  0
  1  2  1  0  0  0  0
  2  3  2  0  0  0  0
  2 20  1  0  0  0  0
  4  6  1  0  0  0  0
  5  6  2  0  0  0  0
  5 16  1  0  0  0  0
  6  7  1  0  0  0  0
  7  8  1  0  0  0  0
  8  9  1  0  0  0  0
  8 10  2  0  0  0  0
  9 12  1  0  0  0  0
  9 16  2  0  0  0  0
 11 13  1  0  0  0  0
 11 12  1  0  0  0  0
 12 14  1  0  0  0  0
 14 15  1  0  0  0  0
 14 18  1  1  0  0  0
 15 17  1  0  0  0  0
 16 17  1  0  0  0  0
 18 19  1  0  0  0  0
 19 23  1  0  0  0  0
 20 21  2  0  0  0  0
 20 25  1  0  0  0  0
 21 22  1  0  0  0  0
 22 23  2  0  0  0  0
 23 24  1  0  0  0  0
 24 25  2  0  0  0  0
M  END
>  <CHROM.1>
-43.53214561,-73.37196061,-82.37160724,-2.60800840,-82.24812045,4.79796895
-21.32518090,25.15746106,0.25460547,0.09902564,-2.72045458

>  <Name>
ligand

>  <RI>
0

>  <Rbt.Current_Directory>
/home/itssahil/PROJECTS/Mol_Feturizer/New_Systems/rnas/4LVV

>  <Rbt.Executable>
rbdock ($Id: //depot/dev/client3/rdock/2013.1/src/exe/rbdock.cxx#4 $)

>  <Rbt.Library>
libRbt.so (2013.1, Build901 2013/11/27)

>  <Rbt.Parameter_File>
/export/apps/rDock/src/rDock_2013.1_src/data/scripts/dock_solv.prm

>  <Rbt.Receptor>
prm/pocket_docking_2.prm

>  <SCORE>
-9.98841

>  <SCORE.INTER>
-9.49924

>  <SCORE.INTER.CONST>
1

>  <SCORE.INTER.POLAR>
0

>  <SCORE.INTER.ROT>
5

>  <SCORE.INTER.SOLV>
25.4806

>  <SCORE.INTER.VDW>
-21.7597

>  <SCORE.INTER.norm>
-0.379969

>  <SCORE.INTRA>
-0.489171

>  <SCORE.INTRA.DIHEDRAL>
0.373398

>  <SCORE.INTRA.DIHEDRAL.0>
3.94806

>  <SCORE.INTRA.POLAR>
0

>  <SCORE.INTRA.POLAR.0>
0

>  <SCORE.INTRA.REPUL>
0

>  <SCORE.INTRA.REPUL.0>
0

>  <SCORE.INTRA.SOLV>
-0.145383

>  <SCORE.INTRA.SOLV.lig_0>
-70.9803

>  <SCORE.INTRA.VDW>
-0.603179

>  <SCORE.INTRA.VDW.0>
-0.709409

>  <SCORE.INTRA.norm>
-0.0195668

>  <SCORE.RESTR>
0

>  <SCORE.RESTR.CAVITY>
0

>  <SCORE.RESTR.norm>
0

>  <SCORE.SYSTEM>
0

>  <SCORE.SYSTEM.CONST>
0

>  <SCORE.SYSTEM.DIHEDRAL>
0

>  <SCORE.SYSTEM.SOLV>
0

>  <SCORE.SYSTEM.norm>
0

>  <SCORE.heavy>
25

>  <SCORE.norm>
-0.399536

>  <RMSD>
0.777

$$$$
ligand
 OpenBabel11021811503D
libRbt.so/2013.1/901 2013/11/27
 25 27  0  0  0  0  0  0  0  0999 V2000
   11.7556  -22.7753   23.9740 N   0  0  0  0  0  0  0  0  0  0  0  0
   10.6497  -23.5954   23.5868 C   0  0  0  0  0  0  0  0  0  0  0  0
   10.8079  -24.5409   22.8245 O   0  0  0  0  0  0  0  0  0  0  0  0
   -1.7961  -21.1977   25.8791 N   0  0  0  0  0  0  0  0  0  0  0  0
    0.1464  -21.3872   24.4805 N   0  0  0  0  0  0  0  0  0  0  0  0
   -0.4235  -20.9132   25.6125 C   0  0  0  0  0  0  0  0  0  0  0  0
    0.2905  -20.1577   26.5001 N   0  0  0  0  0  0  0  0  0  0  0  0
    1.5968  -19.8500   26.2966 C   0  0  0  0  0  0  0  0  0  0  0  0
    2.2335  -20.3393   25.1309 C   0  0  0  0  0  0  0  0  0  0  0  0
    2.2657  -19.0959   27.2320 O   0  0  0  0  0  0  0  0  0  0  0  0
    4.2625  -18.8020   24.9957 C   0  0  0  0  0  0  0  0  0  0  0  0
    3.6156  -20.0718   24.7679 N   0  0  0  0  0  0  0  0  0  0  0  0
    4.9220  -18.5553   25.9997 O   0  0  0  0  0  0  0  0  0  0  0  0
    4.2569  -21.1065   24.0752 C   0  0  2  0  0  0  0  0  0  0  0  0
    3.4622  -21.4380   22.7859 C   0  0  0  0  0  0  0  0  0  0  0  0
    1.4610  -21.1119   24.2073 C   0  0  0  0  0  0  0  0  0  0  0  0
    2.0844  -21.6390   22.9903 N   0  0  0  0  0  0  0  0  0  0  0  0
    4.3890  -22.3387   24.9473 C   0  0  0  0  0  0  0  0  0  0  0  0
    5.5402  -22.4144   25.8036 N   0  0  0  0  0  0  0  0  0  0  0  0
    9.3017  -23.2894   24.1419 C   0  0  0  0  0  0  0  0  0  0  0  0
    8.1538  -23.5260   23.3982 C   0  0  0  0  0  0  0  0  0  0  0  0
    6.9109  -23.2304   23.9450 C   0  0  0  0  0  0  0  0  0  0  0  0
    6.8172  -22.7124   25.2352 C   0  0  0  0  0  0  0  0  0  0  0  0
    7.9639  -22.4883   25.9768 C   0  0  0  0  0  0  0  0  0  0  0  0
    9.2076  -22.7733   25.4262 C   0  0  0  0  0  0  0  0  0  0  0  0
  1  2  1  0  0  0  0
  2  3  2  0  0  0  0
  2 20  1  0  0  0  0
  4  6  1  0  0  0  0
  5  6  2  0  0  0  0
  5 16  1  0  0  0  0
  6  7  1  0  0  0  0
  7  8  1  0  0  0  0
  8  9  1  0  0  0  0
  8 10  2  0  0  0  0
  9 12  1  0  0  0  0
  9 16  2  0  0  0  0
 11 13  1  0  0  0  0
 11 12  1  0  0  0  0
 12 14  1  0  0  0  0
 14 15  1  0  0  0  0
 14 18  1  1  0  0  0
 15 17  1  0  0  0  0
 16 17  1  0  0  0  0
 18 19  1  0  0  0  0
 19 23  1  0  0  0  0
 20 21  2  0  0  0  0
 20 25  1  0  0  0  0
 21 22  1  0  0  0  0
 22 23  2  0  0  0  0
 23 24  1  0  0  0  0
 24 25  2  0  0  0  0
M  END
>  <CHROM.1>
93.57419905,-86.46383389,-74.71126153,-15.06905346,147.60475749,4.75141713
-21.52110282,24.81997420,-0.33785201,-0.08669526,0.70877778

>  <Name>
ligand

>  <RI>
0

>  <Rbt.Current_Directory>
/home/itssahil/PROJECTS/Mol_Feturizer/New_Systems/rnas/4LVV

>  <Rbt.Executable>
rbdock ($Id: //depot/dev/client3/rdock/2013.1/src/exe/rbdock.cxx#4 $)

>  <Rbt.Library>
libRbt.so (2013.1, Build901 2013/11/27)

>  <Rbt.Parameter_File>
/export/apps/rDock/src/rDock_2013.1_src/data/scripts/dock_solv.prm

>  <Rbt.Receptor>
prm/pocket_docking_2.prm

>  <SCORE>
-9.95934

>  <SCORE.INTER>
-10.3115

>  <SCORE.INTER.CONST>
1

>  <SCORE.INTER.POLAR>
0

>  <SCORE.INTER.ROT>
5

>  <SCORE.INTER.SOLV>
25.4033

>  <SCORE.INTER.VDW>
-22.2754

>  <SCORE.INTER.norm>
-0.412458

>  <SCORE.INTRA>
0.352108

>  <SCORE.INTRA.DIHEDRAL>
1.7546

>  <SCORE.INTRA.DIHEDRAL.0>
3.94806

>  <SCORE.INTRA.POLAR>
0

>  <SCORE.INTRA.POLAR.0>
0

>  <SCORE.INTRA.REPUL>
0

>  <SCORE.INTRA.REPUL.0>
0

>  <SCORE.INTRA.SOLV>
-0.0142575

>  <SCORE.INTRA.SOLV.lig_0>
-70.9803

>  <SCORE.INTRA.VDW>
-0.518062

>  <SCORE.INTRA.VDW.0>
-0.709409

>  <SCORE.INTRA.norm>
0.0140843

>  <SCORE.RESTR>
0

>  <SCORE.RESTR.CAVITY>
0

>  <SCORE.RESTR.norm>
0

>  <SCORE.SYSTEM>
0

>  <SCORE.SYSTEM.CONST>
0

>  <SCORE.SYSTEM.DIHEDRAL>
0

>  <SCORE.SYSTEM.SOLV>
0

>  <SCORE.SYSTEM.norm>
0

>  <SCORE.heavy>
25

>  <SCORE.norm>
-0.398374

>  <RMSD>
0.783

$$$$
ligand
 OpenBabel11021811503D
libRbt.so/2013.1/901 2013/11/27
 25 27  0  0  0  0  0  0  0  0999 V2000
   11.6099  -24.5277   24.0718 N   0  0  0  0  0  0  0  0  0  0  0  0
   10.8843  -23.3589   23.6808 C   0  0  0  0  0  0  0  0  0  0  0  0
   11.3923  -22.5243   22.9423 O   0  0  0  0  0  0  0  0  0  0  0  0
   -1.5898  -21.0941   25.8940 N   0  0  0  0  0  0  0  0  0  0  0  0
    0.3094  -21.3092   24.4408 N   0  0  0  0  0  0  0  0  0  0  0  0
   -0.2084  -20.8737   25.6126 C   0  0  0  0  0  0  0  0  0  0  0  0
    0.5669  -20.2170   26.5269 N   0  0  0  0  0  0  0  0  0  0  0  0
    1.8847  -19.9734   26.3114 C   0  0  0  0  0  0  0  0  0  0  0  0
    2.4676  -20.4260   25.1035 C   0  0  0  0  0  0  0  0  0  0  0  0
    2.6158  -19.3184   27.2745 O   0  0  0  0  0  0  0  0  0  0  0  0
    4.5810  -19.0034   25.0132 C   0  0  0  0  0  0  0  0  0  0  0  0
    3.8555  -20.2171   24.7246 N   0  0  0  0  0  0  0  0  0  0  0  0
    4.1058  -17.8839   24.8553 O   0  0  0  0  0  0  0  0  0  0  0  0
    4.4203  -21.2426   23.9557 C   0  0  2  0  0  0  0  0  0  0  0  0
    3.5815  -21.4474   22.6680 C   0  0  0  0  0  0  0  0  0  0  0  0
    1.6322  -21.0943   24.1536 C   0  0  0  0  0  0  0  0  0  0  0  0
    2.1987  -21.5805   22.8926 N   0  0  0  0  0  0  0  0  0  0  0  0
    4.4968  -22.5318   24.7484 C   0  0  0  0  0  0  0  0  0  0  0  0
    5.5928  -22.6716   25.6668 N   0  0  0  0  0  0  0  0  0  0  0  0
    9.4902  -23.1824   24.1749 C   0  0  0  0  0  0  0  0  0  0  0  0
    8.4034  -23.4987   23.3714 C   0  0  0  0  0  0  0  0  0  0  0  0
    7.1152  -23.3234   23.8621 C   0  0  0  0  0  0  0  0  0  0  0  0
    6.9162  -22.8459   25.1560 C   0  0  0  0  0  0  0  0  0  0  0  0
    8.0030  -22.5421   25.9572 C   0  0  0  0  0  0  0  0  0  0  0  0
    9.2913  -22.7067   25.4629 C   0  0  0  0  0  0  0  0  0  0  0  0
  1  2  1  0  0  0  0
  2  3  2  0  0  0  0
  2 20  1  0  0  0  0
  4  6  1  0  0  0  0
  5  6  2  0  0  0  0
  5 16  1  0  0  0  0
  6  7  1  0  0  0  0
  7  8  1  0  0  0  0
  8  9  1  0  0  0  0
  8 10  2  0  0  0  0
  9 12  1  0  0  0  0
  9 16  2  0  0  0  0
 11 13  1  0  0  0  0
 11 12  1  0  0  0  0
 12 14  1  0  0  0  0
 14 15  1  0  0  0  0
 14 18  1  1  0  0  0
 15 17  1  0  0  0  0
 16 17  1  0  0  0  0
 18 19  1  0  0  0  0
 19 23  1  0  0  0  0
 20 21  2  0  0  0  0
 20 25  1  0  0  0  0
 21 22  1  0  0  0  0
 22 23  2  0  0  0  0
 23 24  1  0  0  0  0
 24 25  2  0  0  0  0
M  END
>  <CHROM.1>
-43.75681634,-80.70763361,-70.44829039,-21.65054549,-99.34494120,4.89689246
-21.50787613,24.74397345,0.33501884,0.04985065,-2.55929498

>  <Name>
ligand

>  <RI>
0

>  <Rbt.Current_Directory>
/home/itssahil/PROJECTS/Mol_Feturizer/New_Systems/rnas/4LVV

>  <Rbt.Executable>
rbdock ($Id: //depot/dev/client3/rdock/2013.1/src/exe/rbdock.cxx#4 $)

>  <Rbt.Library>
libRbt.so (2013.1, Build901 2013/11/27)

>  <Rbt.Parameter_File>
/export/apps/rDock/src/rDock_2013.1_src/data/scripts/dock_solv.prm

>  <Rbt.Receptor>
prm/pocket_docking_2.prm

>  <SCORE>
-10.0992

>  <SCORE.INTER>
-9.60647

>  <SCORE.INTER.CONST>
1

>  <SCORE.INTER.POLAR>
0

>  <SCORE.INTER.ROT>
5

>  <SCORE.INTER.SOLV>
25.1193

>  <SCORE.INTER.VDW>
-21.7108

>  <SCORE.INTER.norm>
-0.384259

>  <SCORE.INTRA>
-0.492773

>  <SCORE.INTRA.DIHEDRAL>
0.873163

>  <SCORE.INTRA.DIHEDRAL.0>
3.94806

>  <SCORE.INTRA.POLAR>
0

>  <SCORE.INTRA.POLAR.0>
0

>  <SCORE.INTRA.REPUL>
0

>  <SCORE.INTRA.REPUL.0>
0

>  <SCORE.INTRA.SOLV>
-0.248644

>  <SCORE.INTRA.SOLV.lig_0>
-70.9803

>  <SCORE.INTRA.VDW>
-0.805033

>  <SCORE.INTRA.VDW.0>
-0.709409

>  <SCORE.INTRA.norm>
-0.0197109

>  <SCORE.RESTR>
0

>  <SCORE.RESTR.CAVITY>
0

>  <SCORE.RESTR.norm>
0

>  <SCORE.SYSTEM>
0

>  <SCORE.SYSTEM.CONST>
0

>  <SCORE.SYSTEM.DIHEDRAL>
0

>  <SCORE.SYSTEM.SOLV>
0

>  <SCORE.SYSTEM.norm>
0

>  <SCORE.heavy>
25

>  <SCORE.norm>
-0.40397

>  <RMSD>
0.784

$$$$
ligand
 OpenBabel11021811503D
libRbt.so/2013.1/901 2013/11/27
 25 27  0  0  0  0  0  0  0  0999 V2000
   11.6308  -21.8260   24.8981 N   0  0  0  0  0  0  0  0  0  0  0  0
   10.8963  -22.8820   25.5232 C   0  0  0  0  0  0  0  0  0  0  0  0
   11.4651  -23.8929   25.9166 O   0  0  0  0  0  0  0  0  0  0  0  0
   -1.7352  -21.1516   25.8723 N   0  0  0  0  0  0  0  0  0  0  0  0
    0.2061  -21.3586   24.4745 N   0  0  0  0  0  0  0  0  0  0  0  0
   -0.3583  -20.8849   25.6094 C   0  0  0  0  0  0  0  0  0  0  0  0
    0.3655  -20.1466   26.5035 N   0  0  0  0  0  0  0  0  0  0  0  0
    1.6763  -19.8562   26.3039 C   0  0  0  0  0  0  0  0  0  0  0  0
    2.3073  -20.3458   25.1352 C   0  0  0  0  0  0  0  0  0  0  0  0
    2.3548  -19.1190   27.2457 O   0  0  0  0  0  0  0  0  0  0  0  0
    4.3584  -18.8370   25.0139 C   0  0  0  0  0  0  0  0  0  0  0  0
    3.6936  -20.0956   24.7758 N   0  0  0  0  0  0  0  0  0  0  0  0
    5.4817  -18.7526   25.4985 O   0  0  0  0  0  0  0  0  0  0  0  0
    4.3207  -21.1342   24.0759 C   0  0  2  0  0  0  0  0  0  0  0  0
    3.5229  -21.4444   22.7833 C   0  0  0  0  0  0  0  0  0  0  0  0
    1.5248  -21.1003   24.2049 C   0  0  0  0  0  0  0  0  0  0  0  0
    2.1421  -21.6270   22.9846 N   0  0  0  0  0  0  0  0  0  0  0  0
    4.4340  -22.3747   24.9388 C   0  0  0  0  0  0  0  0  0  0  0  0
    5.2644  -22.2856   26.1078 N   0  0  0  0  0  0  0  0  0  0  0  0
    9.4262  -22.7233   25.7033 C   0  0  0  0  0  0  0  0  0  0  0  0
    8.8996  -22.2731   26.9061 C   0  0  0  0  0  0  0  0  0  0  0  0
    7.5236  -22.1350   27.0420 C   0  0  0  0  0  0  0  0  0  0  0  0
    6.6796  -22.4338   25.9742 C   0  0  0  0  0  0  0  0  0  0  0  0
    7.2100  -22.8721   24.7734 C   0  0  0  0  0  0  0  0  0  0  0  0
    8.5853  -23.0210   24.6408 C   0  0  0  0  0  0  0  0  0  0  0  0
  1  2  1  0  0  0  0
  2  3  2  0  0  0  0
  2 20  1  0  0  0  0
  4  6  1  0  0  0  0
  5  6  2  0  0  0  0
  5 16  1  0  0  0  0
  6  7  1  0  0  0  0
  7  8  1  0  0  0  0
  8  9  1  0  0  0  0
  8 10  2  0  0  0  0
  9 12  1  0  0  0  0
  9 16  2  0  0  0  0
 11 13  1  0  0  0  0
 11 12  1  0  0  0  0
 12 14  1  0  0  0  0
 14 15  1  0  0  0  0
 14 18  1  1  0  0  0
 15 17  1  0  0  0  0
 16 17  1  0  0  0  0
 18 19  1  0  0  0  0
 19 23  1  0  0  0  0
 20 21  2  0  0  0  0
 20 25  1  0  0  0  0
 21 22  1  0  0  0  0
 22 23  2  0  0  0  0
 23 24  1  0  0  0  0
 24 25  2  0  0  0  0
M  END
>  <CHROM.1>
134.14964228,-64.65514310,-81.29035223,169.35058607,-96.63504356,4.84013601
-21.33748320,25.31594286,-0.13537088,-0.19256400,0.80399365

>  <Name>
ligand

>  <RI>
0

>  <Rbt.Current_Directory>
/home/itssahil/PROJECTS/Mol_Feturizer/New_Systems/rnas/4LVV

>  <Rbt.Executable>
rbdock ($Id: //depot/dev/client3/rdock/2013.1/src/exe/rbdock.cxx#4 $)

>  <Rbt.Library>
libRbt.so (2013.1, Build901 2013/11/27)

>  <Rbt.Parameter_File>
/export/apps/rDock/src/rDock_2013.1_src/data/scripts/dock_solv.prm

>  <Rbt.Receptor>
prm/pocket_docking_2.prm

>  <SCORE>
-9.87597

>  <SCORE.INTER>
-9.2478

>  <SCORE.INTER.CONST>
1

>  <SCORE.INTER.POLAR>
0

>  <SCORE.INTER.ROT>
5

>  <SCORE.INTER.SOLV>
24.7304

>  <SCORE.INTER.VDW>
-21.342

>  <SCORE.INTER.norm>
-0.369912

>  <SCORE.INTRA>
-0.628167

>  <SCORE.INTRA.DIHEDRAL>
-0.396112

>  <SCORE.INTRA.DIHEDRAL.0>
3.94806

>  <SCORE.INTRA.POLAR>
0

>  <SCORE.INTRA.POLAR.0>
0

>  <SCORE.INTRA.REPUL>
0

>  <SCORE.INTRA.REPUL.0>
0

>  <SCORE.INTRA.SOLV>
0.332352

>  <SCORE.INTRA.SOLV.lig_0>
-70.9803

>  <SCORE.INTRA.VDW>
-0.596287

>  <SCORE.INTRA.VDW.0>
-0.709409

>  <SCORE.INTRA.norm>
-0.0251267

>  <SCORE.RESTR>
0

>  <SCORE.RESTR.CAVITY>
0

>  <SCORE.RESTR.norm>
0

>  <SCORE.SYSTEM>
0

>  <SCORE.SYSTEM.CONST>
0

>  <SCORE.SYSTEM.DIHEDRAL>
0

>  <SCORE.SYSTEM.SOLV>
0

>  <SCORE.SYSTEM.norm>
0

>  <SCORE.heavy>
25

>  <SCORE.norm>
-0.395039

>  <RMSD>
0.806

$$$$
ligand
 OpenBabel11021811503D
libRbt.so/2013.1/901 2013/11/27
 25 27  0  0  0  0  0  0  0  0999 V2000
   11.5222  -22.3683   22.9815 N   0  0  0  0  0  0  0  0  0  0  0  0
   10.8393  -23.4695   23.5869 C   0  0  0  0  0  0  0  0  0  0  0  0
   11.3666  -24.5730   23.6537 O   0  0  0  0  0  0  0  0  0  0  0  0
   -1.6059  -21.1450   25.8316 N   0  0  0  0  0  0  0  0  0  0  0  0
    0.2987  -21.3693   24.3868 N   0  0  0  0  0  0  0  0  0  0  0  0
   -0.2270  -20.9131   25.5471 C   0  0  0  0  0  0  0  0  0  0  0  0
    0.5379  -20.2248   26.4469 N   0  0  0  0  0  0  0  0  0  0  0  0
    1.8528  -19.9691   26.2278 C   0  0  0  0  0  0  0  0  0  0  0  0
    2.4439  -20.4423   25.0318 C   0  0  0  0  0  0  0  0  0  0  0  0
    2.5734  -19.2819   27.1762 O   0  0  0  0  0  0  0  0  0  0  0  0
    4.5385  -18.9945   24.9112 C   0  0  0  0  0  0  0  0  0  0  0  0
    3.8296  -20.2242   24.6502 N   0  0  0  0  0  0  0  0  0  0  0  0
    5.6778  -18.9596   25.3637 O   0  0  0  0  0  0  0  0  0  0  0  0
    4.4092  -21.2599   23.9066 C   0  0  2  0  0  0  0  0  0  0  0  0
    3.5756  -21.5061   22.6228 C   0  0  0  0  0  0  0  0  0  0  0  0
    1.6191  -21.1437   24.0967 C   0  0  0  0  0  0  0  0  0  0  0  0
    2.1943  -21.6521   22.8483 N   0  0  0  0  0  0  0  0  0  0  0  0
    4.5012  -22.5289   24.7297 C   0  0  0  0  0  0  0  0  0  0  0  0
    5.5991  -22.6340   25.6504 N   0  0  0  0  0  0  0  0  0  0  0  0
    9.4792  -23.2462   24.1516 C   0  0  0  0  0  0  0  0  0  0  0  0
    9.3129  -22.6846   25.4101 C   0  0  0  0  0  0  0  0  0  0  0  0
    8.0305  -22.4886   25.9082 C   0  0  0  0  0  0  0  0  0  0  0  0
    6.9196  -22.8413   25.1445 C   0  0  0  0  0  0  0  0  0  0  0  0
    7.0903  -23.3910   23.8859 C   0  0  0  0  0  0  0  0  0  0  0  0
    8.3727  -23.5975   23.3920 C   0  0  0  0  0  0  0  0  0  0  0  0
  1  2  1  0  0  0  0
  2  3  2  0  0  0  0
  2 20  1  0  0  0  0
  4  6  1  0  0  0  0
  5  6  2  0  0  0  0
  5 16  1  0  0  0  0
  6  7  1  0  0  0  0
  7  8  1  0  0  0  0
  8  9  1  0  0  0  0
  8 10  2  0  0  0  0
  9 12  1  0  0  0  0
  9 16  2  0  0  0  0
 11 13  1  0  0  0  0
 11 12  1  0  0  0  0
 12 14  1  0  0  0  0
 14 15  1  0  0  0  0
 14 18  1  1  0  0  0
 15 17  1  0  0  0  0
 16 17  1  0  0  0  0
 18 19  1  0  0  0  0
 19 23  1  0  0  0  0
 20 21  2  0  0  0  0
 20 25  1  0  0  0  0
 21 22  1  0  0  0  0
 22 23  2  0  0  0  0
 23 24  1  0  0  0  0
 24 25  2  0  0  0  0
M  END
>  <CHROM.1>
134.75751101,-80.85774320,-72.13997057,157.36848824,-80.99627800,4.95450001
-21.58775851,24.71244572,-0.31593441,-0.08010592,0.70682302

>  <Name>
ligand

>  <RI>
0

>  <Rbt.Current_Directory>
/home/itssahil/PROJECTS/Mol_Feturizer/New_Systems/rnas/4LVV

>  <Rbt.Executable>
rbdock ($Id: //depot/dev/client3/rdock/2013.1/src/exe/rbdock.cxx#4 $)

>  <Rbt.Library>
libRbt.so (2013.1, Build901 2013/11/27)

>  <Rbt.Parameter_File>
/export/apps/rDock/src/rDock_2013.1_src/data/scripts/dock_solv.prm

>  <Rbt.Receptor>
prm/pocket_docking_2.prm

>  <SCORE>
-9.79025

>  <SCORE.INTER>
-9.50521

>  <SCORE.INTER.CONST>
1

>  <SCORE.INTER.POLAR>
0

>  <SCORE.INTER.ROT>
5

>  <SCORE.INTER.SOLV>
24.5429

>  <SCORE.INTER.VDW>
-21.4511

>  <SCORE.INTER.norm>
-0.380208

>  <SCORE.INTRA>
-0.285036

>  <SCORE.INTRA.DIHEDRAL>
0.718467

>  <SCORE.INTRA.DIHEDRAL.0>
3.94806

>  <SCORE.INTRA.POLAR>
0

>  <SCORE.INTRA.POLAR.0>
0

>  <SCORE.INTRA.REPUL>
0

>  <SCORE.INTRA.REPUL.0>
0

>  <SCORE.INTRA.SOLV>
0.0483711

>  <SCORE.INTRA.SOLV.lig_0>
-70.9803

>  <SCORE.INTRA.VDW>
-0.668455

>  <SCORE.INTRA.VDW.0>
-0.709409

>  <SCORE.INTRA.norm>
-0.0114015

>  <SCORE.RESTR>
0

>  <SCORE.RESTR.CAVITY>
0

>  <SCORE.RESTR.norm>
0

>  <SCORE.SYSTEM>
0

>  <SCORE.SYSTEM.CONST>
0

>  <SCORE.SYSTEM.DIHEDRAL>
0

>  <SCORE.SYSTEM.SOLV>
0

>  <SCORE.SYSTEM.norm>
0

>  <SCORE.heavy>
25

>  <SCORE.norm>
-0.39161

>  <RMSD>
0.817

$$$$
ligand
 OpenBabel11021811503D
libRbt.so/2013.1/901 2013/11/27
 25 27  0  0  0  0  0  0  0  0999 V2000
   11.7184  -24.0477   24.3797 N   0  0  0  0  0  0  0  0  0  0  0  0
   10.6710  -23.6268   23.5015 C   0  0  0  0  0  0  0  0  0  0  0  0
   10.8670  -23.5252   22.2967 O   0  0  0  0  0  0  0  0  0  0  0  0
   -1.7430  -21.1466   25.8560 N   0  0  0  0  0  0  0  0  0  0  0  0
    0.2038  -21.3581   24.4665 N   0  0  0  0  0  0  0  0  0  0  0  0
   -0.3650  -20.8809   25.5978 C   0  0  0  0  0  0  0  0  0  0  0  0
    0.3553  -20.1400   26.4925 N   0  0  0  0  0  0  0  0  0  0  0  0
    1.6670  -19.8505   26.2972 C   0  0  0  0  0  0  0  0  0  0  0  0
    2.3025  -20.3437   25.1325 C   0  0  0  0  0  0  0  0  0  0  0  0
    2.3419  -19.1105   27.2395 O   0  0  0  0  0  0  0  0  0  0  0  0
    4.3544  -18.8356   25.0148 C   0  0  0  0  0  0  0  0  0  0  0  0
    3.6903  -20.0948   24.7779 N   0  0  0  0  0  0  0  0  0  0  0  0
    3.7660  -17.7599   25.0349 O   0  0  0  0  0  0  0  0  0  0  0  0
    4.3200  -21.1356   24.0836 C   0  0  2  0  0  0  0  0  0  0  0  0
    3.5272  -21.4495   22.7888 C   0  0  0  0  0  0  0  0  0  0  0  0
    1.5236  -21.1008   24.2014 C   0  0  0  0  0  0  0  0  0  0  0  0
    2.1457  -21.6313   22.9852 N   0  0  0  0  0  0  0  0  0  0  0  0
    4.4296  -22.3735   24.9506 C   0  0  0  0  0  0  0  0  0  0  0  0
    5.5872  -22.4813   25.7947 N   0  0  0  0  0  0  0  0  0  0  0  0
    9.3294  -23.3302   24.0767 C   0  0  0  0  0  0  0  0  0  0  0  0
    8.1720  -23.5760   23.3508 C   0  0  0  0  0  0  0  0  0  0  0  0
    6.9355  -23.2891   23.9162 C   0  0  0  0  0  0  0  0  0  0  0  0
    6.8576  -22.7705   25.2072 C   0  0  0  0  0  0  0  0  0  0  0  0
    8.0138  -22.5370   25.9310 C   0  0  0  0  0  0  0  0  0  0  0  0
    9.2511  -22.8135   25.3618 C   0  0  0  0  0  0  0  0  0  0  0  0
  1  2  1  0  0  0  0
  2  3  2  0  0  0  0
  2 20  1  0  0  0  0
  4  6  1  0  0  0  0
  5  6  2  0  0  0  0
  5 16  1  0  0  0  0
  6  7  1  0  0  0  0
  7  8  1  0  0  0  0
  8  9  1  0  0  0  0
  8 10  2  0  0  0  0
  9 12  1  0  0  0  0
  9 16  2  0  0  0  0
 11 13  1  0  0  0  0
 11 12  1  0  0  0  0
 12 14  1  0  0  0  0
 14 15  1  0  0  0  0
 14 18  1  1  0  0  0
 15 17  1  0  0  0  0
 16 17  1  0  0  0  0
 18 19  1  0  0  0  0
 19 23  1  0  0  0  0
 20 21  2  0  0  0  0
 20 25  1  0  0  0  0
 21 22  1  0  0  0  0
 22 23  2  0  0  0  0
 23 24  1  0  0  0  0
 24 25  2  0  0  0  0
M  END
>  <CHROM.1>
-29.00194389,-87.55476304,-72.85082717,-17.00947826,-147.23067744,4.74420624
-21.50259381,24.75125393,-0.36200113,-0.07942855,0.65178115

>  <Name>
ligand

>  <RI>
0

>  <Rbt.Current_Directory>
/home/itssahil/PROJECTS/Mol_Feturizer/New_Systems/rnas/4LVV

>  <Rbt.Executable>
rbdock ($Id: //depot/dev/client3/rdock/2013.1/src/exe/rbdock.cxx#4 $)

>  <Rbt.Library>
libRbt.so (2013.1, Build901 2013/11/27)

>  <Rbt.Parameter_File>
/export/apps/rDock/src/rDock_2013.1_src/data/scripts/dock_solv.prm

>  <Rbt.Receptor>
prm/pocket_docking_2.prm

>  <SCORE>
-9.9896

>  <SCORE.INTER>
-10.3558

>  <SCORE.INTER.CONST>
1

>  <SCORE.INTER.POLAR>
0

>  <SCORE.INTER.ROT>
5

>  <SCORE.INTER.SOLV>
26.0283

>  <SCORE.INTER.VDW>
-22.5133

>  <SCORE.INTER.norm>
-0.414234

>  <SCORE.INTRA>
0.366245

>  <SCORE.INTRA.DIHEDRAL>
1.91835

>  <SCORE.INTRA.DIHEDRAL.0>
3.94806

>  <SCORE.INTRA.POLAR>
0

>  <SCORE.INTRA.POLAR.0>
0

>  <SCORE.INTRA.REPUL>
0

>  <SCORE.INTRA.REPUL.0>
0

>  <SCORE.INTRA.SOLV>
-0.270896

>  <SCORE.INTRA.SOLV.lig_0>
-70.9803

>  <SCORE.INTRA.VDW>
-0.457484

>  <SCORE.INTRA.VDW.0>
-0.709409

>  <SCORE.INTRA.norm>
0.0146498

>  <SCORE.RESTR>
0

>  <SCORE.RESTR.CAVITY>
0

>  <SCORE.RESTR.norm>
0

>  <SCORE.SYSTEM>
0

>  <SCORE.SYSTEM.CONST>
0

>  <SCORE.SYSTEM.DIHEDRAL>
0

>  <SCORE.SYSTEM.SOLV>
0

>  <SCORE.SYSTEM.norm>
0

>  <SCORE.heavy>
25

>  <SCORE.norm>
-0.399584

>  <RMSD>
0.836

$$$$
ligand
 OpenBabel11021811503D
libRbt.so/2013.1/901 2013/11/27
 25 27  0  0  0  0  0  0  0  0999 V2000
   11.7709  -22.6834   23.5237 N   0  0  0  0  0  0  0  0  0  0  0  0
   10.6924  -23.5812   23.2477 C   0  0  0  0  0  0  0  0  0  0  0  0
   10.8468  -24.5314   22.4906 O   0  0  0  0  0  0  0  0  0  0  0  0
   -1.6166  -21.0195   25.8786 N   0  0  0  0  0  0  0  0  0  0  0  0
    0.2971  -21.3000   24.4559 N   0  0  0  0  0  0  0  0  0  0  0  0
   -0.2308  -20.8180   25.6047 C   0  0  0  0  0  0  0  0  0  0  0  0
    0.5385  -20.1324   26.5027 N   0  0  0  0  0  0  0  0  0  0  0  0
    1.8602  -19.9050   26.2932 C   0  0  0  0  0  0  0  0  0  0  0  0
    2.4535  -20.4057   25.1095 C   0  0  0  0  0  0  0  0  0  0  0  0
    2.5848  -19.2189   27.2393 O   0  0  0  0  0  0  0  0  0  0  0  0
    4.5768  -19.0002   24.9902 C   0  0  0  0  0  0  0  0  0  0  0  0
    3.8468  -20.2195   24.7388 N   0  0  0  0  0  0  0  0  0  0  0  0
    5.6773  -18.7643   24.5032 O   0  0  0  0  0  0  0  0  0  0  0  0
    4.4134  -21.2762   24.0149 C   0  0  2  0  0  0  0  0  0  0  0  0
    3.5876  -21.5238   22.7264 C   0  0  0  0  0  0  0  0  0  0  0  0
    1.6243  -21.1039   24.1758 C   0  0  0  0  0  0  0  0  0  0  0  0
    2.2015  -21.6401   22.9402 N   0  0  0  0  0  0  0  0  0  0  0  0
    4.4729  -22.5354   24.8559 C   0  0  0  0  0  0  0  0  0  0  0  0
    5.6262  -22.7086   25.6949 N   0  0  0  0  0  0  0  0  0  0  0  0
    9.3796  -23.3497   23.9122 C   0  0  0  0  0  0  0  0  0  0  0  0
    9.3131  -22.8485   25.2049 C   0  0  0  0  0  0  0  0  0  0  0  0
    8.0726  -22.6431   25.7965 C   0  0  0  0  0  0  0  0  0  0  0  0
    6.9039  -22.9259   25.0924 C   0  0  0  0  0  0  0  0  0  0  0  0
    6.9750  -23.4153   23.7998 C   0  0  0  0  0  0  0  0  0  0  0  0
    8.2156  -23.6314   23.2118 C   0  0  0  0  0  0  0  0  0  0  0  0
  1  2  1  0  0  0  0
  2  3  2  0  0  0  0
  2 20  1  0  0  0  0
  4  6  1  0  0  0  0
  5  6  2  0  0  0  0
  5 16  1  0  0  0  0
  6  7  1  0  0  0  0
  7  8  1  0  0  0  0
  8  9  1  0  0  0  0
  8 10  2  0  0  0  0
  9 12  1  0  0  0  0
  9 16  2  0  0  0  0
 11 13  1  0  0  0  0
 11 12  1  0  0  0  0
 12 14  1  0  0  0  0
 14 15  1  0  0  0  0
 14 18  1  1  0  0  0
 15 17  1  0  0  0  0
 16 17  1  0  0  0  0
 18 19  1  0  0  0  0
 19 23  1  0  0  0  0
 20 21  2  0  0  0  0
 20 25  1  0  0  0  0
 21 22  1  0  0  0  0
 22 23  2  0  0  0  0
 23 24  1  0  0  0  0
 24 25  2  0  0  0  0
M  END
>  <CHROM.1>
-168.51332804,-86.66522628,-67.59916543,157.77145254,-34.82394732,4.92620398
-21.59475277,24.64135598,-0.35858357,-0.04751829,0.66286454

>  <Name>
ligand

>  <RI>
0

>  <Rbt.Current_Directory>
/home/itssahil/PROJECTS/Mol_Feturizer/New_Systems/rnas/4LVV

>  <Rbt.Executable>
rbdock ($Id: //depot/dev/client3/rdock/2013.1/src/exe/rbdock.cxx#4 $)

>  <Rbt.Library>
libRbt.so (2013.1, Build901 2013/11/27)

>  <Rbt.Parameter_File>
/export/apps/rDock/src/rDock_2013.1_src/data/scripts/dock_solv.prm

>  <Rbt.Receptor>
prm/pocket_docking_2.prm

>  <SCORE>
-9.26208

>  <SCORE.INTER>
-9.72764

>  <SCORE.INTER.CONST>
1

>  <SCORE.INTER.POLAR>
0

>  <SCORE.INTER.ROT>
5

>  <SCORE.INTER.SOLV>
24.7644

>  <SCORE.INTER.VDW>
-21.6732

>  <SCORE.INTER.norm>
-0.389106

>  <SCORE.INTRA>
0.465564

>  <SCORE.INTRA.DIHEDRAL>
1.62584

>  <SCORE.INTRA.DIHEDRAL.0>
3.94806

>  <SCORE.INTRA.POLAR>
0

>  <SCORE.INTRA.POLAR.0>
0

>  <SCORE.INTRA.REPUL>
0

>  <SCORE.INTRA.REPUL.0>
0

>  <SCORE.INTRA.SOLV>
-0.353717

>  <SCORE.INTRA.SOLV.lig_0>
-70.9803

>  <SCORE.INTRA.VDW>
-0.170499

>  <SCORE.INTRA.VDW.0>
-0.709409

>  <SCORE.INTRA.norm>
0.0186225

>  <SCORE.RESTR>
0

>  <SCORE.RESTR.CAVITY>
0

>  <SCORE.RESTR.norm>
0

>  <SCORE.SYSTEM>
0

>  <SCORE.SYSTEM.CONST>
0

>  <SCORE.SYSTEM.DIHEDRAL>
0

>  <SCORE.SYSTEM.SOLV>
0

>  <SCORE.SYSTEM.norm>
0

>  <SCORE.heavy>
25

>  <SCORE.norm>
-0.370483

>  <RMSD>
0.837

$$$$
ligand
 OpenBabel11021811503D
libRbt.so/2013.1/901 2013/11/27
 25 27  0  0  0  0  0  0  0  0999 V2000
   11.2486  -22.5909   22.7012 N   0  0  0  0  0  0  0  0  0  0  0  0
   10.7160  -23.5063   23.6623 C   0  0  0  0  0  0  0  0  0  0  0  0
   11.3532  -24.4940   24.0064 O   0  0  0  0  0  0  0  0  0  0  0  0
   -1.7339  -21.1556   25.8836 N   0  0  0  0  0  0  0  0  0  0  0  0
    0.2031  -21.3564   24.4789 N   0  0  0  0  0  0  0  0  0  0  0  0
   -0.3578  -20.8878   25.6175 C   0  0  0  0  0  0  0  0  0  0  0  0
    0.3687  -20.1532   26.5126 N   0  0  0  0  0  0  0  0  0  0  0  0
    1.6789  -19.8620   26.3102 C   0  0  0  0  0  0  0  0  0  0  0  0
    2.3063  -20.3465   25.1374 C   0  0  0  0  0  0  0  0  0  0  0  0
    2.3603  -19.1288   27.2531 O   0  0  0  0  0  0  0  0  0  0  0  0
    4.3570  -18.8371   25.0163 C   0  0  0  0  0  0  0  0  0  0  0  0
    3.6914  -20.0946   24.7748 N   0  0  0  0  0  0  0  0  0  0  0  0
    5.0728  -18.6329   25.9908 O   0  0  0  0  0  0  0  0  0  0  0  0
    4.3164  -21.1302   24.0685 C   0  0  2  0  0  0  0  0  0  0  0  0
    3.5146  -21.4348   22.7771 C   0  0  0  0  0  0  0  0  0  0  0  0
    1.5210  -21.0969   24.2063 C   0  0  0  0  0  0  0  0  0  0  0  0
    2.1345  -21.6184   22.9819 N   0  0  0  0  0  0  0  0  0  0  0  0
    4.4324  -22.3744   24.9257 C   0  0  0  0  0  0  0  0  0  0  0  0
    5.5540  -22.4510   25.8202 N   0  0  0  0  0  0  0  0  0  0  0  0
    9.3768  -23.2276   24.2518 C   0  0  0  0  0  0  0  0  0  0  0  0
    9.2551  -22.7281   25.5412 C   0  0  0  0  0  0  0  0  0  0  0  0
    7.9913  -22.4779   26.0620 C   0  0  0  0  0  0  0  0  0  0  0  0
    6.8551  -22.7145   25.2907 C   0  0  0  0  0  0  0  0  0  0  0  0
    6.9819  -23.2024   24.0018 C   0  0  0  0  0  0  0  0  0  0  0  0
    8.2451  -23.4633   23.4846 C   0  0  0  0  0  0  0  0  0  0  0  0
  1  2  1  0  0  0  0
  2  3  2  0  0  0  0
  2 20  1  0  0  0  0
  4  6  1  0  0  0  0
  5  6  2  0  0  0  0
  5 16  1  0  0  0  0
  6  7  1  0  0  0  0
  7  8  1  0  0  0  0
  8  9  1  0  0  0  0
  8 10  2  0  0  0  0
  9 12  1  0  0  0  0
  9 16  2  0  0  0  0
 11 13  1  0  0  0  0
 11 12  1  0  0  0  0
 12 14  1  0  0  0  0
 14 15  1  0  0  0  0
 14 18  1  1  0  0  0
 15 17  1  0  0  0  0
 16 17  1  0  0  0  0
 18 19  1  0  0  0  0
 19 23  1  0  0  0  0
 20 21  2  0  0  0  0
 20 25  1  0  0  0  0
 21 22  1  0  0  0  0
 22 23  2  0  0  0  0
 23 24  1  0  0  0  0
 24 25  2  0  0  0  0
M  END
>  <CHROM.1>
97.10976908,-83.89507099,-74.16477751,164.39824309,-103.79538865,4.81770026
-21.50715320,24.84634057,0.32475770,0.09766776,-2.40461589

>  <Name>
ligand

>  <RI>
0

>  <Rbt.Current_Directory>
/home/itssahil/PROJECTS/Mol_Feturizer/New_Systems/rnas/4LVV

>  <Rbt.Executable>
rbdock ($Id: //depot/dev/client3/rdock/2013.1/src/exe/rbdock.cxx#4 $)

>  <Rbt.Library>
libRbt.so (2013.1, Build901 2013/11/27)

>  <Rbt.Parameter_File>
/export/apps/rDock/src/rDock_2013.1_src/data/scripts/dock_solv.prm

>  <Rbt.Receptor>
prm/pocket_docking_2.prm

>  <SCORE>
-9.93442

>  <SCORE.INTER>
-10.0381

>  <SCORE.INTER.CONST>
1

>  <SCORE.INTER.POLAR>
0

>  <SCORE.INTER.ROT>
5

>  <SCORE.INTER.SOLV>
25.0033

>  <SCORE.INTER.VDW>
-21.9598

>  <SCORE.INTER.norm>
-0.401524

>  <SCORE.INTRA>
0.103666

>  <SCORE.INTRA.DIHEDRAL>
1.40729

>  <SCORE.INTRA.DIHEDRAL.0>
3.94806

>  <SCORE.INTRA.POLAR>
0

>  <SCORE.INTRA.POLAR.0>
0

>  <SCORE.INTRA.REPUL>
0

>  <SCORE.INTRA.REPUL.0>
0

>  <SCORE.INTRA.SOLV>
0.0318056

>  <SCORE.INTRA.SOLV.lig_0>
-70.9803

>  <SCORE.INTRA.VDW>
-0.615883

>  <SCORE.INTRA.VDW.0>
-0.709409

>  <SCORE.INTRA.norm>
0.00414664

>  <SCORE.RESTR>
0

>  <SCORE.RESTR.CAVITY>
0

>  <SCORE.RESTR.norm>
0

>  <SCORE.SYSTEM>
0

>  <SCORE.SYSTEM.CONST>
0

>  <SCORE.SYSTEM.DIHEDRAL>
0

>  <SCORE.SYSTEM.SOLV>
0

>  <SCORE.SYSTEM.norm>
0

>  <SCORE.heavy>
25

>  <SCORE.norm>
-0.397377

>  <RMSD>
0.873

$$$$
ligand
 OpenBabel11021811503D
libRbt.so/2013.1/901 2013/11/27
 25 27  0  0  0  0  0  0  0  0999 V2000
   11.7580  -22.0422   24.9316 N   0  0  0  0  0  0  0  0  0  0  0  0
   10.9572  -23.0120   25.6126 C   0  0  0  0  0  0  0  0  0  0  0  0
   11.4601  -24.0331   26.0649 O   0  0  0  0  0  0  0  0  0  0  0  0
   -1.6886  -21.3610   26.0433 N   0  0  0  0  0  0  0  0  0  0  0  0
    0.2256  -21.5311   24.6039 N   0  0  0  0  0  0  0  0  0  0  0  0
   -0.3407  -21.0206   25.7217 C   0  0  0  0  0  0  0  0  0  0  0  0
    0.3529  -20.1760   26.5426 N   0  0  0  0  0  0  0  0  0  0  0  0
    1.6349  -19.8122   26.2845 C   0  0  0  0  0  0  0  0  0  0  0  0
    2.2679  -20.3364   25.1321 C   0  0  0  0  0  0  0  0  0  0  0  0
    2.2847  -18.9685   27.1545 O   0  0  0  0  0  0  0  0  0  0  0  0
    4.2057  -18.7045   24.8492 C   0  0  0  0  0  0  0  0  0  0  0  0
    3.6238  -20.0183   24.7150 N   0  0  0  0  0  0  0  0  0  0  0  0
    4.2097  -17.8767   23.9444 O   0  0  0  0  0  0  0  0  0  0  0  0
    4.3031  -21.0575   24.0666 C   0  0  2  0  0  0  0  0  0  0  0  0
    3.4957  -21.5079   22.8221 C   0  0  0  0  0  0  0  0  0  0  0  0
    1.5159  -21.2034   24.2779 C   0  0  0  0  0  0  0  0  0  0  0  0
    2.1366  -21.7691   23.0769 N   0  0  0  0  0  0  0  0  0  0  0  0
    4.5243  -22.2260   25.0057 C   0  0  0  0  0  0  0  0  0  0  0  0
    5.3787  -22.0026   26.1390 N   0  0  0  0  0  0  0  0  0  0  0  0
    9.5003  -22.7498   25.7776 C   0  0  0  0  0  0  0  0  0  0  0  0
    8.9669  -22.4456   27.0225 C   0  0  0  0  0  0  0  0  0  0  0  0
    7.6036  -22.2053   27.1430 C   0  0  0  0  0  0  0  0  0  0  0  0
    6.7801  -22.2567   26.0201 C   0  0  0  0  0  0  0  0  0  0  0  0
    7.3181  -22.5498   24.7791 C   0  0  0  0  0  0  0  0  0  0  0  0
    8.6797  -22.8011   24.6601 C   0  0  0  0  0  0  0  0  0  0  0  0
  1  2  1  0  0  0  0
  2  3  2  0  0  0  0
  2 20  1  0  0  0  0
  4  6  1  0  0  0  0
  5  6  2  0  0  0  0
  5 16  1  0  0  0  0
  6  7  1  0  0  0  0
  7  8  1  0  0  0  0
  8  9  1  0  0  0  0
  8 10  2  0  0  0  0
  9 12  1  0  0  0  0
  9 16  2  0  0  0  0
 11 13  1  0  0  0  0
 11 12  1  0  0  0  0
 12 14  1  0  0  0  0
 14 15  1  0  0  0  0
 14 18  1  1  0  0  0
 15 17  1  0  0  0  0
 16 17  1  0  0  0  0
 18 19  1  0  0  0  0
 19 23  1  0  0  0  0
 20 21  2  0  0  0  0
 20 25  1  0  0  0  0
 21 22  1  0  0  0  0
 22 23  2  0  0  0  0
 23 24  1  0  0  0  0
 24 25  2  0  0  0  0
M  END
>  <CHROM.1>
-95.09563411,-64.78185228,-90.40467823,-172.16444109,-109.12398329,4.79872712
-21.29513738,25.28169895,-0.25030916,0.03545500,-0.31258051

>  <Name>
ligand

>  <RI>
0

>  <Rbt.Current_Directory>
/home/itssahil/PROJECTS/Mol_Feturizer/New_Systems/rnas/4LVV

>  <Rbt.Executable>
rbdock ($Id: //depot/dev/client3/rdock/2013.1/src/exe/rbdock.cxx#4 $)

>  <Rbt.Library>
libRbt.so (2013.1, Build901 2013/11/27)

>  <Rbt.Parameter_File>
/export/apps/rDock/src/rDock_2013.1_src/data/scripts/dock_solv.prm

>  <Rbt.Receptor>
prm/pocket_docking_2.prm

>  <SCORE>
-9.84361

>  <SCORE.INTER>
-9.24142

>  <SCORE.INTER.CONST>
1

>  <SCORE.INTER.POLAR>
0

>  <SCORE.INTER.ROT>
5

>  <SCORE.INTER.SOLV>
24.6246

>  <SCORE.INTER.VDW>
-21.3025

>  <SCORE.INTER.norm>
-0.369657

>  <SCORE.INTRA>
-0.602184

>  <SCORE.INTRA.DIHEDRAL>
-0.163898

>  <SCORE.INTRA.DIHEDRAL.0>
3.94806

>  <SCORE.INTRA.POLAR>
0

>  <SCORE.INTRA.POLAR.0>
0

>  <SCORE.INTRA.REPUL>
0

>  <SCORE.INTRA.REPUL.0>
0

>  <SCORE.INTRA.SOLV>
-0.187387

>  <SCORE.INTRA.SOLV.lig_0>
-70.9803

>  <SCORE.INTRA.VDW>
-0.426541

>  <SCORE.INTRA.VDW.0>
-0.709409

>  <SCORE.INTRA.norm>
-0.0240874

>  <SCORE.RESTR>
0

>  <SCORE.RESTR.CAVITY>
0

>  <SCORE.RESTR.norm>
0

>  <SCORE.SYSTEM>
0

>  <SCORE.SYSTEM.CONST>
0

>  <SCORE.SYSTEM.DIHEDRAL>
0

>  <SCORE.SYSTEM.SOLV>
0

>  <SCORE.SYSTEM.norm>
0

>  <SCORE.heavy>
25

>  <SCORE.norm>
-0.393744

>  <RMSD>
0.877

$$$$
ligand
 OpenBabel11021811503D
libRbt.so/2013.1/901 2013/11/27
 25 27  0  0  0  0  0  0  0  0999 V2000
   11.6547  -24.5651   24.0091 N   0  0  0  0  0  0  0  0  0  0  0  0
   10.8126  -23.6052   23.3649 C   0  0  0  0  0  0  0  0  0  0  0  0
   11.2049  -22.9869   22.3831 O   0  0  0  0  0  0  0  0  0  0  0  0
   -1.5773  -21.1436   25.8790 N   0  0  0  0  0  0  0  0  0  0  0  0
    0.3029  -21.3252   24.3967 N   0  0  0  0  0  0  0  0  0  0  0  0
   -0.1990  -20.9189   25.5858 C   0  0  0  0  0  0  0  0  0  0  0  0
    0.5894  -20.2878   26.5070 N   0  0  0  0  0  0  0  0  0  0  0  0
    1.9050  -20.0417   26.2812 C   0  0  0  0  0  0  0  0  0  0  0  0
    2.4715  -20.4640   25.0547 C   0  0  0  0  0  0  0  0  0  0  0  0
    2.6498  -19.4134   27.2515 O   0  0  0  0  0  0  0  0  0  0  0  0
    4.5871  -19.0442   24.9744 C   0  0  0  0  0  0  0  0  0  0  0  0
    3.8551  -20.2485   24.6638 N   0  0  0  0  0  0  0  0  0  0  0  0
    5.6028  -19.0346   25.6615 O   0  0  0  0  0  0  0  0  0  0  0  0
    4.4075  -21.2549   23.8615 C   0  0  2  0  0  0  0  0  0  0  0  0
    3.5520  -21.4245   22.5797 C   0  0  0  0  0  0  0  0  0  0  0  0
    1.6225  -21.1057   24.0985 C   0  0  0  0  0  0  0  0  0  0  0  0
    2.1718  -21.5603   22.8182 N   0  0  0  0  0  0  0  0  0  0  0  0
    4.4908  -22.5643   24.6196 C   0  0  0  0  0  0  0  0  0  0  0  0
    5.6085  -22.7381   25.5054 N   0  0  0  0  0  0  0  0  0  0  0  0
    9.4404  -23.3823   23.8999 C   0  0  0  0  0  0  0  0  0  0  0  0
    8.3201  -23.7041   23.1461 C   0  0  0  0  0  0  0  0  0  0  0  0
    7.0536  -23.4848   23.6742 C   0  0  0  0  0  0  0  0  0  0  0  0
    6.9095  -22.9579   24.9561 C   0  0  0  0  0  0  0  0  0  0  0  0
    8.0294  -22.6486   25.7080 C   0  0  0  0  0  0  0  0  0  0  0  0
    9.2961  -22.8574   25.1760 C   0  0  0  0  0  0  0  0  0  0  0  0
  1  2  1  0  0  0  0
  2  3  2  0  0  0  0
  2 20  1  0  0  0  0
  4  6  1  0  0  0  0
  5  6  2  0  0  0  0
  5 16  1  0  0  0  0
  6  7  1  0  0  0  0
  7  8  1  0  0  0  0
  8  9  1  0  0  0  0
  8 10  2  0  0  0  0
  9 12  1  0  0  0  0
  9 16  2  0  0  0  0
 11 13  1  0  0  0  0
 11 12  1  0  0  0  0
 12 14  1  0  0  0  0
 14 15  1  0  0  0  0
 14 18  1  1  0  0  0
 15 17  1  0  0  0  0
 16 17  1  0  0  0  0
 18 19  1  0  0  0  0
 19 23  1  0  0  0  0
 20 21  2  0  0  0  0
 20 25  1  0  0  0  0
 21 22  1  0  0  0  0
 22 23  2  0  0  0  0
 23 24  1  0  0  0  0
 24 25  2  0  0  0  0
M  END
>  <CHROM.1>
118.92997552,-81.59049808,-72.55475556,-23.67602226,-114.92738819,4.95440733
-21.65152942,24.65334448,0.33503722,0.11426762,-2.31264067

>  <Name>
ligand

>  <RI>
0

>  <Rbt.Current_Directory>
/home/itssahil/PROJECTS/Mol_Feturizer/New_Systems/rnas/4LVV

>  <Rbt.Executable>
rbdock ($Id: //depot/dev/client3/rdock/2013.1/src/exe/rbdock.cxx#4 $)

>  <Rbt.Library>
libRbt.so (2013.1, Build901 2013/11/27)

>  <Rbt.Parameter_File>
/export/apps/rDock/src/rDock_2013.1_src/data/scripts/dock_solv.prm

>  <Rbt.Receptor>
prm/pocket_docking_2.prm

>  <SCORE>
-9.87441

>  <SCORE.INTER>
-9.55642

>  <SCORE.INTER.CONST>
1

>  <SCORE.INTER.POLAR>
0

>  <SCORE.INTER.ROT>
5

>  <SCORE.INTER.SOLV>
24.6637

>  <SCORE.INTER.VDW>
-21.5255

>  <SCORE.INTER.norm>
-0.382257

>  <SCORE.INTRA>
-0.31799

>  <SCORE.INTRA.DIHEDRAL>
0.960812

>  <SCORE.INTRA.DIHEDRAL.0>
3.94806

>  <SCORE.INTRA.POLAR>
0

>  <SCORE.INTRA.POLAR.0>
0

>  <SCORE.INTRA.REPUL>
0

>  <SCORE.INTRA.REPUL.0>
0

>  <SCORE.INTRA.SOLV>
0.0673265

>  <SCORE.INTRA.SOLV.lig_0>
-70.9803

>  <SCORE.INTRA.VDW>
-0.83206

>  <SCORE.INTRA.VDW.0>
-0.709409

>  <SCORE.INTRA.norm>
-0.0127196

>  <SCORE.RESTR>
0

>  <SCORE.RESTR.CAVITY>
0

>  <SCORE.RESTR.norm>
0

>  <SCORE.SYSTEM>
0

>  <SCORE.SYSTEM.CONST>
0

>  <SCORE.SYSTEM.DIHEDRAL>
0

>  <SCORE.SYSTEM.SOLV>
0

>  <SCORE.SYSTEM.norm>
0

>  <SCORE.heavy>
25

>  <SCORE.norm>
-0.394976

>  <RMSD>
0.880

$$$$
ligand
 OpenBabel11021811503D
libRbt.so/2013.1/901 2013/11/27
 25 27  0  0  0  0  0  0  0  0999 V2000
   11.3877  -22.3341   23.1414 N   0  0  0  0  0  0  0  0  0  0  0  0
   10.6166  -23.4389   23.6209 C   0  0  0  0  0  0  0  0  0  0  0  0
   11.0615  -24.5792   23.5769 O   0  0  0  0  0  0  0  0  0  0  0  0
   -1.8544  -21.1733   25.8677 N   0  0  0  0  0  0  0  0  0  0  0  0
    0.1055  -21.4110   24.5011 N   0  0  0  0  0  0  0  0  0  0  0  0
   -0.4780  -20.8996   25.6096 C   0  0  0  0  0  0  0  0  0  0  0  0
    0.2260  -20.1166   26.4812 N   0  0  0  0  0  0  0  0  0  0  0  0
    1.5353  -19.8175   26.2847 C   0  0  0  0  0  0  0  0  0  0  0  0
    2.1859  -20.3454   25.1438 C   0  0  0  0  0  0  0  0  0  0  0  0
    2.1935  -19.0342   27.2036 O   0  0  0  0  0  0  0  0  0  0  0  0
    4.2193  -18.8162   24.9847 C   0  0  0  0  0  0  0  0  0  0  0  0
    3.5731  -20.0918   24.7901 N   0  0  0  0  0  0  0  0  0  0  0  0
    3.7060  -17.7486   24.6676 O   0  0  0  0  0  0  0  0  0  0  0  0
    4.2213  -21.1495   24.1397 C   0  0  2  0  0  0  0  0  0  0  0  0
    3.4426  -21.5217   22.8519 C   0  0  0  0  0  0  0  0  0  0  0  0
    1.4239  -21.1467   24.2360 C   0  0  0  0  0  0  0  0  0  0  0  0
    2.0620  -21.7140   23.0450 N   0  0  0  0  0  0  0  0  0  0  0  0
    4.3400  -22.3528   25.0531 C   0  0  0  0  0  0  0  0  0  0  0  0
    5.4991  -22.4206   25.8993 N   0  0  0  0  0  0  0  0  0  0  0  0
    9.2663  -23.1761   24.1923 C   0  0  0  0  0  0  0  0  0  0  0  0
    8.1174  -23.4605   23.4671 C   0  0  0  0  0  0  0  0  0  0  0  0
    6.8724  -23.2044   24.0287 C   0  0  0  0  0  0  0  0  0  0  0  0
    6.7780  -22.6781   25.3155 C   0  0  0  0  0  0  0  0  0  0  0  0
    7.9261  -22.4062   26.0389 C   0  0  0  0  0  0  0  0  0  0  0  0
    9.1715  -22.6518   25.4732 C   0  0  0  0  0  0  0  0  0  0  0  0
  1  2  1  0  0  0  0
  2  3  2  0  0  0  0
  2 20  1  0  0  0  0
  4  6  1  0  0  0  0
  5  6  2  0  0  0  0
  5 16  1  0  0  0  0
  6  7  1  0  0  0  0
  7  8  1  0  0  0  0
  8  9  1  0  0  0  0
  8 10  2  0  0  0  0
  9 12  1  0  0  0  0
  9 16  2  0  0  0  0
 11 13  1  0  0  0  0
 11 12  1  0  0  0  0
 12 14  1  0  0  0  0
 14 15  1  0  0  0  0
 14 18  1  1  0  0  0
 15 17  1  0  0  0  0
 16 17  1  0  0  0  0
 18 19  1  0  0  0  0
 19 23  1  0  0  0  0
 20 21  2  0  0  0  0
 20 25  1  0  0  0  0
 21 22  1  0  0  0  0
 22 23  2  0  0  0  0
 23 24  1  0  0  0  0
 24 25  2  0  0  0  0
M  END
>  <CHROM.1>
-46.14478828,-88.15929955,-70.71790705,-16.99631853,104.02189962,4.65238604
-21.44980904,24.78825641,-0.34550508,-0.00204996,0.44773143

>  <Name>
ligand

>  <RI>
0

>  <Rbt.Current_Directory>
/home/itssahil/PROJECTS/Mol_Feturizer/New_Systems/rnas/4LVV

>  <Rbt.Executable>
rbdock ($Id: //depot/dev/client3/rdock/2013.1/src/exe/rbdock.cxx#4 $)

>  <Rbt.Library>
libRbt.so (2013.1, Build901 2013/11/27)

>  <Rbt.Parameter_File>
/export/apps/rDock/src/rDock_2013.1_src/data/scripts/dock_solv.prm

>  <Rbt.Receptor>
prm/pocket_docking_2.prm

>  <SCORE>
-10.2784

>  <SCORE.INTER>
-10.3507

>  <SCORE.INTER.CONST>
1

>  <SCORE.INTER.POLAR>
0

>  <SCORE.INTER.ROT>
5

>  <SCORE.INTER.SOLV>
26.594

>  <SCORE.INTER.VDW>
-22.6985

>  <SCORE.INTER.norm>
-0.414028

>  <SCORE.INTRA>
0.0723049

>  <SCORE.INTRA.DIHEDRAL>
1.88329

>  <SCORE.INTRA.DIHEDRAL.0>
3.94806

>  <SCORE.INTRA.POLAR>
0

>  <SCORE.INTRA.POLAR.0>
0

>  <SCORE.INTRA.REPUL>
0

>  <SCORE.INTRA.REPUL.0>
0

>  <SCORE.INTRA.SOLV>
-0.361158

>  <SCORE.INTRA.SOLV.lig_0>
-70.9803

>  <SCORE.INTRA.VDW>
-0.68876

>  <SCORE.INTRA.VDW.0>
-0.709409

>  <SCORE.INTRA.norm>
0.00289219

>  <SCORE.RESTR>
0

>  <SCORE.RESTR.CAVITY>
0

>  <SCORE.RESTR.norm>
0

>  <SCORE.SYSTEM>
0

>  <SCORE.SYSTEM.CONST>
0

>  <SCORE.SYSTEM.DIHEDRAL>
0

>  <SCORE.SYSTEM.SOLV>
0

>  <SCORE.SYSTEM.norm>
0

>  <SCORE.heavy>
25

>  <SCORE.norm>
-0.411136

>  <RMSD>
0.903

$$$$
ligand
 OpenBabel11021811503D
libRbt.so/2013.1/901 2013/11/27
 25 27  0  0  0  0  0  0  0  0999 V2000
   11.0337  -22.8848   22.3577 N   0  0  0  0  0  0  0  0  0  0  0  0
   10.6763  -23.5478   23.5735 C   0  0  0  0  0  0  0  0  0  0  0  0
   11.4510  -24.3288   24.1119 O   0  0  0  0  0  0  0  0  0  0  0  0
   -1.7336  -21.1054   25.9030 N   0  0  0  0  0  0  0  0  0  0  0  0
    0.1967  -21.3345   24.4936 N   0  0  0  0  0  0  0  0  0  0  0  0
   -0.3572  -20.8482   25.6282 C   0  0  0  0  0  0  0  0  0  0  0  0
    0.3766  -20.1060   26.5109 N   0  0  0  0  0  0  0  0  0  0  0  0
    1.6875  -19.8242   26.2996 C   0  0  0  0  0  0  0  0  0  0  0  0
    2.3077  -20.3271   25.1308 C   0  0  0  0  0  0  0  0  0  0  0  0
    2.3764  -19.0824   27.2303 O   0  0  0  0  0  0  0  0  0  0  0  0
    4.3657  -18.8302   24.9823 C   0  0  0  0  0  0  0  0  0  0  0  0
    3.6927  -20.0873   24.7597 N   0  0  0  0  0  0  0  0  0  0  0  0
    5.5810  -18.7339   25.1151 O   0  0  0  0  0  0  0  0  0  0  0  0
    4.3095  -21.1351   24.0645 C   0  0  2  0  0  0  0  0  0  0  0  0
    3.5011  -21.4522   22.7802 C   0  0  0  0  0  0  0  0  0  0  0  0
    1.5149  -21.0854   24.2126 C   0  0  0  0  0  0  0  0  0  0  0  0
    2.1209  -21.6259   22.9926 N   0  0  0  0  0  0  0  0  0  0  0  0
    4.4224  -22.3688   24.9372 C   0  0  0  0  0  0  0  0  0  0  0  0
    5.5584  -22.4493   25.8132 N   0  0  0  0  0  0  0  0  0  0  0  0
    9.3490  -23.2581   24.1842 C   0  0  0  0  0  0  0  0  0  0  0  0
    9.2517  -22.7635   25.4776 C   0  0  0  0  0  0  0  0  0  0  0  0
    7.9985  -22.5026   26.0183 C   0  0  0  0  0  0  0  0  0  0  0  0
    6.8486  -22.7237   25.2630 C   0  0  0  0  0  0  0  0  0  0  0  0
    6.9510  -23.2068   23.9702 C   0  0  0  0  0  0  0  0  0  0  0  0
    8.2036  -23.4783   23.4330 C   0  0  0  0  0  0  0  0  0  0  0  0
  1  2  1  0  0  0  0
  2  3  2  0  0  0  0
  2 20  1  0  0  0  0
  4  6  1  0  0  0  0
  5  6  2  0  0  0  0
  5 16  1  0  0  0  0
  6  7  1  0  0  0  0
  7  8  1  0  0  0  0
  8  9  1  0  0  0  0
  8 10  2  0  0  0  0
  9 12  1  0  0  0  0
  9 16  2  0  0  0  0
 11 13  1  0  0  0  0
 11 12  1  0  0  0  0
 12 14  1  0  0  0  0
 14 15  1  0  0  0  0
 14 18  1  1  0  0  0
 15 17  1  0  0  0  0
 16 17  1  0  0  0  0
 18 19  1  0  0  0  0
 19 23  1  0  0  0  0
 20 21  2  0  0  0  0
 20 25  1  0  0  0  0
 21 22  1  0  0  0  0
 22 23  2  0  0  0  0
 23 24  1  0  0  0  0
 24 25  2  0  0  0  0
M  END
>  <CHROM.1>
154.04687328,-84.84465889,-73.42807524,164.95487511,-121.87878713,4.83239302
-21.51141487,24.78023305,0.33159984,0.08720338,-2.42659210

>  <Name>
ligand

>  <RI>
0

>  <Rbt.Current_Directory>
/home/itssahil/PROJECTS/Mol_Feturizer/New_Systems/rnas/4LVV

>  <Rbt.Executable>
rbdock ($Id: //depot/dev/client3/rdock/2013.1/src/exe/rbdock.cxx#4 $)

>  <Rbt.Library>
libRbt.so (2013.1, Build901 2013/11/27)

>  <Rbt.Parameter_File>
/export/apps/rDock/src/rDock_2013.1_src/data/scripts/dock_solv.prm

>  <Rbt.Receptor>
prm/pocket_docking_3.prm

>  <SCORE>
-9.71074

>  <SCORE.INTER>
-9.93327

>  <SCORE.INTER.CONST>
1

>  <SCORE.INTER.POLAR>
0

>  <SCORE.INTER.ROT>
5

>  <SCORE.INTER.SOLV>
24.8876

>  <SCORE.INTER.VDW>
-21.8514

>  <SCORE.INTER.norm>
-0.397331

>  <SCORE.INTRA>
0.222533

>  <SCORE.INTRA.DIHEDRAL>
1.21535

>  <SCORE.INTRA.DIHEDRAL.0>
3.94806

>  <SCORE.INTRA.POLAR>
0

>  <SCORE.INTRA.POLAR.0>
0

>  <SCORE.INTRA.REPUL>
0

>  <SCORE.INTRA.REPUL.0>
0

>  <SCORE.INTRA.SOLV>
-0.0878885

>  <SCORE.INTRA.SOLV.lig_0>
-70.9803

>  <SCORE.INTRA.VDW>
-0.3412

>  <SCORE.INTRA.VDW.0>
-0.709409

>  <SCORE.INTRA.norm>
0.00890132

>  <SCORE.RESTR>
0

>  <SCORE.RESTR.CAVITY>
0

>  <SCORE.RESTR.norm>
0

>  <SCORE.SYSTEM>
0

>  <SCORE.SYSTEM.CONST>
0

>  <SCORE.SYSTEM.DIHEDRAL>
0

>  <SCORE.SYSTEM.SOLV>
0

>  <SCORE.SYSTEM.norm>
0

>  <SCORE.heavy>
25

>  <SCORE.norm>
-0.38843

>  <RMSD>
0.904

$$$$
ligand
 OpenBabel11021811503D
libRbt.so/2013.1/901 2013/11/27
 25 27  0  0  0  0  0  0  0  0999 V2000
   11.1525  -22.5639   22.5573 N   0  0  0  0  0  0  0  0  0  0  0  0
   10.6477  -23.4796   23.5330 C   0  0  0  0  0  0  0  0  0  0  0  0
   11.2965  -24.4650   23.8618 O   0  0  0  0  0  0  0  0  0  0  0  0
   -1.7869  -21.2003   25.8774 N   0  0  0  0  0  0  0  0  0  0  0  0
    0.1570  -21.4014   24.4823 N   0  0  0  0  0  0  0  0  0  0  0  0
   -0.4128  -20.9218   25.6120 C   0  0  0  0  0  0  0  0  0  0  0  0
    0.3027  -20.1664   26.4985 N   0  0  0  0  0  0  0  0  0  0  0  0
    1.6105  -19.8642   26.2961 C   0  0  0  0  0  0  0  0  0  0  0  0
    2.2470  -20.3593   25.1328 C   0  0  0  0  0  0  0  0  0  0  0  0
    2.2807  -19.1098   27.2303 O   0  0  0  0  0  0  0  0  0  0  0  0
    4.2820  -18.8301   24.9962 C   0  0  0  0  0  0  0  0  0  0  0  0
    3.6307  -20.0982   24.7712 N   0  0  0  0  0  0  0  0  0  0  0  0
    4.8074  -18.5252   26.0614 O   0  0  0  0  0  0  0  0  0  0  0  0
    4.2691  -21.1374   24.0825 C   0  0  2  0  0  0  0  0  0  0  0  0
    3.4751  -21.4697   22.7931 C   0  0  0  0  0  0  0  0  0  0  0  0
    1.4730  -21.1319   24.2104 C   0  0  0  0  0  0  0  0  0  0  0  0
    2.0964  -21.6649   22.9959 N   0  0  0  0  0  0  0  0  0  0  0  0
    4.3953  -22.3674   24.9585 C   0  0  0  0  0  0  0  0  0  0  0  0
    5.5399  -22.4405   25.8238 N   0  0  0  0  0  0  0  0  0  0  0  0
    9.3234  -23.2040   24.1568 C   0  0  0  0  0  0  0  0  0  0  0  0
    9.2345  -22.6569   25.4294 C   0  0  0  0  0  0  0  0  0  0  0  0
    7.9839  -22.4109   25.9830 C   0  0  0  0  0  0  0  0  0  0  0  0
    6.8278  -22.6993   25.2606 C   0  0  0  0  0  0  0  0  0  0  0  0
    6.9215  -23.2347   23.9879 C   0  0  0  0  0  0  0  0  0  0  0  0
    8.1719  -23.4911   23.4383 C   0  0  0  0  0  0  0  0  0  0  0  0
  1  2  1  0  0  0  0
  2  3  2  0  0  0  0
  2 20  1  0  0  0  0
  4  6  1  0  0  0  0
  5  6  2  0  0  0  0
  5 16  1  0  0  0  0
  6  7  1  0  0  0  0
  7  8  1  0  0  0  0
  8  9  1  0  0  0  0
  8 10  2  0  0  0  0
  9 12  1  0  0  0  0
  9 16  2  0  0  0  0
 11 13  1  0  0  0  0
 11 12  1  0  0  0  0
 12 14  1  0  0  0  0
 14 15  1  0  0  0  0
 14 18  1  1  0  0  0
 15 17  1  0  0  0  0
 16 17  1  0  0  0  0
 18 19  1  0  0  0  0
 19 23  1  0  0  0  0
 20 21  2  0  0  0  0
 20 25  1  0  0  0  0
 21 22  1  0  0  0  0
 22 23  2  0  0  0  0
 23 24  1  0  0  0  0
 24 25  2  0  0  0  0
M  END
>  <CHROM.1>
84.76071070,-86.03683495,-72.83945301,161.92451615,-101.39727819,4.75494368
-21.50355050,24.81833646,0.33349954,0.08017745,-2.42285753

>  <Name>
ligand

>  <RI>
0

>  <Rbt.Current_Directory>
/home/itssahil/PROJECTS/Mol_Feturizer/New_Systems/rnas/4LVV

>  <Rbt.Executable>
rbdock ($Id: //depot/dev/client3/rdock/2013.1/src/exe/rbdock.cxx#4 $)

>  <Rbt.Library>
libRbt.so (2013.1, Build901 2013/11/27)

>  <Rbt.Parameter_File>
/export/apps/rDock/src/rDock_2013.1_src/data/scripts/dock_solv.prm

>  <Rbt.Receptor>
prm/pocket_docking_2.prm

>  <SCORE>
-9.913

>  <SCORE.INTER>
-10.1172

>  <SCORE.INTER.CONST>
1

>  <SCORE.INTER.POLAR>
0

>  <SCORE.INTER.ROT>
5

>  <SCORE.INTER.SOLV>
25.4099

>  <SCORE.INTER.VDW>
-22.1481

>  <SCORE.INTER.norm>
-0.404687

>  <SCORE.INTRA>
0.204172

>  <SCORE.INTRA.DIHEDRAL>
1.65357

>  <SCORE.INTRA.DIHEDRAL.0>
3.94806

>  <SCORE.INTRA.POLAR>
0

>  <SCORE.INTRA.POLAR.0>
0

>  <SCORE.INTRA.REPUL>
0

>  <SCORE.INTRA.REPUL.0>
0

>  <SCORE.INTRA.SOLV>
-0.0310034

>  <SCORE.INTRA.SOLV.lig_0>
-70.9803

>  <SCORE.INTRA.VDW>
-0.607111

>  <SCORE.INTRA.VDW.0>
-0.709409

>  <SCORE.INTRA.norm>
0.00816687

>  <SCORE.RESTR>
0

>  <SCORE.RESTR.CAVITY>
0

>  <SCORE.RESTR.norm>
0

>  <SCORE.SYSTEM>
0

>  <SCORE.SYSTEM.CONST>
0

>  <SCORE.SYSTEM.DIHEDRAL>
0

>  <SCORE.SYSTEM.SOLV>
0

>  <SCORE.SYSTEM.norm>
0

>  <SCORE.heavy>
25

>  <SCORE.norm>
-0.39652

>  <RMSD>
0.930

$$$$
ligand
 OpenBabel11021811503D
libRbt.so/2013.1/901 2013/11/27
 25 27  0  0  0  0  0  0  0  0999 V2000
   11.0766  -23.3914   22.3646 N   0  0  0  0  0  0  0  0  0  0  0  0
   10.8273  -23.5689   23.7616 C   0  0  0  0  0  0  0  0  0  0  0  0
   11.7255  -23.9149   24.5190 O   0  0  0  0  0  0  0  0  0  0  0  0
   -1.6049  -21.0956   25.9162 N   0  0  0  0  0  0  0  0  0  0  0  0
    0.2733  -21.3279   24.4384 N   0  0  0  0  0  0  0  0  0  0  0  0
   -0.2303  -20.8690   25.6074 C   0  0  0  0  0  0  0  0  0  0  0  0
    0.5528  -20.1830   26.4932 N   0  0  0  0  0  0  0  0  0  0  0  0
    1.8646  -19.9323   26.2509 C   0  0  0  0  0  0  0  0  0  0  0  0
    2.4329  -20.4085   25.0451 C   0  0  0  0  0  0  0  0  0  0  0  0
    2.6043  -19.2473   27.1861 O   0  0  0  0  0  0  0  0  0  0  0  0
    4.5305  -18.9686   24.8868 C   0  0  0  0  0  0  0  0  0  0  0  0
    3.8125  -20.1958   24.6391 N   0  0  0  0  0  0  0  0  0  0  0  0
    4.4264  -17.9750   24.1756 O   0  0  0  0  0  0  0  0  0  0  0  0
    4.3752  -21.2342   23.8862 C   0  0  2  0  0  0  0  0  0  0  0  0
    3.5183  -21.4780   22.6174 C   0  0  0  0  0  0  0  0  0  0  0  0
    1.5892  -21.1075   24.1250 C   0  0  0  0  0  0  0  0  0  0  0  0
    2.1405  -21.6187   22.8672 N   0  0  0  0  0  0  0  0  0  0  0  0
    4.4768  -22.5030   24.7084 C   0  0  0  0  0  0  0  0  0  0  0  0
    5.5507  -22.5826   25.6595 N   0  0  0  0  0  0  0  0  0  0  0  0
    9.4567  -23.3083   24.2837 C   0  0  0  0  0  0  0  0  0  0  0  0
    9.2640  -22.8182   25.5680 C   0  0  0  0  0  0  0  0  0  0  0  0
    7.9727  -22.5848   26.0250 C   0  0  0  0  0  0  0  0  0  0  0  0
    6.8799  -22.8287   25.1955 C   0  0  0  0  0  0  0  0  0  0  0  0
    7.0776  -23.3072   23.9120 C   0  0  0  0  0  0  0  0  0  0  0  0
    8.3683  -23.5513   23.4584 C   0  0  0  0  0  0  0  0  0  0  0  0
  1  2  1  0  0  0  0
  2  3  2  0  0  0  0
  2 20  1  0  0  0  0
  4  6  1  0  0  0  0
  5  6  2  0  0  0  0
  5 16  1  0  0  0  0
  6  7  1  0  0  0  0
  7  8  1  0  0  0  0
  8  9  1  0  0  0  0
  8 10  2  0  0  0  0
  9 12  1  0  0  0  0
  9 16  2  0  0  0  0
 11 13  1  0  0  0  0
 11 12  1  0  0  0  0
 12 14  1  0  0  0  0
 14 15  1  0  0  0  0
 14 18  1  1  0  0  0
 15 17  1  0  0  0  0
 16 17  1  0  0  0  0
 18 19  1  0  0  0  0
 19 23  1  0  0  0  0
 20 21  2  0  0  0  0
 20 25  1  0  0  0  0
 21 22  1  0  0  0  0
 22 23  2  0  0  0  0
 23 24  1  0  0  0  0
 24 25  2  0  0  0  0
M  END
>  <CHROM.1>
-81.76249692,-77.73079925,-75.61502609,163.95889052,-147.88182770,4.87558797
-21.53906543,24.70757055,0.32394632,0.11389868,-2.42843760

>  <Name>
ligand

>  <RI>
0

>  <Rbt.Current_Directory>
/home/itssahil/PROJECTS/Mol_Feturizer/New_Systems/rnas/4LVV

>  <Rbt.Executable>
rbdock ($Id: //depot/dev/client3/rdock/2013.1/src/exe/rbdock.cxx#4 $)

>  <Rbt.Library>
libRbt.so (2013.1, Build901 2013/11/27)

>  <Rbt.Parameter_File>
/export/apps/rDock/src/rDock_2013.1_src/data/scripts/dock_solv.prm

>  <Rbt.Receptor>
prm/pocket_docking_2.prm

>  <SCORE>
-9.84107

>  <SCORE.INTER>
-9.55086

>  <SCORE.INTER.CONST>
1

>  <SCORE.INTER.POLAR>
0

>  <SCORE.INTER.ROT>
5

>  <SCORE.INTER.SOLV>
24.7432

>  <SCORE.INTER.VDW>
-21.5483

>  <SCORE.INTER.norm>
-0.382034

>  <SCORE.INTRA>
-0.290209

>  <SCORE.INTRA.DIHEDRAL>
0.418831

>  <SCORE.INTRA.DIHEDRAL.0>
3.94806

>  <SCORE.INTRA.POLAR>
0

>  <SCORE.INTRA.POLAR.0>
0

>  <SCORE.INTRA.REPUL>
0

>  <SCORE.INTRA.REPUL.0>
0

>  <SCORE.INTRA.SOLV>
-0.334801

>  <SCORE.INTRA.SOLV.lig_0>
-70.9803

>  <SCORE.INTRA.VDW>
-0.332224

>  <SCORE.INTRA.VDW.0>
-0.709409

>  <SCORE.INTRA.norm>
-0.0116084

>  <SCORE.RESTR>
0

>  <SCORE.RESTR.CAVITY>
0

>  <SCORE.RESTR.norm>
0

>  <SCORE.SYSTEM>
0

>  <SCORE.SYSTEM.CONST>
0

>  <SCORE.SYSTEM.DIHEDRAL>
0

>  <SCORE.SYSTEM.SOLV>
0

>  <SCORE.SYSTEM.norm>
0

>  <SCORE.heavy>
25

>  <SCORE.norm>
-0.393643

>  <RMSD>
0.930

$$$$
ligand
 OpenBabel11021811503D
libRbt.so/2013.1/901 2013/11/27
 25 27  0  0  0  0  0  0  0  0999 V2000
   11.3283  -24.1692   25.1050 N   0  0  0  0  0  0  0  0  0  0  0  0
   10.8475  -22.8728   25.4703 C   0  0  0  0  0  0  0  0  0  0  0  0
   11.6216  -21.9336   25.6078 O   0  0  0  0  0  0  0  0  0  0  0  0
   -1.8894  -21.2532   25.8758 N   0  0  0  0  0  0  0  0  0  0  0  0
    0.1029  -21.4818   24.5554 N   0  0  0  0  0  0  0  0  0  0  0  0
   -0.5162  -20.9496   25.6344 C   0  0  0  0  0  0  0  0  0  0  0  0
    0.1484  -20.1178   26.4915 N   0  0  0  0  0  0  0  0  0  0  0  0
    1.4527  -19.7887   26.3094 C   0  0  0  0  0  0  0  0  0  0  0  0
    2.1401  -20.3365   25.1999 C   0  0  0  0  0  0  0  0  0  0  0  0
    2.0707  -18.9563   27.2129 O   0  0  0  0  0  0  0  0  0  0  0  0
    4.1332  -18.7567   25.0263 C   0  0  0  0  0  0  0  0  0  0  0  0
    3.5264  -20.0560   24.8638 N   0  0  0  0  0  0  0  0  0  0  0  0
    4.6983  -18.4040   26.0559 O   0  0  0  0  0  0  0  0  0  0  0  0
    4.2163  -21.1164   24.2627 C   0  0  2  0  0  0  0  0  0  0  0  0
    3.4738  -21.5541   22.9740 C   0  0  0  0  0  0  0  0  0  0  0  0
    1.4185  -21.1894   24.3062 C   0  0  0  0  0  0  0  0  0  0  0  0
    2.0955  -21.7787   23.1477 N   0  0  0  0  0  0  0  0  0  0  0  0
    4.3501  -22.2841   25.2192 C   0  0  0  0  0  0  0  0  0  0  0  0
    5.2661  -22.1308   26.3154 N   0  0  0  0  0  0  0  0  0  0  0  0
    9.3832  -22.6800   25.6642 C   0  0  0  0  0  0  0  0  0  0  0  0
    8.4902  -22.9083   24.6263 C   0  0  0  0  0  0  0  0  0  0  0  0
    7.1301  -22.7202   24.8397 C   0  0  0  0  0  0  0  0  0  0  0  0
    6.6650  -22.3179   26.0901 C   0  0  0  0  0  0  0  0  0  0  0  0
    7.5583  -22.1018   27.1249 C   0  0  0  0  0  0  0  0  0  0  0  0
    8.9195  -22.2791   26.9088 C   0  0  0  0  0  0  0  0  0  0  0  0
  1  2  1  0  0  0  0
  2  3  2  0  0  0  0
  2 20  1  0  0  0  0
  4  6  1  0  0  0  0
  5  6  2  0  0  0  0
  5 16  1  0  0  0  0
  6  7  1  0  0  0  0
  7  8  1  0  0  0  0
  8  9  1  0  0  0  0
  8 10  2  0  0  0  0
  9 12  1  0  0  0  0
  9 16  2  0  0  0  0
 11 13  1  0  0  0  0
 11 12  1  0  0  0  0
 12 14  1  0  0  0  0
 14 15  1  0  0  0  0
 14 18  1  1  0  0  0
 15 17  1  0  0  0  0
 16 17  1  0  0  0  0
 18 19  1  0  0  0  0
 19 23  1  0  0  0  0
 20 21  2  0  0  0  0
 20 25  1  0  0  0  0
 21 22  1  0  0  0  0
 22 23  2  0  0  0  0
 23 24  1  0  0  0  0
 24 25  2  0  0  0  0
M  END
>  <CHROM.1>
90.05333044,-72.04525311,-79.95081390,-3.68861472,-60.44808368,4.70388949
-21.30672222,25.39786125,0.16759628,0.16594422,-2.46167223

>  <Name>
ligand

>  <RI>
0

>  <Rbt.Current_Directory>
/home/itssahil/PROJECTS/Mol_Feturizer/New_Systems/rnas/4LVV

>  <Rbt.Executable>
rbdock ($Id: //depot/dev/client3/rdock/2013.1/src/exe/rbdock.cxx#4 $)

>  <Rbt.Library>
libRbt.so (2013.1, Build901 2013/11/27)

>  <Rbt.Parameter_File>
/export/apps/rDock/src/rDock_2013.1_src/data/scripts/dock_solv.prm

>  <Rbt.Receptor>
prm/pocket_docking_2.prm

>  <SCORE>
-9.91065

>  <SCORE.INTER>
-9.51437

>  <SCORE.INTER.CONST>
1

>  <SCORE.INTER.POLAR>
0

>  <SCORE.INTER.ROT>
5

>  <SCORE.INTER.SOLV>
25.8493

>  <SCORE.INTER.VDW>
-21.8927

>  <SCORE.INTER.norm>
-0.380575

>  <SCORE.INTRA>
-0.396273

>  <SCORE.INTRA.DIHEDRAL>
0.270878

>  <SCORE.INTRA.DIHEDRAL.0>
3.94806

>  <SCORE.INTRA.POLAR>
0

>  <SCORE.INTRA.POLAR.0>
0

>  <SCORE.INTRA.REPUL>
0

>  <SCORE.INTRA.REPUL.0>
0

>  <SCORE.INTRA.SOLV>
0.26178

>  <SCORE.INTRA.SOLV.lig_0>
-70.9803

>  <SCORE.INTRA.VDW>
-0.662602

>  <SCORE.INTRA.VDW.0>
-0.709409

>  <SCORE.INTRA.norm>
-0.0158509

>  <SCORE.RESTR>
0

>  <SCORE.RESTR.CAVITY>
0

>  <SCORE.RESTR.norm>
0

>  <SCORE.SYSTEM>
0

>  <SCORE.SYSTEM.CONST>
0

>  <SCORE.SYSTEM.DIHEDRAL>
0

>  <SCORE.SYSTEM.SOLV>
0

>  <SCORE.SYSTEM.norm>
0

>  <SCORE.heavy>
25

>  <SCORE.norm>
-0.396426

>  <RMSD>
0.946

$$$$
ligand
 OpenBabel11021811503D
libRbt.so/2013.1/901 2013/11/27
 25 27  0  0  0  0  0  0  0  0999 V2000
   11.2408  -23.7090   24.2144 N   0  0  0  0  0  0  0  0  0  0  0  0
   10.7966  -23.1787   25.4661 C   0  0  0  0  0  0  0  0  0  0  0  0
   11.5926  -22.9577   26.3704 O   0  0  0  0  0  0  0  0  0  0  0  0
   -1.9005  -21.3010   25.9191 N   0  0  0  0  0  0  0  0  0  0  0  0
    0.0784  -21.4709   24.5698 N   0  0  0  0  0  0  0  0  0  0  0  0
   -0.5367  -20.9671   25.6647 C   0  0  0  0  0  0  0  0  0  0  0  0
    0.1230  -20.1354   26.5258 N   0  0  0  0  0  0  0  0  0  0  0  0
    1.4182  -19.7782   26.3320 C   0  0  0  0  0  0  0  0  0  0  0  0
    2.1013  -20.2959   25.2055 C   0  0  0  0  0  0  0  0  0  0  0  0
    2.0318  -18.9476   27.2400 O   0  0  0  0  0  0  0  0  0  0  0  0
    4.0611  -18.6751   25.0304 C   0  0  0  0  0  0  0  0  0  0  0  0
    3.4775  -19.9834   24.8559 N   0  0  0  0  0  0  0  0  0  0  0  0
    5.2666  -18.4628   24.9563 O   0  0  0  0  0  0  0  0  0  0  0  0
    4.1797  -21.0211   24.2300 C   0  0  2  0  0  0  0  0  0  0  0  0
    3.4289  -21.4538   22.9444 C   0  0  0  0  0  0  0  0  0  0  0  0
    1.3847  -21.1492   24.3083 C   0  0  0  0  0  0  0  0  0  0  0  0
    2.0576  -21.7078   23.1323 N   0  0  0  0  0  0  0  0  0  0  0  0
    4.3486  -22.2001   25.1668 C   0  0  0  0  0  0  0  0  0  0  0  0
    5.2733  -22.0443   26.2553 N   0  0  0  0  0  0  0  0  0  0  0  0
    9.3478  -22.8829   25.6454 C   0  0  0  0  0  0  0  0  0  0  0  0
    8.4519  -23.0446   24.5975 C   0  0  0  0  0  0  0  0  0  0  0  0
    7.1064  -22.7609   24.7972 C   0  0  0  0  0  0  0  0  0  0  0  0
    6.6577  -22.3297   26.0440 C   0  0  0  0  0  0  0  0  0  0  0  0
    7.5530  -22.1802   27.0888 C   0  0  0  0  0  0  0  0  0  0  0  0
    8.9005  -22.4532   26.8864 C   0  0  0  0  0  0  0  0  0  0  0  0
  1  2  1  0  0  0  0
  2  3  2  0  0  0  0
  2 20  1  0  0  0  0
  4  6  1  0  0  0  0
  5  6  2  0  0  0  0
  5 16  1  0  0  0  0
  6  7  1  0  0  0  0
  7  8  1  0  0  0  0
  8  9  1  0  0  0  0
  8 10  2  0  0  0  0
  9 12  1  0  0  0  0
  9 16  2  0  0  0  0
 11 13  1  0  0  0  0
 11 12  1  0  0  0  0
 12 14  1  0  0  0  0
 14 15  1  0  0  0  0
 14 18  1  1  0  0  0
 15 17  1  0  0  0  0
 16 17  1  0  0  0  0
 18 19  1  0  0  0  0
 19 23  1  0  0  0  0
 20 21  2  0  0  0  0
 20 25  1  0  0  0  0
 21 22  1  0  0  0  0
 22 23  2  0  0  0  0
 23 24  1  0  0  0  0
 24 25  2  0  0  0  0
M  END
>  <CHROM.1>
167.07208352,-71.89433268,-86.21220992,-0.30432364,-3.62412702,4.70084137
-21.34823297,25.33636966,0.16968249,0.19356675,-2.37985905

>  <Name>
ligand

>  <RI>
0

>  <Rbt.Current_Directory>
/home/itssahil/PROJECTS/Mol_Feturizer/New_Systems/rnas/4LVV

>  <Rbt.Executable>
rbdock ($Id: //depot/dev/client3/rdock/2013.1/src/exe/rbdock.cxx#4 $)

>  <Rbt.Library>
libRbt.so (2013.1, Build901 2013/11/27)

>  <Rbt.Parameter_File>
/export/apps/rDock/src/rDock_2013.1_src/data/scripts/dock_solv.prm

>  <Rbt.Receptor>
prm/pocket_docking_2.prm

>  <SCORE>
-9.4759

>  <SCORE.INTER>
-9.59187

>  <SCORE.INTER.CONST>
1

>  <SCORE.INTER.POLAR>
0

>  <SCORE.INTER.ROT>
5

>  <SCORE.INTER.SOLV>
25.4316

>  <SCORE.INTER.VDW>
-21.8051

>  <SCORE.INTER.norm>
-0.383675

>  <SCORE.INTRA>
0.115974

>  <SCORE.INTRA.DIHEDRAL>
0.166949

>  <SCORE.INTRA.DIHEDRAL.0>
3.94806

>  <SCORE.INTRA.POLAR>
0

>  <SCORE.INTRA.POLAR.0>
0

>  <SCORE.INTRA.REPUL>
0

>  <SCORE.INTRA.REPUL.0>
0

>  <SCORE.INTRA.SOLV>
0.0585672

>  <SCORE.INTRA.SOLV.lig_0>
-70.9803

>  <SCORE.INTRA.VDW>
0.0032154

>  <SCORE.INTRA.VDW.0>
-0.709409

>  <SCORE.INTRA.norm>
0.00463895

>  <SCORE.RESTR>
0

>  <SCORE.RESTR.CAVITY>
0

>  <SCORE.RESTR.norm>
0

>  <SCORE.SYSTEM>
0

>  <SCORE.SYSTEM.CONST>
0

>  <SCORE.SYSTEM.DIHEDRAL>
0

>  <SCORE.SYSTEM.SOLV>
0

>  <SCORE.SYSTEM.norm>
0

>  <SCORE.heavy>
25

>  <SCORE.norm>
-0.379036

>  <RMSD>
0.953

$$$$
ligand
 OpenBabel11021811503D
libRbt.so/2013.1/901 2013/11/27
 25 27  0  0  0  0  0  0  0  0999 V2000
   10.8053  -24.4891   22.7075 N   0  0  0  0  0  0  0  0  0  0  0  0
   10.6644  -23.4210   23.6480 C   0  0  0  0  0  0  0  0  0  0  0  0
   11.6229  -22.7197   23.9475 O   0  0  0  0  0  0  0  0  0  0  0  0
   -1.7968  -21.1497   25.8723 N   0  0  0  0  0  0  0  0  0  0  0  0
    0.1457  -21.3604   24.4767 N   0  0  0  0  0  0  0  0  0  0  0  0
   -0.4196  -20.8839   25.6100 C   0  0  0  0  0  0  0  0  0  0  0  0
    0.3035  -20.1435   26.5029 N   0  0  0  0  0  0  0  0  0  0  0  0
    1.6146  -19.8539   26.3037 C   0  0  0  0  0  0  0  0  0  0  0  0
    2.2465  -20.3464   25.1368 C   0  0  0  0  0  0  0  0  0  0  0  0
    2.2924  -19.1144   27.2444 O   0  0  0  0  0  0  0  0  0  0  0  0
    4.2980  -18.8383   25.0136 C   0  0  0  0  0  0  0  0  0  0  0  0
    3.6331  -20.0973   24.7780 N   0  0  0  0  0  0  0  0  0  0  0  0
    4.9849  -18.6173   26.0052 O   0  0  0  0  0  0  0  0  0  0  0  0
    4.2606  -21.1377   24.0812 C   0  0  2  0  0  0  0  0  0  0  0  0
    3.4639  -21.4509   22.7887 C   0  0  0  0  0  0  0  0  0  0  0  0
    1.4647  -21.1030   24.2077 C   0  0  0  0  0  0  0  0  0  0  0  0
    2.0830  -21.6328   22.9892 N   0  0  0  0  0  0  0  0  0  0  0  0
    4.3730  -22.3762   24.9472 C   0  0  0  0  0  0  0  0  0  0  0  0
    5.4984  -22.4530   25.8370 N   0  0  0  0  0  0  0  0  0  0  0  0
    9.3242  -23.1645   24.2455 C   0  0  0  0  0  0  0  0  0  0  0  0
    9.2023  -22.6478   25.5281 C   0  0  0  0  0  0  0  0  0  0  0  0
    7.9376  -22.4191   26.0566 C   0  0  0  0  0  0  0  0  0  0  0  0
    6.8005  -22.6942   25.2996 C   0  0  0  0  0  0  0  0  0  0  0  0
    6.9273  -23.1992   24.0173 C   0  0  0  0  0  0  0  0  0  0  0  0
    8.1917  -23.4385   23.4926 C   0  0  0  0  0  0  0  0  0  0  0  0
  1  2  1  0  0  0  0
  2  3  2  0  0  0  0
  2 20  1  0  0  0  0
  4  6  1  0  0  0  0
  5  6  2  0  0  0  0
  5 16  1  0  0  0  0
  6  7  1  0  0  0  0
  7  8  1  0  0  0  0
  8  9  1  0  0  0  0
  8 10  2  0  0  0  0
  9 12  1  0  0  0  0
  9 16  2  0  0  0  0
 11 13  1  0  0  0  0
 11 12  1  0  0  0  0
 12 14  1  0  0  0  0
 14 15  1  0  0  0  0
 14 18  1  1  0  0  0
 15 17  1  0  0  0  0
 16 17  1  0  0  0  0
 18 19  1  0  0  0  0
 19 23  1  0  0  0  0
 20 21  2  0  0  0  0
 20 25  1  0  0  0  0
 21 22  1  0  0  0  0
 22 23  2  0  0  0  0
 23 24  1  0  0  0  0
 24 25  2  0  0  0  0
M  END
>  <CHROM.1>
95.36130932,-84.50609682,-72.55442435,162.51373058,149.36017478,4.75828881
-21.48942002,24.84528663,0.32070354,0.09144449,-2.40265214

>  <Name>
ligand

>  <RI>
0

>  <Rbt.Current_Directory>
/home/itssahil/PROJECTS/Mol_Feturizer/New_Systems/rnas/4LVV

>  <Rbt.Executable>
rbdock ($Id: //depot/dev/client3/rdock/2013.1/src/exe/rbdock.cxx#4 $)

>  <Rbt.Library>
libRbt.so (2013.1, Build901 2013/11/27)

>  <Rbt.Parameter_File>
/export/apps/rDock/src/rDock_2013.1_src/data/scripts/dock_solv.prm

>  <Rbt.Receptor>
prm/pocket_docking_2.prm

>  <SCORE>
-9.75597

>  <SCORE.INTER>
-10.0507

>  <SCORE.INTER.CONST>
1

>  <SCORE.INTER.POLAR>
0

>  <SCORE.INTER.ROT>
5

>  <SCORE.INTER.SOLV>
25.4861

>  <SCORE.INTER.VDW>
-22.1292

>  <SCORE.INTER.norm>
-0.402029

>  <SCORE.INTRA>
0.294765

>  <SCORE.INTRA.DIHEDRAL>
1.45032

>  <SCORE.INTRA.DIHEDRAL.0>
3.94806

>  <SCORE.INTRA.POLAR>
0

>  <SCORE.INTRA.POLAR.0>
0

>  <SCORE.INTRA.REPUL>
0

>  <SCORE.INTRA.REPUL.0>
0

>  <SCORE.INTRA.SOLV>
0.0290882

>  <SCORE.INTRA.SOLV.lig_0>
-70.9803

>  <SCORE.INTRA.VDW>
-0.444938

>  <SCORE.INTRA.VDW.0>
-0.709409

>  <SCORE.INTRA.norm>
0.0117906

>  <SCORE.RESTR>
0

>  <SCORE.RESTR.CAVITY>
0

>  <SCORE.RESTR.norm>
0

>  <SCORE.SYSTEM>
0

>  <SCORE.SYSTEM.CONST>
0

>  <SCORE.SYSTEM.DIHEDRAL>
0

>  <SCORE.SYSTEM.SOLV>
0

>  <SCORE.SYSTEM.norm>
0

>  <SCORE.heavy>
25

>  <SCORE.norm>
-0.390239

>  <RMSD>
0.955

$$$$
ligand
 OpenBabel11021811503D
libRbt.so/2013.1/901 2013/11/27
 25 27  0  0  0  0  0  0  0  0999 V2000
   11.1046  -22.9089   26.9953 N   0  0  0  0  0  0  0  0  0  0  0  0
   10.8392  -23.1543   25.6115 C   0  0  0  0  0  0  0  0  0  0  0  0
   11.7464  -23.4459   24.8420 O   0  0  0  0  0  0  0  0  0  0  0  0
   -1.5026  -21.5953   26.2357 N   0  0  0  0  0  0  0  0  0  0  0  0
    0.2198  -21.4161   24.5724 N   0  0  0  0  0  0  0  0  0  0  0  0
   -0.2127  -21.1438   25.8253 C   0  0  0  0  0  0  0  0  0  0  0  0
    0.5608  -20.4347   26.7012 N   0  0  0  0  0  0  0  0  0  0  0  0
    1.7928  -19.9747   26.3649 C   0  0  0  0  0  0  0  0  0  0  0  0
    2.2873  -20.2512   25.0677 C   0  0  0  0  0  0  0  0  0  0  0  0
    2.5290  -19.2772   27.2936 O   0  0  0  0  0  0  0  0  0  0  0  0
    4.1409  -18.5128   24.8663 C   0  0  0  0  0  0  0  0  0  0  0  0
    3.5736  -19.8038   24.5591 N   0  0  0  0  0  0  0  0  0  0  0  0
    3.9728  -17.5216   24.1641 O   0  0  0  0  0  0  0  0  0  0  0  0
    4.1876  -20.6763   23.6515 C   0  0  2  0  0  0  0  0  0  0  0  0
    3.2402  -20.9257   22.4499 C   0  0  0  0  0  0  0  0  0  0  0  0
    1.4522  -20.9788   24.1622 C   0  0  0  0  0  0  0  0  0  0  0  0
    1.9292  -21.2877   22.8114 N   0  0  0  0  0  0  0  0  0  0  0  0
    4.5482  -21.9863   24.3224 C   0  0  0  0  0  0  0  0  0  0  0  0
    5.5038  -22.8239   23.6519 N   0  0  0  0  0  0  0  0  0  0  0  0
    9.4342  -23.0659   25.1247 C   0  0  0  0  0  0  0  0  0  0  0  0
    8.4081  -22.6772   25.9748 C   0  0  0  0  0  0  0  0  0  0  0  0
    7.1080  -22.6038   25.4897 C   0  0  0  0  0  0  0  0  0  0  0  0
    6.8385  -22.9057   24.1563 C   0  0  0  0  0  0  0  0  0  0  0  0
    7.8666  -23.2825   23.3098 C   0  0  0  0  0  0  0  0  0  0  0  0
    9.1652  -23.3667   23.7974 C   0  0  0  0  0  0  0  0  0  0  0  0
  1  2  1  0  0  0  0
  2  3  2  0  0  0  0
  2 20  1  0  0  0  0
  4  6  1  0  0  0  0
  5  6  2  0  0  0  0
  5 16  1  0  0  0  0
  6  7  1  0  0  0  0
  7  8  1  0  0  0  0
  8  9  1  0  0  0  0
  8 10  2  0  0  0  0
  9 12  1  0  0  0  0
  9 16  2  0  0  0  0
 11 13  1  0  0  0  0
 11 12  1  0  0  0  0
 12 14  1  0  0  0  0
 14 15  1  0  0  0  0
 14 18  1  1  0  0  0
 15 17  1  0  0  0  0
 16 17  1  0  0  0  0
 18 19  1  0  0  0  0
 19 23  1  0  0  0  0
 20 21  2  0  0  0  0
 20 25  1  0  0  0  0
 21 22  1  0  0  0  0
 22 23  2  0  0  0  0
 23 24  1  0  0  0  0
 24 25  2  0  0  0  0
M  END
>  <CHROM.1>
-92.25910731,-162.85204752,105.29798557,23.04540000,3.71761464,4.78258426
-21.37328957,24.88622156,-0.17777063,-0.23597300,0.96651065

>  <Name>
ligand

>  <RI>
0

>  <Rbt.Current_Directory>
/home/itssahil/PROJECTS/Mol_Feturizer/New_Systems/rnas/4LVV

>  <Rbt.Executable>
rbdock ($Id: //depot/dev/client3/rdock/2013.1/src/exe/rbdock.cxx#4 $)

>  <Rbt.Library>
libRbt.so (2013.1, Build901 2013/11/27)

>  <Rbt.Parameter_File>
/export/apps/rDock/src/rDock_2013.1_src/data/scripts/dock_solv.prm

>  <Rbt.Receptor>
prm/pocket_docking_2.prm

>  <SCORE>
-8.96906

>  <SCORE.INTER>
-9.20624

>  <SCORE.INTER.CONST>
1

>  <SCORE.INTER.POLAR>
0

>  <SCORE.INTER.ROT>
5

>  <SCORE.INTER.SOLV>
26.1952

>  <SCORE.INTER.VDW>
-21.8025

>  <SCORE.INTER.norm>
-0.36825

>  <SCORE.INTRA>
0.233347

>  <SCORE.INTRA.DIHEDRAL>
1.17994

>  <SCORE.INTRA.DIHEDRAL.0>
3.94806

>  <SCORE.INTRA.POLAR>
0

>  <SCORE.INTRA.POLAR.0>
0

>  <SCORE.INTRA.REPUL>
0

>  <SCORE.INTRA.REPUL.0>
0

>  <SCORE.INTRA.SOLV>
-0.523798

>  <SCORE.INTRA.SOLV.lig_0>
-70.9803

>  <SCORE.INTRA.VDW>
-0.0947228

>  <SCORE.INTRA.VDW.0>
-0.709409

>  <SCORE.INTRA.norm>
0.00933387

>  <SCORE.RESTR>
0.00382946

>  <SCORE.RESTR.CAVITY>
0.00382946

>  <SCORE.RESTR.norm>
0.000153178

>  <SCORE.SYSTEM>
0

>  <SCORE.SYSTEM.CONST>
0

>  <SCORE.SYSTEM.DIHEDRAL>
0

>  <SCORE.SYSTEM.SOLV>
0

>  <SCORE.SYSTEM.norm>
0

>  <SCORE.heavy>
25

>  <SCORE.norm>
-0.358763

>  <RMSD>
0.973

$$$$
ligand
 OpenBabel11021811503D
libRbt.so/2013.1/901 2013/11/27
 25 27  0  0  0  0  0  0  0  0999 V2000
   11.0213  -22.9724   22.2968 N   0  0  0  0  0  0  0  0  0  0  0  0
   10.6550  -23.6084   23.5242 C   0  0  0  0  0  0  0  0  0  0  0  0
   11.4188  -24.3904   24.0767 O   0  0  0  0  0  0  0  0  0  0  0  0
   -1.7569  -21.1957   25.8842 N   0  0  0  0  0  0  0  0  0  0  0  0
    0.1687  -21.3754   24.4612 N   0  0  0  0  0  0  0  0  0  0  0  0
   -0.3870  -20.9110   25.6042 C   0  0  0  0  0  0  0  0  0  0  0  0
    0.3388  -20.1651   26.4903 N   0  0  0  0  0  0  0  0  0  0  0  0
    1.6432  -19.8578   26.2744 C   0  0  0  0  0  0  0  0  0  0  0  0
    2.2652  -20.3372   25.0968 C   0  0  0  0  0  0  0  0  0  0  0  0
    2.3243  -19.1136   27.2089 O   0  0  0  0  0  0  0  0  0  0  0  0
    4.2952  -18.8021   24.9521 C   0  0  0  0  0  0  0  0  0  0  0  0
    3.6434  -20.0687   24.7201 N   0  0  0  0  0  0  0  0  0  0  0  0
    4.2067  -17.8510   24.1832 O   0  0  0  0  0  0  0  0  0  0  0  0
    4.2746  -21.0979   24.0102 C   0  0  2  0  0  0  0  0  0  0  0  0
    3.4643  -21.4159   22.7274 C   0  0  0  0  0  0  0  0  0  0  0  0
    1.4805  -21.0998   24.1752 C   0  0  0  0  0  0  0  0  0  0  0  0
    2.0887  -21.6165   22.9460 N   0  0  0  0  0  0  0  0  0  0  0  0
    4.4148  -22.3385   24.8691 C   0  0  0  0  0  0  0  0  0  0  0  0
    5.5523  -22.4038   25.7443 N   0  0  0  0  0  0  0  0  0  0  0  0
    9.3319  -23.2894   24.1295 C   0  0  0  0  0  0  0  0  0  0  0  0
    9.2441  -22.7175   25.3913 C   0  0  0  0  0  0  0  0  0  0  0  0
    7.9947  -22.4311   25.9277 C   0  0  0  0  0  0  0  0  0  0  0  0
    6.8388  -22.7041   25.1989 C   0  0  0  0  0  0  0  0  0  0  0  0
    6.9317  -23.2644   23.9368 C   0  0  0  0  0  0  0  0  0  0  0  0
    8.1807  -23.5612   23.4046 C   0  0  0  0  0  0  0  0  0  0  0  0
  1  2  1  0  0  0  0
  2  3  2  0  0  0  0
  2 20  1  0  0  0  0
  4  6  1  0  0  0  0
  5  6  2  0  0  0  0
  5 16  1  0  0  0  0
  6  7  1  0  0  0  0
  7  8  1  0  0  0  0
  8  9  1  0  0  0  0
  8 10  2  0  0  0  0
  9 12  1  0  0  0  0
  9 16  2  0  0  0  0
 11 13  1  0  0  0  0
 11 12  1  0  0  0  0
 12 14  1  0  0  0  0
 14 15  1  0  0  0  0
 14 18  1  1  0  0  0
 15 17  1  0  0  0  0
 16 17  1  0  0  0  0
 18 19  1  0  0  0  0
 19 23  1  0  0  0  0
 20 21  2  0  0  0  0
 20 25  1  0  0  0  0
 21 22  1  0  0  0  0
 22 23  2  0  0  0  0
 23 24  1  0  0  0  0
 24 25  2  0  0  0  0
M  END
>  <CHROM.1>
-84.84143262,-84.43098621,-76.26460741,162.86410475,-119.11337814,4.73911223
-21.48442678,24.69319394,0.35638592,0.01517745,-2.65737982

>  <Name>
ligand

>  <RI>
0

>  <Rbt.Current_Directory>
/home/itssahil/PROJECTS/Mol_Feturizer/New_Systems/rnas/4LVV

>  <Rbt.Executable>
rbdock ($Id: //depot/dev/client3/rdock/2013.1/src/exe/rbdock.cxx#4 $)

>  <Rbt.Library>
libRbt.so (2013.1, Build901 2013/11/27)

>  <Rbt.Parameter_File>
/export/apps/rDock/src/rDock_2013.1_src/data/scripts/dock_solv.prm

>  <Rbt.Receptor>
prm/pocket_docking_2.prm

>  <SCORE>
-10.1461

>  <SCORE.INTER>
-10.0687

>  <SCORE.INTER.CONST>
1

>  <SCORE.INTER.POLAR>
0

>  <SCORE.INTER.ROT>
5

>  <SCORE.INTER.SOLV>
25.5468

>  <SCORE.INTER.VDW>
-22.1614

>  <SCORE.INTER.norm>
-0.402748

>  <SCORE.INTRA>
-0.0773827

>  <SCORE.INTRA.DIHEDRAL>
1.22027

>  <SCORE.INTRA.DIHEDRAL.0>
3.94806

>  <SCORE.INTRA.POLAR>
0

>  <SCORE.INTRA.POLAR.0>
0

>  <SCORE.INTRA.REPUL>
0

>  <SCORE.INTRA.REPUL.0>
0

>  <SCORE.INTRA.SOLV>
-0.445691

>  <SCORE.INTRA.SOLV.lig_0>
-70.9803

>  <SCORE.INTRA.VDW>
-0.464671

>  <SCORE.INTRA.VDW.0>
-0.709409

>  <SCORE.INTRA.norm>
-0.00309531

>  <SCORE.RESTR>
0

>  <SCORE.RESTR.CAVITY>
0

>  <SCORE.RESTR.norm>
0

>  <SCORE.SYSTEM>
0

>  <SCORE.SYSTEM.CONST>
0

>  <SCORE.SYSTEM.DIHEDRAL>
0

>  <SCORE.SYSTEM.SOLV>
0

>  <SCORE.SYSTEM.norm>
0

>  <SCORE.heavy>
25

>  <SCORE.norm>
-0.405844

>  <RMSD>
0.978

$$$$
ligand
 OpenBabel11021811503D
libRbt.so/2013.1/901 2013/11/27
 25 27  0  0  0  0  0  0  0  0999 V2000
   10.8876  -23.3270   22.3341 N   0  0  0  0  0  0  0  0  0  0  0  0
   10.6771  -23.5299   23.7341 C   0  0  0  0  0  0  0  0  0  0  0  0
   11.5869  -23.9236   24.4535 O   0  0  0  0  0  0  0  0  0  0  0  0
   -1.7835  -21.1543   25.8773 N   0  0  0  0  0  0  0  0  0  0  0  0
    0.1538  -21.3529   24.4728 N   0  0  0  0  0  0  0  0  0  0  0  0
   -0.4082  -20.8832   25.6105 C   0  0  0  0  0  0  0  0  0  0  0  0
    0.3164  -20.1447   26.5038 N   0  0  0  0  0  0  0  0  0  0  0  0
    1.6258  -19.8503   26.3005 C   0  0  0  0  0  0  0  0  0  0  0  0
    2.2543  -20.3357   25.1287 C   0  0  0  0  0  0  0  0  0  0  0  0
    2.3053  -19.1131   27.2416 O   0  0  0  0  0  0  0  0  0  0  0  0
    4.3008  -18.8209   25.0039 C   0  0  0  0  0  0  0  0  0  0  0  0
    3.6387  -20.0808   24.7653 N   0  0  0  0  0  0  0  0  0  0  0  0
    3.7967  -17.7361   24.7339 O   0  0  0  0  0  0  0  0  0  0  0  0
    4.2664  -21.1162   24.0612 C   0  0  2  0  0  0  0  0  0  0  0  0
    3.4652  -21.4259   22.7706 C   0  0  0  0  0  0  0  0  0  0  0  0
    1.4709  -21.0903   24.1994 C   0  0  0  0  0  0  0  0  0  0  0  0
    2.0857  -21.6128   22.9760 N   0  0  0  0  0  0  0  0  0  0  0  0
    4.3860  -22.3582   24.9211 C   0  0  0  0  0  0  0  0  0  0  0  0
    5.4993  -22.4228   25.8270 N   0  0  0  0  0  0  0  0  0  0  0  0
    9.3336  -23.2370   24.3066 C   0  0  0  0  0  0  0  0  0  0  0  0
    9.2024  -22.7032   25.5812 C   0  0  0  0  0  0  0  0  0  0  0  0
    7.9348  -22.4405   26.0863 C   0  0  0  0  0  0  0  0  0  0  0  0
    6.8043  -22.6989   25.3137 C   0  0  0  0  0  0  0  0  0  0  0  0
    6.9405  -23.2211   24.0393 C   0  0  0  0  0  0  0  0  0  0  0  0
    8.2075  -23.4943   23.5381 C   0  0  0  0  0  0  0  0  0  0  0  0
  1  2  1  0  0  0  0
  2  3  2  0  0  0  0
  2 20  1  0  0  0  0
  4  6  1  0  0  0  0
  5  6  2  0  0  0  0
  5 16  1  0  0  0  0
  6  7  1  0  0  0  0
  7  8  1  0  0  0  0
  8  9  1  0  0  0  0
  8 10  2  0  0  0  0
  9 12  1  0  0  0  0
  9 16  2  0  0  0  0
 11 13  1  0  0  0  0
 11 12  1  0  0  0  0
 12 14  1  0  0  0  0
 14 15  1  0  0  0  0
 14 18  1  1  0  0  0
 15 17  1  0  0  0  0
 16 17  1  0  0  0  0
 18 19  1  0  0  0  0
 19 23  1  0  0  0  0
 20 21  2  0  0  0  0
 20 25  1  0  0  0  0
 21 22  1  0  0  0  0
 22 23  2  0  0  0  0
 23 24  1  0  0  0  0
 24 25  2  0  0  0  0
M  END
>  <CHROM.1>
-46.51083246,-83.18532370,-75.32601472,163.78518635,-144.33330248,4.70957969
-21.46102050,24.79877971,0.33794195,0.08717180,-2.49791883

>  <Name>
ligand

>  <RI>
0

>  <Rbt.Current_Directory>
/home/itssahil/PROJECTS/Mol_Feturizer/New_Systems/rnas/4LVV

>  <Rbt.Executable>
rbdock ($Id: //depot/dev/client3/rdock/2013.1/src/exe/rbdock.cxx#4 $)

>  <Rbt.Library>
libRbt.so (2013.1, Build901 2013/11/27)

>  <Rbt.Parameter_File>
/export/apps/rDock/src/rDock_2013.1_src/data/scripts/dock_solv.prm

>  <Rbt.Receptor>
prm/pocket_docking_2.prm

>  <SCORE>
-10.0597

>  <SCORE.INTER>
-10.1888

>  <SCORE.INTER.CONST>
1

>  <SCORE.INTER.POLAR>
0

>  <SCORE.INTER.ROT>
5

>  <SCORE.INTER.SOLV>
26.057

>  <SCORE.INTER.VDW>
-22.4115

>  <SCORE.INTER.norm>
-0.407552

>  <SCORE.INTRA>
0.129049

>  <SCORE.INTRA.DIHEDRAL>
1.31516

>  <SCORE.INTRA.DIHEDRAL.0>
3.94806

>  <SCORE.INTRA.POLAR>
0

>  <SCORE.INTRA.POLAR.0>
0

>  <SCORE.INTRA.REPUL>
0

>  <SCORE.INTRA.REPUL.0>
0

>  <SCORE.INTRA.SOLV>
-0.283361

>  <SCORE.INTRA.SOLV.lig_0>
-70.9803

>  <SCORE.INTRA.VDW>
-0.386848

>  <SCORE.INTRA.VDW.0>
-0.709409

>  <SCORE.INTRA.norm>
0.00516198

>  <SCORE.RESTR>
0

>  <SCORE.RESTR.CAVITY>
0

>  <SCORE.RESTR.norm>
0

>  <SCORE.SYSTEM>
0

>  <SCORE.SYSTEM.CONST>
0

>  <SCORE.SYSTEM.DIHEDRAL>
0

>  <SCORE.SYSTEM.SOLV>
0

>  <SCORE.SYSTEM.norm>
0

>  <SCORE.heavy>
25

>  <SCORE.norm>
-0.40239

>  <RMSD>
0.981

$$$$
ligand
 OpenBabel11021811503D
libRbt.so/2013.1/901 2013/11/27
 25 27  0  0  0  0  0  0  0  0999 V2000
   11.4578  -23.9031   24.3788 N   0  0  0  0  0  0  0  0  0  0  0  0
   10.5391  -23.1263   23.6056 C   0  0  0  0  0  0  0  0  0  0  0  0
   10.9285  -22.4589   22.6553 O   0  0  0  0  0  0  0  0  0  0  0  0
   -1.9460  -21.3383   25.8720 N   0  0  0  0  0  0  0  0  0  0  0  0
    0.0862  -21.4846   24.6015 N   0  0  0  0  0  0  0  0  0  0  0  0
   -0.5839  -20.9705   25.6586 C   0  0  0  0  0  0  0  0  0  0  0  0
    0.0186  -20.0966   26.5199 N   0  0  0  0  0  0  0  0  0  0  0  0
    1.3092  -19.7060   26.3639 C   0  0  0  0  0  0  0  0  0  0  0  0
    2.0489  -20.2328   25.2781 C   0  0  0  0  0  0  0  0  0  0  0  0
    1.8639  -18.8333   27.2703 O   0  0  0  0  0  0  0  0  0  0  0  0
    3.9660  -18.5591   25.1300 C   0  0  0  0  0  0  0  0  0  0  0  0
    3.4275  -19.8885   24.9707 N   0  0  0  0  0  0  0  0  0  0  0  0
    4.4442  -17.9133   24.2037 O   0  0  0  0  0  0  0  0  0  0  0  0
    4.1826  -20.9210   24.4000 C   0  0  2  0  0  0  0  0  0  0  0  0
    3.4934  -21.4102   23.1003 C   0  0  0  0  0  0  0  0  0  0  0  0
    1.3915  -21.1310   24.3792 C   0  0  0  0  0  0  0  0  0  0  0  0
    2.1239  -21.7002   23.2447 N   0  0  0  0  0  0  0  0  0  0  0  0
    4.3504  -22.0689   25.3748 C   0  0  0  0  0  0  0  0  0  0  0  0
    4.9924  -23.2566   24.8834 N   0  0  0  0  0  0  0  0  0  0  0  0
    9.0942  -23.1567   23.9664 C   0  0  0  0  0  0  0  0  0  0  0  0
    8.6642  -22.7521   25.2227 C   0  0  0  0  0  0  0  0  0  0  0  0
    7.3092  -22.7916   25.5280 C   0  0  0  0  0  0  0  0  0  0  0  0
    6.3876  -23.2219   24.5755 C   0  0  0  0  0  0  0  0  0  0  0  0
    6.8200  -23.6142   23.3207 C   0  0  0  0  0  0  0  0  0  0  0  0
    8.1761  -23.5854   23.0187 C   0  0  0  0  0  0  0  0  0  0  0  0
  1  2  1  0  0  0  0
  2  3  2  0  0  0  0
  2 20  1  0  0  0  0
  4  6  1  0  0  0  0
  5  6  2  0  0  0  0
  5 16  1  0  0  0  0
  6  7  1  0  0  0  0
  7  8  1  0  0  0  0
  8  9  1  0  0  0  0
  8 10  2  0  0  0  0
  9 12  1  0  0  0  0
  9 16  2  0  0  0  0
 11 13  1  0  0  0  0
 11 12  1  0  0  0  0
 12 14  1  0  0  0  0
 14 15  1  0  0  0  0
 14 18  1  1  0  0  0
 15 17  1  0  0  0  0
 16 17  1  0  0  0  0
 18 19  1  0  0  0  0
 19 23  1  0  0  0  0
 20 21  2  0  0  0  0
 20 25  1  0  0  0  0
 21 22  1  0  0  0  0
 22 23  2  0  0  0  0
 23 24  1  0  0  0  0
 24 25  2  0  0  0  0
M  END
>  <CHROM.1>
-120.38829946,174.06797833,69.47568935,54.06558734,59.72783164,4.53933892
-21.44936454,24.70666710,0.34091355,-0.10356152,-2.87613024

>  <Name>
ligand

>  <RI>
0

>  <Rbt.Current_Directory>
/home/itssahil/PROJECTS/Mol_Feturizer/New_Systems/rnas/4LVV

>  <Rbt.Executable>
rbdock ($Id: //depot/dev/client3/rdock/2013.1/src/exe/rbdock.cxx#4 $)

>  <Rbt.Library>
libRbt.so (2013.1, Build901 2013/11/27)

>  <Rbt.Parameter_File>
/export/apps/rDock/src/rDock_2013.1_src/data/scripts/dock_solv.prm

>  <Rbt.Receptor>
prm/pocket_docking_2.prm

>  <SCORE>
-12.6881

>  <SCORE.INTER>
-11.5282

>  <SCORE.INTER.CONST>
1

>  <SCORE.INTER.POLAR>
0

>  <SCORE.INTER.ROT>
5

>  <SCORE.INTER.SOLV>
28.8795

>  <SCORE.INTER.VDW>
-24.2453

>  <SCORE.INTER.norm>
-0.461129

>  <SCORE.INTRA>
-1.17407

>  <SCORE.INTRA.DIHEDRAL>
-0.469293

>  <SCORE.INTRA.DIHEDRAL.0>
3.94806

>  <SCORE.INTRA.POLAR>
0

>  <SCORE.INTRA.POLAR.0>
0

>  <SCORE.INTRA.REPUL>
0

>  <SCORE.INTRA.REPUL.0>
0

>  <SCORE.INTRA.SOLV>
-0.1481

>  <SCORE.INTRA.SOLV.lig_0>
-70.9803

>  <SCORE.INTRA.VDW>
-0.865378

>  <SCORE.INTRA.VDW.0>
-0.709409

>  <SCORE.INTRA.norm>
-0.046963

>  <SCORE.RESTR>
0.0142099

>  <SCORE.RESTR.CAVITY>
0.0142099

>  <SCORE.RESTR.norm>
0.000568395

>  <SCORE.SYSTEM>
0

>  <SCORE.SYSTEM.CONST>
0

>  <SCORE.SYSTEM.DIHEDRAL>
0

>  <SCORE.SYSTEM.SOLV>
0

>  <SCORE.SYSTEM.norm>
0

>  <SCORE.heavy>
25

>  <SCORE.norm>
-0.507524

>  <RMSD>
1.011

$$$$
ligand
 OpenBabel11021811503D
libRbt.so/2013.1/901 2013/11/27
 25 27  0  0  0  0  0  0  0  0999 V2000
   11.0007  -24.7610   22.5702 N   0  0  0  0  0  0  0  0  0  0  0  0
   10.7657  -23.5604   23.3110 C   0  0  0  0  0  0  0  0  0  0  0  0
   11.6429  -22.7133   23.4253 O   0  0  0  0  0  0  0  0  0  0  0  0
   -1.5678  -21.0578   25.9169 N   0  0  0  0  0  0  0  0  0  0  0  0
    0.3099  -21.3025   24.4405 N   0  0  0  0  0  0  0  0  0  0  0  0
   -0.1864  -20.8600   25.6190 C   0  0  0  0  0  0  0  0  0  0  0  0
    0.6107  -20.2174   26.5246 N   0  0  0  0  0  0  0  0  0  0  0  0
    1.9297  -19.9956   26.2935 C   0  0  0  0  0  0  0  0  0  0  0  0
    2.4904  -20.4561   25.0781 C   0  0  0  0  0  0  0  0  0  0  0  0
    2.6832  -19.3541   27.2484 O   0  0  0  0  0  0  0  0  0  0  0  0
    4.6259  -19.0687   24.9638 C   0  0  0  0  0  0  0  0  0  0  0  0
    3.8769  -20.2698   24.6826 N   0  0  0  0  0  0  0  0  0  0  0  0
    5.7941  -19.0780   25.3366 O   0  0  0  0  0  0  0  0  0  0  0  0
    4.4152  -21.3035   23.9057 C   0  0  2  0  0  0  0  0  0  0  0  0
    3.5576  -21.4926   22.6281 C   0  0  0  0  0  0  0  0  0  0  0  0
    1.6325  -21.1091   24.1376 C   0  0  0  0  0  0  0  0  0  0  0  0
    2.1756  -21.6030   22.8692 N   0  0  0  0  0  0  0  0  0  0  0  0
    4.4798  -22.5948   24.6960 C   0  0  0  0  0  0  0  0  0  0  0  0
    5.6023  -22.7686   25.5757 N   0  0  0  0  0  0  0  0  0  0  0  0
    9.4265  -23.3498   23.9282 C   0  0  0  0  0  0  0  0  0  0  0  0
    9.3059  -22.8433   25.2149 C   0  0  0  0  0  0  0  0  0  0  0  0
    8.0421  -22.6577   25.7619 C   0  0  0  0  0  0  0  0  0  0  0  0
    6.9039  -22.9655   25.0192 C   0  0  0  0  0  0  0  0  0  0  0  0
    7.0289  -23.4601   23.7327 C   0  0  0  0  0  0  0  0  0  0  0  0
    8.2929  -23.6564   23.1894 C   0  0  0  0  0  0  0  0  0  0  0  0
  1  2  1  0  0  0  0
  2  3  2  0  0  0  0
  2 20  1  0  0  0  0
  4  6  1  0  0  0  0
  5  6  2  0  0  0  0
  5 16  1  0  0  0  0
  6  7  1  0  0  0  0
  7  8  1  0  0  0  0
  8  9  1  0  0  0  0
  8 10  2  0  0  0  0
  9 12  1  0  0  0  0
  9 16  2  0  0  0  0
 11 13  1  0  0  0  0
 11 12  1  0  0  0  0
 12 14  1  0  0  0  0
 14 15  1  0  0  0  0
 14 18  1  1  0  0  0
 15 17  1  0  0  0  0
 16 17  1  0  0  0  0
 18 19  1  0  0  0  0
 19 23  1  0  0  0  0
 20 21  2  0  0  0  0
 20 25  1  0  0  0  0
 21 22  1  0  0  0  0
 22 23  2  0  0  0  0
 23 24  1  0  0  0  0
 24 25  2  0  0  0  0
M  END
>  <CHROM.1>
138.56811320,-82.23793213,-69.63417324,156.56277604,137.39171542,4.96177375
-21.64015951,24.65602069,0.34702074,0.07936204,-2.38952561

>  <Name>
ligand

>  <RI>
0

>  <Rbt.Current_Directory>
/home/itssahil/PROJECTS/Mol_Feturizer/New_Systems/rnas/4LVV

>  <Rbt.Executable>
rbdock ($Id: //depot/dev/client3/rdock/2013.1/src/exe/rbdock.cxx#4 $)

>  <Rbt.Library>
libRbt.so (2013.1, Build901 2013/11/27)

>  <Rbt.Parameter_File>
/export/apps/rDock/src/rDock_2013.1_src/data/scripts/dock_solv.prm

>  <Rbt.Receptor>
prm/pocket_docking_4.prm

>  <SCORE>
-9.69315

>  <SCORE.INTER>
-9.56477

>  <SCORE.INTER.CONST>
1

>  <SCORE.INTER.POLAR>
0

>  <SCORE.INTER.ROT>
5

>  <SCORE.INTER.SOLV>
24.5694

>  <SCORE.INTER.VDW>
-21.4997

>  <SCORE.INTER.norm>
-0.382591

>  <SCORE.INTRA>
-0.128387

>  <SCORE.INTRA.DIHEDRAL>
0.827517

>  <SCORE.INTRA.DIHEDRAL.0>
3.94806

>  <SCORE.INTRA.POLAR>
0

>  <SCORE.INTRA.POLAR.0>
0

>  <SCORE.INTRA.REPUL>
0

>  <SCORE.INTRA.REPUL.0>
0

>  <SCORE.INTRA.SOLV>
0.0221263

>  <SCORE.INTRA.SOLV.lig_0>
-70.9803

>  <SCORE.INTRA.VDW>
-0.553209

>  <SCORE.INTRA.VDW.0>
-0.709409

>  <SCORE.INTRA.norm>
-0.00513549

>  <SCORE.RESTR>
0

>  <SCORE.RESTR.CAVITY>
0

>  <SCORE.RESTR.norm>
0

>  <SCORE.SYSTEM>
0

>  <SCORE.SYSTEM.CONST>
0

>  <SCORE.SYSTEM.DIHEDRAL>
0

>  <SCORE.SYSTEM.SOLV>
0

>  <SCORE.SYSTEM.norm>
0

>  <SCORE.heavy>
25

>  <SCORE.norm>
-0.387726

>  <RMSD>
1.023

$$$$
ligand
 OpenBabel11021811503D
libRbt.so/2013.1/901 2013/11/27
 25 27  0  0  0  0  0  0  0  0999 V2000
   11.4381  -23.4988   24.3562 N   0  0  0  0  0  0  0  0  0  0  0  0
   10.4391  -23.0701   23.4268 C   0  0  0  0  0  0  0  0  0  0  0  0
   10.7506  -22.6797   22.3085 O   0  0  0  0  0  0  0  0  0  0  0  0
   -1.9964  -21.2946   25.8747 N   0  0  0  0  0  0  0  0  0  0  0  0
    0.0330  -21.4692   24.6033 N   0  0  0  0  0  0  0  0  0  0  0  0
   -0.6305  -20.9430   25.6587 C   0  0  0  0  0  0  0  0  0  0  0  0
   -0.0174  -20.0724   26.5158 N   0  0  0  0  0  0  0  0  0  0  0  0
    1.2773  -19.6969   26.3572 C   0  0  0  0  0  0  0  0  0  0  0  0
    2.0102  -20.2366   25.2731 C   0  0  0  0  0  0  0  0  0  0  0  0
    1.8426  -18.8267   27.2595 O   0  0  0  0  0  0  0  0  0  0  0  0
    3.9458  -18.5852   25.1164 C   0  0  0  0  0  0  0  0  0  0  0  0
    3.3923  -19.9092   24.9632 N   0  0  0  0  0  0  0  0  0  0  0  0
    5.1495  -18.3669   25.2027 O   0  0  0  0  0  0  0  0  0  0  0  0
    4.1353  -20.9525   24.3963 C   0  0  2  0  0  0  0  0  0  0  0  0
    3.4396  -21.4395   23.0992 C   0  0  0  0  0  0  0  0  0  0  0  0
    1.3420  -21.1311   24.3785 C   0  0  0  0  0  0  0  0  0  0  0  0
    2.0671  -21.7134   23.2459 N   0  0  0  0  0  0  0  0  0  0  0  0
    4.2910  -22.0981   25.3759 C   0  0  0  0  0  0  0  0  0  0  0  0
    4.9428  -23.2854   24.8966 N   0  0  0  0  0  0  0  0  0  0  0  0
    9.0083  -23.1229   23.8377 C   0  0  0  0  0  0  0  0  0  0  0  0
    8.6180  -22.7390   25.1132 C   0  0  0  0  0  0  0  0  0  0  0  0
    7.2751  -22.7992   25.4653 C   0  0  0  0  0  0  0  0  0  0  0  0
    6.3258  -23.2295   24.5404 C   0  0  0  0  0  0  0  0  0  0  0  0
    6.7184  -23.6011   23.2664 C   0  0  0  0  0  0  0  0  0  0  0  0
    8.0627  -23.5516   22.9175 C   0  0  0  0  0  0  0  0  0  0  0  0
  1  2  1  0  0  0  0
  2  3  2  0  0  0  0
  2 20  1  0  0  0  0
  4  6  1  0  0  0  0
  5  6  2  0  0  0  0
  5 16  1  0  0  0  0
  6  7  1  0  0  0  0
  7  8  1  0  0  0  0
  8  9  1  0  0  0  0
  8 10  2  0  0  0  0
  9 12  1  0  0  0  0
  9 16  2  0  0  0  0
 11 13  1  0  0  0  0
 11 12  1  0  0  0  0
 12 14  1  0  0  0  0
 14 15  1  0  0  0  0
 14 18  1  1  0  0  0
 15 17  1  0  0  0  0
 16 17  1  0  0  0  0
 18 19  1  0  0  0  0
 19 23  1  0  0  0  0
 20 21  2  0  0  0  0
 20 25  1  0  0  0  0
 21 22  1  0  0  0  0
 22 23  2  0  0  0  0
 23 24  1  0  0  0  0
 24 25  2  0  0  0  0
M  END
>  <CHROM.1>
160.10429741,175.26056213,66.09485102,56.47664865,41.31747459,4.51794893
-21.46232187,24.71151092,-0.35253138,0.05399291,0.46542182

>  <Name>
ligand

>  <RI>
0

>  <Rbt.Current_Directory>
/home/itssahil/PROJECTS/Mol_Feturizer/New_Systems/rnas/4LVV

>  <Rbt.Executable>
rbdock ($Id: //depot/dev/client3/rdock/2013.1/src/exe/rbdock.cxx#4 $)

>  <Rbt.Library>
libRbt.so (2013.1, Build901 2013/11/27)

>  <Rbt.Parameter_File>
/export/apps/rDock/src/rDock_2013.1_src/data/scripts/dock_solv.prm

>  <Rbt.Receptor>
prm/pocket_docking_2.prm

>  <SCORE>
-12.6129

>  <SCORE.INTER>
-11.4934

>  <SCORE.INTER.CONST>
1

>  <SCORE.INTER.POLAR>
0

>  <SCORE.INTER.ROT>
5

>  <SCORE.INTER.SOLV>
29.0215

>  <SCORE.INTER.VDW>
-24.2694

>  <SCORE.INTER.norm>
-0.459736

>  <SCORE.INTRA>
-1.12055

>  <SCORE.INTRA.DIHEDRAL>
-0.757012

>  <SCORE.INTRA.DIHEDRAL.0>
3.94806

>  <SCORE.INTRA.POLAR>
0

>  <SCORE.INTRA.POLAR.0>
0

>  <SCORE.INTRA.REPUL>
0

>  <SCORE.INTRA.REPUL.0>
0

>  <SCORE.INTRA.SOLV>
-0.0837845

>  <SCORE.INTRA.SOLV.lig_0>
-70.9803

>  <SCORE.INTRA.VDW>
-0.700156

>  <SCORE.INTRA.VDW.0>
-0.709409

>  <SCORE.INTRA.norm>
-0.0448222

>  <SCORE.RESTR>
0.00110603

>  <SCORE.RESTR.CAVITY>
0.00110603

>  <SCORE.RESTR.norm>
4.4241e-05

>  <SCORE.SYSTEM>
0

>  <SCORE.SYSTEM.CONST>
0

>  <SCORE.SYSTEM.DIHEDRAL>
0

>  <SCORE.SYSTEM.SOLV>
0

>  <SCORE.SYSTEM.norm>
0

>  <SCORE.heavy>
25

>  <SCORE.norm>
-0.504514

>  <RMSD>
1.031

$$$$
ligand
 OpenBabel11021811503D
libRbt.so/2013.1/901 2013/11/27
 25 27  0  0  0  0  0  0  0  0999 V2000
   11.3288  -21.9546   24.1688 N   0  0  0  0  0  0  0  0  0  0  0  0
   10.5608  -23.0074   23.5795 C   0  0  0  0  0  0  0  0  0  0  0  0
   11.0908  -23.8364   22.8502 O   0  0  0  0  0  0  0  0  0  0  0  0
   -1.9370  -21.3227   25.8976 N   0  0  0  0  0  0  0  0  0  0  0  0
    0.0743  -21.5032   24.5985 N   0  0  0  0  0  0  0  0  0  0  0  0
   -0.5744  -20.9718   25.6605 C   0  0  0  0  0  0  0  0  0  0  0  0
    0.0504  -20.0964   26.5042 N   0  0  0  0  0  0  0  0  0  0  0  0
    1.3426  -19.7214   26.3253 C   0  0  0  0  0  0  0  0  0  0  0  0
    2.0602  -20.2664   25.2337 C   0  0  0  0  0  0  0  0  0  0  0  0
    1.9202  -18.8462   27.2149 O   0  0  0  0  0  0  0  0  0  0  0  0
    3.9927  -18.6152   25.0410 C   0  0  0  0  0  0  0  0  0  0  0  0
    3.4377  -19.9402   24.9025 N   0  0  0  0  0  0  0  0  0  0  0  0
    3.7590  -17.7041   24.2542 O   0  0  0  0  0  0  0  0  0  0  0  0
    4.1730  -20.9861   24.3306 C   0  0  2  0  0  0  0  0  0  0  0  0
    3.4592  -21.4801   23.0461 C   0  0  0  0  0  0  0  0  0  0  0  0
    1.3798  -21.1659   24.3534 C   0  0  0  0  0  0  0  0  0  0  0  0
    2.0890  -21.7538   23.2137 N   0  0  0  0  0  0  0  0  0  0  0  0
    4.3431  -22.1266   25.3139 C   0  0  0  0  0  0  0  0  0  0  0  0
    5.0166  -23.3041   24.8406 N   0  0  0  0  0  0  0  0  0  0  0  0
    9.1047  -23.0884   23.8827 C   0  0  0  0  0  0  0  0  0  0  0  0
    8.2006  -23.5307   22.9268 C   0  0  0  0  0  0  0  0  0  0  0  0
    6.8487  -23.5955   23.2412 C   0  0  0  0  0  0  0  0  0  0  0  0
    6.4054  -23.2314   24.5112 C   0  0  0  0  0  0  0  0  0  0  0  0
    7.3118  -22.8012   25.4645 C   0  0  0  0  0  0  0  0  0  0  0  0
    8.6626  -22.7257   25.1468 C   0  0  0  0  0  0  0  0  0  0  0  0
  1  2  1  0  0  0  0
  2  3  2  0  0  0  0
  2 20  1  0  0  0  0
  4  6  1  0  0  0  0
  5  6  2  0  0  0  0
  5 16  1  0  0  0  0
  6  7  1  0  0  0  0
  7  8  1  0  0  0  0
  8  9  1  0  0  0  0
  8 10  2  0  0  0  0
  9 12  1  0  0  0  0
  9 16  2  0  0  0  0
 11 13  1  0  0  0  0
 11 12  1  0  0  0  0
 12 14  1  0  0  0  0
 14 15  1  0  0  0  0
 14 18  1  1  0  0  0
 15 17  1  0  0  0  0
 16 17  1  0  0  0  0
 18 19  1  0  0  0  0
 19 23  1  0  0  0  0
 20 21  2  0  0  0  0
 20 25  1  0  0  0  0
 21 22  1  0  0  0  0
 22 23  2  0  0  0  0
 23 24  1  0  0  0  0
 24 25  2  0  0  0  0
M  END
>  <CHROM.1>
-76.11694720,176.68791600,67.09790605,-123.54976604,145.64229202,4.51700719
-21.43440231,24.66867449,-0.34303740,0.08493282,0.32910711

>  <Name>
ligand

>  <RI>
0

>  <Rbt.Current_Directory>
/home/itssahil/PROJECTS/Mol_Feturizer/New_Systems/rnas/4LVV

>  <Rbt.Executable>
rbdock ($Id: //depot/dev/client3/rdock/2013.1/src/exe/rbdock.cxx#4 $)

>  <Rbt.Library>
libRbt.so (2013.1, Build901 2013/11/27)

>  <Rbt.Parameter_File>
/export/apps/rDock/src/rDock_2013.1_src/data/scripts/dock_solv.prm

>  <Rbt.Receptor>
prm/pocket_docking_2.prm

>  <SCORE>
-12.9182

>  <SCORE.INTER>
-11.5501

>  <SCORE.INTER.CONST>
1

>  <SCORE.INTER.POLAR>
0

>  <SCORE.INTER.ROT>
5

>  <SCORE.INTER.SOLV>
29.3726

>  <SCORE.INTER.VDW>
-24.4243

>  <SCORE.INTER.norm>
-0.462005

>  <SCORE.INTRA>
-1.36808

>  <SCORE.INTRA.DIHEDRAL>
-0.775243

>  <SCORE.INTRA.DIHEDRAL.0>
3.94806

>  <SCORE.INTRA.POLAR>
0

>  <SCORE.INTRA.POLAR.0>
0

>  <SCORE.INTRA.REPUL>
0

>  <SCORE.INTRA.REPUL.0>
0

>  <SCORE.INTRA.SOLV>
-0.132797

>  <SCORE.INTRA.SOLV.lig_0>
-70.9803

>  <SCORE.INTRA.VDW>
-0.914055

>  <SCORE.INTRA.VDW.0>
-0.709409

>  <SCORE.INTRA.norm>
-0.054723

>  <SCORE.RESTR>
0

>  <SCORE.RESTR.CAVITY>
0

>  <SCORE.RESTR.norm>
0

>  <SCORE.SYSTEM>
0

>  <SCORE.SYSTEM.CONST>
0

>  <SCORE.SYSTEM.DIHEDRAL>
0

>  <SCORE.SYSTEM.SOLV>
0

>  <SCORE.SYSTEM.norm>
0

>  <SCORE.heavy>
25

>  <SCORE.norm>
-0.516728

>  <RMSD>
1.035

$$$$
ligand
 OpenBabel11021811503D
libRbt.so/2013.1/901 2013/11/27
 25 27  0  0  0  0  0  0  0  0999 V2000
   11.2216  -21.9297   23.9851 N   0  0  0  0  0  0  0  0  0  0  0  0
   10.4341  -22.9787   23.4151 C   0  0  0  0  0  0  0  0  0  0  0  0
   10.9342  -23.7895   22.6453 O   0  0  0  0  0  0  0  0  0  0  0  0
   -1.9940  -21.2561   25.8611 N   0  0  0  0  0  0  0  0  0  0  0  0
    0.0393  -21.4679   24.6017 N   0  0  0  0  0  0  0  0  0  0  0  0
   -0.6210  -20.9285   25.6524 C   0  0  0  0  0  0  0  0  0  0  0  0
    0.0020  -20.0669   26.5114 N   0  0  0  0  0  0  0  0  0  0  0  0
    1.3039  -19.7140   26.3595 C   0  0  0  0  0  0  0  0  0  0  0  0
    2.0336  -20.2683   25.2806 C   0  0  0  0  0  0  0  0  0  0  0  0
    1.8789  -18.8520   27.2635 O   0  0  0  0  0  0  0  0  0  0  0  0
    3.9982  -18.6507   25.1321 C   0  0  0  0  0  0  0  0  0  0  0  0
    3.4229  -19.9652   24.9780 N   0  0  0  0  0  0  0  0  0  0  0  0
    5.1913  -18.4607   25.3426 O   0  0  0  0  0  0  0  0  0  0  0  0
    4.1510  -21.0222   24.4173 C   0  0  2  0  0  0  0  0  0  0  0  0
    3.4544  -21.4996   23.1171 C   0  0  0  0  0  0  0  0  0  0  0  0
    1.3552  -21.1529   24.3838 C   0  0  0  0  0  0  0  0  0  0  0  0
    2.0766  -21.7496   23.2564 N   0  0  0  0  0  0  0  0  0  0  0  0
    4.2814  -22.1685   25.3997 C   0  0  0  0  0  0  0  0  0  0  0  0
    4.9618  -23.3484   24.9426 N   0  0  0  0  0  0  0  0  0  0  0  0
    8.9955  -23.0784   23.7883 C   0  0  0  0  0  0  0  0  0  0  0  0
    8.0497  -23.5166   22.8716 C   0  0  0  0  0  0  0  0  0  0  0  0
    6.7155  -23.5993   23.2512 C   0  0  0  0  0  0  0  0  0  0  0  0
    6.3320  -23.2573   24.5464 C   0  0  0  0  0  0  0  0  0  0  0  0
    7.2801  -22.8312   25.4601 C   0  0  0  0  0  0  0  0  0  0  0  0
    8.6129  -22.7378   25.0776 C   0  0  0  0  0  0  0  0  0  0  0  0
  1  2  1  0  0  0  0
  2  3  2  0  0  0  0
  2 20  1  0  0  0  0
  4  6  1  0  0  0  0
  5  6  2  0  0  0  0
  5 16  1  0  0  0  0
  6  7  1  0  0  0  0
  7  8  1  0  0  0  0
  8  9  1  0  0  0  0
  8 10  2  0  0  0  0
  9 12  1  0  0  0  0
  9 16  2  0  0  0  0
 11 13  1  0  0  0  0
 11 12  1  0  0  0  0
 12 14  1  0  0  0  0
 14 15  1  0  0  0  0
 14 18  1  1  0  0  0
 15 17  1  0  0  0  0
 16 17  1  0  0  0  0
 18 19  1  0  0  0  0
 19 23  1  0  0  0  0
 20 21  2  0  0  0  0
 20 25  1  0  0  0  0
 21 22  1  0  0  0  0
 22 23  2  0  0  0  0
 23 24  1  0  0  0  0
 24 25  2  0  0  0  0
M  END
>  <CHROM.1>
153.47084896,177.62487534,61.63332607,-120.33931240,145.88957598,4.52974797
-21.46887340,24.71907775,-0.34858193,0.05367375,0.48818018

>  <Name>
ligand

>  <RI>
0

>  <Rbt.Current_Directory>
/home/itssahil/PROJECTS/Mol_Feturizer/New_Systems/rnas/4LVV

>  <Rbt.Executable>
rbdock ($Id: //depot/dev/client3/rdock/2013.1/src/exe/rbdock.cxx#4 $)

>  <Rbt.Library>
libRbt.so (2013.1, Build901 2013/11/27)

>  <Rbt.Parameter_File>
/export/apps/rDock/src/rDock_2013.1_src/data/scripts/dock_solv.prm

>  <Rbt.Receptor>
prm/pocket_docking_2.prm

>  <SCORE>
-12.6329

>  <SCORE.INTER>
-11.4128

>  <SCORE.INTER.CONST>
1

>  <SCORE.INTER.POLAR>
0

>  <SCORE.INTER.ROT>
5

>  <SCORE.INTER.SOLV>
29.1575

>  <SCORE.INTER.VDW>
-24.261

>  <SCORE.INTER.norm>
-0.45651

>  <SCORE.INTRA>
-1.22019

>  <SCORE.INTRA.DIHEDRAL>
-0.860002

>  <SCORE.INTRA.DIHEDRAL.0>
3.94806

>  <SCORE.INTRA.POLAR>
0

>  <SCORE.INTRA.POLAR.0>
0

>  <SCORE.INTRA.REPUL>
0

>  <SCORE.INTRA.REPUL.0>
0

>  <SCORE.INTRA.SOLV>
-0.108419

>  <SCORE.INTRA.SOLV.lig_0>
-70.9803

>  <SCORE.INTRA.VDW>
-0.735978

>  <SCORE.INTRA.VDW.0>
-0.709409

>  <SCORE.INTRA.norm>
-0.0488075

>  <SCORE.RESTR>
0

>  <SCORE.RESTR.CAVITY>
0

>  <SCORE.RESTR.norm>
0

>  <SCORE.SYSTEM>
0

>  <SCORE.SYSTEM.CONST>
0

>  <SCORE.SYSTEM.DIHEDRAL>
0

>  <SCORE.SYSTEM.SOLV>
0

>  <SCORE.SYSTEM.norm>
0

>  <SCORE.heavy>
25

>  <SCORE.norm>
-0.505318

>  <RMSD>
1.040

$$$$
ligand
 OpenBabel11021811503D
libRbt.so/2013.1/901 2013/11/27
 25 27  0  0  0  0  0  0  0  0999 V2000
   11.2244  -23.3394   22.0782 N   0  0  0  0  0  0  0  0  0  0  0  0
   10.8226  -23.8785   23.3404 C   0  0  0  0  0  0  0  0  0  0  0  0
   11.5775  -24.5977   23.9830 O   0  0  0  0  0  0  0  0  0  0  0  0
   -1.4951  -21.2508   26.0474 N   0  0  0  0  0  0  0  0  0  0  0  0
    0.3373  -21.3669   24.5001 N   0  0  0  0  0  0  0  0  0  0  0  0
   -0.1378  -20.9745   25.7048 C   0  0  0  0  0  0  0  0  0  0  0  0
    0.6576  -20.3090   26.5952 N   0  0  0  0  0  0  0  0  0  0  0  0
    1.9539  -20.0133   26.3221 C   0  0  0  0  0  0  0  0  0  0  0  0
    2.4927  -20.4195   25.0777 C   0  0  0  0  0  0  0  0  0  0  0  0
    2.7076  -19.3521   27.2632 O   0  0  0  0  0  0  0  0  0  0  0  0
    4.5476  -18.9195   24.9176 C   0  0  0  0  0  0  0  0  0  0  0  0
    3.8522  -20.1527   24.6373 N   0  0  0  0  0  0  0  0  0  0  0  0
    4.4143  -17.9052   24.2413 O   0  0  0  0  0  0  0  0  0  0  0  0
    4.4146  -21.1409   23.8194 C   0  0  2  0  0  0  0  0  0  0  0  0
    3.5216  -21.3496   22.5694 C   0  0  0  0  0  0  0  0  0  0  0  0
    1.6360  -21.0981   24.1545 C   0  0  0  0  0  0  0  0  0  0  0  0
    2.1570  -21.5375   22.8571 N   0  0  0  0  0  0  0  0  0  0  0  0
    4.5752  -22.4424   24.5787 C   0  0  0  0  0  0  0  0  0  0  0  0
    5.7064  -22.5525   25.4576 N   0  0  0  0  0  0  0  0  0  0  0  0
    9.4731  -23.5352   23.8694 C   0  0  0  0  0  0  0  0  0  0  0  0
    8.3300  -23.7824   23.1217 C   0  0  0  0  0  0  0  0  0  0  0  0
    7.0856  -23.4513   23.6439 C   0  0  0  0  0  0  0  0  0  0  0  0
    6.9852  -22.8872   24.9142 C   0  0  0  0  0  0  0  0  0  0  0  0
    8.1269  -22.6525   25.6603 C   0  0  0  0  0  0  0  0  0  0  0  0
    9.3724  -22.9733   25.1338 C   0  0  0  0  0  0  0  0  0  0  0  0
  1  2  1  0  0  0  0
  2  3  2  0  0  0  0
  2 20  1  0  0  0  0
  4  6  1  0  0  0  0
  5  6  2  0  0  0  0
  5 16  1  0  0  0  0
  6  7  1  0  0  0  0
  7  8  1  0  0  0  0
  8  9  1  0  0  0  0
  8 10  2  0  0  0  0
  9 12  1  0  0  0  0
  9 16  2  0  0  0  0
 11 13  1  0  0  0  0
 11 12  1  0  0  0  0
 12 14  1  0  0  0  0
 14 15  1  0  0  0  0
 14 18  1  1  0  0  0
 15 17  1  0  0  0  0
 16 17  1  0  0  0  0
 18 19  1  0  0  0  0
 19 23  1  0  0  0  0
 20 21  2  0  0  0  0
 20 25  1  0  0  0  0
 21 22  1  0  0  0  0
 22 23  2  0  0  0  0
 23 24  1  0  0  0  0
 24 25  2  0  0  0  0
M  END
>  <CHROM.1>
-83.18845632,-79.66060274,-81.27383109,-17.38310757,55.68095608,4.92919597
-21.61442213,24.58873525,0.38625134,0.02327818,-2.59952078

>  <Name>
ligand

>  <RI>
0

>  <Rbt.Current_Directory>
/home/itssahil/PROJECTS/Mol_Feturizer/New_Systems/rnas/4LVV

>  <Rbt.Executable>
rbdock ($Id: //depot/dev/client3/rdock/2013.1/src/exe/rbdock.cxx#4 $)

>  <Rbt.Library>
libRbt.so (2013.1, Build901 2013/11/27)

>  <Rbt.Parameter_File>
/export/apps/rDock/src/rDock_2013.1_src/data/scripts/dock_solv.prm

>  <Rbt.Receptor>
prm/pocket_docking_3.prm

>  <SCORE>
-10.0322

>  <SCORE.INTER>
-9.6654

>  <SCORE.INTER.CONST>
1

>  <SCORE.INTER.POLAR>
0

>  <SCORE.INTER.ROT>
5

>  <SCORE.INTER.SOLV>
24.0985

>  <SCORE.INTER.VDW>
-21.4098

>  <SCORE.INTER.norm>
-0.386616

>  <SCORE.INTRA>
-0.366794

>  <SCORE.INTRA.DIHEDRAL>
0.742558

>  <SCORE.INTRA.DIHEDRAL.0>
3.94806

>  <SCORE.INTRA.POLAR>
0

>  <SCORE.INTRA.POLAR.0>
0

>  <SCORE.INTRA.REPUL>
0

>  <SCORE.INTRA.REPUL.0>
0

>  <SCORE.INTRA.SOLV>
-0.379144

>  <SCORE.INTRA.SOLV.lig_0>
-70.9803

>  <SCORE.INTRA.VDW>
-0.5485

>  <SCORE.INTRA.VDW.0>
-0.709409

>  <SCORE.INTRA.norm>
-0.0146717

>  <SCORE.RESTR>
0

>  <SCORE.RESTR.CAVITY>
0

>  <SCORE.RESTR.norm>
0

>  <SCORE.SYSTEM>
0

>  <SCORE.SYSTEM.CONST>
0

>  <SCORE.SYSTEM.DIHEDRAL>
0

>  <SCORE.SYSTEM.SOLV>
0

>  <SCORE.SYSTEM.norm>
0

>  <SCORE.heavy>
25

>  <SCORE.norm>
-0.401288

>  <RMSD>
1.059

$$$$
ligand
 OpenBabel11021811503D
libRbt.so/2013.1/901 2013/11/27
 25 27  0  0  0  0  0  0  0  0999 V2000
   11.4857  -23.3958   24.4679 N   0  0  0  0  0  0  0  0  0  0  0  0
   10.4990  -22.9610   23.5284 C   0  0  0  0  0  0  0  0  0  0  0  0
   10.8278  -22.5186   22.4346 O   0  0  0  0  0  0  0  0  0  0  0  0
   -1.9859  -21.2190   25.8311 N   0  0  0  0  0  0  0  0  0  0  0  0
    0.0400  -21.4255   24.5591 N   0  0  0  0  0  0  0  0  0  0  0  0
   -0.6069  -20.9121   25.6309 C   0  0  0  0  0  0  0  0  0  0  0  0
    0.0355  -20.0961   26.5197 N   0  0  0  0  0  0  0  0  0  0  0  0
    1.3441  -19.7647   26.3774 C   0  0  0  0  0  0  0  0  0  0  0  0
    2.0600  -20.2932   25.2766 C   0  0  0  0  0  0  0  0  0  0  0  0
    1.9386  -18.9490   27.3113 O   0  0  0  0  0  0  0  0  0  0  0  0
    4.0573  -18.7120   25.1830 C   0  0  0  0  0  0  0  0  0  0  0  0
    3.4547  -20.0078   24.9817 N   0  0  0  0  0  0  0  0  0  0  0  0
    3.6529  -17.6916   24.6362 O   0  0  0  0  0  0  0  0  0  0  0  0
    4.1597  -21.0579   24.3800 C   0  0  2  0  0  0  0  0  0  0  0  0
    3.4508  -21.4721   23.0649 C   0  0  0  0  0  0  0  0  0  0  0  0
    1.3618  -21.1297   24.3494 C   0  0  0  0  0  0  0  0  0  0  0  0
    2.0684  -21.6987   23.1986 N   0  0  0  0  0  0  0  0  0  0  0  0
    4.2683  -22.2425   25.3187 C   0  0  0  0  0  0  0  0  0  0  0  0
    4.9751  -23.3969   24.8372 N   0  0  0  0  0  0  0  0  0  0  0  0
    9.0601  -23.0719   23.8973 C   0  0  0  0  0  0  0  0  0  0  0  0
    8.6213  -22.7275   25.1684 C   0  0  0  0  0  0  0  0  0  0  0  0
    7.2721  -22.8414   25.4810 C   0  0  0  0  0  0  0  0  0  0  0  0
    6.3646  -23.2858   24.5215 C   0  0  0  0  0  0  0  0  0  0  0  0
    6.8052  -23.6177   23.2523 C   0  0  0  0  0  0  0  0  0  0  0  0
    8.1561  -23.5145   22.9426 C   0  0  0  0  0  0  0  0  0  0  0  0
  1  2  1  0  0  0  0
  2  3  2  0  0  0  0
  2 20  1  0  0  0  0
  4  6  1  0  0  0  0
  5  6  2  0  0  0  0
  5 16  1  0  0  0  0
  6  7  1  0  0  0  0
  7  8  1  0  0  0  0
  8  9  1  0  0  0  0
  8 10  2  0  0  0  0
  9 12  1  0  0  0  0
  9 16  2  0  0  0  0
 11 13  1  0  0  0  0
 11 12  1  0  0  0  0
 12 14  1  0  0  0  0
 14 15  1  0  0  0  0
 14 18  1  1  0  0  0
 15 17  1  0  0  0  0
 16 17  1  0  0  0  0
 18 19  1  0  0  0  0
 19 23  1  0  0  0  0
 20 21  2  0  0  0  0
 20 25  1  0  0  0  0
 21 22  1  0  0  0  0
 22 23  2  0  0  0  0
 23 24  1  0  0  0  0
 24 25  2  0  0  0  0
M  END
>  <CHROM.1>
-58.77420105,-179.69065890,63.09824197,56.55849279,42.42653174,4.48627589
-21.44474965,24.69551386,-0.34828977,0.07262127,0.37344845

>  <Name>
ligand

>  <RI>
0

>  <Rbt.Current_Directory>
/home/itssahil/PROJECTS/Mol_Feturizer/New_Systems/rnas/4LVV

>  <Rbt.Executable>
rbdock ($Id: //depot/dev/client3/rdock/2013.1/src/exe/rbdock.cxx#4 $)

>  <Rbt.Library>
libRbt.so (2013.1, Build901 2013/11/27)

>  <Rbt.Parameter_File>
/export/apps/rDock/src/rDock_2013.1_src/data/scripts/dock_solv.prm

>  <Rbt.Receptor>
prm/pocket_docking_2.prm

>  <SCORE>
-12.8986

>  <SCORE.INTER>
-11.4541

>  <SCORE.INTER.CONST>
1

>  <SCORE.INTER.POLAR>
0

>  <SCORE.INTER.ROT>
5

>  <SCORE.INTER.SOLV>
30.1211

>  <SCORE.INTER.VDW>
-24.6098

>  <SCORE.INTER.norm>
-0.458164

>  <SCORE.INTRA>
-1.46226

>  <SCORE.INTRA.DIHEDRAL>
-0.715703

>  <SCORE.INTRA.DIHEDRAL.0>
3.94806

>  <SCORE.INTRA.POLAR>
0

>  <SCORE.INTRA.POLAR.0>
0

>  <SCORE.INTRA.REPUL>
0

>  <SCORE.INTRA.REPUL.0>
0

>  <SCORE.INTRA.SOLV>
-0.139051

>  <SCORE.INTRA.SOLV.lig_0>
-70.9803

>  <SCORE.INTRA.VDW>
-1.03488

>  <SCORE.INTRA.VDW.0>
-0.709409

>  <SCORE.INTRA.norm>
-0.0584904

>  <SCORE.RESTR>
0.0177389

>  <SCORE.RESTR.CAVITY>
0.0177389

>  <SCORE.RESTR.norm>
0.000709556

>  <SCORE.SYSTEM>
0

>  <SCORE.SYSTEM.CONST>
0

>  <SCORE.SYSTEM.DIHEDRAL>
0

>  <SCORE.SYSTEM.SOLV>
0

>  <SCORE.SYSTEM.norm>
0

>  <SCORE.heavy>
25

>  <SCORE.norm>
-0.515945

>  <RMSD>
1.064

$$$$
ligand
 OpenBabel11021811503D
libRbt.so/2013.1/901 2013/11/27
 25 27  0  0  0  0  0  0  0  0999 V2000
   11.3775  -24.1779   25.9530 N   0  0  0  0  0  0  0  0  0  0  0  0
   10.9104  -22.8262   25.9637 C   0  0  0  0  0  0  0  0  0  0  0  0
   11.6958  -21.8915   25.8659 O   0  0  0  0  0  0  0  0  0  0  0  0
   -1.7744  -21.3650   25.9401 N   0  0  0  0  0  0  0  0  0  0  0  0
    0.1945  -21.5367   24.5767 N   0  0  0  0  0  0  0  0  0  0  0  0
   -0.4235  -21.0038   25.6560 C   0  0  0  0  0  0  0  0  0  0  0  0
    0.2208  -20.1174   26.4730 N   0  0  0  0  0  0  0  0  0  0  0  0
    1.5030  -19.7324   26.2492 C   0  0  0  0  0  0  0  0  0  0  0  0
    2.1892  -20.2785   25.1381 C   0  0  0  0  0  0  0  0  0  0  0  0
    2.1018  -18.8463   27.1137 O   0  0  0  0  0  0  0  0  0  0  0  0
    4.0995  -18.6119   24.8712 C   0  0  0  0  0  0  0  0  0  0  0  0
    3.5520  -19.9425   24.7596 N   0  0  0  0  0  0  0  0  0  0  0  0
    3.9911  -17.7655   23.9904 O   0  0  0  0  0  0  0  0  0  0  0  0
    4.2774  -20.9858   24.1705 C   0  0  2  0  0  0  0  0  0  0  0  0
    3.5262  -21.4947   22.9134 C   0  0  0  0  0  0  0  0  0  0  0  0
    1.4883  -21.1897   24.2865 C   0  0  0  0  0  0  0  0  0  0  0  0
    2.1648  -21.7791   23.1278 N   0  0  0  0  0  0  0  0  0  0  0  0
    4.4899  -22.1181   25.1549 C   0  0  0  0  0  0  0  0  0  0  0  0
    5.3123  -21.8440   26.3006 N   0  0  0  0  0  0  0  0  0  0  0  0
    9.4467  -22.5747   26.0788 C   0  0  0  0  0  0  0  0  0  0  0  0
    8.8430  -22.4327   27.3206 C   0  0  0  0  0  0  0  0  0  0  0  0
    7.4753  -22.1980   27.3940 C   0  0  0  0  0  0  0  0  0  0  0  0
    6.7179  -22.0930   26.2291 C   0  0  0  0  0  0  0  0  0  0  0  0
    7.3261  -22.2246   24.9930 C   0  0  0  0  0  0  0  0  0  0  0  0
    8.6919  -22.4704   24.9194 C   0  0  0  0  0  0  0  0  0  0  0  0
  1  2  1  0  0  0  0
  2  3  2  0  0  0  0
  2 20  1  0  0  0  0
  4  6  1  0  0  0  0
  5  6  2  0  0  0  0
  5 16  1  0  0  0  0
  6  7  1  0  0  0  0
  7  8  1  0  0  0  0
  8  9  1  0  0  0  0
  8 10  2  0  0  0  0
  9 12  1  0  0  0  0
  9 16  2  0  0  0  0
 11 13  1  0  0  0  0
 11 12  1  0  0  0  0
 12 14  1  0  0  0  0
 14 15  1  0  0  0  0
 14 18  1  1  0  0  0
 15 17  1  0  0  0  0
 16 17  1  0  0  0  0
 18 19  1  0  0  0  0
 19 23  1  0  0  0  0
 20 21  2  0  0  0  0
 20 25  1  0  0  0  0
 21 22  1  0  0  0  0
 22 23  2  0  0  0  0
 23 24  1  0  0  0  0
 24 25  2  0  0  0  0
M  END
>  <CHROM.1>
-87.00274910,-65.62305873,-90.91344114,-162.09994203,89.86597578,4.72826448
-21.19825063,25.39759530,0.24193913,0.06767815,3.07736868

>  <Name>
ligand

>  <RI>
0

>  <Rbt.Current_Directory>
/home/itssahil/PROJECTS/Mol_Feturizer/New_Systems/rnas/4LVV

>  <Rbt.Executable>
rbdock ($Id: //depot/dev/client3/rdock/2013.1/src/exe/rbdock.cxx#4 $)

>  <Rbt.Library>
libRbt.so (2013.1, Build901 2013/11/27)

>  <Rbt.Parameter_File>
/export/apps/rDock/src/rDock_2013.1_src/data/scripts/dock_solv.prm

>  <Rbt.Receptor>
prm/pocket_docking_2.prm

>  <SCORE>
-9.47532

>  <SCORE.INTER>
-8.84514

>  <SCORE.INTER.CONST>
1

>  <SCORE.INTER.POLAR>
0

>  <SCORE.INTER.ROT>
5

>  <SCORE.INTER.SOLV>
25.3717

>  <SCORE.INTER.VDW>
-21.2873

>  <SCORE.INTER.norm>
-0.353806

>  <SCORE.INTRA>
-0.716589

>  <SCORE.INTRA.DIHEDRAL>
-0.090456

>  <SCORE.INTRA.DIHEDRAL.0>
3.94806

>  <SCORE.INTRA.POLAR>
0

>  <SCORE.INTRA.POLAR.0>
0

>  <SCORE.INTRA.REPUL>
0

>  <SCORE.INTRA.REPUL.0>
0

>  <SCORE.INTRA.SOLV>
-0.191218

>  <SCORE.INTRA.SOLV.lig_0>
-70.9803

>  <SCORE.INTRA.VDW>
-0.575752

>  <SCORE.INTRA.VDW.0>
-0.709409

>  <SCORE.INTRA.norm>
-0.0286636

>  <SCORE.RESTR>
0.0864117

>  <SCORE.RESTR.CAVITY>
0.0864117

>  <SCORE.RESTR.norm>
0.00345647

>  <SCORE.SYSTEM>
0

>  <SCORE.SYSTEM.CONST>
0

>  <SCORE.SYSTEM.DIHEDRAL>
0

>  <SCORE.SYSTEM.SOLV>
0

>  <SCORE.SYSTEM.norm>
0

>  <SCORE.heavy>
25

>  <SCORE.norm>
-0.379013

>  <RMSD>
1.064

$$$$
ligand
 OpenBabel11021811503D
libRbt.so/2013.1/901 2013/11/27
 25 27  0  0  0  0  0  0  0  0999 V2000
   11.4325  -22.5732   24.2592 N   0  0  0  0  0  0  0  0  0  0  0  0
   10.4617  -23.0839   23.3417 C   0  0  0  0  0  0  0  0  0  0  0  0
   10.7968  -23.4834   22.2334 O   0  0  0  0  0  0  0  0  0  0  0  0
   -1.9509  -21.3002   25.8886 N   0  0  0  0  0  0  0  0  0  0  0  0
    0.0704  -21.4727   24.6041 N   0  0  0  0  0  0  0  0  0  0  0  0
   -0.5855  -20.9506   25.6662 C   0  0  0  0  0  0  0  0  0  0  0  0
    0.0347  -20.0858   26.5241 N   0  0  0  0  0  0  0  0  0  0  0  0
    1.3293  -19.7124   26.3596 C   0  0  0  0  0  0  0  0  0  0  0  0
    2.0544  -20.2481   25.2683 C   0  0  0  0  0  0  0  0  0  0  0  0
    1.9020  -18.8482   27.2630 O   0  0  0  0  0  0  0  0  0  0  0  0
    3.9929  -18.6004   25.1085 C   0  0  0  0  0  0  0  0  0  0  0  0
    3.4354  -19.9223   24.9518 N   0  0  0  0  0  0  0  0  0  0  0  0
    3.8825  -17.7207   24.2613 O   0  0  0  0  0  0  0  0  0  0  0  0
    4.1725  -20.9643   24.3750 C   0  0  2  0  0  0  0  0  0  0  0  0
    3.4679  -21.4430   23.0797 C   0  0  0  0  0  0  0  0  0  0  0  0
    1.3788  -21.1365   24.3732 C   0  0  0  0  0  0  0  0  0  0  0  0
    2.0957  -21.7146   23.2332 N   0  0  0  0  0  0  0  0  0  0  0  0
    4.3315  -22.1153   25.3477 C   0  0  0  0  0  0  0  0  0  0  0  0
    4.9782  -23.3013   24.8586 N   0  0  0  0  0  0  0  0  0  0  0  0
    9.0345  -23.1378   23.7648 C   0  0  0  0  0  0  0  0  0  0  0  0
    8.6572  -22.7712   25.0494 C   0  0  0  0  0  0  0  0  0  0  0  0
    7.3174  -22.8318   25.4129 C   0  0  0  0  0  0  0  0  0  0  0  0
    6.3581  -23.2451   24.4906 C   0  0  0  0  0  0  0  0  0  0  0  0
    6.7377  -23.5993   23.2077 C   0  0  0  0  0  0  0  0  0  0  0  0
    8.0789  -23.5495   22.8472 C   0  0  0  0  0  0  0  0  0  0  0  0
  1  2  1  0  0  0  0
  2  3  2  0  0  0  0
  2 20  1  0  0  0  0
  4  6  1  0  0  0  0
  5  6  2  0  0  0  0
  5 16  1  0  0  0  0
  6  7  1  0  0  0  0
  7  8  1  0  0  0  0
  8  9  1  0  0  0  0
  8 10  2  0  0  0  0
  9 12  1  0  0  0  0
  9 16  2  0  0  0  0
 11 13  1  0  0  0  0
 11 12  1  0  0  0  0
 12 14  1  0  0  0  0
 14 15  1  0  0  0  0
 14 18  1  1  0  0  0
 15 17  1  0  0  0  0
 16 17  1  0  0  0  0
 18 19  1  0  0  0  0
 19 23  1  0  0  0  0
 20 21  2  0  0  0  0
 20 25  1  0  0  0  0
 21 22  1  0  0  0  0
 22 23  2  0  0  0  0
 23 24  1  0  0  0  0
 24 25  2  0  0  0  0
M  END
>  <CHROM.1>
-83.89059677,175.28947246,65.88143980,57.13724396,-3.57023169,4.49203682
-21.44143987,24.63764435,-0.36099159,0.09270932,0.36233875

>  <Name>
ligand

>  <RI>
0

>  <Rbt.Current_Directory>
/home/itssahil/PROJECTS/Mol_Feturizer/New_Systems/rnas/4LVV

>  <Rbt.Executable>
rbdock ($Id: //depot/dev/client3/rdock/2013.1/src/exe/rbdock.cxx#4 $)

>  <Rbt.Library>
libRbt.so (2013.1, Build901 2013/11/27)

>  <Rbt.Parameter_File>
/export/apps/rDock/src/rDock_2013.1_src/data/scripts/dock_solv.prm

>  <Rbt.Receptor>
prm/pocket_docking_2.prm

>  <SCORE>
-12.7609

>  <SCORE.INTER>
-11.5839

>  <SCORE.INTER.CONST>
1

>  <SCORE.INTER.POLAR>
0

>  <SCORE.INTER.ROT>
5

>  <SCORE.INTER.SOLV>
29.3616

>  <SCORE.INTER.VDW>
-24.4431

>  <SCORE.INTER.norm>
-0.463357

>  <SCORE.INTRA>
-1.17698

>  <SCORE.INTRA.DIHEDRAL>
-0.739844

>  <SCORE.INTRA.DIHEDRAL.0>
3.94806

>  <SCORE.INTRA.POLAR>
0

>  <SCORE.INTRA.POLAR.0>
0

>  <SCORE.INTRA.REPUL>
0

>  <SCORE.INTRA.REPUL.0>
0

>  <SCORE.INTRA.SOLV>
-0.125962

>  <SCORE.INTRA.SOLV.lig_0>
-70.9803

>  <SCORE.INTRA.VDW>
-0.74408

>  <SCORE.INTRA.VDW.0>
-0.709409

>  <SCORE.INTRA.norm>
-0.0470793

>  <SCORE.RESTR>
0

>  <SCORE.RESTR.CAVITY>
0

>  <SCORE.RESTR.norm>
0

>  <SCORE.SYSTEM>
0

>  <SCORE.SYSTEM.CONST>
0

>  <SCORE.SYSTEM.DIHEDRAL>
0

>  <SCORE.SYSTEM.SOLV>
0

>  <SCORE.SYSTEM.norm>
0

>  <SCORE.heavy>
25

>  <SCORE.norm>
-0.510436

>  <RMSD>
1.075

$$$$
ligand
 OpenBabel11021811503D
libRbt.so/2013.1/901 2013/11/27
 25 27  0  0  0  0  0  0  0  0999 V2000
   11.4074  -24.1301   23.9215 N   0  0  0  0  0  0  0  0  0  0  0  0
   10.5213  -23.1979   23.2961 C   0  0  0  0  0  0  0  0  0  0  0  0
   10.9312  -22.4187   22.4447 O   0  0  0  0  0  0  0  0  0  0  0  0
   -1.8820  -21.4240   26.0128 N   0  0  0  0  0  0  0  0  0  0  0  0
    0.0892  -21.5368   24.6463 N   0  0  0  0  0  0  0  0  0  0  0  0
   -0.5390  -21.0311   25.7328 C   0  0  0  0  0  0  0  0  0  0  0  0
    0.0873  -20.1424   26.5612 N   0  0  0  0  0  0  0  0  0  0  0  0
    1.3611  -19.7279   26.3419 C   0  0  0  0  0  0  0  0  0  0  0  0
    2.0577  -20.2450   25.2234 C   0  0  0  0  0  0  0  0  0  0  0  0
    1.9420  -18.8410   27.2177 O   0  0  0  0  0  0  0  0  0  0  0  0
    3.9329  -18.5357   24.9777 C   0  0  0  0  0  0  0  0  0  0  0  0
    3.4131  -19.8758   24.8488 N   0  0  0  0  0  0  0  0  0  0  0  0
    5.1321  -18.2804   25.0005 O   0  0  0  0  0  0  0  0  0  0  0  0
    4.1595  -20.8960   24.2458 C   0  0  2  0  0  0  0  0  0  0  0  0
    3.4181  -21.4038   22.9824 C   0  0  0  0  0  0  0  0  0  0  0  0
    1.3753  -21.1593   24.3602 C   0  0  0  0  0  0  0  0  0  0  0  0
    2.0631  -21.7192   23.1936 N   0  0  0  0  0  0  0  0  0  0  0  0
    4.3961  -22.0366   25.2151 C   0  0  0  0  0  0  0  0  0  0  0  0
    5.0007  -23.2287   24.6884 N   0  0  0  0  0  0  0  0  0  0  0  0
    9.0839  -23.2028   23.6868 C   0  0  0  0  0  0  0  0  0  0  0  0
    8.6889  -22.8081   24.9576 C   0  0  0  0  0  0  0  0  0  0  0  0
    7.3399  -22.8232   25.2908 C   0  0  0  0  0  0  0  0  0  0  0  0
    6.3897  -23.2193   24.3517 C   0  0  0  0  0  0  0  0  0  0  0  0
    6.7873  -23.6017   23.0825 C   0  0  0  0  0  0  0  0  0  0  0  0
    8.1372  -23.5973   22.7525 C   0  0  0  0  0  0  0  0  0  0  0  0
  1  2  1  0  0  0  0
  2  3  2  0  0  0  0
  2 20  1  0  0  0  0
  4  6  1  0  0  0  0
  5  6  2  0  0  0  0
  5 16  1  0  0  0  0
  6  7  1  0  0  0  0
  7  8  1  0  0  0  0
  8  9  1  0  0  0  0
  8 10  2  0  0  0  0
  9 12  1  0  0  0  0
  9 16  2  0  0  0  0
 11 13  1  0  0  0  0
 11 12  1  0  0  0  0
 12 14  1  0  0  0  0
 14 15  1  0  0  0  0
 14 18  1  1  0  0  0
 15 17  1  0  0  0  0
 16 17  1  0  0  0  0
 18 19  1  0  0  0  0
 19 23  1  0  0  0  0
 20 21  2  0  0  0  0
 20 25  1  0  0  0  0
 21 22  1  0  0  0  0
 22 23  2  0  0  0  0
 23 24  1  0  0  0  0
 24 25  2  0  0  0  0
M  END
>  <CHROM.1>
160.47625811,172.28998903,72.97993712,53.84321966,67.65989272,4.57517831
-21.48990500,24.61667557,0.36076985,-0.09465276,-2.75110207

>  <Name>
ligand

>  <RI>
0

>  <Rbt.Current_Directory>
/home/itssahil/PROJECTS/Mol_Feturizer/New_Systems/rnas/4LVV

>  <Rbt.Executable>
rbdock ($Id: //depot/dev/client3/rdock/2013.1/src/exe/rbdock.cxx#4 $)

>  <Rbt.Library>
libRbt.so (2013.1, Build901 2013/11/27)

>  <Rbt.Parameter_File>
/export/apps/rDock/src/rDock_2013.1_src/data/scripts/dock_solv.prm

>  <Rbt.Receptor>
prm/pocket_docking_2.prm

>  <SCORE>
-12.5926

>  <SCORE.INTER>
-11.6113

>  <SCORE.INTER.CONST>
1

>  <SCORE.INTER.POLAR>
0

>  <SCORE.INTER.ROT>
5

>  <SCORE.INTER.SOLV>
28.2952

>  <SCORE.INTER.VDW>
-24.106

>  <SCORE.INTER.norm>
-0.464452

>  <SCORE.INTRA>
-0.98294

>  <SCORE.INTRA.DIHEDRAL>
-0.489842

>  <SCORE.INTRA.DIHEDRAL.0>
3.94806

>  <SCORE.INTRA.POLAR>
0

>  <SCORE.INTRA.POLAR.0>
0

>  <SCORE.INTRA.REPUL>
0

>  <SCORE.INTRA.REPUL.0>
0

>  <SCORE.INTRA.SOLV>
-0.039908

>  <SCORE.INTRA.SOLV.lig_0>
-70.9803

>  <SCORE.INTRA.VDW>
-0.718064

>  <SCORE.INTRA.VDW.0>
-0.709409

>  <SCORE.INTRA.norm>
-0.0393176

>  <SCORE.RESTR>
0.00166711

>  <SCORE.RESTR.CAVITY>
0.00166711

>  <SCORE.RESTR.norm>
6.66846e-05

>  <SCORE.SYSTEM>
0

>  <SCORE.SYSTEM.CONST>
0

>  <SCORE.SYSTEM.DIHEDRAL>
0

>  <SCORE.SYSTEM.SOLV>
0

>  <SCORE.SYSTEM.norm>
0

>  <SCORE.heavy>
25

>  <SCORE.norm>
-0.503703

>  <RMSD>
1.092

$$$$
ligand
 OpenBabel11021811503D
libRbt.so/2013.1/901 2013/11/27
 25 27  0  0  0  0  0  0  0  0999 V2000
   11.2464  -22.0565   23.8974 N   0  0  0  0  0  0  0  0  0  0  0  0
   10.3993  -23.0678   23.3452 C   0  0  0  0  0  0  0  0  0  0  0  0
   10.8370  -23.8803   22.5399 O   0  0  0  0  0  0  0  0  0  0  0  0
   -2.0047  -21.2708   25.8589 N   0  0  0  0  0  0  0  0  0  0  0  0
    0.0307  -21.4524   24.5981 N   0  0  0  0  0  0  0  0  0  0  0  0
   -0.6349  -20.9282   25.6532 C   0  0  0  0  0  0  0  0  0  0  0  0
   -0.0203  -20.0680   26.5196 N   0  0  0  0  0  0  0  0  0  0  0  0
    1.2782  -19.7013   26.3709 C   0  0  0  0  0  0  0  0  0  0  0  0
    2.0132  -20.2393   25.2875 C   0  0  0  0  0  0  0  0  0  0  0  0
    1.8447  -18.8414   27.2823 O   0  0  0  0  0  0  0  0  0  0  0  0
    3.9622  -18.6017   25.1531 C   0  0  0  0  0  0  0  0  0  0  0  0
    3.3996  -19.9204   24.9878 N   0  0  0  0  0  0  0  0  0  0  0  0
    4.8595  -18.3500   25.9502 O   0  0  0  0  0  0  0  0  0  0  0  0
    4.1379  -20.9655   24.4183 C   0  0  2  0  0  0  0  0  0  0  0  0
    3.4462  -21.4386   23.1140 C   0  0  0  0  0  0  0  0  0  0  0  0
    1.3436  -21.1228   24.3832 C   0  0  0  0  0  0  0  0  0  0  0  0
    2.0708  -21.7031   23.2509 N   0  0  0  0  0  0  0  0  0  0  0  0
    4.2793  -22.1188   25.3910 C   0  0  0  0  0  0  0  0  0  0  0  0
    4.9300  -23.3057   24.9094 N   0  0  0  0  0  0  0  0  0  0  0  0
    8.9761  -23.1268   23.7806 C   0  0  0  0  0  0  0  0  0  0  0  0
    8.6073  -22.7529   25.0656 C   0  0  0  0  0  0  0  0  0  0  0  0
    7.2709  -22.8185   25.4407 C   0  0  0  0  0  0  0  0  0  0  0  0
    6.3065  -23.2442   24.5294 C   0  0  0  0  0  0  0  0  0  0  0  0
    6.6775  -23.6058   23.2461 C   0  0  0  0  0  0  0  0  0  0  0  0
    8.0153  -23.5508   22.8740 C   0  0  0  0  0  0  0  0  0  0  0  0
  1  2  1  0  0  0  0
  2  3  2  0  0  0  0
  2 20  1  0  0  0  0
  4  6  1  0  0  0  0
  5  6  2  0  0  0  0
  5 16  1  0  0  0  0
  6  7  1  0  0  0  0
  7  8  1  0  0  0  0
  8  9  1  0  0  0  0
  8 10  2  0  0  0  0
  9 12  1  0  0  0  0
  9 16  2  0  0  0  0
 11 13  1  0  0  0  0
 11 12  1  0  0  0  0
 12 14  1  0  0  0  0
 14 15  1  0  0  0  0
 14 18  1  1  0  0  0
 15 17  1  0  0  0  0
 16 17  1  0  0  0  0
 18 19  1  0  0  0  0
 19 23  1  0  0  0  0
 20 21  2  0  0  0  0
 20 25  1  0  0  0  0
 21 22  1  0  0  0  0
 22 23  2  0  0  0  0
 23 24  1  0  0  0  0
 24 25  2  0  0  0  0
M  END
>  <CHROM.1>
116.16290012,175.52283358,64.27991091,57.33611299,-32.01752103,4.49319300
-21.46162060,24.73571741,-0.36723306,0.03765494,0.53456380

>  <Name>
ligand

>  <RI>
0

>  <Rbt.Current_Directory>
/home/itssahil/PROJECTS/Mol_Feturizer/New_Systems/rnas/4LVV

>  <Rbt.Executable>
rbdock ($Id: //depot/dev/client3/rdock/2013.1/src/exe/rbdock.cxx#4 $)

>  <Rbt.Library>
libRbt.so (2013.1, Build901 2013/11/27)

>  <Rbt.Parameter_File>
/export/apps/rDock/src/rDock_2013.1_src/data/scripts/dock_solv.prm

>  <Rbt.Receptor>
prm/pocket_docking_2.prm

>  <SCORE>
-12.7497

>  <SCORE.INTER>
-11.6043

>  <SCORE.INTER.CONST>
1

>  <SCORE.INTER.POLAR>
0

>  <SCORE.INTER.ROT>
5

>  <SCORE.INTER.SOLV>
29.252

>  <SCORE.INTER.VDW>
-24.4202

>  <SCORE.INTER.norm>
-0.464173

>  <SCORE.INTRA>
-1.1511

>  <SCORE.INTRA.DIHEDRAL>
-0.522492

>  <SCORE.INTRA.DIHEDRAL.0>
3.94806

>  <SCORE.INTRA.POLAR>
0

>  <SCORE.INTRA.POLAR.0>
0

>  <SCORE.INTRA.REPUL>
0

>  <SCORE.INTRA.REPUL.0>
0

>  <SCORE.INTRA.SOLV>
0.0102458

>  <SCORE.INTRA.SOLV.lig_0>
-70.9803

>  <SCORE.INTRA.VDW>
-0.894973

>  <SCORE.INTRA.VDW.0>
-0.709409

>  <SCORE.INTRA.norm>
-0.0460438

>  <SCORE.RESTR>
0.00575886

>  <SCORE.RESTR.CAVITY>
0.00575886

>  <SCORE.RESTR.norm>
0.000230355

>  <SCORE.SYSTEM>
0

>  <SCORE.SYSTEM.CONST>
0

>  <SCORE.SYSTEM.DIHEDRAL>
0

>  <SCORE.SYSTEM.SOLV>
0

>  <SCORE.SYSTEM.norm>
0

>  <SCORE.heavy>
25

>  <SCORE.norm>
-0.509987

>  <RMSD>
1.092

$$$$
ligand
 OpenBabel11021811503D
libRbt.so/2013.1/901 2013/11/27
 25 27  0  0  0  0  0  0  0  0999 V2000
   11.5546  -21.9489   25.1147 N   0  0  0  0  0  0  0  0  0  0  0  0
   10.8482  -22.6336   26.1527 C   0  0  0  0  0  0  0  0  0  0  0  0
   11.4519  -23.2807   26.9995 O   0  0  0  0  0  0  0  0  0  0  0  0
   -1.7260  -21.1572   25.8446 N   0  0  0  0  0  0  0  0  0  0  0  0
    0.2283  -21.3723   24.4663 N   0  0  0  0  0  0  0  0  0  0  0  0
   -0.3467  -20.8919   25.5930 C   0  0  0  0  0  0  0  0  0  0  0  0
    0.3685  -20.1480   26.4893 N   0  0  0  0  0  0  0  0  0  0  0  0
    1.6811  -19.8586   26.3001 C   0  0  0  0  0  0  0  0  0  0  0  0
    2.3230  -20.3552   25.1404 C   0  0  0  0  0  0  0  0  0  0  0  0
    2.3507  -19.1155   27.2438 O   0  0  0  0  0  0  0  0  0  0  0  0
    4.3750  -18.8468   25.0292 C   0  0  0  0  0  0  0  0  0  0  0  0
    3.7126  -20.1069   24.7925 N   0  0  0  0  0  0  0  0  0  0  0  0
    4.3361  -17.9094   24.2395 O   0  0  0  0  0  0  0  0  0  0  0  0
    4.3464  -21.1496   24.1048 C   0  0  2  0  0  0  0  0  0  0  0  0
    3.5607  -21.4678   22.8067 C   0  0  0  0  0  0  0  0  0  0  0  0
    1.5494  -21.1154   24.2075 C   0  0  0  0  0  0  0  0  0  0  0  0
    2.1782  -21.6495   22.9962 N   0  0  0  0  0  0  0  0  0  0  0  0
    4.4517  -22.3849   24.9762 C   0  0  0  0  0  0  0  0  0  0  0  0
    5.1677  -22.2532   26.2149 N   0  0  0  0  0  0  0  0  0  0  0  0
    9.3628  -22.5316   26.1964 C   0  0  0  0  0  0  0  0  0  0  0  0
    8.7101  -22.1144   27.3483 C   0  0  0  0  0  0  0  0  0  0  0  0
    7.3232  -22.0290   27.3564 C   0  0  0  0  0  0  0  0  0  0  0  0
    6.5938  -22.3473   26.2125 C   0  0  0  0  0  0  0  0  0  0  0  0
    7.2496  -22.7524   25.0631 C   0  0  0  0  0  0  0  0  0  0  0  0
    8.6360  -22.8486   25.0580 C   0  0  0  0  0  0  0  0  0  0  0  0
  1  2  1  0  0  0  0
  2  3  2  0  0  0  0
  2 20  1  0  0  0  0
  4  6  1  0  0  0  0
  5  6  2  0  0  0  0
  5 16  1  0  0  0  0
  6  7  1  0  0  0  0
  7  8  1  0  0  0  0
  8  9  1  0  0  0  0
  8 10  2  0  0  0  0
  9 12  1  0  0  0  0
  9 16  2  0  0  0  0
 11 13  1  0  0  0  0
 11 12  1  0  0  0  0
 12 14  1  0  0  0  0
 14 15  1  0  0  0  0
 14 18  1  1  0  0  0
 15 17  1  0  0  0  0
 16 17  1  0  0  0  0
 18 19  1  0  0  0  0
 19 23  1  0  0  0  0
 20 21  2  0  0  0  0
 20 25  1  0  0  0  0
 21 22  1  0  0  0  0
 22 23  2  0  0  0  0
 23 24  1  0  0  0  0
 24 25  2  0  0  0  0
M  END
>  <CHROM.1>
-86.23515648,-59.01447257,-82.51269056,170.48410790,-126.13625389,4.76897805
-21.23814694,25.42575741,-0.03364941,0.24289514,-1.86442748

>  <Name>
ligand

>  <RI>
0

>  <Rbt.Current_Directory>
/home/itssahil/PROJECTS/Mol_Feturizer/New_Systems/rnas/4LVV

>  <Rbt.Executable>
rbdock ($Id: //depot/dev/client3/rdock/2013.1/src/exe/rbdock.cxx#4 $)

>  <Rbt.Library>
libRbt.so (2013.1, Build901 2013/11/27)

>  <Rbt.Parameter_File>
/export/apps/rDock/src/rDock_2013.1_src/data/scripts/dock_solv.prm

>  <Rbt.Receptor>
prm/pocket_docking_4.prm

>  <SCORE>
-10.0722

>  <SCORE.INTER>
-9.33194

>  <SCORE.INTER.CONST>
1

>  <SCORE.INTER.POLAR>
0

>  <SCORE.INTER.ROT>
5

>  <SCORE.INTER.SOLV>
24.9971

>  <SCORE.INTER.VDW>
-21.487

>  <SCORE.INTER.norm>
-0.373278

>  <SCORE.INTRA>
-0.740231

>  <SCORE.INTRA.DIHEDRAL>
-0.46855

>  <SCORE.INTRA.DIHEDRAL.0>
3.94806

>  <SCORE.INTRA.POLAR>
0

>  <SCORE.INTRA.POLAR.0>
0

>  <SCORE.INTRA.REPUL>
0

>  <SCORE.INTRA.REPUL.0>
0

>  <SCORE.INTRA.SOLV>
-0.0729002

>  <SCORE.INTRA.SOLV.lig_0>
-70.9803

>  <SCORE.INTRA.VDW>
-0.469506

>  <SCORE.INTRA.VDW.0>
-0.709409

>  <SCORE.INTRA.norm>
-0.0296093

>  <SCORE.RESTR>
0

>  <SCORE.RESTR.CAVITY>
0

>  <SCORE.RESTR.norm>
0

>  <SCORE.SYSTEM>
0

>  <SCORE.SYSTEM.CONST>
0

>  <SCORE.SYSTEM.DIHEDRAL>
0

>  <SCORE.SYSTEM.SOLV>
0

>  <SCORE.SYSTEM.norm>
0

>  <SCORE.heavy>
25

>  <SCORE.norm>
-0.402887

>  <RMSD>
1.095

$$$$
ligand
 OpenBabel11021811503D
libRbt.so/2013.1/901 2013/11/27
 25 27  0  0  0  0  0  0  0  0999 V2000
   11.4174  -23.5171   24.2359 N   0  0  0  0  0  0  0  0  0  0  0  0
   10.4512  -23.1359   23.2528 C   0  0  0  0  0  0  0  0  0  0  0  0
   10.8012  -22.7988   22.1286 O   0  0  0  0  0  0  0  0  0  0  0  0
   -1.9383  -21.3524   25.9259 N   0  0  0  0  0  0  0  0  0  0  0  0
    0.0580  -21.4955   24.5994 N   0  0  0  0  0  0  0  0  0  0  0  0
   -0.5833  -20.9824   25.6748 C   0  0  0  0  0  0  0  0  0  0  0  0
    0.0416  -20.1076   26.5190 N   0  0  0  0  0  0  0  0  0  0  0  0
    1.3267  -19.7149   26.3272 C   0  0  0  0  0  0  0  0  0  0  0  0
    2.0368  -20.2405   25.2212 C   0  0  0  0  0  0  0  0  0  0  0  0
    1.9051  -18.8413   27.2179 O   0  0  0  0  0  0  0  0  0  0  0  0
    3.9463  -18.5637   25.0200 C   0  0  0  0  0  0  0  0  0  0  0  0
    3.4057  -19.8941   24.8756 N   0  0  0  0  0  0  0  0  0  0  0  0
    5.0016  -18.3273   25.5981 O   0  0  0  0  0  0  0  0  0  0  0  0
    4.1463  -20.9253   24.2841 C   0  0  2  0  0  0  0  0  0  0  0  0
    3.4220  -21.4156   23.0041 C   0  0  0  0  0  0  0  0  0  0  0  0
    1.3561  -21.1397   24.3409 C   0  0  0  0  0  0  0  0  0  0  0  0
    2.0576  -21.7078   23.1865 N   0  0  0  0  0  0  0  0  0  0  0  0
    4.3430  -22.0730   25.2538 C   0  0  0  0  0  0  0  0  0  0  0  0
    4.9570  -23.2661   24.7403 N   0  0  0  0  0  0  0  0  0  0  0  0
    9.0069  -23.1728   23.6155 C   0  0  0  0  0  0  0  0  0  0  0  0
    8.0500  -23.5734   22.6932 C   0  0  0  0  0  0  0  0  0  0  0  0
    6.7108  -23.5977   23.0630 C   0  0  0  0  0  0  0  0  0  0  0  0
    6.3327  -23.2350   24.3541 C   0  0  0  0  0  0  0  0  0  0  0  0
    7.2914  -22.8466   25.2735 C   0  0  0  0  0  0  0  0  0  0  0  0
    8.6297  -22.8115   24.9007 C   0  0  0  0  0  0  0  0  0  0  0  0
  1  2  1  0  0  0  0
  2  3  2  0  0  0  0
  2 20  1  0  0  0  0
  4  6  1  0  0  0  0
  5  6  2  0  0  0  0
  5 16  1  0  0  0  0
  6  7  1  0  0  0  0
  7  8  1  0  0  0  0
  8  9  1  0  0  0  0
  8 10  2  0  0  0  0
  9 12  1  0  0  0  0
  9 16  2  0  0  0  0
 11 13  1  0  0  0  0
 11 12  1  0  0  0  0
 12 14  1  0  0  0  0
 14 15  1  0  0  0  0
 14 18  1  1  0  0  0
 15 17  1  0  0  0  0
 16 17  1  0  0  0  0
 18 19  1  0  0  0  0
 19 23  1  0  0  0  0
 20 21  2  0  0  0  0
 20 25  1  0  0  0  0
 21 22  1  0  0  0  0
 22 23  2  0  0  0  0
 23 24  1  0  0  0  0
 24 25  2  0  0  0  0
M  END
>  <CHROM.1>
129.38393291,173.27000909,68.24122395,-123.53959446,-142.71470063,4.52991040
-21.47877978,24.63188961,-0.37093113,0.05069159,0.51502200

>  <Name>
ligand

>  <RI>
0

>  <Rbt.Current_Directory>
/home/itssahil/PROJECTS/Mol_Feturizer/New_Systems/rnas/4LVV

>  <Rbt.Executable>
rbdock ($Id: //depot/dev/client3/rdock/2013.1/src/exe/rbdock.cxx#4 $)

>  <Rbt.Library>
libRbt.so (2013.1, Build901 2013/11/27)

>  <Rbt.Parameter_File>
/export/apps/rDock/src/rDock_2013.1_src/data/scripts/dock_solv.prm

>  <Rbt.Receptor>
prm/pocket_docking_2.prm

>  <SCORE>
-12.6527

>  <SCORE.INTER>
-11.6403

>  <SCORE.INTER.CONST>
1

>  <SCORE.INTER.POLAR>
0

>  <SCORE.INTER.ROT>
5

>  <SCORE.INTER.SOLV>
28.7599

>  <SCORE.INTER.VDW>
-24.2802

>  <SCORE.INTER.norm>
-0.465611

>  <SCORE.INTRA>
-1.01248

>  <SCORE.INTRA.DIHEDRAL>
-0.507929

>  <SCORE.INTRA.DIHEDRAL.0>
3.94806

>  <SCORE.INTRA.POLAR>
0

>  <SCORE.INTRA.POLAR.0>
0

>  <SCORE.INTRA.REPUL>
0

>  <SCORE.INTRA.REPUL.0>
0

>  <SCORE.INTRA.SOLV>
0.015126

>  <SCORE.INTRA.SOLV.lig_0>
-70.9803

>  <SCORE.INTRA.VDW>
-0.766077

>  <SCORE.INTRA.VDW.0>
-0.709409

>  <SCORE.INTRA.norm>
-0.0404992

>  <SCORE.RESTR>
0

>  <SCORE.RESTR.CAVITY>
0

>  <SCORE.RESTR.norm>
0

>  <SCORE.SYSTEM>
0

>  <SCORE.SYSTEM.CONST>
0

>  <SCORE.SYSTEM.DIHEDRAL>
0

>  <SCORE.SYSTEM.SOLV>
0

>  <SCORE.SYSTEM.norm>
0

>  <SCORE.heavy>
25

>  <SCORE.norm>
-0.50611

>  <RMSD>
1.101

$$$$
ligand
 OpenBabel11021811503D
libRbt.so/2013.1/901 2013/11/27
 25 27  0  0  0  0  0  0  0  0999 V2000
   11.4416  -23.2704   24.2893 N   0  0  0  0  0  0  0  0  0  0  0  0
   10.4258  -23.0965   23.2978 C   0  0  0  0  0  0  0  0  0  0  0  0
   10.7215  -22.9235   22.1219 O   0  0  0  0  0  0  0  0  0  0  0  0
   -1.9834  -21.3208   25.8866 N   0  0  0  0  0  0  0  0  0  0  0  0
    0.0311  -21.4812   24.5898 N   0  0  0  0  0  0  0  0  0  0  0  0
   -0.6202  -20.9663   25.6583 C   0  0  0  0  0  0  0  0  0  0  0  0
    0.0025  -20.1042   26.5170 N   0  0  0  0  0  0  0  0  0  0  0  0
    1.2952  -19.7265   26.3471 C   0  0  0  0  0  0  0  0  0  0  0  0
    2.0155  -20.2546   25.2490 C   0  0  0  0  0  0  0  0  0  0  0  0
    1.8706  -18.8653   27.2517 O   0  0  0  0  0  0  0  0  0  0  0  0
    3.9485  -18.6007   25.0867 C   0  0  0  0  0  0  0  0  0  0  0  0
    3.3938  -19.9233   24.9264 N   0  0  0  0  0  0  0  0  0  0  0  0
    4.4101  -18.1905   26.1462 O   0  0  0  0  0  0  0  0  0  0  0  0
    4.1305  -20.9604   24.3402 C   0  0  2  0  0  0  0  0  0  0  0  0
    3.4199  -21.4344   23.0464 C   0  0  0  0  0  0  0  0  0  0  0  0
    1.3373  -21.1403   24.3532 C   0  0  0  0  0  0  0  0  0  0  0  0
    2.0493  -21.7105   23.2063 N   0  0  0  0  0  0  0  0  0  0  0  0
    4.2981  -22.1159   25.3060 C   0  0  0  0  0  0  0  0  0  0  0  0
    4.9392  -23.3001   24.8053 N   0  0  0  0  0  0  0  0  0  0  0  0
    8.9977  -23.1467   23.7185 C   0  0  0  0  0  0  0  0  0  0  0  0
    8.6191  -22.7788   25.0023 C   0  0  0  0  0  0  0  0  0  0  0  0
    7.2785  -22.8360   25.3635 C   0  0  0  0  0  0  0  0  0  0  0  0
    6.3198  -23.2474   24.4396 C   0  0  0  0  0  0  0  0  0  0  0  0
    6.7008  -23.6030   23.1576 C   0  0  0  0  0  0  0  0  0  0  0  0
    8.0428  -23.5565   22.7993 C   0  0  0  0  0  0  0  0  0  0  0  0
  1  2  1  0  0  0  0
  2  3  2  0  0  0  0
  2 20  1  0  0  0  0
  4  6  1  0  0  0  0
  5  6  2  0  0  0  0
  5 16  1  0  0  0  0
  6  7  1  0  0  0  0
  7  8  1  0  0  0  0
  8  9  1  0  0  0  0
  8 10  2  0  0  0  0
  9 12  1  0  0  0  0
  9 16  2  0  0  0  0
 11 13  1  0  0  0  0
 11 12  1  0  0  0  0
 12 14  1  0  0  0  0
 14 15  1  0  0  0  0
 14 18  1  1  0  0  0
 15 17  1  0  0  0  0
 16 17  1  0  0  0  0
 18 19  1  0  0  0  0
 19 23  1  0  0  0  0
 20 21  2  0  0  0  0
 20 25  1  0  0  0  0
 21 22  1  0  0  0  0
 22 23  2  0  0  0  0
 23 24  1  0  0  0  0
 24 25  2  0  0  0  0
M  END
>  <CHROM.1>
85.17433499,174.98330069,66.64794241,56.48910003,28.28190063,4.48118691,-21.47167488
24.69841036,-0.37474054,0.02510158,0.57118422

>  <Name>
ligand

>  <RI>
0

>  <Rbt.Current_Directory>
/home/itssahil/PROJECTS/Mol_Feturizer/New_Systems/rnas/4LVV

>  <Rbt.Executable>
rbdock ($Id: //depot/dev/client3/rdock/2013.1/src/exe/rbdock.cxx#4 $)

>  <Rbt.Library>
libRbt.so (2013.1, Build901 2013/11/27)

>  <Rbt.Parameter_File>
/export/apps/rDock/src/rDock_2013.1_src/data/scripts/dock_solv.prm

>  <Rbt.Receptor>
prm/pocket_docking_2.prm

>  <SCORE>
-12.7529

>  <SCORE.INTER>
-11.7312

>  <SCORE.INTER.CONST>
1

>  <SCORE.INTER.POLAR>
0

>  <SCORE.INTER.ROT>
5

>  <SCORE.INTER.SOLV>
29.3818

>  <SCORE.INTER.VDW>
-24.5481

>  <SCORE.INTER.norm>
-0.469247

>  <SCORE.INTRA>
-1.02524

>  <SCORE.INTRA.DIHEDRAL>
-0.439954

>  <SCORE.INTRA.DIHEDRAL.0>
3.94806

>  <SCORE.INTRA.POLAR>
0

>  <SCORE.INTRA.POLAR.0>
0

>  <SCORE.INTRA.REPUL>
0

>  <SCORE.INTRA.REPUL.0>
0

>  <SCORE.INTRA.SOLV>
0.128811

>  <SCORE.INTRA.SOLV.lig_0>
-70.9803

>  <SCORE.INTRA.VDW>
-0.869672

>  <SCORE.INTRA.VDW.0>
-0.709409

>  <SCORE.INTRA.norm>
-0.0410097

>  <SCORE.RESTR>
0.00351582

>  <SCORE.RESTR.CAVITY>
0.00351582

>  <SCORE.RESTR.norm>
0.000140633

>  <SCORE.SYSTEM>
0

>  <SCORE.SYSTEM.CONST>
0

>  <SCORE.SYSTEM.DIHEDRAL>
0

>  <SCORE.SYSTEM.SOLV>
0

>  <SCORE.SYSTEM.norm>
0

>  <SCORE.heavy>
25

>  <SCORE.norm>
-0.510116

>  <RMSD>
1.119

$$$$
ligand
 OpenBabel11021811503D
libRbt.so/2013.1/901 2013/11/27
 25 27  0  0  0  0  0  0  0  0999 V2000
   11.8786  -22.7168   24.5403 N   0  0  0  0  0  0  0  0  0  0  0  0
   10.8103  -23.1044   25.4086 C   0  0  0  0  0  0  0  0  0  0  0  0
   11.0408  -23.5297   26.5338 O   0  0  0  0  0  0  0  0  0  0  0  0
   -1.4217  -21.6988   26.4303 N   0  0  0  0  0  0  0  0  0  0  0  0
    0.1987  -21.4353   24.6781 N   0  0  0  0  0  0  0  0  0  0  0  0
   -0.1776  -21.1875   25.9540 C   0  0  0  0  0  0  0  0  0  0  0  0
    0.6090  -20.4469   26.7915 N   0  0  0  0  0  0  0  0  0  0  0  0
    1.7990  -19.9300   26.3924 C   0  0  0  0  0  0  0  0  0  0  0  0
    2.2350  -20.1791   25.0689 C   0  0  0  0  0  0  0  0  0  0  0  0
    2.5517  -19.2031   27.2846 O   0  0  0  0  0  0  0  0  0  0  0  0
    3.9943  -18.3573   24.7790 C   0  0  0  0  0  0  0  0  0  0  0  0
    3.4704  -19.6717   24.4948 N   0  0  0  0  0  0  0  0  0  0  0  0
    4.1113  -17.4829   23.9272 O   0  0  0  0  0  0  0  0  0  0  0  0
    4.0736  -20.5120   23.5504 C   0  0  2  0  0  0  0  0  0  0  0  0
    3.0752  -20.8001   22.3998 C   0  0  0  0  0  0  0  0  0  0  0  0
    1.3862  -20.9408   24.2051 C   0  0  0  0  0  0  0  0  0  0  0  0
    1.8033  -21.2227   22.8288 N   0  0  0  0  0  0  0  0  0  0  0  0
    4.5288  -21.8066   24.1930 C   0  0  0  0  0  0  0  0  0  0  0  0
    5.4822  -22.5985   23.4663 N   0  0  0  0  0  0  0  0  0  0  0  0
    9.4080  -22.9651   24.9257 C   0  0  0  0  0  0  0  0  0  0  0  0
    8.4411  -22.3521   25.7106 C   0  0  0  0  0  0  0  0  0  0  0  0
    7.1420  -22.2371   25.2310 C   0  0  0  0  0  0  0  0  0  0  0  0
    6.8155  -22.7219   23.9660 C   0  0  0  0  0  0  0  0  0  0  0  0
    7.7855  -23.3227   23.1827 C   0  0  0  0  0  0  0  0  0  0  0  0
    9.0822  -23.4479   23.6666 C   0  0  0  0  0  0  0  0  0  0  0  0
  1  2  1  0  0  0  0
  2  3  2  0  0  0  0
  2 20  1  0  0  0  0
  4  6  1  0  0  0  0
  5  6  2  0  0  0  0
  5 16  1  0  0  0  0
  6  7  1  0  0  0  0
  7  8  1  0  0  0  0
  8  9  1  0  0  0  0
  8 10  2  0  0  0  0
  9 12  1  0  0  0  0
  9 16  2  0  0  0  0
 11 13  1  0  0  0  0
 11 12  1  0  0  0  0
 12 14  1  0  0  0  0
 14 15  1  0  0  0  0
 14 18  1  1  0  0  0
 15 17  1  0  0  0  0
 16 17  1  0  0  0  0
 18 19  1  0  0  0  0
 19 23  1  0  0  0  0
 20 21  2  0  0  0  0
 20 25  1  0  0  0  0
 21 22  1  0  0  0  0
 22 23  2  0  0  0  0
 23 24  1  0  0  0  0
 24 25  2  0  0  0  0
M  END
>  <CHROM.1>
-115.75331274,-162.95080907,111.07905927,8.75294293,-131.34215338,4.75549793
-21.28930620,24.80166019,-0.09144926,-0.27398859,1.39378982

>  <Name>
ligand

>  <RI>
0

>  <Rbt.Current_Directory>
/home/itssahil/PROJECTS/Mol_Feturizer/New_Systems/rnas/4LVV

>  <Rbt.Executable>
rbdock ($Id: //depot/dev/client3/rdock/2013.1/src/exe/rbdock.cxx#4 $)

>  <Rbt.Library>
libRbt.so (2013.1, Build901 2013/11/27)

>  <Rbt.Parameter_File>
/export/apps/rDock/src/rDock_2013.1_src/data/scripts/dock_solv.prm

>  <Rbt.Receptor>
prm/pocket_docking_2.prm

>  <SCORE>
-7.68117

>  <SCORE.INTER>
-8.04243

>  <SCORE.INTER.CONST>
1

>  <SCORE.INTER.POLAR>
0

>  <SCORE.INTER.ROT>
5

>  <SCORE.INTER.SOLV>
26.0114

>  <SCORE.INTER.VDW>
-20.9654

>  <SCORE.INTER.norm>
-0.321697

>  <SCORE.INTRA>
0.361265

>  <SCORE.INTRA.DIHEDRAL>
1.43927

>  <SCORE.INTRA.DIHEDRAL.0>
3.94806

>  <SCORE.INTRA.POLAR>
0

>  <SCORE.INTRA.POLAR.0>
0

>  <SCORE.INTRA.REPUL>
0

>  <SCORE.INTRA.REPUL.0>
0

>  <SCORE.INTRA.SOLV>
-0.54106

>  <SCORE.INTRA.SOLV.lig_0>
-70.9803

>  <SCORE.INTRA.VDW>
-0.0878394

>  <SCORE.INTRA.VDW.0>
-0.709409

>  <SCORE.INTRA.norm>
0.0144506

>  <SCORE.RESTR>
0

>  <SCORE.RESTR.CAVITY>
0

>  <SCORE.RESTR.norm>
0

>  <SCORE.SYSTEM>
0

>  <SCORE.SYSTEM.CONST>
0

>  <SCORE.SYSTEM.DIHEDRAL>
0

>  <SCORE.SYSTEM.SOLV>
0

>  <SCORE.SYSTEM.norm>
0

>  <SCORE.heavy>
25

>  <SCORE.norm>
-0.307247

>  <RMSD>
1.128

$$$$
ligand
 OpenBabel11021811503D
libRbt.so/2013.1/901 2013/11/27
 25 27  0  0  0  0  0  0  0  0999 V2000
   11.1016  -21.8636   23.3615 N   0  0  0  0  0  0  0  0  0  0  0  0
   10.4280  -23.1251   23.3489 C   0  0  0  0  0  0  0  0  0  0  0  0
   11.0128  -24.1438   23.0020 O   0  0  0  0  0  0  0  0  0  0  0  0
   -1.9700  -21.2550   25.8734 N   0  0  0  0  0  0  0  0  0  0  0  0
    0.0558  -21.4679   24.6021 N   0  0  0  0  0  0  0  0  0  0  0  0
   -0.5983  -20.9274   25.6562 C   0  0  0  0  0  0  0  0  0  0  0  0
    0.0298  -20.0650   26.5106 N   0  0  0  0  0  0  0  0  0  0  0  0
    1.3307  -19.7122   26.3507 C   0  0  0  0  0  0  0  0  0  0  0  0
    2.0540  -20.2675   25.2679 C   0  0  0  0  0  0  0  0  0  0  0  0
    1.9110  -18.8493   27.2504 O   0  0  0  0  0  0  0  0  0  0  0  0
    4.0176  -18.6499   25.1062 C   0  0  0  0  0  0  0  0  0  0  0  0
    3.4414  -19.9647   24.9568 N   0  0  0  0  0  0  0  0  0  0  0  0
    3.7854  -17.7241   24.3363 O   0  0  0  0  0  0  0  0  0  0  0  0
    4.1663  -21.0221   24.3928 C   0  0  2  0  0  0  0  0  0  0  0  0
    3.4620  -21.5008   23.0973 C   0  0  0  0  0  0  0  0  0  0  0  0
    1.3704  -21.1530   24.3761 C   0  0  0  0  0  0  0  0  0  0  0  0
    2.0851  -21.7508   23.2450 N   0  0  0  0  0  0  0  0  0  0  0  0
    4.3026  -22.1675   25.3756 C   0  0  0  0  0  0  0  0  0  0  0  0
    4.9568  -23.3578   24.9072 N   0  0  0  0  0  0  0  0  0  0  0  0
    9.0041  -23.1815   23.7827 C   0  0  0  0  0  0  0  0  0  0  0  0
    8.6272  -22.7571   25.0494 C   0  0  0  0  0  0  0  0  0  0  0  0
    7.2904  -22.8217   25.4234 C   0  0  0  0  0  0  0  0  0  0  0  0
    6.3337  -23.2970   24.5287 C   0  0  0  0  0  0  0  0  0  0  0  0
    6.7128  -23.7090   23.2631 C   0  0  0  0  0  0  0  0  0  0  0  0
    8.0511  -23.6549   22.8926 C   0  0  0  0  0  0  0  0  0  0  0  0
  1  2  1  0  0  0  0
  2  3  2  0  0  0  0
  2 20  1  0  0  0  0
  4  6  1  0  0  0  0
  5  6  2  0  0  0  0
  5 16  1  0  0  0  0
  6  7  1  0  0  0  0
  7  8  1  0  0  0  0
  8  9  1  0  0  0  0
  8 10  2  0  0  0  0
  9 12  1  0  0  0  0
  9 16  2  0  0  0  0
 11 13  1  0  0  0  0
 11 12  1  0  0  0  0
 12 14  1  0  0  0  0
 14 15  1  0  0  0  0
 14 18  1  1  0  0  0
 15 17  1  0  0  0  0
 16 17  1  0  0  0  0
 18 19  1  0  0  0  0
 19 23  1  0  0  0  0
 20 21  2  0  0  0  0
 20 25  1  0  0  0  0
 21 22  1  0  0  0  0
 22 23  2  0  0  0  0
 23 24  1  0  0  0  0
 24 25  2  0  0  0  0
M  END
>  <CHROM.1>
-74.30508712,176.42434690,63.97797921,55.40335746,-58.14365788,4.47300161
-21.46746317,24.64949240,-0.36165797,0.11425113,0.29495899

>  <Name>
ligand

>  <RI>
0

>  <Rbt.Current_Directory>
/home/itssahil/PROJECTS/Mol_Feturizer/New_Systems/rnas/4LVV

>  <Rbt.Executable>
rbdock ($Id: //depot/dev/client3/rdock/2013.1/src/exe/rbdock.cxx#4 $)

>  <Rbt.Library>
libRbt.so (2013.1, Build901 2013/11/27)

>  <Rbt.Parameter_File>
/export/apps/rDock/src/rDock_2013.1_src/data/scripts/dock_solv.prm

>  <Rbt.Receptor>
prm/pocket_docking_3.prm

>  <SCORE>
-13.3308

>  <SCORE.INTER>
-11.8185

>  <SCORE.INTER.CONST>
1

>  <SCORE.INTER.POLAR>
0

>  <SCORE.INTER.ROT>
5

>  <SCORE.INTER.SOLV>
29.9475

>  <SCORE.INTER.VDW>
-24.7949

>  <SCORE.INTER.norm>
-0.472741

>  <SCORE.INTRA>
-1.51224

>  <SCORE.INTRA.DIHEDRAL>
-0.758735

>  <SCORE.INTRA.DIHEDRAL.0>
3.94806

>  <SCORE.INTRA.POLAR>
0

>  <SCORE.INTRA.POLAR.0>
0

>  <SCORE.INTRA.REPUL>
0

>  <SCORE.INTRA.REPUL.0>
0

>  <SCORE.INTRA.SOLV>
-0.128554

>  <SCORE.INTRA.SOLV.lig_0>
-70.9803

>  <SCORE.INTRA.VDW>
-1.0686

>  <SCORE.INTRA.VDW.0>
-0.709409

>  <SCORE.INTRA.norm>
-0.0604897

>  <SCORE.RESTR>
0

>  <SCORE.RESTR.CAVITY>
0

>  <SCORE.RESTR.norm>
0

>  <SCORE.SYSTEM>
0

>  <SCORE.SYSTEM.CONST>
0

>  <SCORE.SYSTEM.DIHEDRAL>
0

>  <SCORE.SYSTEM.SOLV>
0

>  <SCORE.SYSTEM.norm>
0

>  <SCORE.heavy>
25

>  <SCORE.norm>
-0.533231

>  <RMSD>
1.158

$$$$
ligand
 OpenBabel11021811503D
libRbt.so/2013.1/901 2013/11/27
 25 27  0  0  0  0  0  0  0  0999 V2000
   11.1424  -22.9957   22.4953 N   0  0  0  0  0  0  0  0  0  0  0  0
   10.3157  -23.9996   23.0903 C   0  0  0  0  0  0  0  0  0  0  0  0
   10.6204  -25.1838   23.0208 O   0  0  0  0  0  0  0  0  0  0  0  0
   -1.8681  -21.2126   25.8891 N   0  0  0  0  0  0  0  0  0  0  0  0
    0.0840  -21.3942   24.5028 N   0  0  0  0  0  0  0  0  0  0  0  0
   -0.4981  -20.9129   25.6255 C   0  0  0  0  0  0  0  0  0  0  0  0
    0.2010  -20.1360   26.5064 N   0  0  0  0  0  0  0  0  0  0  0  0
    1.5040  -19.8132   26.3054 C   0  0  0  0  0  0  0  0  0  0  0  0
    2.1533  -20.3092   25.1495 C   0  0  0  0  0  0  0  0  0  0  0  0
    2.1577  -19.0376   27.2339 O   0  0  0  0  0  0  0  0  0  0  0  0
    4.1618  -18.7463   25.0038 C   0  0  0  0  0  0  0  0  0  0  0  0
    3.5335  -20.0277   24.7899 N   0  0  0  0  0  0  0  0  0  0  0  0
    3.9781  -17.7784   24.2735 O   0  0  0  0  0  0  0  0  0  0  0  0
    4.1923  -21.0627   24.1143 C   0  0  2  0  0  0  0  0  0  0  0  0
    3.4089  -21.4222   22.8256 C   0  0  0  0  0  0  0  0  0  0  0  0
    1.3961  -21.1046   24.2326 C   0  0  0  0  0  0  0  0  0  0  0  0
    2.0330  -21.6393   23.0258 N   0  0  0  0  0  0  0  0  0  0  0  0
    4.3367  -22.2813   25.0034 C   0  0  0  0  0  0  0  0  0  0  0  0
    5.5507  -22.3973   25.7631 N   0  0  0  0  0  0  0  0  0  0  0  0
    9.0834  -23.5774   23.8128 C   0  0  0  0  0  0  0  0  0  0  0  0
    9.1582  -22.9979   25.0720 C   0  0  0  0  0  0  0  0  0  0  0  0
    7.9900  -22.6141   25.7194 C   0  0  0  0  0  0  0  0  0  0  0  0
    6.7537  -22.7978   25.1035 C   0  0  0  0  0  0  0  0  0  0  0  0
    6.6849  -23.3662   23.8435 C   0  0  0  0  0  0  0  0  0  0  0  0
    7.8521  -23.7603   23.2004 C   0  0  0  0  0  0  0  0  0  0  0  0
  1  2  1  0  0  0  0
  2  3  2  0  0  0  0
  2 20  1  0  0  0  0
  4  6  1  0  0  0  0
  5  6  2  0  0  0  0
  5 16  1  0  0  0  0
  6  7  1  0  0  0  0
  7  8  1  0  0  0  0
  8  9  1  0  0  0  0
  8 10  2  0  0  0  0
  9 12  1  0  0  0  0
  9 16  2  0  0  0  0
 11 13  1  0  0  0  0
 11 12  1  0  0  0  0
 12 14  1  0  0  0  0
 14 15  1  0  0  0  0
 14 18  1  1  0  0  0
 15 17  1  0  0  0  0
 16 17  1  0  0  0  0
 18 19  1  0  0  0  0
 19 23  1  0  0  0  0
 20 21  2  0  0  0  0
 20 25  1  0  0  0  0
 21 22  1  0  0  0  0
 22 23  2  0  0  0  0
 23 24  1  0  0  0  0
 24 25  2  0  0  0  0
M  END
>  <CHROM.1>
-78.26293077,-92.74742152,-75.94422503,164.57582818,-75.05924536,4.58704783
-21.56275617,24.62773150,-0.41472735,0.04709006,0.39260128

>  <Name>
ligand

>  <RI>
0

>  <Rbt.Current_Directory>
/home/itssahil/PROJECTS/Mol_Feturizer/New_Systems/rnas/4LVV

>  <Rbt.Executable>
rbdock ($Id: //depot/dev/client3/rdock/2013.1/src/exe/rbdock.cxx#4 $)

>  <Rbt.Library>
libRbt.so (2013.1, Build901 2013/11/27)

>  <Rbt.Parameter_File>
/export/apps/rDock/src/rDock_2013.1_src/data/scripts/dock_solv.prm

>  <Rbt.Receptor>
prm/pocket_docking_4.prm

>  <SCORE>
-10.5274

>  <SCORE.INTER>
-10.9777

>  <SCORE.INTER.CONST>
1

>  <SCORE.INTER.POLAR>
0

>  <SCORE.INTER.ROT>
5

>  <SCORE.INTER.SOLV>
26.8659

>  <SCORE.INTER.VDW>
-23.2071

>  <SCORE.INTER.norm>
-0.439108

>  <SCORE.INTRA>
0.450345

>  <SCORE.INTRA.DIHEDRAL>
2.3433

>  <SCORE.INTRA.DIHEDRAL.0>
3.94806

>  <SCORE.INTRA.POLAR>
0

>  <SCORE.INTRA.POLAR.0>
0

>  <SCORE.INTRA.REPUL>
0

>  <SCORE.INTRA.REPUL.0>
0

>  <SCORE.INTRA.SOLV>
-0.528843

>  <SCORE.INTRA.SOLV.lig_0>
-70.9803

>  <SCORE.INTRA.VDW>
-0.456885

>  <SCORE.INTRA.VDW.0>
-0.709409

>  <SCORE.INTRA.norm>
0.0180138

>  <SCORE.RESTR>
0

>  <SCORE.RESTR.CAVITY>
0

>  <SCORE.RESTR.norm>
0

>  <SCORE.SYSTEM>
0

>  <SCORE.SYSTEM.CONST>
0

>  <SCORE.SYSTEM.DIHEDRAL>
0

>  <SCORE.SYSTEM.SOLV>
0

>  <SCORE.SYSTEM.norm>
0

>  <SCORE.heavy>
25

>  <SCORE.norm>
-0.421094

>  <RMSD>
1.161

$$$$
ligand
 OpenBabel11021811503D
libRbt.so/2013.1/901 2013/11/27
 25 27  0  0  0  0  0  0  0  0999 V2000
   11.2926  -22.4878   24.7283 N   0  0  0  0  0  0  0  0  0  0  0  0
   10.6118  -22.3032   25.9725 C   0  0  0  0  0  0  0  0  0  0  0  0
   11.2378  -22.0855   27.0025 O   0  0  0  0  0  0  0  0  0  0  0  0
   -1.8488  -21.1078   25.8522 N   0  0  0  0  0  0  0  0  0  0  0  0
    0.0600  -21.2597   24.4035 N   0  0  0  0  0  0  0  0  0  0  0  0
   -0.4639  -20.8823   25.5926 C   0  0  0  0  0  0  0  0  0  0  0  0
    0.3086  -20.2793   26.5455 N   0  0  0  0  0  0  0  0  0  0  0  0
    1.6295  -20.0337   26.3525 C   0  0  0  0  0  0  0  0  0  0  0  0
    2.2187  -20.4266   25.1269 C   0  0  0  0  0  0  0  0  0  0  0  0
    2.3574  -19.4346   27.3537 O   0  0  0  0  0  0  0  0  0  0  0  0
    4.3416  -19.0154   25.1262 C   0  0  0  0  0  0  0  0  0  0  0  0
    3.6107  -20.2076   24.7695 N   0  0  0  0  0  0  0  0  0  0  0  0
    3.8030  -17.9311   25.3211 O   0  0  0  0  0  0  0  0  0  0  0  0
    4.1748  -21.1954   23.9522 C   0  0  2  0  0  0  0  0  0  0  0  0
    3.3445  -21.3272   22.6496 C   0  0  0  0  0  0  0  0  0  0  0  0
    1.3863  -21.0389   24.1375 C   0  0  0  0  0  0  0  0  0  0  0  0
    1.9592  -21.4626   22.8569 N   0  0  0  0  0  0  0  0  0  0  0  0
    4.2371  -22.5246   24.6772 C   0  0  0  0  0  0  0  0  0  0  0  0
    4.9238  -22.5507   25.9389 N   0  0  0  0  0  0  0  0  0  0  0  0
    9.1236  -22.3635   25.9908 C   0  0  0  0  0  0  0  0  0  0  0  0
    8.4064  -21.9400   27.1013 C   0  0  0  0  0  0  0  0  0  0  0  0
    7.0186  -22.0083   27.0866 C   0  0  0  0  0  0  0  0  0  0  0  0
    6.3514  -22.4862   25.9605 C   0  0  0  0  0  0  0  0  0  0  0  0
    7.0704  -22.8972   24.8516 C   0  0  0  0  0  0  0  0  0  0  0  0
    8.4587  -22.8394   24.8701 C   0  0  0  0  0  0  0  0  0  0  0  0
  1  2  1  0  0  0  0
  2  3  2  0  0  0  0
  2 20  1  0  0  0  0
  4  6  1  0  0  0  0
  5  6  2  0  0  0  0
  5 16  1  0  0  0  0
  6  7  1  0  0  0  0
  7  8  1  0  0  0  0
  8  9  1  0  0  0  0
  8 10  2  0  0  0  0
  9 12  1  0  0  0  0
  9 16  2  0  0  0  0
 11 13  1  0  0  0  0
 11 12  1  0  0  0  0
 12 14  1  0  0  0  0
 14 15  1  0  0  0  0
 14 18  1  1  0  0  0
 15 17  1  0  0  0  0
 16 17  1  0  0  0  0
 18 19  1  0  0  0  0
 19 23  1  0  0  0  0
 20 21  2  0  0  0  0
 20 25  1  0  0  0  0
 21 22  1  0  0  0  0
 22 23  2  0  0  0  0
 23 24  1  0  0  0  0
 24 25  2  0  0  0  0
M  END
>  <CHROM.1>
-26.41678057,-55.64330211,-73.95567046,155.54516357,-167.42192530,4.58131217
-21.22688950,25.37026203,0.04280072,0.20764966,-2.15382449

>  <Name>
ligand

>  <RI>
0

>  <Rbt.Current_Directory>
/home/itssahil/PROJECTS/Mol_Feturizer/New_Systems/rnas/4LVV

>  <Rbt.Executable>
rbdock ($Id: //depot/dev/client3/rdock/2013.1/src/exe/rbdock.cxx#4 $)

>  <Rbt.Library>
libRbt.so (2013.1, Build901 2013/11/27)

>  <Rbt.Parameter_File>
/export/apps/rDock/src/rDock_2013.1_src/data/scripts/dock_solv.prm

>  <Rbt.Receptor>
prm/pocket_docking_2.prm

>  <SCORE>
-8.46868

>  <SCORE.INTER>
-8.05176

>  <SCORE.INTER.CONST>
1

>  <SCORE.INTER.POLAR>
0

>  <SCORE.INTER.ROT>
5

>  <SCORE.INTER.SOLV>
26.6519

>  <SCORE.INTER.VDW>
-21.1851

>  <SCORE.INTER.norm>
-0.32207

>  <SCORE.INTRA>
-0.556485

>  <SCORE.INTRA.DIHEDRAL>
-0.28268

>  <SCORE.INTRA.DIHEDRAL.0>
3.94806

>  <SCORE.INTRA.POLAR>
0

>  <SCORE.INTRA.POLAR.0>
0

>  <SCORE.INTRA.REPUL>
0

>  <SCORE.INTRA.REPUL.0>
0

>  <SCORE.INTRA.SOLV>
0.246294

>  <SCORE.INTRA.SOLV.lig_0>
-70.9803

>  <SCORE.INTRA.VDW>
-0.538292

>  <SCORE.INTRA.VDW.0>
-0.709409

>  <SCORE.INTRA.norm>
-0.0222594

>  <SCORE.RESTR>
0.139568

>  <SCORE.RESTR.CAVITY>
0.139568

>  <SCORE.RESTR.norm>
0.00558271

>  <SCORE.SYSTEM>
0

>  <SCORE.SYSTEM.CONST>
0

>  <SCORE.SYSTEM.DIHEDRAL>
0

>  <SCORE.SYSTEM.SOLV>
0

>  <SCORE.SYSTEM.norm>
0

>  <SCORE.heavy>
25

>  <SCORE.norm>
-0.338747

>  <RMSD>
1.167

$$$$
ligand
 OpenBabel11021811503D
libRbt.so/2013.1/901 2013/11/27
 25 27  0  0  0  0  0  0  0  0999 V2000
   11.3961  -23.6272   23.8205 N   0  0  0  0  0  0  0  0  0  0  0  0
   10.3297  -23.2374   22.9509 C   0  0  0  0  0  0  0  0  0  0  0  0
   10.5551  -22.9039   21.7941 O   0  0  0  0  0  0  0  0  0  0  0  0
   -1.9176  -21.3092   25.9072 N   0  0  0  0  0  0  0  0  0  0  0  0
    0.0965  -21.4977   24.6136 N   0  0  0  0  0  0  0  0  0  0  0  0
   -0.5530  -20.9636   25.6738 C   0  0  0  0  0  0  0  0  0  0  0  0
    0.0729  -20.0907   26.5191 N   0  0  0  0  0  0  0  0  0  0  0  0
    1.3670  -19.7207   26.3437 C   0  0  0  0  0  0  0  0  0  0  0  0
    2.0855  -20.2687   25.2541 C   0  0  0  0  0  0  0  0  0  0  0  0
    1.9457  -18.8478   27.2349 O   0  0  0  0  0  0  0  0  0  0  0  0
    4.0250  -18.6251   25.0666 C   0  0  0  0  0  0  0  0  0  0  0  0
    3.4652  -19.9478   24.9267 N   0  0  0  0  0  0  0  0  0  0  0  0
    5.1269  -18.4115   25.5606 O   0  0  0  0  0  0  0  0  0  0  0  0
    4.1979  -20.9967   24.3569 C   0  0  2  0  0  0  0  0  0  0  0  0
    3.4857  -21.4880   23.0705 C   0  0  0  0  0  0  0  0  0  0  0  0
    1.4040  -21.1655   24.3721 C   0  0  0  0  0  0  0  0  0  0  0  0
    2.1140  -21.7563   23.2343 N   0  0  0  0  0  0  0  0  0  0  0  0
    4.3608  -22.1377   25.3406 C   0  0  0  0  0  0  0  0  0  0  0  0
    4.9627  -23.3458   24.8483 N   0  0  0  0  0  0  0  0  0  0  0  0
    8.9348  -23.2605   23.4727 C   0  0  0  0  0  0  0  0  0  0  0  0
    8.6418  -22.7920   24.7460 C   0  0  0  0  0  0  0  0  0  0  0  0
    7.3300  -22.8265   25.2031 C   0  0  0  0  0  0  0  0  0  0  0  0
    6.3142  -23.3159   24.3843 C   0  0  0  0  0  0  0  0  0  0  0  0
    6.6096  -23.7721   23.1115 C   0  0  0  0  0  0  0  0  0  0  0  0
    7.9230  -23.7480   22.6581 C   0  0  0  0  0  0  0  0  0  0  0  0
  1  2  1  0  0  0  0
  2  3  2  0  0  0  0
  2 20  1  0  0  0  0
  4  6  1  0  0  0  0
  5  6  2  0  0  0  0
  5 16  1  0  0  0  0
  6  7  1  0  0  0  0
  7  8  1  0  0  0  0
  8  9  1  0  0  0  0
  8 10  2  0  0  0  0
  9 12  1  0  0  0  0
  9 16  2  0  0  0  0
 11 13  1  0  0  0  0
 11 12  1  0  0  0  0
 12 14  1  0  0  0  0
 14 15  1  0  0  0  0
 14 18  1  1  0  0  0
 15 17  1  0  0  0  0
 16 17  1  0  0  0  0
 18 19  1  0  0  0  0
 19 23  1  0  0  0  0
 20 21  2  0  0  0  0
 20 25  1  0  0  0  0
 21 22  1  0  0  0  0
 22 23  2  0  0  0  0
 23 24  1  0  0  0  0
 24 25  2  0  0  0  0
M  END
>  <CHROM.1>
135.63074976,173.25056074,63.35170932,54.27573285,42.38943116,4.53482127
-21.53153052,24.59745894,-0.39521211,0.07083985,0.51303443

>  <Name>
ligand

>  <RI>
0

>  <Rbt.Current_Directory>
/home/itssahil/PROJECTS/Mol_Feturizer/New_Systems/rnas/4LVV

>  <Rbt.Executable>
rbdock ($Id: //depot/dev/client3/rdock/2013.1/src/exe/rbdock.cxx#4 $)

>  <Rbt.Library>
libRbt.so (2013.1, Build901 2013/11/27)

>  <Rbt.Parameter_File>
/export/apps/rDock/src/rDock_2013.1_src/data/scripts/dock_solv.prm

>  <Rbt.Receptor>
prm/pocket_docking_3.prm

>  <SCORE>
-12.983

>  <SCORE.INTER>
-11.8562

>  <SCORE.INTER.CONST>
1

>  <SCORE.INTER.POLAR>
0

>  <SCORE.INTER.ROT>
5

>  <SCORE.INTER.SOLV>
28.88

>  <SCORE.INTER.VDW>
-24.4642

>  <SCORE.INTER.norm>
-0.47425

>  <SCORE.INTRA>
-1.12671

>  <SCORE.INTRA.DIHEDRAL>
-0.647073

>  <SCORE.INTRA.DIHEDRAL.0>
3.94806

>  <SCORE.INTRA.POLAR>
0

>  <SCORE.INTRA.POLAR.0>
0

>  <SCORE.INTRA.REPUL>
0

>  <SCORE.INTRA.REPUL.0>
0

>  <SCORE.INTRA.SOLV>
0.000145159

>  <SCORE.INTRA.SOLV.lig_0>
-70.9803

>  <SCORE.INTRA.VDW>
-0.803247

>  <SCORE.INTRA.VDW.0>
-0.709409

>  <SCORE.INTRA.norm>
-0.0450684

>  <SCORE.RESTR>
0

>  <SCORE.RESTR.CAVITY>
0

>  <SCORE.RESTR.norm>
0

>  <SCORE.SYSTEM>
0

>  <SCORE.SYSTEM.CONST>
0

>  <SCORE.SYSTEM.DIHEDRAL>
0

>  <SCORE.SYSTEM.SOLV>
0

>  <SCORE.SYSTEM.norm>
0

>  <SCORE.heavy>
25

>  <SCORE.norm>
-0.519318

>  <RMSD>
1.201

$$$$
ligand
 OpenBabel11021811503D
libRbt.so/2013.1/901 2013/11/27
 25 27  0  0  0  0  0  0  0  0999 V2000
   10.8902  -22.4402   22.3382 N   0  0  0  0  0  0  0  0  0  0  0  0
   10.4925  -22.9947   23.5951 C   0  0  0  0  0  0  0  0  0  0  0  0
   11.3292  -23.3765   24.4039 O   0  0  0  0  0  0  0  0  0  0  0  0
   -1.9883  -21.2324   25.8701 N   0  0  0  0  0  0  0  0  0  0  0  0
    0.0417  -21.4300   24.6030 N   0  0  0  0  0  0  0  0  0  0  0  0
   -0.6151  -20.9043   25.6628 C   0  0  0  0  0  0  0  0  0  0  0  0
    0.0115  -20.0562   26.5325 N   0  0  0  0  0  0  0  0  0  0  0  0
    1.3136  -19.7036   26.3825 C   0  0  0  0  0  0  0  0  0  0  0  0
    2.0397  -20.2437   25.2941 C   0  0  0  0  0  0  0  0  0  0  0  0
    1.8924  -18.8555   27.2973 O   0  0  0  0  0  0  0  0  0  0  0  0
    4.0070  -18.6277   25.1640 C   0  0  0  0  0  0  0  0  0  0  0  0
    3.4289  -19.9389   24.9926 N   0  0  0  0  0  0  0  0  0  0  0  0
    3.8110  -17.7008   24.3853 O   0  0  0  0  0  0  0  0  0  0  0  0
    4.1537  -20.9890   24.4151 C   0  0  2  0  0  0  0  0  0  0  0  0
    3.4533  -21.4467   23.1099 C   0  0  0  0  0  0  0  0  0  0  0  0
    1.3577  -21.1142   24.3865 C   0  0  0  0  0  0  0  0  0  0  0  0
    2.0753  -21.6962   23.2489 N   0  0  0  0  0  0  0  0  0  0  0  0
    4.2844  -22.1495   25.3808 C   0  0  0  0  0  0  0  0  0  0  0  0
    4.9616  -23.3240   24.9054 N   0  0  0  0  0  0  0  0  0  0  0  0
    9.0396  -23.0841   23.9112 C   0  0  0  0  0  0  0  0  0  0  0  0
    8.1293  -23.5281   22.9620 C   0  0  0  0  0  0  0  0  0  0  0  0
    6.7805  -23.6008   23.2886 C   0  0  0  0  0  0  0  0  0  0  0  0
    6.3470  -23.2431   24.5636 C   0  0  0  0  0  0  0  0  0  0  0  0
    7.2598  -22.8112   25.5100 C   0  0  0  0  0  0  0  0  0  0  0  0
    8.6072  -22.7278   25.1804 C   0  0  0  0  0  0  0  0  0  0  0  0
  1  2  1  0  0  0  0
  2  3  2  0  0  0  0
  2 20  1  0  0  0  0
  4  6  1  0  0  0  0
  5  6  2  0  0  0  0
  5 16  1  0  0  0  0
  6  7  1  0  0  0  0
  7  8  1  0  0  0  0
  8  9  1  0  0  0  0
  8 10  2  0  0  0  0
  9 12  1  0  0  0  0
  9 16  2  0  0  0  0
 11 13  1  0  0  0  0
 11 12  1  0  0  0  0
 12 14  1  0  0  0  0
 14 15  1  0  0  0  0
 14 18  1  1  0  0  0
 15 17  1  0  0  0  0
 16 17  1  0  0  0  0
 18 19  1  0  0  0  0
 19 23  1  0  0  0  0
 20 21  2  0  0  0  0
 20 25  1  0  0  0  0
 21 22  1  0  0  0  0
 22 23  2  0  0  0  0
 23 24  1  0  0  0  0
 24 25  2  0  0  0  0
M  END
>  <CHROM.1>
-76.54875680,177.63115404,64.39127596,-123.17845453,43.92865499,4.48002373
-21.41760133,24.71357569,-0.34476962,0.09106448,0.31434466

>  <Name>
ligand

>  <RI>
0

>  <Rbt.Current_Directory>
/home/itssahil/PROJECTS/Mol_Feturizer/New_Systems/rnas/4LVV

>  <Rbt.Executable>
rbdock ($Id: //depot/dev/client3/rdock/2013.1/src/exe/rbdock.cxx#4 $)

>  <Rbt.Library>
libRbt.so (2013.1, Build901 2013/11/27)

>  <Rbt.Parameter_File>
/export/apps/rDock/src/rDock_2013.1_src/data/scripts/dock_solv.prm

>  <Rbt.Receptor>
prm/pocket_docking_2.prm

>  <SCORE>
-12.9682

>  <SCORE.INTER>
-11.5121

>  <SCORE.INTER.CONST>
1

>  <SCORE.INTER.POLAR>
0

>  <SCORE.INTER.ROT>
5

>  <SCORE.INTER.SOLV>
29.7696

>  <SCORE.INTER.VDW>
-24.5313

>  <SCORE.INTER.norm>
-0.460483

>  <SCORE.INTRA>
-1.4569

>  <SCORE.INTRA.DIHEDRAL>
-0.816145

>  <SCORE.INTRA.DIHEDRAL.0>
3.94806

>  <SCORE.INTRA.POLAR>
0

>  <SCORE.INTRA.POLAR.0>
0

>  <SCORE.INTRA.REPUL>
0

>  <SCORE.INTRA.REPUL.0>
0

>  <SCORE.INTRA.SOLV>
-0.155155

>  <SCORE.INTRA.SOLV.lig_0>
-70.9803

>  <SCORE.INTRA.VDW>
-0.971255

>  <SCORE.INTRA.VDW.0>
-0.709409

>  <SCORE.INTRA.norm>
-0.0582762

>  <SCORE.RESTR>
0.000828313

>  <SCORE.RESTR.CAVITY>
0.000828313

>  <SCORE.RESTR.norm>
3.31325e-05

>  <SCORE.SYSTEM>
0

>  <SCORE.SYSTEM.CONST>
0

>  <SCORE.SYSTEM.DIHEDRAL>
0

>  <SCORE.SYSTEM.SOLV>
0

>  <SCORE.SYSTEM.norm>
0

>  <SCORE.heavy>
25

>  <SCORE.norm>
-0.518726

>  <RMSD>
1.206

$$$$
ligand
 OpenBabel11021811503D
libRbt.so/2013.1/901 2013/11/27
 25 27  0  0  0  0  0  0  0  0999 V2000
   10.9803  -22.4640   22.3281 N   0  0  0  0  0  0  0  0  0  0  0  0
   10.5494  -22.9783   23.5911 C   0  0  0  0  0  0  0  0  0  0  0  0
   11.3644  -23.3153   24.4410 O   0  0  0  0  0  0  0  0  0  0  0  0
   -1.9553  -21.1946   25.8172 N   0  0  0  0  0  0  0  0  0  0  0  0
    0.0625  -21.3765   24.5284 N   0  0  0  0  0  0  0  0  0  0  0  0
   -0.5774  -20.8841   25.6142 C   0  0  0  0  0  0  0  0  0  0  0  0
    0.0710  -20.0859   26.5148 N   0  0  0  0  0  0  0  0  0  0  0  0
    1.3788  -19.7521   26.3707 C   0  0  0  0  0  0  0  0  0  0  0  0
    2.0874  -20.2591   25.2551 C   0  0  0  0  0  0  0  0  0  0  0  0
    1.9795  -18.9551   27.3166 O   0  0  0  0  0  0  0  0  0  0  0  0
    4.0847  -18.6768   25.1799 C   0  0  0  0  0  0  0  0  0  0  0  0
    3.4803  -19.9683   24.9570 N   0  0  0  0  0  0  0  0  0  0  0  0
    3.6874  -17.6483   24.6432 O   0  0  0  0  0  0  0  0  0  0  0  0
    4.1810  -21.0065   24.3302 C   0  0  2  0  0  0  0  0  0  0  0  0
    3.4636  -21.3945   23.0118 C   0  0  0  0  0  0  0  0  0  0  0  0
    1.3829  -21.0769   24.3162 C   0  0  0  0  0  0  0  0  0  0  0  0
    2.0820  -21.6234   23.1499 N   0  0  0  0  0  0  0  0  0  0  0  0
    4.2952  -22.2093   25.2448 C   0  0  0  0  0  0  0  0  0  0  0  0
    4.9840  -23.3603   24.7299 N   0  0  0  0  0  0  0  0  0  0  0  0
    9.0883  -23.0811   23.8622 C   0  0  0  0  0  0  0  0  0  0  0  0
    8.2094  -23.5152   22.8793 C   0  0  0  0  0  0  0  0  0  0  0  0
    6.8521  -23.6009   23.1641 C   0  0  0  0  0  0  0  0  0  0  0  0
    6.3784  -23.2660   24.4311 C   0  0  0  0  0  0  0  0  0  0  0  0
    7.2598  -22.8439   25.4111 C   0  0  0  0  0  0  0  0  0  0  0  0
    8.6160  -22.7475   25.1232 C   0  0  0  0  0  0  0  0  0  0  0  0
  1  2  1  0  0  0  0
  2  3  2  0  0  0  0
  2 20  1  0  0  0  0
  4  6  1  0  0  0  0
  5  6  2  0  0  0  0
  5 16  1  0  0  0  0
  6  7  1  0  0  0  0
  7  8  1  0  0  0  0
  8  9  1  0  0  0  0
  8 10  2  0  0  0  0
  9 12  1  0  0  0  0
  9 16  2  0  0  0  0
 11 13  1  0  0  0  0
 11 12  1  0  0  0  0
 12 14  1  0  0  0  0
 14 15  1  0  0  0  0
 14 18  1  1  0  0  0
 15 17  1  0  0  0  0
 16 17  1  0  0  0  0
 18 19  1  0  0  0  0
 19 23  1  0  0  0  0
 20 21  2  0  0  0  0
 20 25  1  0  0  0  0
 21 22  1  0  0  0  0
 22 23  2  0  0  0  0
 23 24  1  0  0  0  0
 24 25  2  0  0  0  0
M  END
>  <CHROM.1>
-59.69447973,179.55301608,64.97630605,-125.20507189,40.81728515,4.51418496
-21.41990228,24.67071054,-0.35137049,0.06399880,0.38965171

>  <Name>
ligand

>  <RI>
0

>  <Rbt.Current_Directory>
/home/itssahil/PROJECTS/Mol_Feturizer/New_Systems/rnas/4LVV

>  <Rbt.Executable>
rbdock ($Id: //depot/dev/client3/rdock/2013.1/src/exe/rbdock.cxx#4 $)

>  <Rbt.Library>
libRbt.so (2013.1, Build901 2013/11/27)

>  <Rbt.Parameter_File>
/export/apps/rDock/src/rDock_2013.1_src/data/scripts/dock_solv.prm

>  <Rbt.Receptor>
prm/pocket_docking_2.prm

>  <SCORE>
-12.6815

>  <SCORE.INTER>
-11.304

>  <SCORE.INTER.CONST>
1

>  <SCORE.INTER.POLAR>
0

>  <SCORE.INTER.ROT>
5

>  <SCORE.INTER.SOLV>
29.8482

>  <SCORE.INTER.VDW>
-24.4187

>  <SCORE.INTER.norm>
-0.452161

>  <SCORE.INTRA>
-1.37844

>  <SCORE.INTRA.DIHEDRAL>
-0.713657

>  <SCORE.INTRA.DIHEDRAL.0>
3.94806

>  <SCORE.INTRA.POLAR>
0

>  <SCORE.INTRA.POLAR.0>
0

>  <SCORE.INTRA.REPUL>
0

>  <SCORE.INTRA.REPUL.0>
0

>  <SCORE.INTRA.SOLV>
-0.130031

>  <SCORE.INTRA.SOLV.lig_0>
-70.9803

>  <SCORE.INTRA.VDW>
-0.956595

>  <SCORE.INTRA.VDW.0>
-0.709409

>  <SCORE.INTRA.norm>
-0.0551376

>  <SCORE.RESTR>
0.000943996

>  <SCORE.RESTR.CAVITY>
0.000943996

>  <SCORE.RESTR.norm>
3.77599e-05

>  <SCORE.SYSTEM>
0

>  <SCORE.SYSTEM.CONST>
0

>  <SCORE.SYSTEM.DIHEDRAL>
0

>  <SCORE.SYSTEM.SOLV>
0

>  <SCORE.SYSTEM.norm>
0

>  <SCORE.heavy>
25

>  <SCORE.norm>
-0.50726

>  <RMSD>
1.210

$$$$
ligand
 OpenBabel11021811503D
libRbt.so/2013.1/901 2013/11/27
 25 27  0  0  0  0  0  0  0  0999 V2000
   10.8594  -22.5236   22.1936 N   0  0  0  0  0  0  0  0  0  0  0  0
   10.4791  -22.9916   23.4904 C   0  0  0  0  0  0  0  0  0  0  0  0
   11.3272  -23.2998   24.3185 O   0  0  0  0  0  0  0  0  0  0  0  0
   -1.9813  -21.2489   25.8618 N   0  0  0  0  0  0  0  0  0  0  0  0
    0.0448  -21.4371   24.5872 N   0  0  0  0  0  0  0  0  0  0  0  0
   -0.6097  -20.9167   25.6510 C   0  0  0  0  0  0  0  0  0  0  0  0
    0.0177  -20.0699   26.5214 N   0  0  0  0  0  0  0  0  0  0  0  0
    1.3185  -19.7136   26.3683 C   0  0  0  0  0  0  0  0  0  0  0  0
    2.0422  -20.2482   25.2755 C   0  0  0  0  0  0  0  0  0  0  0  0
    1.8982  -18.8672   27.2840 O   0  0  0  0  0  0  0  0  0  0  0  0
    4.0050  -18.6269   25.1442 C   0  0  0  0  0  0  0  0  0  0  0  0
    3.4296  -19.9390   24.9704 N   0  0  0  0  0  0  0  0  0  0  0  0
    3.8453  -17.7125   24.3429 O   0  0  0  0  0  0  0  0  0  0  0  0
    4.1551  -20.9854   24.3869 C   0  0  2  0  0  0  0  0  0  0  0  0
    3.4513  -21.4403   23.0825 C   0  0  0  0  0  0  0  0  0  0  0  0
    1.3592  -21.1173   24.3673 C   0  0  0  0  0  0  0  0  0  0  0  0
    2.0744  -21.6936   23.2253 N   0  0  0  0  0  0  0  0  0  0  0  0
    4.2918  -22.1487   25.3482 C   0  0  0  0  0  0  0  0  0  0  0  0
    4.9637  -23.3227   24.8640 N   0  0  0  0  0  0  0  0  0  0  0  0
    9.0300  -23.0816   23.8231 C   0  0  0  0  0  0  0  0  0  0  0  0
    8.1091  -23.5267   22.8848 C   0  0  0  0  0  0  0  0  0  0  0  0
    6.7642  -23.5999   23.2267 C   0  0  0  0  0  0  0  0  0  0  0  0
    6.3450  -23.2414   24.5064 C   0  0  0  0  0  0  0  0  0  0  0  0
    7.2683  -22.8084   25.4420 C   0  0  0  0  0  0  0  0  0  0  0  0
    8.6119  -22.7245   25.0969 C   0  0  0  0  0  0  0  0  0  0  0  0
  1  2  1  0  0  0  0
  2  3  2  0  0  0  0
  2 20  1  0  0  0  0
  4  6  1  0  0  0  0
  5  6  2  0  0  0  0
  5 16  1  0  0  0  0
  6  7  1  0  0  0  0
  7  8  1  0  0  0  0
  8  9  1  0  0  0  0
  8 10  2  0  0  0  0
  9 12  1  0  0  0  0
  9 16  2  0  0  0  0
 11 13  1  0  0  0  0
 11 12  1  0  0  0  0
 12 14  1  0  0  0  0
 14 15  1  0  0  0  0
 14 18  1  1  0  0  0
 15 17  1  0  0  0  0
 16 17  1  0  0  0  0
 18 19  1  0  0  0  0
 19 23  1  0  0  0  0
 20 21  2  0  0  0  0
 20 25  1  0  0  0  0
 21 22  1  0  0  0  0
 22 23  2  0  0  0  0
 23 24  1  0  0  0  0
 24 25  2  0  0  0  0
M  END
>  <CHROM.1>
-79.39852194,177.28885419,64.14390122,-123.27472526,39.69176856,4.48031020
-21.42000810,24.66933710,-0.34723630,0.09650703,0.32581032

>  <Name>
ligand

>  <RI>
0

>  <Rbt.Current_Directory>
/home/itssahil/PROJECTS/Mol_Feturizer/New_Systems/rnas/4LVV

>  <Rbt.Executable>
rbdock ($Id: //depot/dev/client3/rdock/2013.1/src/exe/rbdock.cxx#4 $)

>  <Rbt.Library>
libRbt.so (2013.1, Build901 2013/11/27)

>  <Rbt.Parameter_File>
/export/apps/rDock/src/rDock_2013.1_src/data/scripts/dock_solv.prm

>  <Rbt.Receptor>
prm/pocket_docking_2.prm

>  <SCORE>
-12.975

>  <SCORE.INTER>
-11.5481

>  <SCORE.INTER.CONST>
1

>  <SCORE.INTER.POLAR>
0

>  <SCORE.INTER.ROT>
5

>  <SCORE.INTER.SOLV>
29.6712

>  <SCORE.INTER.VDW>
-24.5224

>  <SCORE.INTER.norm>
-0.461922

>  <SCORE.INTRA>
-1.42691

>  <SCORE.INTRA.DIHEDRAL>
-0.826702

>  <SCORE.INTRA.DIHEDRAL.0>
3.94806

>  <SCORE.INTRA.POLAR>
0

>  <SCORE.INTRA.POLAR.0>
0

>  <SCORE.INTRA.REPUL>
0

>  <SCORE.INTRA.REPUL.0>
0

>  <SCORE.INTRA.SOLV>
-0.15604

>  <SCORE.INTRA.SOLV.lig_0>
-70.9803

>  <SCORE.INTRA.VDW>
-0.935535

>  <SCORE.INTRA.VDW.0>
-0.709409

>  <SCORE.INTRA.norm>
-0.0570762

>  <SCORE.RESTR>
0

>  <SCORE.RESTR.CAVITY>
0

>  <SCORE.RESTR.norm>
0

>  <SCORE.SYSTEM>
0

>  <SCORE.SYSTEM.CONST>
0

>  <SCORE.SYSTEM.DIHEDRAL>
0

>  <SCORE.SYSTEM.SOLV>
0

>  <SCORE.SYSTEM.norm>
0

>  <SCORE.heavy>
25

>  <SCORE.norm>
-0.518998

>  <RMSD>
1.232

$$$$
ligand
 OpenBabel11021811503D
libRbt.so/2013.1/901 2013/11/27
 25 27  0  0  0  0  0  0  0  0999 V2000
   10.9920  -24.0245   22.4601 N   0  0  0  0  0  0  0  0  0  0  0  0
   10.4966  -23.0615   23.3943 C   0  0  0  0  0  0  0  0  0  0  0  0
   11.2305  -22.1901   23.8439 O   0  0  0  0  0  0  0  0  0  0  0  0
   -1.9436  -21.3090   25.8897 N   0  0  0  0  0  0  0  0  0  0  0  0
    0.0716  -21.4891   24.5967 N   0  0  0  0  0  0  0  0  0  0  0  0
   -0.5783  -20.9632   25.6607 C   0  0  0  0  0  0  0  0  0  0  0  0
    0.0478  -20.0982   26.5141 N   0  0  0  0  0  0  0  0  0  0  0  0
    1.3426  -19.7285   26.3431 C   0  0  0  0  0  0  0  0  0  0  0  0
    2.0615  -20.2681   25.2498 C   0  0  0  0  0  0  0  0  0  0  0  0
    1.9214  -18.8638   27.2423 O   0  0  0  0  0  0  0  0  0  0  0  0
    4.0034  -18.6255   25.0782 C   0  0  0  0  0  0  0  0  0  0  0  0
    3.4419  -19.9463   24.9265 N   0  0  0  0  0  0  0  0  0  0  0  0
    3.7930  -17.7120   24.2876 O   0  0  0  0  0  0  0  0  0  0  0  0
    4.1740  -20.9913   24.3487 C   0  0  2  0  0  0  0  0  0  0  0  0
    3.4625  -21.4708   23.0574 C   0  0  0  0  0  0  0  0  0  0  0  0
    1.3799  -21.1566   24.3594 C   0  0  0  0  0  0  0  0  0  0  0  0
    2.0903  -21.7387   23.2175 N   0  0  0  0  0  0  0  0  0  0  0  0
    4.3343  -22.1408   25.3229 C   0  0  0  0  0  0  0  0  0  0  0  0
    4.9957  -23.3212   24.8398 N   0  0  0  0  0  0  0  0  0  0  0  0
    9.0645  -23.1266   23.7989 C   0  0  0  0  0  0  0  0  0  0  0  0
    8.6690  -22.7725   25.0814 C   0  0  0  0  0  0  0  0  0  0  0  0
    7.3251  -22.8434   25.4274 C   0  0  0  0  0  0  0  0  0  0  0  0
    6.3798  -23.2544   24.4897 C   0  0  0  0  0  0  0  0  0  0  0  0
    6.7776  -23.5962   23.2090 C   0  0  0  0  0  0  0  0  0  0  0  0
    8.1229  -23.5361   22.8659 C   0  0  0  0  0  0  0  0  0  0  0  0
  1  2  1  0  0  0  0
  2  3  2  0  0  0  0
  2 20  1  0  0  0  0
  4  6  1  0  0  0  0
  5  6  2  0  0  0  0
  5 16  1  0  0  0  0
  6  7  1  0  0  0  0
  7  8  1  0  0  0  0
  8  9  1  0  0  0  0
  8 10  2  0  0  0  0
  9 12  1  0  0  0  0
  9 16  2  0  0  0  0
 11 13  1  0  0  0  0
 11 12  1  0  0  0  0
 12 14  1  0  0  0  0
 14 15  1  0  0  0  0
 14 18  1  1  0  0  0
 15 17  1  0  0  0  0
 16 17  1  0  0  0  0
 18 19  1  0  0  0  0
 19 23  1  0  0  0  0
 20 21  2  0  0  0  0
 20 25  1  0  0  0  0
 21 22  1  0  0  0  0
 22 23  2  0  0  0  0
 23 24  1  0  0  0  0
 24 25  2  0  0  0  0
M  END
>  <CHROM.1>
-77.21262894,176.28958207,66.16403199,57.49047479,146.45277527,4.50092258
-21.45093986,24.63566725,0.35683834,-0.09831891,-2.80325812

>  <Name>
ligand

>  <RI>
0

>  <Rbt.Current_Directory>
/home/itssahil/PROJECTS/Mol_Feturizer/New_Systems/rnas/4LVV

>  <Rbt.Executable>
rbdock ($Id: //depot/dev/client3/rdock/2013.1/src/exe/rbdock.cxx#4 $)

>  <Rbt.Library>
libRbt.so (2013.1, Build901 2013/11/27)

>  <Rbt.Parameter_File>
/export/apps/rDock/src/rDock_2013.1_src/data/scripts/dock_solv.prm

>  <Rbt.Receptor>
prm/pocket_docking_2.prm

>  <SCORE>
-12.9919

>  <SCORE.INTER>
-11.5839

>  <SCORE.INTER.CONST>
1

>  <SCORE.INTER.POLAR>
0

>  <SCORE.INTER.ROT>
5

>  <SCORE.INTER.SOLV>
29.4386

>  <SCORE.INTER.VDW>
-24.4688

>  <SCORE.INTER.norm>
-0.463355

>  <SCORE.INTRA>
-1.408

>  <SCORE.INTRA.DIHEDRAL>
-0.779921

>  <SCORE.INTRA.DIHEDRAL.0>
3.94806

>  <SCORE.INTRA.POLAR>
0

>  <SCORE.INTRA.POLAR.0>
0

>  <SCORE.INTRA.REPUL>
0

>  <SCORE.INTRA.REPUL.0>
0

>  <SCORE.INTRA.SOLV>
-0.127746

>  <SCORE.INTRA.SOLV.lig_0>
-70.9803

>  <SCORE.INTRA.VDW>
-0.954164

>  <SCORE.INTRA.VDW.0>
-0.709409

>  <SCORE.INTRA.norm>
-0.0563199

>  <SCORE.RESTR>
0

>  <SCORE.RESTR.CAVITY>
0

>  <SCORE.RESTR.norm>
0

>  <SCORE.SYSTEM>
0

>  <SCORE.SYSTEM.CONST>
0

>  <SCORE.SYSTEM.DIHEDRAL>
0

>  <SCORE.SYSTEM.SOLV>
0

>  <SCORE.SYSTEM.norm>
0

>  <SCORE.heavy>
25

>  <SCORE.norm>
-0.519675

>  <RMSD>
1.243

$$$$
ligand
 OpenBabel11021811503D
libRbt.so/2013.1/901 2013/11/27
 25 27  0  0  0  0  0  0  0  0999 V2000
   10.6247  -23.1652   21.7013 N   0  0  0  0  0  0  0  0  0  0  0  0
   10.2802  -23.9461   22.8489 C   0  0  0  0  0  0  0  0  0  0  0  0
   10.9854  -24.8824   23.2038 O   0  0  0  0  0  0  0  0  0  0  0  0
   -1.8455  -21.1300   25.8478 N   0  0  0  0  0  0  0  0  0  0  0  0
    0.1042  -21.3565   24.4648 N   0  0  0  0  0  0  0  0  0  0  0  0
   -0.4645  -20.8754   25.5944 C   0  0  0  0  0  0  0  0  0  0  0  0
    0.2588  -20.1409   26.4921 N   0  0  0  0  0  0  0  0  0  0  0  0
    1.5734  -19.8620   26.3014 C   0  0  0  0  0  0  0  0  0  0  0  0
    2.2088  -20.3596   25.1385 C   0  0  0  0  0  0  0  0  0  0  0  0
    2.2511  -19.1281   27.2464 O   0  0  0  0  0  0  0  0  0  0  0  0
    4.2733  -18.8682   25.0288 C   0  0  0  0  0  0  0  0  0  0  0  0
    3.5997  -20.1218   24.7887 N   0  0  0  0  0  0  0  0  0  0  0  0
    4.8383  -18.6012   26.0839 O   0  0  0  0  0  0  0  0  0  0  0  0
    4.2233  -21.1673   24.0960 C   0  0  2  0  0  0  0  0  0  0  0  0
    3.4324  -21.4740   22.7983 C   0  0  0  0  0  0  0  0  0  0  0  0
    1.4269  -21.1098   24.2043 C   0  0  0  0  0  0  0  0  0  0  0  0
    2.0488  -21.6446   22.9899 N   0  0  0  0  0  0  0  0  0  0  0  0
    4.3199  -22.4066   24.9626 C   0  0  0  0  0  0  0  0  0  0  0  0
    5.5391  -22.5977   25.6984 N   0  0  0  0  0  0  0  0  0  0  0  0
    9.0549  -23.5891   23.6170 C   0  0  0  0  0  0  0  0  0  0  0  0
    9.1453  -22.9905   24.8661 C   0  0  0  0  0  0  0  0  0  0  0  0
    7.9833  -22.6691   25.5569 C   0  0  0  0  0  0  0  0  0  0  0  0
    6.7364  -22.9339   24.9941 C   0  0  0  0  0  0  0  0  0  0  0  0
    6.6512  -23.5211   23.7437 C   0  0  0  0  0  0  0  0  0  0  0  0
    7.8131  -23.8528   23.0573 C   0  0  0  0  0  0  0  0  0  0  0  0
  1  2  1  0  0  0  0
  2  3  2  0  0  0  0
  2 20  1  0  0  0  0
  4  6  1  0  0  0  0
  5  6  2  0  0  0  0
  5 16  1  0  0  0  0
  6  7  1  0  0  0  0
  7  8  1  0  0  0  0
  8  9  1  0  0  0  0
  8 10  2  0  0  0  0
  9 12  1  0  0  0  0
  9 16  2  0  0  0  0
 11 13  1  0  0  0  0
 11 12  1  0  0  0  0
 12 14  1  0  0  0  0
 14 15  1  0  0  0  0
 14 18  1  1  0  0  0
 15 17  1  0  0  0  0
 16 17  1  0  0  0  0
 18 19  1  0  0  0  0
 19 23  1  0  0  0  0
 20 21  2  0  0  0  0
 20 25  1  0  0  0  0
 21 22  1  0  0  0  0
 22 23  2  0  0  0  0
 23 24  1  0  0  0  0
 24 25  2  0  0  0  0
M  END
>  <CHROM.1>
87.47883156,-94.23999807,-70.48758654,157.16875804,-107.30621769,4.64252286
-21.64011142,24.63550843,0.41994785,0.06905905,-2.41450535

>  <Name>
ligand

>  <RI>
0

>  <Rbt.Current_Directory>
/home/itssahil/PROJECTS/Mol_Feturizer/New_Systems/rnas/4LVV

>  <Rbt.Executable>
rbdock ($Id: //depot/dev/client3/rdock/2013.1/src/exe/rbdock.cxx#4 $)

>  <Rbt.Library>
libRbt.so (2013.1, Build901 2013/11/27)

>  <Rbt.Parameter_File>
/export/apps/rDock/src/rDock_2013.1_src/data/scripts/dock_solv.prm

>  <Rbt.Receptor>
prm/pocket_docking_3.prm

>  <SCORE>
-10.1478

>  <SCORE.INTER>
-10.7838

>  <SCORE.INTER.CONST>
1

>  <SCORE.INTER.POLAR>
0

>  <SCORE.INTER.ROT>
5

>  <SCORE.INTER.SOLV>
26.6381

>  <SCORE.INTER.VDW>
-23.0019

>  <SCORE.INTER.norm>
-0.43135

>  <SCORE.INTRA>
0.635996

>  <SCORE.INTRA.DIHEDRAL>
2.74799

>  <SCORE.INTRA.DIHEDRAL.0>
3.94806

>  <SCORE.INTRA.POLAR>
0

>  <SCORE.INTRA.POLAR.0>
0

>  <SCORE.INTRA.REPUL>
0

>  <SCORE.INTRA.REPUL.0>
0

>  <SCORE.INTRA.SOLV>
-0.173839

>  <SCORE.INTRA.SOLV.lig_0>
-70.9803

>  <SCORE.INTRA.VDW>
-0.651082

>  <SCORE.INTRA.VDW.0>
-0.709409

>  <SCORE.INTRA.norm>
0.0254399

>  <SCORE.RESTR>
0

>  <SCORE.RESTR.CAVITY>
0

>  <SCORE.RESTR.norm>
0

>  <SCORE.SYSTEM>
0

>  <SCORE.SYSTEM.CONST>
0

>  <SCORE.SYSTEM.DIHEDRAL>
0

>  <SCORE.SYSTEM.SOLV>
0

>  <SCORE.SYSTEM.norm>
0

>  <SCORE.heavy>
25

>  <SCORE.norm>
-0.40591

>  <RMSD>
1.284

$$$$
ligand
 OpenBabel11021811503D
libRbt.so/2013.1/901 2013/11/27
 25 27  0  0  0  0  0  0  0  0999 V2000
   10.8707  -21.9487   22.8013 N   0  0  0  0  0  0  0  0  0  0  0  0
   10.2798  -23.2184   23.0916 C   0  0  0  0  0  0  0  0  0  0  0  0
   10.9148  -24.2544   22.9381 O   0  0  0  0  0  0  0  0  0  0  0  0
   -1.9995  -21.2453   25.8635 N   0  0  0  0  0  0  0  0  0  0  0  0
    0.0346  -21.4691   24.6075 N   0  0  0  0  0  0  0  0  0  0  0  0
   -0.6249  -20.9236   25.6554 C   0  0  0  0  0  0  0  0  0  0  0  0
    0.0002  -20.0614   26.5122 N   0  0  0  0  0  0  0  0  0  0  0  0
    1.3036  -19.7140   26.3608 C   0  0  0  0  0  0  0  0  0  0  0  0
    2.0325  -20.2747   25.2847 C   0  0  0  0  0  0  0  0  0  0  0  0
    1.8807  -18.8510   27.2626 O   0  0  0  0  0  0  0  0  0  0  0  0
    4.0035  -18.6650   25.1332 C   0  0  0  0  0  0  0  0  0  0  0  0
    3.4234  -19.9779   24.9830 N   0  0  0  0  0  0  0  0  0  0  0  0
    4.4890  -18.2622   26.1848 O   0  0  0  0  0  0  0  0  0  0  0  0
    4.1482  -21.0395   24.4268 C   0  0  2  0  0  0  0  0  0  0  0  0
    3.4515  -21.5188   23.1274 C   0  0  0  0  0  0  0  0  0  0  0  0
    1.3520  -21.1598   24.3902 C   0  0  0  0  0  0  0  0  0  0  0  0
    2.0726  -21.7632   23.2658 N   0  0  0  0  0  0  0  0  0  0  0  0
    4.2730  -22.1829   25.4134 C   0  0  0  0  0  0  0  0  0  0  0  0
    4.8985  -23.3880   24.9434 N   0  0  0  0  0  0  0  0  0  0  0  0
    8.8809  -23.2579   23.6016 C   0  0  0  0  0  0  0  0  0  0  0  0
    8.5747  -22.8103   24.8795 C   0  0  0  0  0  0  0  0  0  0  0  0
    7.2595  -22.8597   25.3253 C   0  0  0  0  0  0  0  0  0  0  0  0
    6.2535  -23.3429   24.4910 C   0  0  0  0  0  0  0  0  0  0  0  0
    6.5619  -23.7780   23.2139 C   0  0  0  0  0  0  0  0  0  0  0  0
    7.8787  -23.7391   22.7716 C   0  0  0  0  0  0  0  0  0  0  0  0
  1  2  1  0  0  0  0
  2  3  2  0  0  0  0
  2 20  1  0  0  0  0
  4  6  1  0  0  0  0
  5  6  2  0  0  0  0
  5 16  1  0  0  0  0
  6  7  1  0  0  0  0
  7  8  1  0  0  0  0
  8  9  1  0  0  0  0
  8 10  2  0  0  0  0
  9 12  1  0  0  0  0
  9 16  2  0  0  0  0
 11 13  1  0  0  0  0
 11 12  1  0  0  0  0
 12 14  1  0  0  0  0
 14 15  1  0  0  0  0
 14 18  1  1  0  0  0
 15 17  1  0  0  0  0
 16 17  1  0  0  0  0
 18 19  1  0  0  0  0
 19 23  1  0  0  0  0
 20 21  2  0  0  0  0
 20 25  1  0  0  0  0
 21 22  1  0  0  0  0
 22 23  2  0  0  0  0
 23 24  1  0  0  0  0
 24 25  2  0  0  0  0
M  END
>  <CHROM.1>
87.34916813,175.02794650,61.09905480,56.03621199,-70.14817911,4.45013690
-21.52382501,24.68939466,-0.39851187,0.06523587,0.49854567

>  <Name>
ligand

>  <RI>
0

>  <Rbt.Current_Directory>
/home/itssahil/PROJECTS/Mol_Feturizer/New_Systems/rnas/4LVV

>  <Rbt.Executable>
rbdock ($Id: //depot/dev/client3/rdock/2013.1/src/exe/rbdock.cxx#4 $)

>  <Rbt.Library>
libRbt.so (2013.1, Build901 2013/11/27)

>  <Rbt.Parameter_File>
/export/apps/rDock/src/rDock_2013.1_src/data/scripts/dock_solv.prm

>  <Rbt.Receptor>
prm/pocket_docking_3.prm

>  <SCORE>
-13.197

>  <SCORE.INTER>
-11.9025

>  <SCORE.INTER.CONST>
1

>  <SCORE.INTER.POLAR>
0

>  <SCORE.INTER.ROT>
5

>  <SCORE.INTER.SOLV>
30.0067

>  <SCORE.INTER.VDW>
-24.8706

>  <SCORE.INTER.norm>
-0.4761

>  <SCORE.INTRA>
-1.29453

>  <SCORE.INTRA.DIHEDRAL>
-0.458174

>  <SCORE.INTRA.DIHEDRAL.0>
3.94806

>  <SCORE.INTRA.POLAR>
0

>  <SCORE.INTRA.POLAR.0>
0

>  <SCORE.INTRA.REPUL>
0

>  <SCORE.INTRA.REPUL.0>
0

>  <SCORE.INTRA.SOLV>
0.114536

>  <SCORE.INTRA.SOLV.lig_0>
-70.9803

>  <SCORE.INTRA.VDW>
-1.12271

>  <SCORE.INTRA.VDW.0>
-0.709409

>  <SCORE.INTRA.norm>
-0.0517812

>  <SCORE.RESTR>
0

>  <SCORE.RESTR.CAVITY>
0

>  <SCORE.RESTR.norm>
0

>  <SCORE.SYSTEM>
0

>  <SCORE.SYSTEM.CONST>
0

>  <SCORE.SYSTEM.DIHEDRAL>
0

>  <SCORE.SYSTEM.SOLV>
0

>  <SCORE.SYSTEM.norm>
0

>  <SCORE.heavy>
25

>  <SCORE.norm>
-0.527881

>  <RMSD>
1.285

$$$$
ligand
 OpenBabel11021811503D
libRbt.so/2013.1/901 2013/11/27
 25 27  0  0  0  0  0  0  0  0999 V2000
   11.0975  -23.0216   22.0906 N   0  0  0  0  0  0  0  0  0  0  0  0
   10.2416  -24.0506   22.5945 C   0  0  0  0  0  0  0  0  0  0  0  0
   10.5098  -25.2320   22.4145 O   0  0  0  0  0  0  0  0  0  0  0  0
   -1.7896  -21.1947   25.8874 N   0  0  0  0  0  0  0  0  0  0  0  0
    0.1482  -21.3846   24.4824 N   0  0  0  0  0  0  0  0  0  0  0  0
   -0.4175  -20.9114   25.6168 C   0  0  0  0  0  0  0  0  0  0  0  0
    0.3001  -20.1579   26.5032 N   0  0  0  0  0  0  0  0  0  0  0  0
    1.6061  -19.8514   26.2960 C   0  0  0  0  0  0  0  0  0  0  0  0
    2.2385  -20.3399   25.1276 C   0  0  0  0  0  0  0  0  0  0  0  0
    2.2788  -19.0993   27.2302 O   0  0  0  0  0  0  0  0  0  0  0  0
    4.2688  -18.8047   24.9880 C   0  0  0  0  0  0  0  0  0  0  0  0
    3.6198  -20.0735   24.7606 N   0  0  0  0  0  0  0  0  0  0  0  0
    4.0354  -17.8024   24.3212 O   0  0  0  0  0  0  0  0  0  0  0  0
    4.2577  -21.1080   24.0645 C   0  0  2  0  0  0  0  0  0  0  0  0
    3.4585  -21.4369   22.7773 C   0  0  0  0  0  0  0  0  0  0  0  0
    1.4622  -21.1105   24.2055 C   0  0  0  0  0  0  0  0  0  0  0  0
    2.0812  -21.6366   22.9858 N   0  0  0  0  0  0  0  0  0  0  0  0
    4.3912  -22.3415   24.9345 C   0  0  0  0  0  0  0  0  0  0  0  0
    5.6486  -22.5399   25.6008 N   0  0  0  0  0  0  0  0  0  0  0  0
    9.0243  -23.6598   23.3588 C   0  0  0  0  0  0  0  0  0  0  0  0
    7.7552  -23.9138   22.8572 C   0  0  0  0  0  0  0  0  0  0  0  0
    6.6395  -23.5374   23.5952 C   0  0  0  0  0  0  0  0  0  0  0  0
    6.7938  -22.9214   24.8355 C   0  0  0  0  0  0  0  0  0  0  0  0
    8.0611  -22.6799   25.3363 C   0  0  0  0  0  0  0  0  0  0  0  0
    9.1772  -23.0460   24.5936 C   0  0  0  0  0  0  0  0  0  0  0  0
  1  2  1  0  0  0  0
  2  3  2  0  0  0  0
  2 20  1  0  0  0  0
  4  6  1  0  0  0  0
  5  6  2  0  0  0  0
  5 16  1  0  0  0  0
  6  7  1  0  0  0  0
  7  8  1  0  0  0  0
  8  9  1  0  0  0  0
  8 10  2  0  0  0  0
  9 12  1  0  0  0  0
  9 16  2  0  0  0  0
 11 13  1  0  0  0  0
 11 12  1  0  0  0  0
 12 14  1  0  0  0  0
 14 15  1  0  0  0  0
 14 18  1  1  0  0  0
 15 17  1  0  0  0  0
 16 17  1  0  0  0  0
 18 19  1  0  0  0  0
 19 23  1  0  0  0  0
 20 21  2  0  0  0  0
 20 25  1  0  0  0  0
 21 22  1  0  0  0  0
 22 23  2  0  0  0  0
 23 24  1  0  0  0  0
 24 25  2  0  0  0  0
M  END
>  <CHROM.1>
-73.89684984,-97.44815734,-71.76932523,-22.17822262,113.87074792,4.62658307
-21.61292637,24.46672529,-0.44572181,0.07481567,0.43303053

>  <Name>
ligand

>  <RI>
0

>  <Rbt.Current_Directory>
/home/itssahil/PROJECTS/Mol_Feturizer/New_Systems/rnas/4LVV

>  <Rbt.Executable>
rbdock ($Id: //depot/dev/client3/rdock/2013.1/src/exe/rbdock.cxx#4 $)

>  <Rbt.Library>
libRbt.so (2013.1, Build901 2013/11/27)

>  <Rbt.Parameter_File>
/export/apps/rDock/src/rDock_2013.1_src/data/scripts/dock_solv.prm

>  <Rbt.Receptor>
prm/pocket_docking_5.prm

>  <SCORE>
-10.5721

>  <SCORE.INTER>
-11.1229

>  <SCORE.INTER.CONST>
1

>  <SCORE.INTER.POLAR>
0

>  <SCORE.INTER.ROT>
5

>  <SCORE.INTER.SOLV>
26.6966

>  <SCORE.INTER.VDW>
-23.2475

>  <SCORE.INTER.norm>
-0.444918

>  <SCORE.INTRA>
0.550849

>  <SCORE.INTRA.DIHEDRAL>
2.92788

>  <SCORE.INTRA.DIHEDRAL.0>
3.94806

>  <SCORE.INTRA.POLAR>
0

>  <SCORE.INTRA.POLAR.0>
0

>  <SCORE.INTRA.REPUL>
0

>  <SCORE.INTRA.REPUL.0>
0

>  <SCORE.INTRA.SOLV>
-0.553556

>  <SCORE.INTRA.SOLV.lig_0>
-70.9803

>  <SCORE.INTRA.VDW>
-0.636316

>  <SCORE.INTRA.VDW.0>
-0.709409

>  <SCORE.INTRA.norm>
0.0220339

>  <SCORE.RESTR>
0

>  <SCORE.RESTR.CAVITY>
0

>  <SCORE.RESTR.norm>
0

>  <SCORE.SYSTEM>
0

>  <SCORE.SYSTEM.CONST>
0

>  <SCORE.SYSTEM.DIHEDRAL>
0

>  <SCORE.SYSTEM.SOLV>
0

>  <SCORE.SYSTEM.norm>
0

>  <SCORE.heavy>
25

>  <SCORE.norm>
-0.422884

>  <RMSD>
1.326

$$$$
ligand
 OpenBabel11021811503D
libRbt.so/2013.1/901 2013/11/27
 25 27  0  0  0  0  0  0  0  0999 V2000
   10.7410  -21.9012   22.2812 N   0  0  0  0  0  0  0  0  0  0  0  0
   10.1681  -23.1772   22.5792 C   0  0  0  0  0  0  0  0  0  0  0  0
   10.7994  -24.2083   22.3832 O   0  0  0  0  0  0  0  0  0  0  0  0
   -1.9163  -21.3065   25.9059 N   0  0  0  0  0  0  0  0  0  0  0  0
    0.0994  -21.4998   24.6156 N   0  0  0  0  0  0  0  0  0  0  0  0
   -0.5504  -20.9644   25.6749 C   0  0  0  0  0  0  0  0  0  0  0  0
    0.0762  -20.0933   26.5215 N   0  0  0  0  0  0  0  0  0  0  0  0
    1.3716  -19.7266   26.3484 C   0  0  0  0  0  0  0  0  0  0  0  0
    2.0905  -20.2761   25.2598 C   0  0  0  0  0  0  0  0  0  0  0  0
    1.9510  -18.8555   27.2408 O   0  0  0  0  0  0  0  0  0  0  0  0
    4.0345  -18.6374   25.0760 C   0  0  0  0  0  0  0  0  0  0  0  0
    3.4715  -19.9587   24.9348 N   0  0  0  0  0  0  0  0  0  0  0  0
    4.7762  -18.3191   25.9993 O   0  0  0  0  0  0  0  0  0  0  0  0
    4.2025  -21.0092   24.3658 C   0  0  2  0  0  0  0  0  0  0  0  0
    3.4912  -21.4983   23.0781 C   0  0  0  0  0  0  0  0  0  0  0  0
    1.4082  -21.1709   24.3763 C   0  0  0  0  0  0  0  0  0  0  0  0
    2.1185  -21.7631   23.2396 N   0  0  0  0  0  0  0  0  0  0  0  0
    4.3609  -22.1510   25.3495 C   0  0  0  0  0  0  0  0  0  0  0  0
    4.9528  -23.3634   24.8556 N   0  0  0  0  0  0  0  0  0  0  0  0
    8.7931  -23.2297   23.1496 C   0  0  0  0  0  0  0  0  0  0  0  0
    7.7220  -23.6777   22.3888 C   0  0  0  0  0  0  0  0  0  0  0  0
    6.4516  -23.7154   22.9506 C   0  0  0  0  0  0  0  0  0  0  0  0
    6.2567  -23.3187   24.2721 C   0  0  0  0  0  0  0  0  0  0  0  0
    7.3295  -22.8830   25.0301 C   0  0  0  0  0  0  0  0  0  0  0  0
    8.5983  -22.8346   24.4652 C   0  0  0  0  0  0  0  0  0  0  0  0
  1  2  1  0  0  0  0
  2  3  2  0  0  0  0
  2 20  1  0  0  0  0
  4  6  1  0  0  0  0
  5  6  2  0  0  0  0
  5 16  1  0  0  0  0
  6  7  1  0  0  0  0
  7  8  1  0  0  0  0
  8  9  1  0  0  0  0
  8 10  2  0  0  0  0
  9 12  1  0  0  0  0
  9 16  2  0  0  0  0
 11 13  1  0  0  0  0
 11 12  1  0  0  0  0
 12 14  1  0  0  0  0
 14 15  1  0  0  0  0
 14 18  1  1  0  0  0
 15 17  1  0  0  0  0
 16 17  1  0  0  0  0
 18 19  1  0  0  0  0
 19 23  1  0  0  0  0
 20 21  2  0  0  0  0
 20 25  1  0  0  0  0
 21 22  1  0  0  0  0
 22 23  2  0  0  0  0
 23 24  1  0  0  0  0
 24 25  2  0  0  0  0
M  END
>  <CHROM.1>
103.43681665,172.86807183,57.54214589,-120.00380518,108.26408733,4.47665412
-21.51762959,24.52446204,-0.41954595,0.11242613,0.50688685

>  <Name>
ligand

>  <RI>
0

>  <Rbt.Current_Directory>
/home/itssahil/PROJECTS/Mol_Feturizer/New_Systems/rnas/4LVV

>  <Rbt.Executable>
rbdock ($Id: //depot/dev/client3/rdock/2013.1/src/exe/rbdock.cxx#4 $)

>  <Rbt.Library>
libRbt.so (2013.1, Build901 2013/11/27)

>  <Rbt.Parameter_File>
/export/apps/rDock/src/rDock_2013.1_src/data/scripts/dock_solv.prm

>  <Rbt.Receptor>
prm/pocket_docking_3.prm

>  <SCORE>
-13.1951

>  <SCORE.INTER>
-11.9178

>  <SCORE.INTER.CONST>
1

>  <SCORE.INTER.POLAR>
0

>  <SCORE.INTER.ROT>
5

>  <SCORE.INTER.SOLV>
28.9627

>  <SCORE.INTER.VDW>
-24.5328

>  <SCORE.INTER.norm>
-0.476711

>  <SCORE.INTRA>
-1.27731

>  <SCORE.INTRA.DIHEDRAL>
-0.35038

>  <SCORE.INTRA.DIHEDRAL.0>
3.94806

>  <SCORE.INTRA.POLAR>
0

>  <SCORE.INTRA.POLAR.0>
0

>  <SCORE.INTRA.REPUL>
0

>  <SCORE.INTRA.REPUL.0>
0

>  <SCORE.INTRA.SOLV>
0.0989289

>  <SCORE.INTRA.SOLV.lig_0>
-70.9803

>  <SCORE.INTRA.VDW>
-1.15158

>  <SCORE.INTRA.VDW.0>
-0.709409

>  <SCORE.INTRA.norm>
-0.0510924

>  <SCORE.RESTR>
0

>  <SCORE.RESTR.CAVITY>
0

>  <SCORE.RESTR.norm>
0

>  <SCORE.SYSTEM>
0

>  <SCORE.SYSTEM.CONST>
0

>  <SCORE.SYSTEM.DIHEDRAL>
0

>  <SCORE.SYSTEM.SOLV>
0

>  <SCORE.SYSTEM.norm>
0

>  <SCORE.heavy>
25

>  <SCORE.norm>
-0.527803

>  <RMSD>
1.425

$$$$
ligand
 OpenBabel11021811503D
libRbt.so/2013.1/901 2013/11/27
 25 27  0  0  0  0  0  0  0  0999 V2000
    8.1916  -22.5208   18.5049 N   0  0  0  0  0  0  0  0  0  0  0  0
    7.4492  -23.4811   19.2613 C   0  0  0  0  0  0  0  0  0  0  0  0
    7.1473  -24.5637   18.7746 O   0  0  0  0  0  0  0  0  0  0  0  0
   -1.5608  -21.7582   26.2456 N   0  0  0  0  0  0  0  0  0  0  0  0
    0.2792  -21.6396   24.7075 N   0  0  0  0  0  0  0  0  0  0  0  0
   -0.2940  -21.2256   25.8612 C   0  0  0  0  0  0  0  0  0  0  0  0
    0.3150  -20.2983   26.6596 N   0  0  0  0  0  0  0  0  0  0  0  0
    1.5167  -19.7525   26.3424 C   0  0  0  0  0  0  0  0  0  0  0  0
    2.1558  -20.1702   25.1505 C   0  0  0  0  0  0  0  0  0  0  0  0
    2.0850  -18.8327   27.1921 O   0  0  0  0  0  0  0  0  0  0  0  0
    3.8240  -18.2755   24.7962 C   0  0  0  0  0  0  0  0  0  0  0  0
    3.4286  -19.6577   24.6701 N   0  0  0  0  0  0  0  0  0  0  0  0
    3.7272  -17.4636   23.8823 O   0  0  0  0  0  0  0  0  0  0  0  0
    4.2136  -20.5830   23.9704 C   0  0  2  0  0  0  0  0  0  0  0  0
    3.4136  -21.1327   22.7615 C   0  0  0  0  0  0  0  0  0  0  0  0
    1.4906  -21.1278   24.3215 C   0  0  0  0  0  0  0  0  0  0  0  0
    2.1209  -21.5878   23.0811 N   0  0  0  0  0  0  0  0  0  0  0  0
    4.6483  -21.7166   24.8773 C   0  0  0  0  0  0  0  0  0  0  0  0
    5.9347  -22.3030   24.6218 N   0  0  0  0  0  0  0  0  0  0  0  0
    7.0636  -23.1476   20.6609 C   0  0  0  0  0  0  0  0  0  0  0  0
    7.0932  -21.8365   21.1157 C   0  0  0  0  0  0  0  0  0  0  0  0
    6.7266  -21.5583   22.4269 C   0  0  0  0  0  0  0  0  0  0  0  0
    6.3198  -22.5864   23.2749 C   0  0  0  0  0  0  0  0  0  0  0  0
    6.2816  -23.8907   22.8138 C   0  0  0  0  0  0  0  0  0  0  0  0
    6.6588  -24.1708   21.5059 C   0  0  0  0  0  0  0  0  0  0  0  0
  1  2  1  0  0  0  0
  2  3  2  0  0  0  0
  2 20  1  0  0  0  0
  4  6  1  0  0  0  0
  5  6  2  0  0  0  0
  5 16  1  0  0  0  0
  6  7  1  0  0  0  0
  7  8  1  0  0  0  0
  8  9  1  0  0  0  0
  8 10  2  0  0  0  0
  9 12  1  0  0  0  0
  9 16  2  0  0  0  0
 11 13  1  0  0  0  0
 11 12  1  0  0  0  0
 12 14  1  0  0  0  0
 14 15  1  0  0  0  0
 14 18  1  1  0  0  0
 15 17  1  0  0  0  0
 16 17  1  0  0  0  0
 18 19  1  0  0  0  0
 19 23  1  0  0  0  0
 20 21  2  0  0  0  0
 20 25  1  0  0  0  0
 21 22  1  0  0  0  0
 22 23  2  0  0  0  0
 23 24  1  0  0  0  0
 24 25  2  0  0  0  0
M  END
>  <CHROM.1>
-99.07259150,-147.05613711,-43.64363118,76.20709015,17.02953496,3.96409710
-21.34886008,23.52851761,-0.65787527,0.48168763,0.52497209

>  <Name>
ligand

>  <RI>
0

>  <Rbt.Current_Directory>
/home/itssahil/PROJECTS/Mol_Feturizer/New_Systems/rnas/4LVV

>  <Rbt.Executable>
rbdock ($Id: //depot/dev/client3/rdock/2013.1/src/exe/rbdock.cxx#4 $)

>  <Rbt.Library>
libRbt.so (2013.1, Build901 2013/11/27)

>  <Rbt.Parameter_File>
/export/apps/rDock/src/rDock_2013.1_src/data/scripts/dock_solv.prm

>  <Rbt.Receptor>
prm/pocket_docking_6.prm

>  <SCORE>
-11.5493

>  <SCORE.INTER>
-11.4199

>  <SCORE.INTER.CONST>
1

>  <SCORE.INTER.POLAR>
0

>  <SCORE.INTER.ROT>
5

>  <SCORE.INTER.SOLV>
28.0507

>  <SCORE.INTER.VDW>
-23.8968

>  <SCORE.INTER.norm>
-0.456797

>  <SCORE.INTRA>
-0.129345

>  <SCORE.INTRA.DIHEDRAL>
2.40756

>  <SCORE.INTRA.DIHEDRAL.0>
3.94806

>  <SCORE.INTRA.POLAR>
0

>  <SCORE.INTRA.POLAR.0>
0

>  <SCORE.INTRA.REPUL>
0

>  <SCORE.INTRA.REPUL.0>
0

>  <SCORE.INTRA.SOLV>
-0.655743

>  <SCORE.INTRA.SOLV.lig_0>
-70.9803

>  <SCORE.INTRA.VDW>
-1.00525

>  <SCORE.INTRA.VDW.0>
-0.709409

>  <SCORE.INTRA.norm>
-0.00517379

>  <SCORE.RESTR>
0

>  <SCORE.RESTR.CAVITY>
0

>  <SCORE.RESTR.norm>
0

>  <SCORE.SYSTEM>
0

>  <SCORE.SYSTEM.CONST>
0

>  <SCORE.SYSTEM.DIHEDRAL>
0

>  <SCORE.SYSTEM.SOLV>
0

>  <SCORE.SYSTEM.norm>
0

>  <SCORE.heavy>
25

>  <SCORE.norm>
-0.461971

>  <RMSD>
3.186

$$$$
ligand
 OpenBabel11021811503D
libRbt.so/2013.1/901 2013/11/27
 25 27  0  0  0  0  0  0  0  0999 V2000
   10.2138  -22.6387   25.2123 N   0  0  0  0  0  0  0  0  0  0  0  0
    9.7269  -23.3520   24.0724 C   0  0  0  0  0  0  0  0  0  0  0  0
   10.3326  -24.3228   23.6355 O   0  0  0  0  0  0  0  0  0  0  0  0
    6.1196  -21.6536   28.1558 N   0  0  0  0  0  0  0  0  0  0  0  0
    4.2814  -21.5141   26.6174 N   0  0  0  0  0  0  0  0  0  0  0  0
    5.5409  -21.1504   26.9525 C   0  0  0  0  0  0  0  0  0  0  0  0
    6.2647  -20.3010   26.1631 N   0  0  0  0  0  0  0  0  0  0  0  0
    5.7645  -19.7863   25.0110 C   0  0  0  0  0  0  0  0  0  0  0  0
    4.4553  -20.1539   24.6182 C   0  0  0  0  0  0  0  0  0  0  0  0
    6.5455  -18.9461   24.2527 O   0  0  0  0  0  0  0  0  0  0  0  0
    3.9074  -18.3109   22.9444 C   0  0  0  0  0  0  0  0  0  0  0  0
    3.7800  -19.6650   23.4272 N   0  0  0  0  0  0  0  0  0  0  0  0
    3.5702  -17.3304   23.5992 O   0  0  0  0  0  0  0  0  0  0  0  0
    2.8999  -20.5758   22.8293 C   0  0  2  0  0  0  0  0  0  0  0  0
    1.8284  -21.0148   23.8602 C   0  0  0  0  0  0  0  0  0  0  0  0
    3.7101  -21.0292   25.4698 C   0  0  0  0  0  0  0  0  0  0  0  0
    2.3524  -21.4356   25.0966 N   0  0  0  0  0  0  0  0  0  0  0  0
    3.6493  -21.7812   22.2986 C   0  0  0  0  0  0  0  0  0  0  0  0
    4.9063  -21.5361   21.6473 N   0  0  0  0  0  0  0  0  0  0  0  0
    8.4579  -22.9031   23.4345 C   0  0  0  0  0  0  0  0  0  0  0  0
    7.4115  -23.7909   23.2260 C   0  0  0  0  0  0  0  0  0  0  0  0
    6.2402  -23.3406   22.6291 C   0  0  0  0  0  0  0  0  0  0  0  0
    6.1124  -22.0045   22.2545 C   0  0  0  0  0  0  0  0  0  0  0  0
    7.1544  -21.1206   22.4742 C   0  0  0  0  0  0  0  0  0  0  0  0
    8.3300  -21.5731   23.0610 C   0  0  0  0  0  0  0  0  0  0  0  0
  1  2  1  0  0  0  0
  2  3  2  0  0  0  0
  2 20  1  0  0  0  0
  4  6  1  0  0  0  0
  5  6  2  0  0  0  0
  5 16  1  0  0  0  0
  6  7  1  0  0  0  0
  7  8  1  0  0  0  0
  8  9  1  0  0  0  0
  8 10  2  0  0  0  0
  9 12  1  0  0  0  0
  9 16  2  0  0  0  0
 11 13  1  0  0  0  0
 11 12  1  0  0  0  0
 12 14  1  0  0  0  0
 14 15  1  0  0  0  0
 14 18  1  1  0  0  0
 15 17  1  0  0  0  0
 16 17  1  0  0  0  0
 18 19  1  0  0  0  0
 19 23  1  0  0  0  0
 20 21  2  0  0  0  0
 20 25  1  0  0  0  0
 21 22  1  0  0  0  0
 22 23  2  0  0  0  0
 23 24  1  0  0  0  0
 24 25  2  0  0  0  0
M  END
>  <CHROM.1>
-60.83478148,-40.82110731,113.22823670,52.96775846,-126.58271329,5.71111243
-21.19353128,24.12869684,-0.07581455,-0.51511060,1.42550978

>  <Name>
ligand

>  <RI>
0

>  <Rbt.Current_Directory>
/home/itssahil/PROJECTS/Mol_Feturizer/New_Systems/rnas/4LVV

>  <Rbt.Executable>
rbdock ($Id: //depot/dev/client3/rdock/2013.1/src/exe/rbdock.cxx#4 $)

>  <Rbt.Library>
libRbt.so (2013.1, Build901 2013/11/27)

>  <Rbt.Parameter_File>
/export/apps/rDock/src/rDock_2013.1_src/data/scripts/dock_solv.prm

>  <Rbt.Receptor>
prm/pocket_docking_3.prm

>  <SCORE>
-3.30777

>  <SCORE.INTER>
-1.70755

>  <SCORE.INTER.CONST>
1

>  <SCORE.INTER.POLAR>
0

>  <SCORE.INTER.ROT>
5

>  <SCORE.INTER.SOLV>
11.0285

>  <SCORE.INTER.VDW>
-11.7479

>  <SCORE.INTER.norm>
-0.0683021

>  <SCORE.INTRA>
-1.60022

>  <SCORE.INTRA.DIHEDRAL>
1.68321

>  <SCORE.INTRA.DIHEDRAL.0>
3.94806

>  <SCORE.INTRA.POLAR>
0

>  <SCORE.INTRA.POLAR.0>
0

>  <SCORE.INTRA.REPUL>
0

>  <SCORE.INTRA.REPUL.0>
0

>  <SCORE.INTRA.SOLV>
0.821584

>  <SCORE.INTRA.SOLV.lig_0>
-70.9803

>  <SCORE.INTRA.VDW>
-2.85262

>  <SCORE.INTRA.VDW.0>
-0.709409

>  <SCORE.INTRA.norm>
-0.0640089

>  <SCORE.RESTR>
0

>  <SCORE.RESTR.CAVITY>
0

>  <SCORE.RESTR.norm>
0

>  <SCORE.SYSTEM>
0

>  <SCORE.SYSTEM.CONST>
0

>  <SCORE.SYSTEM.DIHEDRAL>
0

>  <SCORE.SYSTEM.SOLV>
0

>  <SCORE.SYSTEM.norm>
0

>  <SCORE.heavy>
25

>  <SCORE.norm>
-0.132311

>  <RMSD>
3.507

$$$$
ligand
 OpenBabel11021811503D
libRbt.so/2013.1/901 2013/11/27
 25 27  0  0  0  0  0  0  0  0999 V2000
   10.4249  -24.4640   23.1106 N   0  0  0  0  0  0  0  0  0  0  0  0
    9.8013  -23.1919   23.3059 C   0  0  0  0  0  0  0  0  0  0  0  0
   10.3636  -22.1595   22.9621 O   0  0  0  0  0  0  0  0  0  0  0  0
    4.4535  -20.5186   20.9381 N   0  0  0  0  0  0  0  0  0  0  0  0
    4.9064  -20.2813   23.2842 N   0  0  0  0  0  0  0  0  0  0  0  0
    4.0430  -20.6249   22.3006 C   0  0  0  0  0  0  0  0  0  0  0  0
    2.7807  -21.0625   22.5895 N   0  0  0  0  0  0  0  0  0  0  0  0
    2.3329  -21.1781   23.8657 C   0  0  0  0  0  0  0  0  0  0  0  0
    3.2110  -20.8420   24.9238 C   0  0  0  0  0  0  0  0  0  0  0  0
    1.0563  -21.6357   24.0936 O   0  0  0  0  0  0  0  0  0  0  0  0
    1.5667  -20.5205   26.8451 C   0  0  0  0  0  0  0  0  0  0  0  0
    2.8646  -20.8918   26.3349 N   0  0  0  0  0  0  0  0  0  0  0  0
    1.1342  -19.3736   26.8087 O   0  0  0  0  0  0  0  0  0  0  0  0
    3.9204  -21.2260   27.1924 C   0  0  2  0  0  0  0  0  0  0  0  0
    5.0816  -20.2163   27.0035 C   0  0  0  0  0  0  0  0  0  0  0  0
    4.5207  -20.3686   24.5965 C   0  0  0  0  0  0  0  0  0  0  0  0
    5.4603  -20.0132   25.6635 N   0  0  0  0  0  0  0  0  0  0  0  0
    4.4002  -22.6396   26.9318 C   0  0  0  0  0  0  0  0  0  0  0  0
    4.5756  -23.0291   25.5601 N   0  0  0  0  0  0  0  0  0  0  0  0
    8.4453  -23.1454   23.9205 C   0  0  0  0  0  0  0  0  0  0  0  0
    8.2670  -22.6958   25.2216 C   0  0  0  0  0  0  0  0  0  0  0  0
    6.9888  -22.6638   25.7658 C   0  0  0  0  0  0  0  0  0  0  0  0
    5.8926  -23.0679   25.0063 C   0  0  0  0  0  0  0  0  0  0  0  0
    6.0740  -23.5052   23.7058 C   0  0  0  0  0  0  0  0  0  0  0  0
    7.3534  -23.5478   23.1651 C   0  0  0  0  0  0  0  0  0  0  0  0
  1  2  1  0  0  0  0
  2  3  2  0  0  0  0
  2 20  1  0  0  0  0
  4  6  1  0  0  0  0
  5  6  2  0  0  0  0
  5 16  1  0  0  0  0
  6  7  1  0  0  0  0
  7  8  1  0  0  0  0
  8  9  1  0  0  0  0
  8 10  2  0  0  0  0
  9 12  1  0  0  0  0
  9 16  2  0  0  0  0
 11 13  1  0  0  0  0
 11 12  1  0  0  0  0
 12 14  1  0  0  0  0
 14 15  1  0  0  0  0
 14 18  1  6  0  0  0
 15 17  1  0  0  0  0
 16 17  1  0  0  0  0
 18 19  1  0  0  0  0
 19 23  1  0  0  0  0
 20 21  2  0  0  0  0
 20 25  1  0  0  0  0
 21 22  1  0  0  0  0
 22 23  2  0  0  0  0
 23 24  1  0  0  0  0
 24 25  2  0  0  0  0
M  END
>  <CHROM.1>
-66.67351243,44.81391205,101.93501129,-3.41326393,107.40129502,5.12362357
-21.66829382,24.62602611,-0.25154357,-0.37449676,1.62589924

>  <Name>
ligand

>  <RI>
0

>  <Rbt.Current_Directory>
/home/itssahil/PROJECTS/Mol_Feturizer/New_Systems/rnas/4LVV

>  <Rbt.Executable>
rbdock ($Id: //depot/dev/client3/rdock/2013.1/src/exe/rbdock.cxx#4 $)

>  <Rbt.Library>
libRbt.so (2013.1, Build901 2013/11/27)

>  <Rbt.Parameter_File>
/export/apps/rDock/src/rDock_2013.1_src/data/scripts/dock_solv.prm

>  <Rbt.Receptor>
prm/pocket_docking_4.prm

>  <SCORE>
-10.7016

>  <SCORE.INTER>
-10.8581

>  <SCORE.INTER.CONST>
1

>  <SCORE.INTER.POLAR>
0

>  <SCORE.INTER.ROT>
5

>  <SCORE.INTER.SOLV>
13.8892

>  <SCORE.INTER.VDW>
-18.8018

>  <SCORE.INTER.norm>
-0.434322

>  <SCORE.INTRA>
0.156462

>  <SCORE.INTRA.DIHEDRAL>
0.983812

>  <SCORE.INTRA.DIHEDRAL.0>
3.94806

>  <SCORE.INTRA.POLAR>
0

>  <SCORE.INTRA.POLAR.0>
0

>  <SCORE.INTRA.REPUL>
0

>  <SCORE.INTRA.REPUL.0>
0

>  <SCORE.INTRA.SOLV>
3.00929

>  <SCORE.INTRA.SOLV.lig_0>
-70.9803

>  <SCORE.INTRA.VDW>
-1.84009

>  <SCORE.INTRA.VDW.0>
-0.709409

>  <SCORE.INTRA.norm>
0.0062585

>  <SCORE.RESTR>
0

>  <SCORE.RESTR.CAVITY>
0

>  <SCORE.RESTR.norm>
0

>  <SCORE.SYSTEM>
0

>  <SCORE.SYSTEM.CONST>
0

>  <SCORE.SYSTEM.DIHEDRAL>
0

>  <SCORE.SYSTEM.SOLV>
0

>  <SCORE.SYSTEM.norm>
0

>  <SCORE.heavy>
25

>  <SCORE.norm>
-0.428064

>  <RMSD>
3.521

$$$$
ligand
 OpenBabel11021811503D
libRbt.so/2013.1/901 2013/11/27
 25 27  0  0  0  0  0  0  0  0999 V2000
   10.9741  -21.9144   25.6017 N   0  0  0  0  0  0  0  0  0  0  0  0
   10.1087  -22.9228   26.1303 C   0  0  0  0  0  0  0  0  0  0  0  0
   10.5630  -23.9776   26.5561 O   0  0  0  0  0  0  0  0  0  0  0  0
    4.3853  -20.3359   21.1698 N   0  0  0  0  0  0  0  0  0  0  0  0
    4.2738  -19.6429   23.4660 N   0  0  0  0  0  0  0  0  0  0  0  0
    3.7754  -20.3961   22.4584 C   0  0  0  0  0  0  0  0  0  0  0  0
    2.6913  -21.2058   22.6512 N   0  0  0  0  0  0  0  0  0  0  0  0
    2.0665  -21.2992   23.8527 C   0  0  0  0  0  0  0  0  0  0  0  0
    2.5665  -20.5378   24.9361 C   0  0  0  0  0  0  0  0  0  0  0  0
    0.9874  -22.1408   23.9881 O   0  0  0  0  0  0  0  0  0  0  0  0
    0.5673  -20.5596   26.5176 C   0  0  0  0  0  0  0  0  0  0  0  0
    1.9884  -20.5166   26.2699 N   0  0  0  0  0  0  0  0  0  0  0  0
   -0.0130  -21.5604   26.9244 O   0  0  0  0  0  0  0  0  0  0  0  0
    2.9083  -20.3410   27.3114 C   0  0  2  0  0  0  0  0  0  0  0  0
    3.6947  -19.0230   27.0921 C   0  0  0  0  0  0  0  0  0  0  0  0
    3.6906  -19.6833   24.7056 C   0  0  0  0  0  0  0  0  0  0  0  0
    4.2396  -18.8813   25.8024 N   0  0  0  0  0  0  0  0  0  0  0  0
    3.8596  -21.5175   27.3950 C   0  0  0  0  0  0  0  0  0  0  0  0
    4.5031  -21.9271   26.1775 N   0  0  0  0  0  0  0  0  0  0  0  0
    8.6430  -22.6603   26.1701 C   0  0  0  0  0  0  0  0  0  0  0  0
    8.0334  -22.1925   27.3261 C   0  0  0  0  0  0  0  0  0  0  0  0
    6.6639  -21.9567   27.3304 C   0  0  0  0  0  0  0  0  0  0  0  0
    5.9105  -22.1759   26.1789 C   0  0  0  0  0  0  0  0  0  0  0  0
    6.5245  -22.6322   25.0256 C   0  0  0  0  0  0  0  0  0  0  0  0
    7.8922  -22.8787   25.0241 C   0  0  0  0  0  0  0  0  0  0  0  0
  1  2  1  0  0  0  0
  2  3  2  0  0  0  0
  2 20  1  0  0  0  0
  4  6  1  0  0  0  0
  5  6  2  0  0  0  0
  5 16  1  0  0  0  0
  6  7  1  0  0  0  0
  7  8  1  0  0  0  0
  8  9  1  0  0  0  0
  8 10  2  0  0  0  0
  9 12  1  0  0  0  0
  9 16  2  0  0  0  0
 11 13  1  0  0  0  0
 11 12  1  0  0  0  0
 12 14  1  0  0  0  0
 14 15  1  0  0  0  0
 14 18  1  6  0  0  0
 15 17  1  0  0  0  0
 16 17  1  0  0  0  0
 18 19  1  0  0  0  0
 19 23  1  0  0  0  0
 20 21  2  0  0  0  0
 20 25  1  0  0  0  0
 21 22  1  0  0  0  0
 22 23  2  0  0  0  0
 23 24  1  0  0  0  0
 24 25  2  0  0  0  0
M  END
>  <CHROM.1>
104.93754973,50.06236496,133.09275434,-3.33083996,-96.77922070,4.77277887
-21.31106630,25.44838128,-0.16298710,0.24583118,-1.44622717

>  <Name>
ligand

>  <RI>
0

>  <Rbt.Current_Directory>
/home/itssahil/PROJECTS/Mol_Feturizer/New_Systems/rnas/4LVV

>  <Rbt.Executable>
rbdock ($Id: //depot/dev/client3/rdock/2013.1/src/exe/rbdock.cxx#4 $)

>  <Rbt.Library>
libRbt.so (2013.1, Build901 2013/11/27)

>  <Rbt.Parameter_File>
/export/apps/rDock/src/rDock_2013.1_src/data/scripts/dock_solv.prm

>  <Rbt.Receptor>
prm/pocket_docking_4.prm

>  <SCORE>
-10.272

>  <SCORE.INTER>
-11.1188

>  <SCORE.INTER.CONST>
1

>  <SCORE.INTER.POLAR>
0

>  <SCORE.INTER.ROT>
5

>  <SCORE.INTER.SOLV>
13.5055

>  <SCORE.INTER.VDW>
-18.8477

>  <SCORE.INTER.norm>
-0.444752

>  <SCORE.INTRA>
0.846752

>  <SCORE.INTRA.DIHEDRAL>
0.824729

>  <SCORE.INTRA.DIHEDRAL.0>
3.94806

>  <SCORE.INTRA.POLAR>
0

>  <SCORE.INTRA.POLAR.0>
0

>  <SCORE.INTRA.REPUL>
0

>  <SCORE.INTRA.REPUL.0>
0

>  <SCORE.INTRA.SOLV>
2.55382

>  <SCORE.INTRA.SOLV.lig_0>
-70.9803

>  <SCORE.INTRA.VDW>
-0.842523

>  <SCORE.INTRA.VDW.0>
-0.709409

>  <SCORE.INTRA.norm>
0.0338701

>  <SCORE.RESTR>
0

>  <SCORE.RESTR.CAVITY>
0

>  <SCORE.RESTR.norm>
0

>  <SCORE.SYSTEM>
0

>  <SCORE.SYSTEM.CONST>
0

>  <SCORE.SYSTEM.DIHEDRAL>
0

>  <SCORE.SYSTEM.SOLV>
0

>  <SCORE.SYSTEM.norm>
0

>  <SCORE.heavy>
25

>  <SCORE.norm>
-0.410882

>  <RMSD>
3.662

$$$$
ligand
 OpenBabel11021811503D
libRbt.so/2013.1/901 2013/11/27
 25 27  0  0  0  0  0  0  0  0999 V2000
   11.4811  -22.2736   26.4340 N   0  0  0  0  0  0  0  0  0  0  0  0
   10.3830  -23.1820   26.3143 C   0  0  0  0  0  0  0  0  0  0  0  0
   10.5440  -24.3000   25.8409 O   0  0  0  0  0  0  0  0  0  0  0  0
    4.2077  -19.7413   21.0363 N   0  0  0  0  0  0  0  0  0  0  0  0
    4.1638  -19.2961   23.3954 N   0  0  0  0  0  0  0  0  0  0  0  0
    3.6763  -19.9854   22.3379 C   0  0  0  0  0  0  0  0  0  0  0  0
    2.6762  -20.9041   22.4936 N   0  0  0  0  0  0  0  0  0  0  0  0
    2.1280  -21.1736   23.7058 C   0  0  0  0  0  0  0  0  0  0  0  0
    2.6206  -20.4837   24.8394 C   0  0  0  0  0  0  0  0  0  0  0  0
    1.1326  -22.1175   23.8010 O   0  0  0  0  0  0  0  0  0  0  0  0
    0.7195  -20.8434   26.4993 C   0  0  0  0  0  0  0  0  0  0  0  0
    2.1163  -20.6488   26.1930 N   0  0  0  0  0  0  0  0  0  0  0  0
   -0.1143  -19.9470   26.4282 O   0  0  0  0  0  0  0  0  0  0  0  0
    3.0736  -20.4976   27.2042 C   0  0  2  0  0  0  0  0  0  0  0  0
    3.7332  -19.0993   27.0892 C   0  0  0  0  0  0  0  0  0  0  0  0
    3.6544  -19.5133   24.6491 C   0  0  0  0  0  0  0  0  0  0  0  0
    4.1931  -18.7802   25.7980 N   0  0  0  0  0  0  0  0  0  0  0  0
    4.1237  -21.5869   27.1201 C   0  0  0  0  0  0  0  0  0  0  0  0
    5.2223  -21.5100   28.0428 N   0  0  0  0  0  0  0  0  0  0  0  0
    9.0401  -22.7498   26.7925 C   0  0  0  0  0  0  0  0  0  0  0  0
    8.8034  -22.5192   28.1407 C   0  0  0  0  0  0  0  0  0  0  0  0
    7.5396  -22.1161   28.5546 C   0  0  0  0  0  0  0  0  0  0  0  0
    6.5212  -21.9320   27.6216 C   0  0  0  0  0  0  0  0  0  0  0  0
    6.7649  -22.1527   26.2773 C   0  0  0  0  0  0  0  0  0  0  0  0
    8.0256  -22.5667   25.8641 C   0  0  0  0  0  0  0  0  0  0  0  0
  1  2  1  0  0  0  0
  2  3  2  0  0  0  0
  2 20  1  0  0  0  0
  4  6  1  0  0  0  0
  5  6  2  0  0  0  0
  5 16  1  0  0  0  0
  6  7  1  0  0  0  0
  7  8  1  0  0  0  0
  8  9  1  0  0  0  0
  8 10  2  0  0  0  0
  9 12  1  0  0  0  0
  9 16  2  0  0  0  0
 11 13  1  0  0  0  0
 11 12  1  0  0  0  0
 12 14  1  0  0  0  0
 14 15  1  0  0  0  0
 14 18  1  6  0  0  0
 15 17  1  0  0  0  0
 16 17  1  0  0  0  0
 18 19  1  0  0  0  0
 19 23  1  0  0  0  0
 20 21  2  0  0  0  0
 20 25  1  0  0  0  0
 21 22  1  0  0  0  0
 22 23  2  0  0  0  0
 23 24  1  0  0  0  0
 24 25  2  0  0  0  0
M  END
>  <CHROM.1>
-73.28203090,176.03676221,-144.93077438,-167.43923808,-66.24589595,4.96007519
-21.18414558,25.67411878,-0.29452200,0.29121328,-1.46054194

>  <Name>
ligand

>  <RI>
0

>  <Rbt.Current_Directory>
/home/itssahil/PROJECTS/Mol_Feturizer/New_Systems/rnas/4LVV

>  <Rbt.Executable>
rbdock ($Id: //depot/dev/client3/rdock/2013.1/src/exe/rbdock.cxx#4 $)

>  <Rbt.Library>
libRbt.so (2013.1, Build901 2013/11/27)

>  <Rbt.Parameter_File>
/export/apps/rDock/src/rDock_2013.1_src/data/scripts/dock_solv.prm

>  <Rbt.Receptor>
prm/pocket_docking_3.prm

>  <SCORE>
-10.6856

>  <SCORE.INTER>
-10.4006

>  <SCORE.INTER.CONST>
1

>  <SCORE.INTER.POLAR>
0

>  <SCORE.INTER.ROT>
5

>  <SCORE.INTER.SOLV>
14.2738

>  <SCORE.INTER.VDW>
-18.625

>  <SCORE.INTER.norm>
-0.416023

>  <SCORE.INTRA>
-0.285041

>  <SCORE.INTRA.DIHEDRAL>
-0.0119329

>  <SCORE.INTRA.DIHEDRAL.0>
3.94806

>  <SCORE.INTRA.POLAR>
0

>  <SCORE.INTRA.POLAR.0>
0

>  <SCORE.INTRA.REPUL>
0

>  <SCORE.INTRA.REPUL.0>
0

>  <SCORE.INTRA.SOLV>
-0.140864

>  <SCORE.INTRA.SOLV.lig_0>
-70.9803

>  <SCORE.INTRA.VDW>
-0.208643

>  <SCORE.INTRA.VDW.0>
-0.709409

>  <SCORE.INTRA.norm>
-0.0114016

>  <SCORE.RESTR>
0

>  <SCORE.RESTR.CAVITY>
0

>  <SCORE.RESTR.norm>
0

>  <SCORE.SYSTEM>
0

>  <SCORE.SYSTEM.CONST>
0

>  <SCORE.SYSTEM.DIHEDRAL>
0

>  <SCORE.SYSTEM.SOLV>
0

>  <SCORE.SYSTEM.norm>
0

>  <SCORE.heavy>
25

>  <SCORE.norm>
-0.427425

>  <RMSD>
3.702

$$$$
ligand
 OpenBabel11021811503D
libRbt.so/2013.1/901 2013/11/27
 25 27  0  0  0  0  0  0  0  0999 V2000
   11.2414  -22.0347   26.6066 N   0  0  0  0  0  0  0  0  0  0  0  0
   10.2471  -22.9817   27.0065 C   0  0  0  0  0  0  0  0  0  0  0  0
   10.5681  -24.0579   27.4952 O   0  0  0  0  0  0  0  0  0  0  0  0
    4.3792  -20.2012   21.1643 N   0  0  0  0  0  0  0  0  0  0  0  0
    4.1976  -19.5327   23.4633 N   0  0  0  0  0  0  0  0  0  0  0  0
    3.7678  -20.3175   22.4483 C   0  0  0  0  0  0  0  0  0  0  0  0
    2.7509  -21.2128   22.6293 N   0  0  0  0  0  0  0  0  0  0  0  0
    2.1279  -21.3630   23.8259 C   0  0  0  0  0  0  0  0  0  0  0  0
    2.5581  -20.5702   24.9168 C   0  0  0  0  0  0  0  0  0  0  0  0
    1.1190  -22.2892   23.9494 O   0  0  0  0  0  0  0  0  0  0  0  0
    0.5569  -20.7616   26.4842 C   0  0  0  0  0  0  0  0  0  0  0  0
    1.9715  -20.6032   26.2466 N   0  0  0  0  0  0  0  0  0  0  0  0
   -0.2782  -20.7655   25.5861 O   0  0  0  0  0  0  0  0  0  0  0  0
    2.8676  -20.3603   27.2954 C   0  0  2  0  0  0  0  0  0  0  0  0
    3.5470  -18.9823   27.0885 C   0  0  0  0  0  0  0  0  0  0  0  0
    3.6114  -19.6269   24.6986 C   0  0  0  0  0  0  0  0  0  0  0  0
    4.0871  -18.7899   25.8034 N   0  0  0  0  0  0  0  0  0  0  0  0
    3.9097  -21.4572   27.3794 C   0  0  0  0  0  0  0  0  0  0  0  0
    4.7689  -21.6327   26.2414 N   0  0  0  0  0  0  0  0  0  0  0  0
    8.8105  -22.6284   26.8336 C   0  0  0  0  0  0  0  0  0  0  0  0
    8.0496  -22.1898   27.9085 C   0  0  0  0  0  0  0  0  0  0  0  0
    6.7120  -21.8672   27.7140 C   0  0  0  0  0  0  0  0  0  0  0  0
    6.1423  -21.9710   26.4466 C   0  0  0  0  0  0  0  0  0  0  0  0
    6.9077  -22.3985   25.3758 C   0  0  0  0  0  0  0  0  0  0  0  0
    8.2425  -22.7318   25.5720 C   0  0  0  0  0  0  0  0  0  0  0  0
  1  2  1  0  0  0  0
  2  3  2  0  0  0  0
  2 20  1  0  0  0  0
  4  6  1  0  0  0  0
  5  6  2  0  0  0  0
  5 16  1  0  0  0  0
  6  7  1  0  0  0  0
  7  8  1  0  0  0  0
  8  9  1  0  0  0  0
  8 10  2  0  0  0  0
  9 12  1  0  0  0  0
  9 16  2  0  0  0  0
 11 13  1  0  0  0  0
 11 12  1  0  0  0  0
 12 14  1  0  0  0  0
 14 15  1  0  0  0  0
 14 18  1  6  0  0  0
 15 17  1  0  0  0  0
 16 17  1  0  0  0  0
 18 19  1  0  0  0  0
 19 23  1  0  0  0  0
 20 21  2  0  0  0  0
 20 25  1  0  0  0  0
 21 22  1  0  0  0  0
 22 23  2  0  0  0  0
 23 24  1  0  0  0  0
 24 25  2  0  0  0  0
M  END
>  <CHROM.1>
-6.51107143,61.73121817,142.64866260,-12.97524811,-100.82021910,4.82170845
-21.24651065,25.59728840,-0.30128661,0.24843192,-1.47496931

>  <Name>
ligand

>  <RI>
0

>  <Rbt.Current_Directory>
/home/itssahil/PROJECTS/Mol_Feturizer/New_Systems/rnas/4LVV

>  <Rbt.Executable>
rbdock ($Id: //depot/dev/client3/rdock/2013.1/src/exe/rbdock.cxx#4 $)

>  <Rbt.Library>
libRbt.so (2013.1, Build901 2013/11/27)

>  <Rbt.Parameter_File>
/export/apps/rDock/src/rDock_2013.1_src/data/scripts/dock_solv.prm

>  <Rbt.Receptor>
prm/pocket_docking_7.prm

>  <SCORE>
-10.1044

>  <SCORE.INTER>
-11.016

>  <SCORE.INTER.CONST>
1

>  <SCORE.INTER.POLAR>
0

>  <SCORE.INTER.ROT>
5

>  <SCORE.INTER.SOLV>
13.3371

>  <SCORE.INTER.VDW>
-18.723

>  <SCORE.INTER.norm>
-0.44064

>  <SCORE.INTRA>
0.911632

>  <SCORE.INTRA.DIHEDRAL>
0.199447

>  <SCORE.INTRA.DIHEDRAL.0>
3.94806

>  <SCORE.INTRA.POLAR>
0

>  <SCORE.INTRA.POLAR.0>
0

>  <SCORE.INTRA.REPUL>
0

>  <SCORE.INTRA.REPUL.0>
0

>  <SCORE.INTRA.SOLV>
2.51185

>  <SCORE.INTRA.SOLV.lig_0>
-70.9803

>  <SCORE.INTRA.VDW>
-0.444017

>  <SCORE.INTRA.VDW.0>
-0.709409

>  <SCORE.INTRA.norm>
0.0364653

>  <SCORE.RESTR>
0

>  <SCORE.RESTR.CAVITY>
0

>  <SCORE.RESTR.norm>
0

>  <SCORE.SYSTEM>
0

>  <SCORE.SYSTEM.CONST>
0

>  <SCORE.SYSTEM.DIHEDRAL>
0

>  <SCORE.SYSTEM.SOLV>
0

>  <SCORE.SYSTEM.norm>
0

>  <SCORE.heavy>
25

>  <SCORE.norm>
-0.404175

>  <RMSD>
3.734

$$$$
ligand
 OpenBabel11021811503D
libRbt.so/2013.1/901 2013/11/27
 25 27  0  0  0  0  0  0  0  0999 V2000
   10.8070  -22.0591   25.2082 N   0  0  0  0  0  0  0  0  0  0  0  0
   10.1654  -22.9937   26.0801 C   0  0  0  0  0  0  0  0  0  0  0  0
   10.7119  -24.0482   26.3791 O   0  0  0  0  0  0  0  0  0  0  0  0
    4.3781  -19.9758   21.0577 N   0  0  0  0  0  0  0  0  0  0  0  0
    4.3735  -19.4657   23.4039 N   0  0  0  0  0  0  0  0  0  0  0  0
    3.7944  -20.0934   22.3545 C   0  0  0  0  0  0  0  0  0  0  0  0
    2.6540  -20.8301   22.5134 N   0  0  0  0  0  0  0  0  0  0  0  0
    2.0510  -20.9725   23.7211 C   0  0  0  0  0  0  0  0  0  0  0  0
    2.6340  -20.3428   24.8468 C   0  0  0  0  0  0  0  0  0  0  0  0
    0.9118  -21.7364   23.8202 O   0  0  0  0  0  0  0  0  0  0  0  0
    0.6754  -20.3389   26.4784 C   0  0  0  0  0  0  0  0  0  0  0  0
    2.0895  -20.3857   26.1941 N   0  0  0  0  0  0  0  0  0  0  0  0
   -0.0083  -21.3424   26.6499 O   0  0  0  0  0  0  0  0  0  0  0  0
    3.0436  -20.3671   27.2194 C   0  0  2  0  0  0  0  0  0  0  0  0
    3.9269  -19.1004   27.0830 C   0  0  0  0  0  0  0  0  0  0  0  0
    3.8168  -19.5618   24.6527 C   0  0  0  0  0  0  0  0  0  0  0  0
    4.4523  -18.8967   25.7935 N   0  0  0  0  0  0  0  0  0  0  0  0
    3.9002  -21.6166   27.1818 C   0  0  0  0  0  0  0  0  0  0  0  0
    5.0057  -21.6803   28.0972 N   0  0  0  0  0  0  0  0  0  0  0  0
    8.8249  -22.6537   26.6334 C   0  0  0  0  0  0  0  0  0  0  0  0
    8.6574  -22.3909   27.9861 C   0  0  0  0  0  0  0  0  0  0  0  0
    7.3938  -22.0759   28.4710 C   0  0  0  0  0  0  0  0  0  0  0  0
    6.3053  -22.0115   27.6034 C   0  0  0  0  0  0  0  0  0  0  0  0
    6.4791  -22.2638   26.2537 C   0  0  0  0  0  0  0  0  0  0  0  0
    7.7406  -22.5898   25.7703 C   0  0  0  0  0  0  0  0  0  0  0  0
  1  2  1  0  0  0  0
  2  3  2  0  0  0  0
  2 20  1  0  0  0  0
  4  6  1  0  0  0  0
  5  6  2  0  0  0  0
  5 16  1  0  0  0  0
  6  7  1  0  0  0  0
  7  8  1  0  0  0  0
  8  9  1  0  0  0  0
  8 10  2  0  0  0  0
  9 12  1  0  0  0  0
  9 16  2  0  0  0  0
 11 13  1  0  0  0  0
 11 12  1  0  0  0  0
 12 14  1  0  0  0  0
 14 15  1  0  0  0  0
 14 18  1  6  0  0  0
 15 17  1  0  0  0  0
 16 17  1  0  0  0  0
 18 19  1  0  0  0  0
 19 23  1  0  0  0  0
 20 21  2  0  0  0  0
 20 25  1  0  0  0  0
 21 22  1  0  0  0  0
 22 23  2  0  0  0  0
 23 24  1  0  0  0  0
 24 25  2  0  0  0  0
M  END
>  <CHROM.1>
95.11300438,174.31193161,-129.19671254,179.82067246,-111.64136760,4.89907182
-21.18625939,25.64018966,-0.28383209,0.25004790,-1.38844943

>  <Name>
ligand

>  <RI>
0

>  <Rbt.Current_Directory>
/home/itssahil/PROJECTS/Mol_Feturizer/New_Systems/rnas/4LVV

>  <Rbt.Executable>
rbdock ($Id: //depot/dev/client3/rdock/2013.1/src/exe/rbdock.cxx#4 $)

>  <Rbt.Library>
libRbt.so (2013.1, Build901 2013/11/27)

>  <Rbt.Parameter_File>
/export/apps/rDock/src/rDock_2013.1_src/data/scripts/dock_solv.prm

>  <Rbt.Receptor>
prm/pocket_docking_3.prm

>  <SCORE>
-10.6043

>  <SCORE.INTER>
-10.6873

>  <SCORE.INTER.CONST>
1

>  <SCORE.INTER.POLAR>
0

>  <SCORE.INTER.ROT>
5

>  <SCORE.INTER.SOLV>
13.4838

>  <SCORE.INTER.VDW>
-18.5528

>  <SCORE.INTER.norm>
-0.427491

>  <SCORE.INTRA>
0.0830157

>  <SCORE.INTRA.DIHEDRAL>
0.708556

>  <SCORE.INTRA.DIHEDRAL.0>
3.94806

>  <SCORE.INTRA.POLAR>
0

>  <SCORE.INTRA.POLAR.0>
0

>  <SCORE.INTRA.REPUL>
0

>  <SCORE.INTRA.REPUL.0>
0

>  <SCORE.INTRA.SOLV>
0.09981

>  <SCORE.INTRA.SOLV.lig_0>
-70.9803

>  <SCORE.INTRA.VDW>
-0.321167

>  <SCORE.INTRA.VDW.0>
-0.709409

>  <SCORE.INTRA.norm>
0.00332063

>  <SCORE.RESTR>
0

>  <SCORE.RESTR.CAVITY>
0

>  <SCORE.RESTR.norm>
0

>  <SCORE.SYSTEM>
0

>  <SCORE.SYSTEM.CONST>
0

>  <SCORE.SYSTEM.DIHEDRAL>
0

>  <SCORE.SYSTEM.SOLV>
0

>  <SCORE.SYSTEM.norm>
0

>  <SCORE.heavy>
25

>  <SCORE.norm>
-0.42417

>  <RMSD>
3.748

$$$$
ligand
 OpenBabel11021811503D
libRbt.so/2013.1/901 2013/11/27
 25 27  0  0  0  0  0  0  0  0999 V2000
   11.2357  -22.0093   27.4887 N   0  0  0  0  0  0  0  0  0  0  0  0
   10.2788  -23.0400   27.2288 C   0  0  0  0  0  0  0  0  0  0  0  0
   10.6064  -24.2199   27.2563 O   0  0  0  0  0  0  0  0  0  0  0  0
    4.3405  -20.0168   21.1665 N   0  0  0  0  0  0  0  0  0  0  0  0
    4.1444  -19.4446   23.4901 N   0  0  0  0  0  0  0  0  0  0  0  0
    3.7401  -20.2058   22.4471 C   0  0  0  0  0  0  0  0  0  0  0  0
    2.7591  -21.1458   22.5968 N   0  0  0  0  0  0  0  0  0  0  0  0
    2.1481  -21.3656   23.7888 C   0  0  0  0  0  0  0  0  0  0  0  0
    2.5529  -20.5994   24.9080 C   0  0  0  0  0  0  0  0  0  0  0  0
    1.1759  -22.3340   23.8798 O   0  0  0  0  0  0  0  0  0  0  0  0
    0.5679  -20.9275   26.4735 C   0  0  0  0  0  0  0  0  0  0  0  0
    1.9743  -20.7059   26.2375 N   0  0  0  0  0  0  0  0  0  0  0  0
   -0.2706  -20.0344   26.4190 O   0  0  0  0  0  0  0  0  0  0  0  0
    2.8654  -20.4694   27.2918 C   0  0  2  0  0  0  0  0  0  0  0  0
    3.4907  -19.0593   27.1360 C   0  0  0  0  0  0  0  0  0  0  0  0
    3.5682  -19.6087   24.7228 C   0  0  0  0  0  0  0  0  0  0  0  0
    4.0169  -18.7970   25.8575 N   0  0  0  0  0  0  0  0  0  0  0  0
    3.9491  -21.5279   27.3301 C   0  0  0  0  0  0  0  0  0  0  0  0
    4.8727  -21.5594   26.2300 N   0  0  0  0  0  0  0  0  0  0  0  0
    8.8696  -22.6534   26.9405 C   0  0  0  0  0  0  0  0  0  0  0  0
    8.3500  -22.7566   25.6575 C   0  0  0  0  0  0  0  0  0  0  0  0
    7.0310  -22.3886   25.4214 C   0  0  0  0  0  0  0  0  0  0  0  0
    6.2320  -21.9315   26.4676 C   0  0  0  0  0  0  0  0  0  0  0  0
    6.7513  -21.8405   27.7472 C   0  0  0  0  0  0  0  0  0  0  0  0
    8.0736  -22.1979   27.9815 C   0  0  0  0  0  0  0  0  0  0  0  0
  1  2  1  0  0  0  0
  2  3  2  0  0  0  0
  2 20  1  0  0  0  0
  4  6  1  0  0  0  0
  5  6  2  0  0  0  0
  5 16  1  0  0  0  0
  6  7  1  0  0  0  0
  7  8  1  0  0  0  0
  8  9  1  0  0  0  0
  8 10  2  0  0  0  0
  9 12  1  0  0  0  0
  9 16  2  0  0  0  0
 11 13  1  0  0  0  0
 11 12  1  0  0  0  0
 12 14  1  0  0  0  0
 14 15  1  0  0  0  0
 14 18  1  6  0  0  0
 15 17  1  0  0  0  0
 16 17  1  0  0  0  0
 18 19  1  0  0  0  0
 19 23  1  0  0  0  0
 20 21  2  0  0  0  0
 20 25  1  0  0  0  0
 21 22  1  0  0  0  0
 22 23  2  0  0  0  0
 23 24  1  0  0  0  0
 24 25  2  0  0  0  0
M  END
>  <CHROM.1>
-79.95216901,66.37358492,145.95532020,159.16339774,107.39164419,4.83917471
-21.22291485,25.68047608,-0.30717467,0.27250641,-1.49148411

>  <Name>
ligand

>  <RI>
0

>  <Rbt.Current_Directory>
/home/itssahil/PROJECTS/Mol_Feturizer/New_Systems/rnas/4LVV

>  <Rbt.Executable>
rbdock ($Id: //depot/dev/client3/rdock/2013.1/src/exe/rbdock.cxx#4 $)

>  <Rbt.Library>
libRbt.so (2013.1, Build901 2013/11/27)

>  <Rbt.Parameter_File>
/export/apps/rDock/src/rDock_2013.1_src/data/scripts/dock_solv.prm

>  <Rbt.Receptor>
prm/pocket_docking_4.prm

>  <SCORE>
-9.98159

>  <SCORE.INTER>
-10.4741

>  <SCORE.INTER.CONST>
1

>  <SCORE.INTER.POLAR>
0

>  <SCORE.INTER.ROT>
5

>  <SCORE.INTER.SOLV>
13.6533

>  <SCORE.INTER.VDW>
-18.4672

>  <SCORE.INTER.norm>
-0.418965

>  <SCORE.INTRA>
0.492544

>  <SCORE.INTRA.DIHEDRAL>
0.0524285

>  <SCORE.INTRA.DIHEDRAL.0>
3.94806

>  <SCORE.INTRA.POLAR>
0

>  <SCORE.INTRA.POLAR.0>
0

>  <SCORE.INTRA.REPUL>
0

>  <SCORE.INTRA.REPUL.0>
0

>  <SCORE.INTRA.SOLV>
2.1863

>  <SCORE.INTRA.SOLV.lig_0>
-70.9803

>  <SCORE.INTRA.VDW>
-0.626822

>  <SCORE.INTRA.VDW.0>
-0.709409

>  <SCORE.INTRA.norm>
0.0197017

>  <SCORE.RESTR>
0

>  <SCORE.RESTR.CAVITY>
0

>  <SCORE.RESTR.norm>
0

>  <SCORE.SYSTEM>
0

>  <SCORE.SYSTEM.CONST>
0

>  <SCORE.SYSTEM.DIHEDRAL>
0

>  <SCORE.SYSTEM.SOLV>
0

>  <SCORE.SYSTEM.norm>
0

>  <SCORE.heavy>
25

>  <SCORE.norm>
-0.399264

>  <RMSD>
3.749

$$$$
ligand
 OpenBabel11021811503D
libRbt.so/2013.1/901 2013/11/27
 25 27  0  0  0  0  0  0  0  0999 V2000
    9.8656  -23.9497   23.9009 N   0  0  0  0  0  0  0  0  0  0  0  0
    8.7624  -23.2573   23.3102 C   0  0  0  0  0  0  0  0  0  0  0  0
    8.8286  -22.8388   22.1610 O   0  0  0  0  0  0  0  0  0  0  0  0
    4.6821  -20.6251   21.2316 N   0  0  0  0  0  0  0  0  0  0  0  0
    4.5347  -19.8269   23.4914 N   0  0  0  0  0  0  0  0  0  0  0  0
    4.0567  -20.6316   22.5142 C   0  0  0  0  0  0  0  0  0  0  0  0
    2.9786  -21.4432   22.7316 N   0  0  0  0  0  0  0  0  0  0  0  0
    2.3398  -21.4872   23.9285 C   0  0  0  0  0  0  0  0  0  0  0  0
    2.8184  -20.6707   24.9811 C   0  0  0  0  0  0  0  0  0  0  0  0
    1.2678  -22.3332   24.0902 O   0  0  0  0  0  0  0  0  0  0  0  0
    0.7998  -20.6403   26.5376 C   0  0  0  0  0  0  0  0  0  0  0  0
    2.2234  -20.5935   26.3053 N   0  0  0  0  0  0  0  0  0  0  0  0
    0.0851  -19.6439   26.5282 O   0  0  0  0  0  0  0  0  0  0  0  0
    3.1283  -20.3595   27.3485 C   0  0  2  0  0  0  0  0  0  0  0  0
    3.9038  -19.0447   27.0772 C   0  0  0  0  0  0  0  0  0  0  0  0
    3.9364  -19.8157   24.7244 C   0  0  0  0  0  0  0  0  0  0  0  0
    4.4633  -18.9575   25.7890 N   0  0  0  0  0  0  0  0  0  0  0  0
    4.0905  -21.5205   27.4985 C   0  0  0  0  0  0  0  0  0  0  0  0
    4.0802  -22.5173   26.4639 N   0  0  0  0  0  0  0  0  0  0  0  0
    7.5220  -23.0686   24.1130 C   0  0  0  0  0  0  0  0  0  0  0  0
    6.2834  -23.4433   23.6107 C   0  0  0  0  0  0  0  0  0  0  0  0
    5.1451  -23.2548   24.3851 C   0  0  0  0  0  0  0  0  0  0  0  0
    5.2479  -22.7056   25.6616 C   0  0  0  0  0  0  0  0  0  0  0  0
    6.4863  -22.3434   26.1624 C   0  0  0  0  0  0  0  0  0  0  0  0
    7.6236  -22.5215   25.3839 C   0  0  0  0  0  0  0  0  0  0  0  0
  1  2  1  0  0  0  0
  2  3  2  0  0  0  0
  2 20  1  0  0  0  0
  4  6  1  0  0  0  0
  5  6  2  0  0  0  0
  5 16  1  0  0  0  0
  6  7  1  0  0  0  0
  7  8  1  0  0  0  0
  8  9  1  0  0  0  0
  8 10  2  0  0  0  0
  9 12  1  0  0  0  0
  9 16  2  0  0  0  0
 11 13  1  0  0  0  0
 11 12  1  0  0  0  0
 12 14  1  0  0  0  0
 14 15  1  0  0  0  0
 14 18  1  6  0  0  0
 15 17  1  0  0  0  0
 16 17  1  0  0  0  0
 18 19  1  0  0  0  0
 19 23  1  0  0  0  0
 20 21  2  0  0  0  0
 20 25  1  0  0  0  0
 21 22  1  0  0  0  0
 22 23  2  0  0  0  0
 23 24  1  0  0  0  0
 24 25  2  0  0  0  0
M  END
>  <CHROM.1>
-87.91119949,10.03430349,116.05739940,-155.78703281,-127.69391212,4.53126375
-21.46467685,24.80432401,-0.36180191,-0.39826789,1.53173127

>  <Name>
ligand

>  <RI>
0

>  <Rbt.Current_Directory>
/home/itssahil/PROJECTS/Mol_Feturizer/New_Systems/rnas/4LVV

>  <Rbt.Executable>
rbdock ($Id: //depot/dev/client3/rdock/2013.1/src/exe/rbdock.cxx#4 $)

>  <Rbt.Library>
libRbt.so (2013.1, Build901 2013/11/27)

>  <Rbt.Parameter_File>
/export/apps/rDock/src/rDock_2013.1_src/data/scripts/dock_solv.prm

>  <Rbt.Receptor>
prm/pocket_docking_3.prm

>  <SCORE>
-12.0777

>  <SCORE.INTER>
-13.3023

>  <SCORE.INTER.CONST>
1

>  <SCORE.INTER.POLAR>
0

>  <SCORE.INTER.ROT>
5

>  <SCORE.INTER.SOLV>
14.3552

>  <SCORE.INTER.VDW>
-20.5866

>  <SCORE.INTER.norm>
-0.53209

>  <SCORE.INTRA>
1.22451

>  <SCORE.INTRA.DIHEDRAL>
5.24886

>  <SCORE.INTRA.DIHEDRAL.0>
3.94806

>  <SCORE.INTRA.POLAR>
0

>  <SCORE.INTRA.POLAR.0>
0

>  <SCORE.INTRA.REPUL>
0

>  <SCORE.INTRA.REPUL.0>
0

>  <SCORE.INTRA.SOLV>
2.07036

>  <SCORE.INTRA.SOLV.lig_0>
-70.9803

>  <SCORE.INTRA.VDW>
-2.43509

>  <SCORE.INTRA.VDW.0>
-0.709409

>  <SCORE.INTRA.norm>
0.0489806

>  <SCORE.RESTR>
0

>  <SCORE.RESTR.CAVITY>
0

>  <SCORE.RESTR.norm>
0

>  <SCORE.SYSTEM>
0

>  <SCORE.SYSTEM.CONST>
0

>  <SCORE.SYSTEM.DIHEDRAL>
0

>  <SCORE.SYSTEM.SOLV>
0

>  <SCORE.SYSTEM.norm>
0

>  <SCORE.heavy>
25

>  <SCORE.norm>
-0.48311

>  <RMSD>
3.759

$$$$
ligand
 OpenBabel11021811503D
libRbt.so/2013.1/901 2013/11/27
 25 27  0  0  0  0  0  0  0  0999 V2000
    9.7718  -24.0482   23.8761 N   0  0  0  0  0  0  0  0  0  0  0  0
    8.7132  -23.2661   23.3168 C   0  0  0  0  0  0  0  0  0  0  0  0
    8.8127  -22.7902   22.1927 O   0  0  0  0  0  0  0  0  0  0  0  0
    4.5884  -20.4550   21.2158 N   0  0  0  0  0  0  0  0  0  0  0  0
    4.4138  -19.6776   23.4809 N   0  0  0  0  0  0  0  0  0  0  0  0
    3.9689  -20.4974   22.5006 C   0  0  0  0  0  0  0  0  0  0  0  0
    2.9295  -21.3583   22.7170 N   0  0  0  0  0  0  0  0  0  0  0  0
    2.2980  -21.4382   23.9159 C   0  0  0  0  0  0  0  0  0  0  0  0
    2.7432  -20.6071   24.9716 C   0  0  0  0  0  0  0  0  0  0  0  0
    1.2661  -22.3328   24.0763 O   0  0  0  0  0  0  0  0  0  0  0  0
    0.7314  -20.6773   26.5356 C   0  0  0  0  0  0  0  0  0  0  0  0
    2.1505  -20.5647   26.2985 N   0  0  0  0  0  0  0  0  0  0  0  0
   -0.0386  -19.7255   26.4644 O   0  0  0  0  0  0  0  0  0  0  0  0
    3.0479  -20.2961   27.3397 C   0  0  2  0  0  0  0  0  0  0  0  0
    3.7621  -18.9460   27.0737 C   0  0  0  0  0  0  0  0  0  0  0  0
    3.8203  -19.7008   24.7161 C   0  0  0  0  0  0  0  0  0  0  0  0
    4.3121  -18.8260   25.7840 N   0  0  0  0  0  0  0  0  0  0  0  0
    4.0623  -21.4132   27.4793 C   0  0  0  0  0  0  0  0  0  0  0  0
    4.0480  -22.4399   26.4743 N   0  0  0  0  0  0  0  0  0  0  0  0
    7.4771  -23.0541   24.1206 C   0  0  0  0  0  0  0  0  0  0  0  0
    6.2296  -23.3885   23.6120 C   0  0  0  0  0  0  0  0  0  0  0  0
    5.0957  -23.1791   24.3874 C   0  0  0  0  0  0  0  0  0  0  0  0
    5.2114  -22.6495   25.6711 C   0  0  0  0  0  0  0  0  0  0  0  0
    6.4583  -22.3276   26.1780 C   0  0  0  0  0  0  0  0  0  0  0  0
    7.5915  -22.5265   25.3986 C   0  0  0  0  0  0  0  0  0  0  0  0
  1  2  1  0  0  0  0
  2  3  2  0  0  0  0
  2 20  1  0  0  0  0
  4  6  1  0  0  0  0
  5  6  2  0  0  0  0
  5 16  1  0  0  0  0
  6  7  1  0  0  0  0
  7  8  1  0  0  0  0
  8  9  1  0  0  0  0
  8 10  2  0  0  0  0
  9 12  1  0  0  0  0
  9 16  2  0  0  0  0
 11 13  1  0  0  0  0
 11 12  1  0  0  0  0
 12 14  1  0  0  0  0
 14 15  1  0  0  0  0
 14 18  1  6  0  0  0
 15 17  1  0  0  0  0
 16 17  1  0  0  0  0
 18 19  1  0  0  0  0
 19 23  1  0  0  0  0
 20 21  2  0  0  0  0
 20 25  1  0  0  0  0
 21 22  1  0  0  0  0
 22 23  2  0  0  0  0
 23 24  1  0  0  0  0
 24 25  2  0  0  0  0
M  END
>  <CHROM.1>
-83.88043929,6.98061664,119.14817097,-152.82101931,-124.83701802,4.46334894
-21.41346290,24.79838565,-0.33882992,-0.41614863,1.56642717

>  <Name>
ligand

>  <RI>
0

>  <Rbt.Current_Directory>
/home/itssahil/PROJECTS/Mol_Feturizer/New_Systems/rnas/4LVV

>  <Rbt.Executable>
rbdock ($Id: //depot/dev/client3/rdock/2013.1/src/exe/rbdock.cxx#4 $)

>  <Rbt.Library>
libRbt.so (2013.1, Build901 2013/11/27)

>  <Rbt.Parameter_File>
/export/apps/rDock/src/rDock_2013.1_src/data/scripts/dock_solv.prm

>  <Rbt.Receptor>
prm/pocket_docking_4.prm

>  <SCORE>
-12.1583

>  <SCORE.INTER>
-13.4739

>  <SCORE.INTER.CONST>
1

>  <SCORE.INTER.POLAR>
0

>  <SCORE.INTER.ROT>
5

>  <SCORE.INTER.SOLV>
14.8012

>  <SCORE.INTER.VDW>
-20.8497

>  <SCORE.INTER.norm>
-0.538957

>  <SCORE.INTRA>
1.31566

>  <SCORE.INTRA.DIHEDRAL>
5.44246

>  <SCORE.INTRA.DIHEDRAL.0>
3.94806

>  <SCORE.INTRA.POLAR>
0

>  <SCORE.INTRA.POLAR.0>
0

>  <SCORE.INTRA.REPUL>
0

>  <SCORE.INTRA.REPUL.0>
0

>  <SCORE.INTRA.SOLV>
1.97274

>  <SCORE.INTRA.SOLV.lig_0>
-70.9803

>  <SCORE.INTRA.VDW>
-2.39194

>  <SCORE.INTRA.VDW.0>
-0.709409

>  <SCORE.INTRA.norm>
0.0526263

>  <SCORE.RESTR>
0

>  <SCORE.RESTR.CAVITY>
0

>  <SCORE.RESTR.norm>
0

>  <SCORE.SYSTEM>
0

>  <SCORE.SYSTEM.CONST>
0

>  <SCORE.SYSTEM.DIHEDRAL>
0

>  <SCORE.SYSTEM.SOLV>
0

>  <SCORE.SYSTEM.norm>
0

>  <SCORE.heavy>
25

>  <SCORE.norm>
-0.48633

>  <RMSD>
3.772

$$$$
ligand
 OpenBabel11021811503D
libRbt.so/2013.1/901 2013/11/27
 25 27  0  0  0  0  0  0  0  0999 V2000
    9.7226  -24.1047   23.8447 N   0  0  0  0  0  0  0  0  0  0  0  0
    8.7062  -23.2462   23.3201 C   0  0  0  0  0  0  0  0  0  0  0  0
    8.8451  -22.7044   22.2304 O   0  0  0  0  0  0  0  0  0  0  0  0
    4.5245  -20.4693   21.2058 N   0  0  0  0  0  0  0  0  0  0  0  0
    4.3868  -19.6887   23.4722 N   0  0  0  0  0  0  0  0  0  0  0  0
    3.9166  -20.4994   22.4964 C   0  0  0  0  0  0  0  0  0  0  0  0
    2.8623  -21.3395   22.7228 N   0  0  0  0  0  0  0  0  0  0  0  0
    2.2408  -21.4069   23.9276 C   0  0  0  0  0  0  0  0  0  0  0  0
    2.7124  -20.5848   24.9789 C   0  0  0  0  0  0  0  0  0  0  0  0
    1.1928  -22.2808   24.0979 O   0  0  0  0  0  0  0  0  0  0  0  0
    0.7144  -20.6151   26.5619 C   0  0  0  0  0  0  0  0  0  0  0  0
    2.1332  -20.5306   26.3113 N   0  0  0  0  0  0  0  0  0  0  0  0
   -0.1249  -20.6347   25.6681 O   0  0  0  0  0  0  0  0  0  0  0  0
    3.0456  -20.2799   27.3440 C   0  0  2  0  0  0  0  0  0  0  0  0
    3.7838  -18.9443   27.0709 C   0  0  0  0  0  0  0  0  0  0  0  0
    3.8048  -19.7001   24.7130 C   0  0  0  0  0  0  0  0  0  0  0  0
    4.3239  -18.8351   25.7760 N   0  0  0  0  0  0  0  0  0  0  0  0
    4.0388  -21.4169   27.4741 C   0  0  0  0  0  0  0  0  0  0  0  0
    4.0209  -22.4227   26.4483 N   0  0  0  0  0  0  0  0  0  0  0  0
    7.4650  -23.0353   24.1162 C   0  0  0  0  0  0  0  0  0  0  0  0
    6.2229  -23.3895   23.6078 C   0  0  0  0  0  0  0  0  0  0  0  0
    5.0839  -23.1807   24.3759 C   0  0  0  0  0  0  0  0  0  0  0  0
    5.1894  -22.6318   25.6524 C   0  0  0  0  0  0  0  0  0  0  0  0
    6.4311  -22.2902   26.1593 C   0  0  0  0  0  0  0  0  0  0  0  0
    7.5692  -22.4886   25.3870 C   0  0  0  0  0  0  0  0  0  0  0  0
  1  2  1  0  0  0  0
  2  3  2  0  0  0  0
  2 20  1  0  0  0  0
  4  6  1  0  0  0  0
  5  6  2  0  0  0  0
  5 16  1  0  0  0  0
  6  7  1  0  0  0  0
  7  8  1  0  0  0  0
  8  9  1  0  0  0  0
  8 10  2  0  0  0  0
  9 12  1  0  0  0  0
  9 16  2  0  0  0  0
 11 13  1  0  0  0  0
 11 12  1  0  0  0  0
 12 14  1  0  0  0  0
 14 15  1  0  0  0  0
 14 18  1  6  0  0  0
 15 17  1  0  0  0  0
 16 17  1  0  0  0  0
 18 19  1  0  0  0  0
 19 23  1  0  0  0  0
 20 21  2  0  0  0  0
 20 25  1  0  0  0  0
 21 22  1  0  0  0  0
 22 23  2  0  0  0  0
 23 24  1  0  0  0  0
 24 25  2  0  0  0  0
M  END
>  <CHROM.1>
-5.87099918,8.74723309,118.86448663,-155.24735637,-119.46456822,4.43673506
-21.44167764,24.75924649,-0.32072672,-0.37841509,1.54008623

>  <Name>
ligand

>  <RI>
0

>  <Rbt.Current_Directory>
/home/itssahil/PROJECTS/Mol_Feturizer/New_Systems/rnas/4LVV

>  <Rbt.Executable>
rbdock ($Id: //depot/dev/client3/rdock/2013.1/src/exe/rbdock.cxx#4 $)

>  <Rbt.Library>
libRbt.so (2013.1, Build901 2013/11/27)

>  <Rbt.Parameter_File>
/export/apps/rDock/src/rDock_2013.1_src/data/scripts/dock_solv.prm

>  <Rbt.Receptor>
prm/pocket_docking_3.prm

>  <SCORE>
-12.073

>  <SCORE.INTER>
-13.9012

>  <SCORE.INTER.CONST>
1

>  <SCORE.INTER.POLAR>
0

>  <SCORE.INTER.ROT>
5

>  <SCORE.INTER.SOLV>
14.6162

>  <SCORE.INTER.VDW>
-21.0728

>  <SCORE.INTER.norm>
-0.556047

>  <SCORE.INTRA>
1.82813

>  <SCORE.INTRA.DIHEDRAL>
5.56982

>  <SCORE.INTRA.DIHEDRAL.0>
3.94806

>  <SCORE.INTRA.POLAR>
0

>  <SCORE.INTRA.POLAR.0>
0

>  <SCORE.INTRA.REPUL>
0

>  <SCORE.INTRA.REPUL.0>
0

>  <SCORE.INTRA.SOLV>
2.29855

>  <SCORE.INTRA.SOLV.lig_0>
-70.9803

>  <SCORE.INTRA.VDW>
-2.10605

>  <SCORE.INTRA.VDW.0>
-0.709409

>  <SCORE.INTRA.norm>
0.0731254

>  <SCORE.RESTR>
0

>  <SCORE.RESTR.CAVITY>
0

>  <SCORE.RESTR.norm>
0

>  <SCORE.SYSTEM>
0

>  <SCORE.SYSTEM.CONST>
0

>  <SCORE.SYSTEM.DIHEDRAL>
0

>  <SCORE.SYSTEM.SOLV>
0

>  <SCORE.SYSTEM.norm>
0

>  <SCORE.heavy>
25

>  <SCORE.norm>
-0.482921

>  <RMSD>
3.775

$$$$
ligand
 OpenBabel11021811503D
libRbt.so/2013.1/901 2013/11/27
 25 27  0  0  0  0  0  0  0  0999 V2000
    9.2111  -22.1627   22.4545 N   0  0  0  0  0  0  0  0  0  0  0  0
    8.7470  -23.2579   23.2487 C   0  0  0  0  0  0  0  0  0  0  0  0
    9.3346  -24.3325   23.2379 O   0  0  0  0  0  0  0  0  0  0  0  0
    4.6153  -20.6251   21.2229 N   0  0  0  0  0  0  0  0  0  0  0  0
    4.4955  -19.8388   23.4884 N   0  0  0  0  0  0  0  0  0  0  0  0
    4.0040  -20.6364   22.5122 C   0  0  0  0  0  0  0  0  0  0  0  0
    2.9254  -21.4454   22.7370 N   0  0  0  0  0  0  0  0  0  0  0  0
    2.2996  -21.4937   23.9406 C   0  0  0  0  0  0  0  0  0  0  0  0
    2.7926  -20.6847   24.9923 C   0  0  0  0  0  0  0  0  0  0  0  0
    1.2264  -22.3368   24.1094 O   0  0  0  0  0  0  0  0  0  0  0  0
    0.7913  -20.6558   26.5710 C   0  0  0  0  0  0  0  0  0  0  0  0
    2.2124  -20.6126   26.3234 N   0  0  0  0  0  0  0  0  0  0  0  0
    0.0684  -19.6674   26.5056 O   0  0  0  0  0  0  0  0  0  0  0  0
    3.1295  -20.3876   27.3578 C   0  0  2  0  0  0  0  0  0  0  0  0
    3.9067  -19.0741   27.0852 C   0  0  0  0  0  0  0  0  0  0  0  0
    3.9107  -19.8323   24.7280 C   0  0  0  0  0  0  0  0  0  0  0  0
    4.4524  -18.9818   25.7914 N   0  0  0  0  0  0  0  0  0  0  0  0
    4.0891  -21.5528   27.4910 C   0  0  0  0  0  0  0  0  0  0  0  0
    4.0858  -22.5277   26.4356 N   0  0  0  0  0  0  0  0  0  0  0  0
    7.5435  -23.0631   24.1045 C   0  0  0  0  0  0  0  0  0  0  0  0
    7.6576  -22.5513   25.3898 C   0  0  0  0  0  0  0  0  0  0  0  0
    6.5155  -22.3808   26.1626 C   0  0  0  0  0  0  0  0  0  0  0  0
    5.2635  -22.7089   25.6464 C   0  0  0  0  0  0  0  0  0  0  0  0
    5.1536  -23.2088   24.3605 C   0  0  0  0  0  0  0  0  0  0  0  0
    6.2967  -23.3899   23.5913 C   0  0  0  0  0  0  0  0  0  0  0  0
  1  2  1  0  0  0  0
  2  3  2  0  0  0  0
  2 20  1  0  0  0  0
  4  6  1  0  0  0  0
  5  6  2  0  0  0  0
  5 16  1  0  0  0  0
  6  7  1  0  0  0  0
  7  8  1  0  0  0  0
  8  9  1  0  0  0  0
  8 10  2  0  0  0  0
  9 12  1  0  0  0  0
  9 16  2  0  0  0  0
 11 13  1  0  0  0  0
 11 12  1  0  0  0  0
 12 14  1  0  0  0  0
 14 15  1  0  0  0  0
 14 18  1  6  0  0  0
 15 17  1  0  0  0  0
 16 17  1  0  0  0  0
 18 19  1  0  0  0  0
 19 23  1  0  0  0  0
 20 21  2  0  0  0  0
 20 25  1  0  0  0  0
 21 22  1  0  0  0  0
 22 23  2  0  0  0  0
 23 24  1  0  0  0  0
 24 25  2  0  0  0  0
M  END
>  <CHROM.1>
-83.94092473,11.43764156,116.60764609,24.96337419,-86.79869007,4.51627105
-21.47008448,24.79271497,0.36647476,0.39854353,-1.59791365

>  <Name>
ligand

>  <RI>
0

>  <Rbt.Current_Directory>
/home/itssahil/PROJECTS/Mol_Feturizer/New_Systems/rnas/4LVV

>  <Rbt.Executable>
rbdock ($Id: //depot/dev/client3/rdock/2013.1/src/exe/rbdock.cxx#4 $)

>  <Rbt.Library>
libRbt.so (2013.1, Build901 2013/11/27)

>  <Rbt.Parameter_File>
/export/apps/rDock/src/rDock_2013.1_src/data/scripts/dock_solv.prm

>  <Rbt.Receptor>
prm/pocket_docking_3.prm

>  <SCORE>
-12.2067

>  <SCORE.INTER>
-13.2091

>  <SCORE.INTER.CONST>
1

>  <SCORE.INTER.POLAR>
0

>  <SCORE.INTER.ROT>
5

>  <SCORE.INTER.SOLV>
14.4358

>  <SCORE.INTER.VDW>
-20.5513

>  <SCORE.INTER.norm>
-0.528363

>  <SCORE.INTRA>
1.00236

>  <SCORE.INTRA.DIHEDRAL>
5.11672

>  <SCORE.INTRA.DIHEDRAL.0>
3.94806

>  <SCORE.INTRA.POLAR>
0

>  <SCORE.INTRA.POLAR.0>
0

>  <SCORE.INTRA.REPUL>
0

>  <SCORE.INTRA.REPUL.0>
0

>  <SCORE.INTRA.SOLV>
2.0862

>  <SCORE.INTRA.SOLV.lig_0>
-70.9803

>  <SCORE.INTRA.VDW>
-2.5991

>  <SCORE.INTRA.VDW.0>
-0.709409

>  <SCORE.INTRA.norm>
0.0400944

>  <SCORE.RESTR>
0

>  <SCORE.RESTR.CAVITY>
0

>  <SCORE.RESTR.norm>
0

>  <SCORE.SYSTEM>
0

>  <SCORE.SYSTEM.CONST>
0

>  <SCORE.SYSTEM.DIHEDRAL>
0

>  <SCORE.SYSTEM.SOLV>
0

>  <SCORE.SYSTEM.norm>
0

>  <SCORE.heavy>
25

>  <SCORE.norm>
-0.488269

>  <RMSD>
3.777

$$$$
ligand
 OpenBabel11021811503D
libRbt.so/2013.1/901 2013/11/27
 25 27  0  0  0  0  0  0  0  0999 V2000
    9.7454  -22.3131   23.6181 N   0  0  0  0  0  0  0  0  0  0  0  0
    8.6998  -23.2852   23.5334 C   0  0  0  0  0  0  0  0  0  0  0  0
    8.8409  -24.2997   22.8620 O   0  0  0  0  0  0  0  0  0  0  0  0
    4.6574  -20.8657   21.2324 N   0  0  0  0  0  0  0  0  0  0  0  0
    4.5343  -19.9265   23.4387 N   0  0  0  0  0  0  0  0  0  0  0  0
    4.0184  -20.7574   22.5037 C   0  0  0  0  0  0  0  0  0  0  0  0
    2.8898  -21.4871   22.7524 N   0  0  0  0  0  0  0  0  0  0  0  0
    2.2361  -21.4205   23.9402 C   0  0  0  0  0  0  0  0  0  0  0  0
    2.7524  -20.5733   24.9499 C   0  0  0  0  0  0  0  0  0  0  0  0
    1.1120  -22.1882   24.1354 O   0  0  0  0  0  0  0  0  0  0  0  0
    0.7222  -20.3268   26.4717 C   0  0  0  0  0  0  0  0  0  0  0  0
    2.1485  -20.3810   26.2582 N   0  0  0  0  0  0  0  0  0  0  0  0
    0.0319  -21.3246   26.6498 O   0  0  0  0  0  0  0  0  0  0  0  0
    3.0544  -20.1409   27.2991 C   0  0  2  0  0  0  0  0  0  0  0  0
    3.9128  -18.8946   26.9625 C   0  0  0  0  0  0  0  0  0  0  0  0
    3.9240  -19.8052   24.6599 C   0  0  0  0  0  0  0  0  0  0  0  0
    4.4911  -18.9188   25.6799 N   0  0  0  0  0  0  0  0  0  0  0  0
    3.9411  -21.3475   27.5316 C   0  0  0  0  0  0  0  0  0  0  0  0
    3.9394  -22.3663   26.5185 N   0  0  0  0  0  0  0  0  0  0  0  0
    7.4396  -23.0499   24.2918 C   0  0  0  0  0  0  0  0  0  0  0  0
    6.2093  -23.4116   23.7604 C   0  0  0  0  0  0  0  0  0  0  0  0
    5.0519  -23.1794   24.4936 C   0  0  0  0  0  0  0  0  0  0  0  0
    5.1271  -22.5995   25.7584 C   0  0  0  0  0  0  0  0  0  0  0  0
    6.3568  -22.2504   26.2886 C   0  0  0  0  0  0  0  0  0  0  0  0
    7.5136  -22.4723   25.5511 C   0  0  0  0  0  0  0  0  0  0  0  0
  1  2  1  0  0  0  0
  2  3  2  0  0  0  0
  2 20  1  0  0  0  0
  4  6  1  0  0  0  0
  5  6  2  0  0  0  0
  5 16  1  0  0  0  0
  6  7  1  0  0  0  0
  7  8  1  0  0  0  0
  8  9  1  0  0  0  0
  8 10  2  0  0  0  0
  9 12  1  0  0  0  0
  9 16  2  0  0  0  0
 11 13  1  0  0  0  0
 11 12  1  0  0  0  0
 12 14  1  0  0  0  0
 14 15  1  0  0  0  0
 14 18  1  6  0  0  0
 15 17  1  0  0  0  0
 16 17  1  0  0  0  0
 18 19  1  0  0  0  0
 19 23  1  0  0  0  0
 20 21  2  0  0  0  0
 20 25  1  0  0  0  0
 21 22  1  0  0  0  0
 22 23  2  0  0  0  0
 23 24  1  0  0  0  0
 24 25  2  0  0  0  0
M  END
>  <CHROM.1>
86.45071159,13.56919845,113.65770812,-156.06864529,142.99312984,4.45983789
-21.48942551,24.85483656,-0.37988890,-0.31971101,1.42337438

>  <Name>
ligand

>  <RI>
0

>  <Rbt.Current_Directory>
/home/itssahil/PROJECTS/Mol_Feturizer/New_Systems/rnas/4LVV

>  <Rbt.Executable>
rbdock ($Id: //depot/dev/client3/rdock/2013.1/src/exe/rbdock.cxx#4 $)

>  <Rbt.Library>
libRbt.so (2013.1, Build901 2013/11/27)

>  <Rbt.Parameter_File>
/export/apps/rDock/src/rDock_2013.1_src/data/scripts/dock_solv.prm

>  <Rbt.Receptor>
prm/pocket_docking_4.prm

>  <SCORE>
-12.6098

>  <SCORE.INTER>
-14.0822

>  <SCORE.INTER.CONST>
1

>  <SCORE.INTER.POLAR>
0

>  <SCORE.INTER.ROT>
5

>  <SCORE.INTER.SOLV>
14.591

>  <SCORE.INTER.VDW>
-21.1851

>  <SCORE.INTER.norm>
-0.563289

>  <SCORE.INTRA>
1.47239

>  <SCORE.INTRA.DIHEDRAL>
5.2299

>  <SCORE.INTRA.DIHEDRAL.0>
3.94806

>  <SCORE.INTRA.POLAR>
0

>  <SCORE.INTRA.POLAR.0>
0

>  <SCORE.INTRA.REPUL>
0

>  <SCORE.INTRA.REPUL.0>
0

>  <SCORE.INTRA.SOLV>
2.68065

>  <SCORE.INTRA.SOLV.lig_0>
-70.9803

>  <SCORE.INTRA.VDW>
-2.48288

>  <SCORE.INTRA.VDW.0>
-0.709409

>  <SCORE.INTRA.norm>
0.0588956

>  <SCORE.RESTR>
0

>  <SCORE.RESTR.CAVITY>
0

>  <SCORE.RESTR.norm>
0

>  <SCORE.SYSTEM>
0

>  <SCORE.SYSTEM.CONST>
0

>  <SCORE.SYSTEM.DIHEDRAL>
0

>  <SCORE.SYSTEM.SOLV>
0

>  <SCORE.SYSTEM.norm>
0

>  <SCORE.heavy>
25

>  <SCORE.norm>
-0.504393

>  <RMSD>
3.792

$$$$
ligand
 OpenBabel11021811503D
libRbt.so/2013.1/901 2013/11/27
 25 27  0  0  0  0  0  0  0  0999 V2000
    9.4049  -22.1682   22.8344 N   0  0  0  0  0  0  0  0  0  0  0  0
    8.6539  -23.2965   23.2906 C   0  0  0  0  0  0  0  0  0  0  0  0
    8.9939  -24.4357   22.9960 O   0  0  0  0  0  0  0  0  0  0  0  0
    4.5450  -20.4740   21.2227 N   0  0  0  0  0  0  0  0  0  0  0  0
    4.3904  -19.6842   23.4849 N   0  0  0  0  0  0  0  0  0  0  0  0
    3.9309  -20.5028   22.5104 C   0  0  0  0  0  0  0  0  0  0  0  0
    2.8818  -21.3496   22.7354 N   0  0  0  0  0  0  0  0  0  0  0  0
    2.2548  -21.4161   23.9375 C   0  0  0  0  0  0  0  0  0  0  0  0
    2.7151  -20.5858   24.9874 C   0  0  0  0  0  0  0  0  0  0  0  0
    1.2125  -22.2970   24.1067 O   0  0  0  0  0  0  0  0  0  0  0  0
    0.7097  -20.6238   26.5607 C   0  0  0  0  0  0  0  0  0  0  0  0
    2.1290  -20.5300   26.3167 N   0  0  0  0  0  0  0  0  0  0  0  0
   -0.1249  -20.6555   25.6628 O   0  0  0  0  0  0  0  0  0  0  0  0
    3.0345  -20.2679   27.3527 C   0  0  2  0  0  0  0  0  0  0  0  0
    3.7642  -18.9281   27.0772 C   0  0  0  0  0  0  0  0  0  0  0  0
    3.8024  -19.6944   24.7229 C   0  0  0  0  0  0  0  0  0  0  0  0
    4.3099  -18.8208   25.7845 N   0  0  0  0  0  0  0  0  0  0  0  0
    4.0354  -21.3970   27.4928 C   0  0  0  0  0  0  0  0  0  0  0  0
    4.0201  -22.4152   26.4793 N   0  0  0  0  0  0  0  0  0  0  0  0
    7.4577  -23.0624   24.1468 C   0  0  0  0  0  0  0  0  0  0  0  0
    7.5878  -22.5418   25.4270 C   0  0  0  0  0  0  0  0  0  0  0  0
    6.4522  -22.3343   26.2004 C   0  0  0  0  0  0  0  0  0  0  0  0
    5.1909  -22.6345   25.6895 C   0  0  0  0  0  0  0  0  0  0  0  0
    5.0653  -23.1433   24.4086 C   0  0  0  0  0  0  0  0  0  0  0  0
    6.2017  -23.3613   23.6390 C   0  0  0  0  0  0  0  0  0  0  0  0
  1  2  1  0  0  0  0
  2  3  2  0  0  0  0
  2 20  1  0  0  0  0
  4  6  1  0  0  0  0
  5  6  2  0  0  0  0
  5 16  1  0  0  0  0
  6  7  1  0  0  0  0
  7  8  1  0  0  0  0
  8  9  1  0  0  0  0
  8 10  2  0  0  0  0
  9 12  1  0  0  0  0
  9 16  2  0  0  0  0
 11 13  1  0  0  0  0
 11 12  1  0  0  0  0
 12 14  1  0  0  0  0
 14 15  1  0  0  0  0
 14 18  1  6  0  0  0
 15 17  1  0  0  0  0
 16 17  1  0  0  0  0
 18 19  1  0  0  0  0
 19 23  1  0  0  0  0
 20 21  2  0  0  0  0
 20 25  1  0  0  0  0
 21 22  1  0  0  0  0
 22 23  2  0  0  0  0
 23 24  1  0  0  0  0
 24 25  2  0  0  0  0
M  END
>  <CHROM.1>
-5.75604108,8.09062968,119.41379561,27.22992460,-66.65364243,4.42983295,-21.44736084
24.76684258,0.34488478,0.37526069,-1.63055320

>  <Name>
ligand

>  <RI>
0

>  <Rbt.Current_Directory>
/home/itssahil/PROJECTS/Mol_Feturizer/New_Systems/rnas/4LVV

>  <Rbt.Executable>
rbdock ($Id: //depot/dev/client3/rdock/2013.1/src/exe/rbdock.cxx#4 $)

>  <Rbt.Library>
libRbt.so (2013.1, Build901 2013/11/27)

>  <Rbt.Parameter_File>
/export/apps/rDock/src/rDock_2013.1_src/data/scripts/dock_solv.prm

>  <Rbt.Receptor>
prm/pocket_docking_4.prm

>  <SCORE>
-12.2632

>  <SCORE.INTER>
-13.9408

>  <SCORE.INTER.CONST>
1

>  <SCORE.INTER.POLAR>
0

>  <SCORE.INTER.ROT>
5

>  <SCORE.INTER.SOLV>
14.6484

>  <SCORE.INTER.VDW>
-21.11

>  <SCORE.INTER.norm>
-0.557631

>  <SCORE.INTRA>
1.6776

>  <SCORE.INTRA.DIHEDRAL>
5.60252

>  <SCORE.INTRA.DIHEDRAL.0>
3.94806

>  <SCORE.INTRA.POLAR>
0

>  <SCORE.INTRA.POLAR.0>
0

>  <SCORE.INTRA.REPUL>
0

>  <SCORE.INTRA.REPUL.0>
0

>  <SCORE.INTRA.SOLV>
2.27595

>  <SCORE.INTRA.SOLV.lig_0>
-70.9803

>  <SCORE.INTRA.VDW>
-2.26163

>  <SCORE.INTRA.VDW.0>
-0.709409

>  <SCORE.INTRA.norm>
0.0671042

>  <SCORE.RESTR>
0

>  <SCORE.RESTR.CAVITY>
0

>  <SCORE.RESTR.norm>
0

>  <SCORE.SYSTEM>
0

>  <SCORE.SYSTEM.CONST>
0

>  <SCORE.SYSTEM.DIHEDRAL>
0

>  <SCORE.SYSTEM.SOLV>
0

>  <SCORE.SYSTEM.norm>
0

>  <SCORE.heavy>
25

>  <SCORE.norm>
-0.490526

>  <RMSD>
3.798

$$$$
ligand
 OpenBabel11021811503D
libRbt.so/2013.1/901 2013/11/27
 25 27  0  0  0  0  0  0  0  0999 V2000
    9.1927  -24.4746   23.0792 N   0  0  0  0  0  0  0  0  0  0  0  0
    8.6148  -23.1697   23.1720 C   0  0  0  0  0  0  0  0  0  0  0  0
    9.0764  -22.2333   22.5315 O   0  0  0  0  0  0  0  0  0  0  0  0
    4.5144  -20.4857   21.2055 N   0  0  0  0  0  0  0  0  0  0  0  0
    4.3778  -19.7021   23.4710 N   0  0  0  0  0  0  0  0  0  0  0  0
    3.9065  -20.5135   22.4962 C   0  0  0  0  0  0  0  0  0  0  0  0
    2.8514  -21.3522   22.7237 N   0  0  0  0  0  0  0  0  0  0  0  0
    2.2299  -21.4174   23.9287 C   0  0  0  0  0  0  0  0  0  0  0  0
    2.7025  -20.5945   24.9790 C   0  0  0  0  0  0  0  0  0  0  0  0
    1.1810  -22.2900   24.1002 O   0  0  0  0  0  0  0  0  0  0  0  0
    0.7047  -20.6208   26.5622 C   0  0  0  0  0  0  0  0  0  0  0  0
    2.1235  -20.5381   26.3113 N   0  0  0  0  0  0  0  0  0  0  0  0
   -0.1359  -20.6183   25.6693 O   0  0  0  0  0  0  0  0  0  0  0  0
    3.0363  -20.2871   27.3436 C   0  0  2  0  0  0  0  0  0  0  0  0
    3.7759  -18.9526   27.0688 C   0  0  0  0  0  0  0  0  0  0  0  0
    3.7958  -19.7113   24.7118 C   0  0  0  0  0  0  0  0  0  0  0  0
    4.3160  -18.8456   25.7737 N   0  0  0  0  0  0  0  0  0  0  0  0
    4.0283  -21.4250   27.4750 C   0  0  0  0  0  0  0  0  0  0  0  0
    4.0158  -22.4269   26.4453 N   0  0  0  0  0  0  0  0  0  0  0  0
    7.4280  -22.9724   24.0503 C   0  0  0  0  0  0  0  0  0  0  0  0
    7.5710  -22.4959   25.3461 C   0  0  0  0  0  0  0  0  0  0  0  0
    6.4438  -22.3221   26.1399 C   0  0  0  0  0  0  0  0  0  0  0  0
    5.1781  -22.6117   25.6343 C   0  0  0  0  0  0  0  0  0  0  0  0
    5.0395  -23.0764   24.3381 C   0  0  0  0  0  0  0  0  0  0  0  0
    6.1675  -23.2610   23.5476 C   0  0  0  0  0  0  0  0  0  0  0  0
  1  2  1  0  0  0  0
  2  3  2  0  0  0  0
  2 20  1  0  0  0  0
  4  6  1  0  0  0  0
  5  6  2  0  0  0  0
  5 16  1  0  0  0  0
  6  7  1  0  0  0  0
  7  8  1  0  0  0  0
  8  9  1  0  0  0  0
  8 10  2  0  0  0  0
  9 12  1  0  0  0  0
  9 16  2  0  0  0  0
 11 13  1  0  0  0  0
 11 12  1  0  0  0  0
 12 14  1  0  0  0  0
 14 15  1  0  0  0  0
 14 18  1  6  0  0  0
 15 17  1  0  0  0  0
 16 17  1  0  0  0  0
 18 19  1  0  0  0  0
 19 23  1  0  0  0  0
 20 21  2  0  0  0  0
 20 25  1  0  0  0  0
 21 22  1  0  0  0  0
 22 23  2  0  0  0  0
 23 24  1  0  0  0  0
 24 25  2  0  0  0  0
M  END
>  <CHROM.1>
-7.11316814,9.19168317,117.39465861,28.52829369,96.49226597,4.41115962,-21.42710640
24.72731395,-0.35834474,-0.36708204,1.52525503

>  <Name>
ligand

>  <RI>
0

>  <Rbt.Current_Directory>
/home/itssahil/PROJECTS/Mol_Feturizer/New_Systems/rnas/4LVV

>  <Rbt.Executable>
rbdock ($Id: //depot/dev/client3/rdock/2013.1/src/exe/rbdock.cxx#4 $)

>  <Rbt.Library>
libRbt.so (2013.1, Build901 2013/11/27)

>  <Rbt.Parameter_File>
/export/apps/rDock/src/rDock_2013.1_src/data/scripts/dock_solv.prm

>  <Rbt.Receptor>
prm/pocket_docking_4.prm

>  <SCORE>
-12.0298

>  <SCORE.INTER>
-13.531

>  <SCORE.INTER.CONST>
1

>  <SCORE.INTER.POLAR>
0

>  <SCORE.INTER.ROT>
5

>  <SCORE.INTER.SOLV>
15.082

>  <SCORE.INTER.VDW>
-20.9813

>  <SCORE.INTER.norm>
-0.541241

>  <SCORE.INTRA>
1.5012

>  <SCORE.INTRA.DIHEDRAL>
5.57784

>  <SCORE.INTRA.DIHEDRAL.0>
3.94806

>  <SCORE.INTRA.POLAR>
0

>  <SCORE.INTRA.POLAR.0>
0

>  <SCORE.INTRA.REPUL>
0

>  <SCORE.INTRA.REPUL.0>
0

>  <SCORE.INTRA.SOLV>
2.31853

>  <SCORE.INTRA.SOLV.lig_0>
-70.9803

>  <SCORE.INTRA.VDW>
-2.44699

>  <SCORE.INTRA.VDW.0>
-0.709409

>  <SCORE.INTRA.norm>
0.0600479

>  <SCORE.RESTR>
0

>  <SCORE.RESTR.CAVITY>
0

>  <SCORE.RESTR.norm>
0

>  <SCORE.SYSTEM>
0

>  <SCORE.SYSTEM.CONST>
0

>  <SCORE.SYSTEM.DIHEDRAL>
0

>  <SCORE.SYSTEM.SOLV>
0

>  <SCORE.SYSTEM.norm>
0

>  <SCORE.heavy>
25

>  <SCORE.norm>
-0.481193

>  <RMSD>
3.813

$$$$
ligand
 OpenBabel11021811503D
libRbt.so/2013.1/901 2013/11/27
 25 27  0  0  0  0  0  0  0  0999 V2000
    8.8558  -22.5677   22.1038 N   0  0  0  0  0  0  0  0  0  0  0  0
    8.7044  -23.3153   23.3136 C   0  0  0  0  0  0  0  0  0  0  0  0
    9.5604  -24.1176   23.6652 O   0  0  0  0  0  0  0  0  0  0  0  0
    4.5497  -20.5084   21.1738 N   0  0  0  0  0  0  0  0  0  0  0  0
    4.3627  -19.7243   23.4356 N   0  0  0  0  0  0  0  0  0  0  0  0
    3.9254  -20.5493   22.4563 C   0  0  0  0  0  0  0  0  0  0  0  0
    2.8890  -21.4142   22.6715 N   0  0  0  0  0  0  0  0  0  0  0  0
    2.2532  -21.4929   23.8682 C   0  0  0  0  0  0  0  0  0  0  0  0
    2.6904  -20.6563   24.9229 C   0  0  0  0  0  0  0  0  0  0  0  0
    1.2246  -22.3916   24.0276 O   0  0  0  0  0  0  0  0  0  0  0  0
    0.6728  -20.7304   26.4792 C   0  0  0  0  0  0  0  0  0  0  0  0
    2.0923  -20.6121   26.2472 N   0  0  0  0  0  0  0  0  0  0  0  0
   -0.0840  -19.7661   26.5152 O   0  0  0  0  0  0  0  0  0  0  0  0
    2.9844  -20.3360   27.2911 C   0  0  2  0  0  0  0  0  0  0  0  0
    3.6935  -18.9836   27.0233 C   0  0  0  0  0  0  0  0  0  0  0  0
    3.7645  -19.7460   24.6685 C   0  0  0  0  0  0  0  0  0  0  0  0
    4.2481  -18.8654   25.7354 N   0  0  0  0  0  0  0  0  0  0  0  0
    4.0032  -21.4480   27.4384 C   0  0  0  0  0  0  0  0  0  0  0  0
    4.0123  -22.4662   26.4248 N   0  0  0  0  0  0  0  0  0  0  0  0
    7.4926  -23.0880   24.1495 C   0  0  0  0  0  0  0  0  0  0  0  0
    7.5917  -22.5057   25.4057 C   0  0  0  0  0  0  0  0  0  0  0  0
    6.4421  -22.3065   26.1604 C   0  0  0  0  0  0  0  0  0  0  0  0
    5.1976  -22.6767   25.6545 C   0  0  0  0  0  0  0  0  0  0  0  0
    5.1026  -23.2470   24.3971 C   0  0  0  0  0  0  0  0  0  0  0  0
    6.2533  -23.4566   23.6466 C   0  0  0  0  0  0  0  0  0  0  0  0
  1  2  1  0  0  0  0
  2  3  2  0  0  0  0
  2 20  1  0  0  0  0
  4  6  1  0  0  0  0
  5  6  2  0  0  0  0
  5 16  1  0  0  0  0
  6  7  1  0  0  0  0
  7  8  1  0  0  0  0
  8  9  1  0  0  0  0
  8 10  2  0  0  0  0
  9 12  1  0  0  0  0
  9 16  2  0  0  0  0
 11 13  1  0  0  0  0
 11 12  1  0  0  0  0
 12 14  1  0  0  0  0
 14 15  1  0  0  0  0
 14 18  1  6  0  0  0
 15 17  1  0  0  0  0
 16 17  1  0  0  0  0
 18 19  1  0  0  0  0
 19 23  1  0  0  0  0
 20 21  2  0  0  0  0
 20 25  1  0  0  0  0
 21 22  1  0  0  0  0
 22 23  2  0  0  0  0
 23 24  1  0  0  0  0
 24 25  2  0  0  0  0
M  END
>  <CHROM.1>
-90.35177473,7.98756738,120.17195129,24.08626421,-112.80581817,4.42732173
-21.45249708,24.76949000,0.33301439,0.41463399,-1.56702805

>  <Name>
ligand

>  <RI>
0

>  <Rbt.Current_Directory>
/home/itssahil/PROJECTS/Mol_Feturizer/New_Systems/rnas/4LVV

>  <Rbt.Executable>
rbdock ($Id: //depot/dev/client3/rdock/2013.1/src/exe/rbdock.cxx#4 $)

>  <Rbt.Library>
libRbt.so (2013.1, Build901 2013/11/27)

>  <Rbt.Parameter_File>
/export/apps/rDock/src/rDock_2013.1_src/data/scripts/dock_solv.prm

>  <Rbt.Receptor>
prm/pocket_docking_3.prm

>  <SCORE>
-12.3251

>  <SCORE.INTER>
-13.6301

>  <SCORE.INTER.CONST>
1

>  <SCORE.INTER.POLAR>
0

>  <SCORE.INTER.ROT>
5

>  <SCORE.INTER.SOLV>
14.9054

>  <SCORE.INTER.VDW>
-20.9885

>  <SCORE.INTER.norm>
-0.545203

>  <SCORE.INTRA>
1.30499

>  <SCORE.INTRA.DIHEDRAL>
5.37691

>  <SCORE.INTRA.DIHEDRAL.0>
3.94806

>  <SCORE.INTRA.POLAR>
0

>  <SCORE.INTRA.POLAR.0>
0

>  <SCORE.INTRA.REPUL>
0

>  <SCORE.INTRA.REPUL.0>
0

>  <SCORE.INTRA.SOLV>
1.97027

>  <SCORE.INTRA.SOLV.lig_0>
-70.9803

>  <SCORE.INTRA.VDW>
-2.3686

>  <SCORE.INTRA.VDW.0>
-0.709409

>  <SCORE.INTRA.norm>
0.0521995

>  <SCORE.RESTR>
0

>  <SCORE.RESTR.CAVITY>
0

>  <SCORE.RESTR.norm>
0

>  <SCORE.SYSTEM>
0

>  <SCORE.SYSTEM.CONST>
0

>  <SCORE.SYSTEM.DIHEDRAL>
0

>  <SCORE.SYSTEM.SOLV>
0

>  <SCORE.SYSTEM.norm>
0

>  <SCORE.heavy>
25

>  <SCORE.norm>
-0.493004

>  <RMSD>
3.814

$$$$
ligand
 OpenBabel11021811503D
libRbt.so/2013.1/901 2013/11/27
 25 27  0  0  0  0  0  0  0  0999 V2000
    9.6644  -23.8854   23.7979 N   0  0  0  0  0  0  0  0  0  0  0  0
    8.4588  -23.3614   23.2345 C   0  0  0  0  0  0  0  0  0  0  0  0
    8.3719  -23.1451   22.0321 O   0  0  0  0  0  0  0  0  0  0  0  0
    4.6155  -20.7415   21.2306 N   0  0  0  0  0  0  0  0  0  0  0  0
    4.4477  -19.8187   23.4409 N   0  0  0  0  0  0  0  0  0  0  0  0
    3.9849  -20.6840   22.5093 C   0  0  0  0  0  0  0  0  0  0  0  0
    2.9171  -21.4970   22.7687 N   0  0  0  0  0  0  0  0  0  0  0  0
    2.2740  -21.4820   23.9640 C   0  0  0  0  0  0  0  0  0  0  0  0
    2.7369  -20.6005   24.9702 C   0  0  0  0  0  0  0  0  0  0  0  0
    1.2130  -22.3322   24.1698 O   0  0  0  0  0  0  0  0  0  0  0  0
    0.7115  -20.5101   26.5156 C   0  0  0  0  0  0  0  0  0  0  0  0
    2.1353  -20.4567   26.2859 N   0  0  0  0  0  0  0  0  0  0  0  0
   -0.1088  -20.6503   25.6149 O   0  0  0  0  0  0  0  0  0  0  0  0
    3.0326  -20.1514   27.3172 C   0  0  2  0  0  0  0  0  0  0  0  0
    3.7911  -18.8434   26.9745 C   0  0  0  0  0  0  0  0  0  0  0  0
    3.8441  -19.7460   24.6692 C   0  0  0  0  0  0  0  0  0  0  0  0
    4.3548  -18.8216   25.6852 N   0  0  0  0  0  0  0  0  0  0  0  0
    4.0100  -21.2885   27.5361 C   0  0  0  0  0  0  0  0  0  0  0  0
    3.9714  -22.3751   26.5969 N   0  0  0  0  0  0  0  0  0  0  0  0
    7.3019  -23.0989   24.1352 C   0  0  0  0  0  0  0  0  0  0  0  0
    7.4880  -22.5306   25.3879 C   0  0  0  0  0  0  0  0  0  0  0  0
    6.3878  -22.2977   26.2042 C   0  0  0  0  0  0  0  0  0  0  0  0
    5.1060  -22.6203   25.7631 C   0  0  0  0  0  0  0  0  0  0  0  0
    4.9243  -23.1768   24.5091 C   0  0  0  0  0  0  0  0  0  0  0  0
    6.0254  -23.4202   23.6969 C   0  0  0  0  0  0  0  0  0  0  0  0
  1  2  1  0  0  0  0
  2  3  2  0  0  0  0
  2 20  1  0  0  0  0
  4  6  1  0  0  0  0
  5  6  2  0  0  0  0
  5 16  1  0  0  0  0
  6  7  1  0  0  0  0
  7  8  1  0  0  0  0
  8  9  1  0  0  0  0
  8 10  2  0  0  0  0
  9 12  1  0  0  0  0
  9 16  2  0  0  0  0
 11 13  1  0  0  0  0
 11 12  1  0  0  0  0
 12 14  1  0  0  0  0
 14 15  1  0  0  0  0
 14 18  1  6  0  0  0
 15 17  1  0  0  0  0
 16 17  1  0  0  0  0
 18 19  1  0  0  0  0
 19 23  1  0  0  0  0
 20 21  2  0  0  0  0
 20 25  1  0  0  0  0
 21 22  1  0  0  0  0
 22 23  2  0  0  0  0
 23 24  1  0  0  0  0
 24 25  2  0  0  0  0
M  END
>  <CHROM.1>
-1.75179592,6.99522952,115.43378917,29.50745148,41.22836437,4.39056582,-21.47594775
24.75837261,-0.38612901,-0.37292013,1.44921747

>  <Name>
ligand

>  <RI>
0

>  <Rbt.Current_Directory>
/home/itssahil/PROJECTS/Mol_Feturizer/New_Systems/rnas/4LVV

>  <Rbt.Executable>
rbdock ($Id: //depot/dev/client3/rdock/2013.1/src/exe/rbdock.cxx#4 $)

>  <Rbt.Library>
libRbt.so (2013.1, Build901 2013/11/27)

>  <Rbt.Parameter_File>
/export/apps/rDock/src/rDock_2013.1_src/data/scripts/dock_solv.prm

>  <Rbt.Receptor>
prm/pocket_docking_3.prm

>  <SCORE>
-12.1906

>  <SCORE.INTER>
-13.8176

>  <SCORE.INTER.CONST>
1

>  <SCORE.INTER.POLAR>
0

>  <SCORE.INTER.ROT>
5

>  <SCORE.INTER.SOLV>
14.8258

>  <SCORE.INTER.VDW>
-21.087

>  <SCORE.INTER.norm>
-0.552705

>  <SCORE.INTRA>
1.62708

>  <SCORE.INTRA.DIHEDRAL>
5.5988

>  <SCORE.INTRA.DIHEDRAL.0>
3.94806

>  <SCORE.INTRA.POLAR>
0

>  <SCORE.INTRA.POLAR.0>
0

>  <SCORE.INTRA.REPUL>
0

>  <SCORE.INTRA.REPUL.0>
0

>  <SCORE.INTRA.SOLV>
2.40127

>  <SCORE.INTRA.SOLV.lig_0>
-70.9803

>  <SCORE.INTRA.VDW>
-2.37296

>  <SCORE.INTRA.VDW.0>
-0.709409

>  <SCORE.INTRA.norm>
0.0650831

>  <SCORE.RESTR>
0

>  <SCORE.RESTR.CAVITY>
0

>  <SCORE.RESTR.norm>
0

>  <SCORE.SYSTEM>
0

>  <SCORE.SYSTEM.CONST>
0

>  <SCORE.SYSTEM.DIHEDRAL>
0

>  <SCORE.SYSTEM.SOLV>
0

>  <SCORE.SYSTEM.norm>
0

>  <SCORE.heavy>
25

>  <SCORE.norm>
-0.487622

>  <RMSD>
3.820

$$$$
ligand
 OpenBabel11021811503D
libRbt.so/2013.1/901 2013/11/27
 25 27  0  0  0  0  0  0  0  0999 V2000
    9.6488  -23.8732   23.5892 N   0  0  0  0  0  0  0  0  0  0  0  0
    8.4301  -23.3392   23.0648 C   0  0  0  0  0  0  0  0  0  0  0  0
    8.3163  -23.0952   21.8700 O   0  0  0  0  0  0  0  0  0  0  0  0
    4.5431  -20.5722   21.2103 N   0  0  0  0  0  0  0  0  0  0  0  0
    4.3907  -19.7359   23.4559 N   0  0  0  0  0  0  0  0  0  0  0  0
    3.9348  -20.5793   22.5011 C   0  0  0  0  0  0  0  0  0  0  0  0
    2.8947  -21.4308   22.7487 N   0  0  0  0  0  0  0  0  0  0  0  0
    2.2735  -21.4776   23.9547 C   0  0  0  0  0  0  0  0  0  0  0  0
    2.7304  -20.6209   24.9847 C   0  0  0  0  0  0  0  0  0  0  0  0
    1.2402  -22.3643   24.1472 O   0  0  0  0  0  0  0  0  0  0  0  0
    0.7322  -20.6440   26.5673 C   0  0  0  0  0  0  0  0  0  0  0  0
    2.1495  -20.5422   26.3150 N   0  0  0  0  0  0  0  0  0  0  0  0
   -0.0304  -19.6855   26.5089 O   0  0  0  0  0  0  0  0  0  0  0  0
    3.0568  -20.2497   27.3412 C   0  0  2  0  0  0  0  0  0  0  0  0
    3.7728  -18.9093   27.0340 C   0  0  0  0  0  0  0  0  0  0  0  0
    3.8081  -19.7252   24.6964 C   0  0  0  0  0  0  0  0  0  0  0  0
    4.3118  -18.8245   25.7369 N   0  0  0  0  0  0  0  0  0  0  0  0
    4.0689  -21.3662   27.5008 C   0  0  0  0  0  0  0  0  0  0  0  0
    4.0162  -22.4391   26.5467 N   0  0  0  0  0  0  0  0  0  0  0  0
    7.2929  -23.1003   23.9967 C   0  0  0  0  0  0  0  0  0  0  0  0
    7.5082  -22.5839   25.2671 C   0  0  0  0  0  0  0  0  0  0  0  0
    6.4258  -22.3718   26.1123 C   0  0  0  0  0  0  0  0  0  0  0  0
    5.1326  -22.6632   25.6829 C   0  0  0  0  0  0  0  0  0  0  0  0
    4.9218  -23.1677   24.4115 C   0  0  0  0  0  0  0  0  0  0  0  0
    6.0051  -23.3904   23.5700 C   0  0  0  0  0  0  0  0  0  0  0  0
  1  2  1  0  0  0  0
  2  3  2  0  0  0  0
  2 20  1  0  0  0  0
  4  6  1  0  0  0  0
  5  6  2  0  0  0  0
  5 16  1  0  0  0  0
  6  7  1  0  0  0  0
  7  8  1  0  0  0  0
  8  9  1  0  0  0  0
  8 10  2  0  0  0  0
  9 12  1  0  0  0  0
  9 16  2  0  0  0  0
 11 13  1  0  0  0  0
 11 12  1  0  0  0  0
 12 14  1  0  0  0  0
 14 15  1  0  0  0  0
 14 18  1  6  0  0  0
 15 17  1  0  0  0  0
 16 17  1  0  0  0  0
 18 19  1  0  0  0  0
 19 23  1  0  0  0  0
 20 21  2  0  0  0  0
 20 25  1  0  0  0  0
 21 22  1  0  0  0  0
 22 23  2  0  0  0  0
 23 24  1  0  0  0  0
 24 25  2  0  0  0  0
M  END
>  <CHROM.1>
-85.65296869,5.14027499,116.83312384,31.30102376,40.01840091,4.38765436,-21.43685635
24.75912979,-0.41343043,-0.42118224,1.51628781

>  <Name>
ligand

>  <RI>
0

>  <Rbt.Current_Directory>
/home/itssahil/PROJECTS/Mol_Feturizer/New_Systems/rnas/4LVV

>  <Rbt.Executable>
rbdock ($Id: //depot/dev/client3/rdock/2013.1/src/exe/rbdock.cxx#4 $)

>  <Rbt.Library>
libRbt.so (2013.1, Build901 2013/11/27)

>  <Rbt.Parameter_File>
/export/apps/rDock/src/rDock_2013.1_src/data/scripts/dock_solv.prm

>  <Rbt.Receptor>
prm/pocket_docking_3.prm

>  <SCORE>
-12.3683

>  <SCORE.INTER>
-13.4358

>  <SCORE.INTER.CONST>
1

>  <SCORE.INTER.POLAR>
0

>  <SCORE.INTER.ROT>
5

>  <SCORE.INTER.SOLV>
15.1938

>  <SCORE.INTER.VDW>
-20.9552

>  <SCORE.INTER.norm>
-0.537433

>  <SCORE.INTRA>
1.06757

>  <SCORE.INTRA.DIHEDRAL>
5.48539

>  <SCORE.INTRA.DIHEDRAL.0>
3.94806

>  <SCORE.INTRA.POLAR>
0

>  <SCORE.INTRA.POLAR.0>
0

>  <SCORE.INTRA.REPUL>
0

>  <SCORE.INTRA.REPUL.0>
0

>  <SCORE.INTRA.SOLV>
1.99936

>  <SCORE.INTRA.SOLV.lig_0>
-70.9803

>  <SCORE.INTRA.VDW>
-2.67481

>  <SCORE.INTRA.VDW.0>
-0.709409

>  <SCORE.INTRA.norm>
0.042703

>  <SCORE.RESTR>
0

>  <SCORE.RESTR.CAVITY>
0

>  <SCORE.RESTR.norm>
0

>  <SCORE.SYSTEM>
0

>  <SCORE.SYSTEM.CONST>
0

>  <SCORE.SYSTEM.DIHEDRAL>
0

>  <SCORE.SYSTEM.SOLV>
0

>  <SCORE.SYSTEM.norm>
0

>  <SCORE.heavy>
25

>  <SCORE.norm>
-0.49473

>  <RMSD>
3.820

$$$$
ligand
 OpenBabel11021811503D
libRbt.so/2013.1/901 2013/11/27
 25 27  0  0  0  0  0  0  0  0999 V2000
    9.6808  -22.3141   23.4147 N   0  0  0  0  0  0  0  0  0  0  0  0
    8.6692  -23.3250   23.4271 C   0  0  0  0  0  0  0  0  0  0  0  0
    8.8287  -24.3779   22.8219 O   0  0  0  0  0  0  0  0  0  0  0  0
    4.6210  -20.5810   21.2099 N   0  0  0  0  0  0  0  0  0  0  0  0
    4.4513  -19.7381   23.4517 N   0  0  0  0  0  0  0  0  0  0  0  0
    3.9846  -20.5640   22.4869 C   0  0  0  0  0  0  0  0  0  0  0  0
    2.9073  -21.3748   22.7113 N   0  0  0  0  0  0  0  0  0  0  0  0
    2.2583  -21.3970   23.9033 C   0  0  0  0  0  0  0  0  0  0  0  0
    2.7249  -20.5578   24.9433 C   0  0  0  0  0  0  0  0  0  0  0  0
    1.1877  -22.2432   24.0726 O   0  0  0  0  0  0  0  0  0  0  0  0
    0.6928  -20.5032   26.4814 C   0  0  0  0  0  0  0  0  0  0  0  0
    2.1182  -20.4560   26.2605 N   0  0  0  0  0  0  0  0  0  0  0  0
    0.1092  -21.5026   26.8869 O   0  0  0  0  0  0  0  0  0  0  0  0
    3.0132  -20.1980   27.3065 C   0  0  2  0  0  0  0  0  0  0  0  0
    3.7867  -18.8862   27.0155 C   0  0  0  0  0  0  0  0  0  0  0  0
    3.8423  -19.7042   24.6790 C   0  0  0  0  0  0  0  0  0  0  0  0
    4.3571  -18.8230   25.7307 N   0  0  0  0  0  0  0  0  0  0  0  0
    3.9779  -21.3524   27.4882 C   0  0  0  0  0  0  0  0  0  0  0  0
    3.9614  -22.3831   26.4875 N   0  0  0  0  0  0  0  0  0  0  0  0
    7.4225  -23.0817   24.2050 C   0  0  0  0  0  0  0  0  0  0  0  0
    6.1762  -23.3576   23.6595 C   0  0  0  0  0  0  0  0  0  0  0  0
    5.0320  -23.1203   24.4115 C   0  0  0  0  0  0  0  0  0  0  0  0
    5.1357  -22.6212   25.7084 C   0  0  0  0  0  0  0  0  0  0  0  0
    6.3809  -22.3578   26.2519 C   0  0  0  0  0  0  0  0  0  0  0  0
    7.5249  -22.5845   25.4962 C   0  0  0  0  0  0  0  0  0  0  0  0
  1  2  1  0  0  0  0
  2  3  2  0  0  0  0
  2 20  1  0  0  0  0
  4  6  1  0  0  0  0
  5  6  2  0  0  0  0
  5 16  1  0  0  0  0
  6  7  1  0  0  0  0
  7  8  1  0  0  0  0
  8  9  1  0  0  0  0
  8 10  2  0  0  0  0
  9 12  1  0  0  0  0
  9 16  2  0  0  0  0
 11 13  1  0  0  0  0
 11 12  1  0  0  0  0
 12 14  1  0  0  0  0
 14 15  1  0  0  0  0
 14 18  1  6  0  0  0
 15 17  1  0  0  0  0
 16 17  1  0  0  0  0
 18 19  1  0  0  0  0
 19 23  1  0  0  0  0
 20 21  2  0  0  0  0
 20 25  1  0  0  0  0
 21 22  1  0  0  0  0
 22 23  2  0  0  0  0
 23 24  1  0  0  0  0
 24 25  2  0  0  0  0
M  END
>  <CHROM.1>
101.62240528,8.84248287,117.75373081,-151.07998406,134.26149696,4.44061159
-21.48434393,24.83248182,-0.36237114,-0.36656404,1.54217242

>  <Name>
ligand

>  <RI>
0

>  <Rbt.Current_Directory>
/home/itssahil/PROJECTS/Mol_Feturizer/New_Systems/rnas/4LVV

>  <Rbt.Executable>
rbdock ($Id: //depot/dev/client3/rdock/2013.1/src/exe/rbdock.cxx#4 $)

>  <Rbt.Library>
libRbt.so (2013.1, Build901 2013/11/27)

>  <Rbt.Parameter_File>
/export/apps/rDock/src/rDock_2013.1_src/data/scripts/dock_solv.prm

>  <Rbt.Receptor>
prm/pocket_docking_4.prm

>  <SCORE>
-12.4593

>  <SCORE.INTER>
-13.9592

>  <SCORE.INTER.CONST>
1

>  <SCORE.INTER.POLAR>
0

>  <SCORE.INTER.ROT>
5

>  <SCORE.INTER.SOLV>
14.5669

>  <SCORE.INTER.VDW>
-21.0951

>  <SCORE.INTER.norm>
-0.55837

>  <SCORE.INTRA>
1.4999

>  <SCORE.INTRA.DIHEDRAL>
5.61858

>  <SCORE.INTRA.DIHEDRAL.0>
3.94806

>  <SCORE.INTRA.POLAR>
0

>  <SCORE.INTRA.POLAR.0>
0

>  <SCORE.INTRA.REPUL>
0

>  <SCORE.INTRA.REPUL.0>
0

>  <SCORE.INTRA.SOLV>
2.38489

>  <SCORE.INTRA.SOLV.lig_0>
-70.9803

>  <SCORE.INTRA.VDW>
-2.50184

>  <SCORE.INTRA.VDW.0>
-0.709409

>  <SCORE.INTRA.norm>
0.059996

>  <SCORE.RESTR>
0

>  <SCORE.RESTR.CAVITY>
0

>  <SCORE.RESTR.norm>
0

>  <SCORE.SYSTEM>
0

>  <SCORE.SYSTEM.CONST>
0

>  <SCORE.SYSTEM.DIHEDRAL>
0

>  <SCORE.SYSTEM.SOLV>
0

>  <SCORE.SYSTEM.norm>
0

>  <SCORE.heavy>
25

>  <SCORE.norm>
-0.498374

>  <RMSD>
3.820

$$$$
ligand
 OpenBabel11021811503D
libRbt.so/2013.1/901 2013/11/27
 25 27  0  0  0  0  0  0  0  0999 V2000
    5.4569  -23.1933   31.1851 N   0  0  0  0  0  0  0  0  0  0  0  0
    5.2378  -22.0567   30.3452 C   0  0  0  0  0  0  0  0  0  0  0  0
    4.9301  -20.9730   30.8257 O   0  0  0  0  0  0  0  0  0  0  0  0
   -1.1424  -21.5650   26.2509 N   0  0  0  0  0  0  0  0  0  0  0  0
    0.5122  -21.2962   24.5318 N   0  0  0  0  0  0  0  0  0  0  0  0
    0.1809  -21.2224   25.8417 C   0  0  0  0  0  0  0  0  0  0  0  0
    1.0895  -20.8154   26.7783 N   0  0  0  0  0  0  0  0  0  0  0  0
    2.3602  -20.4714   26.4475 C   0  0  0  0  0  0  0  0  0  0  0  0
    2.7501  -20.5489   25.0890 C   0  0  0  0  0  0  0  0  0  0  0  0
    3.2324  -20.0812   27.4364 O   0  0  0  0  0  0  0  0  0  0  0  0
    4.8314  -19.0770   25.0891 C   0  0  0  0  0  0  0  0  0  0  0  0
    4.0650  -20.1902   24.5830 N   0  0  0  0  0  0  0  0  0  0  0  0
    4.7386  -17.9393   24.6409 O   0  0  0  0  0  0  0  0  0  0  0  0
    4.5013  -20.9401   23.4835 C   0  0  2  0  0  0  0  0  0  0  0  0
    3.4751  -20.8123   22.3284 C   0  0  0  0  0  0  0  0  0  0  0  0
    1.7767  -20.9595   24.1242 C   0  0  0  0  0  0  0  0  0  0  0  0
    2.1421  -21.0553   22.7083 N   0  0  0  0  0  0  0  0  0  0  0  0
    4.6919  -22.3945   23.8638 C   0  0  0  0  0  0  0  0  0  0  0  0
    5.8044  -22.7077   24.7174 N   0  0  0  0  0  0  0  0  0  0  0  0
    5.4076  -22.2100   28.8733 C   0  0  0  0  0  0  0  0  0  0  0  0
    6.5620  -21.7717   28.2391 C   0  0  0  0  0  0  0  0  0  0  0  0
    6.6901  -21.9300   26.8645 C   0  0  0  0  0  0  0  0  0  0  0  0
    5.6728  -22.5362   26.1302 C   0  0  0  0  0  0  0  0  0  0  0  0
    4.5283  -22.9814   26.7685 C   0  0  0  0  0  0  0  0  0  0  0  0
    4.3950  -22.8132   28.1415 C   0  0  0  0  0  0  0  0  0  0  0  0
  1  2  1  0  0  0  0
  2  3  2  0  0  0  0
  2 20  1  0  0  0  0
  4  6  1  0  0  0  0
  5  6  2  0  0  0  0
  5 16  1  0  0  0  0
  6  7  1  0  0  0  0
  7  8  1  0  0  0  0
  8  9  1  0  0  0  0
  8 10  2  0  0  0  0
  9 12  1  0  0  0  0
  9 16  2  0  0  0  0
 11 13  1  0  0  0  0
 11 12  1  0  0  0  0
 12 14  1  0  0  0  0
 14 15  1  0  0  0  0
 14 18  1  1  0  0  0
 15 17  1  0  0  0  0
 16 17  1  0  0  0  0
 18 19  1  0  0  0  0
 19 23  1  0  0  0  0
 20 21  2  0  0  0  0
 20 25  1  0  0  0  0
 21 22  1  0  0  0  0
 22 23  2  0  0  0  0
 23 24  1  0  0  0  0
 24 25  2  0  0  0  0
M  END
>  <CHROM.1>
-88.96899292,-71.00453860,82.45828130,-135.43292672,-101.09793304,3.73781092
-21.24223016,26.19352646,1.05429265,-0.07126205,1.78367232

>  <Name>
ligand

>  <RI>
0

>  <Rbt.Current_Directory>
/home/itssahil/PROJECTS/Mol_Feturizer/New_Systems/rnas/4LVV

>  <Rbt.Executable>
rbdock ($Id: //depot/dev/client3/rdock/2013.1/src/exe/rbdock.cxx#4 $)

>  <Rbt.Library>
libRbt.so (2013.1, Build901 2013/11/27)

>  <Rbt.Parameter_File>
/export/apps/rDock/src/rDock_2013.1_src/data/scripts/dock_solv.prm

>  <Rbt.Receptor>
prm/pocket_docking_7.prm

>  <SCORE>
-15.6475

>  <SCORE.INTER>
-12.7068

>  <SCORE.INTER.CONST>
1

>  <SCORE.INTER.POLAR>
0

>  <SCORE.INTER.ROT>
5

>  <SCORE.INTER.SOLV>
26.2153

>  <SCORE.INTER.VDW>
-24.143

>  <SCORE.INTER.norm>
-0.508271

>  <SCORE.INTRA>
-2.94074

>  <SCORE.INTRA.DIHEDRAL>
-0.0895057

>  <SCORE.INTRA.DIHEDRAL.0>
3.94806

>  <SCORE.INTRA.POLAR>
0

>  <SCORE.INTRA.POLAR.0>
0

>  <SCORE.INTRA.REPUL>
0

>  <SCORE.INTRA.REPUL.0>
0

>  <SCORE.INTRA.SOLV>
0.408705

>  <SCORE.INTRA.SOLV.lig_0>
-70.9803

>  <SCORE.INTRA.VDW>
-3.10033

>  <SCORE.INTRA.VDW.0>
-0.709409

>  <SCORE.INTRA.norm>
-0.117629

>  <SCORE.RESTR>
0

>  <SCORE.RESTR.CAVITY>
0

>  <SCORE.RESTR.norm>
0

>  <SCORE.SYSTEM>
0

>  <SCORE.SYSTEM.CONST>
0

>  <SCORE.SYSTEM.DIHEDRAL>
0

>  <SCORE.SYSTEM.SOLV>
0

>  <SCORE.SYSTEM.norm>
0

>  <SCORE.heavy>
25

>  <SCORE.norm>
-0.625901

>  <RMSD>
3.827

$$$$
ligand
 OpenBabel11021811503D
libRbt.so/2013.1/901 2013/11/27
 25 27  0  0  0  0  0  0  0  0999 V2000
    5.2615  -20.8145   30.9781 N   0  0  0  0  0  0  0  0  0  0  0  0
    5.3011  -22.1271   30.4116 C   0  0  0  0  0  0  0  0  0  0  0  0
    5.2258  -23.1197   31.1251 O   0  0  0  0  0  0  0  0  0  0  0  0
   -1.1462  -21.5724   26.2953 N   0  0  0  0  0  0  0  0  0  0  0  0
    0.4939  -21.3350   24.5578 N   0  0  0  0  0  0  0  0  0  0  0  0
    0.1658  -21.2125   25.8647 C   0  0  0  0  0  0  0  0  0  0  0  0
    1.0665  -20.7401   26.7780 N   0  0  0  0  0  0  0  0  0  0  0  0
    2.3261  -20.3768   26.4260 C   0  0  0  0  0  0  0  0  0  0  0  0
    2.7128  -20.5036   25.0703 C   0  0  0  0  0  0  0  0  0  0  0  0
    3.1911  -19.9200   27.3924 O   0  0  0  0  0  0  0  0  0  0  0  0
    4.7532  -18.9774   24.9953 C   0  0  0  0  0  0  0  0  0  0  0  0
    4.0155  -20.1322   24.5425 N   0  0  0  0  0  0  0  0  0  0  0  0
    4.2342  -17.8835   25.1901 O   0  0  0  0  0  0  0  0  0  0  0  0
    4.4678  -20.9178   23.4748 C   0  0  2  0  0  0  0  0  0  0  0  0
    3.4342  -20.8688   22.3204 C   0  0  0  0  0  0  0  0  0  0  0  0
    1.7472  -20.9825   24.1295 C   0  0  0  0  0  0  0  0  0  0  0  0
    2.1097  -21.1307   22.7173 N   0  0  0  0  0  0  0  0  0  0  0  0
    4.6995  -22.3483   23.9178 C   0  0  0  0  0  0  0  0  0  0  0  0
    5.8348  -22.5964   24.7626 N   0  0  0  0  0  0  0  0  0  0  0  0
    5.4186  -22.2661   28.9332 C   0  0  0  0  0  0  0  0  0  0  0  0
    4.3829  -22.8061   28.1831 C   0  0  0  0  0  0  0  0  0  0  0  0
    4.5232  -22.9215   26.8055 C   0  0  0  0  0  0  0  0  0  0  0  0
    5.6900  -22.4864   26.1802 C   0  0  0  0  0  0  0  0  0  0  0  0
    6.7157  -21.9388   26.9309 C   0  0  0  0  0  0  0  0  0  0  0  0
    6.5801  -21.8335   28.3100 C   0  0  0  0  0  0  0  0  0  0  0  0
  1  2  1  0  0  0  0
  2  3  2  0  0  0  0
  2 20  1  0  0  0  0
  4  6  1  0  0  0  0
  5  6  2  0  0  0  0
  5 16  1  0  0  0  0
  6  7  1  0  0  0  0
  7  8  1  0  0  0  0
  8  9  1  0  0  0  0
  8 10  2  0  0  0  0
  9 12  1  0  0  0  0
  9 16  2  0  0  0  0
 11 13  1  0  0  0  0
 11 12  1  0  0  0  0
 12 14  1  0  0  0  0
 14 15  1  0  0  0  0
 14 18  1  1  0  0  0
 15 17  1  0  0  0  0
 16 17  1  0  0  0  0
 18 19  1  0  0  0  0
 19 23  1  0  0  0  0
 20 21  2  0  0  0  0
 20 25  1  0  0  0  0
 21 22  1  0  0  0  0
 22 23  2  0  0  0  0
 23 24  1  0  0  0  0
 24 25  2  0  0  0  0
M  END
>  <CHROM.1>
-43.30967788,-71.90710353,88.41563919,38.11337562,-113.77534931,3.70760222
-21.22342129,26.23833127,1.03250318,-0.10192164,1.76491085

>  <Name>
ligand

>  <RI>
0

>  <Rbt.Current_Directory>
/home/itssahil/PROJECTS/Mol_Feturizer/New_Systems/rnas/4LVV

>  <Rbt.Executable>
rbdock ($Id: //depot/dev/client3/rdock/2013.1/src/exe/rbdock.cxx#4 $)

>  <Rbt.Library>
libRbt.so (2013.1, Build901 2013/11/27)

>  <Rbt.Parameter_File>
/export/apps/rDock/src/rDock_2013.1_src/data/scripts/dock_solv.prm

>  <Rbt.Receptor>
prm/pocket_docking_7.prm

>  <SCORE>
-15.2986

>  <SCORE.INTER>
-12.8253

>  <SCORE.INTER.CONST>
1

>  <SCORE.INTER.POLAR>
0

>  <SCORE.INTER.ROT>
5

>  <SCORE.INTER.SOLV>
26.2634

>  <SCORE.INTER.VDW>
-24.238

>  <SCORE.INTER.norm>
-0.513013

>  <SCORE.INTRA>
-2.47327

>  <SCORE.INTRA.DIHEDRAL>
0.456013

>  <SCORE.INTRA.DIHEDRAL.0>
3.94806

>  <SCORE.INTRA.POLAR>
0

>  <SCORE.INTRA.POLAR.0>
0

>  <SCORE.INTRA.REPUL>
0

>  <SCORE.INTRA.REPUL.0>
0

>  <SCORE.INTRA.SOLV>
0.289582

>  <SCORE.INTRA.SOLV.lig_0>
-70.9803

>  <SCORE.INTRA.VDW>
-2.84607

>  <SCORE.INTRA.VDW.0>
-0.709409

>  <SCORE.INTRA.norm>
-0.0989308

>  <SCORE.RESTR>
0

>  <SCORE.RESTR.CAVITY>
0

>  <SCORE.RESTR.norm>
0

>  <SCORE.SYSTEM>
0

>  <SCORE.SYSTEM.CONST>
0

>  <SCORE.SYSTEM.DIHEDRAL>
0

>  <SCORE.SYSTEM.SOLV>
0

>  <SCORE.SYSTEM.norm>
0

>  <SCORE.heavy>
25

>  <SCORE.norm>
-0.611944

>  <RMSD>
3.828

$$$$
ligand
 OpenBabel11021811503D
libRbt.so/2013.1/901 2013/11/27
 25 27  0  0  0  0  0  0  0  0999 V2000
    9.7349  -23.0366   23.5780 N   0  0  0  0  0  0  0  0  0  0  0  0
    8.4309  -23.3331   23.0710 C   0  0  0  0  0  0  0  0  0  0  0  0
    8.2859  -23.7845   21.9417 O   0  0  0  0  0  0  0  0  0  0  0  0
    4.5182  -20.4837   21.1950 N   0  0  0  0  0  0  0  0  0  0  0  0
    4.3760  -19.6813   23.4536 N   0  0  0  0  0  0  0  0  0  0  0  0
    3.9126  -20.5068   22.4868 C   0  0  0  0  0  0  0  0  0  0  0  0
    2.8673  -21.3552   22.7235 N   0  0  0  0  0  0  0  0  0  0  0  0
    2.2484  -21.4166   23.9300 C   0  0  0  0  0  0  0  0  0  0  0  0
    2.7131  -20.5790   24.9721 C   0  0  0  0  0  0  0  0  0  0  0  0
    1.2096  -22.2994   24.1109 O   0  0  0  0  0  0  0  0  0  0  0  0
    0.7180  -20.6135   26.5585 C   0  0  0  0  0  0  0  0  0  0  0  0
    2.1354  -20.5171   26.3048 N   0  0  0  0  0  0  0  0  0  0  0  0
   -0.1221  -20.6568   25.6662 O   0  0  0  0  0  0  0  0  0  0  0  0
    3.0468  -20.2465   27.3333 C   0  0  2  0  0  0  0  0  0  0  0  0
    3.7710  -18.9063   27.0454 C   0  0  0  0  0  0  0  0  0  0  0  0
    3.7960  -19.6860   24.6953 C   0  0  0  0  0  0  0  0  0  0  0  0
    4.3079  -18.8049   25.7486 N   0  0  0  0  0  0  0  0  0  0  0  0
    4.0518  -21.3720   27.4735 C   0  0  0  0  0  0  0  0  0  0  0  0
    3.9828  -22.4352   26.5097 N   0  0  0  0  0  0  0  0  0  0  0  0
    7.2505  -23.0991   23.9488 C   0  0  0  0  0  0  0  0  0  0  0  0
    5.9598  -23.2852   23.4730 C   0  0  0  0  0  0  0  0  0  0  0  0
    4.8797  -23.0591   24.3175 C   0  0  0  0  0  0  0  0  0  0  0  0
    5.0912  -22.6612   25.6360 C   0  0  0  0  0  0  0  0  0  0  0  0
    6.3801  -22.4873   26.1091 C   0  0  0  0  0  0  0  0  0  0  0  0
    7.4603  -22.7025   25.2616 C   0  0  0  0  0  0  0  0  0  0  0  0
  1  2  1  0  0  0  0
  2  3  2  0  0  0  0
  2 20  1  0  0  0  0
  4  6  1  0  0  0  0
  5  6  2  0  0  0  0
  5 16  1  0  0  0  0
  6  7  1  0  0  0  0
  7  8  1  0  0  0  0
  8  9  1  0  0  0  0
  8 10  2  0  0  0  0
  9 12  1  0  0  0  0
  9 16  2  0  0  0  0
 11 13  1  0  0  0  0
 11 12  1  0  0  0  0
 12 14  1  0  0  0  0
 14 15  1  0  0  0  0
 14 18  1  6  0  0  0
 15 17  1  0  0  0  0
 16 17  1  0  0  0  0
 18 19  1  0  0  0  0
 19 23  1  0  0  0  0
 20 21  2  0  0  0  0
 20 25  1  0  0  0  0
 21 22  1  0  0  0  0
 22 23  2  0  0  0  0
 23 24  1  0  0  0  0
 24 25  2  0  0  0  0
M  END
>  <CHROM.1>
-5.53233949,4.63178777,116.97183554,-143.64117082,175.61371431,4.36490761
-21.45842608,24.70296466,-0.40646786,-0.36886805,1.46010541

>  <Name>
ligand

>  <RI>
0

>  <Rbt.Current_Directory>
/home/itssahil/PROJECTS/Mol_Feturizer/New_Systems/rnas/4LVV

>  <Rbt.Executable>
rbdock ($Id: //depot/dev/client3/rdock/2013.1/src/exe/rbdock.cxx#4 $)

>  <Rbt.Library>
libRbt.so (2013.1, Build901 2013/11/27)

>  <Rbt.Parameter_File>
/export/apps/rDock/src/rDock_2013.1_src/data/scripts/dock_solv.prm

>  <Rbt.Receptor>
prm/pocket_docking_3.prm

>  <SCORE>
-11.9621

>  <SCORE.INTER>
-13.7764

>  <SCORE.INTER.CONST>
1

>  <SCORE.INTER.POLAR>
0

>  <SCORE.INTER.ROT>
5

>  <SCORE.INTER.SOLV>
14.5991

>  <SCORE.INTER.VDW>
-20.9839

>  <SCORE.INTER.norm>
-0.551055

>  <SCORE.INTRA>
1.81429

>  <SCORE.INTRA.DIHEDRAL>
5.74893

>  <SCORE.INTRA.DIHEDRAL.0>
3.94806

>  <SCORE.INTRA.POLAR>
0

>  <SCORE.INTRA.POLAR.0>
0

>  <SCORE.INTRA.REPUL>
0

>  <SCORE.INTRA.REPUL.0>
0

>  <SCORE.INTRA.SOLV>
2.35376

>  <SCORE.INTRA.SOLV.lig_0>
-70.9803

>  <SCORE.INTRA.VDW>
-2.23706

>  <SCORE.INTRA.VDW.0>
-0.709409

>  <SCORE.INTRA.norm>
0.0725716

>  <SCORE.RESTR>
0

>  <SCORE.RESTR.CAVITY>
0

>  <SCORE.RESTR.norm>
0

>  <SCORE.SYSTEM>
0

>  <SCORE.SYSTEM.CONST>
0

>  <SCORE.SYSTEM.DIHEDRAL>
0

>  <SCORE.SYSTEM.SOLV>
0

>  <SCORE.SYSTEM.norm>
0

>  <SCORE.heavy>
25

>  <SCORE.norm>
-0.478484

>  <RMSD>
3.829

$$$$
ligand
 OpenBabel11021811503D
libRbt.so/2013.1/901 2013/11/27
 25 27  0  0  0  0  0  0  0  0999 V2000
    8.8024  -22.5148   22.0805 N   0  0  0  0  0  0  0  0  0  0  0  0
    8.6371  -23.2643   23.2873 C   0  0  0  0  0  0  0  0  0  0  0  0
    9.4938  -24.0598   23.6527 O   0  0  0  0  0  0  0  0  0  0  0  0
    4.5495  -20.5159   21.2167 N   0  0  0  0  0  0  0  0  0  0  0  0
    4.3975  -19.7101   23.4735 N   0  0  0  0  0  0  0  0  0  0  0  0
    3.9345  -20.5329   22.5042 C   0  0  0  0  0  0  0  0  0  0  0  0
    2.8811  -21.3730   22.7343 N   0  0  0  0  0  0  0  0  0  0  0  0
    2.2531  -21.4283   23.9365 C   0  0  0  0  0  0  0  0  0  0  0  0
    2.7169  -20.5932   24.9810 C   0  0  0  0  0  0  0  0  0  0  0  0
    1.2063  -22.3028   24.1109 O   0  0  0  0  0  0  0  0  0  0  0  0
    0.7105  -20.6106   26.5533 C   0  0  0  0  0  0  0  0  0  0  0  0
    2.1304  -20.5255   26.3095 N   0  0  0  0  0  0  0  0  0  0  0  0
   -0.1242  -20.6379   25.6553 O   0  0  0  0  0  0  0  0  0  0  0  0
    3.0365  -20.2609   27.3442 C   0  0  2  0  0  0  0  0  0  0  0  0
    3.7730  -18.9266   27.0602 C   0  0  0  0  0  0  0  0  0  0  0  0
    3.8087  -19.7090   24.7111 C   0  0  0  0  0  0  0  0  0  0  0  0
    4.3199  -18.8308   25.7671 N   0  0  0  0  0  0  0  0  0  0  0  0
    4.0317  -21.3940   27.4926 C   0  0  0  0  0  0  0  0  0  0  0  0
    4.0061  -22.4234   26.4908 N   0  0  0  0  0  0  0  0  0  0  0  0
    7.4098  -23.0475   24.1030 C   0  0  0  0  0  0  0  0  0  0  0  0
    6.1529  -23.3401   23.5919 C   0  0  0  0  0  0  0  0  0  0  0  0
    5.0274  -23.1273   24.3787 C   0  0  0  0  0  0  0  0  0  0  0  0
    5.1608  -22.6362   25.6759 C   0  0  0  0  0  0  0  0  0  0  0  0
    6.4169  -22.3561   26.1850 C   0  0  0  0  0  0  0  0  0  0  0  0
    7.5418  -22.5582   25.3945 C   0  0  0  0  0  0  0  0  0  0  0  0
  1  2  1  0  0  0  0
  2  3  2  0  0  0  0
  2 20  1  0  0  0  0
  4  6  1  0  0  0  0
  5  6  2  0  0  0  0
  5 16  1  0  0  0  0
  6  7  1  0  0  0  0
  7  8  1  0  0  0  0
  8  9  1  0  0  0  0
  8 10  2  0  0  0  0
  9 12  1  0  0  0  0
  9 16  2  0  0  0  0
 11 13  1  0  0  0  0
 11 12  1  0  0  0  0
 12 14  1  0  0  0  0
 14 15  1  0  0  0  0
 14 18  1  6  0  0  0
 15 17  1  0  0  0  0
 16 17  1  0  0  0  0
 18 19  1  0  0  0  0
 19 23  1  0  0  0  0
 20 21  2  0  0  0  0
 20 25  1  0  0  0  0
 21 22  1  0  0  0  0
 22 23  2  0  0  0  0
 23 24  1  0  0  0  0
 24 25  2  0  0  0  0
M  END
>  <CHROM.1>
-6.11787836,7.69349401,117.88128388,-150.66745577,62.88950695,4.41981822
-21.44743566,24.75622529,0.33443837,0.38183097,-1.59993738

>  <Name>
ligand

>  <RI>
0

>  <Rbt.Current_Directory>
/home/itssahil/PROJECTS/Mol_Feturizer/New_Systems/rnas/4LVV

>  <Rbt.Executable>
rbdock ($Id: //depot/dev/client3/rdock/2013.1/src/exe/rbdock.cxx#4 $)

>  <Rbt.Library>
libRbt.so (2013.1, Build901 2013/11/27)

>  <Rbt.Parameter_File>
/export/apps/rDock/src/rDock_2013.1_src/data/scripts/dock_solv.prm

>  <Rbt.Receptor>
prm/pocket_docking_3.prm

>  <SCORE>
-12.2564

>  <SCORE.INTER>
-13.9112

>  <SCORE.INTER.CONST>
1

>  <SCORE.INTER.POLAR>
0

>  <SCORE.INTER.ROT>
5

>  <SCORE.INTER.SOLV>
14.2229

>  <SCORE.INTER.VDW>
-20.9484

>  <SCORE.INTER.norm>
-0.556446

>  <SCORE.INTRA>
1.65477

>  <SCORE.INTRA.DIHEDRAL>
5.63229

>  <SCORE.INTRA.DIHEDRAL.0>
3.94806

>  <SCORE.INTRA.POLAR>
0

>  <SCORE.INTRA.POLAR.0>
0

>  <SCORE.INTRA.REPUL>
0

>  <SCORE.INTRA.REPUL.0>
0

>  <SCORE.INTRA.SOLV>
2.27715

>  <SCORE.INTRA.SOLV.lig_0>
-70.9803

>  <SCORE.INTRA.VDW>
-2.29995

>  <SCORE.INTRA.VDW.0>
-0.709409

>  <SCORE.INTRA.norm>
0.0661909

>  <SCORE.RESTR>
0

>  <SCORE.RESTR.CAVITY>
0

>  <SCORE.RESTR.norm>
0

>  <SCORE.SYSTEM>
0

>  <SCORE.SYSTEM.CONST>
0

>  <SCORE.SYSTEM.DIHEDRAL>
0

>  <SCORE.SYSTEM.SOLV>
0

>  <SCORE.SYSTEM.norm>
0

>  <SCORE.heavy>
25

>  <SCORE.norm>
-0.490255

>  <RMSD>
3.829

$$$$
ligand
 OpenBabel11021811503D
libRbt.so/2013.1/901 2013/11/27
 25 27  0  0  0  0  0  0  0  0999 V2000
    9.1150  -24.5556   23.1075 N   0  0  0  0  0  0  0  0  0  0  0  0
    8.6976  -23.2181   23.3944 C   0  0  0  0  0  0  0  0  0  0  0  0
    9.3451  -22.2599   22.9910 O   0  0  0  0  0  0  0  0  0  0  0  0
    4.6929  -20.8118   21.2173 N   0  0  0  0  0  0  0  0  0  0  0  0
    4.5728  -19.9098   23.4393 N   0  0  0  0  0  0  0  0  0  0  0  0
    4.0565  -20.7260   22.4916 C   0  0  0  0  0  0  0  0  0  0  0  0
    2.9298  -21.4621   22.7305 N   0  0  0  0  0  0  0  0  0  0  0  0
    2.2786  -21.4166   23.9206 C   0  0  0  0  0  0  0  0  0  0  0  0
    2.7954  -20.5854   24.9432 C   0  0  0  0  0  0  0  0  0  0  0  0
    1.1565  -22.1897   24.1054 O   0  0  0  0  0  0  0  0  0  0  0  0
    0.7680  -20.3683   26.4732 C   0  0  0  0  0  0  0  0  0  0  0  0
    2.1939  -20.4161   26.2558 N   0  0  0  0  0  0  0  0  0  0  0  0
    0.1013  -21.3533   26.7718 O   0  0  0  0  0  0  0  0  0  0  0  0
    3.1016  -20.1915   27.2987 C   0  0  2  0  0  0  0  0  0  0  0  0
    3.9568  -18.9380   26.9811 C   0  0  0  0  0  0  0  0  0  0  0  0
    3.9648  -19.8101   24.6636 C   0  0  0  0  0  0  0  0  0  0  0  0
    4.5324  -18.9397   25.6970 N   0  0  0  0  0  0  0  0  0  0  0  0
    3.9912  -21.4001   27.5092 C   0  0  0  0  0  0  0  0  0  0  0  0
    3.9839  -22.4052   26.4826 N   0  0  0  0  0  0  0  0  0  0  0  0
    7.4492  -23.0100   24.1799 C   0  0  0  0  0  0  0  0  0  0  0  0
    6.2119  -23.3631   23.6592 C   0  0  0  0  0  0  0  0  0  0  0  0
    5.0659  -23.1568   24.4177 C   0  0  0  0  0  0  0  0  0  0  0  0
    5.1597  -22.6116   25.6966 C   0  0  0  0  0  0  0  0  0  0  0  0
    6.3966  -22.2711   26.2157 C   0  0  0  0  0  0  0  0  0  0  0  0
    7.5418  -22.4669   25.4532 C   0  0  0  0  0  0  0  0  0  0  0  0
  1  2  1  0  0  0  0
  2  3  2  0  0  0  0
  2 20  1  0  0  0  0
  4  6  1  0  0  0  0
  5  6  2  0  0  0  0
  5 16  1  0  0  0  0
  6  7  1  0  0  0  0
  7  8  1  0  0  0  0
  8  9  1  0  0  0  0
  8 10  2  0  0  0  0
  9 12  1  0  0  0  0
  9 16  2  0  0  0  0
 11 13  1  0  0  0  0
 11 12  1  0  0  0  0
 12 14  1  0  0  0  0
 14 15  1  0  0  0  0
 14 18  1  6  0  0  0
 15 17  1  0  0  0  0
 16 17  1  0  0  0  0
 18 19  1  0  0  0  0
 19 23  1  0  0  0  0
 20 21  2  0  0  0  0
 20 25  1  0  0  0  0
 21 22  1  0  0  0  0
 22 23  2  0  0  0  0
 23 24  1  0  0  0  0
 24 25  2  0  0  0  0
M  END
>  <CHROM.1>
94.18301921,13.24447607,112.62535261,-155.08970908,-66.48116184,4.49147732
-21.48884645,24.81638342,-0.38641393,-0.33864895,1.49310330

>  <Name>
ligand

>  <RI>
0

>  <Rbt.Current_Directory>
/home/itssahil/PROJECTS/Mol_Feturizer/New_Systems/rnas/4LVV

>  <Rbt.Executable>
rbdock ($Id: //depot/dev/client3/rdock/2013.1/src/exe/rbdock.cxx#4 $)

>  <Rbt.Library>
libRbt.so (2013.1, Build901 2013/11/27)

>  <Rbt.Parameter_File>
/export/apps/rDock/src/rDock_2013.1_src/data/scripts/dock_solv.prm

>  <Rbt.Receptor>
prm/pocket_docking_3.prm

>  <SCORE>
-12.2854

>  <SCORE.INTER>
-13.5789

>  <SCORE.INTER.CONST>
1

>  <SCORE.INTER.POLAR>
0

>  <SCORE.INTER.ROT>
5

>  <SCORE.INTER.SOLV>
14.9035

>  <SCORE.INTER.VDW>
-20.9538

>  <SCORE.INTER.norm>
-0.543155

>  <SCORE.INTRA>
1.29347

>  <SCORE.INTRA.DIHEDRAL>
5.27025

>  <SCORE.INTRA.DIHEDRAL.0>
3.94806

>  <SCORE.INTRA.POLAR>
0

>  <SCORE.INTRA.POLAR.0>
0

>  <SCORE.INTRA.REPUL>
0

>  <SCORE.INTRA.REPUL.0>
0

>  <SCORE.INTRA.SOLV>
2.73429

>  <SCORE.INTRA.SOLV.lig_0>
-70.9803

>  <SCORE.INTRA.VDW>
-2.70879

>  <SCORE.INTRA.VDW.0>
-0.709409

>  <SCORE.INTRA.norm>
0.051739

>  <SCORE.RESTR>
0

>  <SCORE.RESTR.CAVITY>
0

>  <SCORE.RESTR.norm>
0

>  <SCORE.SYSTEM>
0

>  <SCORE.SYSTEM.CONST>
0

>  <SCORE.SYSTEM.DIHEDRAL>
0

>  <SCORE.SYSTEM.SOLV>
0

>  <SCORE.SYSTEM.norm>
0

>  <SCORE.heavy>
25

>  <SCORE.norm>
-0.491416

>  <RMSD>
3.832

$$$$
ligand
 OpenBabel11021811503D
libRbt.so/2013.1/901 2013/11/27
 25 27  0  0  0  0  0  0  0  0999 V2000
    9.5865  -24.0530   23.5553 N   0  0  0  0  0  0  0  0  0  0  0  0
    8.4679  -23.2988   23.0806 C   0  0  0  0  0  0  0  0  0  0  0  0
    8.4473  -22.8621   21.9365 O   0  0  0  0  0  0  0  0  0  0  0  0
    4.5760  -20.4994   21.2126 N   0  0  0  0  0  0  0  0  0  0  0  0
    4.4199  -19.6935   23.4691 N   0  0  0  0  0  0  0  0  0  0  0  0
    3.9599  -20.5178   22.4996 C   0  0  0  0  0  0  0  0  0  0  0  0
    2.9085  -21.3606   22.7289 N   0  0  0  0  0  0  0  0  0  0  0  0
    2.2796  -21.4173   23.9305 C   0  0  0  0  0  0  0  0  0  0  0  0
    2.7403  -20.5808   24.9753 C   0  0  0  0  0  0  0  0  0  0  0  0
    1.2350  -22.2946   24.1042 O   0  0  0  0  0  0  0  0  0  0  0  0
    0.7325  -20.6032   26.5458 C   0  0  0  0  0  0  0  0  0  0  0  0
    2.1523  -20.5144   26.3033 N   0  0  0  0  0  0  0  0  0  0  0  0
   -0.0998  -20.6573   25.6468 O   0  0  0  0  0  0  0  0  0  0  0  0
    3.0569  -20.2473   27.3387 C   0  0  2  0  0  0  0  0  0  0  0  0
    3.7901  -18.9111   27.0551 C   0  0  0  0  0  0  0  0  0  0  0  0
    3.8300  -19.6937   24.7062 C   0  0  0  0  0  0  0  0  0  0  0  0
    4.3379  -18.8140   25.7625 N   0  0  0  0  0  0  0  0  0  0  0  0
    4.0549  -21.3776   27.4882 C   0  0  0  0  0  0  0  0  0  0  0  0
    4.0065  -22.4277   26.5089 N   0  0  0  0  0  0  0  0  0  0  0  0
    7.3180  -23.0677   23.9987 C   0  0  0  0  0  0  0  0  0  0  0  0
    7.5158  -22.5627   25.2764 C   0  0  0  0  0  0  0  0  0  0  0  0
    6.4219  -22.3576   26.1084 C   0  0  0  0  0  0  0  0  0  0  0  0
    5.1346  -22.6446   25.6586 C   0  0  0  0  0  0  0  0  0  0  0  0
    4.9413  -23.1378   24.3800 C   0  0  0  0  0  0  0  0  0  0  0  0
    6.0361  -23.3535   23.5516 C   0  0  0  0  0  0  0  0  0  0  0  0
  1  2  1  0  0  0  0
  2  3  2  0  0  0  0
  2 20  1  0  0  0  0
  4  6  1  0  0  0  0
  5  6  2  0  0  0  0
  5 16  1  0  0  0  0
  6  7  1  0  0  0  0
  7  8  1  0  0  0  0
  8  9  1  0  0  0  0
  8 10  2  0  0  0  0
  9 12  1  0  0  0  0
  9 16  2  0  0  0  0
 11 13  1  0  0  0  0
 11 12  1  0  0  0  0
 12 14  1  0  0  0  0
 14 15  1  0  0  0  0
 14 18  1  6  0  0  0
 15 17  1  0  0  0  0
 16 17  1  0  0  0  0
 18 19  1  0  0  0  0
 19 23  1  0  0  0  0
 20 21  2  0  0  0  0
 20 25  1  0  0  0  0
 21 22  1  0  0  0  0
 22 23  2  0  0  0  0
 23 24  1  0  0  0  0
 24 25  2  0  0  0  0
M  END
>  <CHROM.1>
-4.74684550,5.89580175,116.90744559,30.26477478,51.10281097,4.39845719,-21.45144152
24.71286426,-0.37976380,-0.39044964,1.51996423

>  <Name>
ligand

>  <RI>
0

>  <Rbt.Current_Directory>
/home/itssahil/PROJECTS/Mol_Feturizer/New_Systems/rnas/4LVV

>  <Rbt.Executable>
rbdock ($Id: //depot/dev/client3/rdock/2013.1/src/exe/rbdock.cxx#4 $)

>  <Rbt.Library>
libRbt.so (2013.1, Build901 2013/11/27)

>  <Rbt.Parameter_File>
/export/apps/rDock/src/rDock_2013.1_src/data/scripts/dock_solv.prm

>  <Rbt.Receptor>
prm/pocket_docking_5.prm

>  <SCORE>
-12.2358

>  <SCORE.INTER>
-13.786

>  <SCORE.INTER.CONST>
1

>  <SCORE.INTER.POLAR>
0

>  <SCORE.INTER.ROT>
5

>  <SCORE.INTER.SOLV>
14.5205

>  <SCORE.INTER.VDW>
-20.9641

>  <SCORE.INTER.norm>
-0.551439

>  <SCORE.INTRA>
1.5502

>  <SCORE.INTRA.DIHEDRAL>
5.69348

>  <SCORE.INTRA.DIHEDRAL.0>
3.94806

>  <SCORE.INTRA.POLAR>
0

>  <SCORE.INTRA.POLAR.0>
0

>  <SCORE.INTRA.REPUL>
0

>  <SCORE.INTRA.REPUL.0>
0

>  <SCORE.INTRA.SOLV>
2.29004

>  <SCORE.INTRA.SOLV.lig_0>
-70.9803

>  <SCORE.INTRA.VDW>
-2.44156

>  <SCORE.INTRA.VDW.0>
-0.709409

>  <SCORE.INTRA.norm>
0.0620078

>  <SCORE.RESTR>
0

>  <SCORE.RESTR.CAVITY>
0

>  <SCORE.RESTR.norm>
0

>  <SCORE.SYSTEM>
0

>  <SCORE.SYSTEM.CONST>
0

>  <SCORE.SYSTEM.DIHEDRAL>
0

>  <SCORE.SYSTEM.SOLV>
0

>  <SCORE.SYSTEM.norm>
0

>  <SCORE.heavy>
25

>  <SCORE.norm>
-0.489431

>  <RMSD>
3.832

$$$$
ligand
 OpenBabel11021811503D
libRbt.so/2013.1/901 2013/11/27
 25 27  0  0  0  0  0  0  0  0999 V2000
    9.3073  -22.0993   22.8292 N   0  0  0  0  0  0  0  0  0  0  0  0
    8.6153  -23.2419   23.3400 C   0  0  0  0  0  0  0  0  0  0  0  0
    9.0366  -24.3733   23.1333 O   0  0  0  0  0  0  0  0  0  0  0  0
    4.6771  -20.7918   21.2274 N   0  0  0  0  0  0  0  0  0  0  0  0
    4.5522  -19.8971   23.4521 N   0  0  0  0  0  0  0  0  0  0  0  0
    4.0394  -20.7121   22.5015 C   0  0  0  0  0  0  0  0  0  0  0  0
    2.9151  -21.4528   22.7373 N   0  0  0  0  0  0  0  0  0  0  0  0
    2.2628  -21.4132   23.9271 C   0  0  0  0  0  0  0  0  0  0  0  0
    2.7760  -20.5834   24.9526 C   0  0  0  0  0  0  0  0  0  0  0  0
    1.1432  -22.1906   24.1086 O   0  0  0  0  0  0  0  0  0  0  0  0
    0.7468  -20.3780   26.4817 C   0  0  0  0  0  0  0  0  0  0  0  0
    2.1730  -20.4202   26.2653 N   0  0  0  0  0  0  0  0  0  0  0  0
    0.0731  -21.3764   26.7123 O   0  0  0  0  0  0  0  0  0  0  0  0
    3.0791  -20.1959   27.3096 C   0  0  2  0  0  0  0  0  0  0  0  0
    3.9303  -18.9385   26.9965 C   0  0  0  0  0  0  0  0  0  0  0  0
    3.9430  -19.8033   24.6763 C   0  0  0  0  0  0  0  0  0  0  0  0
    4.5068  -18.9342   25.7128 N   0  0  0  0  0  0  0  0  0  0  0  0
    3.9727  -21.4020   27.5169 C   0  0  0  0  0  0  0  0  0  0  0  0
    3.9511  -22.4157   26.4989 N   0  0  0  0  0  0  0  0  0  0  0  0
    7.3795  -23.0308   24.1443 C   0  0  0  0  0  0  0  0  0  0  0  0
    6.1359  -23.4019   23.6518 C   0  0  0  0  0  0  0  0  0  0  0  0
    5.0021  -23.1923   24.4273 C   0  0  0  0  0  0  0  0  0  0  0  0
    5.1143  -22.6257   25.6954 C   0  0  0  0  0  0  0  0  0  0  0  0
    6.3575  -22.2671   26.1866 C   0  0  0  0  0  0  0  0  0  0  0  0
    7.4904  -22.4664   25.4068 C   0  0  0  0  0  0  0  0  0  0  0  0
  1  2  1  0  0  0  0
  2  3  2  0  0  0  0
  2 20  1  0  0  0  0
  4  6  1  0  0  0  0
  5  6  2  0  0  0  0
  5 16  1  0  0  0  0
  6  7  1  0  0  0  0
  7  8  1  0  0  0  0
  8  9  1  0  0  0  0
  8 10  2  0  0  0  0
  9 12  1  0  0  0  0
  9 16  2  0  0  0  0
 11 13  1  0  0  0  0
 11 12  1  0  0  0  0
 12 14  1  0  0  0  0
 14 15  1  0  0  0  0
 14 18  1  6  0  0  0
 15 17  1  0  0  0  0
 16 17  1  0  0  0  0
 18 19  1  0  0  0  0
 19 23  1  0  0  0  0
 20 21  2  0  0  0  0
 20 25  1  0  0  0  0
 21 22  1  0  0  0  0
 22 23  2  0  0  0  0
 23 24  1  0  0  0  0
 24 25  2  0  0  0  0
M  END
>  <CHROM.1>
90.49153265,12.13262036,112.47789353,-155.64390671,111.29841532,4.45551824
-21.49121582,24.80903637,0.39446582,0.34239976,-1.64072561

>  <Name>
ligand

>  <RI>
0

>  <Rbt.Current_Directory>
/home/itssahil/PROJECTS/Mol_Feturizer/New_Systems/rnas/4LVV

>  <Rbt.Executable>
rbdock ($Id: //depot/dev/client3/rdock/2013.1/src/exe/rbdock.cxx#4 $)

>  <Rbt.Library>
libRbt.so (2013.1, Build901 2013/11/27)

>  <Rbt.Parameter_File>
/export/apps/rDock/src/rDock_2013.1_src/data/scripts/dock_solv.prm

>  <Rbt.Receptor>
prm/pocket_docking_3.prm

>  <SCORE>
-12.5649

>  <SCORE.INTER>
-13.8547

>  <SCORE.INTER.CONST>
1

>  <SCORE.INTER.POLAR>
0

>  <SCORE.INTER.ROT>
5

>  <SCORE.INTER.SOLV>
14.3051

>  <SCORE.INTER.VDW>
-20.9381

>  <SCORE.INTER.norm>
-0.554186

>  <SCORE.INTRA>
1.2898

>  <SCORE.INTRA.DIHEDRAL>
5.38678

>  <SCORE.INTRA.DIHEDRAL.0>
3.94806

>  <SCORE.INTRA.POLAR>
0

>  <SCORE.INTRA.POLAR.0>
0

>  <SCORE.INTRA.REPUL>
0

>  <SCORE.INTRA.REPUL.0>
0

>  <SCORE.INTRA.SOLV>
2.71051

>  <SCORE.INTRA.SOLV.lig_0>
-70.9803

>  <SCORE.INTRA.VDW>
-2.75885

>  <SCORE.INTRA.VDW.0>
-0.709409

>  <SCORE.INTRA.norm>
0.0515918

>  <SCORE.RESTR>
0

>  <SCORE.RESTR.CAVITY>
0

>  <SCORE.RESTR.norm>
0

>  <SCORE.SYSTEM>
0

>  <SCORE.SYSTEM.CONST>
0

>  <SCORE.SYSTEM.DIHEDRAL>
0

>  <SCORE.SYSTEM.SOLV>
0

>  <SCORE.SYSTEM.norm>
0

>  <SCORE.heavy>
25

>  <SCORE.norm>
-0.502594

>  <RMSD>
3.836

$$$$
ligand
 OpenBabel11021811503D
libRbt.so/2013.1/901 2013/11/27
 25 27  0  0  0  0  0  0  0  0999 V2000
    9.0648  -24.5057   22.6844 N   0  0  0  0  0  0  0  0  0  0  0  0
    8.5890  -23.1769   22.9151 C   0  0  0  0  0  0  0  0  0  0  0  0
    9.1160  -22.2186   22.3638 O   0  0  0  0  0  0  0  0  0  0  0  0
    4.4484  -20.1468   21.1076 N   0  0  0  0  0  0  0  0  0  0  0  0
    4.3039  -19.4797   23.4097 N   0  0  0  0  0  0  0  0  0  0  0  0
    3.8649  -20.2713   22.4039 C   0  0  0  0  0  0  0  0  0  0  0  0
    2.8650  -21.1810   22.6057 N   0  0  0  0  0  0  0  0  0  0  0  0
    2.2686  -21.3395   23.8148 C   0  0  0  0  0  0  0  0  0  0  0  0
    2.7094  -20.5400   24.8965 C   0  0  0  0  0  0  0  0  0  0  0  0
    1.2759  -22.2801   23.9590 O   0  0  0  0  0  0  0  0  0  0  0  0
    0.7434  -20.7593   26.5043 C   0  0  0  0  0  0  0  0  0  0  0  0
    2.1505  -20.5806   26.2379 N   0  0  0  0  0  0  0  0  0  0  0  0
   -0.0724  -19.8458   26.4432 O   0  0  0  0  0  0  0  0  0  0  0  0
    3.0641  -20.3244   27.2682 C   0  0  2  0  0  0  0  0  0  0  0  0
    3.7193  -18.9368   27.0472 C   0  0  0  0  0  0  0  0  0  0  0  0
    3.7443  -19.5818   24.6566 C   0  0  0  0  0  0  0  0  0  0  0  0
    4.2303  -18.7373   25.7513 N   0  0  0  0  0  0  0  0  0  0  0  0
    4.1234  -21.4061   27.3313 C   0  0  0  0  0  0  0  0  0  0  0  0
    4.0848  -22.4204   26.3146 N   0  0  0  0  0  0  0  0  0  0  0  0
    7.4273  -22.9799   23.8263 C   0  0  0  0  0  0  0  0  0  0  0  0
    7.6162  -22.6626   25.1644 C   0  0  0  0  0  0  0  0  0  0  0  0
    6.5115  -22.4844   25.9883 C   0  0  0  0  0  0  0  0  0  0  0  0
    5.2234  -22.6106   25.4719 C   0  0  0  0  0  0  0  0  0  0  0  0
    5.0399  -22.9165   24.1347 C   0  0  0  0  0  0  0  0  0  0  0  0
    6.1445  -23.1057   23.3130 C   0  0  0  0  0  0  0  0  0  0  0  0
  1  2  1  0  0  0  0
  2  3  2  0  0  0  0
  2 20  1  0  0  0  0
  4  6  1  0  0  0  0
  5  6  2  0  0  0  0
  5 16  1  0  0  0  0
  6  7  1  0  0  0  0
  7  8  1  0  0  0  0
  8  9  1  0  0  0  0
  8 10  2  0  0  0  0
  9 12  1  0  0  0  0
  9 16  2  0  0  0  0
 11 13  1  0  0  0  0
 11 12  1  0  0  0  0
 12 14  1  0  0  0  0
 14 15  1  0  0  0  0
 14 18  1  6  0  0  0
 15 17  1  0  0  0  0
 16 17  1  0  0  0  0
 18 19  1  0  0  0  0
 19 23  1  0  0  0  0
 20 21  2  0  0  0  0
 20 25  1  0  0  0  0
 21 22  1  0  0  0  0
 22 23  2  0  0  0  0
 23 24  1  0  0  0  0
 24 25  2  0  0  0  0
M  END
>  <CHROM.1>
-80.85784698,4.26693153,121.37992102,37.23344449,95.75564786,4.41698901,-21.34495831
24.63616837,-0.36216544,-0.43962839,1.63216450

>  <Name>
ligand

>  <RI>
0

>  <Rbt.Current_Directory>
/home/itssahil/PROJECTS/Mol_Feturizer/New_Systems/rnas/4LVV

>  <Rbt.Executable>
rbdock ($Id: //depot/dev/client3/rdock/2013.1/src/exe/rbdock.cxx#4 $)

>  <Rbt.Library>
libRbt.so (2013.1, Build901 2013/11/27)

>  <Rbt.Parameter_File>
/export/apps/rDock/src/rDock_2013.1_src/data/scripts/dock_solv.prm

>  <Rbt.Receptor>
prm/pocket_docking_5.prm

>  <SCORE>
-11.9805

>  <SCORE.INTER>
-13.0128

>  <SCORE.INTER.CONST>
1

>  <SCORE.INTER.POLAR>
0

>  <SCORE.INTER.ROT>
5

>  <SCORE.INTER.SOLV>
15.2201

>  <SCORE.INTER.VDW>
-20.6819

>  <SCORE.INTER.norm>
-0.520512

>  <SCORE.INTRA>
1.03227

>  <SCORE.INTRA.DIHEDRAL>
5.58162

>  <SCORE.INTRA.DIHEDRAL.0>
3.94806

>  <SCORE.INTRA.POLAR>
0

>  <SCORE.INTRA.POLAR.0>
0

>  <SCORE.INTRA.REPUL>
0

>  <SCORE.INTRA.REPUL.0>
0

>  <SCORE.INTRA.SOLV>
1.90153

>  <SCORE.INTRA.SOLV.lig_0>
-70.9803

>  <SCORE.INTRA.VDW>
-2.7093

>  <SCORE.INTRA.VDW.0>
-0.709409

>  <SCORE.INTRA.norm>
0.041291

>  <SCORE.RESTR>
0

>  <SCORE.RESTR.CAVITY>
0

>  <SCORE.RESTR.norm>
0

>  <SCORE.SYSTEM>
0

>  <SCORE.SYSTEM.CONST>
0

>  <SCORE.SYSTEM.DIHEDRAL>
0

>  <SCORE.SYSTEM.SOLV>
0

>  <SCORE.SYSTEM.norm>
0

>  <SCORE.heavy>
25

>  <SCORE.norm>
-0.479221

>  <RMSD>
3.836

$$$$
ligand
 OpenBabel11021811503D
libRbt.so/2013.1/901 2013/11/27
 25 27  0  0  0  0  0  0  0  0999 V2000
    9.6986  -23.8997   23.8885 N   0  0  0  0  0  0  0  0  0  0  0  0
    8.5191  -23.3439   23.3010 C   0  0  0  0  0  0  0  0  0  0  0  0
    8.4734  -23.0965   22.1023 O   0  0  0  0  0  0  0  0  0  0  0  0
    4.6889  -20.8158   21.2320 N   0  0  0  0  0  0  0  0  0  0  0  0
    4.5453  -19.8855   23.4409 N   0  0  0  0  0  0  0  0  0  0  0  0
    4.0463  -20.7231   22.5027 C   0  0  0  0  0  0  0  0  0  0  0  0
    2.9311  -21.4745   22.7477 N   0  0  0  0  0  0  0  0  0  0  0  0
    2.2746  -21.4235   23.9347 C   0  0  0  0  0  0  0  0  0  0  0  0
    2.7737  -20.5699   24.9476 C   0  0  0  0  0  0  0  0  0  0  0  0
    1.1648  -22.2125   24.1261 O   0  0  0  0  0  0  0  0  0  0  0  0
    0.7372  -20.3657   26.4672 C   0  0  0  0  0  0  0  0  0  0  0  0
    2.1645  -20.3927   26.2557 N   0  0  0  0  0  0  0  0  0  0  0  0
    0.0816  -21.3628   26.7496 O   0  0  0  0  0  0  0  0  0  0  0  0
    3.0644  -20.1389   27.2986 C   0  0  2  0  0  0  0  0  0  0  0  0
    3.8999  -18.8758   26.9668 C   0  0  0  0  0  0  0  0  0  0  0  0
    3.9312  -19.7792   24.6616 C   0  0  0  0  0  0  0  0  0  0  0  0
    4.4803  -18.8855   25.6849 N   0  0  0  0  0  0  0  0  0  0  0  0
    3.9731  -21.3295   27.5288 C   0  0  0  0  0  0  0  0  0  0  0  0
    3.9417  -22.3769   26.5459 N   0  0  0  0  0  0  0  0  0  0  0  0
    7.3380  -23.0864   24.1715 C   0  0  0  0  0  0  0  0  0  0  0  0
    7.4893  -22.5193   25.4293 C   0  0  0  0  0  0  0  0  0  0  0  0
    6.3673  -22.2911   26.2168 C   0  0  0  0  0  0  0  0  0  0  0  0
    5.0986  -22.6173   25.7418 C   0  0  0  0  0  0  0  0  0  0  0  0
    4.9518  -23.1727   24.4827 C   0  0  0  0  0  0  0  0  0  0  0  0
    6.0746  -23.4113   23.6994 C   0  0  0  0  0  0  0  0  0  0  0  0
  1  2  1  0  0  0  0
  2  3  2  0  0  0  0
  2 20  1  0  0  0  0
  4  6  1  0  0  0  0
  5  6  2  0  0  0  0
  5 16  1  0  0  0  0
  6  7  1  0  0  0  0
  7  8  1  0  0  0  0
  8  9  1  0  0  0  0
  8 10  2  0  0  0  0
  9 12  1  0  0  0  0
  9 16  2  0  0  0  0
 11 13  1  0  0  0  0
 11 12  1  0  0  0  0
 12 14  1  0  0  0  0
 14 15  1  0  0  0  0
 14 18  1  6  0  0  0
 15 17  1  0  0  0  0
 16 17  1  0  0  0  0
 18 19  1  0  0  0  0
 19 23  1  0  0  0  0
 20 21  2  0  0  0  0
 20 25  1  0  0  0  0
 21 22  1  0  0  0  0
 22 23  2  0  0  0  0
 23 24  1  0  0  0  0
 24 25  2  0  0  0  0
M  END
>  <CHROM.1>
92.60803712,10.52467220,113.45313858,26.75351151,42.95867625,4.43406734,-21.50134499
24.81191811,-0.39898381,-0.36588656,1.50274264

>  <Name>
ligand

>  <RI>
0

>  <Rbt.Current_Directory>
/home/itssahil/PROJECTS/Mol_Feturizer/New_Systems/rnas/4LVV

>  <Rbt.Executable>
rbdock ($Id: //depot/dev/client3/rdock/2013.1/src/exe/rbdock.cxx#4 $)

>  <Rbt.Library>
libRbt.so (2013.1, Build901 2013/11/27)

>  <Rbt.Parameter_File>
/export/apps/rDock/src/rDock_2013.1_src/data/scripts/dock_solv.prm

>  <Rbt.Receptor>
prm/pocket_docking_8.prm

>  <SCORE>
-12.7736

>  <SCORE.INTER>
-14.0717

>  <SCORE.INTER.CONST>
1

>  <SCORE.INTER.POLAR>
0

>  <SCORE.INTER.ROT>
5

>  <SCORE.INTER.SOLV>
14.5169

>  <SCORE.INTER.VDW>
-21.1534

>  <SCORE.INTER.norm>
-0.562869

>  <SCORE.INTRA>
1.2981

>  <SCORE.INTRA.DIHEDRAL>
5.49303

>  <SCORE.INTRA.DIHEDRAL.0>
3.94806

>  <SCORE.INTRA.POLAR>
0

>  <SCORE.INTRA.POLAR.0>
0

>  <SCORE.INTRA.REPUL>
0

>  <SCORE.INTRA.REPUL.0>
0

>  <SCORE.INTRA.SOLV>
2.65519

>  <SCORE.INTRA.SOLV.lig_0>
-70.9803

>  <SCORE.INTRA.VDW>
-2.77601

>  <SCORE.INTRA.VDW.0>
-0.709409

>  <SCORE.INTRA.norm>
0.0519239

>  <SCORE.RESTR>
0

>  <SCORE.RESTR.CAVITY>
0

>  <SCORE.RESTR.norm>
0

>  <SCORE.SYSTEM>
0

>  <SCORE.SYSTEM.CONST>
0

>  <SCORE.SYSTEM.DIHEDRAL>
0

>  <SCORE.SYSTEM.SOLV>
0

>  <SCORE.SYSTEM.norm>
0

>  <SCORE.heavy>
25

>  <SCORE.norm>
-0.510945

>  <RMSD>
3.837

$$$$
ligand
 OpenBabel11021811503D
libRbt.so/2013.1/901 2013/11/27
 25 27  0  0  0  0  0  0  0  0999 V2000
    8.9864  -22.2049   22.3169 N   0  0  0  0  0  0  0  0  0  0  0  0
    8.5196  -23.2768   23.1406 C   0  0  0  0  0  0  0  0  0  0  0  0
    9.1028  -24.3537   23.1568 O   0  0  0  0  0  0  0  0  0  0  0  0
    4.5145  -20.4443   21.2007 N   0  0  0  0  0  0  0  0  0  0  0  0
    4.3725  -19.6582   23.4650 N   0  0  0  0  0  0  0  0  0  0  0  0
    3.9083  -20.4760   22.4921 C   0  0  0  0  0  0  0  0  0  0  0  0
    2.8618  -21.3247   22.7222 N   0  0  0  0  0  0  0  0  0  0  0  0
    2.2423  -21.3940   23.9279 C   0  0  0  0  0  0  0  0  0  0  0  0
    2.7078  -20.5647   24.9763 C   0  0  0  0  0  0  0  0  0  0  0  0
    1.2023  -22.2767   24.1020 O   0  0  0  0  0  0  0  0  0  0  0  0
    0.7120  -20.6081   26.5617 C   0  0  0  0  0  0  0  0  0  0  0  0
    2.1296  -20.5118   26.3092 N   0  0  0  0  0  0  0  0  0  0  0  0
   -0.1310  -20.5897   25.6713 O   0  0  0  0  0  0  0  0  0  0  0  0
    3.0410  -20.2499   27.3400 C   0  0  2  0  0  0  0  0  0  0  0  0
    3.7670  -18.9086   27.0622 C   0  0  0  0  0  0  0  0  0  0  0  0
    3.7920  -19.6711   24.7065 C   0  0  0  0  0  0  0  0  0  0  0  0
    4.3046  -18.7985   25.7664 N   0  0  0  0  0  0  0  0  0  0  0  0
    4.0444  -21.3777   27.4723 C   0  0  0  0  0  0  0  0  0  0  0  0
    3.9921  -22.4199   26.4848 N   0  0  0  0  0  0  0  0  0  0  0  0
    7.3188  -23.0547   23.9934 C   0  0  0  0  0  0  0  0  0  0  0  0
    6.0423  -23.2965   23.5047 C   0  0  0  0  0  0  0  0  0  0  0  0
    4.9424  -23.0802   24.3260 C   0  0  0  0  0  0  0  0  0  0  0  0
    5.1205  -22.6362   25.6348 C   0  0  0  0  0  0  0  0  0  0  0  0
    6.3958  -22.4066   26.1211 C   0  0  0  0  0  0  0  0  0  0  0  0
    7.4953  -22.6123   25.2965 C   0  0  0  0  0  0  0  0  0  0  0  0
  1  2  1  0  0  0  0
  2  3  2  0  0  0  0
  2 20  1  0  0  0  0
  4  6  1  0  0  0  0
  5  6  2  0  0  0  0
  5 16  1  0  0  0  0
  6  7  1  0  0  0  0
  7  8  1  0  0  0  0
  8  9  1  0  0  0  0
  8 10  2  0  0  0  0
  9 12  1  0  0  0  0
  9 16  2  0  0  0  0
 11 13  1  0  0  0  0
 11 12  1  0  0  0  0
 12 14  1  0  0  0  0
 14 15  1  0  0  0  0
 14 18  1  6  0  0  0
 15 17  1  0  0  0  0
 16 17  1  0  0  0  0
 18 19  1  0  0  0  0
 19 23  1  0  0  0  0
 20 21  2  0  0  0  0
 20 25  1  0  0  0  0
 21 22  1  0  0  0  0
 22 23  2  0  0  0  0
 23 24  1  0  0  0  0
 24 25  2  0  0  0  0
M  END
>  <CHROM.1>
-8.55443703,5.86963553,117.66199835,-147.40649104,88.54003518,4.38346639
-21.42919219,24.71760240,0.35878193,0.39801980,-1.59032492

>  <Name>
ligand

>  <RI>
0

>  <Rbt.Current_Directory>
/home/itssahil/PROJECTS/Mol_Feturizer/New_Systems/rnas/4LVV

>  <Rbt.Executable>
rbdock ($Id: //depot/dev/client3/rdock/2013.1/src/exe/rbdock.cxx#4 $)

>  <Rbt.Library>
libRbt.so (2013.1, Build901 2013/11/27)

>  <Rbt.Parameter_File>
/export/apps/rDock/src/rDock_2013.1_src/data/scripts/dock_solv.prm

>  <Rbt.Receptor>
prm/pocket_docking_8.prm

>  <SCORE>
-12.1391

>  <SCORE.INTER>
-13.6187

>  <SCORE.INTER.CONST>
1

>  <SCORE.INTER.POLAR>
0

>  <SCORE.INTER.ROT>
5

>  <SCORE.INTER.SOLV>
14.725

>  <SCORE.INTER.VDW>
-20.9208

>  <SCORE.INTER.norm>
-0.544749

>  <SCORE.INTRA>
1.47962

>  <SCORE.INTRA.DIHEDRAL>
5.7626

>  <SCORE.INTRA.DIHEDRAL.0>
3.94806

>  <SCORE.INTRA.POLAR>
0

>  <SCORE.INTRA.POLAR.0>
0

>  <SCORE.INTRA.REPUL>
0

>  <SCORE.INTRA.REPUL.0>
0

>  <SCORE.INTRA.SOLV>
2.25928

>  <SCORE.INTRA.SOLV.lig_0>
-70.9803

>  <SCORE.INTRA.VDW>
-2.53132

>  <SCORE.INTRA.VDW.0>
-0.709409

>  <SCORE.INTRA.norm>
0.0591846

>  <SCORE.RESTR>
0

>  <SCORE.RESTR.CAVITY>
0

>  <SCORE.RESTR.norm>
0

>  <SCORE.SYSTEM>
0

>  <SCORE.SYSTEM.CONST>
0

>  <SCORE.SYSTEM.DIHEDRAL>
0

>  <SCORE.SYSTEM.SOLV>
0

>  <SCORE.SYSTEM.norm>
0

>  <SCORE.heavy>
25

>  <SCORE.norm>
-0.485564

>  <RMSD>
3.841

$$$$
ligand
 OpenBabel11021811503D
libRbt.so/2013.1/901 2013/11/27
 25 27  0  0  0  0  0  0  0  0999 V2000
    9.5247  -22.4765   23.0520 N   0  0  0  0  0  0  0  0  0  0  0  0
    8.3828  -23.3351   22.9856 C   0  0  0  0  0  0  0  0  0  0  0  0
    8.3434  -24.2640   22.1882 O   0  0  0  0  0  0  0  0  0  0  0  0
    4.4349  -20.3501   21.1700 N   0  0  0  0  0  0  0  0  0  0  0  0
    4.3052  -19.5863   23.4427 N   0  0  0  0  0  0  0  0  0  0  0  0
    3.8431  -20.4024   22.4674 C   0  0  0  0  0  0  0  0  0  0  0  0
    2.8122  -21.2690   22.7009 N   0  0  0  0  0  0  0  0  0  0  0  0
    2.2067  -21.3585   23.9124 C   0  0  0  0  0  0  0  0  0  0  0  0
    2.6707  -20.5314   24.9633 C   0  0  0  0  0  0  0  0  0  0  0  0
    1.1822  -22.2584   24.0896 O   0  0  0  0  0  0  0  0  0  0  0  0
    0.6929  -20.6193   26.5692 C   0  0  0  0  0  0  0  0  0  0  0  0
    2.1062  -20.4991   26.3026 N   0  0  0  0  0  0  0  0  0  0  0  0
   -0.1565  -20.6504   25.6852 O   0  0  0  0  0  0  0  0  0  0  0  0
    3.0244  -20.2325   27.3261 C   0  0  2  0  0  0  0  0  0  0  0  0
    3.7270  -18.8778   27.0527 C   0  0  0  0  0  0  0  0  0  0  0  0
    3.7383  -19.6190   24.6901 C   0  0  0  0  0  0  0  0  0  0  0  0
    4.2490  -18.7481   25.7523 N   0  0  0  0  0  0  0  0  0  0  0  0
    4.0462  -21.3459   27.4376 C   0  0  0  0  0  0  0  0  0  0  0  0
    3.9740  -22.4008   26.4649 N   0  0  0  0  0  0  0  0  0  0  0  0
    7.2467  -23.0899   23.9172 C   0  0  0  0  0  0  0  0  0  0  0  0
    7.4719  -22.6808   25.2243 C   0  0  0  0  0  0  0  0  0  0  0  0
    6.3904  -22.4596   26.0683 C   0  0  0  0  0  0  0  0  0  0  0  0
    5.0890  -22.6347   25.6019 C   0  0  0  0  0  0  0  0  0  0  0  0
    4.8692  -23.0324   24.2946 C   0  0  0  0  0  0  0  0  0  0  0  0
    5.9508  -23.2644   23.4535 C   0  0  0  0  0  0  0  0  0  0  0  0
  1  2  1  0  0  0  0
  2  3  2  0  0  0  0
  2 20  1  0  0  0  0
  4  6  1  0  0  0  0
  5  6  2  0  0  0  0
  5 16  1  0  0  0  0
  6  7  1  0  0  0  0
  7  8  1  0  0  0  0
  8  9  1  0  0  0  0
  8 10  2  0  0  0  0
  9 12  1  0  0  0  0
  9 16  2  0  0  0  0
 11 13  1  0  0  0  0
 11 12  1  0  0  0  0
 12 14  1  0  0  0  0
 14 15  1  0  0  0  0
 14 18  1  6  0  0  0
 15 17  1  0  0  0  0
 16 17  1  0  0  0  0
 18 19  1  0  0  0  0
 19 23  1  0  0  0  0
 20 21  2  0  0  0  0
 20 25  1  0  0  0  0
 21 22  1  0  0  0  0
 22 23  2  0  0  0  0
 23 24  1  0  0  0  0
 24 25  2  0  0  0  0
M  END
>  <CHROM.1>
-6.05980919,4.06998063,119.20644764,35.31870533,-37.41669408,4.32950594,-21.42052210
24.67564576,-0.41116866,-0.38169478,1.47662502

>  <Name>
ligand

>  <RI>
0

>  <Rbt.Current_Directory>
/home/itssahil/PROJECTS/Mol_Feturizer/New_Systems/rnas/4LVV

>  <Rbt.Executable>
rbdock ($Id: //depot/dev/client3/rdock/2013.1/src/exe/rbdock.cxx#4 $)

>  <Rbt.Library>
libRbt.so (2013.1, Build901 2013/11/27)

>  <Rbt.Parameter_File>
/export/apps/rDock/src/rDock_2013.1_src/data/scripts/dock_solv.prm

>  <Rbt.Receptor>
prm/pocket_docking_4.prm

>  <SCORE>
-12.0715

>  <SCORE.INTER>
-13.6732

>  <SCORE.INTER.CONST>
1

>  <SCORE.INTER.POLAR>
0

>  <SCORE.INTER.ROT>
5

>  <SCORE.INTER.SOLV>
15.1101

>  <SCORE.INTER.VDW>
-21.0855

>  <SCORE.INTER.norm>
-0.54693

>  <SCORE.INTRA>
1.60171

>  <SCORE.INTRA.DIHEDRAL>
5.8154

>  <SCORE.INTRA.DIHEDRAL.0>
3.94806

>  <SCORE.INTRA.POLAR>
0

>  <SCORE.INTRA.POLAR.0>
0

>  <SCORE.INTRA.REPUL>
0

>  <SCORE.INTRA.REPUL.0>
0

>  <SCORE.INTRA.SOLV>
2.20003

>  <SCORE.INTRA.SOLV.lig_0>
-70.9803

>  <SCORE.INTRA.VDW>
-2.406

>  <SCORE.INTRA.VDW.0>
-0.709409

>  <SCORE.INTRA.norm>
0.0640684

>  <SCORE.RESTR>
0

>  <SCORE.RESTR.CAVITY>
0

>  <SCORE.RESTR.norm>
0

>  <SCORE.SYSTEM>
0

>  <SCORE.SYSTEM.CONST>
0

>  <SCORE.SYSTEM.DIHEDRAL>
0

>  <SCORE.SYSTEM.SOLV>
0

>  <SCORE.SYSTEM.norm>
0

>  <SCORE.heavy>
25

>  <SCORE.norm>
-0.482861

>  <RMSD>
3.844

$$$$
ligand
 OpenBabel11021811503D
libRbt.so/2013.1/901 2013/11/27
 25 27  0  0  0  0  0  0  0  0999 V2000
    8.7985  -22.5889   22.1780 N   0  0  0  0  0  0  0  0  0  0  0  0
    8.6367  -23.2760   23.4219 C   0  0  0  0  0  0  0  0  0  0  0  0
    9.5058  -24.0325   23.8370 O   0  0  0  0  0  0  0  0  0  0  0  0
    4.6840  -20.8133   21.2294 N   0  0  0  0  0  0  0  0  0  0  0  0
    4.5420  -19.8820   23.4380 N   0  0  0  0  0  0  0  0  0  0  0  0
    4.0427  -20.7205   22.5007 C   0  0  0  0  0  0  0  0  0  0  0  0
    2.9284  -21.4728   22.7474 N   0  0  0  0  0  0  0  0  0  0  0  0
    2.2733  -21.4217   23.9351 C   0  0  0  0  0  0  0  0  0  0  0  0
    2.7727  -20.5671   24.9470 C   0  0  0  0  0  0  0  0  0  0  0  0
    1.1643  -22.2117   24.1281 O   0  0  0  0  0  0  0  0  0  0  0  0
    0.7377  -20.3639   26.4687 C   0  0  0  0  0  0  0  0  0  0  0  0
    2.1648  -20.3897   26.2556 N   0  0  0  0  0  0  0  0  0  0  0  0
    0.0852  -21.3592   26.7645 O   0  0  0  0  0  0  0  0  0  0  0  0
    3.0655  -20.1345   27.2974 C   0  0  2  0  0  0  0  0  0  0  0  0
    3.8996  -18.8709   26.9640 C   0  0  0  0  0  0  0  0  0  0  0  0
    3.9291  -19.7756   24.6592 C   0  0  0  0  0  0  0  0  0  0  0  0
    4.4786  -18.8807   25.6815 N   0  0  0  0  0  0  0  0  0  0  0  0
    3.9756  -21.3242   27.5272 C   0  0  0  0  0  0  0  0  0  0  0  0
    3.9580  -22.3633   26.5353 N   0  0  0  0  0  0  0  0  0  0  0  0
    7.3973  -23.0415   24.2141 C   0  0  0  0  0  0  0  0  0  0  0  0
    6.1502  -23.3721   23.7017 C   0  0  0  0  0  0  0  0  0  0  0  0
    5.0130  -23.1416   24.4663 C   0  0  0  0  0  0  0  0  0  0  0  0
    5.1249  -22.5947   25.7430 C   0  0  0  0  0  0  0  0  0  0  0  0
    6.3712  -22.2766   26.2538 C   0  0  0  0  0  0  0  0  0  0  0  0
    7.5078  -22.4967   25.4851 C   0  0  0  0  0  0  0  0  0  0  0  0
  1  2  1  0  0  0  0
  2  3  2  0  0  0  0
  2 20  1  0  0  0  0
  4  6  1  0  0  0  0
  5  6  2  0  0  0  0
  5 16  1  0  0  0  0
  6  7  1  0  0  0  0
  7  8  1  0  0  0  0
  8  9  1  0  0  0  0
  8 10  2  0  0  0  0
  9 12  1  0  0  0  0
  9 16  2  0  0  0  0
 11 13  1  0  0  0  0
 11 12  1  0  0  0  0
 12 14  1  0  0  0  0
 14 15  1  0  0  0  0
 14 18  1  6  0  0  0
 15 17  1  0  0  0  0
 16 17  1  0  0  0  0
 18 19  1  0  0  0  0
 19 23  1  0  0  0  0
 20 21  2  0  0  0  0
 20 25  1  0  0  0  0
 21 22  1  0  0  0  0
 22 23  2  0  0  0  0
 23 24  1  0  0  0  0
 24 25  2  0  0  0  0
M  END
>  <CHROM.1>
93.30387470,11.38149294,113.55004351,-152.93737865,62.08546995,4.45904147
-21.47994113,24.83173367,0.36849377,0.36341425,-1.60659808

>  <Name>
ligand

>  <RI>
0

>  <Rbt.Current_Directory>
/home/itssahil/PROJECTS/Mol_Feturizer/New_Systems/rnas/4LVV

>  <Rbt.Executable>
rbdock ($Id: //depot/dev/client3/rdock/2013.1/src/exe/rbdock.cxx#4 $)

>  <Rbt.Library>
libRbt.so (2013.1, Build901 2013/11/27)

>  <Rbt.Parameter_File>
/export/apps/rDock/src/rDock_2013.1_src/data/scripts/dock_solv.prm

>  <Rbt.Receptor>
prm/pocket_docking_3.prm

>  <SCORE>
-12.7103

>  <SCORE.INTER>
-14.0103

>  <SCORE.INTER.CONST>
1

>  <SCORE.INTER.POLAR>
0

>  <SCORE.INTER.ROT>
5

>  <SCORE.INTER.SOLV>
13.9945

>  <SCORE.INTER.VDW>
-20.9384

>  <SCORE.INTER.norm>
-0.560413

>  <SCORE.INTRA>
1.29999

>  <SCORE.INTRA.DIHEDRAL>
5.44809

>  <SCORE.INTRA.DIHEDRAL.0>
3.94806

>  <SCORE.INTRA.POLAR>
0

>  <SCORE.INTRA.POLAR.0>
0

>  <SCORE.INTRA.REPUL>
0

>  <SCORE.INTRA.REPUL.0>
0

>  <SCORE.INTRA.SOLV>
2.65171

>  <SCORE.INTRA.SOLV.lig_0>
-70.9803

>  <SCORE.INTRA.VDW>
-2.74991

>  <SCORE.INTRA.VDW.0>
-0.709409

>  <SCORE.INTRA.norm>
0.0519996

>  <SCORE.RESTR>
0

>  <SCORE.RESTR.CAVITY>
0

>  <SCORE.RESTR.norm>
0

>  <SCORE.SYSTEM>
0

>  <SCORE.SYSTEM.CONST>
0

>  <SCORE.SYSTEM.DIHEDRAL>
0

>  <SCORE.SYSTEM.SOLV>
0

>  <SCORE.SYSTEM.norm>
0

>  <SCORE.heavy>
25

>  <SCORE.norm>
-0.508414

>  <RMSD>
3.854

$$$$
ligand
 OpenBabel11021811503D
libRbt.so/2013.1/901 2013/11/27
 25 27  0  0  0  0  0  0  0  0999 V2000
    9.2361  -24.4079   22.8000 N   0  0  0  0  0  0  0  0  0  0  0  0
    7.9870  -23.7241   22.6671 C   0  0  0  0  0  0  0  0  0  0  0  0
    7.4854  -23.5450   21.5642 O   0  0  0  0  0  0  0  0  0  0  0  0
    4.4401  -20.6281   21.0516 N   0  0  0  0  0  0  0  0  0  0  0  0
    4.6433  -20.0020   23.3607 N   0  0  0  0  0  0  0  0  0  0  0  0
    3.8949  -20.5340   22.3669 C   0  0  0  0  0  0  0  0  0  0  0  0
    2.6216  -20.9735   22.5991 N   0  0  0  0  0  0  0  0  0  0  0  0
    2.0483  -20.9038   23.8275 C   0  0  0  0  0  0  0  0  0  0  0  0
    2.8039  -20.3667   24.8972 C   0  0  0  0  0  0  0  0  0  0  0  0
    0.7676  -21.3734   24.0017 O   0  0  0  0  0  0  0  0  0  0  0  0
    0.9631  -19.8144   26.5719 C   0  0  0  0  0  0  0  0  0  0  0  0
    2.3159  -20.2063   26.2572 N   0  0  0  0  0  0  0  0  0  0  0  0
   -0.0032  -20.5531   26.4157 O   0  0  0  0  0  0  0  0  0  0  0  0
    3.2865  -20.3547   27.2560 C   0  0  2  0  0  0  0  0  0  0  0  0
    4.4339  -19.3393   27.0193 C   0  0  0  0  0  0  0  0  0  0  0  0
    4.1274  -19.8959   24.6260 C   0  0  0  0  0  0  0  0  0  0  0  0
    4.9427  -19.3358   25.7073 N   0  0  0  0  0  0  0  0  0  0  0  0
    3.8277  -21.7700   27.2763 C   0  0  0  0  0  0  0  0  0  0  0  0
    5.2552  -21.9244   27.3270 N   0  0  0  0  0  0  0  0  0  0  0  0
    7.2965  -23.2475   23.8979 C   0  0  0  0  0  0  0  0  0  0  0  0
    7.9839  -22.5345   24.8705 C   0  0  0  0  0  0  0  0  0  0  0  0
    7.3107  -22.1031   26.0070 C   0  0  0  0  0  0  0  0  0  0  0  0
    5.9526  -22.3732   26.1630 C   0  0  0  0  0  0  0  0  0  0  0  0
    5.2690  -23.0751   25.1856 C   0  0  0  0  0  0  0  0  0  0  0  0
    5.9445  -23.5163   24.0541 C   0  0  0  0  0  0  0  0  0  0  0  0
  1  2  1  0  0  0  0
  2  3  2  0  0  0  0
  2 20  1  0  0  0  0
  4  6  1  0  0  0  0
  5  6  2  0  0  0  0
  5 16  1  0  0  0  0
  6  7  1  0  0  0  0
  7  8  1  0  0  0  0
  8  9  1  0  0  0  0
  8 10  2  0  0  0  0
  9 12  1  0  0  0  0
  9 16  2  0  0  0  0
 11 13  1  0  0  0  0
 11 12  1  0  0  0  0
 12 14  1  0  0  0  0
 14 15  1  0  0  0  0
 14 18  1  6  0  0  0
 15 17  1  0  0  0  0
 16 17  1  0  0  0  0
 18 19  1  0  0  0  0
 19 23  1  0  0  0  0
 20 21  2  0  0  0  0
 20 25  1  0  0  0  0
 21 22  1  0  0  0  0
 22 23  2  0  0  0  0
 23 24  1  0  0  0  0
 24 25  2  0  0  0  0
M  END
>  <CHROM.1>
71.56399819,132.58437016,-107.50275916,157.70150559,48.42397719,4.50347438
-21.43247042,24.71033285,-0.42185084,-0.43559595,1.46112890

>  <Name>
ligand

>  <RI>
0

>  <Rbt.Current_Directory>
/home/itssahil/PROJECTS/Mol_Feturizer/New_Systems/rnas/4LVV

>  <Rbt.Executable>
rbdock ($Id: //depot/dev/client3/rdock/2013.1/src/exe/rbdock.cxx#4 $)

>  <Rbt.Library>
libRbt.so (2013.1, Build901 2013/11/27)

>  <Rbt.Parameter_File>
/export/apps/rDock/src/rDock_2013.1_src/data/scripts/dock_solv.prm

>  <Rbt.Receptor>
prm/pocket_docking_3.prm

>  <SCORE>
-10.5081

>  <SCORE.INTER>
-12.6788

>  <SCORE.INTER.CONST>
1

>  <SCORE.INTER.POLAR>
0

>  <SCORE.INTER.ROT>
5

>  <SCORE.INTER.SOLV>
14.9579

>  <SCORE.INTER.VDW>
-20.3718

>  <SCORE.INTER.norm>
-0.507151

>  <SCORE.INTRA>
2.17068

>  <SCORE.INTRA.DIHEDRAL>
5.15614

>  <SCORE.INTRA.DIHEDRAL.0>
3.94806

>  <SCORE.INTRA.POLAR>
0

>  <SCORE.INTRA.POLAR.0>
0

>  <SCORE.INTRA.REPUL>
0

>  <SCORE.INTRA.REPUL.0>
0

>  <SCORE.INTRA.SOLV>
1.6638

>  <SCORE.INTRA.SOLV.lig_0>
-70.9803

>  <SCORE.INTRA.VDW>
-1.23929

>  <SCORE.INTRA.VDW.0>
-0.709409

>  <SCORE.INTRA.norm>
0.0868271

>  <SCORE.RESTR>
0

>  <SCORE.RESTR.CAVITY>
0

>  <SCORE.RESTR.norm>
0

>  <SCORE.SYSTEM>
0

>  <SCORE.SYSTEM.CONST>
0

>  <SCORE.SYSTEM.DIHEDRAL>
0

>  <SCORE.SYSTEM.SOLV>
0

>  <SCORE.SYSTEM.norm>
0

>  <SCORE.heavy>
25

>  <SCORE.norm>
-0.420324

>  <RMSD>
3.855

$$$$
ligand
 OpenBabel11021811503D
libRbt.so/2013.1/901 2013/11/27
 25 27  0  0  0  0  0  0  0  0999 V2000
    8.7592  -22.1353   21.6378 N   0  0  0  0  0  0  0  0  0  0  0  0
    8.2290  -23.2389   22.3769 C   0  0  0  0  0  0  0  0  0  0  0  0
    8.3225  -24.3824   21.9482 O   0  0  0  0  0  0  0  0  0  0  0  0
    4.7513  -20.9042   21.2033 N   0  0  0  0  0  0  0  0  0  0  0  0
    4.8691  -20.3164   23.5283 N   0  0  0  0  0  0  0  0  0  0  0  0
    4.1873  -20.8971   22.5140 C   0  0  0  0  0  0  0  0  0  0  0  0
    2.9628  -21.4680   22.7214 N   0  0  0  0  0  0  0  0  0  0  0  0
    2.3742  -21.4859   23.9444 C   0  0  0  0  0  0  0  0  0  0  0  0
    3.0619  -20.9012   25.0347 C   0  0  0  0  0  0  0  0  0  0  0  0
    1.1459  -22.0861   24.0929 O   0  0  0  0  0  0  0  0  0  0  0  0
    1.1595  -20.5775   26.7004 C   0  0  0  0  0  0  0  0  0  0  0  0
    2.5478  -20.8235   26.3924 N   0  0  0  0  0  0  0  0  0  0  0  0
    0.3211  -20.3046   25.8480 O   0  0  0  0  0  0  0  0  0  0  0  0
    3.5192  -20.8974   27.3986 C   0  0  2  0  0  0  0  0  0  0  0  0
    4.5603  -19.7662   27.1985 C   0  0  0  0  0  0  0  0  0  0  0  0
    4.3335  -20.2932   24.7897 C   0  0  0  0  0  0  0  0  0  0  0  0
    5.0782  -19.6800   25.8929 N   0  0  0  0  0  0  0  0  0  0  0  0
    4.2003  -22.2510   27.3927 C   0  0  0  0  0  0  0  0  0  0  0  0
    5.6364  -22.2613   27.3507 N   0  0  0  0  0  0  0  0  0  0  0  0
    7.5747  -22.9746   23.6886 C   0  0  0  0  0  0  0  0  0  0  0  0
    8.2225  -22.2425   24.6741 C   0  0  0  0  0  0  0  0  0  0  0  0
    7.5845  -22.0126   25.8870 C   0  0  0  0  0  0  0  0  0  0  0  0
    6.2987  -22.5023   26.1073 C   0  0  0  0  0  0  0  0  0  0  0  0
    5.6525  -23.2226   25.1178 C   0  0  0  0  0  0  0  0  0  0  0  0
    6.2946  -23.4622   23.9089 C   0  0  0  0  0  0  0  0  0  0  0  0
  1  2  1  0  0  0  0
  2  3  2  0  0  0  0
  2 20  1  0  0  0  0
  4  6  1  0  0  0  0
  5  6  2  0  0  0  0
  5 16  1  0  0  0  0
  6  7  1  0  0  0  0
  7  8  1  0  0  0  0
  8  9  1  0  0  0  0
  8 10  2  0  0  0  0
  9 12  1  0  0  0  0
  9 16  2  0  0  0  0
 11 13  1  0  0  0  0
 11 12  1  0  0  0  0
 12 14  1  0  0  0  0
 14 15  1  0  0  0  0
 14 18  1  6  0  0  0
 15 17  1  0  0  0  0
 16 17  1  0  0  0  0
 18 19  1  0  0  0  0
 19 23  1  0  0  0  0
 20 21  2  0  0  0  0
 20 25  1  0  0  0  0
 21 22  1  0  0  0  0
 22 23  2  0  0  0  0
 23 24  1  0  0  0  0
 24 25  2  0  0  0  0
M  END
>  <CHROM.1>
-6.22030454,127.85104683,-100.33002106,154.12739956,-52.26996838,4.77920672
-21.62569638,24.69478508,0.49263086,0.31529901,-1.66344289

>  <Name>
ligand

>  <RI>
0

>  <Rbt.Current_Directory>
/home/itssahil/PROJECTS/Mol_Feturizer/New_Systems/rnas/4LVV

>  <Rbt.Executable>
rbdock ($Id: //depot/dev/client3/rdock/2013.1/src/exe/rbdock.cxx#4 $)

>  <Rbt.Library>
libRbt.so (2013.1, Build901 2013/11/27)

>  <Rbt.Parameter_File>
/export/apps/rDock/src/rDock_2013.1_src/data/scripts/dock_solv.prm

>  <Rbt.Receptor>
prm/pocket_docking_3.prm

>  <SCORE>
-8.98542

>  <SCORE.INTER>
-10.9605

>  <SCORE.INTER.CONST>
1

>  <SCORE.INTER.POLAR>
0

>  <SCORE.INTER.ROT>
5

>  <SCORE.INTER.SOLV>
12.7221

>  <SCORE.INTER.VDW>
-18.481

>  <SCORE.INTER.norm>
-0.438419

>  <SCORE.INTRA>
1.97506

>  <SCORE.INTRA.DIHEDRAL>
5.34904

>  <SCORE.INTRA.DIHEDRAL.0>
3.94806

>  <SCORE.INTRA.POLAR>
0

>  <SCORE.INTRA.POLAR.0>
0

>  <SCORE.INTRA.REPUL>
0

>  <SCORE.INTRA.REPUL.0>
0

>  <SCORE.INTRA.SOLV>
2.28174

>  <SCORE.INTRA.SOLV.lig_0>
-70.9803

>  <SCORE.INTRA.VDW>
-1.84033

>  <SCORE.INTRA.VDW.0>
-0.709409

>  <SCORE.INTRA.norm>
0.0790024

>  <SCORE.RESTR>
0

>  <SCORE.RESTR.CAVITY>
0

>  <SCORE.RESTR.norm>
0

>  <SCORE.SYSTEM>
0

>  <SCORE.SYSTEM.CONST>
0

>  <SCORE.SYSTEM.DIHEDRAL>
0

>  <SCORE.SYSTEM.SOLV>
0

>  <SCORE.SYSTEM.norm>
0

>  <SCORE.heavy>
25

>  <SCORE.norm>
-0.359417

>  <RMSD>
3.857

$$$$
ligand
 OpenBabel11021811503D
libRbt.so/2013.1/901 2013/11/27
 25 27  0  0  0  0  0  0  0  0999 V2000
    8.5018  -23.1280   21.9339 N   0  0  0  0  0  0  0  0  0  0  0  0
    8.5463  -23.3799   23.3410 C   0  0  0  0  0  0  0  0  0  0  0  0
    9.5711  -23.7904   23.8715 O   0  0  0  0  0  0  0  0  0  0  0  0
    4.5405  -20.6450   21.1615 N   0  0  0  0  0  0  0  0  0  0  0  0
    4.3455  -19.7470   23.3798 N   0  0  0  0  0  0  0  0  0  0  0  0
    3.9116  -20.6207   22.4421 C   0  0  0  0  0  0  0  0  0  0  0  0
    2.8743  -21.4736   22.6972 N   0  0  0  0  0  0  0  0  0  0  0  0
    2.2342  -21.4915   23.8941 C   0  0  0  0  0  0  0  0  0  0  0  0
    2.6678  -20.6024   24.9065 C   0  0  0  0  0  0  0  0  0  0  0  0
    1.2049  -22.3810   24.0951 O   0  0  0  0  0  0  0  0  0  0  0  0
    0.6445  -20.5976   26.4573 C   0  0  0  0  0  0  0  0  0  0  0  0
    2.0649  -20.4911   26.2247 N   0  0  0  0  0  0  0  0  0  0  0  0
   -0.1776  -20.7007   25.5532 O   0  0  0  0  0  0  0  0  0  0  0  0
    2.9532  -20.1624   27.2564 C   0  0  2  0  0  0  0  0  0  0  0  0
    3.6635  -18.8253   26.9229 C   0  0  0  0  0  0  0  0  0  0  0  0
    3.7428  -19.7062   24.6101 C   0  0  0  0  0  0  0  0  0  0  0  0
    4.2227  -18.7725   25.6327 N   0  0  0  0  0  0  0  0  0  0  0  0
    3.9713  -21.2655   27.4637 C   0  0  0  0  0  0  0  0  0  0  0  0
    3.9454  -22.3630   26.5369 N   0  0  0  0  0  0  0  0  0  0  0  0
    7.3268  -23.1173   24.1549 C   0  0  0  0  0  0  0  0  0  0  0  0
    6.0622  -23.3973   23.6556 C   0  0  0  0  0  0  0  0  0  0  0  0
    4.9443  -23.1416   24.4404 C   0  0  0  0  0  0  0  0  0  0  0  0
    5.0925  -22.6201   25.7240 C   0  0  0  0  0  0  0  0  0  0  0  0
    6.3559  -22.3525   26.2216 C   0  0  0  0  0  0  0  0  0  0  0  0
    7.4735  -22.5977   25.4329 C   0  0  0  0  0  0  0  0  0  0  0  0
  1  2  1  0  0  0  0
  2  3  2  0  0  0  0
  2 20  1  0  0  0  0
  4  6  1  0  0  0  0
  5  6  2  0  0  0  0
  5 16  1  0  0  0  0
  6  7  1  0  0  0  0
  7  8  1  0  0  0  0
  8  9  1  0  0  0  0
  8 10  2  0  0  0  0
  9 12  1  0  0  0  0
  9 16  2  0  0  0  0
 11 13  1  0  0  0  0
 11 12  1  0  0  0  0
 12 14  1  0  0  0  0
 14 15  1  0  0  0  0
 14 18  1  6  0  0  0
 15 17  1  0  0  0  0
 16 17  1  0  0  0  0
 18 19  1  0  0  0  0
 19 23  1  0  0  0  0
 20 21  2  0  0  0  0
 20 25  1  0  0  0  0
 21 22  1  0  0  0  0
 22 23  2  0  0  0  0
 23 24  1  0  0  0  0
 24 25  2  0  0  0  0
M  END
>  <CHROM.1>
-5.05989218,5.34631979,118.40795436,-147.50355865,37.85315852,4.35754665
-21.47338960,24.72802345,0.34159310,0.38197227,-1.65681839

>  <Name>
ligand

>  <RI>
0

>  <Rbt.Current_Directory>
/home/itssahil/PROJECTS/Mol_Feturizer/New_Systems/rnas/4LVV

>  <Rbt.Executable>
rbdock ($Id: //depot/dev/client3/rdock/2013.1/src/exe/rbdock.cxx#4 $)

>  <Rbt.Library>
libRbt.so (2013.1, Build901 2013/11/27)

>  <Rbt.Parameter_File>
/export/apps/rDock/src/rDock_2013.1_src/data/scripts/dock_solv.prm

>  <Rbt.Receptor>
prm/pocket_docking_3.prm

>  <SCORE>
-12.1798

>  <SCORE.INTER>
-13.9051

>  <SCORE.INTER.CONST>
1

>  <SCORE.INTER.POLAR>
0

>  <SCORE.INTER.ROT>
5

>  <SCORE.INTER.SOLV>
15.024

>  <SCORE.INTER.VDW>
-21.2114

>  <SCORE.INTER.norm>
-0.556205

>  <SCORE.INTRA>
1.72531

>  <SCORE.INTRA.DIHEDRAL>
5.70657

>  <SCORE.INTRA.DIHEDRAL.0>
3.94806

>  <SCORE.INTRA.POLAR>
0

>  <SCORE.INTRA.POLAR.0>
0

>  <SCORE.INTRA.REPUL>
0

>  <SCORE.INTRA.REPUL.0>
0

>  <SCORE.INTRA.SOLV>
2.23435

>  <SCORE.INTRA.SOLV.lig_0>
-70.9803

>  <SCORE.INTRA.VDW>
-2.24515

>  <SCORE.INTRA.VDW.0>
-0.709409

>  <SCORE.INTRA.norm>
0.0690125

>  <SCORE.RESTR>
0

>  <SCORE.RESTR.CAVITY>
0

>  <SCORE.RESTR.norm>
0

>  <SCORE.SYSTEM>
0

>  <SCORE.SYSTEM.CONST>
0

>  <SCORE.SYSTEM.DIHEDRAL>
0

>  <SCORE.SYSTEM.SOLV>
0

>  <SCORE.SYSTEM.norm>
0

>  <SCORE.heavy>
25

>  <SCORE.norm>
-0.487193

>  <RMSD>
3.860

$$$$
ligand
 OpenBabel11021811503D
libRbt.so/2013.1/901 2013/11/27
 25 27  0  0  0  0  0  0  0  0999 V2000
    8.6673  -22.5542   22.0263 N   0  0  0  0  0  0  0  0  0  0  0  0
    8.5146  -23.3250   23.2212 C   0  0  0  0  0  0  0  0  0  0  0  0
    9.3620  -24.1463   23.5492 O   0  0  0  0  0  0  0  0  0  0  0  0
    4.6777  -20.5814   21.2376 N   0  0  0  0  0  0  0  0  0  0  0  0
    4.4782  -19.7453   23.4795 N   0  0  0  0  0  0  0  0  0  0  0  0
    4.0350  -20.5804   22.5116 C   0  0  0  0  0  0  0  0  0  0  0  0
    2.9754  -21.4159   22.7299 N   0  0  0  0  0  0  0  0  0  0  0  0
    2.3214  -21.4543   23.9188 C   0  0  0  0  0  0  0  0  0  0  0  0
    2.7639  -20.6059   24.9619 C   0  0  0  0  0  0  0  0  0  0  0  0
    1.2697  -22.3249   24.0821 O   0  0  0  0  0  0  0  0  0  0  0  0
    0.7237  -20.5996   26.4904 C   0  0  0  0  0  0  0  0  0  0  0  0
    2.1487  -20.5196   26.2763 N   0  0  0  0  0  0  0  0  0  0  0  0
   -0.0070  -19.6151   26.5182 O   0  0  0  0  0  0  0  0  0  0  0  0
    3.0326  -20.2425   27.3269 C   0  0  2  0  0  0  0  0  0  0  0  0
    3.7774  -18.9131   27.0411 C   0  0  0  0  0  0  0  0  0  0  0  0
    3.8627  -19.7268   24.7040 C   0  0  0  0  0  0  0  0  0  0  0  0
    4.3523  -18.8353   25.7590 N   0  0  0  0  0  0  0  0  0  0  0  0
    4.0225  -21.3748   27.5119 C   0  0  0  0  0  0  0  0  0  0  0  0
    3.9822  -22.4432   26.5522 N   0  0  0  0  0  0  0  0  0  0  0  0
    7.3124  -23.0988   24.0711 C   0  0  0  0  0  0  0  0  0  0  0  0
    6.0452  -23.4414   23.6197 C   0  0  0  0  0  0  0  0  0  0  0  0
    4.9439  -23.2183   24.4371 C   0  0  0  0  0  0  0  0  0  0  0  0
    5.1118  -22.6669   25.7057 C   0  0  0  0  0  0  0  0  0  0  0  0
    6.3783  -22.3369   26.1557 C   0  0  0  0  0  0  0  0  0  0  0  0
    7.4788  -22.5496   25.3341 C   0  0  0  0  0  0  0  0  0  0  0  0
  1  2  1  0  0  0  0
  2  3  2  0  0  0  0
  2 20  1  0  0  0  0
  4  6  1  0  0  0  0
  5  6  2  0  0  0  0
  5 16  1  0  0  0  0
  6  7  1  0  0  0  0
  7  8  1  0  0  0  0
  8  9  1  0  0  0  0
  8 10  2  0  0  0  0
  9 12  1  0  0  0  0
  9 16  2  0  0  0  0
 11 13  1  0  0  0  0
 11 12  1  0  0  0  0
 12 14  1  0  0  0  0
 14 15  1  0  0  0  0
 14 18  1  6  0  0  0
 15 17  1  0  0  0  0
 16 17  1  0  0  0  0
 18 19  1  0  0  0  0
 19 23  1  0  0  0  0
 20 21  2  0  0  0  0
 20 25  1  0  0  0  0
 21 22  1  0  0  0  0
 22 23  2  0  0  0  0
 23 24  1  0  0  0  0
 24 25  2  0  0  0  0
M  END
>  <CHROM.1>
-91.64241995,5.37004691,115.79863268,-151.04400690,67.45593163,4.42003230
-21.42425585,24.78359852,0.37832981,0.43595705,-1.58262713

>  <Name>
ligand

>  <RI>
0

>  <Rbt.Current_Directory>
/home/itssahil/PROJECTS/Mol_Feturizer/New_Systems/rnas/4LVV

>  <Rbt.Executable>
rbdock ($Id: //depot/dev/client3/rdock/2013.1/src/exe/rbdock.cxx#4 $)

>  <Rbt.Library>
libRbt.so (2013.1, Build901 2013/11/27)

>  <Rbt.Parameter_File>
/export/apps/rDock/src/rDock_2013.1_src/data/scripts/dock_solv.prm

>  <Rbt.Receptor>
prm/pocket_docking_3.prm

>  <SCORE>
-12.2487

>  <SCORE.INTER>
-13.276

>  <SCORE.INTER.CONST>
1

>  <SCORE.INTER.POLAR>
0

>  <SCORE.INTER.ROT>
5

>  <SCORE.INTER.SOLV>
14.6483

>  <SCORE.INTER.VDW>
-20.6667

>  <SCORE.INTER.norm>
-0.531039

>  <SCORE.INTRA>
1.02723

>  <SCORE.INTRA.DIHEDRAL>
5.50226

>  <SCORE.INTRA.DIHEDRAL.0>
3.94806

>  <SCORE.INTRA.POLAR>
0

>  <SCORE.INTRA.POLAR.0>
0

>  <SCORE.INTRA.REPUL>
0

>  <SCORE.INTRA.REPUL.0>
0

>  <SCORE.INTRA.SOLV>
1.98351

>  <SCORE.INTRA.SOLV.lig_0>
-70.9803

>  <SCORE.INTRA.VDW>
-2.71565

>  <SCORE.INTRA.VDW.0>
-0.709409

>  <SCORE.INTRA.norm>
0.0410893

>  <SCORE.RESTR>
0

>  <SCORE.RESTR.CAVITY>
0

>  <SCORE.RESTR.norm>
0

>  <SCORE.SYSTEM>
0

>  <SCORE.SYSTEM.CONST>
0

>  <SCORE.SYSTEM.DIHEDRAL>
0

>  <SCORE.SYSTEM.SOLV>
0

>  <SCORE.SYSTEM.norm>
0

>  <SCORE.heavy>
25

>  <SCORE.norm>
-0.489949

>  <RMSD>
3.860

$$$$
ligand
 OpenBabel11021811503D
libRbt.so/2013.1/901 2013/11/27
 25 27  0  0  0  0  0  0  0  0999 V2000
    8.7391  -22.4289   22.0107 N   0  0  0  0  0  0  0  0  0  0  0  0
    8.4575  -23.3958   23.0262 C   0  0  0  0  0  0  0  0  0  0  0  0
    9.1466  -24.4018   23.1414 O   0  0  0  0  0  0  0  0  0  0  0  0
    4.5489  -20.3838   21.1981 N   0  0  0  0  0  0  0  0  0  0  0  0
    4.3910  -19.6261   23.4710 N   0  0  0  0  0  0  0  0  0  0  0  0
    3.9447  -20.4435   22.4894 C   0  0  0  0  0  0  0  0  0  0  0  0
    2.9181  -21.3184   22.7108 N   0  0  0  0  0  0  0  0  0  0  0  0
    2.3014  -21.4151   23.9162 C   0  0  0  0  0  0  0  0  0  0  0  0
    2.7487  -20.5869   24.9733 C   0  0  0  0  0  0  0  0  0  0  0  0
    1.2820  -22.3231   24.0812 O   0  0  0  0  0  0  0  0  0  0  0  0
    0.7559  -20.6932   26.5594 C   0  0  0  0  0  0  0  0  0  0  0  0
    2.1708  -20.5618   26.3071 N   0  0  0  0  0  0  0  0  0  0  0  0
   -0.0288  -19.7537   26.4869 O   0  0  0  0  0  0  0  0  0  0  0  0
    3.0768  -20.2906   27.3401 C   0  0  2  0  0  0  0  0  0  0  0  0
    3.7718  -18.9301   27.0766 C   0  0  0  0  0  0  0  0  0  0  0  0
    3.8121  -19.6660   24.7127 C   0  0  0  0  0  0  0  0  0  0  0  0
    4.3056  -18.7935   25.7817 N   0  0  0  0  0  0  0  0  0  0  0  0
    4.1058  -21.3966   27.4594 C   0  0  0  0  0  0  0  0  0  0  0  0
    4.0403  -22.4588   26.4942 N   0  0  0  0  0  0  0  0  0  0  0  0
    7.3193  -23.1489   23.9548 C   0  0  0  0  0  0  0  0  0  0  0  0
    7.5396  -22.6991   25.2493 C   0  0  0  0  0  0  0  0  0  0  0  0
    6.4561  -22.4776   26.0908 C   0  0  0  0  0  0  0  0  0  0  0  0
    5.1574  -22.6930   25.6340 C   0  0  0  0  0  0  0  0  0  0  0  0
    4.9422  -23.1312   24.3390 C   0  0  0  0  0  0  0  0  0  0  0  0
    6.0260  -23.3635   23.5008 C   0  0  0  0  0  0  0  0  0  0  0  0
  1  2  1  0  0  0  0
  2  3  2  0  0  0  0
  2 20  1  0  0  0  0
  4  6  1  0  0  0  0
  5  6  2  0  0  0  0
  5 16  1  0  0  0  0
  6  7  1  0  0  0  0
  7  8  1  0  0  0  0
  8  9  1  0  0  0  0
  8 10  2  0  0  0  0
  9 12  1  0  0  0  0
  9 16  2  0  0  0  0
 11 13  1  0  0  0  0
 11 12  1  0  0  0  0
 12 14  1  0  0  0  0
 14 15  1  0  0  0  0
 14 18  1  6  0  0  0
 15 17  1  0  0  0  0
 16 17  1  0  0  0  0
 18 19  1  0  0  0  0
 19 23  1  0  0  0  0
 20 21  2  0  0  0  0
 20 25  1  0  0  0  0
 21 22  1  0  0  0  0
 22 23  2  0  0  0  0
 23 24  1  0  0  0  0
 24 25  2  0  0  0  0
M  END
>  <CHROM.1>
-82.87000472,3.28138167,119.30005844,33.81833748,-102.65250341,4.40624913
-21.42912897,24.73432493,0.37435219,0.46569706,-1.53058453

>  <Name>
ligand

>  <RI>
0

>  <Rbt.Current_Directory>
/home/itssahil/PROJECTS/Mol_Feturizer/New_Systems/rnas/4LVV

>  <Rbt.Executable>
rbdock ($Id: //depot/dev/client3/rdock/2013.1/src/exe/rbdock.cxx#4 $)

>  <Rbt.Library>
libRbt.so (2013.1, Build901 2013/11/27)

>  <Rbt.Parameter_File>
/export/apps/rDock/src/rDock_2013.1_src/data/scripts/dock_solv.prm

>  <Rbt.Receptor>
prm/pocket_docking_3.prm

>  <SCORE>
-12.4208

>  <SCORE.INTER>
-13.3763

>  <SCORE.INTER.CONST>
1

>  <SCORE.INTER.POLAR>
0

>  <SCORE.INTER.ROT>
5

>  <SCORE.INTER.SOLV>
15.1227

>  <SCORE.INTER.VDW>
-20.8918

>  <SCORE.INTER.norm>
-0.53505

>  <SCORE.INTRA>
0.955504

>  <SCORE.INTRA.DIHEDRAL>
5.55773

>  <SCORE.INTRA.DIHEDRAL.0>
3.94806

>  <SCORE.INTRA.POLAR>
0

>  <SCORE.INTRA.POLAR.0>
0

>  <SCORE.INTRA.REPUL>
0

>  <SCORE.INTRA.REPUL.0>
0

>  <SCORE.INTRA.SOLV>
1.89336

>  <SCORE.INTRA.SOLV.lig_0>
-70.9803

>  <SCORE.INTRA.VDW>
-2.77004

>  <SCORE.INTRA.VDW.0>
-0.709409

>  <SCORE.INTRA.norm>
0.0382202

>  <SCORE.RESTR>
0

>  <SCORE.RESTR.CAVITY>
0

>  <SCORE.RESTR.norm>
0

>  <SCORE.SYSTEM>
0

>  <SCORE.SYSTEM.CONST>
0

>  <SCORE.SYSTEM.DIHEDRAL>
0

>  <SCORE.SYSTEM.SOLV>
0

>  <SCORE.SYSTEM.norm>
0

>  <SCORE.heavy>
25

>  <SCORE.norm>
-0.49683

>  <RMSD>
3.862

$$$$
ligand
 OpenBabel11021811503D
libRbt.so/2013.1/901 2013/11/27
 25 27  0  0  0  0  0  0  0  0999 V2000
    6.0596  -22.4755   31.2037 N   0  0  0  0  0  0  0  0  0  0  0  0
    5.0197  -22.0811   30.3045 C   0  0  0  0  0  0  0  0  0  0  0  0
    3.9646  -21.6260   30.7284 O   0  0  0  0  0  0  0  0  0  0  0  0
   -1.0855  -21.5963   26.2485 N   0  0  0  0  0  0  0  0  0  0  0  0
    0.5469  -21.3278   24.5083 N   0  0  0  0  0  0  0  0  0  0  0  0
    0.2295  -21.2438   25.8209 C   0  0  0  0  0  0  0  0  0  0  0  0
    1.1439  -20.8173   26.7431 N   0  0  0  0  0  0  0  0  0  0  0  0
    2.4070  -20.4632   26.3945 C   0  0  0  0  0  0  0  0  0  0  0  0
    2.7827  -20.5508   25.0326 C   0  0  0  0  0  0  0  0  0  0  0  0
    3.2859  -20.0533   27.3694 O   0  0  0  0  0  0  0  0  0  0  0  0
    4.8477  -19.0566   24.9941 C   0  0  0  0  0  0  0  0  0  0  0  0
    4.0879  -20.1833   24.5083 N   0  0  0  0  0  0  0  0  0  0  0  0
    4.7576  -17.9305   24.5172 O   0  0  0  0  0  0  0  0  0  0  0  0
    4.5201  -20.9399   23.4117 C   0  0  2  0  0  0  0  0  0  0  0  0
    3.4799  -20.8352   22.2669 C   0  0  0  0  0  0  0  0  0  0  0  0
    1.8031  -20.9818   24.0831 C   0  0  0  0  0  0  0  0  0  0  0  0
    2.1539  -21.0886   22.6642 N   0  0  0  0  0  0  0  0  0  0  0  0
    4.7307  -22.3881   23.8050 C   0  0  0  0  0  0  0  0  0  0  0  0
    5.8193  -22.6723   24.6985 N   0  0  0  0  0  0  0  0  0  0  0  0
    5.2495  -22.2176   28.8392 C   0  0  0  0  0  0  0  0  0  0  0  0
    6.3992  -21.7126   28.2475 C   0  0  0  0  0  0  0  0  0  0  0  0
    6.5842  -21.8570   26.8778 C   0  0  0  0  0  0  0  0  0  0  0  0
    5.6287  -22.5153   26.1062 C   0  0  0  0  0  0  0  0  0  0  0  0
    4.4891  -23.0265   26.7023 C   0  0  0  0  0  0  0  0  0  0  0  0
    4.2985  -22.8726   28.0702 C   0  0  0  0  0  0  0  0  0  0  0  0
  1  2  1  0  0  0  0
  2  3  2  0  0  0  0
  2 20  1  0  0  0  0
  4  6  1  0  0  0  0
  5  6  2  0  0  0  0
  5 16  1  0  0  0  0
  6  7  1  0  0  0  0
  7  8  1  0  0  0  0
  8  9  1  0  0  0  0
  8 10  2  0  0  0  0
  9 12  1  0  0  0  0
  9 16  2  0  0  0  0
 11 13  1  0  0  0  0
 11 12  1  0  0  0  0
 12 14  1  0  0  0  0
 14 15  1  0  0  0  0
 14 18  1  1  0  0  0
 15 17  1  0  0  0  0
 16 17  1  0  0  0  0
 18 19  1  0  0  0  0
 19 23  1  0  0  0  0
 20 21  2  0  0  0  0
 20 25  1  0  0  0  0
 21 22  1  0  0  0  0
 22 23  2  0  0  0  0
 23 24  1  0  0  0  0
 24 25  2  0  0  0  0
M  END
>  <CHROM.1>
-90.50514615,-68.22992849,83.25285039,-134.03146380,-50.24060708,3.70757998
-21.24458340,26.14635806,1.10338842,-0.05947050,1.78736808

>  <Name>
ligand

>  <RI>
0

>  <Rbt.Current_Directory>
/home/itssahil/PROJECTS/Mol_Feturizer/New_Systems/rnas/4LVV

>  <Rbt.Executable>
rbdock ($Id: //depot/dev/client3/rdock/2013.1/src/exe/rbdock.cxx#4 $)

>  <Rbt.Library>
libRbt.so (2013.1, Build901 2013/11/27)

>  <Rbt.Parameter_File>
/export/apps/rDock/src/rDock_2013.1_src/data/scripts/dock_solv.prm

>  <Rbt.Receptor>
prm/pocket_docking_6.prm

>  <SCORE>
-15.7895

>  <SCORE.INTER>
-12.7044

>  <SCORE.INTER.CONST>
1

>  <SCORE.INTER.POLAR>
0

>  <SCORE.INTER.ROT>
5

>  <SCORE.INTER.SOLV>
25.6458

>  <SCORE.INTER.VDW>
-23.9515

>  <SCORE.INTER.norm>
-0.508175

>  <SCORE.INTRA>
-3.08513

>  <SCORE.INTRA.DIHEDRAL>
-0.213238

>  <SCORE.INTRA.DIHEDRAL.0>
3.94806

>  <SCORE.INTRA.POLAR>
0

>  <SCORE.INTRA.POLAR.0>
0

>  <SCORE.INTRA.REPUL>
0

>  <SCORE.INTRA.REPUL.0>
0

>  <SCORE.INTRA.SOLV>
0.557906

>  <SCORE.INTRA.SOLV.lig_0>
-70.9803

>  <SCORE.INTRA.VDW>
-3.25746

>  <SCORE.INTRA.VDW.0>
-0.709409

>  <SCORE.INTRA.norm>
-0.123405

>  <SCORE.RESTR>
0

>  <SCORE.RESTR.CAVITY>
0

>  <SCORE.RESTR.norm>
0

>  <SCORE.SYSTEM>
0

>  <SCORE.SYSTEM.CONST>
0

>  <SCORE.SYSTEM.DIHEDRAL>
0

>  <SCORE.SYSTEM.SOLV>
0

>  <SCORE.SYSTEM.norm>
0

>  <SCORE.heavy>
25

>  <SCORE.norm>
-0.63158

>  <RMSD>
3.865

$$$$
ligand
 OpenBabel11021811503D
libRbt.so/2013.1/901 2013/11/27
 25 27  0  0  0  0  0  0  0  0999 V2000
    9.0741  -24.5642   22.9246 N   0  0  0  0  0  0  0  0  0  0  0  0
    8.1356  -23.5007   22.7414 C   0  0  0  0  0  0  0  0  0  0  0  0
    7.9048  -23.0547   21.6242 O   0  0  0  0  0  0  0  0  0  0  0  0
    4.5691  -20.4275   21.2161 N   0  0  0  0  0  0  0  0  0  0  0  0
    4.4255  -19.7865   23.5256 N   0  0  0  0  0  0  0  0  0  0  0  0
    3.9398  -20.5147   22.4938 C   0  0  0  0  0  0  0  0  0  0  0  0
    2.8502  -21.3248   22.6519 N   0  0  0  0  0  0  0  0  0  0  0  0
    2.2073  -21.4432   23.8415 C   0  0  0  0  0  0  0  0  0  0  0  0
    2.6935  -20.7084   24.9494 C   0  0  0  0  0  0  0  0  0  0  0  0
    1.1235  -22.2837   23.9416 O   0  0  0  0  0  0  0  0  0  0  0  0
    0.6707  -20.7589   26.4999 C   0  0  0  0  0  0  0  0  0  0  0  0
    2.0955  -20.7154   26.2745 N   0  0  0  0  0  0  0  0  0  0  0  0
   -0.0393  -19.7591   26.5020 O   0  0  0  0  0  0  0  0  0  0  0  0
    3.0003  -20.5669   27.3333 C   0  0  2  0  0  0  0  0  0  0  0  0
    3.7942  -19.2471   27.1559 C   0  0  0  0  0  0  0  0  0  0  0  0
    3.8236  -19.8530   24.7551 C   0  0  0  0  0  0  0  0  0  0  0  0
    4.3588  -19.0782   25.8780 N   0  0  0  0  0  0  0  0  0  0  0  0
    3.9464  -21.7485   27.4042 C   0  0  0  0  0  0  0  0  0  0  0  0
    5.3502  -21.4721   27.2737 N   0  0  0  0  0  0  0  0  0  0  0  0
    7.4290  -22.9552   23.9338 C   0  0  0  0  0  0  0  0  0  0  0  0
    7.9419  -21.8709   24.6325 C   0  0  0  0  0  0  0  0  0  0  0  0
    7.2583  -21.3851   25.7404 C   0  0  0  0  0  0  0  0  0  0  0  0
    6.0600  -21.9739   26.1393 C   0  0  0  0  0  0  0  0  0  0  0  0
    5.5470  -23.0480   25.4331 C   0  0  0  0  0  0  0  0  0  0  0  0
    6.2361  -23.5411   24.3317 C   0  0  0  0  0  0  0  0  0  0  0  0
  1  2  1  0  0  0  0
  2  3  2  0  0  0  0
  2 20  1  0  0  0  0
  4  6  1  0  0  0  0
  5  6  2  0  0  0  0
  5 16  1  0  0  0  0
  6  7  1  0  0  0  0
  7  8  1  0  0  0  0
  8  9  1  0  0  0  0
  8 10  2  0  0  0  0
  9 12  1  0  0  0  0
  9 16  2  0  0  0  0
 11 13  1  0  0  0  0
 11 12  1  0  0  0  0
 12 14  1  0  0  0  0
 14 15  1  0  0  0  0
 14 18  1  6  0  0  0
 15 17  1  0  0  0  0
 16 17  1  0  0  0  0
 18 19  1  0  0  0  0
 19 23  1  0  0  0  0
 20 21  2  0  0  0  0
 20 25  1  0  0  0  0
 21 22  1  0  0  0  0
 22 23  2  0  0  0  0
 23 24  1  0  0  0  0
 24 25  2  0  0  0  0
M  END
>  <CHROM.1>
-84.71298085,120.38013841,-114.63501038,158.51347399,92.03890294,4.48635818
-21.39983907,24.76801920,-0.45837167,-0.36564061,1.43359270

>  <Name>
ligand

>  <RI>
0

>  <Rbt.Current_Directory>
/home/itssahil/PROJECTS/Mol_Feturizer/New_Systems/rnas/4LVV

>  <Rbt.Executable>
rbdock ($Id: //depot/dev/client3/rdock/2013.1/src/exe/rbdock.cxx#4 $)

>  <Rbt.Library>
libRbt.so (2013.1, Build901 2013/11/27)

>  <Rbt.Parameter_File>
/export/apps/rDock/src/rDock_2013.1_src/data/scripts/dock_solv.prm

>  <Rbt.Receptor>
prm/pocket_docking_3.prm

>  <SCORE>
-9.29337

>  <SCORE.INTER>
-11.5328

>  <SCORE.INTER.CONST>
1

>  <SCORE.INTER.POLAR>
0

>  <SCORE.INTER.ROT>
5

>  <SCORE.INTER.SOLV>
14.0087

>  <SCORE.INTER.VDW>
-19.2915

>  <SCORE.INTER.norm>
-0.461313

>  <SCORE.INTRA>
2.23947

>  <SCORE.INTRA.DIHEDRAL>
5.61948

>  <SCORE.INTRA.DIHEDRAL.0>
3.94806

>  <SCORE.INTRA.POLAR>
0

>  <SCORE.INTRA.POLAR.0>
0

>  <SCORE.INTRA.REPUL>
0

>  <SCORE.INTRA.REPUL.0>
0

>  <SCORE.INTRA.SOLV>
1.49068

>  <SCORE.INTRA.SOLV.lig_0>
-70.9803

>  <SCORE.INTRA.VDW>
-1.31561

>  <SCORE.INTRA.VDW.0>
-0.709409

>  <SCORE.INTRA.norm>
0.0895788

>  <SCORE.RESTR>
0

>  <SCORE.RESTR.CAVITY>
0

>  <SCORE.RESTR.norm>
0

>  <SCORE.SYSTEM>
0

>  <SCORE.SYSTEM.CONST>
0

>  <SCORE.SYSTEM.DIHEDRAL>
0

>  <SCORE.SYSTEM.SOLV>
0

>  <SCORE.SYSTEM.norm>
0

>  <SCORE.heavy>
25

>  <SCORE.norm>
-0.371735

>  <RMSD>
3.878

$$$$
ligand
 OpenBabel11021811503D
libRbt.so/2013.1/901 2013/11/27
 25 27  0  0  0  0  0  0  0  0999 V2000
    8.3683  -23.0689   21.9140 N   0  0  0  0  0  0  0  0  0  0  0  0
    8.4811  -23.3498   23.3118 C   0  0  0  0  0  0  0  0  0  0  0  0
    9.5249  -23.7869   23.7803 O   0  0  0  0  0  0  0  0  0  0  0  0
    4.7066  -20.8630   21.2497 N   0  0  0  0  0  0  0  0  0  0  0  0
    4.5446  -19.8974   23.4421 N   0  0  0  0  0  0  0  0  0  0  0  0
    4.0582  -20.7560   22.5163 C   0  0  0  0  0  0  0  0  0  0  0  0
    2.9502  -21.5152   22.7699 N   0  0  0  0  0  0  0  0  0  0  0  0
    2.2887  -21.4513   23.9535 C   0  0  0  0  0  0  0  0  0  0  0  0
    2.7747  -20.5755   24.9537 C   0  0  0  0  0  0  0  0  0  0  0  0
    1.1867  -22.2490   24.1540 O   0  0  0  0  0  0  0  0  0  0  0  0
    0.7304  -20.3678   26.4622 C   0  0  0  0  0  0  0  0  0  0  0  0
    2.1587  -20.3830   26.2563 N   0  0  0  0  0  0  0  0  0  0  0  0
    0.0809  -21.3717   26.7346 O   0  0  0  0  0  0  0  0  0  0  0  0
    3.0518  -20.1020   27.2981 C   0  0  2  0  0  0  0  0  0  0  0  0
    3.8750  -18.8357   26.9482 C   0  0  0  0  0  0  0  0  0  0  0  0
    3.9248  -19.7773   24.6586 C   0  0  0  0  0  0  0  0  0  0  0  0
    4.4603  -18.8606   25.6687 N   0  0  0  0  0  0  0  0  0  0  0  0
    3.9723  -21.2787   27.5516 C   0  0  0  0  0  0  0  0  0  0  0  0
    3.9399  -22.3528   26.5980 N   0  0  0  0  0  0  0  0  0  0  0  0
    7.3098  -23.0845   24.1928 C   0  0  0  0  0  0  0  0  0  0  0  0
    7.4757  -22.5138   25.4472 C   0  0  0  0  0  0  0  0  0  0  0  0
    6.3625  -22.2782   26.2449 C   0  0  0  0  0  0  0  0  0  0  0  0
    5.0878  -22.6007   25.7834 C   0  0  0  0  0  0  0  0  0  0  0  0
    4.9264  -23.1597   24.5277 C   0  0  0  0  0  0  0  0  0  0  0  0
    6.0404  -23.4056   23.7342 C   0  0  0  0  0  0  0  0  0  0  0  0
  1  2  1  0  0  0  0
  2  3  2  0  0  0  0
  2 20  1  0  0  0  0
  4  6  1  0  0  0  0
  5  6  2  0  0  0  0
  5 16  1  0  0  0  0
  6  7  1  0  0  0  0
  7  8  1  0  0  0  0
  8  9  1  0  0  0  0
  8 10  2  0  0  0  0
  9 12  1  0  0  0  0
  9 16  2  0  0  0  0
 11 13  1  0  0  0  0
 11 12  1  0  0  0  0
 12 14  1  0  0  0  0
 14 15  1  0  0  0  0
 14 18  1  6  0  0  0
 15 17  1  0  0  0  0
 16 17  1  0  0  0  0
 18 19  1  0  0  0  0
 19 23  1  0  0  0  0
 20 21  2  0  0  0  0
 20 25  1  0  0  0  0
 21 22  1  0  0  0  0
 22 23  2  0  0  0  0
 23 24  1  0  0  0  0
 24 25  2  0  0  0  0
M  END
>  <CHROM.1>
91.20875613,9.52774710,113.06730257,28.44456015,-138.66470012,4.42331300
-21.49883116,24.82179291,0.41252640,0.36119716,-1.65418187

>  <Name>
ligand

>  <RI>
0

>  <Rbt.Current_Directory>
/home/itssahil/PROJECTS/Mol_Feturizer/New_Systems/rnas/4LVV

>  <Rbt.Executable>
rbdock ($Id: //depot/dev/client3/rdock/2013.1/src/exe/rbdock.cxx#4 $)

>  <Rbt.Library>
libRbt.so (2013.1, Build901 2013/11/27)

>  <Rbt.Parameter_File>
/export/apps/rDock/src/rDock_2013.1_src/data/scripts/dock_solv.prm

>  <Rbt.Receptor>
prm/pocket_docking_4.prm

>  <SCORE>
-12.8059

>  <SCORE.INTER>
-14.0906

>  <SCORE.INTER.CONST>
1

>  <SCORE.INTER.POLAR>
0

>  <SCORE.INTER.ROT>
5

>  <SCORE.INTER.SOLV>
14.227

>  <SCORE.INTER.VDW>
-21.0694

>  <SCORE.INTER.norm>
-0.563623

>  <SCORE.INTRA>
1.28462

>  <SCORE.INTRA.DIHEDRAL>
5.60355

>  <SCORE.INTRA.DIHEDRAL.0>
3.94806

>  <SCORE.INTRA.POLAR>
0

>  <SCORE.INTRA.POLAR.0>
0

>  <SCORE.INTRA.REPUL>
0

>  <SCORE.INTRA.REPUL.0>
0

>  <SCORE.INTRA.SOLV>
2.72036

>  <SCORE.INTRA.SOLV.lig_0>
-70.9803

>  <SCORE.INTRA.VDW>
-2.87733

>  <SCORE.INTRA.VDW.0>
-0.709409

>  <SCORE.INTRA.norm>
0.051385

>  <SCORE.RESTR>
0

>  <SCORE.RESTR.CAVITY>
0

>  <SCORE.RESTR.norm>
0

>  <SCORE.SYSTEM>
0

>  <SCORE.SYSTEM.CONST>
0

>  <SCORE.SYSTEM.DIHEDRAL>
0

>  <SCORE.SYSTEM.SOLV>
0

>  <SCORE.SYSTEM.norm>
0

>  <SCORE.heavy>
25

>  <SCORE.norm>
-0.512238

>  <RMSD>
3.897

$$$$
ligand
 OpenBabel11021811503D
libRbt.so/2013.1/901 2013/11/27
 25 27  0  0  0  0  0  0  0  0999 V2000
   11.3975  -22.3796   27.8478 N   0  0  0  0  0  0  0  0  0  0  0  0
   10.3158  -23.1134   27.2676 C   0  0  0  0  0  0  0  0  0  0  0  0
   10.5290  -24.1023   26.5771 O   0  0  0  0  0  0  0  0  0  0  0  0
    4.3605  -20.1612   21.1552 N   0  0  0  0  0  0  0  0  0  0  0  0
    4.2192  -19.5312   23.4679 N   0  0  0  0  0  0  0  0  0  0  0  0
    3.7695  -20.2969   22.4469 C   0  0  0  0  0  0  0  0  0  0  0  0
    2.7517  -21.1909   22.6293 N   0  0  0  0  0  0  0  0  0  0  0  0
    2.1477  -21.3589   23.8332 C   0  0  0  0  0  0  0  0  0  0  0  0
    2.5991  -20.5866   24.9302 C   0  0  0  0  0  0  0  0  0  0  0  0
    1.1368  -22.2828   23.9575 O   0  0  0  0  0  0  0  0  0  0  0  0
    0.6228  -20.7963   26.5266 C   0  0  0  0  0  0  0  0  0  0  0  0
    2.0341  -20.6397   26.2687 N   0  0  0  0  0  0  0  0  0  0  0  0
   -0.2387  -20.6280   25.6703 O   0  0  0  0  0  0  0  0  0  0  0  0
    2.9482  -20.4186   27.3066 C   0  0  2  0  0  0  0  0  0  0  0  0
    3.6303  -19.0400   27.1121 C   0  0  0  0  0  0  0  0  0  0  0  0
    3.6528  -19.6441   24.7108 C   0  0  0  0  0  0  0  0  0  0  0  0
    4.1502  -18.8280   25.8217 N   0  0  0  0  0  0  0  0  0  0  0  0
    3.9866  -21.5211   27.3549 C   0  0  0  0  0  0  0  0  0  0  0  0
    4.9914  -21.4298   28.3778 N   0  0  0  0  0  0  0  0  0  0  0  0
    8.9209  -22.6631   27.5324 C   0  0  0  0  0  0  0  0  0  0  0  0
    8.0896  -22.2679   26.4934 C   0  0  0  0  0  0  0  0  0  0  0  0
    6.7931  -21.8538   26.7736 C   0  0  0  0  0  0  0  0  0  0  0  0
    6.3268  -21.8477   28.0867 C   0  0  0  0  0  0  0  0  0  0  0  0
    7.1558  -22.2528   29.1182 C   0  0  0  0  0  0  0  0  0  0  0  0
    8.4560  -22.6564   28.8396 C   0  0  0  0  0  0  0  0  0  0  0  0
  1  2  1  0  0  0  0
  2  3  2  0  0  0  0
  2 20  1  0  0  0  0
  4  6  1  0  0  0  0
  5  6  2  0  0  0  0
  5 16  1  0  0  0  0
  6  7  1  0  0  0  0
  7  8  1  0  0  0  0
  8  9  1  0  0  0  0
  8 10  2  0  0  0  0
  9 12  1  0  0  0  0
  9 16  2  0  0  0  0
 11 13  1  0  0  0  0
 11 12  1  0  0  0  0
 12 14  1  0  0  0  0
 14 15  1  0  0  0  0
 14 18  1  6  0  0  0
 15 17  1  0  0  0  0
 16 17  1  0  0  0  0
 18 19  1  0  0  0  0
 19 23  1  0  0  0  0
 20 21  2  0  0  0  0
 20 25  1  0  0  0  0
 21 22  1  0  0  0  0
 22 23  2  0  0  0  0
 23 24  1  0  0  0  0
 24 25  2  0  0  0  0
M  END
>  <CHROM.1>
-15.24874165,-179.75376525,-143.44280789,24.38477919,118.89604673,4.89444633
-21.25327497,25.96587575,-0.40536827,0.25360920,-1.48455416

>  <Name>
ligand

>  <RI>
0

>  <Rbt.Current_Directory>
/home/itssahil/PROJECTS/Mol_Feturizer/New_Systems/rnas/4LVV

>  <Rbt.Executable>
rbdock ($Id: //depot/dev/client3/rdock/2013.1/src/exe/rbdock.cxx#4 $)

>  <Rbt.Library>
libRbt.so (2013.1, Build901 2013/11/27)

>  <Rbt.Parameter_File>
/export/apps/rDock/src/rDock_2013.1_src/data/scripts/dock_solv.prm

>  <Rbt.Receptor>
prm/pocket_docking_4.prm

>  <SCORE>
-11.4123

>  <SCORE.INTER>
-11.0945

>  <SCORE.INTER.CONST>
1

>  <SCORE.INTER.POLAR>
0

>  <SCORE.INTER.ROT>
5

>  <SCORE.INTER.SOLV>
14.2262

>  <SCORE.INTER.VDW>
-19.0717

>  <SCORE.INTER.norm>
-0.443779

>  <SCORE.INTRA>
-0.317866

>  <SCORE.INTRA.DIHEDRAL>
0.251288

>  <SCORE.INTRA.DIHEDRAL.0>
3.94806

>  <SCORE.INTRA.POLAR>
0

>  <SCORE.INTRA.POLAR.0>
0

>  <SCORE.INTRA.REPUL>
0

>  <SCORE.INTRA.REPUL.0>
0

>  <SCORE.INTRA.SOLV>
0.0107179

>  <SCORE.INTRA.SOLV.lig_0>
-70.9803

>  <SCORE.INTRA.VDW>
-0.448869

>  <SCORE.INTRA.VDW.0>
-0.709409

>  <SCORE.INTRA.norm>
-0.0127146

>  <SCORE.RESTR>
2.87354e-05

>  <SCORE.RESTR.CAVITY>
2.87354e-05

>  <SCORE.RESTR.norm>
1.14942e-06

>  <SCORE.SYSTEM>
0

>  <SCORE.SYSTEM.CONST>
0

>  <SCORE.SYSTEM.DIHEDRAL>
0

>  <SCORE.SYSTEM.SOLV>
0

>  <SCORE.SYSTEM.norm>
0

>  <SCORE.heavy>
25

>  <SCORE.norm>
-0.456492

>  <RMSD>
3.898

$$$$
ligand
 OpenBabel11021811503D
libRbt.so/2013.1/901 2013/11/27
 25 27  0  0  0  0  0  0  0  0999 V2000
   11.2358  -22.3851   26.5920 N   0  0  0  0  0  0  0  0  0  0  0  0
   10.3148  -23.2262   27.2918 C   0  0  0  0  0  0  0  0  0  0  0  0
   10.6578  -24.3304   27.6958 O   0  0  0  0  0  0  0  0  0  0  0  0
    4.3072  -20.0778   21.1141 N   0  0  0  0  0  0  0  0  0  0  0  0
    4.1634  -19.4638   23.4309 N   0  0  0  0  0  0  0  0  0  0  0  0
    3.7311  -20.2389   22.4096 C   0  0  0  0  0  0  0  0  0  0  0  0
    2.7447  -21.1668   22.5953 N   0  0  0  0  0  0  0  0  0  0  0  0
    2.1558  -21.3602   23.8029 C   0  0  0  0  0  0  0  0  0  0  0  0
    2.5902  -20.5788   24.9003 C   0  0  0  0  0  0  0  0  0  0  0  0
    1.1769  -22.3175   23.9302 O   0  0  0  0  0  0  0  0  0  0  0  0
    0.6343  -20.8609   26.5106 C   0  0  0  0  0  0  0  0  0  0  0  0
    2.0377  -20.6568   26.2427 N   0  0  0  0  0  0  0  0  0  0  0  0
   -0.2344  -20.7620   25.6508 O   0  0  0  0  0  0  0  0  0  0  0  0
    2.9520  -20.4107   27.2747 C   0  0  2  0  0  0  0  0  0  0  0  0
    3.5870  -19.0095   27.0819 C   0  0  0  0  0  0  0  0  0  0  0  0
    3.6107  -19.6011   24.6775 C   0  0  0  0  0  0  0  0  0  0  0  0
    4.0897  -18.7744   25.7887 N   0  0  0  0  0  0  0  0  0  0  0  0
    4.0265  -21.4787   27.3096 C   0  0  0  0  0  0  0  0  0  0  0  0
    5.0364  -21.3585   28.3245 N   0  0  0  0  0  0  0  0  0  0  0  0
    8.9326  -22.7277   27.5363 C   0  0  0  0  0  0  0  0  0  0  0  0
    8.1296  -22.3074   26.4849 C   0  0  0  0  0  0  0  0  0  0  0  0
    6.8443  -21.8485   26.7463 C   0  0  0  0  0  0  0  0  0  0  0  0
    6.3605  -21.8227   28.0528 C   0  0  0  0  0  0  0  0  0  0  0  0
    7.1610  -22.2529   29.0966 C   0  0  0  0  0  0  0  0  0  0  0  0
    8.4504  -22.7015   28.8369 C   0  0  0  0  0  0  0  0  0  0  0  0
  1  2  1  0  0  0  0
  2  3  2  0  0  0  0
  2 20  1  0  0  0  0
  4  6  1  0  0  0  0
  5  6  2  0  0  0  0
  5 16  1  0  0  0  0
  6  7  1  0  0  0  0
  7  8  1  0  0  0  0
  8  9  1  0  0  0  0
  8 10  2  0  0  0  0
  9 12  1  0  0  0  0
  9 16  2  0  0  0  0
 11 13  1  0  0  0  0
 11 12  1  0  0  0  0
 12 14  1  0  0  0  0
 14 15  1  0  0  0  0
 14 18  1  6  0  0  0
 15 17  1  0  0  0  0
 16 17  1  0  0  0  0
 18 19  1  0  0  0  0
 19 23  1  0  0  0  0
 20 21  2  0  0  0  0
 20 25  1  0  0  0  0
 21 22  1  0  0  0  0
 22 23  2  0  0  0  0
 23 24  1  0  0  0  0
 24 25  2  0  0  0  0
M  END
>  <CHROM.1>
-12.64938698,-179.81212717,-148.01408854,27.41014781,55.74976980,4.89301246
-21.26448369,25.94294662,-0.42407675,0.24715107,-1.43315598

>  <Name>
ligand

>  <RI>
0

>  <Rbt.Current_Directory>
/home/itssahil/PROJECTS/Mol_Feturizer/New_Systems/rnas/4LVV

>  <Rbt.Executable>
rbdock ($Id: //depot/dev/client3/rdock/2013.1/src/exe/rbdock.cxx#4 $)

>  <Rbt.Library>
libRbt.so (2013.1, Build901 2013/11/27)

>  <Rbt.Parameter_File>
/export/apps/rDock/src/rDock_2013.1_src/data/scripts/dock_solv.prm

>  <Rbt.Receptor>
prm/pocket_docking_4.prm

>  <SCORE>
-11.394

>  <SCORE.INTER>
-11.0662

>  <SCORE.INTER.CONST>
1

>  <SCORE.INTER.POLAR>
0

>  <SCORE.INTER.ROT>
5

>  <SCORE.INTER.SOLV>
14.7616

>  <SCORE.INTER.VDW>
-19.2313

>  <SCORE.INTER.norm>
-0.44265

>  <SCORE.INTRA>
-0.327806

>  <SCORE.INTRA.DIHEDRAL>
0.0866453

>  <SCORE.INTRA.DIHEDRAL.0>
3.94806

>  <SCORE.INTRA.POLAR>
0

>  <SCORE.INTRA.POLAR.0>
0

>  <SCORE.INTRA.REPUL>
0

>  <SCORE.INTRA.REPUL.0>
0

>  <SCORE.INTRA.SOLV>
0.0185575

>  <SCORE.INTRA.SOLV.lig_0>
-70.9803

>  <SCORE.INTRA.VDW>
-0.380408

>  <SCORE.INTRA.VDW.0>
-0.709409

>  <SCORE.INTRA.norm>
-0.0131123

>  <SCORE.RESTR>
0

>  <SCORE.RESTR.CAVITY>
0

>  <SCORE.RESTR.norm>
0

>  <SCORE.SYSTEM>
0

>  <SCORE.SYSTEM.CONST>
0

>  <SCORE.SYSTEM.DIHEDRAL>
0

>  <SCORE.SYSTEM.SOLV>
0

>  <SCORE.SYSTEM.norm>
0

>  <SCORE.heavy>
25

>  <SCORE.norm>
-0.455762

>  <RMSD>
3.920

$$$$
ligand
 OpenBabel11021811503D
libRbt.so/2013.1/901 2013/11/27
 25 27  0  0  0  0  0  0  0  0999 V2000
   10.5790  -24.1993   26.4165 N   0  0  0  0  0  0  0  0  0  0  0  0
   10.3634  -23.0297   27.2107 C   0  0  0  0  0  0  0  0  0  0  0  0
   11.3082  -22.3570   27.6042 O   0  0  0  0  0  0  0  0  0  0  0  0
    4.3552  -20.1106   21.1333 N   0  0  0  0  0  0  0  0  0  0  0  0
    4.2123  -19.5099   23.4537 N   0  0  0  0  0  0  0  0  0  0  0  0
    3.7710  -20.2706   22.4253 C   0  0  0  0  0  0  0  0  0  0  0  0
    2.7681  -21.1826   22.6007 N   0  0  0  0  0  0  0  0  0  0  0  0
    2.1710  -21.3740   23.8046 C   0  0  0  0  0  0  0  0  0  0  0  0
    2.6141  -20.6076   24.9090 C   0  0  0  0  0  0  0  0  0  0  0  0
    1.1752  -22.3152   23.9214 O   0  0  0  0  0  0  0  0  0  0  0  0
    0.6470  -20.8669   26.5095 C   0  0  0  0  0  0  0  0  0  0  0  0
    2.0548  -20.6852   26.2486 N   0  0  0  0  0  0  0  0  0  0  0  0
   -0.1790  -19.9683   26.3909 O   0  0  0  0  0  0  0  0  0  0  0  0
    2.9689  -20.4617   27.2860 C   0  0  2  0  0  0  0  0  0  0  0  0
    3.6286  -19.0704   27.1053 C   0  0  0  0  0  0  0  0  0  0  0  0
    3.6521  -19.6461   24.6971 C   0  0  0  0  0  0  0  0  0  0  0  0
    4.1406  -18.8353   25.8158 N   0  0  0  0  0  0  0  0  0  0  0  0
    4.0248  -21.5483   27.3180 C   0  0  0  0  0  0  0  0  0  0  0  0
    5.0088  -21.4745   28.3622 N   0  0  0  0  0  0  0  0  0  0  0  0
    8.9652  -22.6331   27.5373 C   0  0  0  0  0  0  0  0  0  0  0  0
    8.5089  -22.6430   28.8482 C   0  0  0  0  0  0  0  0  0  0  0  0
    7.1991  -22.2666   29.1200 C   0  0  0  0  0  0  0  0  0  0  0  0
    6.3541  -21.8697   28.0856 C   0  0  0  0  0  0  0  0  0  0  0  0
    6.8168  -21.8511   26.7814 C   0  0  0  0  0  0  0  0  0  0  0  0
    8.1232  -22.2380   26.5079 C   0  0  0  0  0  0  0  0  0  0  0  0
  1  2  1  0  0  0  0
  2  3  2  0  0  0  0
  2 20  1  0  0  0  0
  4  6  1  0  0  0  0
  5  6  2  0  0  0  0
  5 16  1  0  0  0  0
  6  7  1  0  0  0  0
  7  8  1  0  0  0  0
  8  9  1  0  0  0  0
  8 10  2  0  0  0  0
  9 12  1  0  0  0  0
  9 16  2  0  0  0  0
 11 13  1  0  0  0  0
 11 12  1  0  0  0  0
 12 14  1  0  0  0  0
 14 15  1  0  0  0  0
 14 18  1  6  0  0  0
 15 17  1  0  0  0  0
 16 17  1  0  0  0  0
 18 19  1  0  0  0  0
 19 23  1  0  0  0  0
 20 21  2  0  0  0  0
 20 25  1  0  0  0  0
 21 22  1  0  0  0  0
 22 23  2  0  0  0  0
 23 24  1  0  0  0  0
 24 25  2  0  0  0  0
M  END
>  <CHROM.1>
-75.99878734,-177.99183304,-143.87037689,-157.04744472,115.26134726,4.91814720
-21.21961254,25.97625607,-0.38477793,0.26498106,-1.49215057

>  <Name>
ligand

>  <RI>
0

>  <Rbt.Current_Directory>
/home/itssahil/PROJECTS/Mol_Feturizer/New_Systems/rnas/4LVV

>  <Rbt.Executable>
rbdock ($Id: //depot/dev/client3/rdock/2013.1/src/exe/rbdock.cxx#4 $)

>  <Rbt.Library>
libRbt.so (2013.1, Build901 2013/11/27)

>  <Rbt.Parameter_File>
/export/apps/rDock/src/rDock_2013.1_src/data/scripts/dock_solv.prm

>  <Rbt.Receptor>
prm/pocket_docking_4.prm

>  <SCORE>
-11.2157

>  <SCORE.INTER>
-10.6516

>  <SCORE.INTER.CONST>
1

>  <SCORE.INTER.POLAR>
0

>  <SCORE.INTER.ROT>
5

>  <SCORE.INTER.SOLV>
14.8733

>  <SCORE.INTER.VDW>
-18.9922

>  <SCORE.INTER.norm>
-0.426065

>  <SCORE.INTRA>
-0.564109

>  <SCORE.INTRA.DIHEDRAL>
-0.0159747

>  <SCORE.INTRA.DIHEDRAL.0>
3.94806

>  <SCORE.INTRA.POLAR>
0

>  <SCORE.INTRA.POLAR.0>
0

>  <SCORE.INTRA.REPUL>
0

>  <SCORE.INTRA.REPUL.0>
0

>  <SCORE.INTRA.SOLV>
-0.255277

>  <SCORE.INTRA.SOLV.lig_0>
-70.9803

>  <SCORE.INTRA.VDW>
-0.428483

>  <SCORE.INTRA.VDW.0>
-0.709409

>  <SCORE.INTRA.norm>
-0.0225644

>  <SCORE.RESTR>
0

>  <SCORE.RESTR.CAVITY>
0

>  <SCORE.RESTR.norm>
0

>  <SCORE.SYSTEM>
0

>  <SCORE.SYSTEM.CONST>
0

>  <SCORE.SYSTEM.DIHEDRAL>
0

>  <SCORE.SYSTEM.SOLV>
0

>  <SCORE.SYSTEM.norm>
0

>  <SCORE.heavy>
25

>  <SCORE.norm>
-0.448629

>  <RMSD>
3.923

$$$$
ligand
 OpenBabel11021811503D
libRbt.so/2013.1/901 2013/11/27
 25 27  0  0  0  0  0  0  0  0999 V2000
   11.7411  -24.7312   23.1739 N   0  0  0  0  0  0  0  0  0  0  0  0
   10.3242  -24.5383   23.1500 C   0  0  0  0  0  0  0  0  0  0  0  0
    9.6435  -25.0074   22.2462 O   0  0  0  0  0  0  0  0  0  0  0  0
    4.5710  -20.6550   21.2447 N   0  0  0  0  0  0  0  0  0  0  0  0
    4.8473  -19.6374   23.4019 N   0  0  0  0  0  0  0  0  0  0  0  0
    4.6790  -20.7589   22.6637 C   0  0  0  0  0  0  0  0  0  0  0  0
    4.6004  -21.9888   23.2550 N   0  0  0  0  0  0  0  0  0  0  0  0
    4.6903  -22.1484   24.6000 C   0  0  0  0  0  0  0  0  0  0  0  0
    4.8811  -21.0007   25.4062 C   0  0  0  0  0  0  0  0  0  0  0  0
    4.6161  -23.4128   25.1355 O   0  0  0  0  0  0  0  0  0  0  0  0
    4.1747  -21.8814   27.6917 C   0  0  0  0  0  0  0  0  0  0  0  0
    4.9704  -21.0136   26.8572 N   0  0  0  0  0  0  0  0  0  0  0  0
    4.4803  -23.0439   27.9348 O   0  0  0  0  0  0  0  0  0  0  0  0
    5.8134  -20.0397   27.4073 C   0  0  2  0  0  0  0  0  0  0  0  0
    5.3466  -18.6329   26.9529 C   0  0  0  0  0  0  0  0  0  0  0  0
    4.9416  -19.7225   24.7665 C   0  0  0  0  0  0  0  0  0  0  0  0
    5.1411  -18.5107   25.5661 N   0  0  0  0  0  0  0  0  0  0  0  0
    7.2526  -20.2781   26.9973 C   0  0  0  0  0  0  0  0  0  0  0  0
    7.8174  -21.5624   27.3065 N   0  0  0  0  0  0  0  0  0  0  0  0
    9.6869  -23.7695   24.2552 C   0  0  0  0  0  0  0  0  0  0  0  0
   10.3272  -23.6133   25.4769 C   0  0  0  0  0  0  0  0  0  0  0  0
    9.7062  -22.8896   26.4876 C   0  0  0  0  0  0  0  0  0  0  0  0
    8.4557  -22.3139   26.2718 C   0  0  0  0  0  0  0  0  0  0  0  0
    7.8260  -22.4633   25.0485 C   0  0  0  0  0  0  0  0  0  0  0  0
    8.4417  -23.1964   24.0412 C   0  0  0  0  0  0  0  0  0  0  0  0
  1  2  1  0  0  0  0
  2  3  2  0  0  0  0
  2 20  1  0  0  0  0
  4  6  1  0  0  0  0
  5  6  2  0  0  0  0
  5 16  1  0  0  0  0
  6  7  1  0  0  0  0
  7  8  1  0  0  0  0
  8  9  1  0  0  0  0
  8 10  2  0  0  0  0
  9 12  1  0  0  0  0
  9 16  2  0  0  0  0
 11 13  1  0  0  0  0
 11 12  1  0  0  0  0
 12 14  1  0  0  0  0
 14 15  1  0  0  0  0
 14 18  1  6  0  0  0
 15 17  1  0  0  0  0
 16 17  1  0  0  0  0
 18 19  1  0  0  0  0
 19 23  1  0  0  0  0
 20 21  2  0  0  0  0
 20 25  1  0  0  0  0
 21 22  1  0  0  0  0
 22 23  2  0  0  0  0
 23 24  1  0  0  0  0
 24 25  2  0  0  0  0
M  END
>  <CHROM.1>
83.53823711,-56.20359764,128.16391253,132.45380419,-20.67428047,6.69487307
-21.87766005,25.11040952,0.38624978,0.56002927,-1.75050449

>  <Name>
ligand

>  <RI>
0

>  <Rbt.Current_Directory>
/home/itssahil/PROJECTS/Mol_Feturizer/New_Systems/rnas/4LVV

>  <Rbt.Executable>
rbdock ($Id: //depot/dev/client3/rdock/2013.1/src/exe/rbdock.cxx#4 $)

>  <Rbt.Library>
libRbt.so (2013.1, Build901 2013/11/27)

>  <Rbt.Parameter_File>
/export/apps/rDock/src/rDock_2013.1_src/data/scripts/dock_solv.prm

>  <Rbt.Receptor>
prm/pocket_docking_5.prm

>  <SCORE>
-2.54973

>  <SCORE.INTER>
-1.27895

>  <SCORE.INTER.CONST>
1

>  <SCORE.INTER.POLAR>
0

>  <SCORE.INTER.ROT>
5

>  <SCORE.INTER.SOLV>
8.24516

>  <SCORE.INTER.VDW>
-10.5344

>  <SCORE.INTER.norm>
-0.051158

>  <SCORE.INTRA>
-1.27078

>  <SCORE.INTRA.DIHEDRAL>
0.683581

>  <SCORE.INTRA.DIHEDRAL.0>
3.94806

>  <SCORE.INTRA.POLAR>
0

>  <SCORE.INTRA.POLAR.0>
0

>  <SCORE.INTRA.REPUL>
0

>  <SCORE.INTRA.REPUL.0>
0

>  <SCORE.INTRA.SOLV>
0.702717

>  <SCORE.INTRA.SOLV.lig_0>
-70.9803

>  <SCORE.INTRA.VDW>
-1.96393

>  <SCORE.INTRA.VDW.0>
-0.709409

>  <SCORE.INTRA.norm>
-0.0508314

>  <SCORE.RESTR>
0

>  <SCORE.RESTR.CAVITY>
0

>  <SCORE.RESTR.norm>
0

>  <SCORE.SYSTEM>
0

>  <SCORE.SYSTEM.CONST>
0

>  <SCORE.SYSTEM.DIHEDRAL>
0

>  <SCORE.SYSTEM.SOLV>
0

>  <SCORE.SYSTEM.norm>
0

>  <SCORE.heavy>
25

>  <SCORE.norm>
-0.101989

>  <RMSD>
3.942

$$$$
ligand
 OpenBabel11021811503D
libRbt.so/2013.1/901 2013/11/27
 25 27  0  0  0  0  0  0  0  0999 V2000
    9.2271  -22.7416   24.5497 N   0  0  0  0  0  0  0  0  0  0  0  0
    8.3853  -23.3388   23.5597 C   0  0  0  0  0  0  0  0  0  0  0  0
    8.8290  -24.1746   22.7820 O   0  0  0  0  0  0  0  0  0  0  0  0
    6.5099  -21.9478   29.1080 N   0  0  0  0  0  0  0  0  0  0  0  0
    4.3757  -21.2687   28.2423 N   0  0  0  0  0  0  0  0  0  0  0  0
    5.7176  -21.3439   28.0863 C   0  0  0  0  0  0  0  0  0  0  0  0
    6.3285  -20.8420   26.9712 N   0  0  0  0  0  0  0  0  0  0  0  0
    5.6275  -20.2516   25.9700 C   0  0  0  0  0  0  0  0  0  0  0  0
    4.2196  -20.1662   26.0889 C   0  0  0  0  0  0  0  0  0  0  0  0
    6.2973  -19.7763   24.8670 O   0  0  0  0  0  0  0  0  0  0  0  0
    3.6911  -18.3439   24.3864 C   0  0  0  0  0  0  0  0  0  0  0  0
    3.3424  -19.5416   25.1122 N   0  0  0  0  0  0  0  0  0  0  0  0
    3.7706  -18.2995   23.1635 O   0  0  0  0  0  0  0  0  0  0  0  0
    2.0741  -20.1247   24.9969 C   0  0  2  0  0  0  0  0  0  0  0  0
    1.3684  -20.1086   26.3772 C   0  0  0  0  0  0  0  0  0  0  0  0
    3.6045  -20.6814   27.2734 C   0  0  0  0  0  0  0  0  0  0  0  0
    2.1493  -20.6145   27.4329 N   0  0  0  0  0  0  0  0  0  0  0  0
    2.1778  -21.5423   24.4717 C   0  0  0  0  0  0  0  0  0  0  0  0
    2.9291  -21.7395   23.2631 N   0  0  0  0  0  0  0  0  0  0  0  0
    6.9518  -22.9385   23.5019 C   0  0  0  0  0  0  0  0  0  0  0  0
    6.0625  -23.3258   24.4949 C   0  0  0  0  0  0  0  0  0  0  0  0
    4.7315  -22.9352   24.4123 C   0  0  0  0  0  0  0  0  0  0  0  0
    4.2956  -22.1495   23.3472 C   0  0  0  0  0  0  0  0  0  0  0  0
    5.1882  -21.7568   22.3652 C   0  0  0  0  0  0  0  0  0  0  0  0
    6.5170  -22.1565   22.4416 C   0  0  0  0  0  0  0  0  0  0  0  0
  1  2  1  0  0  0  0
  2  3  2  0  0  0  0
  2 20  1  0  0  0  0
  4  6  1  0  0  0  0
  5  6  2  0  0  0  0
  5 16  1  0  0  0  0
  6  7  1  0  0  0  0
  7  8  1  0  0  0  0
  8  9  1  0  0  0  0
  8 10  2  0  0  0  0
  9 12  1  0  0  0  0
  9 16  2  0  0  0  0
 11 13  1  0  0  0  0
 11 12  1  0  0  0  0
 12 14  1  0  0  0  0
 14 15  1  0  0  0  0
 14 18  1  1  0  0  0
 15 17  1  0  0  0  0
 16 17  1  0  0  0  0
 18 19  1  0  0  0  0
 19 23  1  0  0  0  0
 20 21  2  0  0  0  0
 20 25  1  0  0  0  0
 21 22  1  0  0  0  0
 22 23  2  0  0  0  0
 23 24  1  0  0  0  0
 24 25  2  0  0  0  0
M  END
>  <CHROM.1>
119.65143936,-52.23972862,96.67494819,30.21798836,-70.68790828,4.96735553
-21.23658852,25.09092733,-0.42394017,-0.51524889,1.48993779

>  <Name>
ligand

>  <RI>
0

>  <Rbt.Current_Directory>
/home/itssahil/PROJECTS/Mol_Feturizer/New_Systems/rnas/4LVV

>  <Rbt.Executable>
rbdock ($Id: //depot/dev/client3/rdock/2013.1/src/exe/rbdock.cxx#4 $)

>  <Rbt.Library>
libRbt.so (2013.1, Build901 2013/11/27)

>  <Rbt.Parameter_File>
/export/apps/rDock/src/rDock_2013.1_src/data/scripts/dock_solv.prm

>  <Rbt.Receptor>
prm/pocket_docking_4.prm

>  <SCORE>
-10.0282

>  <SCORE.INTER>
-7.08223

>  <SCORE.INTER.CONST>
1

>  <SCORE.INTER.POLAR>
0

>  <SCORE.INTER.ROT>
5

>  <SCORE.INTER.SOLV>
15.5117

>  <SCORE.INTER.VDW>
-16.8254

>  <SCORE.INTER.norm>
-0.283289

>  <SCORE.INTRA>
-2.94592

>  <SCORE.INTRA.DIHEDRAL>
0.346866

>  <SCORE.INTRA.DIHEDRAL.0>
3.94806

>  <SCORE.INTRA.POLAR>
0

>  <SCORE.INTRA.POLAR.0>
0

>  <SCORE.INTRA.REPUL>
0

>  <SCORE.INTRA.REPUL.0>
0

>  <SCORE.INTRA.SOLV>
1.12737

>  <SCORE.INTRA.SOLV.lig_0>
-70.9803

>  <SCORE.INTRA.VDW>
-3.68304

>  <SCORE.INTRA.VDW.0>
-0.709409

>  <SCORE.INTRA.norm>
-0.117837

>  <SCORE.RESTR>
0

>  <SCORE.RESTR.CAVITY>
0

>  <SCORE.RESTR.norm>
0

>  <SCORE.SYSTEM>
0

>  <SCORE.SYSTEM.CONST>
0

>  <SCORE.SYSTEM.DIHEDRAL>
0

>  <SCORE.SYSTEM.SOLV>
0

>  <SCORE.SYSTEM.norm>
0

>  <SCORE.heavy>
25

>  <SCORE.norm>
-0.401126

>  <RMSD>
3.983

$$$$
ligand
 OpenBabel11021811503D
libRbt.so/2013.1/901 2013/11/27
 25 27  0  0  0  0  0  0  0  0999 V2000
   10.1126  -22.3053   22.2106 N   0  0  0  0  0  0  0  0  0  0  0  0
    9.5363  -23.4478   22.8493 C   0  0  0  0  0  0  0  0  0  0  0  0
   10.0893  -24.5394   22.7978 O   0  0  0  0  0  0  0  0  0  0  0  0
    5.1045  -16.1743   22.9368 N   0  0  0  0  0  0  0  0  0  0  0  0
    4.1249  -17.4545   24.7163 N   0  0  0  0  0  0  0  0  0  0  0  0
    4.4438  -17.3490   23.4056 C   0  0  0  0  0  0  0  0  0  0  0  0
    4.1347  -18.3441   22.5209 N   0  0  0  0  0  0  0  0  0  0  0  0
    3.5017  -19.4808   22.9077 C   0  0  0  0  0  0  0  0  0  0  0  0
    3.1638  -19.6356   24.2735 C   0  0  0  0  0  0  0  0  0  0  0  0
    3.2281  -20.4518   21.9732 O   0  0  0  0  0  0  0  0  0  0  0  0
    1.3996  -21.4708   24.1395 C   0  0  0  0  0  0  0  0  0  0  0  0
    2.4648  -20.7831   24.8287 N   0  0  0  0  0  0  0  0  0  0  0  0
    0.2120  -21.2730   24.3724 O   0  0  0  0  0  0  0  0  0  0  0  0
    2.8241  -21.1176   26.1405 C   0  0  2  0  0  0  0  0  0  0  0  0
    2.5895  -19.8987   27.0694 C   0  0  0  0  0  0  0  0  0  0  0  0
    3.4805  -18.5728   25.1774 C   0  0  0  0  0  0  0  0  0  0  0  0
    3.1497  -18.6963   26.5997 N   0  0  0  0  0  0  0  0  0  0  0  0
    4.2710  -21.5631   26.2067 C   0  0  0  0  0  0  0  0  0  0  0  0
    4.5945  -22.8285   25.6081 N   0  0  0  0  0  0  0  0  0  0  0  0
    8.2572  -23.2829   23.5947 C   0  0  0  0  0  0  0  0  0  0  0  0
    8.2491  -22.8222   24.9040 C   0  0  0  0  0  0  0  0  0  0  0  0
    7.0390  -22.6785   25.5717 C   0  0  0  0  0  0  0  0  0  0  0  0
    5.8415  -22.9824   24.9271 C   0  0  0  0  0  0  0  0  0  0  0  0
    5.8539  -23.4313   23.6180 C   0  0  0  0  0  0  0  0  0  0  0  0
    7.0647  -23.5856   22.9536 C   0  0  0  0  0  0  0  0  0  0  0  0
  1  2  1  0  0  0  0
  2  3  2  0  0  0  0
  2 20  1  0  0  0  0
  4  6  1  0  0  0  0
  5  6  2  0  0  0  0
  5 16  1  0  0  0  0
  6  7  1  0  0  0  0
  7  8  1  0  0  0  0
  8  9  1  0  0  0  0
  8 10  2  0  0  0  0
  9 12  1  0  0  0  0
  9 16  2  0  0  0  0
 11 13  1  0  0  0  0
 11 12  1  0  0  0  0
 12 14  1  0  0  0  0
 14 15  1  0  0  0  0
 14 18  1  6  0  0  0
 15 17  1  0  0  0  0
 16 17  1  0  0  0  0
 18 19  1  0  0  0  0
 19 23  1  0  0  0  0
 20 21  2  0  0  0  0
 20 25  1  0  0  0  0
 21 22  1  0  0  0  0
 22 23  2  0  0  0  0
 23 24  1  0  0  0  0
 24 25  2  0  0  0  0
M  END
>  <CHROM.1>
-99.09484344,-70.01346956,143.12129573,54.27636896,-83.22354848,4.91747693
-20.94671515,24.24071689,-0.47860166,0.41521312,-0.35413902

>  <Name>
ligand

>  <RI>
0

>  <Rbt.Current_Directory>
/home/itssahil/PROJECTS/Mol_Feturizer/New_Systems/rnas/4LVV

>  <Rbt.Executable>
rbdock ($Id: //depot/dev/client3/rdock/2013.1/src/exe/rbdock.cxx#4 $)

>  <Rbt.Library>
libRbt.so (2013.1, Build901 2013/11/27)

>  <Rbt.Parameter_File>
/export/apps/rDock/src/rDock_2013.1_src/data/scripts/dock_solv.prm

>  <Rbt.Receptor>
prm/pocket_docking_3.prm

>  <SCORE>
-12.3524

>  <SCORE.INTER>
-11.0609

>  <SCORE.INTER.CONST>
1

>  <SCORE.INTER.POLAR>
0

>  <SCORE.INTER.ROT>
5

>  <SCORE.INTER.SOLV>
15.351

>  <SCORE.INTER.VDW>
-19.4243

>  <SCORE.INTER.norm>
-0.442436

>  <SCORE.INTRA>
-1.29147

>  <SCORE.INTRA.DIHEDRAL>
0.31002

>  <SCORE.INTRA.DIHEDRAL.0>
3.94806

>  <SCORE.INTRA.POLAR>
0

>  <SCORE.INTRA.POLAR.0>
0

>  <SCORE.INTRA.REPUL>
0

>  <SCORE.INTRA.REPUL.0>
0

>  <SCORE.INTRA.SOLV>
-0.283774

>  <SCORE.INTRA.SOLV.lig_0>
-70.9803

>  <SCORE.INTRA.VDW>
-1.3046

>  <SCORE.INTRA.VDW.0>
-0.709409

>  <SCORE.INTRA.norm>
-0.0516589

>  <SCORE.RESTR>
0

>  <SCORE.RESTR.CAVITY>
0

>  <SCORE.RESTR.norm>
0

>  <SCORE.SYSTEM>
0

>  <SCORE.SYSTEM.CONST>
0

>  <SCORE.SYSTEM.DIHEDRAL>
0

>  <SCORE.SYSTEM.SOLV>
0

>  <SCORE.SYSTEM.norm>
0

>  <SCORE.heavy>
25

>  <SCORE.norm>
-0.494095

>  <RMSD>
3.989

$$$$
ligand
 OpenBabel11021811503D
libRbt.so/2013.1/901 2013/11/27
 25 27  0  0  0  0  0  0  0  0999 V2000
   11.2112  -24.5097   24.0797 N   0  0  0  0  0  0  0  0  0  0  0  0
   10.5564  -23.8289   23.0059 C   0  0  0  0  0  0  0  0  0  0  0  0
   11.1067  -23.6975   21.9196 O   0  0  0  0  0  0  0  0  0  0  0  0
    7.2646  -17.0401   24.5589 N   0  0  0  0  0  0  0  0  0  0  0  0
    6.7107  -19.1626   25.5355 N   0  0  0  0  0  0  0  0  0  0  0  0
    6.3030  -18.0345   24.9093 C   0  0  0  0  0  0  0  0  0  0  0  0
    4.9843  -17.8266   24.6156 N   0  0  0  0  0  0  0  0  0  0  0  0
    4.0247  -18.7337   24.9300 C   0  0  0  0  0  0  0  0  0  0  0  0
    4.4125  -19.9335   25.5731 C   0  0  0  0  0  0  0  0  0  0  0  0
    2.7159  -18.4733   24.5979 O   0  0  0  0  0  0  0  0  0  0  0  0
    2.1862  -20.7187   26.5351 C   0  0  0  0  0  0  0  0  0  0  0  0
    3.4968  -20.9823   25.9913 N   0  0  0  0  0  0  0  0  0  0  0  0
    1.1532  -20.8410   25.8857 O   0  0  0  0  0  0  0  0  0  0  0  0
    4.0171  -22.2813   25.9316 C   0  0  2  0  0  0  0  0  0  0  0  0
    5.2980  -22.3675   26.8009 C   0  0  0  0  0  0  0  0  0  0  0  0
    5.7957  -20.1205   25.8871 C   0  0  0  0  0  0  0  0  0  0  0  0
    6.2377  -21.3505   26.5500 N   0  0  0  0  0  0  0  0  0  0  0  0
    4.3210  -22.6756   24.5004 C   0  0  0  0  0  0  0  0  0  0  0  0
    5.2689  -21.8664   23.7855 N   0  0  0  0  0  0  0  0  0  0  0  0
    9.1830  -23.2962   23.2267 C   0  0  0  0  0  0  0  0  0  0  0  0
    8.9851  -22.0660   23.8385 C   0  0  0  0  0  0  0  0  0  0  0  0
    7.6911  -21.5967   24.0293 C   0  0  0  0  0  0  0  0  0  0  0  0
    6.6009  -22.3496   23.5979 C   0  0  0  0  0  0  0  0  0  0  0  0
    6.8035  -23.5706   22.9787 C   0  0  0  0  0  0  0  0  0  0  0  0
    8.0970  -24.0454   22.7978 C   0  0  0  0  0  0  0  0  0  0  0  0
  1  2  1  0  0  0  0
  2  3  2  0  0  0  0
  2 20  1  0  0  0  0
  4  6  1  0  0  0  0
  5  6  2  0  0  0  0
  5 16  1  0  0  0  0
  6  7  1  0  0  0  0
  7  8  1  0  0  0  0
  8  9  1  0  0  0  0
  8 10  2  0  0  0  0
  9 12  1  0  0  0  0
  9 16  2  0  0  0  0
 11 13  1  0  0  0  0
 11 12  1  0  0  0  0
 12 14  1  0  0  0  0
 14 15  1  0  0  0  0
 14 18  1  6  0  0  0
 15 17  1  0  0  0  0
 16 17  1  0  0  0  0
 18 19  1  0  0  0  0
 19 23  1  0  0  0  0
 20 21  2  0  0  0  0
 20 25  1  0  0  0  0
 21 22  1  0  0  0  0
 22 23  2  0  0  0  0
 23 24  1  0  0  0  0
 24 25  2  0  0  0  0
M  END
>  <CHROM.1>
102.38342984,59.81041818,103.07952270,-123.82874951,83.05580781,6.09882608
-21.22473165,24.66746534,0.52794753,-0.33736276,-3.08822332

>  <Name>
ligand

>  <RI>
0

>  <Rbt.Current_Directory>
/home/itssahil/PROJECTS/Mol_Feturizer/New_Systems/rnas/4LVV

>  <Rbt.Executable>
rbdock ($Id: //depot/dev/client3/rdock/2013.1/src/exe/rbdock.cxx#4 $)

>  <Rbt.Library>
libRbt.so (2013.1, Build901 2013/11/27)

>  <Rbt.Parameter_File>
/export/apps/rDock/src/rDock_2013.1_src/data/scripts/dock_solv.prm

>  <Rbt.Receptor>
prm/pocket_docking_2.prm

>  <SCORE>
-1.21727

>  <SCORE.INTER>
-1.60081

>  <SCORE.INTER.CONST>
1

>  <SCORE.INTER.POLAR>
0

>  <SCORE.INTER.ROT>
5

>  <SCORE.INTER.SOLV>
5.99583

>  <SCORE.INTER.VDW>
-9.99915

>  <SCORE.INTER.norm>
-0.0640325

>  <SCORE.INTRA>
-0.379694

>  <SCORE.INTRA.DIHEDRAL>
0.458759

>  <SCORE.INTRA.DIHEDRAL.0>
3.94806

>  <SCORE.INTRA.POLAR>
0

>  <SCORE.INTRA.POLAR.0>
0

>  <SCORE.INTRA.REPUL>
0

>  <SCORE.INTRA.REPUL.0>
0

>  <SCORE.INTRA.SOLV>
3.05512

>  <SCORE.INTRA.SOLV.lig_0>
-70.9803

>  <SCORE.INTRA.VDW>
-2.13663

>  <SCORE.INTRA.VDW.0>
-0.709409

>  <SCORE.INTRA.norm>
-0.0151878

>  <SCORE.RESTR>
0.763235

>  <SCORE.RESTR.CAVITY>
0.763235

>  <SCORE.RESTR.norm>
0.0305294

>  <SCORE.SYSTEM>
0

>  <SCORE.SYSTEM.CONST>
0

>  <SCORE.SYSTEM.DIHEDRAL>
0

>  <SCORE.SYSTEM.SOLV>
0

>  <SCORE.SYSTEM.norm>
0

>  <SCORE.heavy>
25

>  <SCORE.norm>
-0.0486909

>  <RMSD>
4.009

$$$$
ligand
 OpenBabel11021811503D
libRbt.so/2013.1/901 2013/11/27
 25 27  0  0  0  0  0  0  0  0999 V2000
   11.1915  -22.1907   27.2090 N   0  0  0  0  0  0  0  0  0  0  0  0
   10.2165  -23.1435   27.6417 C   0  0  0  0  0  0  0  0  0  0  0  0
   10.5238  -24.3149   27.8244 O   0  0  0  0  0  0  0  0  0  0  0  0
    4.3374  -20.2514   21.1509 N   0  0  0  0  0  0  0  0  0  0  0  0
    4.1695  -19.5524   23.4418 N   0  0  0  0  0  0  0  0  0  0  0  0
    3.7396  -20.3567   22.4422 C   0  0  0  0  0  0  0  0  0  0  0  0
    2.7353  -21.2613   22.6457 N   0  0  0  0  0  0  0  0  0  0  0  0
    2.1255  -21.4019   23.8503 C   0  0  0  0  0  0  0  0  0  0  0  0
    2.5565  -20.5885   24.9256 C   0  0  0  0  0  0  0  0  0  0  0  0
    1.1290  -22.3381   23.9966 O   0  0  0  0  0  0  0  0  0  0  0  0
    0.5726  -20.7813   26.5148 C   0  0  0  0  0  0  0  0  0  0  0  0
    1.9829  -20.6095   26.2614 N   0  0  0  0  0  0  0  0  0  0  0  0
   -0.2724  -20.7931   25.6262 O   0  0  0  0  0  0  0  0  0  0  0  0
    2.8859  -20.3411   27.2979 C   0  0  2  0  0  0  0  0  0  0  0  0
    3.5467  -18.9581   27.0650 C   0  0  0  0  0  0  0  0  0  0  0  0
    3.5962  -19.6360   24.6839 C   0  0  0  0  0  0  0  0  0  0  0  0
    4.0723  -18.7777   25.7721 N   0  0  0  0  0  0  0  0  0  0  0  0
    3.9419  -21.4242   27.3874 C   0  0  0  0  0  0  0  0  0  0  0  0
    4.8820  -21.3342   28.4700 N   0  0  0  0  0  0  0  0  0  0  0  0
    8.8212  -22.6815   27.8834 C   0  0  0  0  0  0  0  0  0  0  0  0
    8.2688  -22.7166   29.1564 C   0  0  0  0  0  0  0  0  0  0  0  0
    6.9645  -22.2777   29.3490 C   0  0  0  0  0  0  0  0  0  0  0  0
    6.2212  -21.7937   28.2743 C   0  0  0  0  0  0  0  0  0  0  0  0
    6.7799  -21.7505   27.0089 C   0  0  0  0  0  0  0  0  0  0  0  0
    8.0804  -22.1998   26.8139 C   0  0  0  0  0  0  0  0  0  0  0  0
  1  2  1  0  0  0  0
  2  3  2  0  0  0  0
  2 20  1  0  0  0  0
  4  6  1  0  0  0  0
  5  6  2  0  0  0  0
  5 16  1  0  0  0  0
  6  7  1  0  0  0  0
  7  8  1  0  0  0  0
  8  9  1  0  0  0  0
  8 10  2  0  0  0  0
  9 12  1  0  0  0  0
  9 16  2  0  0  0  0
 11 13  1  0  0  0  0
 11 12  1  0  0  0  0
 12 14  1  0  0  0  0
 14 15  1  0  0  0  0
 14 18  1  6  0  0  0
 15 17  1  0  0  0  0
 16 17  1  0  0  0  0
 18 19  1  0  0  0  0
 19 23  1  0  0  0  0
 20 21  2  0  0  0  0
 20 25  1  0  0  0  0
 21 22  1  0  0  0  0
 22 23  2  0  0  0  0
 23 24  1  0  0  0  0
 24 25  2  0  0  0  0
M  END
>  <CHROM.1>
-7.34583594,-175.56031428,-147.07701402,-151.46563960,-115.04867120,4.82894773
-21.25534650,26.07008094,-0.46144905,0.23911034,-1.45160385

>  <Name>
ligand

>  <RI>
0

>  <Rbt.Current_Directory>
/home/itssahil/PROJECTS/Mol_Feturizer/New_Systems/rnas/4LVV

>  <Rbt.Executable>
rbdock ($Id: //depot/dev/client3/rdock/2013.1/src/exe/rbdock.cxx#4 $)

>  <Rbt.Library>
libRbt.so (2013.1, Build901 2013/11/27)

>  <Rbt.Parameter_File>
/export/apps/rDock/src/rDock_2013.1_src/data/scripts/dock_solv.prm

>  <Rbt.Receptor>
prm/pocket_docking_7.prm

>  <SCORE>
-11.4012

>  <SCORE.INTER>
-11.1925

>  <SCORE.INTER.CONST>
1

>  <SCORE.INTER.POLAR>
0

>  <SCORE.INTER.ROT>
5

>  <SCORE.INTER.SOLV>
15.1783

>  <SCORE.INTER.VDW>
-19.4545

>  <SCORE.INTER.norm>
-0.447701

>  <SCORE.INTRA>
-0.208647

>  <SCORE.INTRA.DIHEDRAL>
0.149144

>  <SCORE.INTRA.DIHEDRAL.0>
3.94806

>  <SCORE.INTRA.POLAR>
0

>  <SCORE.INTRA.POLAR.0>
0

>  <SCORE.INTRA.REPUL>
0

>  <SCORE.INTRA.REPUL.0>
0

>  <SCORE.INTRA.SOLV>
-0.0372227

>  <SCORE.INTRA.SOLV.lig_0>
-70.9803

>  <SCORE.INTRA.VDW>
-0.264608

>  <SCORE.INTRA.VDW.0>
-0.709409

>  <SCORE.INTRA.norm>
-0.00834589

>  <SCORE.RESTR>
0

>  <SCORE.RESTR.CAVITY>
0

>  <SCORE.RESTR.norm>
0

>  <SCORE.SYSTEM>
0

>  <SCORE.SYSTEM.CONST>
0

>  <SCORE.SYSTEM.DIHEDRAL>
0

>  <SCORE.SYSTEM.SOLV>
0

>  <SCORE.SYSTEM.norm>
0

>  <SCORE.heavy>
25

>  <SCORE.norm>
-0.456047

>  <RMSD>
4.011

$$$$
ligand
 OpenBabel11021811503D
libRbt.so/2013.1/901 2013/11/27
 25 27  0  0  0  0  0  0  0  0999 V2000
   12.2863  -24.1284   24.0044 N   0  0  0  0  0  0  0  0  0  0  0  0
   11.1246  -24.6243   23.3338 C   0  0  0  0  0  0  0  0  0  0  0  0
   11.2056  -25.5650   22.5536 O   0  0  0  0  0  0  0  0  0  0  0  0
    6.4777  -17.0944   22.9946 N   0  0  0  0  0  0  0  0  0  0  0  0
    5.6687  -18.7055   24.5805 N   0  0  0  0  0  0  0  0  0  0  0  0
    5.6443  -18.2049   23.3236 C   0  0  0  0  0  0  0  0  0  0  0  0
    4.8273  -18.7384   22.3664 N   0  0  0  0  0  0  0  0  0  0  0  0
    4.0089  -19.7905   22.6226 C   0  0  0  0  0  0  0  0  0  0  0  0
    4.0157  -20.3521   23.9219 C   0  0  0  0  0  0  0  0  0  0  0  0
    3.2184  -20.2911   21.6149 O   0  0  0  0  0  0  0  0  0  0  0  0
    1.8128  -21.6349   23.9156 C   0  0  0  0  0  0  0  0  0  0  0  0
    3.1783  -21.4610   24.3492 N   0  0  0  0  0  0  0  0  0  0  0  0
    0.8601  -21.0920   24.4646 O   0  0  0  0  0  0  0  0  0  0  0  0
    3.7555  -22.3042   25.3071 C   0  0  2  0  0  0  0  0  0  0  0  0
    4.1534  -21.4754   26.5553 C   0  0  0  0  0  0  0  0  0  0  0  0
    4.8651  -19.7650   24.9122 C   0  0  0  0  0  0  0  0  0  0  0  0
    4.9029  -20.3194   26.2683 N   0  0  0  0  0  0  0  0  0  0  0  0
    4.9649  -23.0186   24.7383 C   0  0  0  0  0  0  0  0  0  0  0  0
    6.0649  -22.2015   24.3064 N   0  0  0  0  0  0  0  0  0  0  0  0
    9.8081  -23.9864   23.6144 C   0  0  0  0  0  0  0  0  0  0  0  0
    9.5953  -23.2769   24.7884 C   0  0  0  0  0  0  0  0  0  0  0  0
    8.3559  -22.6928   25.0201 C   0  0  0  0  0  0  0  0  0  0  0  0
    7.3384  -22.8075   24.0750 C   0  0  0  0  0  0  0  0  0  0  0  0
    7.5587  -23.5068   22.9012 C   0  0  0  0  0  0  0  0  0  0  0  0
    8.7945  -24.1005   22.6741 C   0  0  0  0  0  0  0  0  0  0  0  0
  1  2  1  0  0  0  0
  2  3  2  0  0  0  0
  2 20  1  0  0  0  0
  4  6  1  0  0  0  0
  5  6  2  0  0  0  0
  5 16  1  0  0  0  0
  6  7  1  0  0  0  0
  7  8  1  0  0  0  0
  8  9  1  0  0  0  0
  8 10  2  0  0  0  0
  9 12  1  0  0  0  0
  9 16  2  0  0  0  0
 11 13  1  0  0  0  0
 11 12  1  0  0  0  0
 12 14  1  0  0  0  0
 14 15  1  0  0  0  0
 14 18  1  6  0  0  0
 15 17  1  0  0  0  0
 16 17  1  0  0  0  0
 18 19  1  0  0  0  0
 19 23  1  0  0  0  0
 20 21  2  0  0  0  0
 20 25  1  0  0  0  0
 21 22  1  0  0  0  0
 22 23  2  0  0  0  0
 23 24  1  0  0  0  0
 24 25  2  0  0  0  0
M  END
>  <CHROM.1>
-85.17574413,61.67542219,164.71001754,-101.83482917,-22.19488589,6.08805297
-21.62567023,23.95967322,-0.48865266,0.21656325,-0.27169010

>  <Name>
ligand

>  <RI>
0

>  <Rbt.Current_Directory>
/home/itssahil/PROJECTS/Mol_Feturizer/New_Systems/rnas/4LVV

>  <Rbt.Executable>
rbdock ($Id: //depot/dev/client3/rdock/2013.1/src/exe/rbdock.cxx#4 $)

>  <Rbt.Library>
libRbt.so (2013.1, Build901 2013/11/27)

>  <Rbt.Parameter_File>
/export/apps/rDock/src/rDock_2013.1_src/data/scripts/dock_solv.prm

>  <Rbt.Receptor>
prm/pocket_docking_3.prm

>  <SCORE>
-5.85905

>  <SCORE.INTER>
-5.52333

>  <SCORE.INTER.CONST>
1

>  <SCORE.INTER.POLAR>
0

>  <SCORE.INTER.ROT>
5

>  <SCORE.INTER.SOLV>
6.87924

>  <SCORE.INTER.VDW>
-12.9086

>  <SCORE.INTER.norm>
-0.220933

>  <SCORE.INTRA>
-0.335724

>  <SCORE.INTRA.DIHEDRAL>
-0.632619

>  <SCORE.INTRA.DIHEDRAL.0>
3.94806

>  <SCORE.INTRA.POLAR>
0

>  <SCORE.INTRA.POLAR.0>
0

>  <SCORE.INTRA.REPUL>
0

>  <SCORE.INTRA.REPUL.0>
0

>  <SCORE.INTRA.SOLV>
2.17445

>  <SCORE.INTRA.SOLV.lig_0>
-70.9803

>  <SCORE.INTRA.VDW>
-1.10664

>  <SCORE.INTRA.VDW.0>
-0.709409

>  <SCORE.INTRA.norm>
-0.013429

>  <SCORE.RESTR>
0

>  <SCORE.RESTR.CAVITY>
0

>  <SCORE.RESTR.norm>
0

>  <SCORE.SYSTEM>
0

>  <SCORE.SYSTEM.CONST>
0

>  <SCORE.SYSTEM.DIHEDRAL>
0

>  <SCORE.SYSTEM.SOLV>
0

>  <SCORE.SYSTEM.norm>
0

>  <SCORE.heavy>
25

>  <SCORE.norm>
-0.234362

>  <RMSD>
4.013

$$$$
ligand
 OpenBabel11021811503D
libRbt.so/2013.1/901 2013/11/27
 25 27  0  0  0  0  0  0  0  0999 V2000
   10.5952  -24.0115   26.6146 N   0  0  0  0  0  0  0  0  0  0  0  0
   10.2902  -23.1365   27.7040 C   0  0  0  0  0  0  0  0  0  0  0  0
   11.1684  -22.7627   28.4716 O   0  0  0  0  0  0  0  0  0  0  0  0
    4.4208  -20.2012   21.1660 N   0  0  0  0  0  0  0  0  0  0  0  0
    4.2434  -19.5380   23.4669 N   0  0  0  0  0  0  0  0  0  0  0  0
    3.8158  -20.3246   22.4524 C   0  0  0  0  0  0  0  0  0  0  0  0
    2.8069  -21.2285   22.6361 N   0  0  0  0  0  0  0  0  0  0  0  0
    2.1902  -21.3857   23.8350 C   0  0  0  0  0  0  0  0  0  0  0  0
    2.6185  -20.5913   24.9255 C   0  0  0  0  0  0  0  0  0  0  0  0
    1.1894  -22.3203   23.9612 O   0  0  0  0  0  0  0  0  0  0  0  0
    0.6255  -20.8015   26.5009 C   0  0  0  0  0  0  0  0  0  0  0  0
    2.0378  -20.6312   26.2576 N   0  0  0  0  0  0  0  0  0  0  0  0
   -0.1834  -19.8825   26.4295 O   0  0  0  0  0  0  0  0  0  0  0  0
    2.9362  -20.3829   27.3031 C   0  0  2  0  0  0  0  0  0  0  0  0
    3.6036  -18.9990   27.0957 C   0  0  0  0  0  0  0  0  0  0  0  0
    3.6632  -19.6391   24.7044 C   0  0  0  0  0  0  0  0  0  0  0  0
    4.1368  -18.8001   25.8087 N   0  0  0  0  0  0  0  0  0  0  0  0
    3.9876  -21.4715   27.3809 C   0  0  0  0  0  0  0  0  0  0  0  0
    4.9214  -21.4031   28.4705 N   0  0  0  0  0  0  0  0  0  0  0  0
    8.8856  -22.6727   27.8790 C   0  0  0  0  0  0  0  0  0  0  0  0
    8.1330  -22.2513   26.7915 C   0  0  0  0  0  0  0  0  0  0  0  0
    6.8250  -21.8253   26.9881 C   0  0  0  0  0  0  0  0  0  0  0  0
    6.2689  -21.8334   28.2657 C   0  0  0  0  0  0  0  0  0  0  0  0
    7.0197  -22.2645   29.3454 C   0  0  0  0  0  0  0  0  0  0  0  0
    8.3314  -22.6802   29.1509 C   0  0  0  0  0  0  0  0  0  0  0  0
  1  2  1  0  0  0  0
  2  3  2  0  0  0  0
  2 20  1  0  0  0  0
  4  6  1  0  0  0  0
  5  6  2  0  0  0  0
  5 16  1  0  0  0  0
  6  7  1  0  0  0  0
  7  8  1  0  0  0  0
  8  9  1  0  0  0  0
  8 10  2  0  0  0  0
  9 12  1  0  0  0  0
  9 16  2  0  0  0  0
 11 13  1  0  0  0  0
 11 12  1  0  0  0  0
 12 14  1  0  0  0  0
 14 15  1  0  0  0  0
 14 18  1  6  0  0  0
 15 17  1  0  0  0  0
 16 17  1  0  0  0  0
 18 19  1  0  0  0  0
 19 23  1  0  0  0  0
 20 21  2  0  0  0  0
 20 25  1  0  0  0  0
 21 22  1  0  0  0  0
 22 23  2  0  0  0  0
 23 24  1  0  0  0  0
 24 25  2  0  0  0  0
M  END
>  <CHROM.1>
-80.90084863,-175.49900175,-145.52710641,24.64661987,-43.82892027,4.89100257
-21.22173123,26.11681195,-0.43690359,0.28313847,-1.50699555

>  <Name>
ligand

>  <RI>
0

>  <Rbt.Current_Directory>
/home/itssahil/PROJECTS/Mol_Feturizer/New_Systems/rnas/4LVV

>  <Rbt.Executable>
rbdock ($Id: //depot/dev/client3/rdock/2013.1/src/exe/rbdock.cxx#4 $)

>  <Rbt.Library>
libRbt.so (2013.1, Build901 2013/11/27)

>  <Rbt.Parameter_File>
/export/apps/rDock/src/rDock_2013.1_src/data/scripts/dock_solv.prm

>  <Rbt.Receptor>
prm/pocket_docking_6.prm

>  <SCORE>
-11.6017

>  <SCORE.INTER>
-11.0309

>  <SCORE.INTER.CONST>
1

>  <SCORE.INTER.POLAR>
0

>  <SCORE.INTER.ROT>
5

>  <SCORE.INTER.SOLV>
14.9623

>  <SCORE.INTER.VDW>
-19.2747

>  <SCORE.INTER.norm>
-0.441237

>  <SCORE.INTRA>
-0.570798

>  <SCORE.INTRA.DIHEDRAL>
-0.00889298

>  <SCORE.INTRA.DIHEDRAL.0>
3.94806

>  <SCORE.INTRA.POLAR>
0

>  <SCORE.INTRA.POLAR.0>
0

>  <SCORE.INTRA.REPUL>
0

>  <SCORE.INTRA.REPUL.0>
0

>  <SCORE.INTRA.SOLV>
-0.309932

>  <SCORE.INTRA.SOLV.lig_0>
-70.9803

>  <SCORE.INTRA.VDW>
-0.411385

>  <SCORE.INTRA.VDW.0>
-0.709409

>  <SCORE.INTRA.norm>
-0.0228319

>  <SCORE.RESTR>
0

>  <SCORE.RESTR.CAVITY>
0

>  <SCORE.RESTR.norm>
0

>  <SCORE.SYSTEM>
0

>  <SCORE.SYSTEM.CONST>
0

>  <SCORE.SYSTEM.DIHEDRAL>
0

>  <SCORE.SYSTEM.SOLV>
0

>  <SCORE.SYSTEM.norm>
0

>  <SCORE.heavy>
25

>  <SCORE.norm>
-0.464069

>  <RMSD>
4.033

$$$$
ligand
 OpenBabel11021811503D
libRbt.so/2013.1/901 2013/11/27
 25 27  0  0  0  0  0  0  0  0999 V2000
   11.5219  -25.5767   23.9788 N   0  0  0  0  0  0  0  0  0  0  0  0
   11.0058  -24.6004   23.0700 C   0  0  0  0  0  0  0  0  0  0  0  0
   11.6218  -24.3033   22.0540 O   0  0  0  0  0  0  0  0  0  0  0  0
    6.4290  -17.0260   23.0060 N   0  0  0  0  0  0  0  0  0  0  0  0
    5.5956  -18.6460   24.5701 N   0  0  0  0  0  0  0  0  0  0  0  0
    5.5942  -18.1414   23.3146 C   0  0  0  0  0  0  0  0  0  0  0  0
    4.7992  -18.6756   22.3394 N   0  0  0  0  0  0  0  0  0  0  0  0
    3.9807  -19.7322   22.5758 C   0  0  0  0  0  0  0  0  0  0  0  0
    3.9639  -20.2979   23.8732 C   0  0  0  0  0  0  0  0  0  0  0  0
    3.2131  -20.2333   21.5507 O   0  0  0  0  0  0  0  0  0  0  0  0
    1.7676  -21.5909   23.8184 C   0  0  0  0  0  0  0  0  0  0  0  0
    3.1233  -21.4121   24.2800 N   0  0  0  0  0  0  0  0  0  0  0  0
    0.7895  -21.1802   24.4336 O   0  0  0  0  0  0  0  0  0  0  0  0
    3.6849  -22.2557   25.2467 C   0  0  2  0  0  0  0  0  0  0  0  0
    4.0537  -21.4291   26.5054 C   0  0  0  0  0  0  0  0  0  0  0  0
    4.7904  -19.7102   24.8823 C   0  0  0  0  0  0  0  0  0  0  0  0
    4.8034  -20.2688   26.2371 N   0  0  0  0  0  0  0  0  0  0  0  0
    4.9088  -22.9627   24.7003 C   0  0  0  0  0  0  0  0  0  0  0  0
    6.0263  -22.1415   24.3249 N   0  0  0  0  0  0  0  0  0  0  0  0
    9.6944  -23.9622   23.3727 C   0  0  0  0  0  0  0  0  0  0  0  0
    8.6142  -24.1098   22.5135 C   0  0  0  0  0  0  0  0  0  0  0  0
    7.4038  -23.5023   22.8249 C   0  0  0  0  0  0  0  0  0  0  0  0
    7.2719  -22.7613   23.9976 C   0  0  0  0  0  0  0  0  0  0  0  0
    8.3486  -22.6259   24.8565 C   0  0  0  0  0  0  0  0  0  0  0  0
    9.5624  -23.2240   24.5399 C   0  0  0  0  0  0  0  0  0  0  0  0
  1  2  1  0  0  0  0
  2  3  2  0  0  0  0
  2 20  1  0  0  0  0
  4  6  1  0  0  0  0
  5  6  2  0  0  0  0
  5 16  1  0  0  0  0
  6  7  1  0  0  0  0
  7  8  1  0  0  0  0
  8  9  1  0  0  0  0
  8 10  2  0  0  0  0
  9 12  1  0  0  0  0
  9 16  2  0  0  0  0
 11 13  1  0  0  0  0
 11 12  1  0  0  0  0
 12 14  1  0  0  0  0
 14 15  1  0  0  0  0
 14 18  1  6  0  0  0
 15 17  1  0  0  0  0
 16 17  1  0  0  0  0
 18 19  1  0  0  0  0
 19 23  1  0  0  0  0
 20 21  2  0  0  0  0
 20 25  1  0  0  0  0
 21 22  1  0  0  0  0
 22 23  2  0  0  0  0
 23 24  1  0  0  0  0
 24 25  2  0  0  0  0
M  END
>  <CHROM.1>
-93.66084310,63.20671766,170.56932894,69.91975160,-118.11393638,6.01493686
-21.58878732,23.86611251,0.47680809,-0.26885725,2.82898036

>  <Name>
ligand

>  <RI>
0

>  <Rbt.Current_Directory>
/home/itssahil/PROJECTS/Mol_Feturizer/New_Systems/rnas/4LVV

>  <Rbt.Executable>
rbdock ($Id: //depot/dev/client3/rdock/2013.1/src/exe/rbdock.cxx#4 $)

>  <Rbt.Library>
libRbt.so (2013.1, Build901 2013/11/27)

>  <Rbt.Parameter_File>
/export/apps/rDock/src/rDock_2013.1_src/data/scripts/dock_solv.prm

>  <Rbt.Receptor>
prm/pocket_docking_3.prm

>  <SCORE>
-6.11504

>  <SCORE.INTER>
-5.5071

>  <SCORE.INTER.CONST>
1

>  <SCORE.INTER.POLAR>
0

>  <SCORE.INTER.ROT>
5

>  <SCORE.INTER.SOLV>
7.1792

>  <SCORE.INTER.VDW>
-12.9978

>  <SCORE.INTER.norm>
-0.220284

>  <SCORE.INTRA>
-0.607932

>  <SCORE.INTRA.DIHEDRAL>
-0.738217

>  <SCORE.INTRA.DIHEDRAL.0>
3.94806

>  <SCORE.INTRA.POLAR>
0

>  <SCORE.INTRA.POLAR.0>
0

>  <SCORE.INTRA.REPUL>
0

>  <SCORE.INTRA.REPUL.0>
0

>  <SCORE.INTRA.SOLV>
2.14214

>  <SCORE.INTRA.SOLV.lig_0>
-70.9803

>  <SCORE.INTRA.VDW>
-1.30989

>  <SCORE.INTRA.VDW.0>
-0.709409

>  <SCORE.INTRA.norm>
-0.0243173

>  <SCORE.RESTR>
0

>  <SCORE.RESTR.CAVITY>
0

>  <SCORE.RESTR.norm>
0

>  <SCORE.SYSTEM>
0

>  <SCORE.SYSTEM.CONST>
0

>  <SCORE.SYSTEM.DIHEDRAL>
0

>  <SCORE.SYSTEM.SOLV>
0

>  <SCORE.SYSTEM.norm>
0

>  <SCORE.heavy>
25

>  <SCORE.norm>
-0.244601

>  <RMSD>
4.045

$$$$
ligand
 OpenBabel11021811503D
libRbt.so/2013.1/901 2013/11/27
 25 27  0  0  0  0  0  0  0  0999 V2000
   11.2342  -22.0011   27.7127 N   0  0  0  0  0  0  0  0  0  0  0  0
   10.2185  -23.0078   27.6951 C   0  0  0  0  0  0  0  0  0  0  0  0
   10.5047  -24.1827   27.5009 O   0  0  0  0  0  0  0  0  0  0  0  0
    4.5834  -20.3638   21.1649 N   0  0  0  0  0  0  0  0  0  0  0  0
    4.4147  -19.6291   23.4446 N   0  0  0  0  0  0  0  0  0  0  0  0
    3.9425  -20.4018   22.4392 C   0  0  0  0  0  0  0  0  0  0  0  0
    2.8557  -21.2107   22.6205 N   0  0  0  0  0  0  0  0  0  0  0  0
    2.2021  -21.2837   23.8080 C   0  0  0  0  0  0  0  0  0  0  0  0
    2.6741  -20.5013   24.8891 C   0  0  0  0  0  0  0  0  0  0  0  0
    1.1219  -22.1254   23.9327 O   0  0  0  0  0  0  0  0  0  0  0  0
    0.6370  -20.4992   26.4217 C   0  0  0  0  0  0  0  0  0  0  0  0
    2.0636  -20.4571   26.2078 N   0  0  0  0  0  0  0  0  0  0  0  0
    0.0589  -21.4676   26.9031 O   0  0  0  0  0  0  0  0  0  0  0  0
    2.9576  -20.2600   27.2679 C   0  0  2  0  0  0  0  0  0  0  0  0
    3.7463  -18.9443   27.0436 C   0  0  0  0  0  0  0  0  0  0  0  0
    3.8015  -19.6483   24.6702 C   0  0  0  0  0  0  0  0  0  0  0  0
    4.3221  -18.8249   25.7651 N   0  0  0  0  0  0  0  0  0  0  0  0
    3.9090  -21.4324   27.3962 C   0  0  0  0  0  0  0  0  0  0  0  0
    4.8113  -21.4241   28.5142 N   0  0  0  0  0  0  0  0  0  0  0  0
    8.8050  -22.6037   27.9349 C   0  0  0  0  0  0  0  0  0  0  0  0
    8.2680  -22.6129   29.2149 C   0  0  0  0  0  0  0  0  0  0  0  0
    6.9460  -22.2295   29.4053 C   0  0  0  0  0  0  0  0  0  0  0  0
    6.1691  -21.8264   28.3210 C   0  0  0  0  0  0  0  0  0  0  0  0
    6.7121  -21.8087   27.0482 C   0  0  0  0  0  0  0  0  0  0  0  0
    8.0308  -22.2026   26.8558 C   0  0  0  0  0  0  0  0  0  0  0  0
  1  2  1  0  0  0  0
  2  3  2  0  0  0  0
  2 20  1  0  0  0  0
  4  6  1  0  0  0  0
  5  6  2  0  0  0  0
  5 16  1  0  0  0  0
  6  7  1  0  0  0  0
  7  8  1  0  0  0  0
  8  9  1  0  0  0  0
  8 10  2  0  0  0  0
  9 12  1  0  0  0  0
  9 16  2  0  0  0  0
 11 13  1  0  0  0  0
 11 12  1  0  0  0  0
 12 14  1  0  0  0  0
 14 15  1  0  0  0  0
 14 18  1  6  0  0  0
 15 17  1  0  0  0  0
 16 17  1  0  0  0  0
 18 19  1  0  0  0  0
 19 23  1  0  0  0  0
 20 21  2  0  0  0  0
 20 25  1  0  0  0  0
 21 22  1  0  0  0  0
 22 23  2  0  0  0  0
 23 24  1  0  0  0  0
 24 25  2  0  0  0  0
M  END
>  <CHROM.1>
109.16992094,-174.80570595,-138.32096710,-159.89070757,-91.59313276,4.90894201
-21.23798658,26.13637508,-0.46691238,0.21435918,-1.42733406

>  <Name>
ligand

>  <RI>
0

>  <Rbt.Current_Directory>
/home/itssahil/PROJECTS/Mol_Feturizer/New_Systems/rnas/4LVV

>  <Rbt.Executable>
rbdock ($Id: //depot/dev/client3/rdock/2013.1/src/exe/rbdock.cxx#4 $)

>  <Rbt.Library>
libRbt.so (2013.1, Build901 2013/11/27)

>  <Rbt.Parameter_File>
/export/apps/rDock/src/rDock_2013.1_src/data/scripts/dock_solv.prm

>  <Rbt.Receptor>
prm/pocket_docking_5.prm

>  <SCORE>
-11.4796

>  <SCORE.INTER>
-11.1434

>  <SCORE.INTER.CONST>
1

>  <SCORE.INTER.POLAR>
0

>  <SCORE.INTER.ROT>
5

>  <SCORE.INTER.SOLV>
13.9131

>  <SCORE.INTER.VDW>
-18.9999

>  <SCORE.INTER.norm>
-0.445734

>  <SCORE.INTRA>
-0.336216

>  <SCORE.INTRA.DIHEDRAL>
0.431868

>  <SCORE.INTRA.DIHEDRAL.0>
3.94806

>  <SCORE.INTRA.POLAR>
0

>  <SCORE.INTRA.POLAR.0>
0

>  <SCORE.INTRA.REPUL>
0

>  <SCORE.INTRA.REPUL.0>
0

>  <SCORE.INTRA.SOLV>
-0.165227

>  <SCORE.INTRA.SOLV.lig_0>
-70.9803

>  <SCORE.INTRA.VDW>
-0.469536

>  <SCORE.INTRA.VDW.0>
-0.709409

>  <SCORE.INTRA.norm>
-0.0134486

>  <SCORE.RESTR>
0

>  <SCORE.RESTR.CAVITY>
0

>  <SCORE.RESTR.norm>
0

>  <SCORE.SYSTEM>
0

>  <SCORE.SYSTEM.CONST>
0

>  <SCORE.SYSTEM.DIHEDRAL>
0

>  <SCORE.SYSTEM.SOLV>
0

>  <SCORE.SYSTEM.norm>
0

>  <SCORE.heavy>
25

>  <SCORE.norm>
-0.459183

>  <RMSD>
4.057

$$$$
ligand
 OpenBabel11021811503D
libRbt.so/2013.1/901 2013/11/27
 25 27  0  0  0  0  0  0  0  0999 V2000
   10.1057  -23.7848   23.7086 N   0  0  0  0  0  0  0  0  0  0  0  0
    8.8949  -23.4393   23.0304 C   0  0  0  0  0  0  0  0  0  0  0  0
    8.8661  -23.3447   21.8096 O   0  0  0  0  0  0  0  0  0  0  0  0
    5.1051  -17.0462   21.9347 N   0  0  0  0  0  0  0  0  0  0  0  0
    3.9975  -17.7215   23.9553 N   0  0  0  0  0  0  0  0  0  0  0  0
    4.3738  -18.0123   22.6885 C   0  0  0  0  0  0  0  0  0  0  0  0
    4.0567  -19.2118   22.1150 N   0  0  0  0  0  0  0  0  0  0  0  0
    3.3581  -20.1663   22.7809 C   0  0  0  0  0  0  0  0  0  0  0  0
    2.9584  -19.9060   24.1136 C   0  0  0  0  0  0  0  0  0  0  0  0
    3.0795  -21.3584   22.1545 O   0  0  0  0  0  0  0  0  0  0  0  0
    1.1206  -21.6449   24.4250 C   0  0  0  0  0  0  0  0  0  0  0  0
    2.1867  -20.8198   24.9401 N   0  0  0  0  0  0  0  0  0  0  0  0
   -0.0653  -21.3496   24.5261 O   0  0  0  0  0  0  0  0  0  0  0  0
    2.4770  -20.7687   26.3093 C   0  0  2  0  0  0  0  0  0  0  0  0
    2.2598  -19.3254   26.8321 C   0  0  0  0  0  0  0  0  0  0  0  0
    3.2854  -18.6364   24.6862 C   0  0  0  0  0  0  0  0  0  0  0  0
    2.8919  -18.3299   26.0642 N   0  0  0  0  0  0  0  0  0  0  0  0
    3.8985  -21.2203   26.5766 C   0  0  0  0  0  0  0  0  0  0  0  0
    4.2426  -22.5614   26.1929 N   0  0  0  0  0  0  0  0  0  0  0  0
    7.6622  -23.2129   23.8353 C   0  0  0  0  0  0  0  0  0  0  0  0
    6.4080  -23.5029   23.3159 C   0  0  0  0  0  0  0  0  0  0  0  0
    5.2774  -23.2811   24.0927 C   0  0  0  0  0  0  0  0  0  0  0  0
    5.4027  -22.7835   25.3883 C   0  0  0  0  0  0  0  0  0  0  0  0
    6.6560  -22.5060   25.9057 C   0  0  0  0  0  0  0  0  0  0  0  0
    7.7862  -22.7172   25.1251 C   0  0  0  0  0  0  0  0  0  0  0  0
  1  2  1  0  0  0  0
  2  3  2  0  0  0  0
  2 20  1  0  0  0  0
  4  6  1  0  0  0  0
  5  6  2  0  0  0  0
  5 16  1  0  0  0  0
  6  7  1  0  0  0  0
  7  8  1  0  0  0  0
  8  9  1  0  0  0  0
  8 10  2  0  0  0  0
  9 12  1  0  0  0  0
  9 16  2  0  0  0  0
 11 13  1  0  0  0  0
 11 12  1  0  0  0  0
 12 14  1  0  0  0  0
 14 15  1  0  0  0  0
 14 18  1  6  0  0  0
 15 17  1  0  0  0  0
 16 17  1  0  0  0  0
 18 19  1  0  0  0  0
 19 23  1  0  0  0  0
 20 21  2  0  0  0  0
 20 25  1  0  0  0  0
 21 22  1  0  0  0  0
 22 23  2  0  0  0  0
 23 24  1  0  0  0  0
 24 25  2  0  0  0  0
M  END
>  <CHROM.1>
-98.92487708,-60.64359866,128.70781729,-114.53840957,-149.00740444,4.57979548
-21.04538758,24.24022332,-0.33231017,0.48001786,-0.62956844

>  <Name>
ligand

>  <RI>
0

>  <Rbt.Current_Directory>
/home/itssahil/PROJECTS/Mol_Feturizer/New_Systems/rnas/4LVV

>  <Rbt.Executable>
rbdock ($Id: //depot/dev/client3/rdock/2013.1/src/exe/rbdock.cxx#4 $)

>  <Rbt.Library>
libRbt.so (2013.1, Build901 2013/11/27)

>  <Rbt.Parameter_File>
/export/apps/rDock/src/rDock_2013.1_src/data/scripts/dock_solv.prm

>  <Rbt.Receptor>
prm/pocket_docking_4.prm

>  <SCORE>
-13.3883

>  <SCORE.INTER>
-11.8727

>  <SCORE.INTER.CONST>
1

>  <SCORE.INTER.POLAR>
0

>  <SCORE.INTER.ROT>
5

>  <SCORE.INTER.SOLV>
15.6411

>  <SCORE.INTER.VDW>
-20.0621

>  <SCORE.INTER.norm>
-0.474907

>  <SCORE.INTRA>
-1.51566

>  <SCORE.INTRA.DIHEDRAL>
0.34263

>  <SCORE.INTRA.DIHEDRAL.0>
3.94806

>  <SCORE.INTRA.POLAR>
0

>  <SCORE.INTRA.POLAR.0>
0

>  <SCORE.INTRA.REPUL>
0

>  <SCORE.INTRA.REPUL.0>
0

>  <SCORE.INTRA.SOLV>
-0.0526634

>  <SCORE.INTRA.SOLV.lig_0>
-70.9803

>  <SCORE.INTRA.VDW>
-1.66064

>  <SCORE.INTRA.VDW.0>
-0.709409

>  <SCORE.INTRA.norm>
-0.0606264

>  <SCORE.RESTR>
0

>  <SCORE.RESTR.CAVITY>
0

>  <SCORE.RESTR.norm>
0

>  <SCORE.SYSTEM>
0

>  <SCORE.SYSTEM.CONST>
0

>  <SCORE.SYSTEM.DIHEDRAL>
0

>  <SCORE.SYSTEM.SOLV>
0

>  <SCORE.SYSTEM.norm>
0

>  <SCORE.heavy>
25

>  <SCORE.norm>
-0.535534

>  <RMSD>
4.058

$$$$
ligand
 OpenBabel11021811503D
libRbt.so/2013.1/901 2013/11/27
 25 27  0  0  0  0  0  0  0  0999 V2000
    9.7115  -24.5997   23.2793 N   0  0  0  0  0  0  0  0  0  0  0  0
    8.9898  -23.3753   23.1202 C   0  0  0  0  0  0  0  0  0  0  0  0
    9.3773  -22.5173   22.3367 O   0  0  0  0  0  0  0  0  0  0  0  0
    5.1396  -17.1054   21.9391 N   0  0  0  0  0  0  0  0  0  0  0  0
    4.0328  -17.7663   23.9648 N   0  0  0  0  0  0  0  0  0  0  0  0
    4.3867  -18.0559   22.6913 C   0  0  0  0  0  0  0  0  0  0  0  0
    4.0263  -19.2391   22.1095 N   0  0  0  0  0  0  0  0  0  0  0  0
    3.3054  -20.1782   22.7736 C   0  0  0  0  0  0  0  0  0  0  0  0
    2.9280  -19.9191   24.1130 C   0  0  0  0  0  0  0  0  0  0  0  0
    2.9833  -21.3547   22.1387 O   0  0  0  0  0  0  0  0  0  0  0  0
    1.0403  -21.6032   24.4273 C   0  0  0  0  0  0  0  0  0  0  0  0
    2.1369  -20.8167   24.9388 N   0  0  0  0  0  0  0  0  0  0  0  0
   -0.1358  -21.3477   24.6625 O   0  0  0  0  0  0  0  0  0  0  0  0
    2.4430  -20.7884   26.3053 C   0  0  2  0  0  0  0  0  0  0  0  0
    2.2762  -19.3444   26.8444 C   0  0  0  0  0  0  0  0  0  0  0  0
    3.3003  -18.6660   24.6944 C   0  0  0  0  0  0  0  0  0  0  0  0
    2.9310  -18.3613   26.0794 N   0  0  0  0  0  0  0  0  0  0  0  0
    3.8525  -21.2865   26.5529 C   0  0  0  0  0  0  0  0  0  0  0  0
    4.1789  -22.5975   26.0641 N   0  0  0  0  0  0  0  0  0  0  0  0
    7.7461  -23.1684   23.9133 C   0  0  0  0  0  0  0  0  0  0  0  0
    7.7998  -22.6643   25.2055 C   0  0  0  0  0  0  0  0  0  0  0  0
    6.6212  -22.4821   25.9188 C   0  0  0  0  0  0  0  0  0  0  0  0
    5.3936  -22.7909   25.3362 C   0  0  0  0  0  0  0  0  0  0  0  0
    5.3443  -23.2831   24.0437 C   0  0  0  0  0  0  0  0  0  0  0  0
    6.5235  -23.4759   23.3341 C   0  0  0  0  0  0  0  0  0  0  0  0
  1  2  1  0  0  0  0
  2  3  2  0  0  0  0
  2 20  1  0  0  0  0
  4  6  1  0  0  0  0
  5  6  2  0  0  0  0
  5 16  1  0  0  0  0
  6  7  1  0  0  0  0
  7  8  1  0  0  0  0
  8  9  1  0  0  0  0
  8 10  2  0  0  0  0
  9 12  1  0  0  0  0
  9 16  2  0  0  0  0
 11 13  1  0  0  0  0
 11 12  1  0  0  0  0
 12 14  1  0  0  0  0
 14 15  1  0  0  0  0
 14 18  1  6  0  0  0
 15 17  1  0  0  0  0
 16 17  1  0  0  0  0
 18 19  1  0  0  0  0
 19 23  1  0  0  0  0
 20 21  2  0  0  0  0
 20 25  1  0  0  0  0
 21 22  1  0  0  0  0
 22 23  2  0  0  0  0
 23 24  1  0  0  0  0
 24 25  2  0  0  0  0
M  END
>  <CHROM.1>
-106.77418521,-56.18078755,132.93721550,58.57694202,85.47128325,4.58228057
-21.04670202,24.25478697,0.33964077,-0.45058123,2.55412275

>  <Name>
ligand

>  <RI>
0

>  <Rbt.Current_Directory>
/home/itssahil/PROJECTS/Mol_Feturizer/New_Systems/rnas/4LVV

>  <Rbt.Executable>
rbdock ($Id: //depot/dev/client3/rdock/2013.1/src/exe/rbdock.cxx#4 $)

>  <Rbt.Library>
libRbt.so (2013.1, Build901 2013/11/27)

>  <Rbt.Parameter_File>
/export/apps/rDock/src/rDock_2013.1_src/data/scripts/dock_solv.prm

>  <Rbt.Receptor>
prm/pocket_docking_4.prm

>  <SCORE>
-13.638

>  <SCORE.INTER>
-12.0848

>  <SCORE.INTER.CONST>
1

>  <SCORE.INTER.POLAR>
0

>  <SCORE.INTER.ROT>
5

>  <SCORE.INTER.SOLV>
16.1768

>  <SCORE.INTER.VDW>
-20.3821

>  <SCORE.INTER.norm>
-0.483392

>  <SCORE.INTRA>
-1.55321

>  <SCORE.INTRA.DIHEDRAL>
0.371953

>  <SCORE.INTRA.DIHEDRAL.0>
3.94806

>  <SCORE.INTRA.POLAR>
0

>  <SCORE.INTRA.POLAR.0>
0

>  <SCORE.INTRA.REPUL>
0

>  <SCORE.INTRA.REPUL.0>
0

>  <SCORE.INTRA.SOLV>
-0.0193919

>  <SCORE.INTRA.SOLV.lig_0>
-70.9803

>  <SCORE.INTRA.VDW>
-1.72949

>  <SCORE.INTRA.VDW.0>
-0.709409

>  <SCORE.INTRA.norm>
-0.0621285

>  <SCORE.RESTR>
0

>  <SCORE.RESTR.CAVITY>
0

>  <SCORE.RESTR.norm>
0

>  <SCORE.SYSTEM>
0

>  <SCORE.SYSTEM.CONST>
0

>  <SCORE.SYSTEM.DIHEDRAL>
0

>  <SCORE.SYSTEM.SOLV>
0

>  <SCORE.SYSTEM.norm>
0

>  <SCORE.heavy>
25

>  <SCORE.norm>
-0.54552

>  <RMSD>
4.063

$$$$
ligand
 OpenBabel11021811503D
libRbt.so/2013.1/901 2013/11/27
 25 27  0  0  0  0  0  0  0  0999 V2000
    9.5926  -22.2574   22.5701 N   0  0  0  0  0  0  0  0  0  0  0  0
    8.8723  -23.3974   23.0465 C   0  0  0  0  0  0  0  0  0  0  0  0
    9.2532  -24.5321   22.7869 O   0  0  0  0  0  0  0  0  0  0  0  0
    5.1487  -17.1550   21.9177 N   0  0  0  0  0  0  0  0  0  0  0  0
    4.0294  -17.7817   23.9475 N   0  0  0  0  0  0  0  0  0  0  0  0
    4.3929  -18.0935   22.6820 C   0  0  0  0  0  0  0  0  0  0  0  0
    4.0396  -19.2882   22.1195 N   0  0  0  0  0  0  0  0  0  0  0  0
    3.3165  -20.2168   22.7956 C   0  0  0  0  0  0  0  0  0  0  0  0
    2.9290  -19.9343   24.1274 C   0  0  0  0  0  0  0  0  0  0  0  0
    3.0018  -21.4056   22.1802 O   0  0  0  0  0  0  0  0  0  0  0  0
    1.0435  -21.6174   24.4594 C   0  0  0  0  0  0  0  0  0  0  0  0
    2.1345  -20.8187   24.9640 N   0  0  0  0  0  0  0  0  0  0  0  0
   -0.1357  -21.3334   24.6402 O   0  0  0  0  0  0  0  0  0  0  0  0
    2.4309  -20.7647   26.3318 C   0  0  2  0  0  0  0  0  0  0  0  0
    2.2568  -19.3115   26.8433 C   0  0  0  0  0  0  0  0  0  0  0  0
    3.2941  -18.6698   24.6883 C   0  0  0  0  0  0  0  0  0  0  0  0
    2.9144  -18.3408   26.0650 N   0  0  0  0  0  0  0  0  0  0  0  0
    3.8399  -21.2545   26.5982 C   0  0  0  0  0  0  0  0  0  0  0  0
    4.1687  -22.5788   26.1486 N   0  0  0  0  0  0  0  0  0  0  0  0
    7.6574  -23.1802   23.8805 C   0  0  0  0  0  0  0  0  0  0  0  0
    7.7592  -22.6886   25.1746 C   0  0  0  0  0  0  0  0  0  0  0  0
    6.6066  -22.4963   25.9266 C   0  0  0  0  0  0  0  0  0  0  0  0
    5.3569  -22.7826   25.3808 C   0  0  0  0  0  0  0  0  0  0  0  0
    5.2596  -23.2625   24.0864 C   0  0  0  0  0  0  0  0  0  0  0  0
    6.4128  -23.4654   23.3379 C   0  0  0  0  0  0  0  0  0  0  0  0
  1  2  1  0  0  0  0
  2  3  2  0  0  0  0
  2 20  1  0  0  0  0
  4  6  1  0  0  0  0
  5  6  2  0  0  0  0
  5 16  1  0  0  0  0
  6  7  1  0  0  0  0
  7  8  1  0  0  0  0
  8  9  1  0  0  0  0
  8 10  2  0  0  0  0
  9 12  1  0  0  0  0
  9 16  2  0  0  0  0
 11 13  1  0  0  0  0
 11 12  1  0  0  0  0
 12 14  1  0  0  0  0
 14 15  1  0  0  0  0
 14 18  1  6  0  0  0
 15 17  1  0  0  0  0
 16 17  1  0  0  0  0
 18 19  1  0  0  0  0
 19 23  1  0  0  0  0
 20 21  2  0  0  0  0
 20 25  1  0  0  0  0
 21 22  1  0  0  0  0
 22 23  2  0  0  0  0
 23 24  1  0  0  0  0
 24 25  2  0  0  0  0
M  END
>  <CHROM.1>
-103.99952387,-56.83566606,130.25128321,61.87270950,-70.11226388,4.55274835
-21.05153340,24.25393928,-0.33674354,0.46325227,-0.57045653

>  <Name>
ligand

>  <RI>
0

>  <Rbt.Current_Directory>
/home/itssahil/PROJECTS/Mol_Feturizer/New_Systems/rnas/4LVV

>  <Rbt.Executable>
rbdock ($Id: //depot/dev/client3/rdock/2013.1/src/exe/rbdock.cxx#4 $)

>  <Rbt.Library>
libRbt.so (2013.1, Build901 2013/11/27)

>  <Rbt.Parameter_File>
/export/apps/rDock/src/rDock_2013.1_src/data/scripts/dock_solv.prm

>  <Rbt.Receptor>
prm/pocket_docking_4.prm

>  <SCORE>
-13.8167

>  <SCORE.INTER>
-12.1098

>  <SCORE.INTER.CONST>
1

>  <SCORE.INTER.POLAR>
0

>  <SCORE.INTER.ROT>
5

>  <SCORE.INTER.SOLV>
15.8726

>  <SCORE.INTER.VDW>
-20.2974

>  <SCORE.INTER.norm>
-0.484393

>  <SCORE.INTRA>
-1.70686

>  <SCORE.INTRA.DIHEDRAL>
0.341967

>  <SCORE.INTRA.DIHEDRAL.0>
3.94806

>  <SCORE.INTRA.POLAR>
0

>  <SCORE.INTRA.POLAR.0>
0

>  <SCORE.INTRA.REPUL>
0

>  <SCORE.INTRA.REPUL.0>
0

>  <SCORE.INTRA.SOLV>
-0.0129284

>  <SCORE.INTRA.SOLV.lig_0>
-70.9803

>  <SCORE.INTRA.VDW>
-1.87138

>  <SCORE.INTRA.VDW.0>
-0.709409

>  <SCORE.INTRA.norm>
-0.0682745

>  <SCORE.RESTR>
0

>  <SCORE.RESTR.CAVITY>
0

>  <SCORE.RESTR.norm>
0

>  <SCORE.SYSTEM>
0

>  <SCORE.SYSTEM.CONST>
0

>  <SCORE.SYSTEM.DIHEDRAL>
0

>  <SCORE.SYSTEM.SOLV>
0

>  <SCORE.SYSTEM.norm>
0

>  <SCORE.heavy>
25

>  <SCORE.norm>
-0.552668

>  <RMSD>
4.080

$$$$
ligand
 OpenBabel11021811503D
libRbt.so/2013.1/901 2013/11/27
 25 27  0  0  0  0  0  0  0  0999 V2000
   10.1685  -23.8017   23.6764 N   0  0  0  0  0  0  0  0  0  0  0  0
    8.9289  -23.5354   23.0147 C   0  0  0  0  0  0  0  0  0  0  0  0
    8.8587  -23.5375   21.7919 O   0  0  0  0  0  0  0  0  0  0  0  0
    5.5861  -17.2939   21.9046 N   0  0  0  0  0  0  0  0  0  0  0  0
    4.4732  -17.8022   23.9706 N   0  0  0  0  0  0  0  0  0  0  0  0
    4.7646  -18.1511   22.6961 C   0  0  0  0  0  0  0  0  0  0  0  0
    4.2770  -19.3056   22.1505 N   0  0  0  0  0  0  0  0  0  0  0  0
    3.4862  -20.1564   22.8529 C   0  0  0  0  0  0  0  0  0  0  0  0
    3.1701  -19.8342   24.1945 C   0  0  0  0  0  0  0  0  0  0  0  0
    3.0359  -21.3090   22.2532 O   0  0  0  0  0  0  0  0  0  0  0  0
    1.1375  -21.3205   24.5921 C   0  0  0  0  0  0  0  0  0  0  0  0
    2.3176  -20.6336   25.0593 N   0  0  0  0  0  0  0  0  0  0  0  0
    1.1771  -22.3830   23.9811 O   0  0  0  0  0  0  0  0  0  0  0  0
    2.6600  -20.6068   26.4172 C   0  0  2  0  0  0  0  0  0  0  0  0
    2.6473  -19.1426   26.9266 C   0  0  0  0  0  0  0  0  0  0  0  0
    3.6764  -18.6114   24.7379 C   0  0  0  0  0  0  0  0  0  0  0  0
    3.3739  -18.2437   26.1239 N   0  0  0  0  0  0  0  0  0  0  0  0
    4.0209  -21.2341   26.6428 C   0  0  0  0  0  0  0  0  0  0  0  0
    4.2399  -22.5407   26.0871 N   0  0  0  0  0  0  0  0  0  0  0  0
    7.7178  -23.2717   23.8408 C   0  0  0  0  0  0  0  0  0  0  0  0
    7.8281  -22.7431   25.1196 C   0  0  0  0  0  0  0  0  0  0  0  0
    6.6789  -22.5079   25.8645 C   0  0  0  0  0  0  0  0  0  0  0  0
    5.4244  -22.7885   25.3267 C   0  0  0  0  0  0  0  0  0  0  0  0
    5.3189  -23.3055   24.0472 C   0  0  0  0  0  0  0  0  0  0  0  0
    6.4685  -23.5512   23.3061 C   0  0  0  0  0  0  0  0  0  0  0  0
  1  2  1  0  0  0  0
  2  3  2  0  0  0  0
  2 20  1  0  0  0  0
  4  6  1  0  0  0  0
  5  6  2  0  0  0  0
  5 16  1  0  0  0  0
  6  7  1  0  0  0  0
  7  8  1  0  0  0  0
  8  9  1  0  0  0  0
  8 10  2  0  0  0  0
  9 12  1  0  0  0  0
  9 16  2  0  0  0  0
 11 13  1  0  0  0  0
 11 12  1  0  0  0  0
 12 14  1  0  0  0  0
 14 15  1  0  0  0  0
 14 18  1  6  0  0  0
 15 17  1  0  0  0  0
 16 17  1  0  0  0  0
 18 19  1  0  0  0  0
 19 23  1  0  0  0  0
 20 21  2  0  0  0  0
 20 25  1  0  0  0  0
 21 22  1  0  0  0  0
 22 23  2  0  0  0  0
 23 24  1  0  0  0  0
 24 25  2  0  0  0  0
M  END
>  <CHROM.1>
78.53030177,-51.53618395,131.44040809,53.90559127,26.80240059,4.79451369
-21.09146968,24.23992530,-0.38093756,0.50688003,-0.55210281

>  <Name>
ligand

>  <RI>
0

>  <Rbt.Current_Directory>
/home/itssahil/PROJECTS/Mol_Feturizer/New_Systems/rnas/4LVV

>  <Rbt.Executable>
rbdock ($Id: //depot/dev/client3/rdock/2013.1/src/exe/rbdock.cxx#4 $)

>  <Rbt.Library>
libRbt.so (2013.1, Build901 2013/11/27)

>  <Rbt.Parameter_File>
/export/apps/rDock/src/rDock_2013.1_src/data/scripts/dock_solv.prm

>  <Rbt.Receptor>
prm/pocket_docking_4.prm

>  <SCORE>
-10.9246

>  <SCORE.INTER>
-9.93824

>  <SCORE.INTER.CONST>
1

>  <SCORE.INTER.POLAR>
0

>  <SCORE.INTER.ROT>
5

>  <SCORE.INTER.SOLV>
14.3353

>  <SCORE.INTER.VDW>
-18.3373

>  <SCORE.INTER.norm>
-0.39753

>  <SCORE.INTRA>
-0.986393

>  <SCORE.INTRA.DIHEDRAL>
0.760759

>  <SCORE.INTRA.DIHEDRAL.0>
3.94806

>  <SCORE.INTRA.POLAR>
0

>  <SCORE.INTRA.POLAR.0>
0

>  <SCORE.INTRA.REPUL>
0

>  <SCORE.INTRA.REPUL.0>
0

>  <SCORE.INTRA.SOLV>
0.750828

>  <SCORE.INTRA.SOLV.lig_0>
-70.9803

>  <SCORE.INTRA.VDW>
-1.74219

>  <SCORE.INTRA.VDW.0>
-0.709409

>  <SCORE.INTRA.norm>
-0.0394557

>  <SCORE.RESTR>
0

>  <SCORE.RESTR.CAVITY>
0

>  <SCORE.RESTR.norm>
0

>  <SCORE.SYSTEM>
0

>  <SCORE.SYSTEM.CONST>
0

>  <SCORE.SYSTEM.DIHEDRAL>
0

>  <SCORE.SYSTEM.SOLV>
0

>  <SCORE.SYSTEM.norm>
0

>  <SCORE.heavy>
25

>  <SCORE.norm>
-0.436986

>  <RMSD>
4.086

$$$$
ligand
 OpenBabel11021811503D
libRbt.so/2013.1/901 2013/11/27
 25 27  0  0  0  0  0  0  0  0999 V2000
   10.5663  -24.3706   28.3664 N   0  0  0  0  0  0  0  0  0  0  0  0
   10.1963  -23.1042   27.8144 C   0  0  0  0  0  0  0  0  0  0  0  0
   11.0126  -22.4241   27.2052 O   0  0  0  0  0  0  0  0  0  0  0  0
    4.5664  -20.4798   21.1841 N   0  0  0  0  0  0  0  0  0  0  0  0
    4.3944  -19.6914   23.4456 N   0  0  0  0  0  0  0  0  0  0  0  0
    3.9271  -20.4918   22.4598 C   0  0  0  0  0  0  0  0  0  0  0  0
    2.8465  -21.3042   22.6619 N   0  0  0  0  0  0  0  0  0  0  0  0
    2.1947  -21.3533   23.8515 C   0  0  0  0  0  0  0  0  0  0  0  0
    2.6619  -20.5415   24.9128 C   0  0  0  0  0  0  0  0  0  0  0  0
    1.1209  -22.1998   23.9978 O   0  0  0  0  0  0  0  0  0  0  0  0
    0.6264  -20.5176   26.4473 C   0  0  0  0  0  0  0  0  0  0  0  0
    2.0525  -20.4699   26.2308 N   0  0  0  0  0  0  0  0  0  0  0  0
    0.0363  -21.5292   26.8108 O   0  0  0  0  0  0  0  0  0  0  0  0
    2.9460  -20.2407   27.2847 C   0  0  2  0  0  0  0  0  0  0  0  0
    3.7246  -18.9249   27.0277 C   0  0  0  0  0  0  0  0  0  0  0  0
    3.7827  -19.6856   24.6720 C   0  0  0  0  0  0  0  0  0  0  0  0
    4.2982  -18.8321   25.7461 N   0  0  0  0  0  0  0  0  0  0  0  0
    3.9064  -21.4025   27.4402 C   0  0  0  0  0  0  0  0  0  0  0  0
    4.8297  -21.3461   28.5395 N   0  0  0  0  0  0  0  0  0  0  0  0
    8.7927  -22.6334   27.9789 C   0  0  0  0  0  0  0  0  0  0  0  0
    8.0604  -22.1799   26.8903 C   0  0  0  0  0  0  0  0  0  0  0  0
    6.7529  -21.7481   27.0768 C   0  0  0  0  0  0  0  0  0  0  0  0
    6.1769  -21.7823   28.3452 C   0  0  0  0  0  0  0  0  0  0  0  0
    6.9073  -22.2453   29.4257 C   0  0  0  0  0  0  0  0  0  0  0  0
    8.2187  -22.6668   29.2414 C   0  0  0  0  0  0  0  0  0  0  0  0
  1  2  1  0  0  0  0
  2  3  2  0  0  0  0
  2 20  1  0  0  0  0
  4  6  1  0  0  0  0
  5  6  2  0  0  0  0
  5 16  1  0  0  0  0
  6  7  1  0  0  0  0
  7  8  1  0  0  0  0
  8  9  1  0  0  0  0
  8 10  2  0  0  0  0
  9 12  1  0  0  0  0
  9 16  2  0  0  0  0
 11 13  1  0  0  0  0
 11 12  1  0  0  0  0
 12 14  1  0  0  0  0
 14 15  1  0  0  0  0
 14 18  1  6  0  0  0
 15 17  1  0  0  0  0
 16 17  1  0  0  0  0
 18 19  1  0  0  0  0
 19 23  1  0  0  0  0
 20 21  2  0  0  0  0
 20 25  1  0  0  0  0
 21 22  1  0  0  0  0
 22 23  2  0  0  0  0
 23 24  1  0  0  0  0
 24 25  2  0  0  0  0
M  END
>  <CHROM.1>
100.67409458,-176.14981254,-139.96213607,25.71650216,-129.78202136,4.89600457
-21.27760765,26.16904241,-0.47795623,0.22156549,-1.42788557

>  <Name>
ligand

>  <RI>
0

>  <Rbt.Current_Directory>
/home/itssahil/PROJECTS/Mol_Feturizer/New_Systems/rnas/4LVV

>  <Rbt.Executable>
rbdock ($Id: //depot/dev/client3/rdock/2013.1/src/exe/rbdock.cxx#4 $)

>  <Rbt.Library>
libRbt.so (2013.1, Build901 2013/11/27)

>  <Rbt.Parameter_File>
/export/apps/rDock/src/rDock_2013.1_src/data/scripts/dock_solv.prm

>  <Rbt.Receptor>
prm/pocket_docking_5.prm

>  <SCORE>
-11.5511

>  <SCORE.INTER>
-11.1442

>  <SCORE.INTER.CONST>
1

>  <SCORE.INTER.POLAR>
0

>  <SCORE.INTER.ROT>
5

>  <SCORE.INTER.SOLV>
15.0804

>  <SCORE.INTER.VDW>
-19.3896

>  <SCORE.INTER.norm>
-0.445768

>  <SCORE.INTRA>
-0.406932

>  <SCORE.INTRA.DIHEDRAL>
0.43482

>  <SCORE.INTRA.DIHEDRAL.0>
3.94806

>  <SCORE.INTRA.POLAR>
0

>  <SCORE.INTRA.POLAR.0>
0

>  <SCORE.INTRA.REPUL>
0

>  <SCORE.INTRA.REPUL.0>
0

>  <SCORE.INTRA.SOLV>
-0.10467

>  <SCORE.INTRA.SOLV.lig_0>
-70.9803

>  <SCORE.INTRA.VDW>
-0.572007

>  <SCORE.INTRA.VDW.0>
-0.709409

>  <SCORE.INTRA.norm>
-0.0162773

>  <SCORE.RESTR>
0

>  <SCORE.RESTR.CAVITY>
0

>  <SCORE.RESTR.norm>
0

>  <SCORE.SYSTEM>
0

>  <SCORE.SYSTEM.CONST>
0

>  <SCORE.SYSTEM.DIHEDRAL>
0

>  <SCORE.SYSTEM.SOLV>
0

>  <SCORE.SYSTEM.norm>
0

>  <SCORE.heavy>
25

>  <SCORE.norm>
-0.462045

>  <RMSD>
4.086

$$$$
ligand
 OpenBabel11021811503D
libRbt.so/2013.1/901 2013/11/27
 25 27  0  0  0  0  0  0  0  0999 V2000
    9.4504  -24.6216   22.9803 N   0  0  0  0  0  0  0  0  0  0  0  0
    8.9584  -23.2949   23.1879 C   0  0  0  0  0  0  0  0  0  0  0  0
    9.5660  -22.3260   22.7494 O   0  0  0  0  0  0  0  0  0  0  0  0
    5.3225  -17.3240   21.8790 N   0  0  0  0  0  0  0  0  0  0  0  0
    4.1447  -17.8722   23.8982 N   0  0  0  0  0  0  0  0  0  0  0  0
    4.5250  -18.2232   22.6480 C   0  0  0  0  0  0  0  0  0  0  0  0
    4.1495  -19.4202   22.1052 N   0  0  0  0  0  0  0  0  0  0  0  0
    3.3867  -20.3125   22.7867 C   0  0  0  0  0  0  0  0  0  0  0  0
    2.9803  -19.9886   24.1033 C   0  0  0  0  0  0  0  0  0  0  0  0
    3.0511  -21.5059   22.1917 O   0  0  0  0  0  0  0  0  0  0  0  0
    1.0414  -21.6104   24.4333 C   0  0  0  0  0  0  0  0  0  0  0  0
    2.1440  -20.8310   24.9427 N   0  0  0  0  0  0  0  0  0  0  0  0
   -0.1332  -21.3353   24.6537 O   0  0  0  0  0  0  0  0  0  0  0  0
    2.4139  -20.7536   26.3149 C   0  0  2  0  0  0  0  0  0  0  0  0
    2.2706  -19.2847   26.7897 C   0  0  0  0  0  0  0  0  0  0  0  0
    3.3695  -18.7222   24.6432 C   0  0  0  0  0  0  0  0  0  0  0  0
    2.9712  -18.3510   26.0038 N   0  0  0  0  0  0  0  0  0  0  0  0
    3.8027  -21.2763   26.6219 C   0  0  0  0  0  0  0  0  0  0  0  0
    4.1345  -22.5837   26.1273 N   0  0  0  0  0  0  0  0  0  0  0  0
    7.6820  -23.1125   23.9338 C   0  0  0  0  0  0  0  0  0  0  0  0
    6.4643  -23.4420   23.3546 C   0  0  0  0  0  0  0  0  0  0  0  0
    5.2913  -23.2608   24.0772 C   0  0  0  0  0  0  0  0  0  0  0  0
    5.3383  -22.7642   25.3783 C   0  0  0  0  0  0  0  0  0  0  0  0
    6.5556  -22.4472   25.9554 C   0  0  0  0  0  0  0  0  0  0  0  0
    7.7280  -22.6178   25.2291 C   0  0  0  0  0  0  0  0  0  0  0  0
  1  2  1  0  0  0  0
  2  3  2  0  0  0  0
  2 20  1  0  0  0  0
  4  6  1  0  0  0  0
  5  6  2  0  0  0  0
  5 16  1  0  0  0  0
  6  7  1  0  0  0  0
  7  8  1  0  0  0  0
  8  9  1  0  0  0  0
  8 10  2  0  0  0  0
  9 12  1  0  0  0  0
  9 16  2  0  0  0  0
 11 13  1  0  0  0  0
 11 12  1  0  0  0  0
 12 14  1  0  0  0  0
 14 15  1  0  0  0  0
 14 18  1  6  0  0  0
 15 17  1  0  0  0  0
 16 17  1  0  0  0  0
 18 19  1  0  0  0  0
 19 23  1  0  0  0  0
 20 21  2  0  0  0  0
 20 25  1  0  0  0  0
 21 22  1  0  0  0  0
 22 23  2  0  0  0  0
 23 24  1  0  0  0  0
 24 25  2  0  0  0  0
M  END
>  <CHROM.1>
-108.71153890,-52.59037366,128.78819674,-121.25731596,-72.50183985,4.59587421
-21.06650507,24.26506849,0.31576122,-0.43842669,2.56750160

>  <Name>
ligand

>  <RI>
0

>  <Rbt.Current_Directory>
/home/itssahil/PROJECTS/Mol_Feturizer/New_Systems/rnas/4LVV

>  <Rbt.Executable>
rbdock ($Id: //depot/dev/client3/rdock/2013.1/src/exe/rbdock.cxx#4 $)

>  <Rbt.Library>
libRbt.so (2013.1, Build901 2013/11/27)

>  <Rbt.Parameter_File>
/export/apps/rDock/src/rDock_2013.1_src/data/scripts/dock_solv.prm

>  <Rbt.Receptor>
prm/pocket_docking_4.prm

>  <SCORE>
-13.7101

>  <SCORE.INTER>
-12.095

>  <SCORE.INTER.CONST>
1

>  <SCORE.INTER.POLAR>
0

>  <SCORE.INTER.ROT>
5

>  <SCORE.INTER.SOLV>
16.0494

>  <SCORE.INTER.VDW>
-20.3464

>  <SCORE.INTER.norm>
-0.4838

>  <SCORE.INTRA>
-1.61509

>  <SCORE.INTRA.DIHEDRAL>
0.55722

>  <SCORE.INTRA.DIHEDRAL.0>
3.94806

>  <SCORE.INTRA.POLAR>
0

>  <SCORE.INTRA.POLAR.0>
0

>  <SCORE.INTRA.REPUL>
0

>  <SCORE.INTRA.REPUL.0>
0

>  <SCORE.INTRA.SOLV>
0.108708

>  <SCORE.INTRA.SOLV.lig_0>
-70.9803

>  <SCORE.INTRA.VDW>
-1.94805

>  <SCORE.INTRA.VDW.0>
-0.709409

>  <SCORE.INTRA.norm>
-0.0646035

>  <SCORE.RESTR>
0

>  <SCORE.RESTR.CAVITY>
0

>  <SCORE.RESTR.norm>
0

>  <SCORE.SYSTEM>
0

>  <SCORE.SYSTEM.CONST>
0

>  <SCORE.SYSTEM.DIHEDRAL>
0

>  <SCORE.SYSTEM.SOLV>
0

>  <SCORE.SYSTEM.norm>
0

>  <SCORE.heavy>
25

>  <SCORE.norm>
-0.548403

>  <RMSD>
4.089

$$$$
ligand
 OpenBabel11021811503D
libRbt.so/2013.1/901 2013/11/27
 25 27  0  0  0  0  0  0  0  0999 V2000
   10.1860  -22.9942   23.5150 N   0  0  0  0  0  0  0  0  0  0  0  0
    8.9448  -23.4919   23.0078 C   0  0  0  0  0  0  0  0  0  0  0  0
    8.9041  -24.1180   21.9559 O   0  0  0  0  0  0  0  0  0  0  0  0
    5.7301  -17.4009   21.9154 N   0  0  0  0  0  0  0  0  0  0  0  0
    4.5952  -17.8647   23.9799 N   0  0  0  0  0  0  0  0  0  0  0  0
    4.8837  -18.2309   22.7097 C   0  0  0  0  0  0  0  0  0  0  0  0
    4.3700  -19.3773   22.1710 N   0  0  0  0  0  0  0  0  0  0  0  0
    3.5550  -20.2024   22.8763 C   0  0  0  0  0  0  0  0  0  0  0  0
    3.2407  -19.8617   24.2137 C   0  0  0  0  0  0  0  0  0  0  0  0
    3.0789  -21.3483   22.2835 O   0  0  0  0  0  0  0  0  0  0  0  0
    1.1699  -21.2935   24.6132 C   0  0  0  0  0  0  0  0  0  0  0  0
    2.3646  -20.6325   25.0807 N   0  0  0  0  0  0  0  0  0  0  0  0
    1.1878  -22.3447   23.9819 O   0  0  0  0  0  0  0  0  0  0  0  0
    2.7013  -20.6034   26.4399 C   0  0  2  0  0  0  0  0  0  0  0  0
    2.7227  -19.1352   26.9376 C   0  0  0  0  0  0  0  0  0  0  0  0
    3.7749  -18.6475   24.7498 C   0  0  0  0  0  0  0  0  0  0  0  0
    3.4752  -18.2612   26.1313 N   0  0  0  0  0  0  0  0  0  0  0  0
    4.0449  -21.2625   26.6772 C   0  0  0  0  0  0  0  0  0  0  0  0
    4.2509  -22.5584   26.0920 N   0  0  0  0  0  0  0  0  0  0  0  0
    7.7017  -23.2497   23.7918 C   0  0  0  0  0  0  0  0  0  0  0  0
    6.4513  -23.4838   23.2364 C   0  0  0  0  0  0  0  0  0  0  0  0
    5.3106  -23.2488   23.9944 C   0  0  0  0  0  0  0  0  0  0  0  0
    5.4217  -22.7939   25.3069 C   0  0  0  0  0  0  0  0  0  0  0  0
    6.6709  -22.5722   25.8599 C   0  0  0  0  0  0  0  0  0  0  0  0
    7.8115  -22.7965   25.0985 C   0  0  0  0  0  0  0  0  0  0  0  0
  1  2  1  0  0  0  0
  2  3  2  0  0  0  0
  2 20  1  0  0  0  0
  4  6  1  0  0  0  0
  5  6  2  0  0  0  0
  5 16  1  0  0  0  0
  6  7  1  0  0  0  0
  7  8  1  0  0  0  0
  8  9  1  0  0  0  0
  8 10  2  0  0  0  0
  9 12  1  0  0  0  0
  9 16  2  0  0  0  0
 11 13  1  0  0  0  0
 11 12  1  0  0  0  0
 12 14  1  0  0  0  0
 14 15  1  0  0  0  0
 14 18  1  6  0  0  0
 15 17  1  0  0  0  0
 16 17  1  0  0  0  0
 18 19  1  0  0  0  0
 19 23  1  0  0  0  0
 20 21  2  0  0  0  0
 20 25  1  0  0  0  0
 21 22  1  0  0  0  0
 22 23  2  0  0  0  0
 23 24  1  0  0  0  0
 24 25  2  0  0  0  0
M  END
>  <CHROM.1>
76.65285201,-49.35522734,129.04181282,-123.84033290,167.81129790,4.83990206
-21.10107382,24.24370332,-0.38009388,0.49522691,-0.49634446

>  <Name>
ligand

>  <RI>
0

>  <Rbt.Current_Directory>
/home/itssahil/PROJECTS/Mol_Feturizer/New_Systems/rnas/4LVV

>  <Rbt.Executable>
rbdock ($Id: //depot/dev/client3/rdock/2013.1/src/exe/rbdock.cxx#4 $)

>  <Rbt.Library>
libRbt.so (2013.1, Build901 2013/11/27)

>  <Rbt.Parameter_File>
/export/apps/rDock/src/rDock_2013.1_src/data/scripts/dock_solv.prm

>  <Rbt.Receptor>
prm/pocket_docking_4.prm

>  <SCORE>
-10.8696

>  <SCORE.INTER>
-9.98504

>  <SCORE.INTER.CONST>
1

>  <SCORE.INTER.POLAR>
0

>  <SCORE.INTER.ROT>
5

>  <SCORE.INTER.SOLV>
13.7953

>  <SCORE.INTER.VDW>
-18.1885

>  <SCORE.INTER.norm>
-0.399401

>  <SCORE.INTRA>
-0.884516

>  <SCORE.INTRA.DIHEDRAL>
0.940956

>  <SCORE.INTRA.DIHEDRAL.0>
3.94806

>  <SCORE.INTRA.POLAR>
0

>  <SCORE.INTRA.POLAR.0>
0

>  <SCORE.INTRA.REPUL>
0

>  <SCORE.INTRA.REPUL.0>
0

>  <SCORE.INTRA.SOLV>
0.844909

>  <SCORE.INTRA.SOLV.lig_0>
-70.9803

>  <SCORE.INTRA.VDW>
-1.77745

>  <SCORE.INTRA.VDW.0>
-0.709409

>  <SCORE.INTRA.norm>
-0.0353806

>  <SCORE.RESTR>
0

>  <SCORE.RESTR.CAVITY>
0

>  <SCORE.RESTR.norm>
0

>  <SCORE.SYSTEM>
0

>  <SCORE.SYSTEM.CONST>
0

>  <SCORE.SYSTEM.DIHEDRAL>
0

>  <SCORE.SYSTEM.SOLV>
0

>  <SCORE.SYSTEM.norm>
0

>  <SCORE.heavy>
25

>  <SCORE.norm>
-0.434782

>  <RMSD>
4.094

$$$$
ligand
 OpenBabel11021811503D
libRbt.so/2013.1/901 2013/11/27
 25 27  0  0  0  0  0  0  0  0999 V2000
    9.2166  -22.4132   22.1382 N   0  0  0  0  0  0  0  0  0  0  0  0
    8.8934  -23.3663   23.1544 C   0  0  0  0  0  0  0  0  0  0  0  0
    9.6223  -24.3276   23.3658 O   0  0  0  0  0  0  0  0  0  0  0  0
    5.2930  -17.3194   21.8821 N   0  0  0  0  0  0  0  0  0  0  0  0
    4.1107  -17.8727   23.8973 N   0  0  0  0  0  0  0  0  0  0  0  0
    4.5002  -18.2238   22.6500 C   0  0  0  0  0  0  0  0  0  0  0  0
    4.1387  -19.4259   22.1090 N   0  0  0  0  0  0  0  0  0  0  0  0
    3.3810  -20.3233   22.7895 C   0  0  0  0  0  0  0  0  0  0  0  0
    2.9652  -19.9993   24.1032 C   0  0  0  0  0  0  0  0  0  0  0  0
    3.0595  -21.5216   22.1965 O   0  0  0  0  0  0  0  0  0  0  0  0
    1.0400  -21.6383   24.4287 C   0  0  0  0  0  0  0  0  0  0  0  0
    2.1329  -20.8471   24.9411 N   0  0  0  0  0  0  0  0  0  0  0  0
   -0.1363  -21.4015   24.6818 O   0  0  0  0  0  0  0  0  0  0  0  0
    2.3953  -20.7631   26.3143 C   0  0  2  0  0  0  0  0  0  0  0  0
    2.2360  -19.2942   26.7840 C   0  0  0  0  0  0  0  0  0  0  0  0
    3.3399  -18.7277   24.6412 C   0  0  0  0  0  0  0  0  0  0  0  0
    2.9316  -18.3563   25.9987 N   0  0  0  0  0  0  0  0  0  0  0  0
    3.7875  -21.2717   26.6296 C   0  0  0  0  0  0  0  0  0  0  0  0
    4.1241  -22.5891   26.1652 N   0  0  0  0  0  0  0  0  0  0  0  0
    7.6609  -23.1596   23.9648 C   0  0  0  0  0  0  0  0  0  0  0  0
    7.7330  -22.6605   25.2580 C   0  0  0  0  0  0  0  0  0  0  0  0
    6.5645  -22.4783   25.9877 C   0  0  0  0  0  0  0  0  0  0  0  0
    5.3285  -22.7823   25.4205 C   0  0  0  0  0  0  0  0  0  0  0  0
    5.2608  -23.2696   24.1269 C   0  0  0  0  0  0  0  0  0  0  0  0
    6.4300  -23.4624   23.4009 C   0  0  0  0  0  0  0  0  0  0  0  0
  1  2  1  0  0  0  0
  2  3  2  0  0  0  0
  2 20  1  0  0  0  0
  4  6  1  0  0  0  0
  5  6  2  0  0  0  0
  5 16  1  0  0  0  0
  6  7  1  0  0  0  0
  7  8  1  0  0  0  0
  8  9  1  0  0  0  0
  8 10  2  0  0  0  0
  9 12  1  0  0  0  0
  9 16  2  0  0  0  0
 11 13  1  0  0  0  0
 11 12  1  0  0  0  0
 12 14  1  0  0  0  0
 14 15  1  0  0  0  0
 14 18  1  6  0  0  0
 15 17  1  0  0  0  0
 16 17  1  0  0  0  0
 18 19  1  0  0  0  0
 19 23  1  0  0  0  0
 20 21  2  0  0  0  0
 20 25  1  0  0  0  0
 21 22  1  0  0  0  0
 22 23  2  0  0  0  0
 23 24  1  0  0  0  0
 24 25  2  0  0  0  0
M  END
>  <CHROM.1>
-111.39619337,-53.89276675,128.96515487,60.38998178,-102.54930166,4.57242680
-21.08629816,24.26945777,-0.30726404,0.45306694,-0.60949698

>  <Name>
ligand

>  <RI>
0

>  <Rbt.Current_Directory>
/home/itssahil/PROJECTS/Mol_Feturizer/New_Systems/rnas/4LVV

>  <Rbt.Executable>
rbdock ($Id: //depot/dev/client3/rdock/2013.1/src/exe/rbdock.cxx#4 $)

>  <Rbt.Library>
libRbt.so (2013.1, Build901 2013/11/27)

>  <Rbt.Parameter_File>
/export/apps/rDock/src/rDock_2013.1_src/data/scripts/dock_solv.prm

>  <Rbt.Receptor>
prm/pocket_docking_4.prm

>  <SCORE>
-13.8577

>  <SCORE.INTER>
-12.1965

>  <SCORE.INTER.CONST>
1

>  <SCORE.INTER.POLAR>
0

>  <SCORE.INTER.ROT>
5

>  <SCORE.INTER.SOLV>
15.5273

>  <SCORE.INTER.VDW>
-20.2401

>  <SCORE.INTER.norm>
-0.487858

>  <SCORE.INTRA>
-1.6612

>  <SCORE.INTRA.DIHEDRAL>
0.510397

>  <SCORE.INTRA.DIHEDRAL.0>
3.94806

>  <SCORE.INTRA.POLAR>
0

>  <SCORE.INTRA.POLAR.0>
0

>  <SCORE.INTRA.REPUL>
0

>  <SCORE.INTRA.REPUL.0>
0

>  <SCORE.INTRA.SOLV>
0.0694819

>  <SCORE.INTRA.SOLV.lig_0>
-70.9803

>  <SCORE.INTRA.VDW>
-1.95114

>  <SCORE.INTRA.VDW.0>
-0.709409

>  <SCORE.INTRA.norm>
-0.0664478

>  <SCORE.RESTR>
0

>  <SCORE.RESTR.CAVITY>
0

>  <SCORE.RESTR.norm>
0

>  <SCORE.SYSTEM>
0

>  <SCORE.SYSTEM.CONST>
0

>  <SCORE.SYSTEM.DIHEDRAL>
0

>  <SCORE.SYSTEM.SOLV>
0

>  <SCORE.SYSTEM.norm>
0

>  <SCORE.heavy>
25

>  <SCORE.norm>
-0.554306

>  <RMSD>
4.101

$$$$
ligand
 OpenBabel11021811503D
libRbt.so/2013.1/901 2013/11/27
 25 27  0  0  0  0  0  0  0  0999 V2000
    9.1680  -22.5090   22.0163 N   0  0  0  0  0  0  0  0  0  0  0  0
    8.8239  -23.4554   23.0319 C   0  0  0  0  0  0  0  0  0  0  0  0
    9.5066  -24.4560   23.2126 O   0  0  0  0  0  0  0  0  0  0  0  0
    5.0804  -17.4947   21.4803 N   0  0  0  0  0  0  0  0  0  0  0  0
    4.0084  -17.9152   23.5873 N   0  0  0  0  0  0  0  0  0  0  0  0
    4.3384  -18.3496   22.3490 C   0  0  0  0  0  0  0  0  0  0  0  0
    3.9644  -19.5897   21.9124 N   0  0  0  0  0  0  0  0  0  0  0  0
    3.2530  -20.4435   22.6917 C   0  0  0  0  0  0  0  0  0  0  0  0
    2.9004  -20.0318   23.9993 C   0  0  0  0  0  0  0  0  0  0  0  0
    2.9162  -21.6831   22.2008 O   0  0  0  0  0  0  0  0  0  0  0  0
    1.0141  -21.6600   24.5366 C   0  0  0  0  0  0  0  0  0  0  0  0
    2.1219  -20.8256   24.9358 N   0  0  0  0  0  0  0  0  0  0  0  0
   -0.1543  -21.3943   24.7975 O   0  0  0  0  0  0  0  0  0  0  0  0
    2.4526  -20.6434   26.2846 C   0  0  2  0  0  0  0  0  0  0  0  0
    2.2997  -19.1466   26.6585 C   0  0  0  0  0  0  0  0  0  0  0  0
    3.2867  -18.7225   24.4275 C   0  0  0  0  0  0  0  0  0  0  0  0
    2.9433  -18.2602   25.7751 N   0  0  0  0  0  0  0  0  0  0  0  0
    3.8650  -21.1169   26.5625 C   0  0  0  0  0  0  0  0  0  0  0  0
    4.1893  -22.4653   26.1873 N   0  0  0  0  0  0  0  0  0  0  0  0
    7.6274  -23.1935   23.8795 C   0  0  0  0  0  0  0  0  0  0  0  0
    7.7612  -22.6888   25.1657 C   0  0  0  0  0  0  0  0  0  0  0  0
    6.6251  -22.4546   25.9309 C   0  0  0  0  0  0  0  0  0  0  0  0
    5.3603  -22.7123   25.4060 C   0  0  0  0  0  0  0  0  0  0  0  0
    5.2313  -23.2052   24.1192 C   0  0  0  0  0  0  0  0  0  0  0  0
    6.3678  -23.4501   23.3578 C   0  0  0  0  0  0  0  0  0  0  0  0
  1  2  1  0  0  0  0
  2  3  2  0  0  0  0
  2 20  1  0  0  0  0
  4  6  1  0  0  0  0
  5  6  2  0  0  0  0
  5 16  1  0  0  0  0
  6  7  1  0  0  0  0
  7  8  1  0  0  0  0
  8  9  1  0  0  0  0
  8 10  2  0  0  0  0
  9 12  1  0  0  0  0
  9 16  2  0  0  0  0
 11 13  1  0  0  0  0
 11 12  1  0  0  0  0
 12 14  1  0  0  0  0
 14 15  1  0  0  0  0
 14 18  1  6  0  0  0
 15 17  1  0  0  0  0
 16 17  1  0  0  0  0
 18 19  1  0  0  0  0
 19 23  1  0  0  0  0
 20 21  2  0  0  0  0
 20 25  1  0  0  0  0
 21 22  1  0  0  0  0
 22 23  2  0  0  0  0
 23 24  1  0  0  0  0
 24 25  2  0  0  0  0
M  END
>  <CHROM.1>
-109.07714945,-54.53898981,129.55575509,65.25159691,-101.27615807,4.52901826
-21.10245815,24.17011101,-0.27583953,0.48631529,-0.70455015

>  <Name>
ligand

>  <RI>
0

>  <Rbt.Current_Directory>
/home/itssahil/PROJECTS/Mol_Feturizer/New_Systems/rnas/4LVV

>  <Rbt.Executable>
rbdock ($Id: //depot/dev/client3/rdock/2013.1/src/exe/rbdock.cxx#4 $)

>  <Rbt.Library>
libRbt.so (2013.1, Build901 2013/11/27)

>  <Rbt.Parameter_File>
/export/apps/rDock/src/rDock_2013.1_src/data/scripts/dock_solv.prm

>  <Rbt.Receptor>
prm/pocket_docking_4.prm

>  <SCORE>
-13.9939

>  <SCORE.INTER>
-12.2657

>  <SCORE.INTER.CONST>
1

>  <SCORE.INTER.POLAR>
0

>  <SCORE.INTER.ROT>
5

>  <SCORE.INTER.SOLV>
15.4618

>  <SCORE.INTER.VDW>
-20.2644

>  <SCORE.INTER.norm>
-0.490627

>  <SCORE.INTRA>
-1.72955

>  <SCORE.INTRA.DIHEDRAL>
0.454367

>  <SCORE.INTRA.DIHEDRAL.0>
3.94806

>  <SCORE.INTRA.POLAR>
0

>  <SCORE.INTRA.POLAR.0>
0

>  <SCORE.INTRA.REPUL>
0

>  <SCORE.INTRA.REPUL.0>
0

>  <SCORE.INTRA.SOLV>
0.0577701

>  <SCORE.INTRA.SOLV.lig_0>
-70.9803

>  <SCORE.INTRA.VDW>
-1.98562

>  <SCORE.INTRA.VDW.0>
-0.709409

>  <SCORE.INTRA.norm>
-0.0691821

>  <SCORE.RESTR>
0.00129729

>  <SCORE.RESTR.CAVITY>
0.00129729

>  <SCORE.RESTR.norm>
5.18916e-05

>  <SCORE.SYSTEM>
0

>  <SCORE.SYSTEM.CONST>
0

>  <SCORE.SYSTEM.DIHEDRAL>
0

>  <SCORE.SYSTEM.SOLV>
0

>  <SCORE.SYSTEM.norm>
0

>  <SCORE.heavy>
25

>  <SCORE.norm>
-0.559757

>  <RMSD>
4.107

$$$$
ligand
 OpenBabel11021811503D
libRbt.so/2013.1/901 2013/11/27
 25 27  0  0  0  0  0  0  0  0999 V2000
    9.1993  -22.2626   22.1760 N   0  0  0  0  0  0  0  0  0  0  0  0
    8.8539  -23.2972   23.1010 C   0  0  0  0  0  0  0  0  0  0  0  0
    9.5648  -24.2864   23.2282 O   0  0  0  0  0  0  0  0  0  0  0  0
    5.5000  -17.0404   22.4209 N   0  0  0  0  0  0  0  0  0  0  0  0
    4.1945  -17.7800   24.2954 N   0  0  0  0  0  0  0  0  0  0  0  0
    4.6915  -18.0264   23.0613 C   0  0  0  0  0  0  0  0  0  0  0  0
    4.4238  -19.1997   22.4131 N   0  0  0  0  0  0  0  0  0  0  0  0
    3.6565  -20.1713   22.9698 C   0  0  0  0  0  0  0  0  0  0  0  0
    3.1296  -19.9576   24.2660 C   0  0  0  0  0  0  0  0  0  0  0  0
    3.4324  -21.3356   22.2732 O   0  0  0  0  0  0  0  0  0  0  0  0
    1.2579  -21.6871   24.3281 C   0  0  0  0  0  0  0  0  0  0  0  0
    2.2740  -20.8937   24.9768 N   0  0  0  0  0  0  0  0  0  0  0  0
    0.0643  -21.5971   24.5947 O   0  0  0  0  0  0  0  0  0  0  0  0
    2.4287  -20.8979   26.3689 C   0  0  2  0  0  0  0  0  0  0  0  0
    2.1713  -19.4733   26.9236 C   0  0  0  0  0  0  0  0  0  0  0  0
    3.4077  -18.7144   24.9169 C   0  0  0  0  0  0  0  0  0  0  0  0
    2.8829  -18.4562   26.2607 N   0  0  0  0  0  0  0  0  0  0  0  0
    3.8139  -21.3748   26.7563 C   0  0  0  0  0  0  0  0  0  0  0  0
    4.1990  -22.6892   26.3226 N   0  0  0  0  0  0  0  0  0  0  0  0
    7.6205  -23.1423   23.9216 C   0  0  0  0  0  0  0  0  0  0  0  0
    6.3786  -23.5039   23.4178 C   0  0  0  0  0  0  0  0  0  0  0  0
    5.2470  -23.3478   24.2089 C   0  0  0  0  0  0  0  0  0  0  0  0
    5.3598  -22.8440   25.5032 C   0  0  0  0  0  0  0  0  0  0  0  0
    6.6014  -22.4949   26.0051 C   0  0  0  0  0  0  0  0  0  0  0  0
    7.7320  -22.6405   25.2102 C   0  0  0  0  0  0  0  0  0  0  0  0
  1  2  1  0  0  0  0
  2  3  2  0  0  0  0
  2 20  1  0  0  0  0
  4  6  1  0  0  0  0
  5  6  2  0  0  0  0
  5 16  1  0  0  0  0
  6  7  1  0  0  0  0
  7  8  1  0  0  0  0
  8  9  1  0  0  0  0
  8 10  2  0  0  0  0
  9 12  1  0  0  0  0
  9 16  2  0  0  0  0
 11 13  1  0  0  0  0
 11 12  1  0  0  0  0
 12 14  1  0  0  0  0
 14 15  1  0  0  0  0
 14 18  1  6  0  0  0
 15 17  1  0  0  0  0
 16 17  1  0  0  0  0
 18 19  1  0  0  0  0
 19 23  1  0  0  0  0
 20 21  2  0  0  0  0
 20 25  1  0  0  0  0
 21 22  1  0  0  0  0
 22 23  2  0  0  0  0
 23 24  1  0  0  0  0
 24 25  2  0  0  0  0
M  END
>  <CHROM.1>
-118.28656609,-58.87912328,121.60824567,-117.01930059,84.09562888,4.65894415
-21.07160990,24.38343467,-0.35238184,0.45117376,-0.47133458

>  <Name>
ligand

>  <RI>
0

>  <Rbt.Current_Directory>
/home/itssahil/PROJECTS/Mol_Feturizer/New_Systems/rnas/4LVV

>  <Rbt.Executable>
rbdock ($Id: //depot/dev/client3/rdock/2013.1/src/exe/rbdock.cxx#4 $)

>  <Rbt.Library>
libRbt.so (2013.1, Build901 2013/11/27)

>  <Rbt.Parameter_File>
/export/apps/rDock/src/rDock_2013.1_src/data/scripts/dock_solv.prm

>  <Rbt.Receptor>
prm/pocket_docking_3.prm

>  <SCORE>
-13.0928

>  <SCORE.INTER>
-11.3281

>  <SCORE.INTER.CONST>
1

>  <SCORE.INTER.POLAR>
0

>  <SCORE.INTER.ROT>
5

>  <SCORE.INTER.SOLV>
15.2477

>  <SCORE.INTER.VDW>
-19.568

>  <SCORE.INTER.norm>
-0.453123

>  <SCORE.INTRA>
-1.76469

>  <SCORE.INTRA.DIHEDRAL>
0.547526

>  <SCORE.INTRA.DIHEDRAL.0>
3.94806

>  <SCORE.INTRA.POLAR>
0

>  <SCORE.INTRA.POLAR.0>
0

>  <SCORE.INTRA.REPUL>
0

>  <SCORE.INTRA.REPUL.0>
0

>  <SCORE.INTRA.SOLV>
0.00865087

>  <SCORE.INTRA.SOLV.lig_0>
-70.9803

>  <SCORE.INTRA.VDW>
-2.04278

>  <SCORE.INTRA.VDW.0>
-0.709409

>  <SCORE.INTRA.norm>
-0.0705875

>  <SCORE.RESTR>
0

>  <SCORE.RESTR.CAVITY>
0

>  <SCORE.RESTR.norm>
0

>  <SCORE.SYSTEM>
0

>  <SCORE.SYSTEM.CONST>
0

>  <SCORE.SYSTEM.DIHEDRAL>
0

>  <SCORE.SYSTEM.SOLV>
0

>  <SCORE.SYSTEM.norm>
0

>  <SCORE.heavy>
25

>  <SCORE.norm>
-0.523711

>  <RMSD>
4.110

$$$$
ligand
 OpenBabel11021811503D
libRbt.so/2013.1/901 2013/11/27
 25 27  0  0  0  0  0  0  0  0999 V2000
    9.2322  -21.9990   22.6601 N   0  0  0  0  0  0  0  0  0  0  0  0
    8.5528  -23.1749   23.1085 C   0  0  0  0  0  0  0  0  0  0  0  0
    8.9299  -24.2870   22.7606 O   0  0  0  0  0  0  0  0  0  0  0  0
    5.9488  -16.1051   24.0358 N   0  0  0  0  0  0  0  0  0  0  0  0
    4.1912  -17.3079   25.1447 N   0  0  0  0  0  0  0  0  0  0  0  0
    5.1546  -17.2799   24.1950 C   0  0  0  0  0  0  0  0  0  0  0  0
    5.3733  -18.3542   23.3785 N   0  0  0  0  0  0  0  0  0  0  0  0
    4.6456  -19.4956   23.4795 C   0  0  0  0  0  0  0  0  0  0  0  0
    3.6375  -19.5697   24.4704 C   0  0  0  0  0  0  0  0  0  0  0  0
    4.9205  -20.5473   22.6374 O   0  0  0  0  0  0  0  0  0  0  0  0
    2.2349  -21.5130   23.6016 C   0  0  0  0  0  0  0  0  0  0  0  0
    2.7648  -20.7134   24.6799 N   0  0  0  0  0  0  0  0  0  0  0  0
    2.9297  -21.9680   22.6994 O   0  0  0  0  0  0  0  0  0  0  0  0
    2.3789  -20.9283   26.0090 C   0  0  2  0  0  0  0  0  0  0  0  0
    1.6730  -19.6608   26.5556 C   0  0  0  0  0  0  0  0  0  0  0  0
    3.4144  -18.4262   25.3006 C   0  0  0  0  0  0  0  0  0  0  0  0
    2.3820  -18.4645   26.3401 N   0  0  0  0  0  0  0  0  0  0  0  0
    3.5766  -21.2795   26.8685 C   0  0  0  0  0  0  0  0  0  0  0  0
    4.1590  -22.5793   26.6801 N   0  0  0  0  0  0  0  0  0  0  0  0
    7.3860  -23.0239   24.0221 C   0  0  0  0  0  0  0  0  0  0  0  0
    6.1146  -23.4157   23.6259 C   0  0  0  0  0  0  0  0  0  0  0  0
    5.0470  -23.2624   24.5020 C   0  0  0  0  0  0  0  0  0  0  0  0
    5.2534  -22.7313   25.7736 C   0  0  0  0  0  0  0  0  0  0  0  0
    6.5246  -22.3521   26.1681 C   0  0  0  0  0  0  0  0  0  0  0  0
    7.5908  -22.4949   25.2882 C   0  0  0  0  0  0  0  0  0  0  0  0
  1  2  1  0  0  0  0
  2  3  2  0  0  0  0
  2 20  1  0  0  0  0
  4  6  1  0  0  0  0
  5  6  2  0  0  0  0
  5 16  1  0  0  0  0
  6  7  1  0  0  0  0
  7  8  1  0  0  0  0
  8  9  1  0  0  0  0
  8 10  2  0  0  0  0
  9 12  1  0  0  0  0
  9 16  2  0  0  0  0
 11 13  1  0  0  0  0
 11 12  1  0  0  0  0
 12 14  1  0  0  0  0
 14 15  1  0  0  0  0
 14 18  1  1  0  0  0
 15 17  1  0  0  0  0
 16 17  1  0  0  0  0
 18 19  1  0  0  0  0
 19 23  1  0  0  0  0
 20 21  2  0  0  0  0
 20 25  1  0  0  0  0
 21 22  1  0  0  0  0
 22 23  2  0  0  0  0
 23 24  1  0  0  0  0
 24 25  2  0  0  0  0
M  END
>  <CHROM.1>
49.50054119,-71.81718623,93.46511435,-102.01629326,116.07108317,4.92678265
-20.82671939,24.52324637,-0.66742596,0.46875542,-0.16026547

>  <Name>
ligand

>  <RI>
0

>  <Rbt.Current_Directory>
/home/itssahil/PROJECTS/Mol_Feturizer/New_Systems/rnas/4LVV

>  <Rbt.Executable>
rbdock ($Id: //depot/dev/client3/rdock/2013.1/src/exe/rbdock.cxx#4 $)

>  <Rbt.Library>
libRbt.so (2013.1, Build901 2013/11/27)

>  <Rbt.Parameter_File>
/export/apps/rDock/src/rDock_2013.1_src/data/scripts/dock_solv.prm

>  <Rbt.Receptor>
prm/pocket_docking_3.prm

>  <SCORE>
-11.438

>  <SCORE.INTER>
-9.60553

>  <SCORE.INTER.CONST>
1

>  <SCORE.INTER.POLAR>
0

>  <SCORE.INTER.ROT>
5

>  <SCORE.INTER.SOLV>
15.2786

>  <SCORE.INTER.VDW>
-18.4299

>  <SCORE.INTER.norm>
-0.384221

>  <SCORE.INTRA>
-1.83244

>  <SCORE.INTRA.DIHEDRAL>
0.405221

>  <SCORE.INTRA.DIHEDRAL.0>
3.94806

>  <SCORE.INTRA.POLAR>
0

>  <SCORE.INTRA.POLAR.0>
0

>  <SCORE.INTRA.REPUL>
0

>  <SCORE.INTRA.REPUL.0>
0

>  <SCORE.INTRA.SOLV>
0.620309

>  <SCORE.INTRA.SOLV.lig_0>
-70.9803

>  <SCORE.INTRA.VDW>
-2.3452

>  <SCORE.INTRA.VDW.0>
-0.709409

>  <SCORE.INTRA.norm>
-0.0732976

>  <SCORE.RESTR>
0

>  <SCORE.RESTR.CAVITY>
0

>  <SCORE.RESTR.norm>
0

>  <SCORE.SYSTEM>
0

>  <SCORE.SYSTEM.CONST>
0

>  <SCORE.SYSTEM.DIHEDRAL>
0

>  <SCORE.SYSTEM.SOLV>
0

>  <SCORE.SYSTEM.norm>
0

>  <SCORE.heavy>
25

>  <SCORE.norm>
-0.457519

>  <RMSD>
4.117

$$$$
ligand
 OpenBabel11021811503D
libRbt.so/2013.1/901 2013/11/27
 25 27  0  0  0  0  0  0  0  0999 V2000
    9.3766  -24.7440   22.9510 N   0  0  0  0  0  0  0  0  0  0  0  0
    8.8865  -23.4054   23.0663 C   0  0  0  0  0  0  0  0  0  0  0  0
    9.4738  -22.4751   22.5280 O   0  0  0  0  0  0  0  0  0  0  0  0
    5.2660  -17.5479   21.4617 N   0  0  0  0  0  0  0  0  0  0  0  0
    4.1352  -17.9402   23.5432 N   0  0  0  0  0  0  0  0  0  0  0  0
    4.4845  -18.3843   22.3138 C   0  0  0  0  0  0  0  0  0  0  0  0
    4.0930  -19.6164   21.8700 N   0  0  0  0  0  0  0  0  0  0  0  0
    3.3442  -20.4525   22.6334 C   0  0  0  0  0  0  0  0  0  0  0  0
    2.9702  -20.0304   23.9317 C   0  0  0  0  0  0  0  0  0  0  0  0
    2.9912  -21.6851   22.1364 O   0  0  0  0  0  0  0  0  0  0  0  0
    1.0353  -21.6147   24.4264 C   0  0  0  0  0  0  0  0  0  0  0  0
    2.1519  -20.8048   24.8506 N   0  0  0  0  0  0  0  0  0  0  0  0
   -0.1326  -21.3225   24.6598 O   0  0  0  0  0  0  0  0  0  0  0  0
    2.4547  -20.6275   26.2066 C   0  0  2  0  0  0  0  0  0  0  0  0
    2.3268  -19.1269   26.5747 C   0  0  0  0  0  0  0  0  0  0  0  0
    3.3757  -18.7294   24.3672 C   0  0  0  0  0  0  0  0  0  0  0  0
    3.0110  -18.2569   25.7056 N   0  0  0  0  0  0  0  0  0  0  0  0
    3.8490  -21.1322   26.5185 C   0  0  0  0  0  0  0  0  0  0  0  0
    4.1666  -22.4727   26.1107 N   0  0  0  0  0  0  0  0  0  0  0  0
    7.6367  -23.1639   23.8398 C   0  0  0  0  0  0  0  0  0  0  0  0
    6.3918  -23.4184   23.2811 C   0  0  0  0  0  0  0  0  0  0  0  0
    5.2447  -23.1835   24.0293 C   0  0  0  0  0  0  0  0  0  0  0  0
    5.3440  -22.7082   25.3355 C   0  0  0  0  0  0  0  0  0  0  0  0
    6.5878  -22.4662   25.8920 C   0  0  0  0  0  0  0  0  0  0  0  0
    7.7348  -22.6905   25.1402 C   0  0  0  0  0  0  0  0  0  0  0  0
  1  2  1  0  0  0  0
  2  3  2  0  0  0  0
  2 20  1  0  0  0  0
  4  6  1  0  0  0  0
  5  6  2  0  0  0  0
  5 16  1  0  0  0  0
  6  7  1  0  0  0  0
  7  8  1  0  0  0  0
  8  9  1  0  0  0  0
  8 10  2  0  0  0  0
  9 12  1  0  0  0  0
  9 16  2  0  0  0  0
 11 13  1  0  0  0  0
 11 12  1  0  0  0  0
 12 14  1  0  0  0  0
 14 15  1  0  0  0  0
 14 18  1  6  0  0  0
 15 17  1  0  0  0  0
 16 17  1  0  0  0  0
 18 19  1  0  0  0  0
 19 23  1  0  0  0  0
 20 21  2  0  0  0  0
 20 25  1  0  0  0  0
 21 22  1  0  0  0  0
 22 23  2  0  0  0  0
 23 24  1  0  0  0  0
 24 25  2  0  0  0  0
M  END
>  <CHROM.1>
-109.12033604,-52.40980317,128.02499972,-115.24559715,-78.97266622,4.57931164
-21.09624930,24.12059714,0.29218860,-0.46768471,2.47993553

>  <Name>
ligand

>  <RI>
0

>  <Rbt.Current_Directory>
/home/itssahil/PROJECTS/Mol_Feturizer/New_Systems/rnas/4LVV

>  <Rbt.Executable>
rbdock ($Id: //depot/dev/client3/rdock/2013.1/src/exe/rbdock.cxx#4 $)

>  <Rbt.Library>
libRbt.so (2013.1, Build901 2013/11/27)

>  <Rbt.Parameter_File>
/export/apps/rDock/src/rDock_2013.1_src/data/scripts/dock_solv.prm

>  <Rbt.Receptor>
prm/pocket_docking_5.prm

>  <SCORE>
-13.8234

>  <SCORE.INTER>
-12.1202

>  <SCORE.INTER.CONST>
1

>  <SCORE.INTER.POLAR>
0

>  <SCORE.INTER.ROT>
5

>  <SCORE.INTER.SOLV>
15.9269

>  <SCORE.INTER.VDW>
-20.3224

>  <SCORE.INTER.norm>
-0.484808

>  <SCORE.INTRA>
-1.70316

>  <SCORE.INTRA.DIHEDRAL>
0.575128

>  <SCORE.INTRA.DIHEDRAL.0>
3.94806

>  <SCORE.INTRA.POLAR>
0

>  <SCORE.INTRA.POLAR.0>
0

>  <SCORE.INTRA.REPUL>
0

>  <SCORE.INTRA.REPUL.0>
0

>  <SCORE.INTRA.SOLV>
0.130634

>  <SCORE.INTRA.SOLV.lig_0>
-70.9803

>  <SCORE.INTRA.VDW>
-2.05604

>  <SCORE.INTRA.VDW.0>
-0.709409

>  <SCORE.INTRA.norm>
-0.0681263

>  <SCORE.RESTR>
0

>  <SCORE.RESTR.CAVITY>
0

>  <SCORE.RESTR.norm>
0

>  <SCORE.SYSTEM>
0

>  <SCORE.SYSTEM.CONST>
0

>  <SCORE.SYSTEM.DIHEDRAL>
0

>  <SCORE.SYSTEM.SOLV>
0

>  <SCORE.SYSTEM.norm>
0

>  <SCORE.heavy>
25

>  <SCORE.norm>
-0.552934

>  <RMSD>
4.119

$$$$
ligand
 OpenBabel11021811503D
libRbt.so/2013.1/901 2013/11/27
 25 27  0  0  0  0  0  0  0  0999 V2000
    9.4018  -22.3984   22.2701 N   0  0  0  0  0  0  0  0  0  0  0  0
    8.8210  -23.4656   23.0245 C   0  0  0  0  0  0  0  0  0  0  0  0
    9.3307  -24.5793   23.0286 O   0  0  0  0  0  0  0  0  0  0  0  0
    5.1978  -17.5804   21.3533 N   0  0  0  0  0  0  0  0  0  0  0  0
    4.0868  -17.9376   23.4517 N   0  0  0  0  0  0  0  0  0  0  0  0
    4.4329  -18.4061   22.2304 C   0  0  0  0  0  0  0  0  0  0  0  0
    4.0536  -19.6530   21.8185 N   0  0  0  0  0  0  0  0  0  0  0  0
    3.3208  -20.4801   22.6067 C   0  0  0  0  0  0  0  0  0  0  0  0
    2.9508  -20.0323   23.8975 C   0  0  0  0  0  0  0  0  0  0  0  0
    2.9797  -21.7283   22.1413 O   0  0  0  0  0  0  0  0  0  0  0  0
    1.0394  -21.6283   24.4434 C   0  0  0  0  0  0  0  0  0  0  0  0
    2.1488  -20.7949   24.8403 N   0  0  0  0  0  0  0  0  0  0  0  0
   -0.1146  -21.4270   24.8062 O   0  0  0  0  0  0  0  0  0  0  0  0
    2.4589  -20.5821   26.1895 C   0  0  2  0  0  0  0  0  0  0  0  0
    2.3149  -19.0751   26.5234 C   0  0  0  0  0  0  0  0  0  0  0  0
    3.3431  -18.7165   24.2995 C   0  0  0  0  0  0  0  0  0  0  0  0
    2.9820  -18.2174   25.6292 N   0  0  0  0  0  0  0  0  0  0  0  0
    3.8616  -21.0622   26.5028 C   0  0  0  0  0  0  0  0  0  0  0  0
    4.1823  -22.4189   26.1554 N   0  0  0  0  0  0  0  0  0  0  0  0
    7.5920  -23.1940   23.8210 C   0  0  0  0  0  0  0  0  0  0  0  0
    6.3311  -23.4169   23.2851 C   0  0  0  0  0  0  0  0  0  0  0  0
    5.2040  -23.1542   24.0543 C   0  0  0  0  0  0  0  0  0  0  0  0
    5.3390  -22.6829   25.3587 C   0  0  0  0  0  0  0  0  0  0  0  0
    6.5985  -22.4723   25.8924 C   0  0  0  0  0  0  0  0  0  0  0  0
    7.7256  -22.7243   25.1196 C   0  0  0  0  0  0  0  0  0  0  0  0
  1  2  1  0  0  0  0
  2  3  2  0  0  0  0
  2 20  1  0  0  0  0
  4  6  1  0  0  0  0
  5  6  2  0  0  0  0
  5 16  1  0  0  0  0
  6  7  1  0  0  0  0
  7  8  1  0  0  0  0
  8  9  1  0  0  0  0
  8 10  2  0  0  0  0
  9 12  1  0  0  0  0
  9 16  2  0  0  0  0
 11 13  1  0  0  0  0
 11 12  1  0  0  0  0
 12 14  1  0  0  0  0
 14 15  1  0  0  0  0
 14 18  1  6  0  0  0
 15 17  1  0  0  0  0
 16 17  1  0  0  0  0
 18 19  1  0  0  0  0
 19 23  1  0  0  0  0
 20 21  2  0  0  0  0
 20 25  1  0  0  0  0
 21 22  1  0  0  0  0
 22 23  2  0  0  0  0
 23 24  1  0  0  0  0
 24 25  2  0  0  0  0
M  END
>  <CHROM.1>
-117.63825630,-53.97492584,127.20417830,-111.55985277,92.89104454,4.55460859
-21.10196123,24.09949447,-0.28419124,0.48216444,-0.68795303

>  <Name>
ligand

>  <RI>
0

>  <Rbt.Current_Directory>
/home/itssahil/PROJECTS/Mol_Feturizer/New_Systems/rnas/4LVV

>  <Rbt.Executable>
rbdock ($Id: //depot/dev/client3/rdock/2013.1/src/exe/rbdock.cxx#4 $)

>  <Rbt.Library>
libRbt.so (2013.1, Build901 2013/11/27)

>  <Rbt.Parameter_File>
/export/apps/rDock/src/rDock_2013.1_src/data/scripts/dock_solv.prm

>  <Rbt.Receptor>
prm/pocket_docking_6.prm

>  <SCORE>
-14.0235

>  <SCORE.INTER>
-12.3058

>  <SCORE.INTER.CONST>
1

>  <SCORE.INTER.POLAR>
0

>  <SCORE.INTER.ROT>
5

>  <SCORE.INTER.SOLV>
15.2638

>  <SCORE.INTER.VDW>
-20.2251

>  <SCORE.INTER.norm>
-0.492232

>  <SCORE.INTRA>
-1.71773

>  <SCORE.INTRA.DIHEDRAL>
0.632185

>  <SCORE.INTRA.DIHEDRAL.0>
3.94806

>  <SCORE.INTRA.POLAR>
0

>  <SCORE.INTRA.POLAR.0>
0

>  <SCORE.INTRA.REPUL>
0

>  <SCORE.INTRA.REPUL.0>
0

>  <SCORE.INTRA.SOLV>
0.0956039

>  <SCORE.INTRA.SOLV.lig_0>
-70.9803

>  <SCORE.INTRA.VDW>
-2.08163

>  <SCORE.INTRA.VDW.0>
-0.709409

>  <SCORE.INTRA.norm>
-0.0687092

>  <SCORE.RESTR>
0

>  <SCORE.RESTR.CAVITY>
0

>  <SCORE.RESTR.norm>
0

>  <SCORE.SYSTEM>
0

>  <SCORE.SYSTEM.CONST>
0

>  <SCORE.SYSTEM.DIHEDRAL>
0

>  <SCORE.SYSTEM.SOLV>
0

>  <SCORE.SYSTEM.norm>
0

>  <SCORE.heavy>
25

>  <SCORE.norm>
-0.560941

>  <RMSD>
4.128

$$$$
ligand
 OpenBabel11021811503D
libRbt.so/2013.1/901 2013/11/27
 25 27  0  0  0  0  0  0  0  0999 V2000
    9.7575  -24.4445   23.4938 N   0  0  0  0  0  0  0  0  0  0  0  0
    8.8094  -23.4950   22.9989 C   0  0  0  0  0  0  0  0  0  0  0  0
    8.9857  -22.9365   21.9232 O   0  0  0  0  0  0  0  0  0  0  0  0
    5.2688  -17.5939   21.3060 N   0  0  0  0  0  0  0  0  0  0  0  0
    4.1188  -17.9412   23.3849 N   0  0  0  0  0  0  0  0  0  0  0  0
    4.4984  -18.4201   22.1777 C   0  0  0  0  0  0  0  0  0  0  0  0
    4.1477  -19.6783   21.7747 N   0  0  0  0  0  0  0  0  0  0  0  0
    3.4112  -20.5066   22.5583 C   0  0  0  0  0  0  0  0  0  0  0  0
    3.0066  -20.0478   23.8348 C   0  0  0  0  0  0  0  0  0  0  0  0
    3.0998  -21.7661   22.1026 O   0  0  0  0  0  0  0  0  0  0  0  0
    1.1092  -21.6668   24.3614 C   0  0  0  0  0  0  0  0  0  0  0  0
    2.1966  -20.8106   24.7705 N   0  0  0  0  0  0  0  0  0  0  0  0
   -0.0657  -21.4294   24.6203 O   0  0  0  0  0  0  0  0  0  0  0  0
    2.4743  -20.5751   26.1230 C   0  0  2  0  0  0  0  0  0  0  0  0
    2.2995  -19.0663   26.4333 C   0  0  0  0  0  0  0  0  0  0  0  0
    3.3694  -18.7207   24.2271 C   0  0  0  0  0  0  0  0  0  0  0  0
    2.9721  -18.2099   25.5420 N   0  0  0  0  0  0  0  0  0  0  0  0
    3.8774  -21.0285   26.4725 C   0  0  0  0  0  0  0  0  0  0  0  0
    4.2168  -22.3933   26.1785 N   0  0  0  0  0  0  0  0  0  0  0  0
    7.5921  -23.2093   23.8084 C   0  0  0  0  0  0  0  0  0  0  0  0
    6.3235  -23.4410   23.2948 C   0  0  0  0  0  0  0  0  0  0  0  0
    5.2078  -23.1649   24.0757 C   0  0  0  0  0  0  0  0  0  0  0  0
    5.3619  -22.6712   25.3697 C   0  0  0  0  0  0  0  0  0  0  0  0
    6.6289  -22.4519   25.8813 C   0  0  0  0  0  0  0  0  0  0  0  0
    7.7447  -22.7175   25.0966 C   0  0  0  0  0  0  0  0  0  0  0  0
  1  2  1  0  0  0  0
  2  3  2  0  0  0  0
  2 20  1  0  0  0  0
  4  6  1  0  0  0  0
  5  6  2  0  0  0  0
  5 16  1  0  0  0  0
  6  7  1  0  0  0  0
  7  8  1  0  0  0  0
  8  9  1  0  0  0  0
  8 10  2  0  0  0  0
  9 12  1  0  0  0  0
  9 16  2  0  0  0  0
 11 13  1  0  0  0  0
 11 12  1  0  0  0  0
 12 14  1  0  0  0  0
 14 15  1  0  0  0  0
 14 18  1  6  0  0  0
 15 17  1  0  0  0  0
 16 17  1  0  0  0  0
 18 19  1  0  0  0  0
 19 23  1  0  0  0  0
 20 21  2  0  0  0  0
 20 25  1  0  0  0  0
 21 22  1  0  0  0  0
 22 23  2  0  0  0  0
 23 24  1  0  0  0  0
 24 25  2  0  0  0  0
M  END
>  <CHROM.1>
-112.50405911,-55.36914332,125.10002184,-109.62883623,-119.98794597,4.58663661
-21.11524280,24.05410311,0.28162897,-0.49041846,2.41324077

>  <Name>
ligand

>  <RI>
0

>  <Rbt.Current_Directory>
/home/itssahil/PROJECTS/Mol_Feturizer/New_Systems/rnas/4LVV

>  <Rbt.Executable>
rbdock ($Id: //depot/dev/client3/rdock/2013.1/src/exe/rbdock.cxx#4 $)

>  <Rbt.Library>
libRbt.so (2013.1, Build901 2013/11/27)

>  <Rbt.Parameter_File>
/export/apps/rDock/src/rDock_2013.1_src/data/scripts/dock_solv.prm

>  <Rbt.Receptor>
prm/pocket_docking_8.prm

>  <SCORE>
-13.9725

>  <SCORE.INTER>
-12.1851

>  <SCORE.INTER.CONST>
1

>  <SCORE.INTER.POLAR>
0

>  <SCORE.INTER.ROT>
5

>  <SCORE.INTER.SOLV>
15.3767

>  <SCORE.INTER.VDW>
-20.1823

>  <SCORE.INTER.norm>
-0.487406

>  <SCORE.INTRA>
-1.78736

>  <SCORE.INTRA.DIHEDRAL>
0.529742

>  <SCORE.INTRA.DIHEDRAL.0>
3.94806

>  <SCORE.INTRA.POLAR>
0

>  <SCORE.INTRA.POLAR.0>
0

>  <SCORE.INTRA.REPUL>
0

>  <SCORE.INTRA.REPUL.0>
0

>  <SCORE.INTRA.SOLV>
0.0977781

>  <SCORE.INTRA.SOLV.lig_0>
-70.9803

>  <SCORE.INTRA.VDW>
-2.10112

>  <SCORE.INTRA.VDW.0>
-0.709409

>  <SCORE.INTRA.norm>
-0.0714946

>  <SCORE.RESTR>
0

>  <SCORE.RESTR.CAVITY>
0

>  <SCORE.RESTR.norm>
0

>  <SCORE.SYSTEM>
0

>  <SCORE.SYSTEM.CONST>
0

>  <SCORE.SYSTEM.DIHEDRAL>
0

>  <SCORE.SYSTEM.SOLV>
0

>  <SCORE.SYSTEM.norm>
0

>  <SCORE.heavy>
25

>  <SCORE.norm>
-0.5589

>  <RMSD>
4.128

$$$$
ligand
 OpenBabel11021811503D
libRbt.so/2013.1/901 2013/11/27
 25 27  0  0  0  0  0  0  0  0999 V2000
    9.3881  -24.7008   22.9947 N   0  0  0  0  0  0  0  0  0  0  0  0
    8.8465  -23.3784   23.0518 C   0  0  0  0  0  0  0  0  0  0  0  0
    9.3559  -22.4651   22.4142 O   0  0  0  0  0  0  0  0  0  0  0  0
    5.3475  -17.6853   21.3967 N   0  0  0  0  0  0  0  0  0  0  0  0
    4.1612  -18.0181   23.4576 N   0  0  0  0  0  0  0  0  0  0  0  0
    4.5502  -18.5004   22.2547 C   0  0  0  0  0  0  0  0  0  0  0  0
    4.1839  -19.7513   21.8430 N   0  0  0  0  0  0  0  0  0  0  0  0
    3.4218  -20.5687   22.6133 C   0  0  0  0  0  0  0  0  0  0  0  0
    3.0064  -20.1064   23.8851 C   0  0  0  0  0  0  0  0  0  0  0  0
    3.0955  -21.8215   22.1495 O   0  0  0  0  0  0  0  0  0  0  0  0
    1.0739  -21.6937   24.3792 C   0  0  0  0  0  0  0  0  0  0  0  0
    2.1697  -20.8576   24.8066 N   0  0  0  0  0  0  0  0  0  0  0  0
   -0.0766  -21.5481   24.7779 O   0  0  0  0  0  0  0  0  0  0  0  0
    2.4315  -20.6304   26.1637 C   0  0  2  0  0  0  0  0  0  0  0  0
    2.2782  -19.1196   26.4758 C   0  0  0  0  0  0  0  0  0  0  0  0
    3.3862  -18.7868   24.2865 C   0  0  0  0  0  0  0  0  0  0  0  0
    2.9784  -18.2726   25.5968 N   0  0  0  0  0  0  0  0  0  0  0  0
    3.8213  -21.1089   26.5325 C   0  0  0  0  0  0  0  0  0  0  0  0
    4.1700  -22.4533   26.1647 N   0  0  0  0  0  0  0  0  0  0  0  0
    7.6387  -23.1342   23.8887 C   0  0  0  0  0  0  0  0  0  0  0  0
    7.7557  -22.6663   25.1903 C   0  0  0  0  0  0  0  0  0  0  0  0
    6.6094  -22.4477   25.9448 C   0  0  0  0  0  0  0  0  0  0  0  0
    5.3513  -22.6842   25.3943 C   0  0  0  0  0  0  0  0  0  0  0  0
    5.2393  -23.1405   24.0925 C   0  0  0  0  0  0  0  0  0  0  0  0
    6.3858  -23.3698   23.3414 C   0  0  0  0  0  0  0  0  0  0  0  0
  1  2  1  0  0  0  0
  2  3  2  0  0  0  0
  2 20  1  0  0  0  0
  4  6  1  0  0  0  0
  5  6  2  0  0  0  0
  5 16  1  0  0  0  0
  6  7  1  0  0  0  0
  7  8  1  0  0  0  0
  8  9  1  0  0  0  0
  8 10  2  0  0  0  0
  9 12  1  0  0  0  0
  9 16  2  0  0  0  0
 11 13  1  0  0  0  0
 11 12  1  0  0  0  0
 12 14  1  0  0  0  0
 14 15  1  0  0  0  0
 14 18  1  6  0  0  0
 15 17  1  0  0  0  0
 16 17  1  0  0  0  0
 18 19  1  0  0  0  0
 19 23  1  0  0  0  0
 20 21  2  0  0  0  0
 20 25  1  0  0  0  0
 21 22  1  0  0  0  0
 22 23  2  0  0  0  0
 23 24  1  0  0  0  0
 24 25  2  0  0  0  0
M  END
>  <CHROM.1>
-123.32443265,-51.60595322,125.86832186,67.43298828,95.34332741,4.59405929
-21.13568721,24.10848385,0.26495188,-0.46584078,2.46402767

>  <Name>
ligand

>  <RI>
0

>  <Rbt.Current_Directory>
/home/itssahil/PROJECTS/Mol_Feturizer/New_Systems/rnas/4LVV

>  <Rbt.Executable>
rbdock ($Id: //depot/dev/client3/rdock/2013.1/src/exe/rbdock.cxx#4 $)

>  <Rbt.Library>
libRbt.so (2013.1, Build901 2013/11/27)

>  <Rbt.Parameter_File>
/export/apps/rDock/src/rDock_2013.1_src/data/scripts/dock_solv.prm

>  <Rbt.Receptor>
prm/pocket_docking_5.prm

>  <SCORE>
-13.8161

>  <SCORE.INTER>
-12.1193

>  <SCORE.INTER.CONST>
1

>  <SCORE.INTER.POLAR>
0

>  <SCORE.INTER.ROT>
5

>  <SCORE.INTER.SOLV>
15.5687

>  <SCORE.INTER.VDW>
-20.2024

>  <SCORE.INTER.norm>
-0.484771

>  <SCORE.INTRA>
-1.69681

>  <SCORE.INTRA.DIHEDRAL>
0.813369

>  <SCORE.INTRA.DIHEDRAL.0>
3.94806

>  <SCORE.INTRA.POLAR>
0

>  <SCORE.INTRA.POLAR.0>
0

>  <SCORE.INTRA.REPUL>
0

>  <SCORE.INTRA.REPUL.0>
0

>  <SCORE.INTRA.SOLV>
0.19616

>  <SCORE.INTRA.SOLV.lig_0>
-70.9803

>  <SCORE.INTRA.VDW>
-2.20158

>  <SCORE.INTRA.VDW.0>
-0.709409

>  <SCORE.INTRA.norm>
-0.0678724

>  <SCORE.RESTR>
0

>  <SCORE.RESTR.CAVITY>
0

>  <SCORE.RESTR.norm>
0

>  <SCORE.SYSTEM>
0

>  <SCORE.SYSTEM.CONST>
0

>  <SCORE.SYSTEM.DIHEDRAL>
0

>  <SCORE.SYSTEM.SOLV>
0

>  <SCORE.SYSTEM.norm>
0

>  <SCORE.heavy>
25

>  <SCORE.norm>
-0.552644

>  <RMSD>
4.130

$$$$
ligand
 OpenBabel11021811503D
libRbt.so/2013.1/901 2013/11/27
 25 27  0  0  0  0  0  0  0  0999 V2000
    9.4072  -22.2856   23.2182 N   0  0  0  0  0  0  0  0  0  0  0  0
    8.3426  -23.2405   23.2226 C   0  0  0  0  0  0  0  0  0  0  0  0
    8.3609  -24.2021   22.4642 O   0  0  0  0  0  0  0  0  0  0  0  0
    6.0292  -16.2714   23.9801 N   0  0  0  0  0  0  0  0  0  0  0  0
    4.2108  -17.3822   25.0867 N   0  0  0  0  0  0  0  0  0  0  0  0
    5.2196  -17.4282   24.1861 C   0  0  0  0  0  0  0  0  0  0  0  0
    5.4699  -18.5607   23.4628 N   0  0  0  0  0  0  0  0  0  0  0  0
    4.7297  -19.6887   23.6116 C   0  0  0  0  0  0  0  0  0  0  0  0
    3.6740  -19.6856   24.5544 C   0  0  0  0  0  0  0  0  0  0  0  0
    5.0376  -20.8009   22.8638 O   0  0  0  0  0  0  0  0  0  0  0  0
    2.3011  -21.6825   23.7632 C   0  0  0  0  0  0  0  0  0  0  0  0
    2.7836  -20.8074   24.8044 N   0  0  0  0  0  0  0  0  0  0  0  0
    2.4655  -21.4587   22.5687 O   0  0  0  0  0  0  0  0  0  0  0  0
    2.3317  -20.9219   26.1252 C   0  0  2  0  0  0  0  0  0  0  0  0
    1.6094  -19.6149   26.5414 C   0  0  0  0  0  0  0  0  0  0  0  0
    3.4190  -18.4830   25.2862 C   0  0  0  0  0  0  0  0  0  0  0  0
    2.3369  -18.4405   26.2736 N   0  0  0  0  0  0  0  0  0  0  0  0
    3.4833  -21.2132   27.0660 C   0  0  0  0  0  0  0  0  0  0  0  0
    4.1084  -22.5022   26.9566 N   0  0  0  0  0  0  0  0  0  0  0  0
    7.2167  -23.0542   24.1799 C   0  0  0  0  0  0  0  0  0  0  0  0
    5.9405  -23.5084   23.8771 C   0  0  0  0  0  0  0  0  0  0  0  0
    4.9117  -23.3199   24.7920 C   0  0  0  0  0  0  0  0  0  0  0  0
    5.1624  -22.6910   26.0099 C   0  0  0  0  0  0  0  0  0  0  0  0
    6.4387  -22.2493   26.3120 C   0  0  0  0  0  0  0  0  0  0  0  0
    7.4655  -22.4278   25.3926 C   0  0  0  0  0  0  0  0  0  0  0  0
  1  2  1  0  0  0  0
  2  3  2  0  0  0  0
  2 20  1  0  0  0  0
  4  6  1  0  0  0  0
  5  6  2  0  0  0  0
  5 16  1  0  0  0  0
  6  7  1  0  0  0  0
  7  8  1  0  0  0  0
  8  9  1  0  0  0  0
  8 10  2  0  0  0  0
  9 12  1  0  0  0  0
  9 16  2  0  0  0  0
 11 13  1  0  0  0  0
 11 12  1  0  0  0  0
 12 14  1  0  0  0  0
 14 15  1  0  0  0  0
 14 18  1  1  0  0  0
 15 17  1  0  0  0  0
 16 17  1  0  0  0  0
 18 19  1  0  0  0  0
 19 23  1  0  0  0  0
 20 21  2  0  0  0  0
 20 25  1  0  0  0  0
 21 22  1  0  0  0  0
 22 23  2  0  0  0  0
 23 24  1  0  0  0  0
 24 25  2  0  0  0  0
M  END
>  <CHROM.1>
-9.28152310,-68.77898050,86.40805732,-101.15423792,150.57478303,4.86065223
-20.86287713,24.62267003,-0.65275767,0.47104995,-0.17727314

>  <Name>
ligand

>  <RI>
0

>  <Rbt.Current_Directory>
/home/itssahil/PROJECTS/Mol_Feturizer/New_Systems/rnas/4LVV

>  <Rbt.Executable>
rbdock ($Id: //depot/dev/client3/rdock/2013.1/src/exe/rbdock.cxx#4 $)

>  <Rbt.Library>
libRbt.so (2013.1, Build901 2013/11/27)

>  <Rbt.Parameter_File>
/export/apps/rDock/src/rDock_2013.1_src/data/scripts/dock_solv.prm

>  <Rbt.Receptor>
prm/pocket_docking_4.prm

>  <SCORE>
-12.0366

>  <SCORE.INTER>
-9.48269

>  <SCORE.INTER.CONST>
1

>  <SCORE.INTER.POLAR>
0

>  <SCORE.INTER.ROT>
5

>  <SCORE.INTER.SOLV>
15.6504

>  <SCORE.INTER.VDW>
-18.4719

>  <SCORE.INTER.norm>
-0.379308

>  <SCORE.INTRA>
-2.55391

>  <SCORE.INTRA.DIHEDRAL>
0.138323

>  <SCORE.INTRA.DIHEDRAL.0>
3.94806

>  <SCORE.INTRA.POLAR>
0

>  <SCORE.INTRA.POLAR.0>
0

>  <SCORE.INTRA.REPUL>
0

>  <SCORE.INTRA.REPUL.0>
0

>  <SCORE.INTRA.SOLV>
0.675219

>  <SCORE.INTRA.SOLV.lig_0>
-70.9803

>  <SCORE.INTRA.VDW>
-2.96068

>  <SCORE.INTRA.VDW.0>
-0.709409

>  <SCORE.INTRA.norm>
-0.102156

>  <SCORE.RESTR>
0

>  <SCORE.RESTR.CAVITY>
0

>  <SCORE.RESTR.norm>
0

>  <SCORE.SYSTEM>
0

>  <SCORE.SYSTEM.CONST>
0

>  <SCORE.SYSTEM.DIHEDRAL>
0

>  <SCORE.SYSTEM.SOLV>
0

>  <SCORE.SYSTEM.norm>
0

>  <SCORE.heavy>
25

>  <SCORE.norm>
-0.481464

>  <RMSD>
4.135

$$$$
ligand
 OpenBabel11021811503D
libRbt.so/2013.1/901 2013/11/27
 25 27  0  0  0  0  0  0  0  0999 V2000
    8.8147  -24.4277   22.0641 N   0  0  0  0  0  0  0  0  0  0  0  0
    8.8464  -23.3916   23.0494 C   0  0  0  0  0  0  0  0  0  0  0  0
    9.8457  -22.6991   23.1979 O   0  0  0  0  0  0  0  0  0  0  0  0
    5.1824  -17.2839   21.7113 N   0  0  0  0  0  0  0  0  0  0  0  0
    4.0382  -17.8198   23.7531 N   0  0  0  0  0  0  0  0  0  0  0  0
    4.4164  -18.1874   22.5071 C   0  0  0  0  0  0  0  0  0  0  0  0
    4.0687  -19.4055   21.9936 N   0  0  0  0  0  0  0  0  0  0  0  0
    3.3365  -20.3031   22.7013 C   0  0  0  0  0  0  0  0  0  0  0  0
    2.9334  -19.9618   24.0146 C   0  0  0  0  0  0  0  0  0  0  0  0
    3.0279  -21.5177   22.1352 O   0  0  0  0  0  0  0  0  0  0  0  0
    1.0422  -21.6276   24.3978 C   0  0  0  0  0  0  0  0  0  0  0  0
    2.1279  -20.8081   24.8798 N   0  0  0  0  0  0  0  0  0  0  0  0
   -0.1146  -21.5053   24.7860 O   0  0  0  0  0  0  0  0  0  0  0  0
    2.4080  -20.6939   26.2474 C   0  0  2  0  0  0  0  0  0  0  0  0
    2.2293  -19.2195   26.6920 C   0  0  0  0  0  0  0  0  0  0  0  0
    3.2931  -18.6741   24.5236 C   0  0  0  0  0  0  0  0  0  0  0  0
    2.8972  -18.2845   25.8797 N   0  0  0  0  0  0  0  0  0  0  0  0
    3.8132  -21.1722   26.5520 C   0  0  0  0  0  0  0  0  0  0  0  0
    4.1521  -22.5086   26.1477 N   0  0  0  0  0  0  0  0  0  0  0  0
    7.6340  -23.1575   23.8824 C   0  0  0  0  0  0  0  0  0  0  0  0
    7.7408  -22.6559   25.1722 C   0  0  0  0  0  0  0  0  0  0  0  0
    6.5904  -22.4478   25.9233 C   0  0  0  0  0  0  0  0  0  0  0  0
    5.3379  -22.7286   25.3809 C   0  0  0  0  0  0  0  0  0  0  0  0
    5.2357  -23.2185   24.0906 C   0  0  0  0  0  0  0  0  0  0  0  0
    6.3867  -23.4371   23.3431 C   0  0  0  0  0  0  0  0  0  0  0  0
  1  2  1  0  0  0  0
  2  3  2  0  0  0  0
  2 20  1  0  0  0  0
  4  6  1  0  0  0  0
  5  6  2  0  0  0  0
  5 16  1  0  0  0  0
  6  7  1  0  0  0  0
  7  8  1  0  0  0  0
  8  9  1  0  0  0  0
  8 10  2  0  0  0  0
  9 12  1  0  0  0  0
  9 16  2  0  0  0  0
 11 13  1  0  0  0  0
 11 12  1  0  0  0  0
 12 14  1  0  0  0  0
 14 15  1  0  0  0  0
 14 18  1  6  0  0  0
 15 17  1  0  0  0  0
 16 17  1  0  0  0  0
 18 19  1  0  0  0  0
 19 23  1  0  0  0  0
 20 21  2  0  0  0  0
 20 25  1  0  0  0  0
 21 22  1  0  0  0  0
 22 23  2  0  0  0  0
 23 24  1  0  0  0  0
 24 25  2  0  0  0  0
M  END
>  <CHROM.1>
-120.26727408,-55.95334824,128.86072505,63.73790479,150.80524364,4.54502470
-21.06403684,24.19014063,-0.31261378,0.46520324,-0.60357993

>  <Name>
ligand

>  <RI>
0

>  <Rbt.Current_Directory>
/home/itssahil/PROJECTS/Mol_Feturizer/New_Systems/rnas/4LVV

>  <Rbt.Executable>
rbdock ($Id: //depot/dev/client3/rdock/2013.1/src/exe/rbdock.cxx#4 $)

>  <Rbt.Library>
libRbt.so (2013.1, Build901 2013/11/27)

>  <Rbt.Parameter_File>
/export/apps/rDock/src/rDock_2013.1_src/data/scripts/dock_solv.prm

>  <Rbt.Receptor>
prm/pocket_docking_6.prm

>  <SCORE>
-13.645

>  <SCORE.INTER>
-12.1845

>  <SCORE.INTER.CONST>
1

>  <SCORE.INTER.POLAR>
0

>  <SCORE.INTER.ROT>
5

>  <SCORE.INTER.SOLV>
15.985

>  <SCORE.INTER.VDW>
-20.3846

>  <SCORE.INTER.norm>
-0.487378

>  <SCORE.INTRA>
-1.46055

>  <SCORE.INTRA.DIHEDRAL>
0.504958

>  <SCORE.INTRA.DIHEDRAL.0>
3.94806

>  <SCORE.INTRA.POLAR>
0

>  <SCORE.INTRA.POLAR.0>
0

>  <SCORE.INTRA.REPUL>
0

>  <SCORE.INTRA.REPUL.0>
0

>  <SCORE.INTRA.SOLV>
0.0303863

>  <SCORE.INTRA.SOLV.lig_0>
-70.9803

>  <SCORE.INTRA.VDW>
-1.72823

>  <SCORE.INTRA.VDW.0>
-0.709409

>  <SCORE.INTRA.norm>
-0.0584222

>  <SCORE.RESTR>
0

>  <SCORE.RESTR.CAVITY>
0

>  <SCORE.RESTR.norm>
0

>  <SCORE.SYSTEM>
0

>  <SCORE.SYSTEM.CONST>
0

>  <SCORE.SYSTEM.DIHEDRAL>
0

>  <SCORE.SYSTEM.SOLV>
0

>  <SCORE.SYSTEM.norm>
0

>  <SCORE.heavy>
25

>  <SCORE.norm>
-0.5458

>  <RMSD>
4.136

$$$$
ligand
 OpenBabel11021811503D
libRbt.so/2013.1/901 2013/11/27
 25 27  0  0  0  0  0  0  0  0999 V2000
    9.2296  -24.6810   22.8074 N   0  0  0  0  0  0  0  0  0  0  0  0
    8.8169  -23.3397   23.0830 C   0  0  0  0  0  0  0  0  0  0  0  0
    9.4547  -22.3872   22.6517 O   0  0  0  0  0  0  0  0  0  0  0  0
    5.3763  -17.1972   21.8909 N   0  0  0  0  0  0  0  0  0  0  0  0
    4.1253  -17.7698   23.8588 N   0  0  0  0  0  0  0  0  0  0  0  0
    4.5816  -18.1203   22.6341 C   0  0  0  0  0  0  0  0  0  0  0  0
    4.2858  -19.3399   22.0924 N   0  0  0  0  0  0  0  0  0  0  0  0
    3.5298  -20.2558   22.7497 C   0  0  0  0  0  0  0  0  0  0  0  0
    3.0452  -19.9326   24.0398 C   0  0  0  0  0  0  0  0  0  0  0  0
    3.2761  -21.4708   22.1576 O   0  0  0  0  0  0  0  0  0  0  0  0
    1.1647  -21.6339   24.3002 C   0  0  0  0  0  0  0  0  0  0  0  0
    2.2060  -20.7998   24.8505 N   0  0  0  0  0  0  0  0  0  0  0  0
   -0.0172  -21.5222   24.6075 O   0  0  0  0  0  0  0  0  0  0  0  0
    2.4043  -20.6923   26.2328 C   0  0  2  0  0  0  0  0  0  0  0  0
    2.1741  -19.2249   26.6772 C   0  0  0  0  0  0  0  0  0  0  0  0
    3.3520  -18.6432   24.5783 C   0  0  0  0  0  0  0  0  0  0  0  0
    2.8714  -18.2718   25.9119 N   0  0  0  0  0  0  0  0  0  0  0  0
    3.7977  -21.1489   26.6151 C   0  0  0  0  0  0  0  0  0  0  0  0
    4.1680  -22.4905   26.2584 N   0  0  0  0  0  0  0  0  0  0  0  0
    7.5851  -23.1208   23.8913 C   0  0  0  0  0  0  0  0  0  0  0  0
    6.3310  -23.4157   23.3743 C   0  0  0  0  0  0  0  0  0  0  0  0
    5.2012  -23.2009   24.1543 C   0  0  0  0  0  0  0  0  0  0  0  0
    5.3273  -22.7054   25.4506 C   0  0  0  0  0  0  0  0  0  0  0  0
    6.5805  -22.4229   25.9655 C   0  0  0  0  0  0  0  0  0  0  0  0
    7.7098  -22.6271   25.1819 C   0  0  0  0  0  0  0  0  0  0  0  0
  1  2  1  0  0  0  0
  2  3  2  0  0  0  0
  2 20  1  0  0  0  0
  4  6  1  0  0  0  0
  5  6  2  0  0  0  0
  5 16  1  0  0  0  0
  6  7  1  0  0  0  0
  7  8  1  0  0  0  0
  8  9  1  0  0  0  0
  8 10  2  0  0  0  0
  9 12  1  0  0  0  0
  9 16  2  0  0  0  0
 11 13  1  0  0  0  0
 11 12  1  0  0  0  0
 12 14  1  0  0  0  0
 14 15  1  0  0  0  0
 14 18  1  6  0  0  0
 15 17  1  0  0  0  0
 16 17  1  0  0  0  0
 18 19  1  0  0  0  0
 19 23  1  0  0  0  0
 20 21  2  0  0  0  0
 20 25  1  0  0  0  0
 21 22  1  0  0  0  0
 22 23  2  0  0  0  0
 23 24  1  0  0  0  0
 24 25  2  0  0  0  0
M  END
>  <CHROM.1>
-119.21694173,-57.85893227,123.23777757,-112.84062136,-69.98099010,4.59726966
-21.03390199,24.22447572,0.34610911,-0.45769094,2.59599817

>  <Name>
ligand

>  <RI>
0

>  <Rbt.Current_Directory>
/home/itssahil/PROJECTS/Mol_Feturizer/New_Systems/rnas/4LVV

>  <Rbt.Executable>
rbdock ($Id: //depot/dev/client3/rdock/2013.1/src/exe/rbdock.cxx#4 $)

>  <Rbt.Library>
libRbt.so (2013.1, Build901 2013/11/27)

>  <Rbt.Parameter_File>
/export/apps/rDock/src/rDock_2013.1_src/data/scripts/dock_solv.prm

>  <Rbt.Receptor>
prm/pocket_docking_4.prm

>  <SCORE>
-13.525

>  <SCORE.INTER>
-11.723

>  <SCORE.INTER.CONST>
1

>  <SCORE.INTER.POLAR>
0

>  <SCORE.INTER.ROT>
5

>  <SCORE.INTER.SOLV>
16.0701

>  <SCORE.INTER.VDW>
-20.1054

>  <SCORE.INTER.norm>
-0.46892

>  <SCORE.INTRA>
-1.80197

>  <SCORE.INTRA.DIHEDRAL>
0.521513

>  <SCORE.INTRA.DIHEDRAL.0>
3.94806

>  <SCORE.INTRA.POLAR>
0

>  <SCORE.INTRA.POLAR.0>
0

>  <SCORE.INTRA.REPUL>
0

>  <SCORE.INTRA.REPUL.0>
0

>  <SCORE.INTRA.SOLV>
0.0362656

>  <SCORE.INTRA.SOLV.lig_0>
-70.9803

>  <SCORE.INTRA.VDW>
-2.08086

>  <SCORE.INTRA.VDW.0>
-0.709409

>  <SCORE.INTRA.norm>
-0.0720789

>  <SCORE.RESTR>
0

>  <SCORE.RESTR.CAVITY>
0

>  <SCORE.RESTR.norm>
0

>  <SCORE.SYSTEM>
0

>  <SCORE.SYSTEM.CONST>
0

>  <SCORE.SYSTEM.DIHEDRAL>
0

>  <SCORE.SYSTEM.SOLV>
0

>  <SCORE.SYSTEM.norm>
0

>  <SCORE.heavy>
25

>  <SCORE.norm>
-0.540999

>  <RMSD>
4.137

$$$$
ligand
 OpenBabel11021811503D
libRbt.so/2013.1/901 2013/11/27
 25 27  0  0  0  0  0  0  0  0999 V2000
    9.6930  -24.5065   23.3341 N   0  0  0  0  0  0  0  0  0  0  0  0
    8.8029  -23.4625   22.9303 C   0  0  0  0  0  0  0  0  0  0  0  0
    9.0245  -22.8067   21.9198 O   0  0  0  0  0  0  0  0  0  0  0  0
    5.3572  -17.6589   21.3403 N   0  0  0  0  0  0  0  0  0  0  0  0
    4.1910  -17.9947   23.4121 N   0  0  0  0  0  0  0  0  0  0  0  0
    4.5706  -18.4763   22.2060 C   0  0  0  0  0  0  0  0  0  0  0  0
    4.2049  -19.7286   21.7983 N   0  0  0  0  0  0  0  0  0  0  0  0
    3.4527  -20.5483   22.5760 C   0  0  0  0  0  0  0  0  0  0  0  0
    3.0473  -20.0867   23.8513 C   0  0  0  0  0  0  0  0  0  0  0  0
    3.1266  -21.8025   22.1159 O   0  0  0  0  0  0  0  0  0  0  0  0
    1.1250  -21.6804   24.3639 C   0  0  0  0  0  0  0  0  0  0  0  0
    2.2218  -20.8402   24.7808 N   0  0  0  0  0  0  0  0  0  0  0  0
   -0.0486  -21.4229   24.6091 O   0  0  0  0  0  0  0  0  0  0  0  0
    2.4952  -20.6114   26.1353 C   0  0  2  0  0  0  0  0  0  0  0  0
    2.3394  -19.1009   26.4480 C   0  0  0  0  0  0  0  0  0  0  0  0
    3.4263  -18.7655   24.2485 C   0  0  0  0  0  0  0  0  0  0  0  0
    3.0287  -18.2520   25.5622 N   0  0  0  0  0  0  0  0  0  0  0  0
    3.8899  -21.0848   26.4916 C   0  0  0  0  0  0  0  0  0  0  0  0
    4.2258  -22.4415   26.1588 N   0  0  0  0  0  0  0  0  0  0  0  0
    7.5896  -23.1973   23.7526 C   0  0  0  0  0  0  0  0  0  0  0  0
    6.3184  -23.4133   23.2384 C   0  0  0  0  0  0  0  0  0  0  0  0
    5.2066  -23.1570   24.0315 C   0  0  0  0  0  0  0  0  0  0  0  0
    5.3669  -22.6989   25.3377 C   0  0  0  0  0  0  0  0  0  0  0  0
    6.6365  -22.4953   25.8496 C   0  0  0  0  0  0  0  0  0  0  0  0
    7.7485  -22.7409   25.0530 C   0  0  0  0  0  0  0  0  0  0  0  0
  1  2  1  0  0  0  0
  2  3  2  0  0  0  0
  2 20  1  0  0  0  0
  4  6  1  0  0  0  0
  5  6  2  0  0  0  0
  5 16  1  0  0  0  0
  6  7  1  0  0  0  0
  7  8  1  0  0  0  0
  8  9  1  0  0  0  0
  8 10  2  0  0  0  0
  9 12  1  0  0  0  0
  9 16  2  0  0  0  0
 11 13  1  0  0  0  0
 11 12  1  0  0  0  0
 12 14  1  0  0  0  0
 14 15  1  0  0  0  0
 14 18  1  6  0  0  0
 15 17  1  0  0  0  0
 16 17  1  0  0  0  0
 18 19  1  0  0  0  0
 19 23  1  0  0  0  0
 20 21  2  0  0  0  0
 20 25  1  0  0  0  0
 21 22  1  0  0  0  0
 22 23  2  0  0  0  0
 23 24  1  0  0  0  0
 24 25  2  0  0  0  0
M  END
>  <CHROM.1>
-112.00669179,-53.49166017,123.89724243,-109.64754093,-114.65863431,4.61219140
-21.13808769,24.04440614,0.26548532,-0.49261980,2.43033408

>  <Name>
ligand

>  <RI>
0

>  <Rbt.Current_Directory>
/home/itssahil/PROJECTS/Mol_Feturizer/New_Systems/rnas/4LVV

>  <Rbt.Executable>
rbdock ($Id: //depot/dev/client3/rdock/2013.1/src/exe/rbdock.cxx#4 $)

>  <Rbt.Library>
libRbt.so (2013.1, Build901 2013/11/27)

>  <Rbt.Parameter_File>
/export/apps/rDock/src/rDock_2013.1_src/data/scripts/dock_solv.prm

>  <Rbt.Receptor>
prm/pocket_docking_7.prm

>  <SCORE>
-13.8898

>  <SCORE.INTER>
-12.0555

>  <SCORE.INTER.CONST>
1

>  <SCORE.INTER.POLAR>
0

>  <SCORE.INTER.ROT>
5

>  <SCORE.INTER.SOLV>
15.1605

>  <SCORE.INTER.VDW>
-20.0239

>  <SCORE.INTER.norm>
-0.482222

>  <SCORE.INTRA>
-1.83421

>  <SCORE.INTRA.DIHEDRAL>
0.602145

>  <SCORE.INTRA.DIHEDRAL.0>
3.94806

>  <SCORE.INTRA.POLAR>
0

>  <SCORE.INTRA.POLAR.0>
0

>  <SCORE.INTRA.REPUL>
0

>  <SCORE.INTRA.REPUL.0>
0

>  <SCORE.INTRA.SOLV>
0.170234

>  <SCORE.INTRA.SOLV.lig_0>
-70.9803

>  <SCORE.INTRA.VDW>
-2.2204

>  <SCORE.INTRA.VDW.0>
-0.709409

>  <SCORE.INTRA.norm>
-0.0733683

>  <SCORE.RESTR>
0

>  <SCORE.RESTR.CAVITY>
0

>  <SCORE.RESTR.norm>
0

>  <SCORE.SYSTEM>
0

>  <SCORE.SYSTEM.CONST>
0

>  <SCORE.SYSTEM.DIHEDRAL>
0

>  <SCORE.SYSTEM.SOLV>
0

>  <SCORE.SYSTEM.norm>
0

>  <SCORE.heavy>
25

>  <SCORE.norm>
-0.55559

>  <RMSD>
4.137

$$$$
ligand
 OpenBabel11021811503D
libRbt.so/2013.1/901 2013/11/27
 25 27  0  0  0  0  0  0  0  0999 V2000
    9.1194  -22.5840   21.9610 N   0  0  0  0  0  0  0  0  0  0  0  0
    8.7643  -23.5125   22.9891 C   0  0  0  0  0  0  0  0  0  0  0  0
    9.4269  -24.5260   23.1737 O   0  0  0  0  0  0  0  0  0  0  0  0
    5.3510  -17.8882   21.1887 N   0  0  0  0  0  0  0  0  0  0  0  0
    4.2183  -18.0898   23.2963 N   0  0  0  0  0  0  0  0  0  0  0  0
    4.5554  -18.6379   22.1059 C   0  0  0  0  0  0  0  0  0  0  0  0
    4.1382  -19.8935   21.7627 N   0  0  0  0  0  0  0  0  0  0  0  0
    3.3750  -20.6506   22.5915 C   0  0  0  0  0  0  0  0  0  0  0  0
    3.0130  -20.1185   23.8522 C   0  0  0  0  0  0  0  0  0  0  0  0
    2.9962  -21.9117   22.1952 O   0  0  0  0  0  0  0  0  0  0  0  0
    1.0484  -21.6189   24.4744 C   0  0  0  0  0  0  0  0  0  0  0  0
    2.1821  -20.8002   24.8311 N   0  0  0  0  0  0  0  0  0  0  0  0
   -0.1079  -21.3240   24.7571 O   0  0  0  0  0  0  0  0  0  0  0  0
    2.4920  -20.5210   26.1682 C   0  0  2  0  0  0  0  0  0  0  0  0
    2.3950  -18.9935   26.4151 C   0  0  0  0  0  0  0  0  0  0  0  0
    3.4456  -18.7951   24.1816 C   0  0  0  0  0  0  0  0  0  0  0  0
    3.0940  -18.2099   25.4783 N   0  0  0  0  0  0  0  0  0  0  0  0
    3.8769  -21.0271   26.5180 C   0  0  0  0  0  0  0  0  0  0  0  0
    4.1821  -22.3887   26.1761 N   0  0  0  0  0  0  0  0  0  0  0  0
    7.5818  -23.2163   23.8450 C   0  0  0  0  0  0  0  0  0  0  0  0
    7.7392  -22.7254   25.1338 C   0  0  0  0  0  0  0  0  0  0  0  0
    6.6156  -22.4583   25.9066 C   0  0  0  0  0  0  0  0  0  0  0  0
    5.3401  -22.6695   25.3868 C   0  0  0  0  0  0  0  0  0  0  0  0
    5.1880  -23.1490   24.0975 C   0  0  0  0  0  0  0  0  0  0  0  0
    6.3115  -23.4267   23.3283 C   0  0  0  0  0  0  0  0  0  0  0  0
  1  2  1  0  0  0  0
  2  3  2  0  0  0  0
  2 20  1  0  0  0  0
  4  6  1  0  0  0  0
  5  6  2  0  0  0  0
  5 16  1  0  0  0  0
  6  7  1  0  0  0  0
  7  8  1  0  0  0  0
  8  9  1  0  0  0  0
  8 10  2  0  0  0  0
  9 12  1  0  0  0  0
  9 16  2  0  0  0  0
 11 13  1  0  0  0  0
 11 12  1  0  0  0  0
 12 14  1  0  0  0  0
 14 15  1  0  0  0  0
 14 18  1  6  0  0  0
 15 17  1  0  0  0  0
 16 17  1  0  0  0  0
 18 19  1  0  0  0  0
 19 23  1  0  0  0  0
 20 21  2  0  0  0  0
 20 25  1  0  0  0  0
 21 22  1  0  0  0  0
 22 23  2  0  0  0  0
 23 24  1  0  0  0  0
 24 25  2  0  0  0  0
M  END
>  <CHROM.1>
-113.68881943,-50.30038678,125.93164730,67.67347486,-102.47870753,4.58553894
-21.15358602,24.06242195,-0.24106487,0.49922546,-0.75339770

>  <Name>
ligand

>  <RI>
0

>  <Rbt.Current_Directory>
/home/itssahil/PROJECTS/Mol_Feturizer/New_Systems/rnas/4LVV

>  <Rbt.Executable>
rbdock ($Id: //depot/dev/client3/rdock/2013.1/src/exe/rbdock.cxx#4 $)

>  <Rbt.Library>
libRbt.so (2013.1, Build901 2013/11/27)

>  <Rbt.Parameter_File>
/export/apps/rDock/src/rDock_2013.1_src/data/scripts/dock_solv.prm

>  <Rbt.Receptor>
prm/pocket_docking_4.prm

>  <SCORE>
-13.9032

>  <SCORE.INTER>
-12.1663

>  <SCORE.INTER.CONST>
1

>  <SCORE.INTER.POLAR>
0

>  <SCORE.INTER.ROT>
5

>  <SCORE.INTER.SOLV>
14.8256

>  <SCORE.INTER.VDW>
-19.9861

>  <SCORE.INTER.norm>
-0.486653

>  <SCORE.INTRA>
-1.73682

>  <SCORE.INTRA.DIHEDRAL>
0.765379

>  <SCORE.INTRA.DIHEDRAL.0>
3.94806

>  <SCORE.INTRA.POLAR>
0

>  <SCORE.INTRA.POLAR.0>
0

>  <SCORE.INTRA.REPUL>
0

>  <SCORE.INTRA.REPUL.0>
0

>  <SCORE.INTRA.SOLV>
0.242964

>  <SCORE.INTRA.SOLV.lig_0>
-70.9803

>  <SCORE.INTRA.VDW>
-2.24099

>  <SCORE.INTRA.VDW.0>
-0.709409

>  <SCORE.INTRA.norm>
-0.0694729

>  <SCORE.RESTR>
0

>  <SCORE.RESTR.CAVITY>
0

>  <SCORE.RESTR.norm>
0

>  <SCORE.SYSTEM>
0

>  <SCORE.SYSTEM.CONST>
0

>  <SCORE.SYSTEM.DIHEDRAL>
0

>  <SCORE.SYSTEM.SOLV>
0

>  <SCORE.SYSTEM.norm>
0

>  <SCORE.heavy>
25

>  <SCORE.norm>
-0.556126

>  <RMSD>
4.156

$$$$
ligand
 OpenBabel11021811503D
libRbt.so/2013.1/901 2013/11/27
 25 27  0  0  0  0  0  0  0  0999 V2000
    8.7448  -22.5580   21.8343 N   0  0  0  0  0  0  0  0  0  0  0  0
    8.6307  -23.3499   23.0197 C   0  0  0  0  0  0  0  0  0  0  0  0
    9.4949  -24.1670   23.3125 O   0  0  0  0  0  0  0  0  0  0  0  0
    5.5057  -17.0011   22.4050 N   0  0  0  0  0  0  0  0  0  0  0  0
    4.1570  -17.7122   24.2599 N   0  0  0  0  0  0  0  0  0  0  0  0
    4.6973  -17.9845   23.0496 C   0  0  0  0  0  0  0  0  0  0  0  0
    4.4733  -19.1816   22.4292 N   0  0  0  0  0  0  0  0  0  0  0  0
    3.7084  -20.1521   22.9909 C   0  0  0  0  0  0  0  0  0  0  0  0
    3.1369  -19.9114   24.2633 C   0  0  0  0  0  0  0  0  0  0  0  0
    3.5294  -21.3408   22.3231 O   0  0  0  0  0  0  0  0  0  0  0  0
    1.2989  -21.6768   24.3198 C   0  0  0  0  0  0  0  0  0  0  0  0
    2.2782  -20.8437   24.9753 N   0  0  0  0  0  0  0  0  0  0  0  0
    0.1061  -21.6609   24.6040 O   0  0  0  0  0  0  0  0  0  0  0  0
    2.3892  -20.8037   26.3709 C   0  0  2  0  0  0  0  0  0  0  0  0
    2.0863  -19.3690   26.8744 C   0  0  0  0  0  0  0  0  0  0  0  0
    3.3698  -18.6439   24.8848 C   0  0  0  0  0  0  0  0  0  0  0  0
    2.7980  -18.3573   26.2033 N   0  0  0  0  0  0  0  0  0  0  0  0
    3.7708  -21.2400   26.8149 C   0  0  0  0  0  0  0  0  0  0  0  0
    4.1747  -22.5771   26.4786 N   0  0  0  0  0  0  0  0  0  0  0  0
    7.4480  -23.1511   23.9032 C   0  0  0  0  0  0  0  0  0  0  0  0
    6.1685  -23.4598   23.4622 C   0  0  0  0  0  0  0  0  0  0  0  0
    5.0860  -23.2636   24.3111 C   0  0  0  0  0  0  0  0  0  0  0  0
    5.2850  -22.7729   25.6001 C   0  0  0  0  0  0  0  0  0  0  0  0
    6.5636  -22.4767   26.0390 C   0  0  0  0  0  0  0  0  0  0  0  0
    7.6453  -22.6623   25.1865 C   0  0  0  0  0  0  0  0  0  0  0  0
  1  2  1  0  0  0  0
  2  3  2  0  0  0  0
  2 20  1  0  0  0  0
  4  6  1  0  0  0  0
  5  6  2  0  0  0  0
  5 16  1  0  0  0  0
  6  7  1  0  0  0  0
  7  8  1  0  0  0  0
  8  9  1  0  0  0  0
  8 10  2  0  0  0  0
  9 12  1  0  0  0  0
  9 16  2  0  0  0  0
 11 13  1  0  0  0  0
 11 12  1  0  0  0  0
 12 14  1  0  0  0  0
 14 15  1  0  0  0  0
 14 18  1  6  0  0  0
 15 17  1  0  0  0  0
 16 17  1  0  0  0  0
 18 19  1  0  0  0  0
 19 23  1  0  0  0  0
 20 21  2  0  0  0  0
 20 25  1  0  0  0  0
 21 22  1  0  0  0  0
 22 23  2  0  0  0  0
 23 24  1  0  0  0  0
 24 25  2  0  0  0  0
M  END
>  <CHROM.1>
-122.83976933,-61.26910755,116.33964606,-109.92984332,65.34626783,4.60044908
-21.03994312,24.38330622,-0.36226515,0.48717221,-0.48393008

>  <Name>
ligand

>  <RI>
0

>  <Rbt.Current_Directory>
/home/itssahil/PROJECTS/Mol_Feturizer/New_Systems/rnas/4LVV

>  <Rbt.Executable>
rbdock ($Id: //depot/dev/client3/rdock/2013.1/src/exe/rbdock.cxx#4 $)

>  <Rbt.Library>
libRbt.so (2013.1, Build901 2013/11/27)

>  <Rbt.Parameter_File>
/export/apps/rDock/src/rDock_2013.1_src/data/scripts/dock_solv.prm

>  <Rbt.Receptor>
prm/pocket_docking_3.prm

>  <SCORE>
-13.1661

>  <SCORE.INTER>
-11.2563

>  <SCORE.INTER.CONST>
1

>  <SCORE.INTER.POLAR>
0

>  <SCORE.INTER.ROT>
5

>  <SCORE.INTER.SOLV>
15.3297

>  <SCORE.INTER.VDW>
-19.5474

>  <SCORE.INTER.norm>
-0.450253

>  <SCORE.INTRA>
-1.90979

>  <SCORE.INTRA.DIHEDRAL>
0.558854

>  <SCORE.INTRA.DIHEDRAL.0>
3.94806

>  <SCORE.INTRA.POLAR>
0

>  <SCORE.INTRA.POLAR.0>
0

>  <SCORE.INTRA.REPUL>
0

>  <SCORE.INTRA.REPUL.0>
0

>  <SCORE.INTRA.SOLV>
0.0660641

>  <SCORE.INTRA.SOLV.lig_0>
-70.9803

>  <SCORE.INTRA.VDW>
-2.22225

>  <SCORE.INTRA.VDW.0>
-0.709409

>  <SCORE.INTRA.norm>
-0.0763916

>  <SCORE.RESTR>
6.59342e-05

>  <SCORE.RESTR.CAVITY>
6.59342e-05

>  <SCORE.RESTR.norm>
2.63737e-06

>  <SCORE.SYSTEM>
0

>  <SCORE.SYSTEM.CONST>
0

>  <SCORE.SYSTEM.DIHEDRAL>
0

>  <SCORE.SYSTEM.SOLV>
0

>  <SCORE.SYSTEM.norm>
0

>  <SCORE.heavy>
25

>  <SCORE.norm>
-0.526642

>  <RMSD>
4.167

$$$$
ligand
 OpenBabel11021811503D
libRbt.so/2013.1/901 2013/11/27
 25 27  0  0  0  0  0  0  0  0999 V2000
    9.4561  -23.7447   23.5684 N   0  0  0  0  0  0  0  0  0  0  0  0
    8.1565  -23.3409   23.1285 C   0  0  0  0  0  0  0  0  0  0  0  0
    7.9187  -23.1862   21.9370 O   0  0  0  0  0  0  0  0  0  0  0  0
    6.0556  -16.2708   24.1028 N   0  0  0  0  0  0  0  0  0  0  0  0
    4.2280  -17.3957   25.1799 N   0  0  0  0  0  0  0  0  0  0  0  0
    5.2563  -17.4361   24.3014 C   0  0  0  0  0  0  0  0  0  0  0  0
    5.5363  -18.5712   23.5931 N   0  0  0  0  0  0  0  0  0  0  0  0
    4.8073  -19.7074   23.7357 C   0  0  0  0  0  0  0  0  0  0  0  0
    3.7317  -19.7100   24.6558 C   0  0  0  0  0  0  0  0  0  0  0  0
    5.1451  -20.8216   23.0040 O   0  0  0  0  0  0  0  0  0  0  0  0
    2.4013  -21.7307   23.8525 C   0  0  0  0  0  0  0  0  0  0  0  0
    2.8504  -20.8410   24.8963 N   0  0  0  0  0  0  0  0  0  0  0  0
    2.4920  -21.4646   22.6588 O   0  0  0  0  0  0  0  0  0  0  0  0
    2.3719  -20.9505   26.2081 C   0  0  2  0  0  0  0  0  0  0  0  0
    1.6244  -19.6494   26.5978 C   0  0  0  0  0  0  0  0  0  0  0  0
    3.4461  -18.5048   25.3718 C   0  0  0  0  0  0  0  0  0  0  0  0
    2.3427  -18.4680   26.3356 N   0  0  0  0  0  0  0  0  0  0  0  0
    3.5068  -21.2193   27.1756 C   0  0  0  0  0  0  0  0  0  0  0  0
    4.1525  -22.4997   27.0879 N   0  0  0  0  0  0  0  0  0  0  0  0
    7.0897  -23.1278   24.1460 C   0  0  0  0  0  0  0  0  0  0  0  0
    5.7946  -23.5762   23.9261 C   0  0  0  0  0  0  0  0  0  0  0  0
    4.8223  -23.3625   24.8956 C   0  0  0  0  0  0  0  0  0  0  0  0
    5.1482  -22.7144   26.0853 C   0  0  0  0  0  0  0  0  0  0  0  0
    6.4433  -22.2787   26.3047 C   0  0  0  0  0  0  0  0  0  0  0  0
    7.4134  -22.4823   25.3307 C   0  0  0  0  0  0  0  0  0  0  0  0
  1  2  1  0  0  0  0
  2  3  2  0  0  0  0
  2 20  1  0  0  0  0
  4  6  1  0  0  0  0
  5  6  2  0  0  0  0
  5 16  1  0  0  0  0
  6  7  1  0  0  0  0
  7  8  1  0  0  0  0
  8  9  1  0  0  0  0
  8 10  2  0  0  0  0
  9 12  1  0  0  0  0
  9 16  2  0  0  0  0
 11 13  1  0  0  0  0
 11 12  1  0  0  0  0
 12 14  1  0  0  0  0
 14 15  1  0  0  0  0
 14 18  1  1  0  0  0
 15 17  1  0  0  0  0
 16 17  1  0  0  0  0
 18 19  1  0  0  0  0
 19 23  1  0  0  0  0
 20 21  2  0  0  0  0
 20 25  1  0  0  0  0
 21 22  1  0  0  0  0
 22 23  2  0  0  0  0
 23 24  1  0  0  0  0
 24 25  2  0  0  0  0
M  END
>  <CHROM.1>
-15.34527172,-68.61592662,80.89634899,-98.69527097,-137.91443382,4.85003953
-20.90176035,24.68013378,-0.66474797,0.52629243,-0.19574648

>  <Name>
ligand

>  <RI>
0

>  <Rbt.Current_Directory>
/home/itssahil/PROJECTS/Mol_Feturizer/New_Systems/rnas/4LVV

>  <Rbt.Executable>
rbdock ($Id: //depot/dev/client3/rdock/2013.1/src/exe/rbdock.cxx#4 $)

>  <Rbt.Library>
libRbt.so (2013.1, Build901 2013/11/27)

>  <Rbt.Parameter_File>
/export/apps/rDock/src/rDock_2013.1_src/data/scripts/dock_solv.prm

>  <Rbt.Receptor>
prm/pocket_docking_4.prm

>  <SCORE>
-12.1394

>  <SCORE.INTER>
-9.36687

>  <SCORE.INTER.CONST>
1

>  <SCORE.INTER.POLAR>
0

>  <SCORE.INTER.ROT>
5

>  <SCORE.INTER.SOLV>
15.9633

>  <SCORE.INTER.VDW>
-18.499

>  <SCORE.INTER.norm>
-0.374675

>  <SCORE.INTRA>
-2.77249

>  <SCORE.INTRA.DIHEDRAL>
0.0530679

>  <SCORE.INTRA.DIHEDRAL.0>
3.94806

>  <SCORE.INTRA.POLAR>
0

>  <SCORE.INTRA.POLAR.0>
0

>  <SCORE.INTRA.REPUL>
0

>  <SCORE.INTRA.REPUL.0>
0

>  <SCORE.INTRA.SOLV>
0.905606

>  <SCORE.INTRA.SOLV.lig_0>
-70.9803

>  <SCORE.INTRA.VDW>
-3.25182

>  <SCORE.INTRA.VDW.0>
-0.709409

>  <SCORE.INTRA.norm>
-0.110899

>  <SCORE.RESTR>
0

>  <SCORE.RESTR.CAVITY>
0

>  <SCORE.RESTR.norm>
0

>  <SCORE.SYSTEM>
0

>  <SCORE.SYSTEM.CONST>
0

>  <SCORE.SYSTEM.DIHEDRAL>
0

>  <SCORE.SYSTEM.SOLV>
0

>  <SCORE.SYSTEM.norm>
0

>  <SCORE.heavy>
25

>  <SCORE.norm>
-0.485574

>  <RMSD>
4.168

$$$$
ligand
 OpenBabel11021811503D
libRbt.so/2013.1/901 2013/11/27
 25 27  0  0  0  0  0  0  0  0999 V2000
    9.1223  -22.0640   22.3117 N   0  0  0  0  0  0  0  0  0  0  0  0
    8.5517  -23.2468   22.8781 C   0  0  0  0  0  0  0  0  0  0  0  0
    8.9567  -24.3556   22.5519 O   0  0  0  0  0  0  0  0  0  0  0  0
    6.1334  -16.7707   23.3066 N   0  0  0  0  0  0  0  0  0  0  0  0
    4.5143  -17.6732   24.8328 N   0  0  0  0  0  0  0  0  0  0  0  0
    5.2669  -17.8268   23.7189 C   0  0  0  0  0  0  0  0  0  0  0  0
    5.2037  -18.9725   22.9760 N   0  0  0  0  0  0  0  0  0  0  0  0
    4.3939  -20.0075   23.3156 C   0  0  0  0  0  0  0  0  0  0  0  0
    3.6011  -19.8914   24.4825 C   0  0  0  0  0  0  0  0  0  0  0  0
    4.3827  -21.1394   22.5349 O   0  0  0  0  0  0  0  0  0  0  0  0
    1.8558  -21.7041   24.0745 C   0  0  0  0  0  0  0  0  0  0  0  0
    2.6713  -20.9037   24.9561 N   0  0  0  0  0  0  0  0  0  0  0  0
    0.9156  -21.2488   23.4322 O   0  0  0  0  0  0  0  0  0  0  0  0
    2.5370  -20.9797   26.3482 C   0  0  2  0  0  0  0  0  0  0  0  0
    2.0923  -19.6017   26.9023 C   0  0  0  0  0  0  0  0  0  0  0  0
    3.6699  -18.6757   25.2335 C   0  0  0  0  0  0  0  0  0  0  0  0
    2.8669  -18.5178   26.4492 N   0  0  0  0  0  0  0  0  0  0  0  0
    3.8376  -21.4149   26.9927 C   0  0  0  0  0  0  0  0  0  0  0  0
    4.3276  -22.7237   26.6596 N   0  0  0  0  0  0  0  0  0  0  0  0
    7.4652  -23.1057   23.8873 C   0  0  0  0  0  0  0  0  0  0  0  0
    7.7285  -22.5999   25.1528 C   0  0  0  0  0  0  0  0  0  0  0  0
    6.6927  -22.4801   26.0713 C   0  0  0  0  0  0  0  0  0  0  0  0
    5.3968  -22.8528   25.7200 C   0  0  0  0  0  0  0  0  0  0  0  0
    5.1371  -23.3465   24.4535 C   0  0  0  0  0  0  0  0  0  0  0  0
    6.1747  -23.4769   23.5383 C   0  0  0  0  0  0  0  0  0  0  0  0
  1  2  1  0  0  0  0
  2  3  2  0  0  0  0
  2 20  1  0  0  0  0
  4  6  1  0  0  0  0
  5  6  2  0  0  0  0
  5 16  1  0  0  0  0
  6  7  1  0  0  0  0
  7  8  1  0  0  0  0
  8  9  1  0  0  0  0
  8 10  2  0  0  0  0
  9 12  1  0  0  0  0
  9 16  2  0  0  0  0
 11 13  1  0  0  0  0
 11 12  1  0  0  0  0
 12 14  1  0  0  0  0
 14 15  1  0  0  0  0
 14 18  1  1  0  0  0
 15 17  1  0  0  0  0
 16 17  1  0  0  0  0
 18 19  1  0  0  0  0
 19 23  1  0  0  0  0
 20 21  2  0  0  0  0
 20 25  1  0  0  0  0
 21 22  1  0  0  0  0
 22 23  2  0  0  0  0
 23 24  1  0  0  0  0
 24 25  2  0  0  0  0
M  END
>  <CHROM.1>
-70.02464037,-63.12803254,102.29017973,71.97497136,-69.52779546,4.88482240
-21.00781877,24.48307048,-0.47915411,0.49130468,-0.26649737

>  <Name>
ligand

>  <RI>
0

>  <Rbt.Current_Directory>
/home/itssahil/PROJECTS/Mol_Feturizer/New_Systems/rnas/4LVV

>  <Rbt.Executable>
rbdock ($Id: //depot/dev/client3/rdock/2013.1/src/exe/rbdock.cxx#4 $)

>  <Rbt.Library>
libRbt.so (2013.1, Build901 2013/11/27)

>  <Rbt.Parameter_File>
/export/apps/rDock/src/rDock_2013.1_src/data/scripts/dock_solv.prm

>  <Rbt.Receptor>
prm/pocket_docking_4.prm

>  <SCORE>
-12.1929

>  <SCORE.INTER>
-9.47189

>  <SCORE.INTER.CONST>
1

>  <SCORE.INTER.POLAR>
0

>  <SCORE.INTER.ROT>
5

>  <SCORE.INTER.SOLV>
14.6844

>  <SCORE.INTER.VDW>
-18.1427

>  <SCORE.INTER.norm>
-0.378875

>  <SCORE.INTRA>
-2.72104

>  <SCORE.INTRA.DIHEDRAL>
0.186329

>  <SCORE.INTRA.DIHEDRAL.0>
3.94806

>  <SCORE.INTRA.POLAR>
0

>  <SCORE.INTRA.POLAR.0>
0

>  <SCORE.INTRA.REPUL>
0

>  <SCORE.INTRA.REPUL.0>
0

>  <SCORE.INTRA.SOLV>
0.275953

>  <SCORE.INTRA.SOLV.lig_0>
-70.9803

>  <SCORE.INTRA.VDW>
-2.95218

>  <SCORE.INTRA.VDW.0>
-0.709409

>  <SCORE.INTRA.norm>
-0.108841

>  <SCORE.RESTR>
0

>  <SCORE.RESTR.CAVITY>
0

>  <SCORE.RESTR.norm>
0

>  <SCORE.SYSTEM>
0

>  <SCORE.SYSTEM.CONST>
0

>  <SCORE.SYSTEM.DIHEDRAL>
0

>  <SCORE.SYSTEM.SOLV>
0

>  <SCORE.SYSTEM.norm>
0

>  <SCORE.heavy>
25

>  <SCORE.norm>
-0.487717

>  <RMSD>
4.173

$$$$
ligand
 OpenBabel11021811503D
libRbt.so/2013.1/901 2013/11/27
 25 27  0  0  0  0  0  0  0  0999 V2000
    8.9158  -22.6262   21.8082 N   0  0  0  0  0  0  0  0  0  0  0  0
    8.6790  -23.4752   22.9345 C   0  0  0  0  0  0  0  0  0  0  0  0
    9.4321  -24.4081   23.1847 O   0  0  0  0  0  0  0  0  0  0  0  0
    5.3885  -17.9230   21.2326 N   0  0  0  0  0  0  0  0  0  0  0  0
    4.2164  -18.1208   23.3188 N   0  0  0  0  0  0  0  0  0  0  0  0
    4.5768  -18.6715   22.1366 C   0  0  0  0  0  0  0  0  0  0  0  0
    4.1682  -19.9287   21.7890 N   0  0  0  0  0  0  0  0  0  0  0  0
    3.3907  -20.6848   22.6052 C   0  0  0  0  0  0  0  0  0  0  0  0
    3.0040  -20.1499   23.8574 C   0  0  0  0  0  0  0  0  0  0  0  0
    3.0215  -21.9476   22.2052 O   0  0  0  0  0  0  0  0  0  0  0  0
    1.0303  -21.6519   24.4463 C   0  0  0  0  0  0  0  0  0  0  0  0
    2.1557  -20.8303   24.8222 N   0  0  0  0  0  0  0  0  0  0  0  0
   -0.1286  -21.3767   24.7380 O   0  0  0  0  0  0  0  0  0  0  0  0
    2.4398  -20.5470   26.1642 C   0  0  2  0  0  0  0  0  0  0  0  0
    2.3357  -19.0191   26.4050 C   0  0  0  0  0  0  0  0  0  0  0  0
    3.4281  -18.8250   24.1913 C   0  0  0  0  0  0  0  0  0  0  0  0
    3.0511  -18.2368   25.4795 N   0  0  0  0  0  0  0  0  0  0  0  0
    3.8186  -21.0498   26.5415 C   0  0  0  0  0  0  0  0  0  0  0  0
    4.1371  -22.4080   26.1976 N   0  0  0  0  0  0  0  0  0  0  0  0
    7.5073  -23.1938   23.8100 C   0  0  0  0  0  0  0  0  0  0  0  0
    7.6805  -22.7113   25.1000 C   0  0  0  0  0  0  0  0  0  0  0  0
    6.5667  -22.4580   25.8914 C   0  0  0  0  0  0  0  0  0  0  0  0
    5.2851  -22.6746   25.3892 C   0  0  0  0  0  0  0  0  0  0  0  0
    5.1171  -23.1456   24.0987 C   0  0  0  0  0  0  0  0  0  0  0  0
    6.2310  -23.4096   23.3108 C   0  0  0  0  0  0  0  0  0  0  0  0
  1  2  1  0  0  0  0
  2  3  2  0  0  0  0
  2 20  1  0  0  0  0
  4  6  1  0  0  0  0
  5  6  2  0  0  0  0
  5 16  1  0  0  0  0
  6  7  1  0  0  0  0
  7  8  1  0  0  0  0
  8  9  1  0  0  0  0
  8 10  2  0  0  0  0
  9 12  1  0  0  0  0
  9 16  2  0  0  0  0
 11 13  1  0  0  0  0
 11 12  1  0  0  0  0
 12 14  1  0  0  0  0
 14 15  1  0  0  0  0
 14 18  1  6  0  0  0
 15 17  1  0  0  0  0
 16 17  1  0  0  0  0
 18 19  1  0  0  0  0
 19 23  1  0  0  0  0
 20 21  2  0  0  0  0
 20 25  1  0  0  0  0
 21 22  1  0  0  0  0
 22 23  2  0  0  0  0
 23 24  1  0  0  0  0
 24 25  2  0  0  0  0
M  END
>  <CHROM.1>
-115.74841724,-49.71685845,123.53297596,68.37773975,-110.03244352,4.55095644
-21.16726525,24.05643903,-0.22377784,0.50190172,-0.74613020

>  <Name>
ligand

>  <RI>
0

>  <Rbt.Current_Directory>
/home/itssahil/PROJECTS/Mol_Feturizer/New_Systems/rnas/4LVV

>  <Rbt.Executable>
rbdock ($Id: //depot/dev/client3/rdock/2013.1/src/exe/rbdock.cxx#4 $)

>  <Rbt.Library>
libRbt.so (2013.1, Build901 2013/11/27)

>  <Rbt.Parameter_File>
/export/apps/rDock/src/rDock_2013.1_src/data/scripts/dock_solv.prm

>  <Rbt.Receptor>
prm/pocket_docking_4.prm

>  <SCORE>
-13.8638

>  <SCORE.INTER>
-12.1298

>  <SCORE.INTER.CONST>
1

>  <SCORE.INTER.POLAR>
0

>  <SCORE.INTER.ROT>
5

>  <SCORE.INTER.SOLV>
14.8805

>  <SCORE.INTER.VDW>
-19.98

>  <SCORE.INTER.norm>
-0.48519

>  <SCORE.INTRA>
-1.734

>  <SCORE.INTRA.DIHEDRAL>
0.850343

>  <SCORE.INTRA.DIHEDRAL.0>
3.94806

>  <SCORE.INTRA.POLAR>
0

>  <SCORE.INTRA.POLAR.0>
0

>  <SCORE.INTRA.REPUL>
0

>  <SCORE.INTRA.REPUL.0>
0

>  <SCORE.INTRA.SOLV>
0.300995

>  <SCORE.INTRA.SOLV.lig_0>
-70.9803

>  <SCORE.INTRA.VDW>
-2.30967

>  <SCORE.INTRA.VDW.0>
-0.709409

>  <SCORE.INTRA.norm>
-0.0693599

>  <SCORE.RESTR>
0

>  <SCORE.RESTR.CAVITY>
0

>  <SCORE.RESTR.norm>
0

>  <SCORE.SYSTEM>
0

>  <SCORE.SYSTEM.CONST>
0

>  <SCORE.SYSTEM.DIHEDRAL>
0

>  <SCORE.SYSTEM.SOLV>
0

>  <SCORE.SYSTEM.norm>
0

>  <SCORE.heavy>
25

>  <SCORE.norm>
-0.55455

>  <RMSD>
4.179

$$$$
ligand
 OpenBabel11021811503D
libRbt.so/2013.1/901 2013/11/27
 25 27  0  0  0  0  0  0  0  0999 V2000
    8.8984  -22.7815   21.7785 N   0  0  0  0  0  0  0  0  0  0  0  0
    8.6855  -23.5421   22.9708 C   0  0  0  0  0  0  0  0  0  0  0  0
    9.4723  -24.4203   23.3022 O   0  0  0  0  0  0  0  0  0  0  0  0
    5.3124  -17.6320   21.3303 N   0  0  0  0  0  0  0  0  0  0  0  0
    4.1292  -17.9534   23.3948 N   0  0  0  0  0  0  0  0  0  0  0  0
    4.5327  -18.4493   22.2022 C   0  0  0  0  0  0  0  0  0  0  0  0
    4.1973  -19.7162   21.8139 N   0  0  0  0  0  0  0  0  0  0  0  0
    3.4530  -20.5367   22.5982 C   0  0  0  0  0  0  0  0  0  0  0  0
    3.0235  -20.0601   23.8599 C   0  0  0  0  0  0  0  0  0  0  0  0
    3.1579  -21.8056   22.1579 O   0  0  0  0  0  0  0  0  0  0  0  0
    1.1282  -21.6835   24.3805 C   0  0  0  0  0  0  0  0  0  0  0  0
    2.2027  -20.8133   24.7940 N   0  0  0  0  0  0  0  0  0  0  0  0
   -0.0397  -21.5124   24.7130 O   0  0  0  0  0  0  0  0  0  0  0  0
    2.4555  -20.5540   26.1470 C   0  0  2  0  0  0  0  0  0  0  0  0
    2.2653  -19.0415   26.4296 C   0  0  0  0  0  0  0  0  0  0  0  0
    3.3707  -18.7243   24.2367 C   0  0  0  0  0  0  0  0  0  0  0  0
    2.9474  -18.1950   25.5360 N   0  0  0  0  0  0  0  0  0  0  0  0
    3.8553  -20.9919   26.5278 C   0  0  0  0  0  0  0  0  0  0  0  0
    4.2032  -22.3632   26.2777 N   0  0  0  0  0  0  0  0  0  0  0  0
    7.4965  -23.2351   23.8139 C   0  0  0  0  0  0  0  0  0  0  0  0
    6.2099  -23.4086   23.3226 C   0  0  0  0  0  0  0  0  0  0  0  0
    5.1215  -23.1139   24.1347 C   0  0  0  0  0  0  0  0  0  0  0  0
    5.3203  -22.6600   25.4370 C   0  0  0  0  0  0  0  0  0  0  0  0
    6.6049  -22.4987   25.9261 C   0  0  0  0  0  0  0  0  0  0  0  0
    7.6936  -22.7827   25.1105 C   0  0  0  0  0  0  0  0  0  0  0  0
  1  2  1  0  0  0  0
  2  3  2  0  0  0  0
  2 20  1  0  0  0  0
  4  6  1  0  0  0  0
  5  6  2  0  0  0  0
  5 16  1  0  0  0  0
  6  7  1  0  0  0  0
  7  8  1  0  0  0  0
  8  9  1  0  0  0  0
  8 10  2  0  0  0  0
  9 12  1  0  0  0  0
  9 16  2  0  0  0  0
 11 13  1  0  0  0  0
 11 12  1  0  0  0  0
 12 14  1  0  0  0  0
 14 15  1  0  0  0  0
 14 18  1  6  0  0  0
 15 17  1  0  0  0  0
 16 17  1  0  0  0  0
 18 19  1  0  0  0  0
 19 23  1  0  0  0  0
 20 21  2  0  0  0  0
 20 25  1  0  0  0  0
 21 22  1  0  0  0  0
 22 23  2  0  0  0  0
 23 24  1  0  0  0  0
 24 25  2  0  0  0  0
M  END
>  <CHROM.1>
-119.01762466,-56.14187482,121.97874270,-104.73936720,63.31225062,4.56269232
-21.12766833,24.07763767,-0.27901582,0.50755599,-0.71632396

>  <Name>
ligand

>  <RI>
0

>  <Rbt.Current_Directory>
/home/itssahil/PROJECTS/Mol_Feturizer/New_Systems/rnas/4LVV

>  <Rbt.Executable>
rbdock ($Id: //depot/dev/client3/rdock/2013.1/src/exe/rbdock.cxx#4 $)

>  <Rbt.Library>
libRbt.so (2013.1, Build901 2013/11/27)

>  <Rbt.Parameter_File>
/export/apps/rDock/src/rDock_2013.1_src/data/scripts/dock_solv.prm

>  <Rbt.Receptor>
prm/pocket_docking_5.prm

>  <SCORE>
-14.0207

>  <SCORE.INTER>
-12.1265

>  <SCORE.INTER.CONST>
1

>  <SCORE.INTER.POLAR>
0

>  <SCORE.INTER.ROT>
5

>  <SCORE.INTER.SOLV>
15.0587

>  <SCORE.INTER.VDW>
-20.0372

>  <SCORE.INTER.norm>
-0.485059

>  <SCORE.INTRA>
-1.89425

>  <SCORE.INTRA.DIHEDRAL>
0.582311

>  <SCORE.INTRA.DIHEDRAL.0>
3.94806

>  <SCORE.INTRA.POLAR>
0

>  <SCORE.INTRA.POLAR.0>
0

>  <SCORE.INTRA.REPUL>
0

>  <SCORE.INTRA.REPUL.0>
0

>  <SCORE.INTRA.SOLV>
0.1372

>  <SCORE.INTRA.SOLV.lig_0>
-70.9803

>  <SCORE.INTRA.VDW>
-2.25401

>  <SCORE.INTRA.VDW.0>
-0.709409

>  <SCORE.INTRA.norm>
-0.0757702

>  <SCORE.RESTR>
0

>  <SCORE.RESTR.CAVITY>
0

>  <SCORE.RESTR.norm>
0

>  <SCORE.SYSTEM>
0

>  <SCORE.SYSTEM.CONST>
0

>  <SCORE.SYSTEM.DIHEDRAL>
0

>  <SCORE.SYSTEM.SOLV>
0

>  <SCORE.SYSTEM.norm>
0

>  <SCORE.heavy>
25

>  <SCORE.norm>
-0.560829

>  <RMSD>
4.182

$$$$
ligand
 OpenBabel11021811503D
libRbt.so/2013.1/901 2013/11/27
 25 27  0  0  0  0  0  0  0  0999 V2000
   10.3988  -24.0544   28.3564 N   0  0  0  0  0  0  0  0  0  0  0  0
   10.1289  -23.1192   27.3086 C   0  0  0  0  0  0  0  0  0  0  0  0
   10.9924  -22.8303   26.4894 O   0  0  0  0  0  0  0  0  0  0  0  0
    6.6679  -16.4016   24.4899 N   0  0  0  0  0  0  0  0  0  0  0  0
    4.7995  -17.5643   25.4503 N   0  0  0  0  0  0  0  0  0  0  0  0
    5.7681  -17.5089   24.5071 C   0  0  0  0  0  0  0  0  0  0  0  0
    5.8931  -18.4906   23.5642 N   0  0  0  0  0  0  0  0  0  0  0  0
    5.0629  -19.5639   23.5275 C   0  0  0  0  0  0  0  0  0  0  0  0
    4.0452  -19.6658   24.5060 C   0  0  0  0  0  0  0  0  0  0  0  0
    5.2461  -20.5254   22.5616 O   0  0  0  0  0  0  0  0  0  0  0  0
    2.4763  -21.3506   23.4114 C   0  0  0  0  0  0  0  0  0  0  0  0
    3.0697  -20.7414   24.5773 N   0  0  0  0  0  0  0  0  0  0  0  0
    2.5333  -20.8534   22.2919 O   0  0  0  0  0  0  0  0  0  0  0  0
    2.6562  -21.0810   25.8717 C   0  0  2  0  0  0  0  0  0  0  0  0
    2.0658  -19.8305   26.5725 C   0  0  0  0  0  0  0  0  0  0  0  0
    3.9221  -18.6170   25.4712 C   0  0  0  0  0  0  0  0  0  0  0  0
    2.8832  -18.6872   26.5024 N   0  0  0  0  0  0  0  0  0  0  0  0
    3.8103  -21.6436   26.6765 C   0  0  0  0  0  0  0  0  0  0  0  0
    4.9514  -20.7920   26.8683 N   0  0  0  0  0  0  0  0  0  0  0  0
    8.7707  -22.5141   27.2204 C   0  0  0  0  0  0  0  0  0  0  0  0
    8.0774  -22.1477   28.3658 C   0  0  0  0  0  0  0  0  0  0  0  0
    6.8123  -21.5848   28.2496 C   0  0  0  0  0  0  0  0  0  0  0  0
    6.2492  -21.3777   26.9919 C   0  0  0  0  0  0  0  0  0  0  0  0
    6.9487  -21.7348   25.8523 C   0  0  0  0  0  0  0  0  0  0  0  0
    8.2093  -22.3080   25.9685 C   0  0  0  0  0  0  0  0  0  0  0  0
  1  2  1  0  0  0  0
  2  3  2  0  0  0  0
  2 20  1  0  0  0  0
  4  6  1  0  0  0  0
  5  6  2  0  0  0  0
  5 16  1  0  0  0  0
  6  7  1  0  0  0  0
  7  8  1  0  0  0  0
  8  9  1  0  0  0  0
  8 10  2  0  0  0  0
  9 12  1  0  0  0  0
  9 16  2  0  0  0  0
 11 13  1  0  0  0  0
 11 12  1  0  0  0  0
 12 14  1  0  0  0  0
 14 15  1  0  0  0  0
 14 18  1  1  0  0  0
 15 17  1  0  0  0  0
 16 17  1  0  0  0  0
 18 19  1  0  0  0  0
 19 23  1  0  0  0  0
 20 21  2  0  0  0  0
 20 25  1  0  0  0  0
 21 22  1  0  0  0  0
 22 23  2  0  0  0  0
 23 24  1  0  0  0  0
 24 25  2  0  0  0  0
M  END
>  <CHROM.1>
-14.92275206,59.90106476,-149.18345991,-98.06596558,38.95113235,5.64827604
-20.59133717,25.59786580,0.63933536,0.08407555,2.52073337

>  <Name>
ligand

>  <RI>
0

>  <Rbt.Current_Directory>
/home/itssahil/PROJECTS/Mol_Feturizer/New_Systems/rnas/4LVV

>  <Rbt.Executable>
rbdock ($Id: //depot/dev/client3/rdock/2013.1/src/exe/rbdock.cxx#4 $)

>  <Rbt.Library>
libRbt.so (2013.1, Build901 2013/11/27)

>  <Rbt.Parameter_File>
/export/apps/rDock/src/rDock_2013.1_src/data/scripts/dock_solv.prm

>  <Rbt.Receptor>
prm/pocket_docking_4.prm

>  <SCORE>
-5.10961

>  <SCORE.INTER>
-4.70833

>  <SCORE.INTER.CONST>
1

>  <SCORE.INTER.POLAR>
0

>  <SCORE.INTER.ROT>
5

>  <SCORE.INTER.SOLV>
10.5667

>  <SCORE.INTER.VDW>
-13.5945

>  <SCORE.INTER.norm>
-0.188333

>  <SCORE.INTRA>
-0.401277

>  <SCORE.INTRA.DIHEDRAL>
0.0446737

>  <SCORE.INTRA.DIHEDRAL.0>
3.94806

>  <SCORE.INTRA.POLAR>
0

>  <SCORE.INTRA.POLAR.0>
0

>  <SCORE.INTRA.REPUL>
0

>  <SCORE.INTRA.REPUL.0>
0

>  <SCORE.INTRA.SOLV>
2.44102

>  <SCORE.INTRA.SOLV.lig_0>
-70.9803

>  <SCORE.INTRA.VDW>
-1.64412

>  <SCORE.INTRA.VDW.0>
-0.709409

>  <SCORE.INTRA.norm>
-0.0160511

>  <SCORE.RESTR>
0

>  <SCORE.RESTR.CAVITY>
0

>  <SCORE.RESTR.norm>
0

>  <SCORE.SYSTEM>
0

>  <SCORE.SYSTEM.CONST>
0

>  <SCORE.SYSTEM.DIHEDRAL>
0

>  <SCORE.SYSTEM.SOLV>
0

>  <SCORE.SYSTEM.norm>
0

>  <SCORE.heavy>
25

>  <SCORE.norm>
-0.204384

>  <RMSD>
4.189

$$$$
ligand
 OpenBabel11021811503D
libRbt.so/2013.1/901 2013/11/27
 25 27  0  0  0  0  0  0  0  0999 V2000
    8.8017  -22.7973   21.6225 N   0  0  0  0  0  0  0  0  0  0  0  0
    8.6694  -23.4966   22.8630 C   0  0  0  0  0  0  0  0  0  0  0  0
    9.5149  -24.3089   23.2172 O   0  0  0  0  0  0  0  0  0  0  0  0
    5.3532  -17.6568   21.3357 N   0  0  0  0  0  0  0  0  0  0  0  0
    4.1777  -17.9711   23.4057 N   0  0  0  0  0  0  0  0  0  0  0  0
    4.5694  -18.4680   22.2096 C   0  0  0  0  0  0  0  0  0  0  0  0
    4.2184  -19.7302   21.8198 N   0  0  0  0  0  0  0  0  0  0  0  0
    3.4696  -20.5449   22.6060 C   0  0  0  0  0  0  0  0  0  0  0  0
    3.0519  -20.0671   23.8712 C   0  0  0  0  0  0  0  0  0  0  0  0
    3.1585  -21.8093   22.1639 O   0  0  0  0  0  0  0  0  0  0  0  0
    1.1422  -21.6714   24.3977 C   0  0  0  0  0  0  0  0  0  0  0  0
    2.2282  -20.8139   24.8078 N   0  0  0  0  0  0  0  0  0  0  0  0
   -0.0274  -21.4660   24.7037 O   0  0  0  0  0  0  0  0  0  0  0  0
    2.4910  -20.5610   26.1600 C   0  0  2  0  0  0  0  0  0  0  0  0
    2.3186  -19.0473   26.4477 C   0  0  0  0  0  0  0  0  0  0  0  0
    3.4155  -18.7361   24.2496 C   0  0  0  0  0  0  0  0  0  0  0  0
    3.0049  -18.2058   25.5526 N   0  0  0  0  0  0  0  0  0  0  0  0
    3.8881  -21.0149   26.5321 C   0  0  0  0  0  0  0  0  0  0  0  0
    4.2299  -22.3813   26.2487 N   0  0  0  0  0  0  0  0  0  0  0  0
    7.4912  -23.2066   23.7270 C   0  0  0  0  0  0  0  0  0  0  0  0
    6.1989  -23.4042   23.2605 C   0  0  0  0  0  0  0  0  0  0  0  0
    5.1209  -23.1249   24.0917 C   0  0  0  0  0  0  0  0  0  0  0  0
    5.3360  -22.6623   25.3884 C   0  0  0  0  0  0  0  0  0  0  0  0
    6.6265  -22.4771   25.8527 C   0  0  0  0  0  0  0  0  0  0  0  0
    7.7047  -22.7457   25.0180 C   0  0  0  0  0  0  0  0  0  0  0  0
  1  2  1  0  0  0  0
  2  3  2  0  0  0  0
  2 20  1  0  0  0  0
  4  6  1  0  0  0  0
  5  6  2  0  0  0  0
  5 16  1  0  0  0  0
  6  7  1  0  0  0  0
  7  8  1  0  0  0  0
  8  9  1  0  0  0  0
  8 10  2  0  0  0  0
  9 12  1  0  0  0  0
  9 16  2  0  0  0  0
 11 13  1  0  0  0  0
 11 12  1  0  0  0  0
 12 14  1  0  0  0  0
 14 15  1  0  0  0  0
 14 18  1  6  0  0  0
 15 17  1  0  0  0  0
 16 17  1  0  0  0  0
 18 19  1  0  0  0  0
 19 23  1  0  0  0  0
 20 21  2  0  0  0  0
 20 25  1  0  0  0  0
 21 22  1  0  0  0  0
 22 23  2  0  0  0  0
 23 24  1  0  0  0  0
 24 25  2  0  0  0  0
M  END
>  <CHROM.1>
-116.74367535,-54.77141081,121.15075722,-106.59538267,59.39441258,4.58126332
-21.12270730,24.05289375,-0.25588018,0.51713115,-0.71469668

>  <Name>
ligand

>  <RI>
0

>  <Rbt.Current_Directory>
/home/itssahil/PROJECTS/Mol_Feturizer/New_Systems/rnas/4LVV

>  <Rbt.Executable>
rbdock ($Id: //depot/dev/client3/rdock/2013.1/src/exe/rbdock.cxx#4 $)

>  <Rbt.Library>
libRbt.so (2013.1, Build901 2013/11/27)

>  <Rbt.Parameter_File>
/export/apps/rDock/src/rDock_2013.1_src/data/scripts/dock_solv.prm

>  <Rbt.Receptor>
prm/pocket_docking_5.prm

>  <SCORE>
-14.0281

>  <SCORE.INTER>
-12.152

>  <SCORE.INTER.CONST>
1

>  <SCORE.INTER.POLAR>
0

>  <SCORE.INTER.ROT>
5

>  <SCORE.INTER.SOLV>
14.6277

>  <SCORE.INTER.VDW>
-19.9106

>  <SCORE.INTER.norm>
-0.486081

>  <SCORE.INTRA>
-1.87608

>  <SCORE.INTRA.DIHEDRAL>
0.604198

>  <SCORE.INTRA.DIHEDRAL.0>
3.94806

>  <SCORE.INTRA.POLAR>
0

>  <SCORE.INTRA.POLAR.0>
0

>  <SCORE.INTRA.REPUL>
0

>  <SCORE.INTRA.REPUL.0>
0

>  <SCORE.INTRA.SOLV>
0.181954

>  <SCORE.INTRA.SOLV.lig_0>
-70.9803

>  <SCORE.INTRA.VDW>
-2.26916

>  <SCORE.INTRA.VDW.0>
-0.709409

>  <SCORE.INTRA.norm>
-0.0750434

>  <SCORE.RESTR>
0

>  <SCORE.RESTR.CAVITY>
0

>  <SCORE.RESTR.norm>
0

>  <SCORE.SYSTEM>
0

>  <SCORE.SYSTEM.CONST>
0

>  <SCORE.SYSTEM.DIHEDRAL>
0

>  <SCORE.SYSTEM.SOLV>
0

>  <SCORE.SYSTEM.norm>
0

>  <SCORE.heavy>
25

>  <SCORE.norm>
-0.561124

>  <RMSD>
4.192

$$$$
ligand
 OpenBabel11021811503D
libRbt.so/2013.1/901 2013/11/27
 25 27  0  0  0  0  0  0  0  0999 V2000
    9.5799  -22.1919   22.6845 N   0  0  0  0  0  0  0  0  0  0  0  0
    8.7422  -23.3235   22.9359 C   0  0  0  0  0  0  0  0  0  0  0  0
    9.0194  -24.4230   22.4728 O   0  0  0  0  0  0  0  0  0  0  0  0
    6.4142  -17.8581   22.1916 N   0  0  0  0  0  0  0  0  0  0  0  0
    5.0522  -18.1369   24.1493 N   0  0  0  0  0  0  0  0  0  0  0  0
    5.4286  -18.5811   22.9279 C   0  0  0  0  0  0  0  0  0  0  0  0
    4.8734  -19.7049   22.3827 N   0  0  0  0  0  0  0  0  0  0  0  0
    3.9278  -20.4295   23.0334 C   0  0  0  0  0  0  0  0  0  0  0  0
    3.5174  -20.0056   24.3201 C   0  0  0  0  0  0  0  0  0  0  0  0
    3.4151  -21.5582   22.4383 O   0  0  0  0  0  0  0  0  0  0  0  0
    1.3040  -21.2465   24.5645 C   0  0  0  0  0  0  0  0  0  0  0  0
    2.5003  -20.6641   25.1235 N   0  0  0  0  0  0  0  0  0  0  0  0
    1.2939  -22.3202   23.9722 O   0  0  0  0  0  0  0  0  0  0  0  0
    2.7070  -20.6022   26.5074 C   0  0  2  0  0  0  0  0  0  0  0  0
    2.8050  -19.1201   26.9514 C   0  0  0  0  0  0  0  0  0  0  0  0
    4.0988  -18.8161   24.8621 C   0  0  0  0  0  0  0  0  0  0  0  0
    3.7024  -18.3462   26.1924 N   0  0  0  0  0  0  0  0  0  0  0  0
    3.9612  -21.3567   26.8999 C   0  0  0  0  0  0  0  0  0  0  0  0
    4.1819  -22.6307   26.2735 N   0  0  0  0  0  0  0  0  0  0  0  0
    7.5329  -23.1448   23.7870 C   0  0  0  0  0  0  0  0  0  0  0  0
    6.2667  -23.4328   23.2965 C   0  0  0  0  0  0  0  0  0  0  0  0
    5.1586  -23.2563   24.1162 C   0  0  0  0  0  0  0  0  0  0  0  0
    5.3187  -22.8060   25.4251 C   0  0  0  0  0  0  0  0  0  0  0  0
    6.5841  -22.5304   25.9132 C   0  0  0  0  0  0  0  0  0  0  0  0
    7.6915  -22.6962   25.0902 C   0  0  0  0  0  0  0  0  0  0  0  0
  1  2  1  0  0  0  0
  2  3  2  0  0  0  0
  2 20  1  0  0  0  0
  4  6  1  0  0  0  0
  5  6  2  0  0  0  0
  5 16  1  0  0  0  0
  6  7  1  0  0  0  0
  7  8  1  0  0  0  0
  8  9  1  0  0  0  0
  8 10  2  0  0  0  0
  9 12  1  0  0  0  0
  9 16  2  0  0  0  0
 11 13  1  0  0  0  0
 11 12  1  0  0  0  0
 12 14  1  0  0  0  0
 14 15  1  0  0  0  0
 14 18  1  6  0  0  0
 15 17  1  0  0  0  0
 16 17  1  0  0  0  0
 18 19  1  0  0  0  0
 19 23  1  0  0  0  0
 20 21  2  0  0  0  0
 20 25  1  0  0  0  0
 21 22  1  0  0  0  0
 22 23  2  0  0  0  0
 23 24  1  0  0  0  0
 24 25  2  0  0  0  0
M  END
>  <CHROM.1>
76.37872873,-42.87571352,116.18154647,-124.93617840,121.16130170,4.94653204
-21.16051703,24.32182675,-0.35559168,0.49782857,-0.32979984

>  <Name>
ligand

>  <RI>
0

>  <Rbt.Current_Directory>
/home/itssahil/PROJECTS/Mol_Feturizer/New_Systems/rnas/4LVV

>  <Rbt.Executable>
rbdock ($Id: //depot/dev/client3/rdock/2013.1/src/exe/rbdock.cxx#4 $)

>  <Rbt.Library>
libRbt.so (2013.1, Build901 2013/11/27)

>  <Rbt.Parameter_File>
/export/apps/rDock/src/rDock_2013.1_src/data/scripts/dock_solv.prm

>  <Rbt.Receptor>
prm/pocket_docking_4.prm

>  <SCORE>
-10.6685

>  <SCORE.INTER>
-9.32015

>  <SCORE.INTER.CONST>
1

>  <SCORE.INTER.POLAR>
0

>  <SCORE.INTER.ROT>
5

>  <SCORE.INTER.SOLV>
13.043

>  <SCORE.INTER.VDW>
-17.4944

>  <SCORE.INTER.norm>
-0.372806

>  <SCORE.INTRA>
-1.34832

>  <SCORE.INTRA.DIHEDRAL>
1.60382

>  <SCORE.INTRA.DIHEDRAL.0>
3.94806

>  <SCORE.INTRA.POLAR>
0

>  <SCORE.INTRA.POLAR.0>
0

>  <SCORE.INTRA.REPUL>
0

>  <SCORE.INTRA.REPUL.0>
0

>  <SCORE.INTRA.SOLV>
1.22074

>  <SCORE.INTRA.SOLV.lig_0>
-70.9803

>  <SCORE.INTRA.VDW>
-2.7606

>  <SCORE.INTRA.VDW.0>
-0.709409

>  <SCORE.INTRA.norm>
-0.053933

>  <SCORE.RESTR>
0

>  <SCORE.RESTR.CAVITY>
0

>  <SCORE.RESTR.norm>
0

>  <SCORE.SYSTEM>
0

>  <SCORE.SYSTEM.CONST>
0

>  <SCORE.SYSTEM.DIHEDRAL>
0

>  <SCORE.SYSTEM.SOLV>
0

>  <SCORE.SYSTEM.norm>
0

>  <SCORE.heavy>
25

>  <SCORE.norm>
-0.426739

>  <RMSD>
4.196

$$$$
ligand
 OpenBabel11021811503D
libRbt.so/2013.1/901 2013/11/27
 25 27  0  0  0  0  0  0  0  0999 V2000
    8.7270  -22.0882   22.2933 N   0  0  0  0  0  0  0  0  0  0  0  0
    8.3738  -23.2139   23.1016 C   0  0  0  0  0  0  0  0  0  0  0  0
    8.9506  -24.2861   22.9684 O   0  0  0  0  0  0  0  0  0  0  0  0
    6.1535  -16.7450   23.5503 N   0  0  0  0  0  0  0  0  0  0  0  0
    4.4292  -17.6389   24.9620 N   0  0  0  0  0  0  0  0  0  0  0  0
    5.2786  -17.8090   23.9226 C   0  0  0  0  0  0  0  0  0  0  0  0
    5.3057  -18.9791   23.2165 N   0  0  0  0  0  0  0  0  0  0  0  0
    4.4931  -20.0230   23.5206 C   0  0  0  0  0  0  0  0  0  0  0  0
    3.5999  -19.8897   24.6106 C   0  0  0  0  0  0  0  0  0  0  0  0
    4.5750  -21.1793   22.7809 O   0  0  0  0  0  0  0  0  0  0  0  0
    1.9377  -21.7583   24.1166 C   0  0  0  0  0  0  0  0  0  0  0  0
    2.6557  -20.9096   25.0370 N   0  0  0  0  0  0  0  0  0  0  0  0
    0.9607  -21.3811   23.4787 O   0  0  0  0  0  0  0  0  0  0  0  0
    2.4032  -20.9443   26.4142 C   0  0  2  0  0  0  0  0  0  0  0  0
    1.8812  -19.5610   26.8808 C   0  0  0  0  0  0  0  0  0  0  0  0
    3.5761  -18.6492   25.3228 C   0  0  0  0  0  0  0  0  0  0  0  0
    2.6676  -18.4729   26.4591 N   0  0  0  0  0  0  0  0  0  0  0  0
    3.6526  -21.3254   27.1823 C   0  0  0  0  0  0  0  0  0  0  0  0
    4.2026  -22.6290   26.9325 N   0  0  0  0  0  0  0  0  0  0  0  0
    7.3013  -23.0543   24.1229 C   0  0  0  0  0  0  0  0  0  0  0  0
    7.5637  -22.4488   25.3441 C   0  0  0  0  0  0  0  0  0  0  0  0
    6.5411  -22.3143   26.2753 C   0  0  0  0  0  0  0  0  0  0  0  0
    5.2586  -22.7725   25.9802 C   0  0  0  0  0  0  0  0  0  0  0  0
    4.9992  -23.3659   24.7571 C   0  0  0  0  0  0  0  0  0  0  0  0
    6.0242  -23.5105   23.8299 C   0  0  0  0  0  0  0  0  0  0  0  0
  1  2  1  0  0  0  0
  2  3  2  0  0  0  0
  2 20  1  0  0  0  0
  4  6  1  0  0  0  0
  5  6  2  0  0  0  0
  5 16  1  0  0  0  0
  6  7  1  0  0  0  0
  7  8  1  0  0  0  0
  8  9  1  0  0  0  0
  8 10  2  0  0  0  0
  9 12  1  0  0  0  0
  9 16  2  0  0  0  0
 11 13  1  0  0  0  0
 11 12  1  0  0  0  0
 12 14  1  0  0  0  0
 14 15  1  0  0  0  0
 14 18  1  1  0  0  0
 15 17  1  0  0  0  0
 16 17  1  0  0  0  0
 18 19  1  0  0  0  0
 19 23  1  0  0  0  0
 20 21  2  0  0  0  0
 20 25  1  0  0  0  0
 21 22  1  0  0  0  0
 22 23  2  0  0  0  0
 23 24  1  0  0  0  0
 24 25  2  0  0  0  0
M  END
>  <CHROM.1>
-77.53307617,-62.83474491,95.43160273,72.14935528,-79.27198031,4.80960537
-20.98477626,24.65302419,-0.49821194,0.48010933,-0.24515104

>  <Name>
ligand

>  <RI>
0

>  <Rbt.Current_Directory>
/home/itssahil/PROJECTS/Mol_Feturizer/New_Systems/rnas/4LVV

>  <Rbt.Executable>
rbdock ($Id: //depot/dev/client3/rdock/2013.1/src/exe/rbdock.cxx#4 $)

>  <Rbt.Library>
libRbt.so (2013.1, Build901 2013/11/27)

>  <Rbt.Parameter_File>
/export/apps/rDock/src/rDock_2013.1_src/data/scripts/dock_solv.prm

>  <Rbt.Receptor>
prm/pocket_docking_4.prm

>  <SCORE>
-12.7104

>  <SCORE.INTER>
-9.6229

>  <SCORE.INTER.CONST>
1

>  <SCORE.INTER.POLAR>
0

>  <SCORE.INTER.ROT>
5

>  <SCORE.INTER.SOLV>
15.367

>  <SCORE.INTER.VDW>
-18.4709

>  <SCORE.INTER.norm>
-0.384916

>  <SCORE.INTRA>
-3.08747

>  <SCORE.INTRA.DIHEDRAL>
-0.0632354

>  <SCORE.INTRA.DIHEDRAL.0>
3.94806

>  <SCORE.INTRA.POLAR>
0

>  <SCORE.INTRA.POLAR.0>
0

>  <SCORE.INTRA.REPUL>
0

>  <SCORE.INTRA.REPUL.0>
0

>  <SCORE.INTRA.SOLV>
0.398738

>  <SCORE.INTRA.SOLV.lig_0>
-70.9803

>  <SCORE.INTRA.VDW>
-3.25523

>  <SCORE.INTRA.VDW.0>
-0.709409

>  <SCORE.INTRA.norm>
-0.123499

>  <SCORE.RESTR>
0

>  <SCORE.RESTR.CAVITY>
0

>  <SCORE.RESTR.norm>
0

>  <SCORE.SYSTEM>
0

>  <SCORE.SYSTEM.CONST>
0

>  <SCORE.SYSTEM.DIHEDRAL>
0

>  <SCORE.SYSTEM.SOLV>
0

>  <SCORE.SYSTEM.norm>
0

>  <SCORE.heavy>
25

>  <SCORE.norm>
-0.508415

>  <RMSD>
4.196

$$$$
ligand
 OpenBabel11021811503D
libRbt.so/2013.1/901 2013/11/27
 25 27  0  0  0  0  0  0  0  0999 V2000
    9.3558  -23.9703   23.3056 N   0  0  0  0  0  0  0  0  0  0  0  0
    8.1318  -23.2882   23.0191 C   0  0  0  0  0  0  0  0  0  0  0  0
    7.8844  -22.8954   21.8857 O   0  0  0  0  0  0  0  0  0  0  0  0
    6.0280  -16.3600   23.9806 N   0  0  0  0  0  0  0  0  0  0  0  0
    4.2734  -17.4527   25.2024 N   0  0  0  0  0  0  0  0  0  0  0  0
    5.2362  -17.5152   24.2537 C   0  0  0  0  0  0  0  0  0  0  0  0
    5.4565  -18.6633   23.5453 N   0  0  0  0  0  0  0  0  0  0  0  0
    4.7310  -19.7908   23.7571 C   0  0  0  0  0  0  0  0  0  0  0  0
    3.7237  -19.7703   24.7513 C   0  0  0  0  0  0  0  0  0  0  0  0
    5.0075  -20.9189   23.0209 O   0  0  0  0  0  0  0  0  0  0  0  0
    2.3243  -21.7914   24.0764 C   0  0  0  0  0  0  0  0  0  0  0  0
    2.8533  -20.8899   25.0716 N   0  0  0  0  0  0  0  0  0  0  0  0
    1.3300  -21.5401   23.4041 O   0  0  0  0  0  0  0  0  0  0  0  0
    2.4686  -20.9754   26.4156 C   0  0  2  0  0  0  0  0  0  0  0  0
    1.7605  -19.6622   26.8370 C   0  0  0  0  0  0  0  0  0  0  0  0
    3.4988  -18.5520   25.4668 C   0  0  0  0  0  0  0  0  0  0  0  0
    2.4671  -18.4911   26.5058 N   0  0  0  0  0  0  0  0  0  0  0  0
    3.6674  -21.2393   27.3042 C   0  0  0  0  0  0  0  0  0  0  0  0
    4.3130  -22.5158   27.1707 N   0  0  0  0  0  0  0  0  0  0  0  0
    7.1531  -23.0787   24.1222 C   0  0  0  0  0  0  0  0  0  0  0  0
    7.5189  -22.4112   25.2830 C   0  0  0  0  0  0  0  0  0  0  0  0
    6.5821  -22.2312   26.2933 C   0  0  0  0  0  0  0  0  0  0  0  0
    5.2813  -22.7059   26.1368 C   0  0  0  0  0  0  0  0  0  0  0  0
    4.9182  -23.3613   24.9732 C   0  0  0  0  0  0  0  0  0  0  0  0
    5.8579  -23.5513   23.9672 C   0  0  0  0  0  0  0  0  0  0  0  0
  1  2  1  0  0  0  0
  2  3  2  0  0  0  0
  2 20  1  0  0  0  0
  4  6  1  0  0  0  0
  5  6  2  0  0  0  0
  5 16  1  0  0  0  0
  6  7  1  0  0  0  0
  7  8  1  0  0  0  0
  8  9  1  0  0  0  0
  8 10  2  0  0  0  0
  9 12  1  0  0  0  0
  9 16  2  0  0  0  0
 11 13  1  0  0  0  0
 11 12  1  0  0  0  0
 12 14  1  0  0  0  0
 14 15  1  0  0  0  0
 14 18  1  1  0  0  0
 15 17  1  0  0  0  0
 16 17  1  0  0  0  0
 18 19  1  0  0  0  0
 19 23  1  0  0  0  0
 20 21  2  0  0  0  0
 20 25  1  0  0  0  0
 21 22  1  0  0  0  0
 22 23  2  0  0  0  0
 23 24  1  0  0  0  0
 24 25  2  0  0  0  0
M  END
>  <CHROM.1>
-82.33622906,-67.33222066,83.47039437,79.16131478,56.87839957,4.82317174
-20.92473580,24.75315259,-0.60766223,0.51913696,-0.18846468

>  <Name>
ligand

>  <RI>
0

>  <Rbt.Current_Directory>
/home/itssahil/PROJECTS/Mol_Feturizer/New_Systems/rnas/4LVV

>  <Rbt.Executable>
rbdock ($Id: //depot/dev/client3/rdock/2013.1/src/exe/rbdock.cxx#4 $)

>  <Rbt.Library>
libRbt.so (2013.1, Build901 2013/11/27)

>  <Rbt.Parameter_File>
/export/apps/rDock/src/rDock_2013.1_src/data/scripts/dock_solv.prm

>  <Rbt.Receptor>
prm/pocket_docking_4.prm

>  <SCORE>
-12.5558

>  <SCORE.INTER>
-9.42053

>  <SCORE.INTER.CONST>
1

>  <SCORE.INTER.POLAR>
0

>  <SCORE.INTER.ROT>
5

>  <SCORE.INTER.SOLV>
15.9016

>  <SCORE.INTER.VDW>
-18.5142

>  <SCORE.INTER.norm>
-0.376821

>  <SCORE.INTRA>
-3.13522

>  <SCORE.INTRA.DIHEDRAL>
-0.270508

>  <SCORE.INTRA.DIHEDRAL.0>
3.94806

>  <SCORE.INTRA.POLAR>
0

>  <SCORE.INTRA.POLAR.0>
0

>  <SCORE.INTRA.REPUL>
0

>  <SCORE.INTRA.REPUL.0>
0

>  <SCORE.INTRA.SOLV>
0.689679

>  <SCORE.INTRA.SOLV.lig_0>
-70.9803

>  <SCORE.INTRA.VDW>
-3.34481

>  <SCORE.INTRA.VDW.0>
-0.709409

>  <SCORE.INTRA.norm>
-0.125409

>  <SCORE.RESTR>
0

>  <SCORE.RESTR.CAVITY>
0

>  <SCORE.RESTR.norm>
0

>  <SCORE.SYSTEM>
0

>  <SCORE.SYSTEM.CONST>
0

>  <SCORE.SYSTEM.DIHEDRAL>
0

>  <SCORE.SYSTEM.SOLV>
0

>  <SCORE.SYSTEM.norm>
0

>  <SCORE.heavy>
25

>  <SCORE.norm>
-0.50223

>  <RMSD>
4.203

$$$$
ligand
 OpenBabel11021811503D
libRbt.so/2013.1/901 2013/11/27
 25 27  0  0  0  0  0  0  0  0999 V2000
    8.6958  -22.1006   22.3005 N   0  0  0  0  0  0  0  0  0  0  0  0
    8.3374  -23.2280   23.1042 C   0  0  0  0  0  0  0  0  0  0  0  0
    8.9001  -24.3059   22.9572 O   0  0  0  0  0  0  0  0  0  0  0  0
    6.1740  -16.5828   23.8101 N   0  0  0  0  0  0  0  0  0  0  0  0
    4.4162  -17.5587   25.1228 N   0  0  0  0  0  0  0  0  0  0  0  0
    5.3127  -17.6785   24.1165 C   0  0  0  0  0  0  0  0  0  0  0  0
    5.4005  -18.8277   23.3816 N   0  0  0  0  0  0  0  0  0  0  0  0
    4.6037  -19.8998   23.6230 C   0  0  0  0  0  0  0  0  0  0  0  0
    3.6623  -19.8192   24.6770 C   0  0  0  0  0  0  0  0  0  0  0  0
    4.7473  -21.0328   22.8572 O   0  0  0  0  0  0  0  0  0  0  0  0
    2.0725  -21.7150   24.0633 C   0  0  0  0  0  0  0  0  0  0  0  0
    2.7284  -20.8741   25.0356 N   0  0  0  0  0  0  0  0  0  0  0  0
    1.0439  -21.3901   23.4800 O   0  0  0  0  0  0  0  0  0  0  0  0
    2.4192  -20.9530   26.3994 C   0  0  2  0  0  0  0  0  0  0  0  0
    1.8417  -19.5968   26.8796 C   0  0  0  0  0  0  0  0  0  0  0  0
    3.5758  -18.5997   25.4201 C   0  0  0  0  0  0  0  0  0  0  0  0
    2.6160  -18.4778   26.5207 N   0  0  0  0  0  0  0  0  0  0  0  0
    3.6449  -21.3233   27.2098 C   0  0  0  0  0  0  0  0  0  0  0  0
    4.2125  -22.6233   26.9817 N   0  0  0  0  0  0  0  0  0  0  0  0
    7.2773  -23.0634   24.1375 C   0  0  0  0  0  0  0  0  0  0  0  0
    7.5566  -22.4602   25.3560 C   0  0  0  0  0  0  0  0  0  0  0  0
    6.5452  -22.3210   26.2987 C   0  0  0  0  0  0  0  0  0  0  0  0
    5.2570  -22.7718   26.0176 C   0  0  0  0  0  0  0  0  0  0  0  0
    4.9808  -23.3629   24.7970 C   0  0  0  0  0  0  0  0  0  0  0  0
    5.9946  -23.5124   23.8584 C   0  0  0  0  0  0  0  0  0  0  0  0
  1  2  1  0  0  0  0
  2  3  2  0  0  0  0
  2 20  1  0  0  0  0
  4  6  1  0  0  0  0
  5  6  2  0  0  0  0
  5 16  1  0  0  0  0
  6  7  1  0  0  0  0
  7  8  1  0  0  0  0
  8  9  1  0  0  0  0
  8 10  2  0  0  0  0
  9 12  1  0  0  0  0
  9 16  2  0  0  0  0
 11 13  1  0  0  0  0
 11 12  1  0  0  0  0
 12 14  1  0  0  0  0
 14 15  1  0  0  0  0
 14 18  1  1  0  0  0
 15 17  1  0  0  0  0
 16 17  1  0  0  0  0
 18 19  1  0  0  0  0
 19 23  1  0  0  0  0
 20 21  2  0  0  0  0
 20 25  1  0  0  0  0
 21 22  1  0  0  0  0
 22 23  2  0  0  0  0
 23 24  1  0  0  0  0
 24 25  2  0  0  0  0
M  END
>  <CHROM.1>
-84.17911745,-64.88644559,92.40109720,73.99060049,-78.74438239,4.83142409
-20.94946479,24.70628363,-0.54923441,0.47670660,-0.19491869

>  <Name>
ligand

>  <RI>
0

>  <Rbt.Current_Directory>
/home/itssahil/PROJECTS/Mol_Feturizer/New_Systems/rnas/4LVV

>  <Rbt.Executable>
rbdock ($Id: //depot/dev/client3/rdock/2013.1/src/exe/rbdock.cxx#4 $)

>  <Rbt.Library>
libRbt.so (2013.1, Build901 2013/11/27)

>  <Rbt.Parameter_File>
/export/apps/rDock/src/rDock_2013.1_src/data/scripts/dock_solv.prm

>  <Rbt.Receptor>
prm/pocket_docking_5.prm

>  <SCORE>
-12.812

>  <SCORE.INTER>
-9.65682

>  <SCORE.INTER.CONST>
1

>  <SCORE.INTER.POLAR>
0

>  <SCORE.INTER.ROT>
5

>  <SCORE.INTER.SOLV>
15.5117

>  <SCORE.INTER.VDW>
-18.5418

>  <SCORE.INTER.norm>
-0.386273

>  <SCORE.INTRA>
-3.15516

>  <SCORE.INTRA.DIHEDRAL>
-0.11957

>  <SCORE.INTRA.DIHEDRAL.0>
3.94806

>  <SCORE.INTRA.POLAR>
0

>  <SCORE.INTRA.POLAR.0>
0

>  <SCORE.INTRA.REPUL>
0

>  <SCORE.INTRA.REPUL.0>
0

>  <SCORE.INTRA.SOLV>
0.447392

>  <SCORE.INTRA.SOLV.lig_0>
-70.9803

>  <SCORE.INTRA.VDW>
-3.31907

>  <SCORE.INTRA.VDW.0>
-0.709409

>  <SCORE.INTRA.norm>
-0.126207

>  <SCORE.RESTR>
0

>  <SCORE.RESTR.CAVITY>
0

>  <SCORE.RESTR.norm>
0

>  <SCORE.SYSTEM>
0

>  <SCORE.SYSTEM.CONST>
0

>  <SCORE.SYSTEM.DIHEDRAL>
0

>  <SCORE.SYSTEM.SOLV>
0

>  <SCORE.SYSTEM.norm>
0

>  <SCORE.heavy>
25

>  <SCORE.norm>
-0.512479

>  <RMSD>
4.205

$$$$
ligand
 OpenBabel11021811503D
libRbt.so/2013.1/901 2013/11/27
 25 27  0  0  0  0  0  0  0  0999 V2000
    8.8631  -22.0564   22.4087 N   0  0  0  0  0  0  0  0  0  0  0  0
    8.4255  -23.2192   23.1170 C   0  0  0  0  0  0  0  0  0  0  0  0
    8.9291  -24.3136   22.8959 O   0  0  0  0  0  0  0  0  0  0  0  0
    6.4179  -16.4807   24.2290 N   0  0  0  0  0  0  0  0  0  0  0  0
    4.5743  -17.5280   25.3557 N   0  0  0  0  0  0  0  0  0  0  0  0
    5.5462  -17.5947   24.4167 C   0  0  0  0  0  0  0  0  0  0  0  0
    5.7009  -18.7072   23.6377 N   0  0  0  0  0  0  0  0  0  0  0  0
    4.8982  -19.7942   23.7668 C   0  0  0  0  0  0  0  0  0  0  0  0
    3.8783  -19.7693   24.7480 C   0  0  0  0  0  0  0  0  0  0  0  0
    5.1107  -20.8889   22.9621 O   0  0  0  0  0  0  0  0  0  0  0  0
    2.3582  -21.6433   23.9259 C   0  0  0  0  0  0  0  0  0  0  0  0
    2.9298  -20.8455   24.9840 N   0  0  0  0  0  0  0  0  0  0  0  0
    1.2631  -21.4096   23.4260 O   0  0  0  0  0  0  0  0  0  0  0  0
    2.5181  -20.9908   26.3149 C   0  0  2  0  0  0  0  0  0  0  0  0
    1.8926  -19.6624   26.8123 C   0  0  0  0  0  0  0  0  0  0  0  0
    3.7236  -18.5870   25.5385 C   0  0  0  0  0  0  0  0  0  0  0  0
    2.6814  -18.5231   26.5667 N   0  0  0  0  0  0  0  0  0  0  0  0
    3.6818  -21.3919   27.1988 C   0  0  0  0  0  0  0  0  0  0  0  0
    4.2652  -22.6842   26.9669 N   0  0  0  0  0  0  0  0  0  0  0  0
    7.3559  -23.0729   24.1433 C   0  0  0  0  0  0  0  0  0  0  0  0
    7.6203  -22.4777   25.3691 C   0  0  0  0  0  0  0  0  0  0  0  0
    6.6004  -22.3554   26.3049 C   0  0  0  0  0  0  0  0  0  0  0  0
    5.3185  -22.8152   26.0098 C   0  0  0  0  0  0  0  0  0  0  0  0
    5.0571  -23.3983   24.7821 C   0  0  0  0  0  0  0  0  0  0  0  0
    6.0795  -23.5307   23.8503 C   0  0  0  0  0  0  0  0  0  0  0  0
  1  2  1  0  0  0  0
  2  3  2  0  0  0  0
  2 20  1  0  0  0  0
  4  6  1  0  0  0  0
  5  6  2  0  0  0  0
  5 16  1  0  0  0  0
  6  7  1  0  0  0  0
  7  8  1  0  0  0  0
  8  9  1  0  0  0  0
  8 10  2  0  0  0  0
  9 12  1  0  0  0  0
  9 16  2  0  0  0  0
 11 13  1  0  0  0  0
 11 12  1  0  0  0  0
 12 14  1  0  0  0  0
 14 15  1  0  0  0  0
 14 18  1  1  0  0  0
 15 17  1  0  0  0  0
 16 17  1  0  0  0  0
 18 19  1  0  0  0  0
 19 23  1  0  0  0  0
 20 21  2  0  0  0  0
 20 25  1  0  0  0  0
 21 22  1  0  0  0  0
 22 23  2  0  0  0  0
 23 24  1  0  0  0  0
 24 25  2  0  0  0  0
M  END
>  <CHROM.1>
-96.16022666,-65.75005459,88.25241792,74.16450444,-73.25546821,4.98080834
-20.93503856,24.75833852,-0.61017621,0.44449010,-0.09592440

>  <Name>
ligand

>  <RI>
0

>  <Rbt.Current_Directory>
/home/itssahil/PROJECTS/Mol_Feturizer/New_Systems/rnas/4LVV

>  <Rbt.Executable>
rbdock ($Id: //depot/dev/client3/rdock/2013.1/src/exe/rbdock.cxx#4 $)

>  <Rbt.Library>
libRbt.so (2013.1, Build901 2013/11/27)

>  <Rbt.Parameter_File>
/export/apps/rDock/src/rDock_2013.1_src/data/scripts/dock_solv.prm

>  <Rbt.Receptor>
prm/pocket_docking_6.prm

>  <SCORE>
-12.7402

>  <SCORE.INTER>
-9.53608

>  <SCORE.INTER.CONST>
1

>  <SCORE.INTER.POLAR>
0

>  <SCORE.INTER.ROT>
5

>  <SCORE.INTER.SOLV>
15.0382

>  <SCORE.INTER.VDW>
-18.3035

>  <SCORE.INTER.norm>
-0.381443

>  <SCORE.INTRA>
-3.20415

>  <SCORE.INTRA.DIHEDRAL>
-0.197452

>  <SCORE.INTRA.DIHEDRAL.0>
3.94806

>  <SCORE.INTRA.POLAR>
0

>  <SCORE.INTRA.POLAR.0>
0

>  <SCORE.INTRA.REPUL>
0

>  <SCORE.INTRA.REPUL.0>
0

>  <SCORE.INTRA.SOLV>
0.569545

>  <SCORE.INTRA.SOLV.lig_0>
-70.9803

>  <SCORE.INTRA.VDW>
-3.3902

>  <SCORE.INTRA.VDW.0>
-0.709409

>  <SCORE.INTRA.norm>
-0.128166

>  <SCORE.RESTR>
0

>  <SCORE.RESTR.CAVITY>
0

>  <SCORE.RESTR.norm>
0

>  <SCORE.SYSTEM>
0

>  <SCORE.SYSTEM.CONST>
0

>  <SCORE.SYSTEM.DIHEDRAL>
0

>  <SCORE.SYSTEM.SOLV>
0

>  <SCORE.SYSTEM.norm>
0

>  <SCORE.heavy>
25

>  <SCORE.norm>
-0.509609

>  <RMSD>
4.213

$$$$
ligand
 OpenBabel11021811503D
libRbt.so/2013.1/901 2013/11/27
 25 27  0  0  0  0  0  0  0  0999 V2000
    7.4650  -24.8507   20.5425 N   0  0  0  0  0  0  0  0  0  0  0  0
    7.6360  -23.6572   21.3118 C   0  0  0  0  0  0  0  0  0  0  0  0
    8.6469  -22.9758   21.1942 O   0  0  0  0  0  0  0  0  0  0  0  0
    6.0200  -21.7916   29.6499 N   0  0  0  0  0  0  0  0  0  0  0  0
    3.9634  -21.2709   28.5253 N   0  0  0  0  0  0  0  0  0  0  0  0
    5.3144  -21.2033   28.5580 C   0  0  0  0  0  0  0  0  0  0  0  0
    6.0144  -20.5722   27.5680 N   0  0  0  0  0  0  0  0  0  0  0  0
    5.3974  -19.9896   26.5086 C   0  0  0  0  0  0  0  0  0  0  0  0
    3.9854  -20.0511   26.4304 C   0  0  0  0  0  0  0  0  0  0  0  0
    6.1566  -19.3798   25.5377 O   0  0  0  0  0  0  0  0  0  0  0  0
    3.5025  -18.1827   24.7648 C   0  0  0  0  0  0  0  0  0  0  0  0
    3.1879  -19.4536   25.3719 N   0  0  0  0  0  0  0  0  0  0  0  0
    3.6822  -18.0405   23.5601 O   0  0  0  0  0  0  0  0  0  0  0  0
    2.0166  -20.1499   25.0480 C   0  0  2  0  0  0  0  0  0  0  0  0
    1.1318  -20.2933   26.3130 C   0  0  0  0  0  0  0  0  0  0  0  0
    3.2732  -20.7005   27.4877 C   0  0  0  0  0  0  0  0  0  0  0  0
    1.8111  -20.7877   27.4419 N   0  0  0  0  0  0  0  0  0  0  0  0
    2.3413  -21.5132   24.4715 C   0  0  0  0  0  0  0  0  0  0  0  0
    3.5259  -22.1645   24.9581 N   0  0  0  0  0  0  0  0  0  0  0  0
    6.5527  -23.2470   22.2483 C   0  0  0  0  0  0  0  0  0  0  0  0
    5.5384  -22.3940   21.8356 C   0  0  0  0  0  0  0  0  0  0  0  0
    4.5418  -22.0308   22.7333 C   0  0  0  0  0  0  0  0  0  0  0  0
    4.5535  -22.5298   24.0343 C   0  0  0  0  0  0  0  0  0  0  0  0
    5.5609  -23.3885   24.4380 C   0  0  0  0  0  0  0  0  0  0  0  0
    6.5639  -23.7431   23.5438 C   0  0  0  0  0  0  0  0  0  0  0  0
  1  2  1  0  0  0  0
  2  3  2  0  0  0  0
  2 20  1  0  0  0  0
  4  6  1  0  0  0  0
  5  6  2  0  0  0  0
  5 16  1  0  0  0  0
  6  7  1  0  0  0  0
  7  8  1  0  0  0  0
  8  9  1  0  0  0  0
  8 10  2  0  0  0  0
  9 12  1  0  0  0  0
  9 16  2  0  0  0  0
 11 13  1  0  0  0  0
 11 12  1  0  0  0  0
 12 14  1  0  0  0  0
 14 15  1  0  0  0  0
 14 18  1  1  0  0  0
 15 17  1  0  0  0  0
 16 17  1  0  0  0  0
 18 19  1  0  0  0  0
 19 23  1  0  0  0  0
 20 21  2  0  0  0  0
 20 25  1  0  0  0  0
 21 22  1  0  0  0  0
 22 23  2  0  0  0  0
 23 24  1  0  0  0  0
 24 25  2  0  0  0  0
M  END
>  <CHROM.1>
123.11862501,32.09267567,-121.60019792,12.84418651,-91.40550441,4.72763951
-21.30873393,24.96809346,-0.89613580,-0.63762693,1.47640545

>  <Name>
ligand

>  <RI>
0

>  <Rbt.Current_Directory>
/home/itssahil/PROJECTS/Mol_Feturizer/New_Systems/rnas/4LVV

>  <Rbt.Executable>
rbdock ($Id: //depot/dev/client3/rdock/2013.1/src/exe/rbdock.cxx#4 $)

>  <Rbt.Library>
libRbt.so (2013.1, Build901 2013/11/27)

>  <Rbt.Parameter_File>
/export/apps/rDock/src/rDock_2013.1_src/data/scripts/dock_solv.prm

>  <Rbt.Receptor>
prm/pocket_docking_6.prm

>  <SCORE>
-9.0772

>  <SCORE.INTER>
-10.6593

>  <SCORE.INTER.CONST>
1

>  <SCORE.INTER.POLAR>
0

>  <SCORE.INTER.ROT>
5

>  <SCORE.INTER.SOLV>
14.9892

>  <SCORE.INTER.VDW>
-19.0359

>  <SCORE.INTER.norm>
-0.426371

>  <SCORE.INTRA>
1.58209

>  <SCORE.INTRA.DIHEDRAL>
2.81399

>  <SCORE.INTRA.DIHEDRAL.0>
3.94806

>  <SCORE.INTRA.POLAR>
0

>  <SCORE.INTRA.POLAR.0>
0

>  <SCORE.INTRA.REPUL>
0

>  <SCORE.INTRA.REPUL.0>
0

>  <SCORE.INTRA.SOLV>
2.48619

>  <SCORE.INTRA.SOLV.lig_0>
-70.9803

>  <SCORE.INTRA.VDW>
-1.06801

>  <SCORE.INTRA.VDW.0>
-0.709409

>  <SCORE.INTRA.norm>
0.0632834

>  <SCORE.RESTR>
0

>  <SCORE.RESTR.CAVITY>
0

>  <SCORE.RESTR.norm>
0

>  <SCORE.SYSTEM>
0

>  <SCORE.SYSTEM.CONST>
0

>  <SCORE.SYSTEM.DIHEDRAL>
0

>  <SCORE.SYSTEM.SOLV>
0

>  <SCORE.SYSTEM.norm>
0

>  <SCORE.heavy>
25

>  <SCORE.norm>
-0.363088

>  <RMSD>
4.216

$$$$
ligand
 OpenBabel11021811503D
libRbt.so/2013.1/901 2013/11/27
 25 27  0  0  0  0  0  0  0  0999 V2000
    8.5491  -22.8296   21.4499 N   0  0  0  0  0  0  0  0  0  0  0  0
    8.4818  -23.4874   22.7180 C   0  0  0  0  0  0  0  0  0  0  0  0
    9.3600  -24.2667   23.0666 O   0  0  0  0  0  0  0  0  0  0  0  0
    5.2118  -17.7058   21.2977 N   0  0  0  0  0  0  0  0  0  0  0  0
    4.0893  -17.9865   23.4016 N   0  0  0  0  0  0  0  0  0  0  0  0
    4.4376  -18.4972   22.1979 C   0  0  0  0  0  0  0  0  0  0  0  0
    4.0516  -19.7544   21.8254 N   0  0  0  0  0  0  0  0  0  0  0  0
    3.3098  -20.5503   22.6371 C   0  0  0  0  0  0  0  0  0  0  0  0
    2.9372  -20.0579   23.9107 C   0  0  0  0  0  0  0  0  0  0  0  0
    2.9623  -21.8109   22.2113 O   0  0  0  0  0  0  0  0  0  0  0  0
    1.0127  -21.6223   24.5000 C   0  0  0  0  0  0  0  0  0  0  0  0
    2.1260  -20.7837   24.8744 N   0  0  0  0  0  0  0  0  0  0  0  0
   -0.1573  -21.2697   24.6025 O   0  0  0  0  0  0  0  0  0  0  0  0
    2.4316  -20.5288   26.2173 C   0  0  2  0  0  0  0  0  0  0  0  0
    2.2964  -19.0106   26.5008 C   0  0  0  0  0  0  0  0  0  0  0  0
    3.3367  -18.7322   24.2710 C   0  0  0  0  0  0  0  0  0  0  0  0
    2.9732  -18.1872   25.5819 N   0  0  0  0  0  0  0  0  0  0  0  0
    3.8297  -21.0075   26.5526 C   0  0  0  0  0  0  0  0  0  0  0  0
    4.1474  -22.3728   26.2375 N   0  0  0  0  0  0  0  0  0  0  0  0
    7.3310  -23.1942   23.6171 C   0  0  0  0  0  0  0  0  0  0  0  0
    6.0263  -23.2483   23.1463 C   0  0  0  0  0  0  0  0  0  0  0  0
    4.9745  -22.9701   24.0108 C   0  0  0  0  0  0  0  0  0  0  0  0
    5.2271  -22.6520   25.3437 C   0  0  0  0  0  0  0  0  0  0  0  0
    6.5290  -22.6098   25.8112 C   0  0  0  0  0  0  0  0  0  0  0  0
    7.5818  -22.8770   24.9443 C   0  0  0  0  0  0  0  0  0  0  0  0
  1  2  1  0  0  0  0
  2  3  2  0  0  0  0
  2 20  1  0  0  0  0
  4  6  1  0  0  0  0
  5  6  2  0  0  0  0
  5 16  1  0  0  0  0
  6  7  1  0  0  0  0
  7  8  1  0  0  0  0
  8  9  1  0  0  0  0
  8 10  2  0  0  0  0
  9 12  1  0  0  0  0
  9 16  2  0  0  0  0
 11 13  1  0  0  0  0
 11 12  1  0  0  0  0
 12 14  1  0  0  0  0
 14 15  1  0  0  0  0
 14 18  1  6  0  0  0
 15 17  1  0  0  0  0
 16 17  1  0  0  0  0
 18 19  1  0  0  0  0
 19 23  1  0  0  0  0
 20 21  2  0  0  0  0
 20 25  1  0  0  0  0
 21 22  1  0  0  0  0
 22 23  2  0  0  0  0
 23 24  1  0  0  0  0
 24 25  2  0  0  0  0
M  END
>  <CHROM.1>
-101.87691554,-53.28983266,120.77419996,-100.63870944,49.76879875,4.45723482
-21.10677010,24.02840217,-0.22227912,0.54535211,-0.75270457

>  <Name>
ligand

>  <RI>
0

>  <Rbt.Current_Directory>
/home/itssahil/PROJECTS/Mol_Feturizer/New_Systems/rnas/4LVV

>  <Rbt.Executable>
rbdock ($Id: //depot/dev/client3/rdock/2013.1/src/exe/rbdock.cxx#4 $)

>  <Rbt.Library>
libRbt.so (2013.1, Build901 2013/11/27)

>  <Rbt.Parameter_File>
/export/apps/rDock/src/rDock_2013.1_src/data/scripts/dock_solv.prm

>  <Rbt.Receptor>
prm/pocket_docking_7.prm

>  <SCORE>
-13.7746

>  <SCORE.INTER>
-11.8053

>  <SCORE.INTER.CONST>
1

>  <SCORE.INTER.POLAR>
0

>  <SCORE.INTER.ROT>
5

>  <SCORE.INTER.SOLV>
15.2562

>  <SCORE.INTER.VDW>
-19.889

>  <SCORE.INTER.norm>
-0.472213

>  <SCORE.INTRA>
-1.96923

>  <SCORE.INTRA.DIHEDRAL>
0.541513

>  <SCORE.INTRA.DIHEDRAL.0>
3.94806

>  <SCORE.INTRA.POLAR>
0

>  <SCORE.INTRA.POLAR.0>
0

>  <SCORE.INTRA.REPUL>
0

>  <SCORE.INTRA.REPUL.0>
0

>  <SCORE.INTRA.SOLV>
0.266128

>  <SCORE.INTRA.SOLV.lig_0>
-70.9803

>  <SCORE.INTRA.VDW>
-2.37305

>  <SCORE.INTRA.VDW.0>
-0.709409

>  <SCORE.INTRA.norm>
-0.0787691

>  <SCORE.RESTR>
0

>  <SCORE.RESTR.CAVITY>
0

>  <SCORE.RESTR.norm>
0

>  <SCORE.SYSTEM>
0

>  <SCORE.SYSTEM.CONST>
0

>  <SCORE.SYSTEM.DIHEDRAL>
0

>  <SCORE.SYSTEM.SOLV>
0

>  <SCORE.SYSTEM.norm>
0

>  <SCORE.heavy>
25

>  <SCORE.norm>
-0.550982

>  <RMSD>
4.217

$$$$
ligand
 OpenBabel11021811503D
libRbt.so/2013.1/901 2013/11/27
 25 27  0  0  0  0  0  0  0  0999 V2000
    6.2063  -23.9807   21.2521 N   0  0  0  0  0  0  0  0  0  0  0  0
    7.1126  -23.8302   22.3481 C   0  0  0  0  0  0  0  0  0  0  0  0
    8.2587  -24.2563   22.2760 O   0  0  0  0  0  0  0  0  0  0  0  0
    4.7494  -20.0763   21.3641 N   0  0  0  0  0  0  0  0  0  0  0  0
    4.4244  -19.4681   23.6641 N   0  0  0  0  0  0  0  0  0  0  0  0
    4.0600  -20.2265   22.6044 C   0  0  0  0  0  0  0  0  0  0  0  0
    3.0359  -21.1268   22.6989 N   0  0  0  0  0  0  0  0  0  0  0  0
    2.3404  -21.3086   23.8503 C   0  0  0  0  0  0  0  0  0  0  0  0
    2.7006  -20.5442   24.9859 C   0  0  0  0  0  0  0  0  0  0  0  0
    1.3279  -22.2383   23.8871 O   0  0  0  0  0  0  0  0  0  0  0  0
    0.6067  -20.7777   26.4210 C   0  0  0  0  0  0  0  0  0  0  0  0
    2.0330  -20.6122   26.2756 N   0  0  0  0  0  0  0  0  0  0  0  0
   -0.1790  -19.8364   26.4465 O   0  0  0  0  0  0  0  0  0  0  0  0
    2.8619  -20.3962   27.3837 C   0  0  2  0  0  0  0  0  0  0  0  0
    3.5498  -19.0128   27.2552 C   0  0  0  0  0  0  0  0  0  0  0  0
    3.7632  -19.5949   24.8578 C   0  0  0  0  0  0  0  0  0  0  0  0
    4.1679  -18.7866   26.0113 N   0  0  0  0  0  0  0  0  0  0  0  0
    3.8993  -21.4943   27.5036 C   0  0  0  0  0  0  0  0  0  0  0  0
    5.2233  -21.1988   27.0302 N   0  0  0  0  0  0  0  0  0  0  0  0
    6.6427  -23.1293   23.5755 C   0  0  0  0  0  0  0  0  0  0  0  0
    7.3608  -22.0685   24.1101 C   0  0  0  0  0  0  0  0  0  0  0  0
    6.8952  -21.4349   25.2559 C   0  0  0  0  0  0  0  0  0  0  0  0
    5.7092  -21.8530   25.8561 C   0  0  0  0  0  0  0  0  0  0  0  0
    4.9910  -22.9042   25.3133 C   0  0  0  0  0  0  0  0  0  0  0  0
    5.4622  -23.5453   24.1739 C   0  0  0  0  0  0  0  0  0  0  0  0
  1  2  1  0  0  0  0
  2  3  2  0  0  0  0
  2 20  1  0  0  0  0
  4  6  1  0  0  0  0
  5  6  2  0  0  0  0
  5 16  1  0  0  0  0
  6  7  1  0  0  0  0
  7  8  1  0  0  0  0
  8  9  1  0  0  0  0
  8 10  2  0  0  0  0
  9 12  1  0  0  0  0
  9 16  2  0  0  0  0
 11 13  1  0  0  0  0
 11 12  1  0  0  0  0
 12 14  1  0  0  0  0
 14 15  1  0  0  0  0
 14 18  1  6  0  0  0
 15 17  1  0  0  0  0
 16 17  1  0  0  0  0
 18 19  1  0  0  0  0
 19 23  1  0  0  0  0
 20 21  2  0  0  0  0
 20 25  1  0  0  0  0
 21 22  1  0  0  0  0
 22 23  2  0  0  0  0
 23 24  1  0  0  0  0
 24 25  2  0  0  0  0
M  END
>  <CHROM.1>
-88.07871942,100.68212111,-110.85873822,169.79854785,-127.34820711,4.21229285
-21.33076863,24.66592094,0.67306066,0.38744055,-1.83406359

>  <Name>
ligand

>  <RI>
0

>  <Rbt.Current_Directory>
/home/itssahil/PROJECTS/Mol_Feturizer/New_Systems/rnas/4LVV

>  <Rbt.Executable>
rbdock ($Id: //depot/dev/client3/rdock/2013.1/src/exe/rbdock.cxx#4 $)

>  <Rbt.Library>
libRbt.so (2013.1, Build901 2013/11/27)

>  <Rbt.Parameter_File>
/export/apps/rDock/src/rDock_2013.1_src/data/scripts/dock_solv.prm

>  <Rbt.Receptor>
prm/pocket_docking_8.prm

>  <SCORE>
-11.5571

>  <SCORE.INTER>
-12.3913

>  <SCORE.INTER.CONST>
1

>  <SCORE.INTER.POLAR>
0

>  <SCORE.INTER.ROT>
5

>  <SCORE.INTER.SOLV>
16.4858

>  <SCORE.INTER.VDW>
-20.6895

>  <SCORE.INTER.norm>
-0.495653

>  <SCORE.INTRA>
0.834248

>  <SCORE.INTRA.DIHEDRAL>
4.33031

>  <SCORE.INTRA.DIHEDRAL.0>
3.94806

>  <SCORE.INTRA.POLAR>
0

>  <SCORE.INTRA.POLAR.0>
0

>  <SCORE.INTRA.REPUL>
0

>  <SCORE.INTRA.REPUL.0>
0

>  <SCORE.INTRA.SOLV>
2.08174

>  <SCORE.INTRA.SOLV.lig_0>
-70.9803

>  <SCORE.INTRA.VDW>
-2.37178

>  <SCORE.INTRA.VDW.0>
-0.709409

>  <SCORE.INTRA.norm>
0.0333699

>  <SCORE.RESTR>
0

>  <SCORE.RESTR.CAVITY>
0

>  <SCORE.RESTR.norm>
0

>  <SCORE.SYSTEM>
0

>  <SCORE.SYSTEM.CONST>
0

>  <SCORE.SYSTEM.DIHEDRAL>
0

>  <SCORE.SYSTEM.SOLV>
0

>  <SCORE.SYSTEM.norm>
0

>  <SCORE.heavy>
25

>  <SCORE.norm>
-0.462283

>  <RMSD>
4.218

$$$$
ligand
 OpenBabel11021811503D
libRbt.so/2013.1/901 2013/11/27
 25 27  0  0  0  0  0  0  0  0999 V2000
    8.6469  -22.1568   22.2160 N   0  0  0  0  0  0  0  0  0  0  0  0
    8.3864  -23.2449   23.1068 C   0  0  0  0  0  0  0  0  0  0  0  0
    9.0337  -24.2822   23.0343 O   0  0  0  0  0  0  0  0  0  0  0  0
    6.4027  -16.5937   24.0280 N   0  0  0  0  0  0  0  0  0  0  0  0
    4.5716  -17.5819   25.2263 N   0  0  0  0  0  0  0  0  0  0  0  0
    5.5210  -17.6896   24.2682 C   0  0  0  0  0  0  0  0  0  0  0  0
    5.6434  -18.8267   23.5195 N   0  0  0  0  0  0  0  0  0  0  0  0
    4.8297  -19.8983   23.6988 C   0  0  0  0  0  0  0  0  0  0  0  0
    3.8328  -19.8304   24.7014 C   0  0  0  0  0  0  0  0  0  0  0  0
    5.0095  -21.0190   22.9225 O   0  0  0  0  0  0  0  0  0  0  0  0
    2.2700  -21.7067   23.9697 C   0  0  0  0  0  0  0  0  0  0  0  0
    2.8759  -20.8860   24.9905 N   0  0  0  0  0  0  0  0  0  0  0  0
    1.2790  -21.3642   23.3337 O   0  0  0  0  0  0  0  0  0  0  0  0
    2.4927  -20.9863   26.3340 C   0  0  2  0  0  0  0  0  0  0  0  0
    1.8961  -19.6353   26.8055 C   0  0  0  0  0  0  0  0  0  0  0  0
    3.7116  -18.6232   25.4595 C   0  0  0  0  0  0  0  0  0  0  0  0
    2.6939  -18.5147   26.5085 N   0  0  0  0  0  0  0  0  0  0  0  0
    3.6708  -21.3771   27.2033 C   0  0  0  0  0  0  0  0  0  0  0  0
    4.2502  -22.6722   26.9772 N   0  0  0  0  0  0  0  0  0  0  0  0
    7.3231  -23.0879   24.1381 C   0  0  0  0  0  0  0  0  0  0  0  0
    7.5887  -22.4577   25.3460 C   0  0  0  0  0  0  0  0  0  0  0  0
    6.5748  -22.3264   26.2871 C   0  0  0  0  0  0  0  0  0  0  0  0
    5.2975  -22.8123   26.0148 C   0  0  0  0  0  0  0  0  0  0  0  0
    5.0347  -23.4304   24.8047 C   0  0  0  0  0  0  0  0  0  0  0  0
    6.0513  -23.5718   23.8678 C   0  0  0  0  0  0  0  0  0  0  0  0
  1  2  1  0  0  0  0
  2  3  2  0  0  0  0
  2 20  1  0  0  0  0
  4  6  1  0  0  0  0
  5  6  2  0  0  0  0
  5 16  1  0  0  0  0
  6  7  1  0  0  0  0
  7  8  1  0  0  0  0
  8  9  1  0  0  0  0
  8 10  2  0  0  0  0
  9 12  1  0  0  0  0
  9 16  2  0  0  0  0
 11 13  1  0  0  0  0
 11 12  1  0  0  0  0
 12 14  1  0  0  0  0
 14 15  1  0  0  0  0
 14 18  1  1  0  0  0
 15 17  1  0  0  0  0
 16 17  1  0  0  0  0
 18 19  1  0  0  0  0
 19 23  1  0  0  0  0
 20 21  2  0  0  0  0
 20 25  1  0  0  0  0
 21 22  1  0  0  0  0
 22 23  2  0  0  0  0
 23 24  1  0  0  0  0
 24 25  2  0  0  0  0
M  END
>  <CHROM.1>
-83.90096153,-64.43834583,88.92438142,72.73328021,-83.47762841,4.94941379
-20.96833599,24.71971757,-0.58106360,0.46378067,-0.14433165

>  <Name>
ligand

>  <RI>
0

>  <Rbt.Current_Directory>
/home/itssahil/PROJECTS/Mol_Feturizer/New_Systems/rnas/4LVV

>  <Rbt.Executable>
rbdock ($Id: //depot/dev/client3/rdock/2013.1/src/exe/rbdock.cxx#4 $)

>  <Rbt.Library>
libRbt.so (2013.1, Build901 2013/11/27)

>  <Rbt.Parameter_File>
/export/apps/rDock/src/rDock_2013.1_src/data/scripts/dock_solv.prm

>  <Rbt.Receptor>
prm/pocket_docking_4.prm

>  <SCORE>
-12.6208

>  <SCORE.INTER>
-9.37622

>  <SCORE.INTER.CONST>
1

>  <SCORE.INTER.POLAR>
0

>  <SCORE.INTER.ROT>
5

>  <SCORE.INTER.SOLV>
14.9125

>  <SCORE.INTER.VDW>
-18.155

>  <SCORE.INTER.norm>
-0.375049

>  <SCORE.INTRA>
-3.24459

>  <SCORE.INTRA.DIHEDRAL>
-0.245473

>  <SCORE.INTRA.DIHEDRAL.0>
3.94806

>  <SCORE.INTRA.POLAR>
0

>  <SCORE.INTRA.POLAR.0>
0

>  <SCORE.INTRA.REPUL>
0

>  <SCORE.INTRA.REPUL.0>
0

>  <SCORE.INTRA.SOLV>
0.654658

>  <SCORE.INTRA.SOLV.lig_0>
-70.9803

>  <SCORE.INTRA.VDW>
-3.44918

>  <SCORE.INTRA.VDW.0>
-0.709409

>  <SCORE.INTRA.norm>
-0.129783

>  <SCORE.RESTR>
0

>  <SCORE.RESTR.CAVITY>
0

>  <SCORE.RESTR.norm>
0

>  <SCORE.SYSTEM>
0

>  <SCORE.SYSTEM.CONST>
0

>  <SCORE.SYSTEM.DIHEDRAL>
0

>  <SCORE.SYSTEM.SOLV>
0

>  <SCORE.SYSTEM.norm>
0

>  <SCORE.heavy>
25

>  <SCORE.norm>
-0.504832

>  <RMSD>
4.220

$$$$
ligand
 OpenBabel11021811503D
libRbt.so/2013.1/901 2013/11/27
 25 27  0  0  0  0  0  0  0  0999 V2000
    9.5504  -23.8170   23.3892 N   0  0  0  0  0  0  0  0  0  0  0  0
    8.2774  -23.2716   23.0323 C   0  0  0  0  0  0  0  0  0  0  0  0
    8.0293  -22.9681   21.8719 O   0  0  0  0  0  0  0  0  0  0  0  0
    6.4022  -16.4627   24.1717 N   0  0  0  0  0  0  0  0  0  0  0  0
    4.5556  -17.5011   25.3017 N   0  0  0  0  0  0  0  0  0  0  0  0
    5.5387  -17.5803   24.3754 C   0  0  0  0  0  0  0  0  0  0  0  0
    5.7125  -18.7091   23.6243 N   0  0  0  0  0  0  0  0  0  0  0  0
    4.9186  -19.8004   23.7697 C   0  0  0  0  0  0  0  0  0  0  0  0
    3.8873  -19.7624   24.7385 C   0  0  0  0  0  0  0  0  0  0  0  0
    5.1503  -20.9113   22.9931 O   0  0  0  0  0  0  0  0  0  0  0  0
    2.3940  -21.6693   23.9433 C   0  0  0  0  0  0  0  0  0  0  0  0
    2.9462  -20.8418   24.9889 N   0  0  0  0  0  0  0  0  0  0  0  0
    1.3216  -21.4340   23.3971 O   0  0  0  0  0  0  0  0  0  0  0  0
    2.5207  -20.9602   26.3181 C   0  0  2  0  0  0  0  0  0  0  0  0
    1.8773  -19.6265   26.7774 C   0  0  0  0  0  0  0  0  0  0  0  0
    3.7127  -18.5636   25.4995 C   0  0  0  0  0  0  0  0  0  0  0  0
    2.6582  -18.4858   26.5143 N   0  0  0  0  0  0  0  0  0  0  0  0
    3.6778  -21.3296   27.2241 C   0  0  0  0  0  0  0  0  0  0  0  0
    4.2753  -22.6216   27.0294 N   0  0  0  0  0  0  0  0  0  0  0  0
    7.2499  -23.0947   24.0961 C   0  0  0  0  0  0  0  0  0  0  0  0
    7.5642  -22.4678   25.2940 C   0  0  0  0  0  0  0  0  0  0  0  0
    6.5828  -22.3175   26.2661 C   0  0  0  0  0  0  0  0  0  0  0  0
    5.2892  -22.7812   26.0348 C   0  0  0  0  0  0  0  0  0  0  0  0
    4.9779  -23.3961   24.8347 C   0  0  0  0  0  0  0  0  0  0  0  0
    5.9619  -23.5564   23.8666 C   0  0  0  0  0  0  0  0  0  0  0  0
  1  2  1  0  0  0  0
  2  3  2  0  0  0  0
  2 20  1  0  0  0  0
  4  6  1  0  0  0  0
  5  6  2  0  0  0  0
  5 16  1  0  0  0  0
  6  7  1  0  0  0  0
  7  8  1  0  0  0  0
  8  9  1  0  0  0  0
  8 10  2  0  0  0  0
  9 12  1  0  0  0  0
  9 16  2  0  0  0  0
 11 13  1  0  0  0  0
 11 12  1  0  0  0  0
 12 14  1  0  0  0  0
 14 15  1  0  0  0  0
 14 18  1  1  0  0  0
 15 17  1  0  0  0  0
 16 17  1  0  0  0  0
 18 19  1  0  0  0  0
 19 23  1  0  0  0  0
 20 21  2  0  0  0  0
 20 25  1  0  0  0  0
 21 22  1  0  0  0  0
 22 23  2  0  0  0  0
 23 24  1  0  0  0  0
 24 25  2  0  0  0  0
M  END
>  <CHROM.1>
-93.82599332,-65.78188333,84.80337616,75.87681579,49.16103799,4.95162772
-20.93547575,24.73771551,-0.62389556,0.46651872,-0.10323555

>  <Name>
ligand

>  <RI>
0

>  <Rbt.Current_Directory>
/home/itssahil/PROJECTS/Mol_Feturizer/New_Systems/rnas/4LVV

>  <Rbt.Executable>
rbdock ($Id: //depot/dev/client3/rdock/2013.1/src/exe/rbdock.cxx#4 $)

>  <Rbt.Library>
libRbt.so (2013.1, Build901 2013/11/27)

>  <Rbt.Parameter_File>
/export/apps/rDock/src/rDock_2013.1_src/data/scripts/dock_solv.prm

>  <Rbt.Receptor>
prm/pocket_docking_3.prm

>  <SCORE>
-12.7382

>  <SCORE.INTER>
-9.58687

>  <SCORE.INTER.CONST>
1

>  <SCORE.INTER.POLAR>
0

>  <SCORE.INTER.ROT>
5

>  <SCORE.INTER.SOLV>
14.8846

>  <SCORE.INTER.VDW>
-18.2861

>  <SCORE.INTER.norm>
-0.383475

>  <SCORE.INTRA>
-3.15128

>  <SCORE.INTRA.DIHEDRAL>
-0.307904

>  <SCORE.INTRA.DIHEDRAL.0>
3.94806

>  <SCORE.INTRA.POLAR>
0

>  <SCORE.INTRA.POLAR.0>
0

>  <SCORE.INTRA.REPUL>
0

>  <SCORE.INTRA.REPUL.0>
0

>  <SCORE.INTRA.SOLV>
0.689697

>  <SCORE.INTRA.SOLV.lig_0>
-70.9803

>  <SCORE.INTRA.VDW>
-3.34218

>  <SCORE.INTRA.VDW.0>
-0.709409

>  <SCORE.INTRA.norm>
-0.126051

>  <SCORE.RESTR>
0

>  <SCORE.RESTR.CAVITY>
0

>  <SCORE.RESTR.norm>
0

>  <SCORE.SYSTEM>
0

>  <SCORE.SYSTEM.CONST>
0

>  <SCORE.SYSTEM.DIHEDRAL>
0

>  <SCORE.SYSTEM.SOLV>
0

>  <SCORE.SYSTEM.norm>
0

>  <SCORE.heavy>
25

>  <SCORE.norm>
-0.509526

>  <RMSD>
4.223

$$$$
ligand
 OpenBabel11021811503D
libRbt.so/2013.1/901 2013/11/27
 25 27  0  0  0  0  0  0  0  0999 V2000
    8.8837  -22.0245   22.4379 N   0  0  0  0  0  0  0  0  0  0  0  0
    8.4232  -23.1995   23.1107 C   0  0  0  0  0  0  0  0  0  0  0  0
    8.9114  -24.2950   22.8626 O   0  0  0  0  0  0  0  0  0  0  0  0
    6.5804  -16.5924   24.2665 N   0  0  0  0  0  0  0  0  0  0  0  0
    4.6948  -17.5852   25.3729 N   0  0  0  0  0  0  0  0  0  0  0  0
    5.6741  -17.6802   24.4440 C   0  0  0  0  0  0  0  0  0  0  0  0
    5.8038  -18.7963   23.6657 N   0  0  0  0  0  0  0  0  0  0  0  0
    4.9680  -19.8591   23.7853 C   0  0  0  0  0  0  0  0  0  0  0  0
    3.9390  -19.8045   24.7558 C   0  0  0  0  0  0  0  0  0  0  0  0
    5.1563  -20.9590   22.9818 O   0  0  0  0  0  0  0  0  0  0  0  0
    2.3726  -21.6320   23.9161 C   0  0  0  0  0  0  0  0  0  0  0  0
    2.9565  -20.8522   24.9809 N   0  0  0  0  0  0  0  0  0  0  0  0
    1.2158  -21.4882   23.5356 O   0  0  0  0  0  0  0  0  0  0  0  0
    2.5268  -20.9861   26.3072 C   0  0  2  0  0  0  0  0  0  0  0  0
    1.9358  -19.6399   26.7993 C   0  0  0  0  0  0  0  0  0  0  0  0
    3.8112  -18.6186   25.5457 C   0  0  0  0  0  0  0  0  0  0  0  0
    2.7605  -18.5244   26.5631 N   0  0  0  0  0  0  0  0  0  0  0  0
    3.6687  -21.4220   27.2029 C   0  0  0  0  0  0  0  0  0  0  0  0
    4.2449  -22.7132   26.9476 N   0  0  0  0  0  0  0  0  0  0  0  0
    7.3486  -23.0649   24.1334 C   0  0  0  0  0  0  0  0  0  0  0  0
    7.5936  -22.4371   25.3469 C   0  0  0  0  0  0  0  0  0  0  0  0
    6.5696  -22.3269   26.2798 C   0  0  0  0  0  0  0  0  0  0  0  0
    5.3026  -22.8315   25.9937 C   0  0  0  0  0  0  0  0  0  0  0  0
    5.0602  -23.4471   24.7781 C   0  0  0  0  0  0  0  0  0  0  0  0
    6.0870  -23.5673   23.8494 C   0  0  0  0  0  0  0  0  0  0  0  0
  1  2  1  0  0  0  0
  2  3  2  0  0  0  0
  2 20  1  0  0  0  0
  4  6  1  0  0  0  0
  5  6  2  0  0  0  0
  5 16  1  0  0  0  0
  6  7  1  0  0  0  0
  7  8  1  0  0  0  0
  8  9  1  0  0  0  0
  8 10  2  0  0  0  0
  9 12  1  0  0  0  0
  9 16  2  0  0  0  0
 11 13  1  0  0  0  0
 11 12  1  0  0  0  0
 12 14  1  0  0  0  0
 14 15  1  0  0  0  0
 14 18  1  1  0  0  0
 15 17  1  0  0  0  0
 16 17  1  0  0  0  0
 18 19  1  0  0  0  0
 19 23  1  0  0  0  0
 20 21  2  0  0  0  0
 20 25  1  0  0  0  0
 21 22  1  0  0  0  0
 22 23  2  0  0  0  0
 23 24  1  0  0  0  0
 24 25  2  0  0  0  0
M  END
>  <CHROM.1>
-107.00889863,-63.76541294,87.32217987,70.98746083,-69.42649479,5.01262713
-20.95999934,24.76462140,-0.60109559,0.43232606,-0.05911816

>  <Name>
ligand

>  <RI>
0

>  <Rbt.Current_Directory>
/home/itssahil/PROJECTS/Mol_Feturizer/New_Systems/rnas/4LVV

>  <Rbt.Executable>
rbdock ($Id: //depot/dev/client3/rdock/2013.1/src/exe/rbdock.cxx#4 $)

>  <Rbt.Library>
libRbt.so (2013.1, Build901 2013/11/27)

>  <Rbt.Parameter_File>
/export/apps/rDock/src/rDock_2013.1_src/data/scripts/dock_solv.prm

>  <Rbt.Receptor>
prm/pocket_docking_3.prm

>  <SCORE>
-12.6708

>  <SCORE.INTER>
-9.40864

>  <SCORE.INTER.CONST>
1

>  <SCORE.INTER.POLAR>
0

>  <SCORE.INTER.ROT>
5

>  <SCORE.INTER.SOLV>
14.7669

>  <SCORE.INTER.VDW>
-18.1281

>  <SCORE.INTER.norm>
-0.376345

>  <SCORE.INTRA>
-3.2622

>  <SCORE.INTRA.DIHEDRAL>
-0.225397

>  <SCORE.INTRA.DIHEDRAL.0>
3.94806

>  <SCORE.INTRA.POLAR>
0

>  <SCORE.INTRA.POLAR.0>
0

>  <SCORE.INTRA.REPUL>
0

>  <SCORE.INTRA.REPUL.0>
0

>  <SCORE.INTRA.SOLV>
0.691052

>  <SCORE.INTRA.SOLV.lig_0>
-70.9803

>  <SCORE.INTRA.VDW>
-3.49503

>  <SCORE.INTRA.VDW.0>
-0.709409

>  <SCORE.INTRA.norm>
-0.130488

>  <SCORE.RESTR>
0

>  <SCORE.RESTR.CAVITY>
0

>  <SCORE.RESTR.norm>
0

>  <SCORE.SYSTEM>
0

>  <SCORE.SYSTEM.CONST>
0

>  <SCORE.SYSTEM.DIHEDRAL>
0

>  <SCORE.SYSTEM.SOLV>
0

>  <SCORE.SYSTEM.norm>
0

>  <SCORE.heavy>
25

>  <SCORE.norm>
-0.506834

>  <RMSD>
4.236

$$$$
ligand
 OpenBabel11021811503D
libRbt.so/2013.1/901 2013/11/27
 25 27  0  0  0  0  0  0  0  0999 V2000
    8.6665  -22.1164   22.2575 N   0  0  0  0  0  0  0  0  0  0  0  0
    8.3358  -23.2337   23.0868 C   0  0  0  0  0  0  0  0  0  0  0  0
    8.9384  -24.2944   22.9778 O   0  0  0  0  0  0  0  0  0  0  0  0
    6.3749  -16.4372   24.1887 N   0  0  0  0  0  0  0  0  0  0  0  0
    4.5314  -17.4898   25.3106 N   0  0  0  0  0  0  0  0  0  0  0  0
    5.5181  -17.5608   24.3874 C   0  0  0  0  0  0  0  0  0  0  0  0
    5.7017  -18.6869   23.6347 N   0  0  0  0  0  0  0  0  0  0  0  0
    4.9143  -19.7836   23.7754 C   0  0  0  0  0  0  0  0  0  0  0  0
    3.8796  -19.7543   24.7409 C   0  0  0  0  0  0  0  0  0  0  0  0
    5.1558  -20.8915   22.9974 O   0  0  0  0  0  0  0  0  0  0  0  0
    2.4014  -21.6692   23.9371 C   0  0  0  0  0  0  0  0  0  0  0  0
    2.9447  -20.8402   24.9861 N   0  0  0  0  0  0  0  0  0  0  0  0
    1.2625  -21.5397   23.5013 O   0  0  0  0  0  0  0  0  0  0  0  0
    2.5156  -20.9639   26.3136 C   0  0  2  0  0  0  0  0  0  0  0  0
    1.8621  -19.6354   26.7734 C   0  0  0  0  0  0  0  0  0  0  0  0
    3.6947  -18.5581   25.5036 C   0  0  0  0  0  0  0  0  0  0  0  0
    2.6365  -18.4891   26.5150 N   0  0  0  0  0  0  0  0  0  0  0  0
    3.6722  -21.3276   27.2227 C   0  0  0  0  0  0  0  0  0  0  0  0
    4.2758  -22.6171   27.0304 N   0  0  0  0  0  0  0  0  0  0  0  0
    7.2547  -23.0791   24.0997 C   0  0  0  0  0  0  0  0  0  0  0  0
    5.9719  -23.5474   23.8508 C   0  0  0  0  0  0  0  0  0  0  0  0
    4.9857  -23.3885   24.8167 C   0  0  0  0  0  0  0  0  0  0  0  0
    5.2857  -22.7753   26.0315 C   0  0  0  0  0  0  0  0  0  0  0  0
    6.5688  -22.3197   26.2795 C   0  0  0  0  0  0  0  0  0  0  0  0
    7.5526  -22.4684   25.3093 C   0  0  0  0  0  0  0  0  0  0  0  0
  1  2  1  0  0  0  0
  2  3  2  0  0  0  0
  2 20  1  0  0  0  0
  4  6  1  0  0  0  0
  5  6  2  0  0  0  0
  5 16  1  0  0  0  0
  6  7  1  0  0  0  0
  7  8  1  0  0  0  0
  8  9  1  0  0  0  0
  8 10  2  0  0  0  0
  9 12  1  0  0  0  0
  9 16  2  0  0  0  0
 11 13  1  0  0  0  0
 11 12  1  0  0  0  0
 12 14  1  0  0  0  0
 14 15  1  0  0  0  0
 14 18  1  1  0  0  0
 15 17  1  0  0  0  0
 16 17  1  0  0  0  0
 18 19  1  0  0  0  0
 19 23  1  0  0  0  0
 20 21  2  0  0  0  0
 20 25  1  0  0  0  0
 21 22  1  0  0  0  0
 22 23  2  0  0  0  0
 23 24  1  0  0  0  0
 24 25  2  0  0  0  0
M  END
>  <CHROM.1>
-103.06286474,-65.98013733,84.33065645,-103.33405406,99.64865986,4.95126885
-20.92519311,24.75194756,-0.62506841,0.45917470,-0.09802863

>  <Name>
ligand

>  <RI>
0

>  <Rbt.Current_Directory>
/home/itssahil/PROJECTS/Mol_Feturizer/New_Systems/rnas/4LVV

>  <Rbt.Executable>
rbdock ($Id: //depot/dev/client3/rdock/2013.1/src/exe/rbdock.cxx#4 $)

>  <Rbt.Library>
libRbt.so (2013.1, Build901 2013/11/27)

>  <Rbt.Parameter_File>
/export/apps/rDock/src/rDock_2013.1_src/data/scripts/dock_solv.prm

>  <Rbt.Receptor>
prm/pocket_docking_6.prm

>  <SCORE>
-12.6639

>  <SCORE.INTER>
-9.49592

>  <SCORE.INTER.CONST>
1

>  <SCORE.INTER.POLAR>
0

>  <SCORE.INTER.ROT>
5

>  <SCORE.INTER.SOLV>
15.042

>  <SCORE.INTER.VDW>
-18.2779

>  <SCORE.INTER.norm>
-0.379837

>  <SCORE.INTRA>
-3.16802

>  <SCORE.INTRA.DIHEDRAL>
-0.225929

>  <SCORE.INTRA.DIHEDRAL.0>
3.94806

>  <SCORE.INTRA.POLAR>
0

>  <SCORE.INTRA.POLAR.0>
0

>  <SCORE.INTRA.REPUL>
0

>  <SCORE.INTRA.REPUL.0>
0

>  <SCORE.INTRA.SOLV>
0.727399

>  <SCORE.INTRA.SOLV.lig_0>
-70.9803

>  <SCORE.INTRA.VDW>
-3.41875

>  <SCORE.INTRA.VDW.0>
-0.709409

>  <SCORE.INTRA.norm>
-0.126721

>  <SCORE.RESTR>
0

>  <SCORE.RESTR.CAVITY>
0

>  <SCORE.RESTR.norm>
0

>  <SCORE.SYSTEM>
0

>  <SCORE.SYSTEM.CONST>
0

>  <SCORE.SYSTEM.DIHEDRAL>
0

>  <SCORE.SYSTEM.SOLV>
0

>  <SCORE.SYSTEM.norm>
0

>  <SCORE.heavy>
25

>  <SCORE.norm>
-0.506557

>  <RMSD>
4.237

$$$$
ligand
 OpenBabel11021811503D
libRbt.so/2013.1/901 2013/11/27
 25 27  0  0  0  0  0  0  0  0999 V2000
    7.5866  -24.5784   21.0023 N   0  0  0  0  0  0  0  0  0  0  0  0
    7.5304  -23.2870   21.6144 C   0  0  0  0  0  0  0  0  0  0  0  0
    8.2194  -22.3651   21.1956 O   0  0  0  0  0  0  0  0  0  0  0  0
    4.2083  -18.6895   21.2170 N   0  0  0  0  0  0  0  0  0  0  0  0
    4.1017  -18.6146   23.6146 N   0  0  0  0  0  0  0  0  0  0  0  0
    3.6966  -19.1816   22.4548 C   0  0  0  0  0  0  0  0  0  0  0  0
    2.7975  -20.2112   22.4480 N   0  0  0  0  0  0  0  0  0  0  0  0
    2.2725  -20.7166   23.5931 C   0  0  0  0  0  0  0  0  0  0  0  0
    2.6820  -20.1599   24.8284 C   0  0  0  0  0  0  0  0  0  0  0  0
    1.3811  -21.7613   23.5228 O   0  0  0  0  0  0  0  0  0  0  0  0
    0.8180  -20.9610   26.3718 C   0  0  0  0  0  0  0  0  0  0  0  0
    2.1887  -20.5796   26.1300 N   0  0  0  0  0  0  0  0  0  0  0  0
   -0.0738  -20.8218   25.5417 O   0  0  0  0  0  0  0  0  0  0  0  0
    3.1179  -20.4861   27.1738 C   0  0  2  0  0  0  0  0  0  0  0  0
    3.6277  -19.0262   27.2853 C   0  0  0  0  0  0  0  0  0  0  0  0
    3.6095  -19.0708   24.8096 C   0  0  0  0  0  0  0  0  0  0  0  0
    4.0603  -18.4692   26.0676 N   0  0  0  0  0  0  0  0  0  0  0  0
    4.2772  -21.4362   26.9508 C   0  0  0  0  0  0  0  0  0  0  0  0
    4.0549  -22.5431   26.0623 N   0  0  0  0  0  0  0  0  0  0  0  0
    6.6043  -23.0776   22.7621 C   0  0  0  0  0  0  0  0  0  0  0  0
    5.3249  -22.5771   22.5639 C   0  0  0  0  0  0  0  0  0  0  0  0
    4.4847  -22.3941   23.6555 C   0  0  0  0  0  0  0  0  0  0  0  0
    4.9190  -22.7228   24.9381 C   0  0  0  0  0  0  0  0  0  0  0  0
    6.1917  -23.2316   25.1295 C   0  0  0  0  0  0  0  0  0  0  0  0
    7.0362  -23.4044   24.0394 C   0  0  0  0  0  0  0  0  0  0  0  0
  1  2  1  0  0  0  0
  2  3  2  0  0  0  0
  2 20  1  0  0  0  0
  4  6  1  0  0  0  0
  5  6  2  0  0  0  0
  5 16  1  0  0  0  0
  6  7  1  0  0  0  0
  7  8  1  0  0  0  0
  8  9  1  0  0  0  0
  8 10  2  0  0  0  0
  9 12  1  0  0  0  0
  9 16  2  0  0  0  0
 11 13  1  0  0  0  0
 11 12  1  0  0  0  0
 12 14  1  0  0  0  0
 14 15  1  0  0  0  0
 14 18  1  6  0  0  0
 15 17  1  0  0  0  0
 16 17  1  0  0  0  0
 18 19  1  0  0  0  0
 19 23  1  0  0  0  0
 20 21  2  0  0  0  0
 20 25  1  0  0  0  0
 21 22  1  0  0  0  0
 22 23  2  0  0  0  0
 23 24  1  0  0  0  0
 24 25  2  0  0  0  0
M  END
>  <CHROM.1>
-8.38693456,-20.87713441,123.99305971,-104.46875207,-94.07783568,4.12389586
-21.18580253,24.21132081,-0.29040965,-0.72005125,2.04384183

>  <Name>
ligand

>  <RI>
0

>  <Rbt.Current_Directory>
/home/itssahil/PROJECTS/Mol_Feturizer/New_Systems/rnas/4LVV

>  <Rbt.Executable>
rbdock ($Id: //depot/dev/client3/rdock/2013.1/src/exe/rbdock.cxx#4 $)

>  <Rbt.Library>
libRbt.so (2013.1, Build901 2013/11/27)

>  <Rbt.Parameter_File>
/export/apps/rDock/src/rDock_2013.1_src/data/scripts/dock_solv.prm

>  <Rbt.Receptor>
prm/pocket_docking_4.prm

>  <SCORE>
-12.1325

>  <SCORE.INTER>
-12.6944

>  <SCORE.INTER.CONST>
1

>  <SCORE.INTER.POLAR>
0

>  <SCORE.INTER.ROT>
5

>  <SCORE.INTER.SOLV>
16.1907

>  <SCORE.INTER.VDW>
-20.7932

>  <SCORE.INTER.norm>
-0.507776

>  <SCORE.INTRA>
0.561852

>  <SCORE.INTRA.DIHEDRAL>
4.41611

>  <SCORE.INTRA.DIHEDRAL.0>
3.94806

>  <SCORE.INTRA.POLAR>
0

>  <SCORE.INTRA.POLAR.0>
0

>  <SCORE.INTRA.REPUL>
0

>  <SCORE.INTRA.REPUL.0>
0

>  <SCORE.INTRA.SOLV>
1.59737

>  <SCORE.INTRA.SOLV.lig_0>
-70.9803

>  <SCORE.INTRA.VDW>
-2.44489

>  <SCORE.INTRA.VDW.0>
-0.709409

>  <SCORE.INTRA.norm>
0.0224741

>  <SCORE.RESTR>
0

>  <SCORE.RESTR.CAVITY>
0

>  <SCORE.RESTR.norm>
0

>  <SCORE.SYSTEM>
0

>  <SCORE.SYSTEM.CONST>
0

>  <SCORE.SYSTEM.DIHEDRAL>
0

>  <SCORE.SYSTEM.SOLV>
0

>  <SCORE.SYSTEM.norm>
0

>  <SCORE.heavy>
25

>  <SCORE.norm>
-0.485302

>  <RMSD>
4.250

$$$$
ligand
 OpenBabel11021811503D
libRbt.so/2013.1/901 2013/11/27
 25 27  0  0  0  0  0  0  0  0999 V2000
    8.2992  -24.1178   22.3315 N   0  0  0  0  0  0  0  0  0  0  0  0
    6.9232  -23.7279   22.3325 C   0  0  0  0  0  0  0  0  0  0  0  0
    6.2010  -23.9775   21.3753 O   0  0  0  0  0  0  0  0  0  0  0  0
    4.7208  -19.8881   21.3231 N   0  0  0  0  0  0  0  0  0  0  0  0
    4.2033  -19.2880   23.5896 N   0  0  0  0  0  0  0  0  0  0  0  0
    3.9721  -20.0859   22.5216 C   0  0  0  0  0  0  0  0  0  0  0  0
    3.0264  -21.0718   22.5678 N   0  0  0  0  0  0  0  0  0  0  0  0
    2.2799  -21.3024   23.6778 C   0  0  0  0  0  0  0  0  0  0  0  0
    2.5016  -20.4982   24.8213 C   0  0  0  0  0  0  0  0  0  0  0  0
    1.3519  -22.3171   23.6675 O   0  0  0  0  0  0  0  0  0  0  0  0
    0.3517  -20.9003   26.1306 C   0  0  0  0  0  0  0  0  0  0  0  0
    1.7644  -20.6117   26.0691 N   0  0  0  0  0  0  0  0  0  0  0  0
   -0.4825  -20.0901   26.5199 O   0  0  0  0  0  0  0  0  0  0  0  0
    2.5016  -20.3128   27.2219 C   0  0  2  0  0  0  0  0  0  0  0  0
    3.0731  -18.8756   27.1140 C   0  0  0  0  0  0  0  0  0  0  0  0
    3.4834  -19.4605   24.7431 C   0  0  0  0  0  0  0  0  0  0  0  0
    3.7445  -18.6084   25.9065 N   0  0  0  0  0  0  0  0  0  0  0  0
    3.6214  -21.3142   27.4209 C   0  0  0  0  0  0  0  0  0  0  0  0
    4.9105  -20.9695   26.8884 N   0  0  0  0  0  0  0  0  0  0  0  0
    6.3781  -23.0262   23.5280 C   0  0  0  0  0  0  0  0  0  0  0  0
    5.5106  -23.6706   24.3992 C   0  0  0  0  0  0  0  0  0  0  0  0
    5.0202  -22.9886   25.5061 C   0  0  0  0  0  0  0  0  0  0  0  0
    5.4068  -21.6716   25.7467 C   0  0  0  0  0  0  0  0  0  0  0  0
    6.2804  -21.0368   24.8812 C   0  0  0  0  0  0  0  0  0  0  0  0
    6.7624  -21.7149   23.7681 C   0  0  0  0  0  0  0  0  0  0  0  0
  1  2  1  0  0  0  0
  2  3  2  0  0  0  0
  2 20  1  0  0  0  0
  4  6  1  0  0  0  0
  5  6  2  0  0  0  0
  5 16  1  0  0  0  0
  6  7  1  0  0  0  0
  7  8  1  0  0  0  0
  8  9  1  0  0  0  0
  8 10  2  0  0  0  0
  9 12  1  0  0  0  0
  9 16  2  0  0  0  0
 11 13  1  0  0  0  0
 11 12  1  0  0  0  0
 12 14  1  0  0  0  0
 14 15  1  0  0  0  0
 14 18  1  6  0  0  0
 15 17  1  0  0  0  0
 16 17  1  0  0  0  0
 18 19  1  0  0  0  0
 19 23  1  0  0  0  0
 20 21  2  0  0  0  0
 20 25  1  0  0  0  0
 21 22  1  0  0  0  0
 22 23  2  0  0  0  0
 23 24  1  0  0  0  0
 24 25  2  0  0  0  0
M  END
>  <CHROM.1>
-112.30610566,93.87359491,-109.03648216,-28.72952084,-107.64686580,3.98757134
-21.24745712,24.56739236,-0.65014631,-0.41742679,1.36963703

>  <Name>
ligand

>  <RI>
0

>  <Rbt.Current_Directory>
/home/itssahil/PROJECTS/Mol_Feturizer/New_Systems/rnas/4LVV

>  <Rbt.Executable>
rbdock ($Id: //depot/dev/client3/rdock/2013.1/src/exe/rbdock.cxx#4 $)

>  <Rbt.Library>
libRbt.so (2013.1, Build901 2013/11/27)

>  <Rbt.Parameter_File>
/export/apps/rDock/src/rDock_2013.1_src/data/scripts/dock_solv.prm

>  <Rbt.Receptor>
prm/pocket_docking_5.prm

>  <SCORE>
-12.1846

>  <SCORE.INTER>
-12.0747

>  <SCORE.INTER.CONST>
1

>  <SCORE.INTER.POLAR>
0

>  <SCORE.INTER.ROT>
5

>  <SCORE.INTER.SOLV>
16.7471

>  <SCORE.INTER.VDW>
-20.5655

>  <SCORE.INTER.norm>
-0.482989

>  <SCORE.INTRA>
-0.109873

>  <SCORE.INTRA.DIHEDRAL>
3.52685

>  <SCORE.INTRA.DIHEDRAL.0>
3.94806

>  <SCORE.INTRA.POLAR>
0

>  <SCORE.INTRA.POLAR.0>
0

>  <SCORE.INTRA.REPUL>
0

>  <SCORE.INTRA.REPUL.0>
0

>  <SCORE.INTRA.SOLV>
2.32466

>  <SCORE.INTRA.SOLV.lig_0>
-70.9803

>  <SCORE.INTRA.VDW>
-3.03563

>  <SCORE.INTRA.VDW.0>
-0.709409

>  <SCORE.INTRA.norm>
-0.0043949

>  <SCORE.RESTR>
0

>  <SCORE.RESTR.CAVITY>
0

>  <SCORE.RESTR.norm>
0

>  <SCORE.SYSTEM>
0

>  <SCORE.SYSTEM.CONST>
0

>  <SCORE.SYSTEM.DIHEDRAL>
0

>  <SCORE.SYSTEM.SOLV>
0

>  <SCORE.SYSTEM.norm>
0

>  <SCORE.heavy>
25

>  <SCORE.norm>
-0.487384

>  <RMSD>
4.285

$$$$
ligand
 OpenBabel11021811503D
libRbt.so/2013.1/901 2013/11/27
 25 27  0  0  0  0  0  0  0  0999 V2000
   12.6586  -23.8318   27.0315 N   0  0  0  0  0  0  0  0  0  0  0  0
   11.3172  -24.3187   27.1254 C   0  0  0  0  0  0  0  0  0  0  0  0
   11.0502  -25.2873   27.8259 O   0  0  0  0  0  0  0  0  0  0  0  0
    4.4294  -16.1163   22.2310 N   0  0  0  0  0  0  0  0  0  0  0  0
    3.8116  -18.2785   23.0727 N   0  0  0  0  0  0  0  0  0  0  0  0
    4.6178  -17.5297   22.2852 C   0  0  0  0  0  0  0  0  0  0  0  0
    5.6032  -18.1053   21.5329 N   0  0  0  0  0  0  0  0  0  0  0  0
    5.8252  -19.4444   21.5394 C   0  0  0  0  0  0  0  0  0  0  0  0
    5.0121  -20.2609   22.3614 C   0  0  0  0  0  0  0  0  0  0  0  0
    6.8399  -19.9636   20.7701 O   0  0  0  0  0  0  0  0  0  0  0  0
    5.4039  -22.5541   21.3194 C   0  0  0  0  0  0  0  0  0  0  0  0
    5.1159  -21.7081   22.4525 N   0  0  0  0  0  0  0  0  0  0  0  0
    6.5298  -22.6908   20.8530 O   0  0  0  0  0  0  0  0  0  0  0  0
    4.8080  -22.2461   23.7086 C   0  0  2  0  0  0  0  0  0  0  0  0
    3.3718  -21.8267   24.1146 C   0  0  0  0  0  0  0  0  0  0  0  0
    3.9751  -19.6383   23.1255 C   0  0  0  0  0  0  0  0  0  0  0  0
    3.1140  -20.4488   23.9910 N   0  0  0  0  0  0  0  0  0  0  0  0
    5.8079  -21.7885   24.7512 C   0  0  0  0  0  0  0  0  0  0  0  0
    7.1673  -21.6111   24.3213 N   0  0  0  0  0  0  0  0  0  0  0  0
   10.2447  -23.6151   26.3682 C   0  0  0  0  0  0  0  0  0  0  0  0
   10.1669  -23.7118   24.9856 C   0  0  0  0  0  0  0  0  0  0  0  0
    9.1538  -23.0439   24.3086 C   0  0  0  0  0  0  0  0  0  0  0  0
    8.2152  -22.2931   25.0136 C   0  0  0  0  0  0  0  0  0  0  0  0
    8.2905  -22.2084   26.3929 C   0  0  0  0  0  0  0  0  0  0  0  0
    9.3101  -22.8671   27.0694 C   0  0  0  0  0  0  0  0  0  0  0  0
  1  2  1  0  0  0  0
  2  3  2  0  0  0  0
  2 20  1  0  0  0  0
  4  6  1  0  0  0  0
  5  6  2  0  0  0  0
  5 16  1  0  0  0  0
  6  7  1  0  0  0  0
  7  8  1  0  0  0  0
  8  9  1  0  0  0  0
  8 10  2  0  0  0  0
  9 12  1  0  0  0  0
  9 16  2  0  0  0  0
 11 13  1  0  0  0  0
 11 12  1  0  0  0  0
 12 14  1  0  0  0  0
 14 15  1  0  0  0  0
 14 18  1  1  0  0  0
 15 17  1  0  0  0  0
 16 17  1  0  0  0  0
 18 19  1  0  0  0  0
 19 23  1  0  0  0  0
 20 21  2  0  0  0  0
 20 25  1  0  0  0  0
 21 22  1  0  0  0  0
 22 23  2  0  0  0  0
 23 24  1  0  0  0  0
 24 25  2  0  0  0  0
M  END
>  <CHROM.1>
77.82827736,-34.44015847,-125.42430948,129.10739938,71.68685600,6.83908474
-21.41516564,23.88521200,-0.73656476,-0.39611866,-0.34195633

>  <Name>
ligand

>  <RI>
0

>  <Rbt.Current_Directory>
/home/itssahil/PROJECTS/Mol_Feturizer/New_Systems/rnas/4LVV

>  <Rbt.Executable>
rbdock ($Id: //depot/dev/client3/rdock/2013.1/src/exe/rbdock.cxx#4 $)

>  <Rbt.Library>
libRbt.so (2013.1, Build901 2013/11/27)

>  <Rbt.Parameter_File>
/export/apps/rDock/src/rDock_2013.1_src/data/scripts/dock_solv.prm

>  <Rbt.Receptor>
prm/pocket_docking_7.prm

>  <SCORE>
-1.28182

>  <SCORE.INTER>
-2.02907

>  <SCORE.INTER.CONST>
1

>  <SCORE.INTER.POLAR>
0

>  <SCORE.INTER.ROT>
5

>  <SCORE.INTER.SOLV>
5.64682

>  <SCORE.INTER.VDW>
-10.1683

>  <SCORE.INTER.norm>
-0.081163

>  <SCORE.INTRA>
0.747255

>  <SCORE.INTRA.DIHEDRAL>
2.65684

>  <SCORE.INTRA.DIHEDRAL.0>
3.94806

>  <SCORE.INTRA.POLAR>
0

>  <SCORE.INTRA.POLAR.0>
0

>  <SCORE.INTRA.REPUL>
0

>  <SCORE.INTRA.REPUL.0>
0

>  <SCORE.INTRA.SOLV>
1.26142

>  <SCORE.INTRA.SOLV.lig_0>
-70.9803

>  <SCORE.INTRA.VDW>
-1.21188

>  <SCORE.INTRA.VDW.0>
-0.709409

>  <SCORE.INTRA.norm>
0.0298902

>  <SCORE.RESTR>
0

>  <SCORE.RESTR.CAVITY>
0

>  <SCORE.RESTR.norm>
0

>  <SCORE.SYSTEM>
0

>  <SCORE.SYSTEM.CONST>
0

>  <SCORE.SYSTEM.DIHEDRAL>
0

>  <SCORE.SYSTEM.SOLV>
0

>  <SCORE.SYSTEM.norm>
0

>  <SCORE.heavy>
25

>  <SCORE.norm>
-0.0512728

>  <RMSD>
4.310

$$$$
ligand
 OpenBabel11021811503D
libRbt.so/2013.1/901 2013/11/27
 25 27  0  0  0  0  0  0  0  0999 V2000
    9.7529  -26.1459   21.8185 N   0  0  0  0  0  0  0  0  0  0  0  0
    9.4878  -24.9491   21.0818 C   0  0  0  0  0  0  0  0  0  0  0  0
   10.2974  -24.5226   20.2676 O   0  0  0  0  0  0  0  0  0  0  0  0
    6.7265  -18.0021   27.8338 N   0  0  0  0  0  0  0  0  0  0  0  0
    6.0165  -20.0690   26.8392 N   0  0  0  0  0  0  0  0  0  0  0  0
    5.7706  -18.7638   27.0973 C   0  0  0  0  0  0  0  0  0  0  0  0
    4.6173  -18.1648   26.6734 N   0  0  0  0  0  0  0  0  0  0  0  0
    3.6697  -18.8402   25.9747 C   0  0  0  0  0  0  0  0  0  0  0  0
    3.8961  -20.2043   25.6720 C   0  0  0  0  0  0  0  0  0  0  0  0
    2.5352  -18.1799   25.5648 O   0  0  0  0  0  0  0  0  0  0  0  0
    1.5325  -20.9860   25.1236 C   0  0  0  0  0  0  0  0  0  0  0  0
    2.9639  -21.0593   24.9553 N   0  0  0  0  0  0  0  0  0  0  0  0
    0.9833  -21.0140   26.2198 O   0  0  0  0  0  0  0  0  0  0  0  0
    3.5580  -22.0464   24.1588 C   0  0  2  0  0  0  0  0  0  0  0  0
    4.4738  -22.9387   25.0355 C   0  0  0  0  0  0  0  0  0  0  0  0
    5.1016  -20.8144   26.1422 C   0  0  0  0  0  0  0  0  0  0  0  0
    5.3742  -22.2238   25.8470 N   0  0  0  0  0  0  0  0  0  0  0  0
    4.3517  -21.4223   23.0287 C   0  0  0  0  0  0  0  0  0  0  0  0
    4.5506  -22.2195   21.8502 N   0  0  0  0  0  0  0  0  0  0  0  0
    8.1991  -24.2378   21.3100 C   0  0  0  0  0  0  0  0  0  0  0  0
    7.8462  -23.7898   22.5755 C   0  0  0  0  0  0  0  0  0  0  0  0
    6.6372  -23.1288   22.7552 C   0  0  0  0  0  0  0  0  0  0  0  0
    5.7914  -22.9058   21.6705 C   0  0  0  0  0  0  0  0  0  0  0  0
    6.1525  -23.3449   20.4086 C   0  0  0  0  0  0  0  0  0  0  0  0
    7.3564  -24.0158   20.2306 C   0  0  0  0  0  0  0  0  0  0  0  0
  1  2  1  0  0  0  0
  2  3  2  0  0  0  0
  2 20  1  0  0  0  0
  4  6  1  0  0  0  0
  5  6  2  0  0  0  0
  5 16  1  0  0  0  0
  6  7  1  0  0  0  0
  7  8  1  0  0  0  0
  8  9  1  0  0  0  0
  8 10  2  0  0  0  0
  9 12  1  0  0  0  0
  9 16  2  0  0  0  0
 11 13  1  0  0  0  0
 11 12  1  0  0  0  0
 12 14  1  0  0  0  0
 14 15  1  0  0  0  0
 14 18  1  6  0  0  0
 15 17  1  0  0  0  0
 16 17  1  0  0  0  0
 18 19  1  0  0  0  0
 19 23  1  0  0  0  0
 20 21  2  0  0  0  0
 20 25  1  0  0  0  0
 21 22  1  0  0  0  0
 22 23  2  0  0  0  0
 23 24  1  0  0  0  0
 24 25  2  0  0  0  0
M  END
>  <CHROM.1>
-51.00234357,-155.03262889,-99.44972099,18.41891290,57.91145369,5.43897022
-21.71559846,24.05996100,-0.96916482,-0.07322303,0.85487253

>  <Name>
ligand

>  <RI>
0

>  <Rbt.Current_Directory>
/home/itssahil/PROJECTS/Mol_Feturizer/New_Systems/rnas/4LVV

>  <Rbt.Executable>
rbdock ($Id: //depot/dev/client3/rdock/2013.1/src/exe/rbdock.cxx#4 $)

>  <Rbt.Library>
libRbt.so (2013.1, Build901 2013/11/27)

>  <Rbt.Parameter_File>
/export/apps/rDock/src/rDock_2013.1_src/data/scripts/dock_solv.prm

>  <Rbt.Receptor>
prm/pocket_docking_5.prm

>  <SCORE>
-8.38177

>  <SCORE.INTER>
-8.67282

>  <SCORE.INTER.CONST>
1

>  <SCORE.INTER.POLAR>
0

>  <SCORE.INTER.ROT>
5

>  <SCORE.INTER.SOLV>
12.4805

>  <SCORE.INTER.VDW>
-16.8754

>  <SCORE.INTER.norm>
-0.346913

>  <SCORE.INTRA>
0.291042

>  <SCORE.INTRA.DIHEDRAL>
2.20447

>  <SCORE.INTRA.DIHEDRAL.0>
3.94806

>  <SCORE.INTRA.POLAR>
0

>  <SCORE.INTRA.POLAR.0>
0

>  <SCORE.INTRA.REPUL>
0

>  <SCORE.INTRA.REPUL.0>
0

>  <SCORE.INTRA.SOLV>
-0.273633

>  <SCORE.INTRA.SOLV.lig_0>
-70.9803

>  <SCORE.INTRA.VDW>
-0.674375

>  <SCORE.INTRA.VDW.0>
-0.709409

>  <SCORE.INTRA.norm>
0.0116417

>  <SCORE.RESTR>
0

>  <SCORE.RESTR.CAVITY>
0

>  <SCORE.RESTR.norm>
0

>  <SCORE.SYSTEM>
0

>  <SCORE.SYSTEM.CONST>
0

>  <SCORE.SYSTEM.DIHEDRAL>
0

>  <SCORE.SYSTEM.SOLV>
0

>  <SCORE.SYSTEM.norm>
0

>  <SCORE.heavy>
25

>  <SCORE.norm>
-0.335271

>  <RMSD>
4.324

$$$$
ligand
 OpenBabel11021811503D
libRbt.so/2013.1/901 2013/11/27
 25 27  0  0  0  0  0  0  0  0999 V2000
    8.0564  -22.2819   20.8111 N   0  0  0  0  0  0  0  0  0  0  0  0
    7.3889  -23.3999   21.4027 C   0  0  0  0  0  0  0  0  0  0  0  0
    7.5489  -24.5307   20.9602 O   0  0  0  0  0  0  0  0  0  0  0  0
    4.5158  -18.4256   21.2758 N   0  0  0  0  0  0  0  0  0  0  0  0
    4.3676  -18.4786   23.6718 N   0  0  0  0  0  0  0  0  0  0  0  0
    3.9597  -18.9618   22.4756 C   0  0  0  0  0  0  0  0  0  0  0  0
    3.0164  -19.9479   22.3964 N   0  0  0  0  0  0  0  0  0  0  0  0
    2.4482  -20.4917   23.5027 C   0  0  0  0  0  0  0  0  0  0  0  0
    2.8586  -20.0232   24.7738 C   0  0  0  0  0  0  0  0  0  0  0  0
    1.5131  -21.4897   23.3594 O   0  0  0  0  0  0  0  0  0  0  0  0
    0.9325  -20.8236   26.2393 C   0  0  0  0  0  0  0  0  0  0  0  0
    2.3230  -20.4915   26.0416 N   0  0  0  0  0  0  0  0  0  0  0  0
    0.0686  -19.9847   26.4714 O   0  0  0  0  0  0  0  0  0  0  0  0
    3.2356  -20.4979   27.1040 C   0  0  2  0  0  0  0  0  0  0  0  0
    3.8071  -19.0709   27.3054 C   0  0  0  0  0  0  0  0  0  0  0  0
    3.8334  -18.9776   24.8311 C   0  0  0  0  0  0  0  0  0  0  0  0
    4.2866  -18.4674   26.1281 N   0  0  0  0  0  0  0  0  0  0  0  0
    4.3558  -21.4855   26.8469 C   0  0  0  0  0  0  0  0  0  0  0  0
    4.0739  -22.5786   25.9582 N   0  0  0  0  0  0  0  0  0  0  0  0
    6.5068  -23.1668   22.5801 C   0  0  0  0  0  0  0  0  0  0  0  0
    5.3060  -22.4833   22.4475 C   0  0  0  0  0  0  0  0  0  0  0  0
    4.5052  -22.2830   23.5653 C   0  0  0  0  0  0  0  0  0  0  0  0
    4.8987  -22.7761   24.8078 C   0  0  0  0  0  0  0  0  0  0  0  0
    6.0917  -23.4662   24.9331 C   0  0  0  0  0  0  0  0  0  0  0  0
    6.8981  -23.6571   23.8176 C   0  0  0  0  0  0  0  0  0  0  0  0
  1  2  1  0  0  0  0
  2  3  2  0  0  0  0
  2 20  1  0  0  0  0
  4  6  1  0  0  0  0
  5  6  2  0  0  0  0
  5 16  1  0  0  0  0
  6  7  1  0  0  0  0
  7  8  1  0  0  0  0
  8  9  1  0  0  0  0
  8 10  2  0  0  0  0
  9 12  1  0  0  0  0
  9 16  2  0  0  0  0
 11 13  1  0  0  0  0
 11 12  1  0  0  0  0
 12 14  1  0  0  0  0
 14 15  1  0  0  0  0
 14 18  1  6  0  0  0
 15 17  1  0  0  0  0
 16 17  1  0  0  0  0
 18 19  1  0  0  0  0
 19 23  1  0  0  0  0
 20 21  2  0  0  0  0
 20 25  1  0  0  0  0
 21 22  1  0  0  0  0
 22 23  2  0  0  0  0
 23 24  1  0  0  0  0
 24 25  2  0  0  0  0
M  END
>  <CHROM.1>
-82.11906515,-24.67492265,123.64336851,-96.87375220,69.14090791,4.20653961
-21.10355682,24.16898346,0.18321390,0.82312094,-0.92499983

>  <Name>
ligand

>  <RI>
0

>  <Rbt.Current_Directory>
/home/itssahil/PROJECTS/Mol_Feturizer/New_Systems/rnas/4LVV

>  <Rbt.Executable>
rbdock ($Id: //depot/dev/client3/rdock/2013.1/src/exe/rbdock.cxx#4 $)

>  <Rbt.Library>
libRbt.so (2013.1, Build901 2013/11/27)

>  <Rbt.Parameter_File>
/export/apps/rDock/src/rDock_2013.1_src/data/scripts/dock_solv.prm

>  <Rbt.Receptor>
prm/pocket_docking_4.prm

>  <SCORE>
-12.8374

>  <SCORE.INTER>
-12.9392

>  <SCORE.INTER.CONST>
1

>  <SCORE.INTER.POLAR>
0

>  <SCORE.INTER.ROT>
5

>  <SCORE.INTER.SOLV>
14.4515

>  <SCORE.INTER.VDW>
-20.3766

>  <SCORE.INTER.norm>
-0.517569

>  <SCORE.INTRA>
0.101793

>  <SCORE.INTRA.DIHEDRAL>
3.72247

>  <SCORE.INTRA.DIHEDRAL.0>
3.94806

>  <SCORE.INTRA.POLAR>
0

>  <SCORE.INTRA.POLAR.0>
0

>  <SCORE.INTRA.REPUL>
0

>  <SCORE.INTRA.REPUL.0>
0

>  <SCORE.INTRA.SOLV>
1.22021

>  <SCORE.INTRA.SOLV.lig_0>
-70.9803

>  <SCORE.INTRA.VDW>
-2.36955

>  <SCORE.INTRA.VDW.0>
-0.709409

>  <SCORE.INTRA.norm>
0.00407171

>  <SCORE.RESTR>
0

>  <SCORE.RESTR.CAVITY>
0

>  <SCORE.RESTR.norm>
0

>  <SCORE.SYSTEM>
0

>  <SCORE.SYSTEM.CONST>
0

>  <SCORE.SYSTEM.DIHEDRAL>
0

>  <SCORE.SYSTEM.SOLV>
0

>  <SCORE.SYSTEM.norm>
0

>  <SCORE.heavy>
25

>  <SCORE.norm>
-0.513497

>  <RMSD>
4.329

$$$$
ligand
 OpenBabel11021811503D
libRbt.so/2013.1/901 2013/11/27
 25 27  0  0  0  0  0  0  0  0999 V2000
    9.3436  -24.6669   21.9647 N   0  0  0  0  0  0  0  0  0  0  0  0
    8.5461  -24.3061   20.8337 C   0  0  0  0  0  0  0  0  0  0  0  0
    8.7453  -24.8169   19.7384 O   0  0  0  0  0  0  0  0  0  0  0  0
    6.2200  -18.5730   28.4281 N   0  0  0  0  0  0  0  0  0  0  0  0
    5.7143  -20.1851   26.7220 N   0  0  0  0  0  0  0  0  0  0  0  0
    5.3083  -19.1517   27.4954 C   0  0  0  0  0  0  0  0  0  0  0  0
    4.0363  -18.6592   27.4057 N   0  0  0  0  0  0  0  0  0  0  0  0
    3.1242  -19.1731   26.5418 C   0  0  0  0  0  0  0  0  0  0  0  0
    3.5145  -20.2459   25.7049 C   0  0  0  0  0  0  0  0  0  0  0  0
    1.8632  -18.6271   26.4888 O   0  0  0  0  0  0  0  0  0  0  0  0
    1.2462  -21.1753   25.0053 C   0  0  0  0  0  0  0  0  0  0  0  0
    2.6423  -20.9121   24.7515 N   0  0  0  0  0  0  0  0  0  0  0  0
    0.3831  -21.1147   24.1364 O   0  0  0  0  0  0  0  0  0  0  0  0
    3.2786  -21.3851   23.5969 C   0  0  2  0  0  0  0  0  0  0  0  0
    4.4150  -22.3620   23.9942 C   0  0  0  0  0  0  0  0  0  0  0  0
    4.8450  -20.7568   25.8299 C   0  0  0  0  0  0  0  0  0  0  0  0
    5.2882  -21.8648   24.9793 N   0  0  0  0  0  0  0  0  0  0  0  0
    3.8301  -20.2370   22.7761 C   0  0  0  0  0  0  0  0  0  0  0  0
    4.3160  -20.5470   21.4600 N   0  0  0  0  0  0  0  0  0  0  0  0
    7.4550  -23.3084   21.0152 C   0  0  0  0  0  0  0  0  0  0  0  0
    7.6952  -22.0957   21.6464 C   0  0  0  0  0  0  0  0  0  0  0  0
    6.6561  -21.1860   21.7995 C   0  0  0  0  0  0  0  0  0  0  0  0
    5.3853  -21.4836   21.3112 C   0  0  0  0  0  0  0  0  0  0  0  0
    5.1532  -22.6895   20.6731 C   0  0  0  0  0  0  0  0  0  0  0  0
    6.1895  -23.6042   20.5297 C   0  0  0  0  0  0  0  0  0  0  0  0
  1  2  1  0  0  0  0
  2  3  2  0  0  0  0
  2 20  1  0  0  0  0
  4  6  1  0  0  0  0
  5  6  2  0  0  0  0
  5 16  1  0  0  0  0
  6  7  1  0  0  0  0
  7  8  1  0  0  0  0
  8  9  1  0  0  0  0
  8 10  2  0  0  0  0
  9 12  1  0  0  0  0
  9 16  2  0  0  0  0
 11 13  1  0  0  0  0
 11 12  1  0  0  0  0
 12 14  1  0  0  0  0
 14 15  1  0  0  0  0
 14 18  1  1  0  0  0
 15 17  1  0  0  0  0
 16 17  1  0  0  0  0
 18 19  1  0  0  0  0
 19 23  1  0  0  0  0
 20 21  2  0  0  0  0
 20 25  1  0  0  0  0
 21 22  1  0  0  0  0
 22 23  2  0  0  0  0
 23 24  1  0  0  0  0
 24 25  2  0  0  0  0
M  END
>  <CHROM.1>
143.71833496,-170.09101497,-59.74450784,-65.95534076,50.05680689,4.93584231
-21.30786651,23.83762771,-0.99063832,-0.18662233,1.06334567

>  <Name>
ligand

>  <RI>
0

>  <Rbt.Current_Directory>
/home/itssahil/PROJECTS/Mol_Feturizer/New_Systems/rnas/4LVV

>  <Rbt.Executable>
rbdock ($Id: //depot/dev/client3/rdock/2013.1/src/exe/rbdock.cxx#4 $)

>  <Rbt.Library>
libRbt.so (2013.1, Build901 2013/11/27)

>  <Rbt.Parameter_File>
/export/apps/rDock/src/rDock_2013.1_src/data/scripts/dock_solv.prm

>  <Rbt.Receptor>
prm/pocket_docking_6.prm

>  <SCORE>
-9.10502

>  <SCORE.INTER>
-7.75425

>  <SCORE.INTER.CONST>
1

>  <SCORE.INTER.POLAR>
0

>  <SCORE.INTER.ROT>
5

>  <SCORE.INTER.SOLV>
12.6469

>  <SCORE.INTER.VDW>
-16.3185

>  <SCORE.INTER.norm>
-0.31017

>  <SCORE.INTRA>
-1.35077

>  <SCORE.INTRA.DIHEDRAL>
-0.499588

>  <SCORE.INTRA.DIHEDRAL.0>
3.94806

>  <SCORE.INTRA.POLAR>
0

>  <SCORE.INTRA.POLAR.0>
0

>  <SCORE.INTRA.REPUL>
0

>  <SCORE.INTRA.REPUL.0>
0

>  <SCORE.INTRA.SOLV>
-0.0131767

>  <SCORE.INTRA.SOLV.lig_0>
-70.9803

>  <SCORE.INTRA.VDW>
-1.09439

>  <SCORE.INTRA.VDW.0>
-0.709409

>  <SCORE.INTRA.norm>
-0.0540307

>  <SCORE.RESTR>
0

>  <SCORE.RESTR.CAVITY>
0

>  <SCORE.RESTR.norm>
0

>  <SCORE.SYSTEM>
0

>  <SCORE.SYSTEM.CONST>
0

>  <SCORE.SYSTEM.DIHEDRAL>
0

>  <SCORE.SYSTEM.SOLV>
0

>  <SCORE.SYSTEM.norm>
0

>  <SCORE.heavy>
25

>  <SCORE.norm>
-0.364201

>  <RMSD>
4.348

$$$$
ligand
 OpenBabel11021811503D
libRbt.so/2013.1/901 2013/11/27
 25 27  0  0  0  0  0  0  0  0999 V2000
    8.7040  -23.4898   21.5074 N   0  0  0  0  0  0  0  0  0  0  0  0
    7.2845  -23.5371   21.3396 C   0  0  0  0  0  0  0  0  0  0  0  0
    6.7913  -23.8161   20.2538 O   0  0  0  0  0  0  0  0  0  0  0  0
    4.6049  -18.6839   21.1221 N   0  0  0  0  0  0  0  0  0  0  0  0
    4.5513  -18.6338   23.5221 N   0  0  0  0  0  0  0  0  0  0  0  0
    4.0509  -19.1200   22.3627 C   0  0  0  0  0  0  0  0  0  0  0  0
    3.0170  -20.0141   22.3593 N   0  0  0  0  0  0  0  0  0  0  0  0
    2.4465  -20.4599   23.5074 C   0  0  0  0  0  0  0  0  0  0  0  0
    2.9510  -19.9858   24.7420 C   0  0  0  0  0  0  0  0  0  0  0  0
    1.4169  -21.3690   23.4401 O   0  0  0  0  0  0  0  0  0  0  0  0
    1.0204  -20.5444   26.3102 C   0  0  0  0  0  0  0  0  0  0  0  0
    2.4265  -20.3537   26.0470 N   0  0  0  0  0  0  0  0  0  0  0  0
    0.3437  -21.4022   25.7532 O   0  0  0  0  0  0  0  0  0  0  0  0
    3.3776  -20.4076   27.0738 C   0  0  2  0  0  0  0  0  0  0  0  0
    4.0880  -19.0349   27.1953 C   0  0  0  0  0  0  0  0  0  0  0  0
    4.0209  -19.0363   24.7201 C   0  0  0  0  0  0  0  0  0  0  0  0
    4.5730  -18.5239   25.9772 N   0  0  0  0  0  0  0  0  0  0  0  0
    4.3889  -21.5061   26.8155 C   0  0  0  0  0  0  0  0  0  0  0  0
    4.0119  -22.5387   25.8904 N   0  0  0  0  0  0  0  0  0  0  0  0
    6.4142  -23.2573   22.5156 C   0  0  0  0  0  0  0  0  0  0  0  0
    5.2404  -22.5296   22.3771 C   0  0  0  0  0  0  0  0  0  0  0  0
    4.4499  -22.2863   23.4937 C   0  0  0  0  0  0  0  0  0  0  0  0
    4.8264  -22.7804   24.7411 C   0  0  0  0  0  0  0  0  0  0  0  0
    5.9922  -23.5147   24.8724 C   0  0  0  0  0  0  0  0  0  0  0  0
    6.7886  -23.7487   23.7579 C   0  0  0  0  0  0  0  0  0  0  0  0
  1  2  1  0  0  0  0
  2  3  2  0  0  0  0
  2 20  1  0  0  0  0
  4  6  1  0  0  0  0
  5  6  2  0  0  0  0
  5 16  1  0  0  0  0
  6  7  1  0  0  0  0
  7  8  1  0  0  0  0
  8  9  1  0  0  0  0
  8 10  2  0  0  0  0
  9 12  1  0  0  0  0
  9 16  2  0  0  0  0
 11 13  1  0  0  0  0
 11 12  1  0  0  0  0
 12 14  1  0  0  0  0
 14 15  1  0  0  0  0
 14 18  1  6  0  0  0
 15 17  1  0  0  0  0
 16 17  1  0  0  0  0
 18 19  1  0  0  0  0
 19 23  1  0  0  0  0
 20 21  2  0  0  0  0
 20 25  1  0  0  0  0
 21 22  1  0  0  0  0
 22 23  2  0  0  0  0
 23 24  1  0  0  0  0
 24 25  2  0  0  0  0
M  END
>  <CHROM.1>
61.69364703,-19.34736236,122.48578991,-101.08488576,141.25263344,4.24541996
-21.20193717,24.08079798,-0.26294317,-0.82557434,2.13067062

>  <Name>
ligand

>  <RI>
0

>  <Rbt.Current_Directory>
/home/itssahil/PROJECTS/Mol_Feturizer/New_Systems/rnas/4LVV

>  <Rbt.Executable>
rbdock ($Id: //depot/dev/client3/rdock/2013.1/src/exe/rbdock.cxx#4 $)

>  <Rbt.Library>
libRbt.so (2013.1, Build901 2013/11/27)

>  <Rbt.Parameter_File>
/export/apps/rDock/src/rDock_2013.1_src/data/scripts/dock_solv.prm

>  <Rbt.Receptor>
prm/pocket_docking_5.prm

>  <SCORE>
-12.3112

>  <SCORE.INTER>
-13.6066

>  <SCORE.INTER.CONST>
1

>  <SCORE.INTER.POLAR>
0

>  <SCORE.INTER.ROT>
5

>  <SCORE.INTER.SOLV>
13.7976

>  <SCORE.INTER.VDW>
-20.6036

>  <SCORE.INTER.norm>
-0.544264

>  <SCORE.INTRA>
1.29542

>  <SCORE.INTRA.DIHEDRAL>
4.51143

>  <SCORE.INTRA.DIHEDRAL.0>
3.94806

>  <SCORE.INTRA.POLAR>
0

>  <SCORE.INTRA.POLAR.0>
0

>  <SCORE.INTRA.REPUL>
0

>  <SCORE.INTRA.REPUL.0>
0

>  <SCORE.INTRA.SOLV>
1.95164

>  <SCORE.INTRA.SOLV.lig_0>
-70.9803

>  <SCORE.INTRA.VDW>
-1.93611

>  <SCORE.INTRA.VDW.0>
-0.709409

>  <SCORE.INTRA.norm>
0.0518169

>  <SCORE.RESTR>
0

>  <SCORE.RESTR.CAVITY>
0

>  <SCORE.RESTR.norm>
0

>  <SCORE.SYSTEM>
0

>  <SCORE.SYSTEM.CONST>
0

>  <SCORE.SYSTEM.DIHEDRAL>
0

>  <SCORE.SYSTEM.SOLV>
0

>  <SCORE.SYSTEM.norm>
0

>  <SCORE.heavy>
25

>  <SCORE.norm>
-0.492447

>  <RMSD>
4.356

$$$$
ligand
 OpenBabel11021811503D
libRbt.so/2013.1/901 2013/11/27
 25 27  0  0  0  0  0  0  0  0999 V2000
    6.0713  -20.3611   31.4338 N   0  0  0  0  0  0  0  0  0  0  0  0
    5.0020  -21.2342   31.0599 C   0  0  0  0  0  0  0  0  0  0  0  0
    4.2937  -21.7571   31.9114 O   0  0  0  0  0  0  0  0  0  0  0  0
   -1.1229  -21.6327   26.1522 N   0  0  0  0  0  0  0  0  0  0  0  0
    0.6605  -21.7002   24.5458 N   0  0  0  0  0  0  0  0  0  0  0  0
    0.1388  -21.1673   25.6749 C   0  0  0  0  0  0  0  0  0  0  0  0
    0.7949  -20.1835   26.3605 N   0  0  0  0  0  0  0  0  0  0  0  0
    1.9943  -19.6973   25.9511 C   0  0  0  0  0  0  0  0  0  0  0  0
    2.5804  -20.2389   24.7820 C   0  0  0  0  0  0  0  0  0  0  0  0
    2.6116  -18.7154   26.6897 O   0  0  0  0  0  0  0  0  0  0  0  0
    4.2706  -18.4241   24.1922 C   0  0  0  0  0  0  0  0  0  0  0  0
    3.8441  -19.8027   24.2108 N   0  0  0  0  0  0  0  0  0  0  0  0
    3.6026  -17.5215   23.6994 O   0  0  0  0  0  0  0  0  0  0  0  0
    4.5843  -20.8069   23.5741 C   0  0  2  0  0  0  0  0  0  0  0  0
    3.7294  -21.4487   22.4513 C   0  0  0  0  0  0  0  0  0  0  0  0
    1.8663  -21.2544   24.0708 C   0  0  0  0  0  0  0  0  0  0  0  0
    2.4409  -21.8425   22.8577 N   0  0  0  0  0  0  0  0  0  0  0  0
    5.0305  -21.8604   24.5678 C   0  0  0  0  0  0  0  0  0  0  0  0
    4.0674  -22.2896   25.5437 N   0  0  0  0  0  0  0  0  0  0  0  0
    4.7532  -21.4834   29.6126 C   0  0  0  0  0  0  0  0  0  0  0  0
    4.7128  -20.4341   28.7048 C   0  0  0  0  0  0  0  0  0  0  0  0
    4.4794  -20.7000   27.3610 C   0  0  0  0  0  0  0  0  0  0  0  0
    4.3000  -22.0117   26.9262 C   0  0  0  0  0  0  0  0  0  0  0  0
    4.3518  -23.0556   27.8333 C   0  0  0  0  0  0  0  0  0  0  0  0
    4.5742  -22.7891   29.1789 C   0  0  0  0  0  0  0  0  0  0  0  0
  1  2  1  0  0  0  0
  2  3  2  0  0  0  0
  2 20  1  0  0  0  0
  4  6  1  0  0  0  0
  5  6  2  0  0  0  0
  5 16  1  0  0  0  0
  6  7  1  0  0  0  0
  7  8  1  0  0  0  0
  8  9  1  0  0  0  0
  8 10  2  0  0  0  0
  9 12  1  0  0  0  0
  9 16  2  0  0  0  0
 11 13  1  0  0  0  0
 11 12  1  0  0  0  0
 12 14  1  0  0  0  0
 14 15  1  0  0  0  0
 14 18  1  1  0  0  0
 15 17  1  0  0  0  0
 16 17  1  0  0  0  0
 18 19  1  0  0  0  0
 19 23  1  0  0  0  0
 20 21  2  0  0  0  0
 20 25  1  0  0  0  0
 21 22  1  0  0  0  0
 22 23  2  0  0  0  0
 23 24  1  0  0  0  0
 24 25  2  0  0  0  0
M  END
>  <CHROM.1>
-55.63901134,42.72206483,-114.66126461,57.57016780,-46.68894761,3.33289888
-20.84343860,26.33452685,-1.21764784,-0.23206707,-1.34311025

>  <Name>
ligand

>  <RI>
0

>  <Rbt.Current_Directory>
/home/itssahil/PROJECTS/Mol_Feturizer/New_Systems/rnas/4LVV

>  <Rbt.Executable>
rbdock ($Id: //depot/dev/client3/rdock/2013.1/src/exe/rbdock.cxx#4 $)

>  <Rbt.Library>
libRbt.so (2013.1, Build901 2013/11/27)

>  <Rbt.Parameter_File>
/export/apps/rDock/src/rDock_2013.1_src/data/scripts/dock_solv.prm

>  <Rbt.Receptor>
prm/pocket_docking_8.prm

>  <SCORE>
-13.177

>  <SCORE.INTER>
-13.2033

>  <SCORE.INTER.CONST>
1

>  <SCORE.INTER.POLAR>
0

>  <SCORE.INTER.ROT>
5

>  <SCORE.INTER.SOLV>
27.6102

>  <SCORE.INTER.VDW>
-24.9389

>  <SCORE.INTER.norm>
-0.528134

>  <SCORE.INTRA>
0.0263891

>  <SCORE.INTRA.DIHEDRAL>
1.51705

>  <SCORE.INTRA.DIHEDRAL.0>
3.94806

>  <SCORE.INTRA.POLAR>
0

>  <SCORE.INTRA.POLAR.0>
0

>  <SCORE.INTRA.REPUL>
0

>  <SCORE.INTRA.REPUL.0>
0

>  <SCORE.INTRA.SOLV>
2.80034

>  <SCORE.INTRA.SOLV.lig_0>
-70.9803

>  <SCORE.INTRA.VDW>
-2.13231

>  <SCORE.INTRA.VDW.0>
-0.709409

>  <SCORE.INTRA.norm>
0.00105556

>  <SCORE.RESTR>
0

>  <SCORE.RESTR.CAVITY>
0

>  <SCORE.RESTR.norm>
0

>  <SCORE.SYSTEM>
0

>  <SCORE.SYSTEM.CONST>
0

>  <SCORE.SYSTEM.DIHEDRAL>
0

>  <SCORE.SYSTEM.SOLV>
0

>  <SCORE.SYSTEM.norm>
0

>  <SCORE.heavy>
25

>  <SCORE.norm>
-0.527078

>  <RMSD>
4.380

$$$$
ligand
 OpenBabel11021811503D
libRbt.so/2013.1/901 2013/11/27
 25 27  0  0  0  0  0  0  0  0999 V2000
    7.8443  -21.7486   20.9542 N   0  0  0  0  0  0  0  0  0  0  0  0
    7.9399  -22.6341   22.0732 C   0  0  0  0  0  0  0  0  0  0  0  0
    8.8342  -23.4686   22.1367 O   0  0  0  0  0  0  0  0  0  0  0  0
    5.4999  -17.7939   21.5152 N   0  0  0  0  0  0  0  0  0  0  0  0
    4.1882  -18.0281   23.5127 N   0  0  0  0  0  0  0  0  0  0  0  0
    4.6466  -18.5662   22.3589 C   0  0  0  0  0  0  0  0  0  0  0  0
    4.2981  -19.8332   21.9827 N   0  0  0  0  0  0  0  0  0  0  0  0
    3.4853  -20.6119   22.7412 C   0  0  0  0  0  0  0  0  0  0  0  0
    2.9961  -20.0905   23.9629 C   0  0  0  0  0  0  0  0  0  0  0  0
    3.1799  -21.8834   22.3156 O   0  0  0  0  0  0  0  0  0  0  0  0
    1.0271  -21.6468   24.4094 C   0  0  0  0  0  0  0  0  0  0  0  0
    2.1002  -20.7959   24.8647 N   0  0  0  0  0  0  0  0  0  0  0  0
   -0.1578  -21.3873   24.5898 O   0  0  0  0  0  0  0  0  0  0  0  0
    2.2803  -20.5081   26.2235 C   0  0  2  0  0  0  0  0  0  0  0  0
    2.1178  -18.9840   26.4569 C   0  0  0  0  0  0  0  0  0  0  0  0
    3.3592  -18.7554   24.3266 C   0  0  0  0  0  0  0  0  0  0  0  0
    2.8757  -18.1805   25.5849 N   0  0  0  0  0  0  0  0  0  0  0  0
    3.6419  -20.9742   26.6979 C   0  0  0  0  0  0  0  0  0  0  0  0
    4.0858  -22.2643   26.2476 N   0  0  0  0  0  0  0  0  0  0  0  0
    6.9407  -22.5120   23.1711 C   0  0  0  0  0  0  0  0  0  0  0  0
    6.6767  -21.2840   23.7618 C   0  0  0  0  0  0  0  0  0  0  0  0
    5.7380  -21.2034   24.7833 C   0  0  0  0  0  0  0  0  0  0  0  0
    5.0575  -22.3448   25.2025 C   0  0  0  0  0  0  0  0  0  0  0  0
    5.3163  -23.5651   24.6032 C   0  0  0  0  0  0  0  0  0  0  0  0
    6.2629  -23.6481   23.5892 C   0  0  0  0  0  0  0  0  0  0  0  0
  1  2  1  0  0  0  0
  2  3  2  0  0  0  0
  2 20  1  0  0  0  0
  4  6  1  0  0  0  0
  5  6  2  0  0  0  0
  5 16  1  0  0  0  0
  6  7  1  0  0  0  0
  7  8  1  0  0  0  0
  8  9  1  0  0  0  0
  8 10  2  0  0  0  0
  9 12  1  0  0  0  0
  9 16  2  0  0  0  0
 11 13  1  0  0  0  0
 11 12  1  0  0  0  0
 12 14  1  0  0  0  0
 14 15  1  0  0  0  0
 14 18  1  6  0  0  0
 15 17  1  0  0  0  0
 16 17  1  0  0  0  0
 18 19  1  0  0  0  0
 19 23  1  0  0  0  0
 20 21  2  0  0  0  0
 20 25  1  0  0  0  0
 21 22  1  0  0  0  0
 22 23  2  0  0  0  0
 23 24  1  0  0  0  0
 24 25  2  0  0  0  0
M  END
>  <CHROM.1>
-113.92720358,-42.71767473,103.11466215,11.05322124,-50.87004018,4.34772362
-20.90234546,23.91526836,-0.09955245,0.58079740,-0.50738588

>  <Name>
ligand

>  <RI>
0

>  <Rbt.Current_Directory>
/home/itssahil/PROJECTS/Mol_Feturizer/New_Systems/rnas/4LVV

>  <Rbt.Executable>
rbdock ($Id: //depot/dev/client3/rdock/2013.1/src/exe/rbdock.cxx#4 $)

>  <Rbt.Library>
libRbt.so (2013.1, Build901 2013/11/27)

>  <Rbt.Parameter_File>
/export/apps/rDock/src/rDock_2013.1_src/data/scripts/dock_solv.prm

>  <Rbt.Receptor>
prm/pocket_docking_5.prm

>  <SCORE>
-11.7175

>  <SCORE.INTER>
-9.61948

>  <SCORE.INTER.CONST>
1

>  <SCORE.INTER.POLAR>
0

>  <SCORE.INTER.ROT>
5

>  <SCORE.INTER.SOLV>
14.2768

>  <SCORE.INTER.VDW>
-18.1052

>  <SCORE.INTER.norm>
-0.384779

>  <SCORE.INTRA>
-2.09803

>  <SCORE.INTRA.DIHEDRAL>
1.28866

>  <SCORE.INTRA.DIHEDRAL.0>
3.94806

>  <SCORE.INTRA.POLAR>
0

>  <SCORE.INTRA.POLAR.0>
0

>  <SCORE.INTRA.REPUL>
0

>  <SCORE.INTRA.REPUL.0>
0

>  <SCORE.INTRA.SOLV>
0.646025

>  <SCORE.INTRA.SOLV.lig_0>
-70.9803

>  <SCORE.INTRA.VDW>
-3.06538

>  <SCORE.INTRA.VDW.0>
-0.709409

>  <SCORE.INTRA.norm>
-0.0839212

>  <SCORE.RESTR>
0

>  <SCORE.RESTR.CAVITY>
0

>  <SCORE.RESTR.norm>
0

>  <SCORE.SYSTEM>
0

>  <SCORE.SYSTEM.CONST>
0

>  <SCORE.SYSTEM.DIHEDRAL>
0

>  <SCORE.SYSTEM.SOLV>
0

>  <SCORE.SYSTEM.norm>
0

>  <SCORE.heavy>
25

>  <SCORE.norm>
-0.4687

>  <RMSD>
4.404

$$$$
ligand
 OpenBabel11021811503D
libRbt.so/2013.1/901 2013/11/27
 25 27  0  0  0  0  0  0  0  0999 V2000
    4.9605  -20.9633   32.2760 N   0  0  0  0  0  0  0  0  0  0  0  0
    4.4772  -21.9555   31.3664 C   0  0  0  0  0  0  0  0  0  0  0  0
    3.7768  -22.8792   31.7615 O   0  0  0  0  0  0  0  0  0  0  0  0
   -1.4837  -21.7461   26.2851 N   0  0  0  0  0  0  0  0  0  0  0  0
    0.3428  -21.7252   24.7266 N   0  0  0  0  0  0  0  0  0  0  0  0
   -0.2172  -21.2442   25.8606 C   0  0  0  0  0  0  0  0  0  0  0  0
    0.4049  -20.2782   26.6010 N   0  0  0  0  0  0  0  0  0  0  0  0
    1.6070  -19.7590   26.2435 C   0  0  0  0  0  0  0  0  0  0  0  0
    2.2326  -20.2463   25.0709 C   0  0  0  0  0  0  0  0  0  0  0  0
    2.1889  -18.7974   27.0358 O   0  0  0  0  0  0  0  0  0  0  0  0
    3.9093  -18.3854   24.5975 C   0  0  0  0  0  0  0  0  0  0  0  0
    3.5041  -19.7698   24.5516 N   0  0  0  0  0  0  0  0  0  0  0  0
    4.6093  -17.9203   25.4905 O   0  0  0  0  0  0  0  0  0  0  0  0
    4.2767  -20.7377   23.8974 C   0  0  2  0  0  0  0  0  0  0  0  0
    3.4623  -21.3480   22.7279 C   0  0  0  0  0  0  0  0  0  0  0  0
    1.5538  -21.2438   24.3022 C   0  0  0  0  0  0  0  0  0  0  0  0
    2.1697  -21.7760   23.0836 N   0  0  0  0  0  0  0  0  0  0  0  0
    4.7126  -21.8222   24.8618 C   0  0  0  0  0  0  0  0  0  0  0  0
    5.7151  -21.4732   25.8300 N   0  0  0  0  0  0  0  0  0  0  0  0
    4.8272  -21.8359   29.9235 C   0  0  0  0  0  0  0  0  0  0  0  0
    6.0383  -22.3131   29.4414 C   0  0  0  0  0  0  0  0  0  0  0  0
    6.3345  -22.1871   28.0896 C   0  0  0  0  0  0  0  0  0  0  0  0
    5.4170  -21.5976   27.2222 C   0  0  0  0  0  0  0  0  0  0  0  0
    4.2063  -21.1330   27.7056 C   0  0  0  0  0  0  0  0  0  0  0  0
    3.9143  -21.2488   29.0593 C   0  0  0  0  0  0  0  0  0  0  0  0
  1  2  1  0  0  0  0
  2  3  2  0  0  0  0
  2 20  1  0  0  0  0
  4  6  1  0  0  0  0
  5  6  2  0  0  0  0
  5 16  1  0  0  0  0
  6  7  1  0  0  0  0
  7  8  1  0  0  0  0
  8  9  1  0  0  0  0
  8 10  2  0  0  0  0
  9 12  1  0  0  0  0
  9 16  2  0  0  0  0
 11 13  1  0  0  0  0
 11 12  1  0  0  0  0
 12 14  1  0  0  0  0
 14 15  1  0  0  0  0
 14 18  1  1  0  0  0
 15 17  1  0  0  0  0
 16 17  1  0  0  0  0
 18 19  1  0  0  0  0
 19 23  1  0  0  0  0
 20 21  2  0  0  0  0
 20 25  1  0  0  0  0
 21 22  1  0  0  0  0
 22 23  2  0  0  0  0
 23 24  1  0  0  0  0
 24 25  2  0  0  0  0
M  END
>  <CHROM.1>
95.18077987,-71.78957584,120.94341655,134.63778216,83.69676372,3.29527439
-20.93200428,26.69097482,1.14352757,0.05794632,1.79325891

>  <Name>
ligand

>  <RI>
0

>  <Rbt.Current_Directory>
/home/itssahil/PROJECTS/Mol_Feturizer/New_Systems/rnas/4LVV

>  <Rbt.Executable>
rbdock ($Id: //depot/dev/client3/rdock/2013.1/src/exe/rbdock.cxx#4 $)

>  <Rbt.Library>
libRbt.so (2013.1, Build901 2013/11/27)

>  <Rbt.Parameter_File>
/export/apps/rDock/src/rDock_2013.1_src/data/scripts/dock_solv.prm

>  <Rbt.Receptor>
prm/pocket_docking_8.prm

>  <SCORE>
-14.6127

>  <SCORE.INTER>
-13.257

>  <SCORE.INTER.CONST>
1

>  <SCORE.INTER.POLAR>
0

>  <SCORE.INTER.ROT>
5

>  <SCORE.INTER.SOLV>
29.4973

>  <SCORE.INTER.VDW>
-25.6038

>  <SCORE.INTER.norm>
-0.53028

>  <SCORE.INTRA>
-1.35574

>  <SCORE.INTRA.DIHEDRAL>
1.18095

>  <SCORE.INTRA.DIHEDRAL.0>
3.94806

>  <SCORE.INTRA.POLAR>
0

>  <SCORE.INTRA.POLAR.0>
0

>  <SCORE.INTRA.REPUL>
0

>  <SCORE.INTRA.REPUL.0>
0

>  <SCORE.INTRA.SOLV>
0.495363

>  <SCORE.INTRA.SOLV.lig_0>
-70.9803

>  <SCORE.INTRA.VDW>
-2.1939

>  <SCORE.INTRA.VDW.0>
-0.709409

>  <SCORE.INTRA.norm>
-0.0542296

>  <SCORE.RESTR>
0

>  <SCORE.RESTR.CAVITY>
0

>  <SCORE.RESTR.norm>
0

>  <SCORE.SYSTEM>
0

>  <SCORE.SYSTEM.CONST>
0

>  <SCORE.SYSTEM.DIHEDRAL>
0

>  <SCORE.SYSTEM.SOLV>
0

>  <SCORE.SYSTEM.norm>
0

>  <SCORE.heavy>
25

>  <SCORE.norm>
-0.584509

>  <RMSD>
4.451

$$$$
ligand
 OpenBabel11021811503D
libRbt.so/2013.1/901 2013/11/27
 25 27  0  0  0  0  0  0  0  0999 V2000
   10.3610  -24.0039   28.4795 N   0  0  0  0  0  0  0  0  0  0  0  0
    9.8425  -22.6835   28.6615 C   0  0  0  0  0  0  0  0  0  0  0  0
   10.5835  -21.7558   28.9624 O   0  0  0  0  0  0  0  0  0  0  0  0
    5.1242  -17.0431   22.1068 N   0  0  0  0  0  0  0  0  0  0  0  0
    4.0739  -17.8003   24.1288 N   0  0  0  0  0  0  0  0  0  0  0  0
    4.3587  -18.0112   22.8229 C   0  0  0  0  0  0  0  0  0  0  0  0
    3.9170  -19.1309   22.1753 N   0  0  0  0  0  0  0  0  0  0  0  0
    3.1804  -20.0827   22.8030 C   0  0  0  0  0  0  0  0  0  0  0  0
    2.8733  -19.9060   24.1735 C   0  0  0  0  0  0  0  0  0  0  0  0
    2.7749  -21.1936   22.1012 O   0  0  0  0  0  0  0  0  0  0  0  0
    0.9213  -21.5215   24.4531 C   0  0  0  0  0  0  0  0  0  0  0  0
    2.0755  -20.8251   24.9686 N   0  0  0  0  0  0  0  0  0  0  0  0
   -0.2241  -21.2881   24.8237 O   0  0  0  0  0  0  0  0  0  0  0  0
    2.4405  -20.9113   26.3181 C   0  0  2  0  0  0  0  0  0  0  0  0
    2.3671  -19.5048   26.9661 C   0  0  0  0  0  0  0  0  0  0  0  0
    3.3304  -18.7172   24.8252 C   0  0  0  0  0  0  0  0  0  0  0  0
    3.0356  -18.4988   26.2440 N   0  0  0  0  0  0  0  0  0  0  0  0
    3.8335  -21.4896   26.4643 C   0  0  0  0  0  0  0  0  0  0  0  0
    4.2897  -21.7693   27.7977 N   0  0  0  0  0  0  0  0  0  0  0  0
    8.3847  -22.4522   28.4614 C   0  0  0  0  0  0  0  0  0  0  0  0
    7.5124  -22.4236   29.5407 C   0  0  0  0  0  0  0  0  0  0  0  0
    6.1579  -22.2046   29.3206 C   0  0  0  0  0  0  0  0  0  0  0  0
    5.6810  -22.0024   28.0271 C   0  0  0  0  0  0  0  0  0  0  0  0
    6.5561  -22.0211   26.9551 C   0  0  0  0  0  0  0  0  0  0  0  0
    7.9091  -22.2511   27.1737 C   0  0  0  0  0  0  0  0  0  0  0  0
  1  2  1  0  0  0  0
  2  3  2  0  0  0  0
  2 20  1  0  0  0  0
  4  6  1  0  0  0  0
  5  6  2  0  0  0  0
  5 16  1  0  0  0  0
  6  7  1  0  0  0  0
  7  8  1  0  0  0  0
  8  9  1  0  0  0  0
  8 10  2  0  0  0  0
  9 12  1  0  0  0  0
  9 16  2  0  0  0  0
 11 13  1  0  0  0  0
 11 12  1  0  0  0  0
 12 14  1  0  0  0  0
 14 15  1  0  0  0  0
 14 18  1  6  0  0  0
 15 17  1  0  0  0  0
 16 17  1  0  0  0  0
 18 19  1  0  0  0  0
 19 23  1  0  0  0  0
 20 21  2  0  0  0  0
 20 25  1  0  0  0  0
 21 22  1  0  0  0  0
 22 23  2  0  0  0  0
 23 24  1  0  0  0  0
 24 25  2  0  0  0  0
M  END
>  <CHROM.1>
-111.57257986,-173.61687250,-164.93979149,176.55200357,97.53775991,4.77837049
-20.76560902,25.89354733,-0.73157554,-0.09701072,-0.92379505

>  <Name>
ligand

>  <RI>
0

>  <Rbt.Current_Directory>
/home/itssahil/PROJECTS/Mol_Feturizer/New_Systems/rnas/4LVV

>  <Rbt.Executable>
rbdock ($Id: //depot/dev/client3/rdock/2013.1/src/exe/rbdock.cxx#4 $)

>  <Rbt.Library>
libRbt.so (2013.1, Build901 2013/11/27)

>  <Rbt.Parameter_File>
/export/apps/rDock/src/rDock_2013.1_src/data/scripts/dock_solv.prm

>  <Rbt.Receptor>
prm/pocket_docking_5.prm

>  <SCORE>
-10.2044

>  <SCORE.INTER>
-9.88315

>  <SCORE.INTER.CONST>
1

>  <SCORE.INTER.POLAR>
0

>  <SCORE.INTER.ROT>
5

>  <SCORE.INTER.SOLV>
15.6708

>  <SCORE.INTER.VDW>
-18.7457

>  <SCORE.INTER.norm>
-0.395326

>  <SCORE.INTRA>
-0.32129

>  <SCORE.INTRA.DIHEDRAL>
-0.386494

>  <SCORE.INTRA.DIHEDRAL.0>
3.94806

>  <SCORE.INTRA.POLAR>
0

>  <SCORE.INTRA.POLAR.0>
0

>  <SCORE.INTRA.REPUL>
0

>  <SCORE.INTRA.REPUL.0>
0

>  <SCORE.INTRA.SOLV>
-0.390384

>  <SCORE.INTRA.SOLV.lig_0>
-70.9803

>  <SCORE.INTRA.VDW>
0.0671493

>  <SCORE.INTRA.VDW.0>
-0.709409

>  <SCORE.INTRA.norm>
-0.0128516

>  <SCORE.RESTR>
0

>  <SCORE.RESTR.CAVITY>
0

>  <SCORE.RESTR.norm>
0

>  <SCORE.SYSTEM>
0

>  <SCORE.SYSTEM.CONST>
0

>  <SCORE.SYSTEM.DIHEDRAL>
0

>  <SCORE.SYSTEM.SOLV>
0

>  <SCORE.SYSTEM.norm>
0

>  <SCORE.heavy>
25

>  <SCORE.norm>
-0.408178

>  <RMSD>
4.477

$$$$
ligand
 OpenBabel11021811503D
libRbt.so/2013.1/901 2013/11/27
 25 27  0  0  0  0  0  0  0  0999 V2000
    8.9133  -24.1736   20.9950 N   0  0  0  0  0  0  0  0  0  0  0  0
    9.0225  -24.3732   22.4069 C   0  0  0  0  0  0  0  0  0  0  0  0
    9.8672  -25.1304   22.8688 O   0  0  0  0  0  0  0  0  0  0  0  0
    7.4694  -16.5658   26.1270 N   0  0  0  0  0  0  0  0  0  0  0  0
    6.4003  -18.3656   27.3031 N   0  0  0  0  0  0  0  0  0  0  0  0
    6.3684  -17.4567   26.3012 C   0  0  0  0  0  0  0  0  0  0  0  0
    5.2949  -17.3705   25.4594 N   0  0  0  0  0  0  0  0  0  0  0  0
    4.2172  -18.1869   25.5805 C   0  0  0  0  0  0  0  0  0  0  0  0
    4.2184  -19.1610   26.6075 C   0  0  0  0  0  0  0  0  0  0  0  0
    3.1724  -18.0601   24.6955 O   0  0  0  0  0  0  0  0  0  0  0  0
    1.7362  -19.7217   26.7574 C   0  0  0  0  0  0  0  0  0  0  0  0
    3.1281  -20.0850   26.8737 N   0  0  0  0  0  0  0  0  0  0  0  0
    0.9025  -20.4282   26.2009 O   0  0  0  0  0  0  0  0  0  0  0  0
    3.5195  -21.3383   27.3613 C   0  0  2  0  0  0  0  0  0  0  0  0
    4.3414  -21.1548   28.6630 C   0  0  0  0  0  0  0  0  0  0  0  0
    5.3446  -19.2198   27.4879 C   0  0  0  0  0  0  0  0  0  0  0  0
    5.3850  -20.2163   28.5617 N   0  0  0  0  0  0  0  0  0  0  0  0
    4.3296  -22.0911   26.3253 C   0  0  0  0  0  0  0  0  0  0  0  0
    5.5780  -21.5072   25.9194 N   0  0  0  0  0  0  0  0  0  0  0  0
    8.1002  -23.6291   23.3093 C   0  0  0  0  0  0  0  0  0  0  0  0
    6.7235  -23.7410   23.1716 C   0  0  0  0  0  0  0  0  0  0  0  0
    5.8899  -23.0343   24.0299 C   0  0  0  0  0  0  0  0  0  0  0  0
    6.4323  -22.2295   25.0299 C   0  0  0  0  0  0  0  0  0  0  0  0
    7.8055  -22.1295   25.1702 C   0  0  0  0  0  0  0  0  0  0  0  0
    8.6394  -22.8273   24.3049 C   0  0  0  0  0  0  0  0  0  0  0  0
  1  2  1  0  0  0  0
  2  3  2  0  0  0  0
  2 20  1  0  0  0  0
  4  6  1  0  0  0  0
  5  6  2  0  0  0  0
  5 16  1  0  0  0  0
  6  7  1  0  0  0  0
  7  8  1  0  0  0  0
  8  9  1  0  0  0  0
  8 10  2  0  0  0  0
  9 12  1  0  0  0  0
  9 16  2  0  0  0  0
 11 13  1  0  0  0  0
 11 12  1  0  0  0  0
 12 14  1  0  0  0  0
 14 15  1  0  0  0  0
 14 18  1  6  0  0  0
 15 17  1  0  0  0  0
 16 17  1  0  0  0  0
 18 19  1  0  0  0  0
 19 23  1  0  0  0  0
 20 21  2  0  0  0  0
 20 25  1  0  0  0  0
 21 22  1  0  0  0  0
 22 23  2  0  0  0  0
 23 24  1  0  0  0  0
 24 25  2  0  0  0  0
M  END
>  <CHROM.1>
134.75664167,62.70656805,174.83118046,34.74556863,57.00278135,5.63951089
-20.85500383,25.52145027,-0.86240824,0.38754477,0.34288265

>  <Name>
ligand

>  <RI>
0

>  <Rbt.Current_Directory>
/home/itssahil/PROJECTS/Mol_Feturizer/New_Systems/rnas/4LVV

>  <Rbt.Executable>
rbdock ($Id: //depot/dev/client3/rdock/2013.1/src/exe/rbdock.cxx#4 $)

>  <Rbt.Library>
libRbt.so (2013.1, Build901 2013/11/27)

>  <Rbt.Parameter_File>
/export/apps/rDock/src/rDock_2013.1_src/data/scripts/dock_solv.prm

>  <Rbt.Receptor>
prm/pocket_docking_5.prm

>  <SCORE>
-9.40048

>  <SCORE.INTER>
-9.45847

>  <SCORE.INTER.CONST>
1

>  <SCORE.INTER.POLAR>
0

>  <SCORE.INTER.ROT>
5

>  <SCORE.INTER.SOLV>
10.1749

>  <SCORE.INTER.VDW>
-16.6306

>  <SCORE.INTER.norm>
-0.378339

>  <SCORE.INTRA>
0.0579831

>  <SCORE.INTRA.DIHEDRAL>
-0.741018

>  <SCORE.INTRA.DIHEDRAL.0>
3.94806

>  <SCORE.INTRA.POLAR>
0

>  <SCORE.INTRA.POLAR.0>
0

>  <SCORE.INTRA.REPUL>
0

>  <SCORE.INTRA.REPUL.0>
0

>  <SCORE.INTRA.SOLV>
2.25843

>  <SCORE.INTRA.SOLV.lig_0>
-70.9803

>  <SCORE.INTRA.VDW>
-0.700721

>  <SCORE.INTRA.VDW.0>
-0.709409

>  <SCORE.INTRA.norm>
0.00231932

>  <SCORE.RESTR>
0

>  <SCORE.RESTR.CAVITY>
0

>  <SCORE.RESTR.norm>
0

>  <SCORE.SYSTEM>
0

>  <SCORE.SYSTEM.CONST>
0

>  <SCORE.SYSTEM.DIHEDRAL>
0

>  <SCORE.SYSTEM.SOLV>
0

>  <SCORE.SYSTEM.norm>
0

>  <SCORE.heavy>
25

>  <SCORE.norm>
-0.376019

>  <RMSD>
4.496

$$$$
ligand
 OpenBabel11021811503D
libRbt.so/2013.1/901 2013/11/27
 25 27  0  0  0  0  0  0  0  0999 V2000
    7.1730  -22.5505   20.1392 N   0  0  0  0  0  0  0  0  0  0  0  0
    7.1904  -23.5304   21.1807 C   0  0  0  0  0  0  0  0  0  0  0  0
    7.8498  -24.5560   21.0646 O   0  0  0  0  0  0  0  0  0  0  0  0
    4.8815  -18.2686   21.1420 N   0  0  0  0  0  0  0  0  0  0  0  0
    4.6800  -18.3290   23.5339 N   0  0  0  0  0  0  0  0  0  0  0  0
    4.2773  -18.7872   22.3261 C   0  0  0  0  0  0  0  0  0  0  0  0
    3.2942  -19.7310   22.2204 N   0  0  0  0  0  0  0  0  0  0  0  0
    2.6794  -20.2560   23.3109 C   0  0  0  0  0  0  0  0  0  0  0  0
    3.0825  -19.8130   24.5934 C   0  0  0  0  0  0  0  0  0  0  0  0
    1.7054  -21.2117   23.1411 O   0  0  0  0  0  0  0  0  0  0  0  0
    1.0926  -20.5376   26.0125 C   0  0  0  0  0  0  0  0  0  0  0  0
    2.5001  -20.2650   25.8464 N   0  0  0  0  0  0  0  0  0  0  0  0
    0.6364  -21.1505   26.9717 O   0  0  0  0  0  0  0  0  0  0  0  0
    3.3887  -20.3170   26.9278 C   0  0  2  0  0  0  0  0  0  0  0  0
    4.0168  -18.9173   27.1508 C   0  0  0  0  0  0  0  0  0  0  0  0
    4.1001  -18.8110   24.6783 C   0  0  0  0  0  0  0  0  0  0  0  0
    4.5470  -18.3284   25.9879 N   0  0  0  0  0  0  0  0  0  0  0  0
    4.4704  -21.3507   26.6879 C   0  0  0  0  0  0  0  0  0  0  0  0
    4.1287  -22.4770   25.8639 N   0  0  0  0  0  0  0  0  0  0  0  0
    6.4043  -23.2735   22.4196 C   0  0  0  0  0  0  0  0  0  0  0  0
    6.8356  -23.7506   23.6497 C   0  0  0  0  0  0  0  0  0  0  0  0
    6.0799  -23.4931   24.7870 C   0  0  0  0  0  0  0  0  0  0  0  0
    4.9045  -22.7503   24.6951 C   0  0  0  0  0  0  0  0  0  0  0  0
    4.4841  -22.2675   23.4681 C   0  0  0  0  0  0  0  0  0  0  0  0
    5.2338  -22.5343   22.3288 C   0  0  0  0  0  0  0  0  0  0  0  0
  1  2  1  0  0  0  0
  2  3  2  0  0  0  0
  2 20  1  0  0  0  0
  4  6  1  0  0  0  0
  5  6  2  0  0  0  0
  5 16  1  0  0  0  0
  6  7  1  0  0  0  0
  7  8  1  0  0  0  0
  8  9  1  0  0  0  0
  8 10  2  0  0  0  0
  9 12  1  0  0  0  0
  9 16  2  0  0  0  0
 11 13  1  0  0  0  0
 11 12  1  0  0  0  0
 12 14  1  0  0  0  0
 14 15  1  0  0  0  0
 14 18  1  6  0  0  0
 15 17  1  0  0  0  0
 16 17  1  0  0  0  0
 18 19  1  0  0  0  0
 19 23  1  0  0  0  0
 20 21  2  0  0  0  0
 20 25  1  0  0  0  0
 21 22  1  0  0  0  0
 22 23  2  0  0  0  0
 23 24  1  0  0  0  0
 24 25  2  0  0  0  0
M  END
>  <CHROM.1>
165.78713175,-29.09471320,123.13580888,84.78521732,-147.95012350,4.32835175
-21.07067608,24.03156087,0.07796867,0.91150977,-0.74925452

>  <Name>
ligand

>  <RI>
0

>  <Rbt.Current_Directory>
/home/itssahil/PROJECTS/Mol_Feturizer/New_Systems/rnas/4LVV

>  <Rbt.Executable>
rbdock ($Id: //depot/dev/client3/rdock/2013.1/src/exe/rbdock.cxx#4 $)

>  <Rbt.Library>
libRbt.so (2013.1, Build901 2013/11/27)

>  <Rbt.Parameter_File>
/export/apps/rDock/src/rDock_2013.1_src/data/scripts/dock_solv.prm

>  <Rbt.Receptor>
prm/pocket_docking_5.prm

>  <SCORE>
-11.9759

>  <SCORE.INTER>
-12.4342

>  <SCORE.INTER.CONST>
1

>  <SCORE.INTER.POLAR>
0

>  <SCORE.INTER.ROT>
5

>  <SCORE.INTER.SOLV>
12.6902

>  <SCORE.INTER.VDW>
-19.4528

>  <SCORE.INTER.norm>
-0.497367

>  <SCORE.INTRA>
0.455063

>  <SCORE.INTRA.DIHEDRAL>
3.16808

>  <SCORE.INTRA.DIHEDRAL.0>
3.94806

>  <SCORE.INTRA.POLAR>
0

>  <SCORE.INTRA.POLAR.0>
0

>  <SCORE.INTRA.REPUL>
0

>  <SCORE.INTRA.REPUL.0>
0

>  <SCORE.INTRA.SOLV>
1.35907

>  <SCORE.INTRA.SOLV.lig_0>
-70.9803

>  <SCORE.INTRA.VDW>
-1.80851

>  <SCORE.INTRA.VDW.0>
-0.709409

>  <SCORE.INTRA.norm>
0.0182025

>  <SCORE.RESTR>
0.00323243

>  <SCORE.RESTR.CAVITY>
0.00323243

>  <SCORE.RESTR.norm>
0.000129297

>  <SCORE.SYSTEM>
0

>  <SCORE.SYSTEM.CONST>
0

>  <SCORE.SYSTEM.DIHEDRAL>
0

>  <SCORE.SYSTEM.SOLV>
0

>  <SCORE.SYSTEM.norm>
0

>  <SCORE.heavy>
25

>  <SCORE.norm>
-0.479036

>  <RMSD>
4.497

$$$$
ligand
 OpenBabel11021811503D
libRbt.so/2013.1/901 2013/11/27
 25 27  0  0  0  0  0  0  0  0999 V2000
    7.8420  -22.3052   20.5069 N   0  0  0  0  0  0  0  0  0  0  0  0
    7.3860  -23.4354   21.2552 C   0  0  0  0  0  0  0  0  0  0  0  0
    7.7125  -24.5716   20.9349 O   0  0  0  0  0  0  0  0  0  0  0  0
    5.1559  -17.6840   21.6301 N   0  0  0  0  0  0  0  0  0  0  0  0
    4.6745  -18.0616   23.9520 N   0  0  0  0  0  0  0  0  0  0  0  0
    4.4591  -18.3887   22.6568 C   0  0  0  0  0  0  0  0  0  0  0  0
    3.5778  -19.3759   22.3145 N   0  0  0  0  0  0  0  0  0  0  0  0
    2.8825  -20.0758   23.2469 C   0  0  0  0  0  0  0  0  0  0  0  0
    3.0905  -19.7733   24.6139 C   0  0  0  0  0  0  0  0  0  0  0  0
    2.0188  -21.0660   22.8413 O   0  0  0  0  0  0  0  0  0  0  0  0
    1.0120  -20.8057   25.6686 C   0  0  0  0  0  0  0  0  0  0  0  0
    2.4016  -20.4194   25.7192 N   0  0  0  0  0  0  0  0  0  0  0  0
    0.4003  -21.2395   26.6389 O   0  0  0  0  0  0  0  0  0  0  0  0
    3.1553  -20.5482   26.8927 C   0  0  2  0  0  0  0  0  0  0  0  0
    3.6335  -19.1488   27.3582 C   0  0  0  0  0  0  0  0  0  0  0  0
    4.0036  -18.7235   24.9471 C   0  0  0  0  0  0  0  0  0  0  0  0
    4.2485  -18.3822   26.3510 N   0  0  0  0  0  0  0  0  0  0  0  0
    4.3402  -21.4672   26.6747 C   0  0  0  0  0  0  0  0  0  0  0  0
    4.1272  -22.6266   25.8533 N   0  0  0  0  0  0  0  0  0  0  0  0
    6.5189  -23.2051   22.4443 C   0  0  0  0  0  0  0  0  0  0  0  0
    5.3319  -22.4940   22.3343 C   0  0  0  0  0  0  0  0  0  0  0  0
    4.5449  -22.2970   23.4624 C   0  0  0  0  0  0  0  0  0  0  0  0
    4.9380  -22.8207   24.6924 C   0  0  0  0  0  0  0  0  0  0  0  0
    6.1170  -23.5382   24.7950 C   0  0  0  0  0  0  0  0  0  0  0  0
    6.9099  -23.7259   23.6693 C   0  0  0  0  0  0  0  0  0  0  0  0
  1  2  1  0  0  0  0
  2  3  2  0  0  0  0
  2 20  1  0  0  0  0
  4  6  1  0  0  0  0
  5  6  2  0  0  0  0
  5 16  1  0  0  0  0
  6  7  1  0  0  0  0
  7  8  1  0  0  0  0
  8  9  1  0  0  0  0
  8 10  2  0  0  0  0
  9 12  1  0  0  0  0
  9 16  2  0  0  0  0
 11 13  1  0  0  0  0
 11 12  1  0  0  0  0
 12 14  1  0  0  0  0
 14 15  1  0  0  0  0
 14 18  1  6  0  0  0
 15 17  1  0  0  0  0
 16 17  1  0  0  0  0
 18 19  1  0  0  0  0
 19 23  1  0  0  0  0
 20 21  2  0  0  0  0
 20 25  1  0  0  0  0
 21 22  1  0  0  0  0
 22 23  2  0  0  0  0
 23 24  1  0  0  0  0
 24 25  2  0  0  0  0
M  END
>  <CHROM.1>
-173.20973177,-38.95910791,122.72873347,-89.64868918,55.97804603,4.35876355
-21.02922730,24.07874587,-0.12854419,0.86918652,-0.51114466

>  <Name>
ligand

>  <RI>
0

>  <Rbt.Current_Directory>
/home/itssahil/PROJECTS/Mol_Feturizer/New_Systems/rnas/4LVV

>  <Rbt.Executable>
rbdock ($Id: //depot/dev/client3/rdock/2013.1/src/exe/rbdock.cxx#4 $)

>  <Rbt.Library>
libRbt.so (2013.1, Build901 2013/11/27)

>  <Rbt.Parameter_File>
/export/apps/rDock/src/rDock_2013.1_src/data/scripts/dock_solv.prm

>  <Rbt.Receptor>
prm/pocket_docking_4.prm

>  <SCORE>
-12.3316

>  <SCORE.INTER>
-11.7877

>  <SCORE.INTER.CONST>
1

>  <SCORE.INTER.POLAR>
0

>  <SCORE.INTER.ROT>
5

>  <SCORE.INTER.SOLV>
13.1928

>  <SCORE.INTER.VDW>
-19.1894

>  <SCORE.INTER.norm>
-0.471506

>  <SCORE.INTRA>
-0.547049

>  <SCORE.INTRA.DIHEDRAL>
1.98745

>  <SCORE.INTRA.DIHEDRAL.0>
3.94806

>  <SCORE.INTRA.POLAR>
0

>  <SCORE.INTRA.POLAR.0>
0

>  <SCORE.INTRA.REPUL>
0

>  <SCORE.INTRA.REPUL.0>
0

>  <SCORE.INTRA.SOLV>
0.911678

>  <SCORE.INTRA.SOLV.lig_0>
-70.9803

>  <SCORE.INTRA.VDW>
-1.99661

>  <SCORE.INTRA.VDW.0>
-0.709409

>  <SCORE.INTRA.norm>
-0.0218819

>  <SCORE.RESTR>
0.00314264

>  <SCORE.RESTR.CAVITY>
0.00314264

>  <SCORE.RESTR.norm>
0.000125706

>  <SCORE.SYSTEM>
0

>  <SCORE.SYSTEM.CONST>
0

>  <SCORE.SYSTEM.DIHEDRAL>
0

>  <SCORE.SYSTEM.SOLV>
0

>  <SCORE.SYSTEM.norm>
0

>  <SCORE.heavy>
25

>  <SCORE.norm>
-0.493262

>  <RMSD>
4.499

$$$$
ligand
 OpenBabel11021811503D
libRbt.so/2013.1/901 2013/11/27
 25 27  0  0  0  0  0  0  0  0999 V2000
    9.6502  -25.3081   21.7367 N   0  0  0  0  0  0  0  0  0  0  0  0
    8.5337  -24.4617   21.4499 C   0  0  0  0  0  0  0  0  0  0  0  0
    8.1482  -24.3023   20.2983 O   0  0  0  0  0  0  0  0  0  0  0  0
    7.2466  -16.8313   25.3448 N   0  0  0  0  0  0  0  0  0  0  0  0
    6.4540  -18.5884   26.7764 N   0  0  0  0  0  0  0  0  0  0  0  0
    6.2539  -17.7925   25.7006 C   0  0  0  0  0  0  0  0  0  0  0  0
    5.1122  -17.8865   24.9548 N   0  0  0  0  0  0  0  0  0  0  0  0
    4.1310  -18.7772   25.2488 C   0  0  0  0  0  0  0  0  0  0  0  0
    4.3090  -19.6378   26.3584 C   0  0  0  0  0  0  0  0  0  0  0  0
    3.0104  -18.8329   24.4538 O   0  0  0  0  0  0  0  0  0  0  0  0
    1.9123  -20.3950   26.7837 C   0  0  0  0  0  0  0  0  0  0  0  0
    3.3374  -20.6216   26.8076 N   0  0  0  0  0  0  0  0  0  0  0  0
    1.4050  -19.2925   26.9599 O   0  0  0  0  0  0  0  0  0  0  0  0
    3.8854  -21.7797   27.3733 C   0  0  2  0  0  0  0  0  0  0  0  0
    4.7889  -21.3937   28.5726 C   0  0  0  0  0  0  0  0  0  0  0  0
    5.5034  -19.5082   27.1352 C   0  0  0  0  0  0  0  0  0  0  0  0
    5.7262  -20.3828   28.2898 N   0  0  0  0  0  0  0  0  0  0  0  0
    4.6769  -22.5605   26.3438 C   0  0  0  0  0  0  0  0  0  0  0  0
    5.7769  -21.8848   25.7133 N   0  0  0  0  0  0  0  0  0  0  0  0
    7.8352  -23.7892   22.5807 C   0  0  0  0  0  0  0  0  0  0  0  0
    8.5448  -23.3080   23.6723 C   0  0  0  0  0  0  0  0  0  0  0  0
    7.8637  -22.6847   24.7108 C   0  0  0  0  0  0  0  0  0  0  0  0
    6.4799  -22.5322   24.6506 C   0  0  0  0  0  0  0  0  0  0  0  0
    5.7779  -23.0040   23.5551 C   0  0  0  0  0  0  0  0  0  0  0  0
    6.4574  -23.6373   22.5215 C   0  0  0  0  0  0  0  0  0  0  0  0
  1  2  1  0  0  0  0
  2  3  2  0  0  0  0
  2 20  1  0  0  0  0
  4  6  1  0  0  0  0
  5  6  2  0  0  0  0
  5 16  1  0  0  0  0
  6  7  1  0  0  0  0
  7  8  1  0  0  0  0
  8  9  1  0  0  0  0
  8 10  2  0  0  0  0
  9 12  1  0  0  0  0
  9 16  2  0  0  0  0
 11 13  1  0  0  0  0
 11 12  1  0  0  0  0
 12 14  1  0  0  0  0
 14 15  1  0  0  0  0
 14 18  1  6  0  0  0
 15 17  1  0  0  0  0
 16 17  1  0  0  0  0
 18 19  1  0  0  0  0
 19 23  1  0  0  0  0
 20 21  2  0  0  0  0
 20 25  1  0  0  0  0
 21 22  1  0  0  0  0
 22 23  2  0  0  0  0
 23 24  1  0  0  0  0
 24 25  2  0  0  0  0
M  END
>  <CHROM.1>
-32.86969586,58.95930464,-174.39398826,-126.00229555,37.23165701,5.63753493
-21.12185340,25.14389476,0.80292072,-0.67568291,-2.92243574

>  <Name>
ligand

>  <RI>
0

>  <Rbt.Current_Directory>
/home/itssahil/PROJECTS/Mol_Feturizer/New_Systems/rnas/4LVV

>  <Rbt.Executable>
rbdock ($Id: //depot/dev/client3/rdock/2013.1/src/exe/rbdock.cxx#4 $)

>  <Rbt.Library>
libRbt.so (2013.1, Build901 2013/11/27)

>  <Rbt.Parameter_File>
/export/apps/rDock/src/rDock_2013.1_src/data/scripts/dock_solv.prm

>  <Rbt.Receptor>
prm/pocket_docking_5.prm

>  <SCORE>
-8.90897

>  <SCORE.INTER>
-8.77714

>  <SCORE.INTER.CONST>
1

>  <SCORE.INTER.POLAR>
0

>  <SCORE.INTER.ROT>
5

>  <SCORE.INTER.SOLV>
8.7571

>  <SCORE.INTER.VDW>
-15.7038

>  <SCORE.INTER.norm>
-0.351086

>  <SCORE.INTRA>
-0.131831

>  <SCORE.INTRA.DIHEDRAL>
-0.529062

>  <SCORE.INTRA.DIHEDRAL.0>
3.94806

>  <SCORE.INTRA.POLAR>
0

>  <SCORE.INTRA.POLAR.0>
0

>  <SCORE.INTRA.REPUL>
0

>  <SCORE.INTRA.REPUL.0>
0

>  <SCORE.INTRA.SOLV>
2.37732

>  <SCORE.INTRA.SOLV.lig_0>
-70.9803

>  <SCORE.INTRA.VDW>
-1.05596

>  <SCORE.INTRA.VDW.0>
-0.709409

>  <SCORE.INTRA.norm>
-0.00527323

>  <SCORE.RESTR>
0

>  <SCORE.RESTR.CAVITY>
0

>  <SCORE.RESTR.norm>
0

>  <SCORE.SYSTEM>
0

>  <SCORE.SYSTEM.CONST>
0

>  <SCORE.SYSTEM.DIHEDRAL>
0

>  <SCORE.SYSTEM.SOLV>
0

>  <SCORE.SYSTEM.norm>
0

>  <SCORE.heavy>
25

>  <SCORE.norm>
-0.356359

>  <RMSD>
4.513

$$$$
ligand
 OpenBabel11021811503D
libRbt.so/2013.1/901 2013/11/27
 25 27  0  0  0  0  0  0  0  0999 V2000
   10.4336  -22.0143   29.7533 N   0  0  0  0  0  0  0  0  0  0  0  0
    9.6715  -22.8803   28.9079 C   0  0  0  0  0  0  0  0  0  0  0  0
   10.1688  -23.8986   28.4433 O   0  0  0  0  0  0  0  0  0  0  0  0
    5.1517  -17.2885   21.8852 N   0  0  0  0  0  0  0  0  0  0  0  0
    4.0785  -17.8888   23.9475 N   0  0  0  0  0  0  0  0  0  0  0  0
    4.3686  -18.1940   22.6616 C   0  0  0  0  0  0  0  0  0  0  0  0
    3.9155  -19.3503   22.0905 N   0  0  0  0  0  0  0  0  0  0  0  0
    3.1619  -20.2460   22.7777 C   0  0  0  0  0  0  0  0  0  0  0  0
    2.8488  -19.9700   24.1302 C   0  0  0  0  0  0  0  0  0  0  0  0
    2.7456  -21.3976   22.1521 O   0  0  0  0  0  0  0  0  0  0  0  0
    0.8730  -21.5359   24.5078 C   0  0  0  0  0  0  0  0  0  0  0  0
    2.0335  -20.8207   24.9817 N   0  0  0  0  0  0  0  0  0  0  0  0
   -0.2748  -21.2280   24.8101 O   0  0  0  0  0  0  0  0  0  0  0  0
    2.3889  -20.8174   26.3365 C   0  0  2  0  0  0  0  0  0  0  0  0
    2.3308  -19.3682   26.8844 C   0  0  0  0  0  0  0  0  0  0  0  0
    3.3181  -18.7448   24.7008 C   0  0  0  0  0  0  0  0  0  0  0  0
    3.0175  -18.4240   26.0988 N   0  0  0  0  0  0  0  0  0  0  0  0
    3.7728  -21.4025   26.5327 C   0  0  0  0  0  0  0  0  0  0  0  0
    4.2243  -21.5768   27.8855 N   0  0  0  0  0  0  0  0  0  0  0  0
    8.2535  -22.5303   28.6154 C   0  0  0  0  0  0  0  0  0  0  0  0
    7.8450  -22.2299   27.3232 C   0  0  0  0  0  0  0  0  0  0  0  0
    6.5147  -21.9081   27.0832 C   0  0  0  0  0  0  0  0  0  0  0  0
    5.5949  -21.8998   28.1299 C   0  0  0  0  0  0  0  0  0  0  0  0
    6.0047  -22.2105   29.4148 C   0  0  0  0  0  0  0  0  0  0  0  0
    7.3373  -22.5215   29.6571 C   0  0  0  0  0  0  0  0  0  0  0  0
  1  2  1  0  0  0  0
  2  3  2  0  0  0  0
  2 20  1  0  0  0  0
  4  6  1  0  0  0  0
  5  6  2  0  0  0  0
  5 16  1  0  0  0  0
  6  7  1  0  0  0  0
  7  8  1  0  0  0  0
  8  9  1  0  0  0  0
  8 10  2  0  0  0  0
  9 12  1  0  0  0  0
  9 16  2  0  0  0  0
 11 13  1  0  0  0  0
 11 12  1  0  0  0  0
 12 14  1  0  0  0  0
 14 15  1  0  0  0  0
 14 18  1  6  0  0  0
 15 17  1  0  0  0  0
 16 17  1  0  0  0  0
 18 19  1  0  0  0  0
 19 23  1  0  0  0  0
 20 21  2  0  0  0  0
 20 25  1  0  0  0  0
 21 22  1  0  0  0  0
 22 23  2  0  0  0  0
 23 24  1  0  0  0  0
 24 25  2  0  0  0  0
M  END
>  <CHROM.1>
-108.50837754,-174.47890172,-169.10469483,6.69498258,115.92755608,4.71430030
-20.81202619,25.92702262,-0.77239070,-0.05894480,-0.99097478

>  <Name>
ligand

>  <RI>
0

>  <Rbt.Current_Directory>
/home/itssahil/PROJECTS/Mol_Feturizer/New_Systems/rnas/4LVV

>  <Rbt.Executable>
rbdock ($Id: //depot/dev/client3/rdock/2013.1/src/exe/rbdock.cxx#4 $)

>  <Rbt.Library>
libRbt.so (2013.1, Build901 2013/11/27)

>  <Rbt.Parameter_File>
/export/apps/rDock/src/rDock_2013.1_src/data/scripts/dock_solv.prm

>  <Rbt.Receptor>
prm/pocket_docking_7.prm

>  <SCORE>
-10.6489

>  <SCORE.INTER>
-10.1351

>  <SCORE.INTER.CONST>
1

>  <SCORE.INTER.POLAR>
0

>  <SCORE.INTER.ROT>
5

>  <SCORE.INTER.SOLV>
15.2954

>  <SCORE.INTER.VDW>
-18.7885

>  <SCORE.INTER.norm>
-0.405405

>  <SCORE.INTRA>
-0.513798

>  <SCORE.INTRA.DIHEDRAL>
-0.548246

>  <SCORE.INTRA.DIHEDRAL.0>
3.94806

>  <SCORE.INTRA.POLAR>
0

>  <SCORE.INTRA.POLAR.0>
0

>  <SCORE.INTRA.REPUL>
0

>  <SCORE.INTRA.REPUL.0>
0

>  <SCORE.INTRA.SOLV>
-0.371487

>  <SCORE.INTRA.SOLV.lig_0>
-70.9803

>  <SCORE.INTRA.VDW>
-0.0539313

>  <SCORE.INTRA.VDW.0>
-0.709409

>  <SCORE.INTRA.norm>
-0.0205519

>  <SCORE.RESTR>
0

>  <SCORE.RESTR.CAVITY>
0

>  <SCORE.RESTR.norm>
0

>  <SCORE.SYSTEM>
0

>  <SCORE.SYSTEM.CONST>
0

>  <SCORE.SYSTEM.DIHEDRAL>
0

>  <SCORE.SYSTEM.SOLV>
0

>  <SCORE.SYSTEM.norm>
0

>  <SCORE.heavy>
25

>  <SCORE.norm>
-0.425957

>  <RMSD>
4.532

$$$$
ligand
 OpenBabel11021811503D
libRbt.so/2013.1/901 2013/11/27
 25 27  0  0  0  0  0  0  0  0999 V2000
   10.4015  -22.0304   29.7903 N   0  0  0  0  0  0  0  0  0  0  0  0
    9.6324  -22.8856   28.9404 C   0  0  0  0  0  0  0  0  0  0  0  0
   10.1202  -23.9074   28.4733 O   0  0  0  0  0  0  0  0  0  0  0  0
    5.1638  -17.3406   21.8755 N   0  0  0  0  0  0  0  0  0  0  0  0
    4.0765  -17.9160   23.9376 N   0  0  0  0  0  0  0  0  0  0  0  0
    4.3720  -18.2349   22.6562 C   0  0  0  0  0  0  0  0  0  0  0  0
    3.9164  -19.3943   22.0936 N   0  0  0  0  0  0  0  0  0  0  0  0
    3.1548  -20.2798   22.7851 C   0  0  0  0  0  0  0  0  0  0  0  0
    2.8356  -19.9894   24.1332 C   0  0  0  0  0  0  0  0  0  0  0  0
    2.7362  -21.4353   22.1682 O   0  0  0  0  0  0  0  0  0  0  0  0
    0.8502  -21.5422   24.5148 C   0  0  0  0  0  0  0  0  0  0  0  0
    2.0116  -20.8281   24.9883 N   0  0  0  0  0  0  0  0  0  0  0  0
   -0.2945  -21.2612   24.8532 O   0  0  0  0  0  0  0  0  0  0  0  0
    2.3596  -20.8136   26.3449 C   0  0  2  0  0  0  0  0  0  0  0  0
    2.3056  -19.3590   26.8786 C   0  0  0  0  0  0  0  0  0  0  0  0
    3.3078  -18.7612   24.6947 C   0  0  0  0  0  0  0  0  0  0  0  0
    3.0012  -18.4257   26.0879 N   0  0  0  0  0  0  0  0  0  0  0  0
    3.7396  -21.4035   26.5542 C   0  0  0  0  0  0  0  0  0  0  0  0
    4.2003  -21.5267   27.9095 N   0  0  0  0  0  0  0  0  0  0  0  0
    8.2186  -22.5201   28.6461 C   0  0  0  0  0  0  0  0  0  0  0  0
    7.8264  -22.1634   27.3633 C   0  0  0  0  0  0  0  0  0  0  0  0
    6.4997  -21.8285   27.1213 C   0  0  0  0  0  0  0  0  0  0  0  0
    5.5673  -21.8631   28.1563 C   0  0  0  0  0  0  0  0  0  0  0  0
    5.9609  -22.2297   29.4314 C   0  0  0  0  0  0  0  0  0  0  0  0
    7.2898  -22.5540   29.6762 C   0  0  0  0  0  0  0  0  0  0  0  0
  1  2  1  0  0  0  0
  2  3  2  0  0  0  0
  2 20  1  0  0  0  0
  4  6  1  0  0  0  0
  5  6  2  0  0  0  0
  5 16  1  0  0  0  0
  6  7  1  0  0  0  0
  7  8  1  0  0  0  0
  8  9  1  0  0  0  0
  8 10  2  0  0  0  0
  9 12  1  0  0  0  0
  9 16  2  0  0  0  0
 11 13  1  0  0  0  0
 11 12  1  0  0  0  0
 12 14  1  0  0  0  0
 14 15  1  0  0  0  0
 14 18  1  6  0  0  0
 15 17  1  0  0  0  0
 16 17  1  0  0  0  0
 18 19  1  0  0  0  0
 19 23  1  0  0  0  0
 20 21  2  0  0  0  0
 20 25  1  0  0  0  0
 21 22  1  0  0  0  0
 22 23  2  0  0  0  0
 23 24  1  0  0  0  0
 24 25  2  0  0  0  0
M  END
>  <CHROM.1>
-111.72479079,-176.45217084,-169.59944726,11.87949399,113.54166203,4.69335524
-20.81884358,25.94156121,-0.77494434,-0.05663785,-1.00033161

>  <Name>
ligand

>  <RI>
0

>  <Rbt.Current_Directory>
/home/itssahil/PROJECTS/Mol_Feturizer/New_Systems/rnas/4LVV

>  <Rbt.Executable>
rbdock ($Id: //depot/dev/client3/rdock/2013.1/src/exe/rbdock.cxx#4 $)

>  <Rbt.Library>
libRbt.so (2013.1, Build901 2013/11/27)

>  <Rbt.Parameter_File>
/export/apps/rDock/src/rDock_2013.1_src/data/scripts/dock_solv.prm

>  <Rbt.Receptor>
prm/pocket_docking_7.prm

>  <SCORE>
-10.7518

>  <SCORE.INTER>
-10.2023

>  <SCORE.INTER.CONST>
1

>  <SCORE.INTER.POLAR>
0

>  <SCORE.INTER.ROT>
5

>  <SCORE.INTER.SOLV>
15.3871

>  <SCORE.INTER.VDW>
-18.8639

>  <SCORE.INTER.norm>
-0.408093

>  <SCORE.INTRA>
-0.549515

>  <SCORE.INTRA.DIHEDRAL>
-0.591755

>  <SCORE.INTRA.DIHEDRAL.0>
3.94806

>  <SCORE.INTRA.POLAR>
0

>  <SCORE.INTRA.POLAR.0>
0

>  <SCORE.INTRA.REPUL>
0

>  <SCORE.INTRA.REPUL.0>
0

>  <SCORE.INTRA.SOLV>
-0.33887

>  <SCORE.INTRA.SOLV.lig_0>
-70.9803

>  <SCORE.INTRA.VDW>
-0.0842029

>  <SCORE.INTRA.VDW.0>
-0.709409

>  <SCORE.INTRA.norm>
-0.0219806

>  <SCORE.RESTR>
0

>  <SCORE.RESTR.CAVITY>
0

>  <SCORE.RESTR.norm>
0

>  <SCORE.SYSTEM>
0

>  <SCORE.SYSTEM.CONST>
0

>  <SCORE.SYSTEM.DIHEDRAL>
0

>  <SCORE.SYSTEM.SOLV>
0

>  <SCORE.SYSTEM.norm>
0

>  <SCORE.heavy>
25

>  <SCORE.norm>
-0.430073

>  <RMSD>
4.549

$$$$
ligand
 OpenBabel11021811503D
libRbt.so/2013.1/901 2013/11/27
 25 27  0  0  0  0  0  0  0  0999 V2000
   10.6393  -19.6802   27.6521 N   0  0  0  0  0  0  0  0  0  0  0  0
   10.0513  -20.2458   28.8266 C   0  0  0  0  0  0  0  0  0  0  0  0
   10.7190  -20.4228   29.8381 O   0  0  0  0  0  0  0  0  0  0  0  0
    4.6595  -20.3736   21.2458 N   0  0  0  0  0  0  0  0  0  0  0  0
    4.4687  -19.6751   23.5351 N   0  0  0  0  0  0  0  0  0  0  0  0
    3.9910  -20.4122   22.5058 C   0  0  0  0  0  0  0  0  0  0  0  0
    2.8729  -21.1853   22.6496 N   0  0  0  0  0  0  0  0  0  0  0  0
    2.1924  -21.2567   23.8219 C   0  0  0  0  0  0  0  0  0  0  0  0
    2.6686  -20.5113   24.9270 C   0  0  0  0  0  0  0  0  0  0  0  0
    1.0809  -22.0617   23.9085 O   0  0  0  0  0  0  0  0  0  0  0  0
    0.6011  -20.4651   26.4175 C   0  0  0  0  0  0  0  0  0  0  0  0
    2.0325  -20.4696   26.2336 N   0  0  0  0  0  0  0  0  0  0  0  0
   -0.0423  -21.4698   26.7012 O   0  0  0  0  0  0  0  0  0  0  0  0
    2.9103  -20.3237   27.3152 C   0  0  2  0  0  0  0  0  0  0  0  0
    3.7492  -19.0329   27.1320 C   0  0  0  0  0  0  0  0  0  0  0  0
    3.8296  -19.6949   24.7473 C   0  0  0  0  0  0  0  0  0  0  0  0
    4.3555  -18.9106   25.8680 N   0  0  0  0  0  0  0  0  0  0  0  0
    3.8172  -21.5312   27.4406 C   0  0  0  0  0  0  0  0  0  0  0  0
    4.5434  -21.6796   28.6714 N   0  0  0  0  0  0  0  0  0  0  0  0
    8.6049  -20.6009   28.8041 C   0  0  0  0  0  0  0  0  0  0  0  0
    7.6538  -19.7533   29.3552 C   0  0  0  0  0  0  0  0  0  0  0  0
    6.3121  -20.1131   29.3174 C   0  0  0  0  0  0  0  0  0  0  0  0
    5.9232  -21.3099   28.7189 C   0  0  0  0  0  0  0  0  0  0  0  0
    6.8740  -22.1467   28.1612 C   0  0  0  0  0  0  0  0  0  0  0  0
    8.2170  -21.7925   28.2087 C   0  0  0  0  0  0  0  0  0  0  0  0
  1  2  1  0  0  0  0
  2  3  2  0  0  0  0
  2 20  1  0  0  0  0
  4  6  1  0  0  0  0
  5  6  2  0  0  0  0
  5 16  1  0  0  0  0
  6  7  1  0  0  0  0
  7  8  1  0  0  0  0
  8  9  1  0  0  0  0
  8 10  2  0  0  0  0
  9 12  1  0  0  0  0
  9 16  2  0  0  0  0
 11 13  1  0  0  0  0
 11 12  1  0  0  0  0
 12 14  1  0  0  0  0
 14 15  1  0  0  0  0
 14 18  1  6  0  0  0
 15 17  1  0  0  0  0
 16 17  1  0  0  0  0
 18 19  1  0  0  0  0
 19 23  1  0  0  0  0
 20 21  2  0  0  0  0
 20 25  1  0  0  0  0
 21 22  1  0  0  0  0
 22 23  2  0  0  0  0
 23 24  1  0  0  0  0
 24 25  2  0  0  0  0
M  END
>  <CHROM.1>
99.34821299,-165.50928913,-101.23328795,103.25806429,-99.11493049,4.82299783
-20.61123318,26.44713565,-0.56904842,-0.11322641,-1.46986802

>  <Name>
ligand

>  <RI>
0

>  <Rbt.Current_Directory>
/home/itssahil/PROJECTS/Mol_Feturizer/New_Systems/rnas/4LVV

>  <Rbt.Executable>
rbdock ($Id: //depot/dev/client3/rdock/2013.1/src/exe/rbdock.cxx#4 $)

>  <Rbt.Library>
libRbt.so (2013.1, Build901 2013/11/27)

>  <Rbt.Parameter_File>
/export/apps/rDock/src/rDock_2013.1_src/data/scripts/dock_solv.prm

>  <Rbt.Receptor>
prm/pocket_docking_8.prm

>  <SCORE>
-8.77256

>  <SCORE.INTER>
-7.60885

>  <SCORE.INTER.CONST>
1

>  <SCORE.INTER.POLAR>
0

>  <SCORE.INTER.ROT>
5

>  <SCORE.INTER.SOLV>
12.6832

>  <SCORE.INTER.VDW>
-16.2336

>  <SCORE.INTER.norm>
-0.304354

>  <SCORE.INTRA>
-1.16371

>  <SCORE.INTRA.DIHEDRAL>
1.10194

>  <SCORE.INTRA.DIHEDRAL.0>
3.94806

>  <SCORE.INTRA.POLAR>
0

>  <SCORE.INTRA.POLAR.0>
0

>  <SCORE.INTRA.REPUL>
0

>  <SCORE.INTRA.REPUL.0>
0

>  <SCORE.INTRA.SOLV>
-0.274168

>  <SCORE.INTRA.SOLV.lig_0>
-70.9803

>  <SCORE.INTRA.VDW>
-1.5776

>  <SCORE.INTRA.VDW.0>
-0.709409

>  <SCORE.INTRA.norm>
-0.0465484

>  <SCORE.RESTR>
0

>  <SCORE.RESTR.CAVITY>
0

>  <SCORE.RESTR.norm>
0

>  <SCORE.SYSTEM>
0

>  <SCORE.SYSTEM.CONST>
0

>  <SCORE.SYSTEM.DIHEDRAL>
0

>  <SCORE.SYSTEM.SOLV>
0

>  <SCORE.SYSTEM.norm>
0

>  <SCORE.heavy>
25

>  <SCORE.norm>
-0.350902

>  <RMSD>
4.549

$$$$
ligand
 OpenBabel11021811503D
libRbt.so/2013.1/901 2013/11/27
 25 27  0  0  0  0  0  0  0  0999 V2000
    8.5210  -24.0070   20.9476 N   0  0  0  0  0  0  0  0  0  0  0  0
    7.2392  -23.3734   20.9214 C   0  0  0  0  0  0  0  0  0  0  0  0
    6.7584  -22.9761   19.8673 O   0  0  0  0  0  0  0  0  0  0  0  0
    4.8552  -16.7871   21.9250 N   0  0  0  0  0  0  0  0  0  0  0  0
    3.9621  -17.6430   23.9830 N   0  0  0  0  0  0  0  0  0  0  0  0
    4.1872  -17.8121   22.6595 C   0  0  0  0  0  0  0  0  0  0  0  0
    3.7766  -18.9436   22.0119 N   0  0  0  0  0  0  0  0  0  0  0  0
    3.1316  -19.9488   22.6569 C   0  0  0  0  0  0  0  0  0  0  0  0
    2.8898  -19.8163   24.0453 C   0  0  0  0  0  0  0  0  0  0  0  0
    2.7537  -21.0684   21.9535 O   0  0  0  0  0  0  0  0  0  0  0  0
    1.0529  -21.5493   24.3929 C   0  0  0  0  0  0  0  0  0  0  0  0
    2.1912  -20.7958   24.8614 N   0  0  0  0  0  0  0  0  0  0  0  0
   -0.1073  -21.2176   24.6110 O   0  0  0  0  0  0  0  0  0  0  0  0
    2.6334  -20.8856   26.1873 C   0  0  2  0  0  0  0  0  0  0  0  0
    2.5139  -19.4983   26.8690 C   0  0  0  0  0  0  0  0  0  0  0  0
    3.3120  -18.6151   24.6977 C   0  0  0  0  0  0  0  0  0  0  0  0
    3.0827  -18.4411   26.1346 N   0  0  0  0  0  0  0  0  0  0  0  0
    4.0635  -21.3832   26.2465 C   0  0  0  0  0  0  0  0  0  0  0  0
    4.3149  -22.7121   25.7617 N   0  0  0  0  0  0  0  0  0  0  0  0
    6.4893  -23.2201   22.1993 C   0  0  0  0  0  0  0  0  0  0  0  0
    6.9533  -23.7995   23.3723 C   0  0  0  0  0  0  0  0  0  0  0  0
    6.2309  -23.6373   24.5483 C   0  0  0  0  0  0  0  0  0  0  0  0
    5.0564  -22.8875   24.5525 C   0  0  0  0  0  0  0  0  0  0  0  0
    4.6035  -22.3027   23.3828 C   0  0  0  0  0  0  0  0  0  0  0  0
    5.3197  -22.4740   22.2042 C   0  0  0  0  0  0  0  0  0  0  0  0
  1  2  1  0  0  0  0
  2  3  2  0  0  0  0
  2 20  1  0  0  0  0
  4  6  1  0  0  0  0
  5  6  2  0  0  0  0
  5 16  1  0  0  0  0
  6  7  1  0  0  0  0
  7  8  1  0  0  0  0
  8  9  1  0  0  0  0
  8 10  2  0  0  0  0
  9 12  1  0  0  0  0
  9 16  2  0  0  0  0
 11 13  1  0  0  0  0
 11 12  1  0  0  0  0
 12 14  1  0  0  0  0
 14 15  1  0  0  0  0
 14 18  1  6  0  0  0
 15 17  1  0  0  0  0
 16 17  1  0  0  0  0
 18 19  1  0  0  0  0
 19 23  1  0  0  0  0
 20 21  2  0  0  0  0
 20 25  1  0  0  0  0
 21 22  1  0  0  0  0
 22 23  2  0  0  0  0
 23 24  1  0  0  0  0
 24 25  2  0  0  0  0
M  END
>  <CHROM.1>
-95.90982504,-63.80674065,110.64627988,121.99273042,-6.61587543,4.16305925
-21.00599300,23.63444023,-0.25403252,0.81330268,-0.51956660

>  <Name>
ligand

>  <RI>
0

>  <Rbt.Current_Directory>
/home/itssahil/PROJECTS/Mol_Feturizer/New_Systems/rnas/4LVV

>  <Rbt.Executable>
rbdock ($Id: //depot/dev/client3/rdock/2013.1/src/exe/rbdock.cxx#4 $)

>  <Rbt.Library>
libRbt.so (2013.1, Build901 2013/11/27)

>  <Rbt.Parameter_File>
/export/apps/rDock/src/rDock_2013.1_src/data/scripts/dock_solv.prm

>  <Rbt.Receptor>
prm/pocket_docking_8.prm

>  <SCORE>
-14.7777

>  <SCORE.INTER>
-13.7977

>  <SCORE.INTER.CONST>
1

>  <SCORE.INTER.POLAR>
0

>  <SCORE.INTER.ROT>
5

>  <SCORE.INTER.SOLV>
16.5067

>  <SCORE.INTER.VDW>
-21.634

>  <SCORE.INTER.norm>
-0.551908

>  <SCORE.INTRA>
-0.979974

>  <SCORE.INTRA.DIHEDRAL>
0.351937

>  <SCORE.INTRA.DIHEDRAL.0>
3.94806

>  <SCORE.INTRA.POLAR>
0

>  <SCORE.INTRA.POLAR.0>
0

>  <SCORE.INTRA.REPUL>
0

>  <SCORE.INTRA.REPUL.0>
0

>  <SCORE.INTRA.SOLV>
0.292481

>  <SCORE.INTRA.SOLV.lig_0>
-70.9803

>  <SCORE.INTRA.VDW>
-1.30218

>  <SCORE.INTRA.VDW.0>
-0.709409

>  <SCORE.INTRA.norm>
-0.039199

>  <SCORE.RESTR>
0

>  <SCORE.RESTR.CAVITY>
0

>  <SCORE.RESTR.norm>
0

>  <SCORE.SYSTEM>
0

>  <SCORE.SYSTEM.CONST>
0

>  <SCORE.SYSTEM.DIHEDRAL>
0

>  <SCORE.SYSTEM.SOLV>
0

>  <SCORE.SYSTEM.norm>
0

>  <SCORE.heavy>
25

>  <SCORE.norm>
-0.591107

>  <RMSD>
4.589

$$$$
ligand
 OpenBabel11021811503D
libRbt.so/2013.1/901 2013/11/27
 25 27  0  0  0  0  0  0  0  0999 V2000
    8.3693  -22.4900   20.4716 N   0  0  0  0  0  0  0  0  0  0  0  0
    7.2773  -23.3721   20.7450 C   0  0  0  0  0  0  0  0  0  0  0  0
    6.9670  -24.2499   19.9492 O   0  0  0  0  0  0  0  0  0  0  0  0
    4.9253  -16.8292   21.7247 N   0  0  0  0  0  0  0  0  0  0  0  0
    4.0952  -17.6438   23.8253 N   0  0  0  0  0  0  0  0  0  0  0  0
    4.2584  -17.8283   22.4948 C   0  0  0  0  0  0  0  0  0  0  0  0
    3.7862  -18.9509   21.8741 N   0  0  0  0  0  0  0  0  0  0  0  0
    3.1389  -19.9315   22.5537 C   0  0  0  0  0  0  0  0  0  0  0  0
    2.9607  -19.7826   23.9500 C   0  0  0  0  0  0  0  0  0  0  0  0
    2.6973  -21.0434   21.8757 O   0  0  0  0  0  0  0  0  0  0  0  0
    1.0883  -21.4559   24.3888 C   0  0  0  0  0  0  0  0  0  0  0  0
    2.2679  -20.7348   24.8026 N   0  0  0  0  0  0  0  0  0  0  0  0
   -0.0300  -21.2268   24.8369 O   0  0  0  0  0  0  0  0  0  0  0  0
    2.7634  -20.8295   26.1093 C   0  0  2  0  0  0  0  0  0  0  0  0
    2.7155  -19.4348   26.7846 C   0  0  0  0  0  0  0  0  0  0  0  0
    3.4468  -18.5907   24.5745 C   0  0  0  0  0  0  0  0  0  0  0  0
    3.2843  -18.4005   26.0185 N   0  0  0  0  0  0  0  0  0  0  0  0
    4.1789  -21.3706   26.1116 C   0  0  0  0  0  0  0  0  0  0  0  0
    4.3736  -22.6973   25.5957 N   0  0  0  0  0  0  0  0  0  0  0  0
    6.5328  -23.2153   22.0256 C   0  0  0  0  0  0  0  0  0  0  0  0
    6.9997  -23.7947   23.1975 C   0  0  0  0  0  0  0  0  0  0  0  0
    6.2823  -23.6291   24.3760 C   0  0  0  0  0  0  0  0  0  0  0  0
    5.1099  -22.8761   24.3839 C   0  0  0  0  0  0  0  0  0  0  0  0
    4.6540  -22.2914   23.2152 C   0  0  0  0  0  0  0  0  0  0  0  0
    5.3652  -22.4661   22.0342 C   0  0  0  0  0  0  0  0  0  0  0  0
  1  2  1  0  0  0  0
  2  3  2  0  0  0  0
  2 20  1  0  0  0  0
  4  6  1  0  0  0  0
  5  6  2  0  0  0  0
  5 16  1  0  0  0  0
  6  7  1  0  0  0  0
  7  8  1  0  0  0  0
  8  9  1  0  0  0  0
  8 10  2  0  0  0  0
  9 12  1  0  0  0  0
  9 16  2  0  0  0  0
 11 13  1  0  0  0  0
 11 12  1  0  0  0  0
 12 14  1  0  0  0  0
 14 15  1  0  0  0  0
 14 18  1  6  0  0  0
 15 17  1  0  0  0  0
 16 17  1  0  0  0  0
 18 19  1  0  0  0  0
 19 23  1  0  0  0  0
 20 21  2  0  0  0  0
 20 25  1  0  0  0  0
 21 22  1  0  0  0  0
 22 23  2  0  0  0  0
 23 24  1  0  0  0  0
 24 25  2  0  0  0  0
M  END
>  <CHROM.1>
-108.86535934,-62.28624593,112.85135352,119.23165161,-83.49559000,4.23280805
-20.98659871,23.51697487,-0.28905052,0.82194992,-0.43835402

>  <Name>
ligand

>  <RI>
0

>  <Rbt.Current_Directory>
/home/itssahil/PROJECTS/Mol_Feturizer/New_Systems/rnas/4LVV

>  <Rbt.Executable>
rbdock ($Id: //depot/dev/client3/rdock/2013.1/src/exe/rbdock.cxx#4 $)

>  <Rbt.Library>
libRbt.so (2013.1, Build901 2013/11/27)

>  <Rbt.Parameter_File>
/export/apps/rDock/src/rDock_2013.1_src/data/scripts/dock_solv.prm

>  <Rbt.Receptor>
prm/pocket_docking_8.prm

>  <SCORE>
-14.9743

>  <SCORE.INTER>
-13.4367

>  <SCORE.INTER.CONST>
1

>  <SCORE.INTER.POLAR>
0

>  <SCORE.INTER.ROT>
5

>  <SCORE.INTER.SOLV>
15.8435

>  <SCORE.INTER.VDW>
-21.1723

>  <SCORE.INTER.norm>
-0.537467

>  <SCORE.INTRA>
-1.53759

>  <SCORE.INTRA.DIHEDRAL>
0.388903

>  <SCORE.INTRA.DIHEDRAL.0>
3.94806

>  <SCORE.INTRA.POLAR>
0

>  <SCORE.INTRA.POLAR.0>
0

>  <SCORE.INTRA.REPUL>
0

>  <SCORE.INTRA.REPUL.0>
0

>  <SCORE.INTRA.SOLV>
0.265778

>  <SCORE.INTRA.SOLV.lig_0>
-70.9803

>  <SCORE.INTRA.VDW>
-1.86493

>  <SCORE.INTRA.VDW.0>
-0.709409

>  <SCORE.INTRA.norm>
-0.0615034

>  <SCORE.RESTR>
0

>  <SCORE.RESTR.CAVITY>
0

>  <SCORE.RESTR.norm>
0

>  <SCORE.SYSTEM>
0

>  <SCORE.SYSTEM.CONST>
0

>  <SCORE.SYSTEM.DIHEDRAL>
0

>  <SCORE.SYSTEM.SOLV>
0

>  <SCORE.SYSTEM.norm>
0

>  <SCORE.heavy>
25

>  <SCORE.norm>
-0.598971

>  <RMSD>
4.630

$$$$
ligand
 OpenBabel11021811503D
libRbt.so/2013.1/901 2013/11/27
 25 27  0  0  0  0  0  0  0  0999 V2000
    7.2192  -22.3354   19.9882 N   0  0  0  0  0  0  0  0  0  0  0  0
    7.2139  -23.4148   20.9264 C   0  0  0  0  0  0  0  0  0  0  0  0
    7.8303  -24.4478   20.6960 O   0  0  0  0  0  0  0  0  0  0  0  0
    4.9263  -16.8372   21.9014 N   0  0  0  0  0  0  0  0  0  0  0  0
    4.0230  -17.6631   23.9671 N   0  0  0  0  0  0  0  0  0  0  0  0
    4.2373  -17.8428   22.6432 C   0  0  0  0  0  0  0  0  0  0  0  0
    3.7961  -18.9665   22.0022 N   0  0  0  0  0  0  0  0  0  0  0  0
    3.1301  -19.9532   22.6544 C   0  0  0  0  0  0  0  0  0  0  0  0
    2.8986  -19.8095   24.0434 C   0  0  0  0  0  0  0  0  0  0  0  0
    2.7215  -21.0659   21.9573 O   0  0  0  0  0  0  0  0  0  0  0  0
    1.0218  -21.4959   24.4070 C   0  0  0  0  0  0  0  0  0  0  0  0
    2.1804  -20.7685   24.8668 N   0  0  0  0  0  0  0  0  0  0  0  0
   -0.1095  -21.2968   24.8363 O   0  0  0  0  0  0  0  0  0  0  0  0
    2.6270  -20.8639   26.1909 C   0  0  2  0  0  0  0  0  0  0  0  0
    2.5447  -19.4714   26.8676 C   0  0  0  0  0  0  0  0  0  0  0  0
    3.3531  -18.6164   24.6889 C   0  0  0  0  0  0  0  0  0  0  0  0
    3.1353  -18.4313   26.1262 N   0  0  0  0  0  0  0  0  0  0  0  0
    4.0448  -21.3959   26.2450 C   0  0  0  0  0  0  0  0  0  0  0  0
    4.2646  -22.7257   25.7475 N   0  0  0  0  0  0  0  0  0  0  0  0
    6.4579  -23.2538   22.1997 C   0  0  0  0  0  0  0  0  0  0  0  0
    6.9298  -23.8035   23.3837 C   0  0  0  0  0  0  0  0  0  0  0  0
    6.2013  -23.6347   24.5550 C   0  0  0  0  0  0  0  0  0  0  0  0
    5.0125  -22.9079   24.5433 C   0  0  0  0  0  0  0  0  0  0  0  0
    4.5515  -22.3525   23.3624 C   0  0  0  0  0  0  0  0  0  0  0  0
    5.2740  -22.5306   22.1887 C   0  0  0  0  0  0  0  0  0  0  0  0
  1  2  1  0  0  0  0
  2  3  2  0  0  0  0
  2 20  1  0  0  0  0
  4  6  1  0  0  0  0
  5  6  2  0  0  0  0
  5 16  1  0  0  0  0
  6  7  1  0  0  0  0
  7  8  1  0  0  0  0
  8  9  1  0  0  0  0
  8 10  2  0  0  0  0
  9 12  1  0  0  0  0
  9 16  2  0  0  0  0
 11 13  1  0  0  0  0
 11 12  1  0  0  0  0
 12 14  1  0  0  0  0
 14 15  1  0  0  0  0
 14 18  1  6  0  0  0
 15 17  1  0  0  0  0
 16 17  1  0  0  0  0
 18 19  1  0  0  0  0
 19 23  1  0  0  0  0
 20 21  2  0  0  0  0
 20 25  1  0  0  0  0
 21 22  1  0  0  0  0
 22 23  2  0  0  0  0
 23 24  1  0  0  0  0
 24 25  2  0  0  0  0
M  END
>  <CHROM.1>
-110.64265317,-62.98292133,111.23426316,118.82509174,-144.20179399,4.15760457
-21.01770930,23.64089171,-0.29019786,0.81686988,-0.46320713

>  <Name>
ligand

>  <RI>
0

>  <Rbt.Current_Directory>
/home/itssahil/PROJECTS/Mol_Feturizer/New_Systems/rnas/4LVV

>  <Rbt.Executable>
rbdock ($Id: //depot/dev/client3/rdock/2013.1/src/exe/rbdock.cxx#4 $)

>  <Rbt.Library>
libRbt.so (2013.1, Build901 2013/11/27)

>  <Rbt.Parameter_File>
/export/apps/rDock/src/rDock_2013.1_src/data/scripts/dock_solv.prm

>  <Rbt.Receptor>
prm/pocket_docking_8.prm

>  <SCORE>
-15.1468

>  <SCORE.INTER>
-13.9891

>  <SCORE.INTER.CONST>
1

>  <SCORE.INTER.POLAR>
0

>  <SCORE.INTER.ROT>
5

>  <SCORE.INTER.SOLV>
15.9818

>  <SCORE.INTER.VDW>
-21.5867

>  <SCORE.INTER.norm>
-0.559565

>  <SCORE.INTRA>
-1.15764

>  <SCORE.INTRA.DIHEDRAL>
0.448286

>  <SCORE.INTRA.DIHEDRAL.0>
3.94806

>  <SCORE.INTRA.POLAR>
0

>  <SCORE.INTRA.POLAR.0>
0

>  <SCORE.INTRA.REPUL>
0

>  <SCORE.INTRA.REPUL.0>
0

>  <SCORE.INTRA.SOLV>
0.289924

>  <SCORE.INTRA.SOLV.lig_0>
-70.9803

>  <SCORE.INTRA.VDW>
-1.52674

>  <SCORE.INTRA.VDW.0>
-0.709409

>  <SCORE.INTRA.norm>
-0.0463055

>  <SCORE.RESTR>
0

>  <SCORE.RESTR.CAVITY>
0

>  <SCORE.RESTR.norm>
0

>  <SCORE.SYSTEM>
0

>  <SCORE.SYSTEM.CONST>
0

>  <SCORE.SYSTEM.DIHEDRAL>
0

>  <SCORE.SYSTEM.SOLV>
0

>  <SCORE.SYSTEM.norm>
0

>  <SCORE.heavy>
25

>  <SCORE.norm>
-0.60587

>  <RMSD>
4.631

$$$$
ligand
 OpenBabel11021811503D
libRbt.so/2013.1/901 2013/11/27
 25 27  0  0  0  0  0  0  0  0999 V2000
   10.1067  -18.3701   28.5198 N   0  0  0  0  0  0  0  0  0  0  0  0
    9.8461  -19.6017   29.1984 C   0  0  0  0  0  0  0  0  0  0  0  0
   10.6932  -20.1085   29.9235 O   0  0  0  0  0  0  0  0  0  0  0  0
    4.5665  -19.7781   21.2764 N   0  0  0  0  0  0  0  0  0  0  0  0
    4.4340  -19.4225   23.6474 N   0  0  0  0  0  0  0  0  0  0  0  0
    3.9535  -20.0330   22.5395 C   0  0  0  0  0  0  0  0  0  0  0  0
    2.8844  -20.8819   22.6081 N   0  0  0  0  0  0  0  0  0  0  0  0
    2.2575  -21.1576   23.7801 C   0  0  0  0  0  0  0  0  0  0  0  0
    2.7392  -20.5497   24.9642 C   0  0  0  0  0  0  0  0  0  0  0  0
    1.1943  -22.0296   23.7874 O   0  0  0  0  0  0  0  0  0  0  0  0
    0.7354  -20.8342   26.5142 C   0  0  0  0  0  0  0  0  0  0  0  0
    2.1563  -20.7300   26.2838 N   0  0  0  0  0  0  0  0  0  0  0  0
   -0.0280  -19.8772   26.4430 O   0  0  0  0  0  0  0  0  0  0  0  0
    3.0691  -20.6880   27.3453 C   0  0  2  0  0  0  0  0  0  0  0  0
    3.8309  -19.3379   27.3213 C   0  0  0  0  0  0  0  0  0  0  0  0
    3.8474  -19.6504   24.8649 C   0  0  0  0  0  0  0  0  0  0  0  0
    4.3773  -19.0034   26.0683 N   0  0  0  0  0  0  0  0  0  0  0  0
    4.0425  -21.8467   27.2658 C   0  0  0  0  0  0  0  0  0  0  0  0
    4.8066  -22.1421   28.4461 N   0  0  0  0  0  0  0  0  0  0  0  0
    8.5170  -20.2503   29.0212 C   0  0  0  0  0  0  0  0  0  0  0  0
    7.3736  -19.6983   29.5822 C   0  0  0  0  0  0  0  0  0  0  0  0
    6.1483  -20.3273   29.3978 C   0  0  0  0  0  0  0  0  0  0  0  0
    6.0663  -21.4966   28.6443 C   0  0  0  0  0  0  0  0  0  0  0  0
    7.2074  -22.0374   28.0779 C   0  0  0  0  0  0  0  0  0  0  0  0
    8.4346  -21.4147   28.2714 C   0  0  0  0  0  0  0  0  0  0  0  0
  1  2  1  0  0  0  0
  2  3  2  0  0  0  0
  2 20  1  0  0  0  0
  4  6  1  0  0  0  0
  5  6  2  0  0  0  0
  5 16  1  0  0  0  0
  6  7  1  0  0  0  0
  7  8  1  0  0  0  0
  8  9  1  0  0  0  0
  8 10  2  0  0  0  0
  9 12  1  0  0  0  0
  9 16  2  0  0  0  0
 11 13  1  0  0  0  0
 11 12  1  0  0  0  0
 12 14  1  0  0  0  0
 14 15  1  0  0  0  0
 14 18  1  6  0  0  0
 15 17  1  0  0  0  0
 16 17  1  0  0  0  0
 18 19  1  0  0  0  0
 19 23  1  0  0  0  0
 20 21  2  0  0  0  0
 20 25  1  0  0  0  0
 21 22  1  0  0  0  0
 22 23  2  0  0  0  0
 23 24  1  0  0  0  0
 24 25  2  0  0  0  0
M  END
>  <CHROM.1>
-73.39057324,-164.30979641,-89.28338710,94.21356973,-70.76375019,4.84521782
-20.44644435,26.51483537,-0.60559868,-0.18814435,-1.40182341

>  <Name>
ligand

>  <RI>
0

>  <Rbt.Current_Directory>
/home/itssahil/PROJECTS/Mol_Feturizer/New_Systems/rnas/4LVV

>  <Rbt.Executable>
rbdock ($Id: //depot/dev/client3/rdock/2013.1/src/exe/rbdock.cxx#4 $)

>  <Rbt.Library>
libRbt.so (2013.1, Build901 2013/11/27)

>  <Rbt.Parameter_File>
/export/apps/rDock/src/rDock_2013.1_src/data/scripts/dock_solv.prm

>  <Rbt.Receptor>
prm/pocket_docking_7.prm

>  <SCORE>
-8.64967

>  <SCORE.INTER>
-7.1482

>  <SCORE.INTER.CONST>
1

>  <SCORE.INTER.POLAR>
0

>  <SCORE.INTER.ROT>
5

>  <SCORE.INTER.SOLV>
12.8313

>  <SCORE.INTER.VDW>
-15.9759

>  <SCORE.INTER.norm>
-0.285928

>  <SCORE.INTRA>
-1.50148

>  <SCORE.INTRA.DIHEDRAL>
0.593739

>  <SCORE.INTRA.DIHEDRAL.0>
3.94806

>  <SCORE.INTRA.POLAR>
0

>  <SCORE.INTRA.POLAR.0>
0

>  <SCORE.INTRA.REPUL>
0

>  <SCORE.INTRA.REPUL.0>
0

>  <SCORE.INTRA.SOLV>
-0.439972

>  <SCORE.INTRA.SOLV.lig_0>
-70.9803

>  <SCORE.INTRA.VDW>
-1.57836

>  <SCORE.INTRA.VDW.0>
-0.709409

>  <SCORE.INTRA.norm>
-0.0600591

>  <SCORE.RESTR>
0

>  <SCORE.RESTR.CAVITY>
0

>  <SCORE.RESTR.norm>
0

>  <SCORE.SYSTEM>
0

>  <SCORE.SYSTEM.CONST>
0

>  <SCORE.SYSTEM.DIHEDRAL>
0

>  <SCORE.SYSTEM.SOLV>
0

>  <SCORE.SYSTEM.norm>
0

>  <SCORE.heavy>
25

>  <SCORE.norm>
-0.345987

>  <RMSD>
4.649

$$$$
ligand
 OpenBabel11021811503D
libRbt.so/2013.1/901 2013/11/27
 25 27  0  0  0  0  0  0  0  0999 V2000
    7.9884  -22.3201   20.1494 N   0  0  0  0  0  0  0  0  0  0  0  0
    7.0918  -23.3442   20.5884 C   0  0  0  0  0  0  0  0  0  0  0  0
    6.8912  -24.3378   19.9008 O   0  0  0  0  0  0  0  0  0  0  0  0
    5.1692  -16.9095   21.7593 N   0  0  0  0  0  0  0  0  0  0  0  0
    4.5258  -17.6477   23.9517 N   0  0  0  0  0  0  0  0  0  0  0  0
    4.4955  -17.8344   22.6119 C   0  0  0  0  0  0  0  0  0  0  0  0
    3.8218  -18.8881   22.0604 N   0  0  0  0  0  0  0  0  0  0  0  0
    3.1580  -19.7959   22.8206 C   0  0  0  0  0  0  0  0  0  0  0  0
    3.1779  -19.6437   24.2277 C   0  0  0  0  0  0  0  0  0  0  0  0
    2.5084  -20.8420   22.2084 O   0  0  0  0  0  0  0  0  0  0  0  0
    1.1967  -21.0963   24.9083 C   0  0  0  0  0  0  0  0  0  0  0  0
    2.4947  -20.5200   25.1652 N   0  0  0  0  0  0  0  0  0  0  0  0
    1.0279  -22.0774   24.1922 O   0  0  0  0  0  0  0  0  0  0  0  0
    3.1387  -20.6859   26.3978 C   0  0  2  0  0  0  0  0  0  0  0  0
    3.3383  -19.3028   27.0691 C   0  0  0  0  0  0  0  0  0  0  0  0
    3.8737  -18.5227   24.7809 C   0  0  0  0  0  0  0  0  0  0  0  0
    3.9200  -18.3317   26.2331 N   0  0  0  0  0  0  0  0  0  0  0  0
    4.4710  -21.3857   26.2205 C   0  0  0  0  0  0  0  0  0  0  0  0
    4.4539  -22.6763   25.5896 N   0  0  0  0  0  0  0  0  0  0  0  0
    6.4176  -23.1892   21.9075 C   0  0  0  0  0  0  0  0  0  0  0  0
    6.9501  -23.7652   23.0527 C   0  0  0  0  0  0  0  0  0  0  0  0
    6.2973  -23.6014   24.2684 C   0  0  0  0  0  0  0  0  0  0  0  0
    5.1238  -22.8534   24.3395 C   0  0  0  0  0  0  0  0  0  0  0  0
    4.6025  -22.2719   23.1970 C   0  0  0  0  0  0  0  0  0  0  0  0
    5.2490  -22.4448   21.9790 C   0  0  0  0  0  0  0  0  0  0  0  0
  1  2  1  0  0  0  0
  2  3  2  0  0  0  0
  2 20  1  0  0  0  0
  4  6  1  0  0  0  0
  5  6  2  0  0  0  0
  5 16  1  0  0  0  0
  6  7  1  0  0  0  0
  7  8  1  0  0  0  0
  8  9  1  0  0  0  0
  8 10  2  0  0  0  0
  9 12  1  0  0  0  0
  9 16  2  0  0  0  0
 11 13  1  0  0  0  0
 11 12  1  0  0  0  0
 12 14  1  0  0  0  0
 14 15  1  0  0  0  0
 14 18  1  6  0  0  0
 15 17  1  0  0  0  0
 16 17  1  0  0  0  0
 18 19  1  0  0  0  0
 19 23  1  0  0  0  0
 20 21  2  0  0  0  0
 20 25  1  0  0  0  0
 21 22  1  0  0  0  0
 22 23  2  0  0  0  0
 23 24  1  0  0  0  0
 24 25  2  0  0  0  0
M  END
>  <CHROM.1>
79.30905627,-57.43035671,116.68059207,109.16251457,-94.78322626,4.39691068
-20.95885567,23.58246420,-0.36292867,0.93482635,-0.34908404

>  <Name>
ligand

>  <RI>
0

>  <Rbt.Current_Directory>
/home/itssahil/PROJECTS/Mol_Feturizer/New_Systems/rnas/4LVV

>  <Rbt.Executable>
rbdock ($Id: //depot/dev/client3/rdock/2013.1/src/exe/rbdock.cxx#4 $)

>  <Rbt.Library>
libRbt.so (2013.1, Build901 2013/11/27)

>  <Rbt.Parameter_File>
/export/apps/rDock/src/rDock_2013.1_src/data/scripts/dock_solv.prm

>  <Rbt.Receptor>
prm/pocket_docking_8.prm

>  <SCORE>
-13.5387

>  <SCORE.INTER>
-11.9474

>  <SCORE.INTER.CONST>
1

>  <SCORE.INTER.POLAR>
0

>  <SCORE.INTER.ROT>
5

>  <SCORE.INTER.SOLV>
14.6035

>  <SCORE.INTER.VDW>
-19.7661

>  <SCORE.INTER.norm>
-0.477895

>  <SCORE.INTRA>
-1.59131

>  <SCORE.INTRA.DIHEDRAL>
0.625392

>  <SCORE.INTRA.DIHEDRAL.0>
3.94806

>  <SCORE.INTRA.POLAR>
0

>  <SCORE.INTRA.POLAR.0>
0

>  <SCORE.INTRA.REPUL>
0

>  <SCORE.INTRA.REPUL.0>
0

>  <SCORE.INTRA.SOLV>
0.907221

>  <SCORE.INTRA.SOLV.lig_0>
-70.9803

>  <SCORE.INTRA.VDW>
-2.35762

>  <SCORE.INTRA.VDW.0>
-0.709409

>  <SCORE.INTRA.norm>
-0.0636526

>  <SCORE.RESTR>
0

>  <SCORE.RESTR.CAVITY>
0

>  <SCORE.RESTR.norm>
0

>  <SCORE.SYSTEM>
0

>  <SCORE.SYSTEM.CONST>
0

>  <SCORE.SYSTEM.DIHEDRAL>
0

>  <SCORE.SYSTEM.SOLV>
0

>  <SCORE.SYSTEM.norm>
0

>  <SCORE.heavy>
25

>  <SCORE.norm>
-0.541547

>  <RMSD>
4.683

$$$$
ligand
 OpenBabel11021811503D
libRbt.so/2013.1/901 2013/11/27
 25 27  0  0  0  0  0  0  0  0999 V2000
    7.3060  -24.7739   19.8088 N   0  0  0  0  0  0  0  0  0  0  0  0
    6.9089  -23.4669   20.2320 C   0  0  0  0  0  0  0  0  0  0  0  0
    7.0038  -22.5080   19.4759 O   0  0  0  0  0  0  0  0  0  0  0  0
    4.7516  -16.6051   21.7501 N   0  0  0  0  0  0  0  0  0  0  0  0
    4.1150  -17.5643   23.8573 N   0  0  0  0  0  0  0  0  0  0  0  0
    4.1899  -17.6739   22.5107 C   0  0  0  0  0  0  0  0  0  0  0  0
    3.7274  -18.7866   21.8655 N   0  0  0  0  0  0  0  0  0  0  0  0
    3.1780  -19.8315   22.5355 C   0  0  0  0  0  0  0  0  0  0  0  0
    3.0945  -19.7615   23.9468 C   0  0  0  0  0  0  0  0  0  0  0  0
    2.7412  -20.9292   21.8317 O   0  0  0  0  0  0  0  0  0  0  0  0
    1.3396  -21.5474   24.4255 C   0  0  0  0  0  0  0  0  0  0  0  0
    2.5109  -20.7889   24.7938 N   0  0  0  0  0  0  0  0  0  0  0  0
    0.1958  -21.1702   24.6564 O   0  0  0  0  0  0  0  0  0  0  0  0
    3.1035  -20.9233   26.0557 C   0  0  2  0  0  0  0  0  0  0  0  0
    3.0390  -19.5682   26.8060 C   0  0  0  0  0  0  0  0  0  0  0  0
    3.5679  -18.5791   24.5984 C   0  0  0  0  0  0  0  0  0  0  0  0
    3.5016  -18.4694   26.0583 N   0  0  0  0  0  0  0  0  0  0  0  0
    4.5393  -21.3913   25.9303 C   0  0  0  0  0  0  0  0  0  0  0  0
    4.7526  -22.7283   25.4495 N   0  0  0  0  0  0  0  0  0  0  0  0
    6.3602  -23.2945   21.6061 C   0  0  0  0  0  0  0  0  0  0  0  0
    6.9502  -23.9235   22.6937 C   0  0  0  0  0  0  0  0  0  0  0  0
    6.4147  -23.7418   23.9630 C   0  0  0  0  0  0  0  0  0  0  0  0
    5.3015  -22.9236   24.1443 C   0  0  0  0  0  0  0  0  0  0  0  0
    4.7231  -22.2899   23.0584 C   0  0  0  0  0  0  0  0  0  0  0  0
    5.2516  -22.4803   21.7873 C   0  0  0  0  0  0  0  0  0  0  0  0
  1  2  1  0  0  0  0
  2  3  2  0  0  0  0
  2 20  1  0  0  0  0
  4  6  1  0  0  0  0
  5  6  2  0  0  0  0
  5 16  1  0  0  0  0
  6  7  1  0  0  0  0
  7  8  1  0  0  0  0
  8  9  1  0  0  0  0
  8 10  2  0  0  0  0
  9 12  1  0  0  0  0
  9 16  2  0  0  0  0
 11 13  1  0  0  0  0
 11 12  1  0  0  0  0
 12 14  1  0  0  0  0
 14 15  1  0  0  0  0
 14 18  1  6  0  0  0
 15 17  1  0  0  0  0
 16 17  1  0  0  0  0
 18 19  1  0  0  0  0
 19 23  1  0  0  0  0
 20 21  2  0  0  0  0
 20 25  1  0  0  0  0
 21 22  1  0  0  0  0
 22 23  2  0  0  0  0
 23 24  1  0  0  0  0
 24 25  2  0  0  0  0
M  END
>  <CHROM.1>
-87.25650246,-67.99589769,109.45101054,127.78345885,43.28851283,4.27874957
-20.99837409,23.35637468,-0.25109782,0.95003292,-0.53240528

>  <Name>
ligand

>  <RI>
0

>  <Rbt.Current_Directory>
/home/itssahil/PROJECTS/Mol_Feturizer/New_Systems/rnas/4LVV

>  <Rbt.Executable>
rbdock ($Id: //depot/dev/client3/rdock/2013.1/src/exe/rbdock.cxx#4 $)

>  <Rbt.Library>
libRbt.so (2013.1, Build901 2013/11/27)

>  <Rbt.Parameter_File>
/export/apps/rDock/src/rDock_2013.1_src/data/scripts/dock_solv.prm

>  <Rbt.Receptor>
prm/pocket_docking_8.prm

>  <SCORE>
-14.7543

>  <SCORE.INTER>
-13.3693

>  <SCORE.INTER.CONST>
1

>  <SCORE.INTER.POLAR>
0

>  <SCORE.INTER.ROT>
5

>  <SCORE.INTER.SOLV>
16.6553

>  <SCORE.INTER.VDW>
-21.398

>  <SCORE.INTER.norm>
-0.534772

>  <SCORE.INTRA>
-1.38495

>  <SCORE.INTRA.DIHEDRAL>
0.458345

>  <SCORE.INTRA.DIHEDRAL.0>
3.94806

>  <SCORE.INTRA.POLAR>
0

>  <SCORE.INTRA.POLAR.0>
0

>  <SCORE.INTRA.REPUL>
0

>  <SCORE.INTRA.REPUL.0>
0

>  <SCORE.INTRA.SOLV>
0.230322

>  <SCORE.INTRA.SOLV.lig_0>
-70.9803

>  <SCORE.INTRA.VDW>
-1.72929

>  <SCORE.INTRA.VDW.0>
-0.709409

>  <SCORE.INTRA.norm>
-0.0553981

>  <SCORE.RESTR>
0

>  <SCORE.RESTR.CAVITY>
0

>  <SCORE.RESTR.norm>
0

>  <SCORE.SYSTEM>
0

>  <SCORE.SYSTEM.CONST>
0

>  <SCORE.SYSTEM.DIHEDRAL>
0

>  <SCORE.SYSTEM.SOLV>
0

>  <SCORE.SYSTEM.norm>
0

>  <SCORE.heavy>
25

>  <SCORE.norm>
-0.59017

>  <RMSD>
4.783

$$$$
ligand
 OpenBabel11021811503D
libRbt.so/2013.1/901 2013/11/27
 25 27  0  0  0  0  0  0  0  0999 V2000
    7.1703  -22.0824   20.4198 N   0  0  0  0  0  0  0  0  0  0  0  0
    7.0209  -23.2433   21.2416 C   0  0  0  0  0  0  0  0  0  0  0  0
    7.5037  -24.3167   20.9026 O   0  0  0  0  0  0  0  0  0  0  0  0
    6.8729  -18.2138   22.6883 N   0  0  0  0  0  0  0  0  0  0  0  0
    6.4513  -18.7668   24.9865 N   0  0  0  0  0  0  0  0  0  0  0  0
    6.0080  -18.7093   23.7093 C   0  0  0  0  0  0  0  0  0  0  0  0
    4.7422  -19.1083   23.3822 N   0  0  0  0  0  0  0  0  0  0  0  0
    3.8736  -19.5823   24.3113 C   0  0  0  0  0  0  0  0  0  0  0  0
    4.3043  -19.6715   25.6567 C   0  0  0  0  0  0  0  0  0  0  0  0
    2.6170  -19.9798   23.9190 O   0  0  0  0  0  0  0  0  0  0  0  0
    2.0730  -19.8355   26.8784 C   0  0  0  0  0  0  0  0  0  0  0  0
    3.4800  -20.1343   26.7612 N   0  0  0  0  0  0  0  0  0  0  0  0
    1.1920  -20.6658   26.6831 O   0  0  0  0  0  0  0  0  0  0  0  0
    4.1723  -20.8090   27.7748 C   0  0  2  0  0  0  0  0  0  0  0  0
    5.2873  -19.8921   28.3402 C   0  0  0  0  0  0  0  0  0  0  0  0
    5.6268  -19.2305   25.9783 C   0  0  0  0  0  0  0  0  0  0  0  0
    6.1111  -19.3096   27.3592 N   0  0  0  0  0  0  0  0  0  0  0  0
    4.7641  -22.1033   27.2545 C   0  0  0  0  0  0  0  0  0  0  0  0
    4.1271  -22.7031   26.1149 N   0  0  0  0  0  0  0  0  0  0  0  0
    6.2809  -23.1200   22.5284 C   0  0  0  0  0  0  0  0  0  0  0  0
    6.8130  -23.6222   23.7080 C   0  0  0  0  0  0  0  0  0  0  0  0
    6.0979  -23.4904   24.8922 C   0  0  0  0  0  0  0  0  0  0  0  0
    4.8618  -22.8473   24.8975 C   0  0  0  0  0  0  0  0  0  0  0  0
    4.3403  -22.3386   23.7208 C   0  0  0  0  0  0  0  0  0  0  0  0
    5.0500  -22.4800   22.5344 C   0  0  0  0  0  0  0  0  0  0  0  0
  1  2  1  0  0  0  0
  2  3  2  0  0  0  0
  2 20  1  0  0  0  0
  4  6  1  0  0  0  0
  5  6  2  0  0  0  0
  5 16  1  0  0  0  0
  6  7  1  0  0  0  0
  7  8  1  0  0  0  0
  8  9  1  0  0  0  0
  8 10  2  0  0  0  0
  9 12  1  0  0  0  0
  9 16  2  0  0  0  0
 11 13  1  0  0  0  0
 11 12  1  0  0  0  0
 12 14  1  0  0  0  0
 14 15  1  0  0  0  0
 14 18  1  6  0  0  0
 15 17  1  0  0  0  0
 16 17  1  0  0  0  0
 18 19  1  0  0  0  0
 19 23  1  0  0  0  0
 20 21  2  0  0  0  0
 20 25  1  0  0  0  0
 21 22  1  0  0  0  0
 22 23  2  0  0  0  0
 23 24  1  0  0  0  0
 24 25  2  0  0  0  0
M  END
>  <CHROM.1>
106.74830495,-24.92494924,117.31825505,53.68752019,-131.13845725,5.02602280
-21.02108898,24.69089792,-0.55274305,0.98822692,0.13222550

>  <Name>
ligand

>  <RI>
0

>  <Rbt.Current_Directory>
/home/itssahil/PROJECTS/Mol_Feturizer/New_Systems/rnas/4LVV

>  <Rbt.Executable>
rbdock ($Id: //depot/dev/client3/rdock/2013.1/src/exe/rbdock.cxx#4 $)

>  <Rbt.Library>
libRbt.so (2013.1, Build901 2013/11/27)

>  <Rbt.Parameter_File>
/export/apps/rDock/src/rDock_2013.1_src/data/scripts/dock_solv.prm

>  <Rbt.Receptor>
prm/pocket_docking_4.prm

>  <SCORE>
-7.7487

>  <SCORE.INTER>
-7.7425

>  <SCORE.INTER.CONST>
1

>  <SCORE.INTER.POLAR>
0

>  <SCORE.INTER.ROT>
5

>  <SCORE.INTER.SOLV>
9.71277

>  <SCORE.INTER.VDW>
-15.3326

>  <SCORE.INTER.norm>
-0.3097

>  <SCORE.INTRA>
-0.0118157

>  <SCORE.INTRA.DIHEDRAL>
3.97869

>  <SCORE.INTRA.DIHEDRAL.0>
3.94806

>  <SCORE.INTRA.POLAR>
0

>  <SCORE.INTRA.POLAR.0>
0

>  <SCORE.INTRA.REPUL>
0

>  <SCORE.INTRA.REPUL.0>
0

>  <SCORE.INTRA.SOLV>
1.79047

>  <SCORE.INTRA.SOLV.lig_0>
-70.9803

>  <SCORE.INTRA.VDW>
-2.8964

>  <SCORE.INTRA.VDW.0>
-0.709409

>  <SCORE.INTRA.norm>
-0.000472627

>  <SCORE.RESTR>
0.00561033

>  <SCORE.RESTR.CAVITY>
0.00561033

>  <SCORE.RESTR.norm>
0.000224413

>  <SCORE.SYSTEM>
0

>  <SCORE.SYSTEM.CONST>
0

>  <SCORE.SYSTEM.DIHEDRAL>
0

>  <SCORE.SYSTEM.SOLV>
0

>  <SCORE.SYSTEM.norm>
0

>  <SCORE.heavy>
25

>  <SCORE.norm>
-0.309948

>  <RMSD>
4.785

$$$$
ligand
 OpenBabel11021811503D
libRbt.so/2013.1/901 2013/11/27
 25 27  0  0  0  0  0  0  0  0999 V2000
    6.9892  -22.2700   19.4821 N   0  0  0  0  0  0  0  0  0  0  0  0
    6.7624  -23.4288   20.2890 C   0  0  0  0  0  0  0  0  0  0  0  0
    7.0004  -24.5496   19.8563 O   0  0  0  0  0  0  0  0  0  0  0  0
    5.2540  -16.4751   22.0308 N   0  0  0  0  0  0  0  0  0  0  0  0
    4.6186  -17.4183   24.1454 N   0  0  0  0  0  0  0  0  0  0  0  0
    4.6107  -17.4945   22.7945 C   0  0  0  0  0  0  0  0  0  0  0  0
    3.9882  -18.5258   22.1486 N   0  0  0  0  0  0  0  0  0  0  0  0
    3.3552  -19.5200   22.8218 C   0  0  0  0  0  0  0  0  0  0  0  0
    3.3533  -19.4842   24.2369 C   0  0  0  0  0  0  0  0  0  0  0  0
    2.7570  -20.5376   22.1164 O   0  0  0  0  0  0  0  0  0  0  0  0
    1.4280  -21.0686   24.7671 C   0  0  0  0  0  0  0  0  0  0  0  0
    2.6975  -20.4626   25.0891 N   0  0  0  0  0  0  0  0  0  0  0  0
    1.3133  -22.0195   24.0012 O   0  0  0  0  0  0  0  0  0  0  0  0
    3.3345  -20.7034   26.3131 C   0  0  2  0  0  0  0  0  0  0  0  0
    3.4681  -19.3736   27.0987 C   0  0  0  0  0  0  0  0  0  0  0  0
    3.9950  -18.3852   24.8904 C   0  0  0  0  0  0  0  0  0  0  0  0
    4.0174  -18.3134   26.3539 N   0  0  0  0  0  0  0  0  0  0  0  0
    4.6971  -21.3305   26.0978 C   0  0  0  0  0  0  0  0  0  0  0  0
    4.7276  -22.6585   25.5505 N   0  0  0  0  0  0  0  0  0  0  0  0
    6.2466  -23.2473   21.6746 C   0  0  0  0  0  0  0  0  0  0  0  0
    6.8905  -23.8302   22.7573 C   0  0  0  0  0  0  0  0  0  0  0  0
    6.3845  -23.6411   24.0376 C   0  0  0  0  0  0  0  0  0  0  0  0
    5.2465  -22.8614   24.2343 C   0  0  0  0  0  0  0  0  0  0  0  0
    4.6140  -22.2735   23.1528 C   0  0  0  0  0  0  0  0  0  0  0  0
    5.1134  -22.4714   21.8711 C   0  0  0  0  0  0  0  0  0  0  0  0
  1  2  1  0  0  0  0
  2  3  2  0  0  0  0
  2 20  1  0  0  0  0
  4  6  1  0  0  0  0
  5  6  2  0  0  0  0
  5 16  1  0  0  0  0
  6  7  1  0  0  0  0
  7  8  1  0  0  0  0
  8  9  1  0  0  0  0
  8 10  2  0  0  0  0
  9 12  1  0  0  0  0
  9 16  2  0  0  0  0
 11 13  1  0  0  0  0
 11 12  1  0  0  0  0
 12 14  1  0  0  0  0
 14 15  1  0  0  0  0
 14 18  1  6  0  0  0
 15 17  1  0  0  0  0
 16 17  1  0  0  0  0
 18 19  1  0  0  0  0
 19 23  1  0  0  0  0
 20 21  2  0  0  0  0
 20 25  1  0  0  0  0
 21 22  1  0  0  0  0
 22 23  2  0  0  0  0
 23 24  1  0  0  0  0
 24 25  2  0  0  0  0
M  END
>  <CHROM.1>
81.59057197,-66.88249440,112.16242663,116.92464477,-127.66676151,4.46159437
-20.87997842,23.51249945,-0.44154905,1.04360484,-0.34743124

>  <Name>
ligand

>  <RI>
0

>  <Rbt.Current_Directory>
/home/itssahil/PROJECTS/Mol_Feturizer/New_Systems/rnas/4LVV

>  <Rbt.Executable>
rbdock ($Id: //depot/dev/client3/rdock/2013.1/src/exe/rbdock.cxx#4 $)

>  <Rbt.Library>
libRbt.so (2013.1, Build901 2013/11/27)

>  <Rbt.Parameter_File>
/export/apps/rDock/src/rDock_2013.1_src/data/scripts/dock_solv.prm

>  <Rbt.Receptor>
prm/pocket_docking_7.prm

>  <SCORE>
-13.6454

>  <SCORE.INTER>
-12.0834

>  <SCORE.INTER.CONST>
1

>  <SCORE.INTER.POLAR>
0

>  <SCORE.INTER.ROT>
5

>  <SCORE.INTER.SOLV>
15.1412

>  <SCORE.INTER.VDW>
-20.036

>  <SCORE.INTER.norm>
-0.483337

>  <SCORE.INTRA>
-1.56197

>  <SCORE.INTRA.DIHEDRAL>
0.776078

>  <SCORE.INTRA.DIHEDRAL.0>
3.94806

>  <SCORE.INTRA.POLAR>
0

>  <SCORE.INTRA.POLAR.0>
0

>  <SCORE.INTRA.REPUL>
0

>  <SCORE.INTRA.REPUL.0>
0

>  <SCORE.INTRA.SOLV>
0.809007

>  <SCORE.INTRA.SOLV.lig_0>
-70.9803

>  <SCORE.INTRA.VDW>
-2.35451

>  <SCORE.INTRA.VDW.0>
-0.709409

>  <SCORE.INTRA.norm>
-0.0624788

>  <SCORE.RESTR>
0

>  <SCORE.RESTR.CAVITY>
0

>  <SCORE.RESTR.norm>
0

>  <SCORE.SYSTEM>
0

>  <SCORE.SYSTEM.CONST>
0

>  <SCORE.SYSTEM.DIHEDRAL>
0

>  <SCORE.SYSTEM.SOLV>
0

>  <SCORE.SYSTEM.norm>
0

>  <SCORE.heavy>
25

>  <SCORE.norm>
-0.545816

>  <RMSD>
4.831

$$$$
ligand
 OpenBabel11021811503D
libRbt.so/2013.1/901 2013/11/27
 25 27  0  0  0  0  0  0  0  0999 V2000
    9.1612  -22.7888   18.6553 N   0  0  0  0  0  0  0  0  0  0  0  0
    8.2928  -23.8350   19.0990 C   0  0  0  0  0  0  0  0  0  0  0  0
    8.0979  -24.8242   18.4036 O   0  0  0  0  0  0  0  0  0  0  0  0
    6.9514  -17.1701   28.0166 N   0  0  0  0  0  0  0  0  0  0  0  0
    6.1326  -19.4104   27.7415 N   0  0  0  0  0  0  0  0  0  0  0  0
    6.0467  -18.0987   27.4207 C   0  0  0  0  0  0  0  0  0  0  0  0
    5.1013  -17.6465   26.5431 N   0  0  0  0  0  0  0  0  0  0  0  0
    4.2106  -18.4818   25.9502 C   0  0  0  0  0  0  0  0  0  0  0  0
    4.2769  -19.8638   26.2488 C   0  0  0  0  0  0  0  0  0  0  0  0
    3.2903  -17.9691   25.0664 O   0  0  0  0  0  0  0  0  0  0  0  0
    1.9684  -20.6414   25.4976 C   0  0  0  0  0  0  0  0  0  0  0  0
    3.3770  -20.8713   25.7115 N   0  0  0  0  0  0  0  0  0  0  0  0
    1.3444  -21.1248   24.5591 O   0  0  0  0  0  0  0  0  0  0  0  0
    3.9517  -22.1328   25.5119 C   0  0  2  0  0  0  0  0  0  0  0  0
    4.5356  -22.6544   26.8500 C   0  0  0  0  0  0  0  0  0  0  0  0
    5.2625  -20.3111   27.1844 C   0  0  0  0  0  0  0  0  0  0  0  0
    5.3652  -21.7344   27.5177 N   0  0  0  0  0  0  0  0  0  0  0  0
    5.0319  -22.0718   24.4509 C   0  0  0  0  0  0  0  0  0  0  0  0
    5.7262  -23.2937   24.1523 N   0  0  0  0  0  0  0  0  0  0  0  0
    7.6414  -23.7083   20.4325 C   0  0  0  0  0  0  0  0  0  0  0  0
    8.3190  -24.0556   21.5931 C   0  0  0  0  0  0  0  0  0  0  0  0
    7.6835  -23.9250   22.8220 C   0  0  0  0  0  0  0  0  0  0  0  0
    6.3802  -23.4366   22.8895 C   0  0  0  0  0  0  0  0  0  0  0  0
    5.7124  -23.0814   21.7305 C   0  0  0  0  0  0  0  0  0  0  0  0
    6.3437  -23.2224   20.5005 C   0  0  0  0  0  0  0  0  0  0  0  0
  1  2  1  0  0  0  0
  2  3  2  0  0  0  0
  2 20  1  0  0  0  0
  4  6  1  0  0  0  0
  5  6  2  0  0  0  0
  5 16  1  0  0  0  0
  6  7  1  0  0  0  0
  7  8  1  0  0  0  0
  8  9  1  0  0  0  0
  8 10  2  0  0  0  0
  9 12  1  0  0  0  0
  9 16  2  0  0  0  0
 11 13  1  0  0  0  0
 11 12  1  0  0  0  0
 12 14  1  0  0  0  0
 14 15  1  0  0  0  0
 14 18  1  6  0  0  0
 15 17  1  0  0  0  0
 16 17  1  0  0  0  0
 18 19  1  0  0  0  0
 19 23  1  0  0  0  0
 20 21  2  0  0  0  0
 20 25  1  0  0  0  0
 21 22  1  0  0  0  0
 22 23  2  0  0  0  0
 23 24  1  0  0  0  0
 24 25  2  0  0  0  0
M  END
>  <CHROM.1>
144.65400217,179.12402197,157.61917711,132.94470625,-82.27634845,5.53753107
-21.41345227,24.21192143,-1.16804699,0.29301895,0.84888766

>  <Name>
ligand

>  <RI>
0

>  <Rbt.Current_Directory>
/home/itssahil/PROJECTS/Mol_Feturizer/New_Systems/rnas/4LVV

>  <Rbt.Executable>
rbdock ($Id: //depot/dev/client3/rdock/2013.1/src/exe/rbdock.cxx#4 $)

>  <Rbt.Library>
libRbt.so (2013.1, Build901 2013/11/27)

>  <Rbt.Parameter_File>
/export/apps/rDock/src/rDock_2013.1_src/data/scripts/dock_solv.prm

>  <Rbt.Receptor>
prm/pocket_docking_6.prm

>  <SCORE>
-9.4854

>  <SCORE.INTER>
-8.71802

>  <SCORE.INTER.CONST>
1

>  <SCORE.INTER.POLAR>
0

>  <SCORE.INTER.ROT>
5

>  <SCORE.INTER.SOLV>
13.1646

>  <SCORE.INTER.VDW>
-17.1335

>  <SCORE.INTER.norm>
-0.348721

>  <SCORE.INTRA>
-0.76738

>  <SCORE.INTRA.DIHEDRAL>
-0.495522

>  <SCORE.INTRA.DIHEDRAL.0>
3.94806

>  <SCORE.INTRA.POLAR>
0

>  <SCORE.INTRA.POLAR.0>
0

>  <SCORE.INTRA.REPUL>
0

>  <SCORE.INTRA.REPUL.0>
0

>  <SCORE.INTRA.SOLV>
-0.155923

>  <SCORE.INTRA.SOLV.lig_0>
-70.9803

>  <SCORE.INTRA.VDW>
-0.441657

>  <SCORE.INTRA.VDW.0>
-0.709409

>  <SCORE.INTRA.norm>
-0.0306952

>  <SCORE.RESTR>
0

>  <SCORE.RESTR.CAVITY>
0

>  <SCORE.RESTR.norm>
0

>  <SCORE.SYSTEM>
0

>  <SCORE.SYSTEM.CONST>
0

>  <SCORE.SYSTEM.DIHEDRAL>
0

>  <SCORE.SYSTEM.SOLV>
0

>  <SCORE.SYSTEM.norm>
0

>  <SCORE.heavy>
25

>  <SCORE.norm>
-0.379416

>  <RMSD>
4.847

$$$$
ligand
 OpenBabel11021811503D
libRbt.so/2013.1/901 2013/11/27
 25 27  0  0  0  0  0  0  0  0999 V2000
    9.4806  -22.6215   31.1106 N   0  0  0  0  0  0  0  0  0  0  0  0
    9.0449  -22.9688   29.7935 C   0  0  0  0  0  0  0  0  0  0  0  0
    9.7585  -23.6340   29.0529 O   0  0  0  0  0  0  0  0  0  0  0  0
    5.5219  -17.9041   21.8058 N   0  0  0  0  0  0  0  0  0  0  0  0
    4.2419  -18.1878   23.8173 N   0  0  0  0  0  0  0  0  0  0  0  0
    4.6210  -18.6649   22.6092 C   0  0  0  0  0  0  0  0  0  0  0  0
    4.1476  -19.8586   22.1408 N   0  0  0  0  0  0  0  0  0  0  0  0
    3.2842  -20.6224   22.8576 C   0  0  0  0  0  0  0  0  0  0  0  0
    2.8746  -20.1647   24.1329 C   0  0  0  0  0  0  0  0  0  0  0  0
    2.8522  -21.8201   22.3381 O   0  0  0  0  0  0  0  0  0  0  0  0
    0.7808  -21.5688   24.5109 C   0  0  0  0  0  0  0  0  0  0  0  0
    1.9387  -20.8604   25.0010 N   0  0  0  0  0  0  0  0  0  0  0  0
   -0.3648  -21.3048   24.8597 O   0  0  0  0  0  0  0  0  0  0  0  0
    2.1769  -20.7067   26.3727 C   0  0  2  0  0  0  0  0  0  0  0  0
    2.1621  -19.1996   26.7360 C   0  0  0  0  0  0  0  0  0  0  0  0
    3.3686  -18.9037   24.5940 C   0  0  0  0  0  0  0  0  0  0  0  0
    2.9704  -18.3967   25.9100 N   0  0  0  0  0  0  0  0  0  0  0  0
    3.5002  -21.3327   26.7639 C   0  0  0  0  0  0  0  0  0  0  0  0
    3.8527  -21.3024   28.1564 N   0  0  0  0  0  0  0  0  0  0  0  0
    7.6976  -22.5209   29.3430 C   0  0  0  0  0  0  0  0  0  0  0  0
    7.5010  -22.0322   28.0588 C   0  0  0  0  0  0  0  0  0  0  0  0
    6.2315  -21.6231   27.6689 C   0  0  0  0  0  0  0  0  0  0  0  0
    5.1612  -21.7151   28.5565 C   0  0  0  0  0  0  0  0  0  0  0  0
    5.3600  -22.2130   29.8324 C   0  0  0  0  0  0  0  0  0  0  0  0
    6.6316  -22.6118   30.2263 C   0  0  0  0  0  0  0  0  0  0  0  0
  1  2  1  0  0  0  0
  2  3  2  0  0  0  0
  2 20  1  0  0  0  0
  4  6  1  0  0  0  0
  5  6  2  0  0  0  0
  5 16  1  0  0  0  0
  6  7  1  0  0  0  0
  7  8  1  0  0  0  0
  8  9  1  0  0  0  0
  8 10  2  0  0  0  0
  9 12  1  0  0  0  0
  9 16  2  0  0  0  0
 11 13  1  0  0  0  0
 11 12  1  0  0  0  0
 12 14  1  0  0  0  0
 14 15  1  0  0  0  0
 14 18  1  6  0  0  0
 15 17  1  0  0  0  0
 16 17  1  0  0  0  0
 18 19  1  0  0  0  0
 19 23  1  0  0  0  0
 20 21  2  0  0  0  0
 20 25  1  0  0  0  0
 21 22  1  0  0  0  0
 22 23  2  0  0  0  0
 23 24  1  0  0  0  0
 24 25  2  0  0  0  0
M  END
>  <CHROM.1>
-121.73041015,-177.40663548,-171.70210960,26.10228997,138.41619210,4.52192841
-20.91004755,26.18116996,-0.88634299,-0.03051378,-1.11673346

>  <Name>
ligand

>  <RI>
0

>  <Rbt.Current_Directory>
/home/itssahil/PROJECTS/Mol_Feturizer/New_Systems/rnas/4LVV

>  <Rbt.Executable>
rbdock ($Id: //depot/dev/client3/rdock/2013.1/src/exe/rbdock.cxx#4 $)

>  <Rbt.Library>
libRbt.so (2013.1, Build901 2013/11/27)

>  <Rbt.Parameter_File>
/export/apps/rDock/src/rDock_2013.1_src/data/scripts/dock_solv.prm

>  <Rbt.Receptor>
prm/pocket_docking_7.prm

>  <SCORE>
-10.9317

>  <SCORE.INTER>
-10.3384

>  <SCORE.INTER.CONST>
1

>  <SCORE.INTER.POLAR>
0

>  <SCORE.INTER.ROT>
5

>  <SCORE.INTER.SOLV>
16.6254

>  <SCORE.INTER.VDW>
-19.3674

>  <SCORE.INTER.norm>
-0.413535

>  <SCORE.INTRA>
-0.593345

>  <SCORE.INTRA.DIHEDRAL>
-0.59

>  <SCORE.INTRA.DIHEDRAL.0>
3.94806

>  <SCORE.INTRA.POLAR>
0

>  <SCORE.INTRA.POLAR.0>
0

>  <SCORE.INTRA.REPUL>
0

>  <SCORE.INTRA.REPUL.0>
0

>  <SCORE.INTRA.SOLV>
-0.315896

>  <SCORE.INTRA.SOLV.lig_0>
-70.9803

>  <SCORE.INTRA.VDW>
-0.140396

>  <SCORE.INTRA.VDW.0>
-0.709409

>  <SCORE.INTRA.norm>
-0.0237338

>  <SCORE.RESTR>
0

>  <SCORE.RESTR.CAVITY>
0

>  <SCORE.RESTR.norm>
0

>  <SCORE.SYSTEM>
0

>  <SCORE.SYSTEM.CONST>
0

>  <SCORE.SYSTEM.DIHEDRAL>
0

>  <SCORE.SYSTEM.SOLV>
0

>  <SCORE.SYSTEM.norm>
0

>  <SCORE.heavy>
25

>  <SCORE.norm>
-0.437268

>  <RMSD>
4.877

$$$$
ligand
 OpenBabel11021811503D
libRbt.so/2013.1/901 2013/11/27
 25 27  0  0  0  0  0  0  0  0999 V2000
    9.1298  -22.8221   18.6647 N   0  0  0  0  0  0  0  0  0  0  0  0
    8.2096  -23.8275   19.0979 C   0  0  0  0  0  0  0  0  0  0  0  0
    7.9818  -24.8094   18.4022 O   0  0  0  0  0  0  0  0  0  0  0  0
    6.9663  -17.0973   28.1055 N   0  0  0  0  0  0  0  0  0  0  0  0
    6.1607  -19.3433   27.8375 N   0  0  0  0  0  0  0  0  0  0  0  0
    6.0726  -18.0344   27.5061 C   0  0  0  0  0  0  0  0  0  0  0  0
    5.1352  -17.5929   26.6146 N   0  0  0  0  0  0  0  0  0  0  0  0
    4.2551  -18.4365   26.0177 C   0  0  0  0  0  0  0  0  0  0  0  0
    4.3243  -19.8160   26.3271 C   0  0  0  0  0  0  0  0  0  0  0  0
    3.3426  -17.9344   25.1198 O   0  0  0  0  0  0  0  0  0  0  0  0
    2.0280  -20.6096   25.5554 C   0  0  0  0  0  0  0  0  0  0  0  0
    3.4351  -20.8314   25.7870 N   0  0  0  0  0  0  0  0  0  0  0  0
    1.3939  -21.1830   24.6762 O   0  0  0  0  0  0  0  0  0  0  0  0
    4.0177  -22.0917   25.6031 C   0  0  2  0  0  0  0  0  0  0  0  0
    4.5887  -22.6009   26.9515 C   0  0  0  0  0  0  0  0  0  0  0  0
    5.3011  -20.2519   27.2771 C   0  0  0  0  0  0  0  0  0  0  0  0
    5.4064  -21.6724   27.6218 N   0  0  0  0  0  0  0  0  0  0  0  0
    5.1096  -22.0334   24.5540 C   0  0  0  0  0  0  0  0  0  0  0  0
    5.7445  -23.2727   24.2001 N   0  0  0  0  0  0  0  0  0  0  0  0
    7.5444  -23.6678   20.4211 C   0  0  0  0  0  0  0  0  0  0  0  0
    6.2396  -23.2032   20.5119 C   0  0  0  0  0  0  0  0  0  0  0  0
    5.6471  -23.0661   21.7614 C   0  0  0  0  0  0  0  0  0  0  0  0
    6.3533  -23.4051   22.9138 C   0  0  0  0  0  0  0  0  0  0  0  0
    7.6504  -23.8782   22.8176 C   0  0  0  0  0  0  0  0  0  0  0  0
    8.2471  -24.0048   21.5690 C   0  0  0  0  0  0  0  0  0  0  0  0
  1  2  1  0  0  0  0
  2  3  2  0  0  0  0
  2 20  1  0  0  0  0
  4  6  1  0  0  0  0
  5  6  2  0  0  0  0
  5 16  1  0  0  0  0
  6  7  1  0  0  0  0
  7  8  1  0  0  0  0
  8  9  1  0  0  0  0
  8 10  2  0  0  0  0
  9 12  1  0  0  0  0
  9 16  2  0  0  0  0
 11 13  1  0  0  0  0
 11 12  1  0  0  0  0
 12 14  1  0  0  0  0
 14 15  1  0  0  0  0
 14 18  1  6  0  0  0
 15 17  1  0  0  0  0
 16 17  1  0  0  0  0
 18 19  1  0  0  0  0
 19 23  1  0  0  0  0
 20 21  2  0  0  0  0
 20 25  1  0  0  0  0
 21 22  1  0  0  0  0
 22 23  2  0  0  0  0
 23 24  1  0  0  0  0
 24 25  2  0  0  0  0
M  END
>  <CHROM.1>
150.49421495,-176.34916395,154.98554775,-50.55034011,100.89546026,5.54257382
-21.37972445,24.26797205,-1.18728679,0.31357892,0.85046907

>  <Name>
ligand

>  <RI>
0

>  <Rbt.Current_Directory>
/home/itssahil/PROJECTS/Mol_Feturizer/New_Systems/rnas/4LVV

>  <Rbt.Executable>
rbdock ($Id: //depot/dev/client3/rdock/2013.1/src/exe/rbdock.cxx#4 $)

>  <Rbt.Library>
libRbt.so (2013.1, Build901 2013/11/27)

>  <Rbt.Parameter_File>
/export/apps/rDock/src/rDock_2013.1_src/data/scripts/dock_solv.prm

>  <Rbt.Receptor>
prm/pocket_docking_6.prm

>  <SCORE>
-9.48931

>  <SCORE.INTER>
-8.64852

>  <SCORE.INTER.CONST>
1

>  <SCORE.INTER.POLAR>
0

>  <SCORE.INTER.ROT>
5

>  <SCORE.INTER.SOLV>
13.3381

>  <SCORE.INTER.VDW>
-17.145

>  <SCORE.INTER.norm>
-0.345941

>  <SCORE.INTRA>
-0.840791

>  <SCORE.INTRA.DIHEDRAL>
-0.336191

>  <SCORE.INTRA.DIHEDRAL.0>
3.94806

>  <SCORE.INTRA.POLAR>
0

>  <SCORE.INTRA.POLAR.0>
0

>  <SCORE.INTRA.REPUL>
0

>  <SCORE.INTRA.REPUL.0>
0

>  <SCORE.INTRA.SOLV>
-0.247555

>  <SCORE.INTRA.SOLV.lig_0>
-70.9803

>  <SCORE.INTRA.VDW>
-0.548918

>  <SCORE.INTRA.VDW.0>
-0.709409

>  <SCORE.INTRA.norm>
-0.0336316

>  <SCORE.RESTR>
0

>  <SCORE.RESTR.CAVITY>
0

>  <SCORE.RESTR.norm>
0

>  <SCORE.SYSTEM>
0

>  <SCORE.SYSTEM.CONST>
0

>  <SCORE.SYSTEM.DIHEDRAL>
0

>  <SCORE.SYSTEM.SOLV>
0

>  <SCORE.SYSTEM.norm>
0

>  <SCORE.heavy>
25

>  <SCORE.norm>
-0.379573

>  <RMSD>
4.885

$$$$
ligand
 OpenBabel11021811503D
libRbt.so/2013.1/901 2013/11/27
 25 27  0  0  0  0  0  0  0  0999 V2000
    7.3092  -24.3098   20.7091 N   0  0  0  0  0  0  0  0  0  0  0  0
    7.3033  -23.6825   21.9944 C   0  0  0  0  0  0  0  0  0  0  0  0
    8.3182  -23.6480   22.6790 O   0  0  0  0  0  0  0  0  0  0  0  0
    8.4482  -21.4857   26.8134 N   0  0  0  0  0  0  0  0  0  0  0  0
    6.2515  -20.5600   27.1010 N   0  0  0  0  0  0  0  0  0  0  0  0
    7.2872  -20.8502   26.2801 C   0  0  0  0  0  0  0  0  0  0  0  0
    7.2446  -20.5358   24.9505 N   0  0  0  0  0  0  0  0  0  0  0  0
    6.1700  -19.9257   24.3887 C   0  0  0  0  0  0  0  0  0  0  0  0
    5.0599  -19.6183   25.2114 C   0  0  0  0  0  0  0  0  0  0  0  0
    6.1810  -19.6455   23.0425 O   0  0  0  0  0  0  0  0  0  0  0  0
    3.8604  -17.8757   23.7891 C   0  0  0  0  0  0  0  0  0  0  0  0
    3.8535  -18.9460   24.7572 N   0  0  0  0  0  0  0  0  0  0  0  0
    4.5472  -16.8669   23.9089 O   0  0  0  0  0  0  0  0  0  0  0  0
    2.6768  -19.3368   25.4086 C   0  0  2  0  0  0  0  0  0  0  0  0
    2.8272  -19.1057   26.9342 C   0  0  0  0  0  0  0  0  0  0  0  0
    5.1351  -19.9399   26.6034 C   0  0  0  0  0  0  0  0  0  0  0  0
    4.0054  -19.6404   27.4876 N   0  0  0  0  0  0  0  0  0  0  0  0
    2.3587  -20.7904   25.1220 C   0  0  0  0  0  0  0  0  0  0  0  0
    2.4775  -21.2303   23.7594 N   0  0  0  0  0  0  0  0  0  0  0  0
    6.0424  -23.0551   22.4796 C   0  0  0  0  0  0  0  0  0  0  0  0
    5.6597  -23.1600   23.8098 C   0  0  0  0  0  0  0  0  0  0  0  0
    4.4780  -22.5626   24.2312 C   0  0  0  0  0  0  0  0  0  0  0  0
    3.6897  -21.8525   23.3279 C   0  0  0  0  0  0  0  0  0  0  0  0
    4.0808  -21.7416   22.0050 C   0  0  0  0  0  0  0  0  0  0  0  0
    5.2569  -22.3483   21.5807 C   0  0  0  0  0  0  0  0  0  0  0  0
  1  2  1  0  0  0  0
  2  3  2  0  0  0  0
  2 20  1  0  0  0  0
  4  6  1  0  0  0  0
  5  6  2  0  0  0  0
  5 16  1  0  0  0  0
  6  7  1  0  0  0  0
  7  8  1  0  0  0  0
  8  9  1  0  0  0  0
  8 10  2  0  0  0  0
  9 12  1  0  0  0  0
  9 16  2  0  0  0  0
 11 13  1  0  0  0  0
 11 12  1  0  0  0  0
 12 14  1  0  0  0  0
 14 15  1  0  0  0  0
 14 18  1  1  0  0  0
 15 17  1  0  0  0  0
 16 17  1  0  0  0  0
 18 19  1  0  0  0  0
 19 23  1  0  0  0  0
 20 21  2  0  0  0  0
 20 25  1  0  0  0  0
 21 22  1  0  0  0  0
 22 23  2  0  0  0  0
 23 24  1  0  0  0  0
 24 25  2  0  0  0  0
M  END
>  <CHROM.1>
-53.62472404,-45.07980261,95.43349627,28.67834016,140.69672895,5.23190881
-20.84520143,24.34637290,0.97820131,0.47765594,-2.17152171

>  <Name>
ligand

>  <RI>
0

>  <Rbt.Current_Directory>
/home/itssahil/PROJECTS/Mol_Feturizer/New_Systems/rnas/4LVV

>  <Rbt.Executable>
rbdock ($Id: //depot/dev/client3/rdock/2013.1/src/exe/rbdock.cxx#4 $)

>  <Rbt.Library>
libRbt.so (2013.1, Build901 2013/11/27)

>  <Rbt.Parameter_File>
/export/apps/rDock/src/rDock_2013.1_src/data/scripts/dock_solv.prm

>  <Rbt.Receptor>
prm/pocket_docking_6.prm

>  <SCORE>
-10.2267

>  <SCORE.INTER>
-7.30936

>  <SCORE.INTER.CONST>
1

>  <SCORE.INTER.POLAR>
0

>  <SCORE.INTER.ROT>
5

>  <SCORE.INTER.SOLV>
12.3878

>  <SCORE.INTER.VDW>
-15.9355

>  <SCORE.INTER.norm>
-0.292375

>  <SCORE.INTRA>
-2.91734

>  <SCORE.INTRA.DIHEDRAL>
0.860632

>  <SCORE.INTRA.DIHEDRAL.0>
3.94806

>  <SCORE.INTRA.POLAR>
0

>  <SCORE.INTRA.POLAR.0>
0

>  <SCORE.INTRA.REPUL>
0

>  <SCORE.INTRA.REPUL.0>
0

>  <SCORE.INTRA.SOLV>
0.95254

>  <SCORE.INTRA.SOLV.lig_0>
-70.9803

>  <SCORE.INTRA.VDW>
-3.82392

>  <SCORE.INTRA.VDW.0>
-0.709409

>  <SCORE.INTRA.norm>
-0.116693

>  <SCORE.RESTR>
0

>  <SCORE.RESTR.CAVITY>
0

>  <SCORE.RESTR.norm>
0

>  <SCORE.SYSTEM>
0

>  <SCORE.SYSTEM.CONST>
0

>  <SCORE.SYSTEM.DIHEDRAL>
0

>  <SCORE.SYSTEM.SOLV>
0

>  <SCORE.SYSTEM.norm>
0

>  <SCORE.heavy>
25

>  <SCORE.norm>
-0.409068

>  <RMSD>
4.890

$$$$
ligand
 OpenBabel11021811503D
libRbt.so/2013.1/901 2013/11/27
 25 27  0  0  0  0  0  0  0  0999 V2000
    7.0497  -24.6402   19.6604 N   0  0  0  0  0  0  0  0  0  0  0  0
    6.7134  -23.3216   20.1003 C   0  0  0  0  0  0  0  0  0  0  0  0
    6.8498  -22.3590   19.3553 O   0  0  0  0  0  0  0  0  0  0  0  0
    5.2371  -16.3659   22.1596 N   0  0  0  0  0  0  0  0  0  0  0  0
    4.5814  -17.4098   24.2201 N   0  0  0  0  0  0  0  0  0  0  0  0
    4.5930  -17.4245   22.8671 C   0  0  0  0  0  0  0  0  0  0  0  0
    3.9894  -18.4310   22.1663 N   0  0  0  0  0  0  0  0  0  0  0  0
    3.3566  -19.4603   22.7847 C   0  0  0  0  0  0  0  0  0  0  0  0
    3.3347  -19.4888   24.1997 C   0  0  0  0  0  0  0  0  0  0  0  0
    2.7780  -20.4501   22.0254 O   0  0  0  0  0  0  0  0  0  0  0  0
    1.4174  -21.1127   24.6301 C   0  0  0  0  0  0  0  0  0  0  0  0
    2.6765  -20.5107   24.9974 N   0  0  0  0  0  0  0  0  0  0  0  0
    1.3334  -22.1616   24.0002 O   0  0  0  0  0  0  0  0  0  0  0  0
    3.2987  -20.8012   26.2181 C   0  0  2  0  0  0  0  0  0  0  0  0
    3.4087  -19.5073   27.0650 C   0  0  0  0  0  0  0  0  0  0  0  0
    3.9568  -18.4149   24.9114 C   0  0  0  0  0  0  0  0  0  0  0  0
    3.9581  -18.4095   26.3769 N   0  0  0  0  0  0  0  0  0  0  0  0
    4.6700  -21.4057   25.9942 C   0  0  0  0  0  0  0  0  0  0  0  0
    4.7204  -22.7122   25.3987 N   0  0  0  0  0  0  0  0  0  0  0  0
    6.1767  -23.1409   21.4780 C   0  0  0  0  0  0  0  0  0  0  0  0
    5.0789  -22.3250   21.7144 C   0  0  0  0  0  0  0  0  0  0  0  0
    4.6019  -22.1780   23.0113 C   0  0  0  0  0  0  0  0  0  0  0  0
    5.2131  -22.8550   24.0647 C   0  0  0  0  0  0  0  0  0  0  0  0
    6.3007  -23.6759   23.8226 C   0  0  0  0  0  0  0  0  0  0  0  0
    6.7849  -23.8144   22.5274 C   0  0  0  0  0  0  0  0  0  0  0  0
  1  2  1  0  0  0  0
  2  3  2  0  0  0  0
  2 20  1  0  0  0  0
  4  6  1  0  0  0  0
  5  6  2  0  0  0  0
  5 16  1  0  0  0  0
  6  7  1  0  0  0  0
  7  8  1  0  0  0  0
  8  9  1  0  0  0  0
  8 10  2  0  0  0  0
  9 12  1  0  0  0  0
  9 16  2  0  0  0  0
 11 13  1  0  0  0  0
 11 12  1  0  0  0  0
 12 14  1  0  0  0  0
 14 15  1  0  0  0  0
 14 18  1  6  0  0  0
 15 17  1  0  0  0  0
 16 17  1  0  0  0  0
 18 19  1  0  0  0  0
 19 23  1  0  0  0  0
 20 21  2  0  0  0  0
 20 25  1  0  0  0  0
 21 22  1  0  0  0  0
 22 23  2  0  0  0  0
 23 24  1  0  0  0  0
 24 25  2  0  0  0  0
M  END
>  <CHROM.1>
94.11016511,-67.42219586,110.08448769,-58.61842744,-135.14575140,4.43086894
-20.87150532,23.43022546,-0.47421127,1.04769234,-0.28483348

>  <Name>
ligand

>  <RI>
0

>  <Rbt.Current_Directory>
/home/itssahil/PROJECTS/Mol_Feturizer/New_Systems/rnas/4LVV

>  <Rbt.Executable>
rbdock ($Id: //depot/dev/client3/rdock/2013.1/src/exe/rbdock.cxx#4 $)

>  <Rbt.Library>
libRbt.so (2013.1, Build901 2013/11/27)

>  <Rbt.Parameter_File>
/export/apps/rDock/src/rDock_2013.1_src/data/scripts/dock_solv.prm

>  <Rbt.Receptor>
prm/pocket_docking_6.prm

>  <SCORE>
-13.6303

>  <SCORE.INTER>
-12.2584

>  <SCORE.INTER.CONST>
1

>  <SCORE.INTER.POLAR>
0

>  <SCORE.INTER.ROT>
5

>  <SCORE.INTER.SOLV>
16.2583

>  <SCORE.INTER.VDW>
-20.525

>  <SCORE.INTER.norm>
-0.490336

>  <SCORE.INTRA>
-1.37191

>  <SCORE.INTRA.DIHEDRAL>
0.80891

>  <SCORE.INTRA.DIHEDRAL.0>
3.94806

>  <SCORE.INTRA.POLAR>
0

>  <SCORE.INTRA.POLAR.0>
0

>  <SCORE.INTRA.REPUL>
0

>  <SCORE.INTRA.REPUL.0>
0

>  <SCORE.INTRA.SOLV>
0.840408

>  <SCORE.INTRA.SOLV.lig_0>
-70.9803

>  <SCORE.INTRA.VDW>
-2.19657

>  <SCORE.INTRA.VDW.0>
-0.709409

>  <SCORE.INTRA.norm>
-0.0548764

>  <SCORE.RESTR>
0

>  <SCORE.RESTR.CAVITY>
0

>  <SCORE.RESTR.norm>
0

>  <SCORE.SYSTEM>
0

>  <SCORE.SYSTEM.CONST>
0

>  <SCORE.SYSTEM.DIHEDRAL>
0

>  <SCORE.SYSTEM.SOLV>
0

>  <SCORE.SYSTEM.norm>
0

>  <SCORE.heavy>
25

>  <SCORE.norm>
-0.545213

>  <RMSD>
4.891

$$$$
ligand
 OpenBabel11021811503D
libRbt.so/2013.1/901 2013/11/27
 25 27  0  0  0  0  0  0  0  0999 V2000
    9.0759  -23.5517   20.7229 N   0  0  0  0  0  0  0  0  0  0  0  0
    7.7008  -23.9310   20.6194 C   0  0  0  0  0  0  0  0  0  0  0  0
    7.3140  -24.6379   19.6971 O   0  0  0  0  0  0  0  0  0  0  0  0
    7.1015  -16.1048   26.4366 N   0  0  0  0  0  0  0  0  0  0  0  0
    6.1595  -18.0952   27.3938 N   0  0  0  0  0  0  0  0  0  0  0  0
    6.1003  -17.1213   26.4563 C   0  0  0  0  0  0  0  0  0  0  0  0
    5.0918  -17.0887   25.5342 N   0  0  0  0  0  0  0  0  0  0  0  0
    4.1091  -18.0247   25.5081 C   0  0  0  0  0  0  0  0  0  0  0  0
    4.1435  -19.0685   26.4635 C   0  0  0  0  0  0  0  0  0  0  0  0
    3.1277  -17.9455   24.5481 O   0  0  0  0  0  0  0  0  0  0  0  0
    1.7382  -19.9068   26.3640 C   0  0  0  0  0  0  0  0  0  0  0  0
    3.1495  -20.1237   26.5733 N   0  0  0  0  0  0  0  0  0  0  0  0
    1.0343  -19.2713   27.1415 O   0  0  0  0  0  0  0  0  0  0  0  0
    3.6440  -21.3603   27.0068 C   0  0  2  0  0  0  0  0  0  0  0  0
    4.3368  -21.1883   28.3830 C   0  0  0  0  0  0  0  0  0  0  0  0
    5.1980  -19.0712   27.4303 C   0  0  0  0  0  0  0  0  0  0  0  0
    5.2702  -20.1365   28.4342 N   0  0  0  0  0  0  0  0  0  0  0  0
    4.6125  -21.9388   25.9950 C   0  0  0  0  0  0  0  0  0  0  0  0
    4.0991  -22.2178   24.6825 N   0  0  0  0  0  0  0  0  0  0  0  0
    6.7480  -23.4643   21.6649 C   0  0  0  0  0  0  0  0  0  0  0  0
    5.6792  -22.6406   21.3393 C   0  0  0  0  0  0  0  0  0  0  0  0
    4.8077  -22.2231   22.3379 C   0  0  0  0  0  0  0  0  0  0  0  0
    4.9979  -22.6389   23.6542 C   0  0  0  0  0  0  0  0  0  0  0  0
    6.0587  -23.4689   23.9722 C   0  0  0  0  0  0  0  0  0  0  0  0
    6.9370  -23.8776   22.9758 C   0  0  0  0  0  0  0  0  0  0  0  0
  1  2  1  0  0  0  0
  2  3  2  0  0  0  0
  2 20  1  0  0  0  0
  4  6  1  0  0  0  0
  5  6  2  0  0  0  0
  5 16  1  0  0  0  0
  6  7  1  0  0  0  0
  7  8  1  0  0  0  0
  8  9  1  0  0  0  0
  8 10  2  0  0  0  0
  9 12  1  0  0  0  0
  9 16  2  0  0  0  0
 11 13  1  0  0  0  0
 11 12  1  0  0  0  0
 12 14  1  0  0  0  0
 14 15  1  0  0  0  0
 14 18  1  6  0  0  0
 15 17  1  0  0  0  0
 16 17  1  0  0  0  0
 18 19  1  0  0  0  0
 19 23  1  0  0  0  0
 20 21  2  0  0  0  0
 20 25  1  0  0  0  0
 21 22  1  0  0  0  0
 22 23  2  0  0  0  0
 23 24  1  0  0  0  0
 24 25  2  0  0  0  0
M  END
>  <CHROM.1>
-70.29349514,-61.27872344,173.87120666,-143.69102503,117.97265032,5.07386073
-20.71686544,24.89408241,-1.11988325,0.59806034,0.56886320

>  <Name>
ligand

>  <RI>
0

>  <Rbt.Current_Directory>
/home/itssahil/PROJECTS/Mol_Feturizer/New_Systems/rnas/4LVV

>  <Rbt.Executable>
rbdock ($Id: //depot/dev/client3/rdock/2013.1/src/exe/rbdock.cxx#4 $)

>  <Rbt.Library>
libRbt.so (2013.1, Build901 2013/11/27)

>  <Rbt.Parameter_File>
/export/apps/rDock/src/rDock_2013.1_src/data/scripts/dock_solv.prm

>  <Rbt.Receptor>
prm/pocket_docking_6.prm

>  <SCORE>
-12.2661

>  <SCORE.INTER>
-11.1115

>  <SCORE.INTER.CONST>
1

>  <SCORE.INTER.POLAR>
0

>  <SCORE.INTER.ROT>
5

>  <SCORE.INTER.SOLV>
14.6724

>  <SCORE.INTER.VDW>
-19.2318

>  <SCORE.INTER.norm>
-0.444458

>  <SCORE.INTRA>
-1.15463

>  <SCORE.INTRA.DIHEDRAL>
-0.755518

>  <SCORE.INTRA.DIHEDRAL.0>
3.94806

>  <SCORE.INTRA.POLAR>
0

>  <SCORE.INTRA.POLAR.0>
0

>  <SCORE.INTRA.REPUL>
0

>  <SCORE.INTRA.REPUL.0>
0

>  <SCORE.INTRA.SOLV>
-0.0927431

>  <SCORE.INTRA.SOLV.lig_0>
-70.9803

>  <SCORE.INTRA.VDW>
-0.730496

>  <SCORE.INTRA.VDW.0>
-0.709409

>  <SCORE.INTRA.norm>
-0.0461851

>  <SCORE.RESTR>
0

>  <SCORE.RESTR.CAVITY>
0

>  <SCORE.RESTR.norm>
0

>  <SCORE.SYSTEM>
0

>  <SCORE.SYSTEM.CONST>
0

>  <SCORE.SYSTEM.DIHEDRAL>
0

>  <SCORE.SYSTEM.SOLV>
0

>  <SCORE.SYSTEM.norm>
0

>  <SCORE.heavy>
25

>  <SCORE.norm>
-0.490644

>  <RMSD>
4.899

$$$$
ligand
 OpenBabel11021811503D
libRbt.so/2013.1/901 2013/11/27
 25 27  0  0  0  0  0  0  0  0999 V2000
    7.0689  -23.8286   19.5399 N   0  0  0  0  0  0  0  0  0  0  0  0
    7.6412  -23.5579   20.8223 C   0  0  0  0  0  0  0  0  0  0  0  0
    8.8564  -23.5360   20.9737 O   0  0  0  0  0  0  0  0  0  0  0  0
    7.0903  -16.3145   26.4269 N   0  0  0  0  0  0  0  0  0  0  0  0
    6.2871  -18.2665   27.5714 N   0  0  0  0  0  0  0  0  0  0  0  0
    6.1305  -17.3593   26.5798 C   0  0  0  0  0  0  0  0  0  0  0  0
    5.0630  -17.4205   25.7283 N   0  0  0  0  0  0  0  0  0  0  0  0
    4.1156  -18.3874   25.8291 C   0  0  0  0  0  0  0  0  0  0  0  0
    4.2512  -19.3639   26.8448 C   0  0  0  0  0  0  0  0  0  0  0  0
    3.0708  -18.4038   24.9352 O   0  0  0  0  0  0  0  0  0  0  0  0
    1.8769  -20.2842   26.9633 C   0  0  0  0  0  0  0  0  0  0  0  0
    3.3059  -20.4410   27.0894 N   0  0  0  0  0  0  0  0  0  0  0  0
    1.3259  -19.1914   26.8861 O   0  0  0  0  0  0  0  0  0  0  0  0
    3.8729  -21.6296   27.5665 C   0  0  2  0  0  0  0  0  0  0  0  0
    4.6482  -21.3444   28.8785 C   0  0  0  0  0  0  0  0  0  0  0  0
    5.3665  -19.2684   27.7358 C   0  0  0  0  0  0  0  0  0  0  0  0
    5.5437  -20.2619   28.7984 N   0  0  0  0  0  0  0  0  0  0  0  0
    4.7932  -22.2423   26.5301 C   0  0  0  0  0  0  0  0  0  0  0  0
    4.2122  -22.5922   25.2636 N   0  0  0  0  0  0  0  0  0  0  0  0
    6.7315  -23.2855   21.9699 C   0  0  0  0  0  0  0  0  0  0  0  0
    5.5990  -22.4988   21.8110 C   0  0  0  0  0  0  0  0  0  0  0  0
    4.7700  -22.2641   22.9013 C   0  0  0  0  0  0  0  0  0  0  0  0
    5.0666  -22.8251   24.1419 C   0  0  0  0  0  0  0  0  0  0  0  0
    6.1911  -23.6176   24.2929 C   0  0  0  0  0  0  0  0  0  0  0  0
    7.0264  -23.8434   23.2054 C   0  0  0  0  0  0  0  0  0  0  0  0
  1  2  1  0  0  0  0
  2  3  2  0  0  0  0
  2 20  1  0  0  0  0
  4  6  1  0  0  0  0
  5  6  2  0  0  0  0
  5 16  1  0  0  0  0
  6  7  1  0  0  0  0
  7  8  1  0  0  0  0
  8  9  1  0  0  0  0
  8 10  2  0  0  0  0
  9 12  1  0  0  0  0
  9 16  2  0  0  0  0
 11 13  1  0  0  0  0
 11 12  1  0  0  0  0
 12 14  1  0  0  0  0
 14 15  1  0  0  0  0
 14 18  1  6  0  0  0
 15 17  1  0  0  0  0
 16 17  1  0  0  0  0
 18 19  1  0  0  0  0
 19 23  1  0  0  0  0
 20 21  2  0  0  0  0
 20 25  1  0  0  0  0
 21 22  1  0  0  0  0
 22 23  2  0  0  0  0
 23 24  1  0  0  0  0
 24 25  2  0  0  0  0
M  END
>  <CHROM.1>
-14.00710335,-59.70894725,163.09898066,-134.28388759,-40.83695071,5.15157403
-20.83053695,25.21286026,-1.06192756,0.74125578,0.54063220

>  <Name>
ligand

>  <RI>
0

>  <Rbt.Current_Directory>
/home/itssahil/PROJECTS/Mol_Feturizer/New_Systems/rnas/4LVV

>  <Rbt.Executable>
rbdock ($Id: //depot/dev/client3/rdock/2013.1/src/exe/rbdock.cxx#4 $)

>  <Rbt.Library>
libRbt.so (2013.1, Build901 2013/11/27)

>  <Rbt.Parameter_File>
/export/apps/rDock/src/rDock_2013.1_src/data/scripts/dock_solv.prm

>  <Rbt.Receptor>
prm/pocket_docking_8.prm

>  <SCORE>
-12.7616

>  <SCORE.INTER>
-11.8445

>  <SCORE.INTER.CONST>
1

>  <SCORE.INTER.POLAR>
0

>  <SCORE.INTER.ROT>
5

>  <SCORE.INTER.SOLV>
15.2153

>  <SCORE.INTER.VDW>
-19.9015

>  <SCORE.INTER.norm>
-0.473781

>  <SCORE.INTRA>
-0.917065

>  <SCORE.INTRA.DIHEDRAL>
-0.322113

>  <SCORE.INTRA.DIHEDRAL.0>
3.94806

>  <SCORE.INTRA.POLAR>
0

>  <SCORE.INTRA.POLAR.0>
0

>  <SCORE.INTRA.REPUL>
0

>  <SCORE.INTRA.REPUL.0>
0

>  <SCORE.INTRA.SOLV>
0.154319

>  <SCORE.INTRA.SOLV.lig_0>
-70.9803

>  <SCORE.INTRA.VDW>
-0.833168

>  <SCORE.INTRA.VDW.0>
-0.709409

>  <SCORE.INTRA.norm>
-0.0366826

>  <SCORE.RESTR>
0

>  <SCORE.RESTR.CAVITY>
0

>  <SCORE.RESTR.norm>
0

>  <SCORE.SYSTEM>
0

>  <SCORE.SYSTEM.CONST>
0

>  <SCORE.SYSTEM.DIHEDRAL>
0

>  <SCORE.SYSTEM.SOLV>
0

>  <SCORE.SYSTEM.norm>
0

>  <SCORE.heavy>
25

>  <SCORE.norm>
-0.510463

>  <RMSD>
4.932

$$$$
ligand
 OpenBabel11021811503D
libRbt.so/2013.1/901 2013/11/27
 25 27  0  0  0  0  0  0  0  0999 V2000
    8.8058  -23.0154   20.6790 N   0  0  0  0  0  0  0  0  0  0  0  0
    7.4086  -23.3119   20.6066 C   0  0  0  0  0  0  0  0  0  0  0  0
    6.9056  -23.7070   19.5621 O   0  0  0  0  0  0  0  0  0  0  0  0
    7.0479  -16.2606   26.3157 N   0  0  0  0  0  0  0  0  0  0  0  0
    6.2781  -18.2143   27.4801 N   0  0  0  0  0  0  0  0  0  0  0  0
    6.0976  -17.3109   26.4891 C   0  0  0  0  0  0  0  0  0  0  0  0
    5.0149  -17.3810   25.6576 N   0  0  0  0  0  0  0  0  0  0  0  0
    4.0757  -18.3535   25.7786 C   0  0  0  0  0  0  0  0  0  0  0  0
    4.2360  -19.3263   26.7942 C   0  0  0  0  0  0  0  0  0  0  0  0
    3.0147  -18.3788   24.9042 O   0  0  0  0  0  0  0  0  0  0  0  0
    1.8701  -20.2609   26.9590 C   0  0  0  0  0  0  0  0  0  0  0  0
    3.3022  -20.4086   27.0592 N   0  0  0  0  0  0  0  0  0  0  0  0
    1.3153  -19.1760   26.8206 O   0  0  0  0  0  0  0  0  0  0  0  0
    3.8853  -21.5923   27.5288 C   0  0  2  0  0  0  0  0  0  0  0  0
    4.6828  -21.2986   28.8255 C   0  0  0  0  0  0  0  0  0  0  0  0
    5.3670  -19.2215   27.6641 C   0  0  0  0  0  0  0  0  0  0  0  0
    5.5700  -20.2108   28.7260 N   0  0  0  0  0  0  0  0  0  0  0  0
    4.7900  -22.2022   26.4773 C   0  0  0  0  0  0  0  0  0  0  0  0
    4.1783  -22.6060   25.2416 N   0  0  0  0  0  0  0  0  0  0  0  0
    6.5768  -23.1480   21.8314 C   0  0  0  0  0  0  0  0  0  0  0  0
    6.9258  -23.7749   23.0197 C   0  0  0  0  0  0  0  0  0  0  0  0
    6.1293  -23.6012   24.1449 C   0  0  0  0  0  0  0  0  0  0  0  0
    4.9957  -22.7931   24.0842 C   0  0  0  0  0  0  0  0  0  0  0  0
    4.6577  -22.1615   22.9001 C   0  0  0  0  0  0  0  0  0  0  0  0
    5.4479  -22.3438   21.7716 C   0  0  0  0  0  0  0  0  0  0  0  0
  1  2  1  0  0  0  0
  2  3  2  0  0  0  0
  2 20  1  0  0  0  0
  4  6  1  0  0  0  0
  5  6  2  0  0  0  0
  5 16  1  0  0  0  0
  6  7  1  0  0  0  0
  7  8  1  0  0  0  0
  8  9  1  0  0  0  0
  8 10  2  0  0  0  0
  9 12  1  0  0  0  0
  9 16  2  0  0  0  0
 11 13  1  0  0  0  0
 11 12  1  0  0  0  0
 12 14  1  0  0  0  0
 14 15  1  0  0  0  0
 14 18  1  6  0  0  0
 15 17  1  0  0  0  0
 16 17  1  0  0  0  0
 18 19  1  0  0  0  0
 19 23  1  0  0  0  0
 20 21  2  0  0  0  0
 20 25  1  0  0  0  0
 21 22  1  0  0  0  0
 22 23  2  0  0  0  0
 23 24  1  0  0  0  0
 24 25  2  0  0  0  0
M  END
>  <CHROM.1>
-10.16495021,-62.00997736,160.80251973,51.45301246,-53.96319445,5.08956766
-20.75419029,25.12767847,-1.06938058,0.78752397,0.55875465

>  <Name>
ligand

>  <RI>
0

>  <Rbt.Current_Directory>
/home/itssahil/PROJECTS/Mol_Feturizer/New_Systems/rnas/4LVV

>  <Rbt.Executable>
rbdock ($Id: //depot/dev/client3/rdock/2013.1/src/exe/rbdock.cxx#4 $)

>  <Rbt.Library>
libRbt.so (2013.1, Build901 2013/11/27)

>  <Rbt.Parameter_File>
/export/apps/rDock/src/rDock_2013.1_src/data/scripts/dock_solv.prm

>  <Rbt.Receptor>
prm/pocket_docking_6.prm

>  <SCORE>
-12.8441

>  <SCORE.INTER>
-11.7935

>  <SCORE.INTER.CONST>
1

>  <SCORE.INTER.POLAR>
0

>  <SCORE.INTER.ROT>
5

>  <SCORE.INTER.SOLV>
14.7801

>  <SCORE.INTER.VDW>
-19.7224

>  <SCORE.INTER.norm>
-0.47174

>  <SCORE.INTRA>
-1.05064

>  <SCORE.INTRA.DIHEDRAL>
-0.286703

>  <SCORE.INTRA.DIHEDRAL.0>
3.94806

>  <SCORE.INTRA.POLAR>
0

>  <SCORE.INTRA.POLAR.0>
0

>  <SCORE.INTRA.REPUL>
0

>  <SCORE.INTRA.REPUL.0>
0

>  <SCORE.INTRA.SOLV>
0.130774

>  <SCORE.INTRA.SOLV.lig_0>
-70.9803

>  <SCORE.INTRA.VDW>
-0.972678

>  <SCORE.INTRA.VDW.0>
-0.709409

>  <SCORE.INTRA.norm>
-0.0420257

>  <SCORE.RESTR>
0

>  <SCORE.RESTR.CAVITY>
0

>  <SCORE.RESTR.norm>
0

>  <SCORE.SYSTEM>
0

>  <SCORE.SYSTEM.CONST>
0

>  <SCORE.SYSTEM.DIHEDRAL>
0

>  <SCORE.SYSTEM.SOLV>
0

>  <SCORE.SYSTEM.norm>
0

>  <SCORE.heavy>
25

>  <SCORE.norm>
-0.513766

>  <RMSD>
4.936

$$$$
ligand
 OpenBabel11021811503D
libRbt.so/2013.1/901 2013/11/27
 25 27  0  0  0  0  0  0  0  0999 V2000
    7.3777  -24.5123   20.9374 N   0  0  0  0  0  0  0  0  0  0  0  0
    7.3296  -23.2111   21.5290 C   0  0  0  0  0  0  0  0  0  0  0  0
    8.3232  -22.4953   21.5491 O   0  0  0  0  0  0  0  0  0  0  0  0
    8.4495  -21.1765   27.1999 N   0  0  0  0  0  0  0  0  0  0  0  0
    6.1970  -20.3519   27.3077 N   0  0  0  0  0  0  0  0  0  0  0  0
    7.2873  -20.6476   26.5629 C   0  0  0  0  0  0  0  0  0  0  0  0
    7.2981  -20.4387   25.2121 N   0  0  0  0  0  0  0  0  0  0  0  0
    6.2248  -19.9327   24.5529 C   0  0  0  0  0  0  0  0  0  0  0  0
    5.0594  -19.6238   25.2945 C   0  0  0  0  0  0  0  0  0  0  0  0
    6.2917  -19.7563   23.1908 O   0  0  0  0  0  0  0  0  0  0  0  0
    3.8494  -18.0629   23.6827 C   0  0  0  0  0  0  0  0  0  0  0  0
    3.8460  -19.0547   24.7311 N   0  0  0  0  0  0  0  0  0  0  0  0
    3.8018  -18.3464   22.4906 O   0  0  0  0  0  0  0  0  0  0  0  0
    2.6581  -19.4576   25.3543 C   0  0  2  0  0  0  0  0  0  0  0  0
    2.7172  -19.1025   26.8623 C   0  0  0  0  0  0  0  0  0  0  0  0
    5.0782  -19.8332   26.7096 C   0  0  0  0  0  0  0  0  0  0  0  0
    3.8904  -19.5285   27.5121 N   0  0  0  0  0  0  0  0  0  0  0  0
    2.4289  -20.9440   25.1689 C   0  0  0  0  0  0  0  0  0  0  0  0
    2.4271  -21.4431   23.8217 N   0  0  0  0  0  0  0  0  0  0  0  0
    6.0421  -22.7336   22.1062 C   0  0  0  0  0  0  0  0  0  0  0  0
    5.1049  -22.0814   21.3168 C   0  0  0  0  0  0  0  0  0  0  0  0
    3.9131  -21.6489   21.8854 C   0  0  0  0  0  0  0  0  0  0  0  0
    3.6552  -21.8798   23.2352 C   0  0  0  0  0  0  0  0  0  0  0  0
    4.5880  -22.5399   24.0158 C   0  0  0  0  0  0  0  0  0  0  0  0
    5.7848  -22.9628   23.4501 C   0  0  0  0  0  0  0  0  0  0  0  0
  1  2  1  0  0  0  0
  2  3  2  0  0  0  0
  2 20  1  0  0  0  0
  4  6  1  0  0  0  0
  5  6  2  0  0  0  0
  5 16  1  0  0  0  0
  6  7  1  0  0  0  0
  7  8  1  0  0  0  0
  8  9  1  0  0  0  0
  8 10  2  0  0  0  0
  9 12  1  0  0  0  0
  9 16  2  0  0  0  0
 11 13  1  0  0  0  0
 11 12  1  0  0  0  0
 12 14  1  0  0  0  0
 14 15  1  0  0  0  0
 14 18  1  1  0  0  0
 15 17  1  0  0  0  0
 16 17  1  0  0  0  0
 18 19  1  0  0  0  0
 19 23  1  0  0  0  0
 20 21  2  0  0  0  0
 20 25  1  0  0  0  0
 21 22  1  0  0  0  0
 22 23  2  0  0  0  0
 23 24  1  0  0  0  0
 24 25  2  0  0  0  0
M  END
>  <CHROM.1>
91.50343760,-54.89025669,89.75514690,-143.26860967,-87.54638168,5.19098282
-20.81746134,24.22639305,-1.04488310,-0.39682485,1.10790527

>  <Name>
ligand

>  <RI>
0

>  <Rbt.Current_Directory>
/home/itssahil/PROJECTS/Mol_Feturizer/New_Systems/rnas/4LVV

>  <Rbt.Executable>
rbdock ($Id: //depot/dev/client3/rdock/2013.1/src/exe/rbdock.cxx#4 $)

>  <Rbt.Library>
libRbt.so (2013.1, Build901 2013/11/27)

>  <Rbt.Parameter_File>
/export/apps/rDock/src/rDock_2013.1_src/data/scripts/dock_solv.prm

>  <Rbt.Receptor>
prm/pocket_docking_5.prm

>  <SCORE>
-9.57903

>  <SCORE.INTER>
-6.29799

>  <SCORE.INTER.CONST>
1

>  <SCORE.INTER.POLAR>
0

>  <SCORE.INTER.ROT>
5

>  <SCORE.INTER.SOLV>
11.0819

>  <SCORE.INTER.VDW>
-14.826

>  <SCORE.INTER.norm>
-0.25192

>  <SCORE.INTRA>
-3.28103

>  <SCORE.INTRA.DIHEDRAL>
0.134067

>  <SCORE.INTRA.DIHEDRAL.0>
3.94806

>  <SCORE.INTRA.POLAR>
0

>  <SCORE.INTRA.POLAR.0>
0

>  <SCORE.INTRA.REPUL>
0

>  <SCORE.INTRA.REPUL.0>
0

>  <SCORE.INTRA.SOLV>
1.53567

>  <SCORE.INTRA.SOLV.lig_0>
-70.9803

>  <SCORE.INTRA.VDW>
-4.1159

>  <SCORE.INTRA.VDW.0>
-0.709409

>  <SCORE.INTRA.norm>
-0.131241

>  <SCORE.RESTR>
0

>  <SCORE.RESTR.CAVITY>
0

>  <SCORE.RESTR.norm>
0

>  <SCORE.SYSTEM>
0

>  <SCORE.SYSTEM.CONST>
0

>  <SCORE.SYSTEM.DIHEDRAL>
0

>  <SCORE.SYSTEM.SOLV>
0

>  <SCORE.SYSTEM.norm>
0

>  <SCORE.heavy>
25

>  <SCORE.norm>
-0.383161

>  <RMSD>
4.949

$$$$
ligand
 OpenBabel11021811503D
libRbt.so/2013.1/901 2013/11/27
 25 27  0  0  0  0  0  0  0  0999 V2000
    8.7718  -22.8155   20.6572 N   0  0  0  0  0  0  0  0  0  0  0  0
    7.4147  -23.2630   20.6005 C   0  0  0  0  0  0  0  0  0  0  0  0
    6.9733  -23.7975   19.5907 O   0  0  0  0  0  0  0  0  0  0  0  0
    7.1439  -16.3243   26.4110 N   0  0  0  0  0  0  0  0  0  0  0  0
    6.3122  -18.2748   27.5375 N   0  0  0  0  0  0  0  0  0  0  0  0
    6.1696  -17.3570   26.5536 C   0  0  0  0  0  0  0  0  0  0  0  0
    5.1025  -17.3961   25.7002 N   0  0  0  0  0  0  0  0  0  0  0  0
    4.1418  -18.3506   25.7914 C   0  0  0  0  0  0  0  0  0  0  0  0
    4.2624  -19.3377   26.7988 C   0  0  0  0  0  0  0  0  0  0  0  0
    3.0981  -18.3448   24.8960 O   0  0  0  0  0  0  0  0  0  0  0  0
    1.8754  -20.2260   26.9062 C   0  0  0  0  0  0  0  0  0  0  0  0
    3.3020  -20.4037   27.0328 N   0  0  0  0  0  0  0  0  0  0  0  0
    1.3370  -19.1249   26.8677 O   0  0  0  0  0  0  0  0  0  0  0  0
    3.8518  -21.6041   27.5003 C   0  0  2  0  0  0  0  0  0  0  0  0
    4.6290  -21.3410   28.8157 C   0  0  0  0  0  0  0  0  0  0  0  0
    5.3776  -19.2653   27.6920 C   0  0  0  0  0  0  0  0  0  0  0  0
    5.5396  -20.2703   28.7462 N   0  0  0  0  0  0  0  0  0  0  0  0
    4.7650  -22.2204   26.4599 C   0  0  0  0  0  0  0  0  0  0  0  0
    4.1591  -22.6546   25.2316 N   0  0  0  0  0  0  0  0  0  0  0  0
    6.5500  -23.0828   21.7999 C   0  0  0  0  0  0  0  0  0  0  0  0
    5.4187  -22.2801   21.7494 C   0  0  0  0  0  0  0  0  0  0  0  0
    4.6323  -22.1333   22.8856 C   0  0  0  0  0  0  0  0  0  0  0  0
    4.9699  -22.7973   24.0633 C   0  0  0  0  0  0  0  0  0  0  0  0
    6.0929  -23.6050   24.1058 C   0  0  0  0  0  0  0  0  0  0  0  0
    6.8857  -23.7434   22.9728 C   0  0  0  0  0  0  0  0  0  0  0  0
  1  2  1  0  0  0  0
  2  3  2  0  0  0  0
  2 20  1  0  0  0  0
  4  6  1  0  0  0  0
  5  6  2  0  0  0  0
  5 16  1  0  0  0  0
  6  7  1  0  0  0  0
  7  8  1  0  0  0  0
  8  9  1  0  0  0  0
  8 10  2  0  0  0  0
  9 12  1  0  0  0  0
  9 16  2  0  0  0  0
 11 13  1  0  0  0  0
 11 12  1  0  0  0  0
 12 14  1  0  0  0  0
 14 15  1  0  0  0  0
 14 18  1  6  0  0  0
 15 17  1  0  0  0  0
 16 17  1  0  0  0  0
 18 19  1  0  0  0  0
 19 23  1  0  0  0  0
 20 21  2  0  0  0  0
 20 25  1  0  0  0  0
 21 22  1  0  0  0  0
 22 23  2  0  0  0  0
 23 24  1  0  0  0  0
 24 25  2  0  0  0  0
M  END
>  <CHROM.1>
-15.68802462,-64.80398132,158.18874369,-125.13933223,117.45631482,5.09899161
-20.75306429,25.13049052,-1.08623364,0.76958069,0.58768258

>  <Name>
ligand

>  <RI>
0

>  <Rbt.Current_Directory>
/home/itssahil/PROJECTS/Mol_Feturizer/New_Systems/rnas/4LVV

>  <Rbt.Executable>
rbdock ($Id: //depot/dev/client3/rdock/2013.1/src/exe/rbdock.cxx#4 $)

>  <Rbt.Library>
libRbt.so (2013.1, Build901 2013/11/27)

>  <Rbt.Parameter_File>
/export/apps/rDock/src/rDock_2013.1_src/data/scripts/dock_solv.prm

>  <Rbt.Receptor>
prm/pocket_docking_8.prm

>  <SCORE>
-12.9281

>  <SCORE.INTER>
-11.7999

>  <SCORE.INTER.CONST>
1

>  <SCORE.INTER.POLAR>
0

>  <SCORE.INTER.ROT>
5

>  <SCORE.INTER.SOLV>
14.4798

>  <SCORE.INTER.VDW>
-19.6265

>  <SCORE.INTER.norm>
-0.471995

>  <SCORE.INTRA>
-1.12824

>  <SCORE.INTRA.DIHEDRAL>
-0.119092

>  <SCORE.INTRA.DIHEDRAL.0>
3.94806

>  <SCORE.INTRA.POLAR>
0

>  <SCORE.INTRA.POLAR.0>
0

>  <SCORE.INTRA.REPUL>
0

>  <SCORE.INTRA.REPUL.0>
0

>  <SCORE.INTRA.SOLV>
0.0713272

>  <SCORE.INTRA.SOLV.lig_0>
-70.9803

>  <SCORE.INTRA.VDW>
-1.10436

>  <SCORE.INTRA.VDW.0>
-0.709409

>  <SCORE.INTRA.norm>
-0.0451298

>  <SCORE.RESTR>
0

>  <SCORE.RESTR.CAVITY>
0

>  <SCORE.RESTR.norm>
0

>  <SCORE.SYSTEM>
0

>  <SCORE.SYSTEM.CONST>
0

>  <SCORE.SYSTEM.DIHEDRAL>
0

>  <SCORE.SYSTEM.SOLV>
0

>  <SCORE.SYSTEM.norm>
0

>  <SCORE.heavy>
25

>  <SCORE.norm>
-0.517125

>  <RMSD>
4.951

$$$$
ligand
 OpenBabel11021811503D
libRbt.so/2013.1/901 2013/11/27
 25 27  0  0  0  0  0  0  0  0999 V2000
    7.9626  -22.4061   19.8766 N   0  0  0  0  0  0  0  0  0  0  0  0
    7.4850  -23.5156   20.6424 C   0  0  0  0  0  0  0  0  0  0  0  0
    7.7992  -24.6619   20.3470 O   0  0  0  0  0  0  0  0  0  0  0  0
    7.0823  -16.2400   26.3674 N   0  0  0  0  0  0  0  0  0  0  0  0
    6.3030  -18.2098   27.4978 N   0  0  0  0  0  0  0  0  0  0  0  0
    6.1282  -17.2898   26.5211 C   0  0  0  0  0  0  0  0  0  0  0  0
    5.0477  -17.3430   25.6856 N   0  0  0  0  0  0  0  0  0  0  0  0
    4.1050  -18.3143   25.7881 C   0  0  0  0  0  0  0  0  0  0  0  0
    4.2594  -19.3040   26.7883 C   0  0  0  0  0  0  0  0  0  0  0  0
    3.0464  -18.3220   24.9105 O   0  0  0  0  0  0  0  0  0  0  0  0
    1.8901  -20.2336   26.9313 C   0  0  0  0  0  0  0  0  0  0  0  0
    3.3214  -20.3874   27.0330 N   0  0  0  0  0  0  0  0  0  0  0  0
    1.3328  -19.1416   26.9027 O   0  0  0  0  0  0  0  0  0  0  0  0
    3.8994  -21.5805   27.4850 C   0  0  2  0  0  0  0  0  0  0  0  0
    4.6942  -21.3105   28.7885 C   0  0  0  0  0  0  0  0  0  0  0  0
    5.3882  -19.2169   27.6629 C   0  0  0  0  0  0  0  0  0  0  0  0
    5.5851  -20.2240   28.7092 N   0  0  0  0  0  0  0  0  0  0  0  0
    4.8053  -22.1761   26.4262 C   0  0  0  0  0  0  0  0  0  0  0  0
    4.1917  -22.5804   25.1916 N   0  0  0  0  0  0  0  0  0  0  0  0
    6.6106  -23.2508   21.8188 C   0  0  0  0  0  0  0  0  0  0  0  0
    5.4800  -22.4540   21.7021 C   0  0  0  0  0  0  0  0  0  0  0  0
    4.6844  -22.2269   22.8185 C   0  0  0  0  0  0  0  0  0  0  0  0
    5.0120  -22.8055   24.0431 C   0  0  0  0  0  0  0  0  0  0  0  0
    6.1342  -23.6080   24.1521 C   0  0  0  0  0  0  0  0  0  0  0  0
    6.9363  -23.8263   23.0384 C   0  0  0  0  0  0  0  0  0  0  0  0
  1  2  1  0  0  0  0
  2  3  2  0  0  0  0
  2 20  1  0  0  0  0
  4  6  1  0  0  0  0
  5  6  2  0  0  0  0
  5 16  1  0  0  0  0
  6  7  1  0  0  0  0
  7  8  1  0  0  0  0
  8  9  1  0  0  0  0
  8 10  2  0  0  0  0
  9 12  1  0  0  0  0
  9 16  2  0  0  0  0
 11 13  1  0  0  0  0
 11 12  1  0  0  0  0
 12 14  1  0  0  0  0
 14 15  1  0  0  0  0
 14 18  1  6  0  0  0
 15 17  1  0  0  0  0
 16 17  1  0  0  0  0
 18 19  1  0  0  0  0
 19 23  1  0  0  0  0
 20 21  2  0  0  0  0
 20 25  1  0  0  0  0
 21 22  1  0  0  0  0
 22 23  2  0  0  0  0
 23 24  1  0  0  0  0
 24 25  2  0  0  0  0
M  END
>  <CHROM.1>
-15.41933225,-63.11792438,163.28579350,-130.75314961,51.76034969,5.11878574
-20.78056729,25.12556042,-1.04950930,0.82305342,0.50019899

>  <Name>
ligand

>  <RI>
0

>  <Rbt.Current_Directory>
/home/itssahil/PROJECTS/Mol_Feturizer/New_Systems/rnas/4LVV

>  <Rbt.Executable>
rbdock ($Id: //depot/dev/client3/rdock/2013.1/src/exe/rbdock.cxx#4 $)

>  <Rbt.Library>
libRbt.so (2013.1, Build901 2013/11/27)

>  <Rbt.Parameter_File>
/export/apps/rDock/src/rDock_2013.1_src/data/scripts/dock_solv.prm

>  <Rbt.Receptor>
prm/pocket_docking_6.prm

>  <SCORE>
-12.9241

>  <SCORE.INTER>
-11.8798

>  <SCORE.INTER.CONST>
1

>  <SCORE.INTER.POLAR>
0

>  <SCORE.INTER.ROT>
5

>  <SCORE.INTER.SOLV>
14.1459

>  <SCORE.INTER.VDW>
-19.5685

>  <SCORE.INTER.norm>
-0.475193

>  <SCORE.INTRA>
-1.04425

>  <SCORE.INTRA.DIHEDRAL>
-0.320989

>  <SCORE.INTRA.DIHEDRAL.0>
3.94806

>  <SCORE.INTRA.POLAR>
0

>  <SCORE.INTRA.POLAR.0>
0

>  <SCORE.INTRA.REPUL>
0

>  <SCORE.INTRA.REPUL.0>
0

>  <SCORE.INTRA.SOLV>
0.0974019

>  <SCORE.INTRA.SOLV.lig_0>
-70.9803

>  <SCORE.INTRA.VDW>
-0.932457

>  <SCORE.INTRA.VDW.0>
-0.709409

>  <SCORE.INTRA.norm>
-0.04177

>  <SCORE.RESTR>
0

>  <SCORE.RESTR.CAVITY>
0

>  <SCORE.RESTR.norm>
0

>  <SCORE.SYSTEM>
0

>  <SCORE.SYSTEM.CONST>
0

>  <SCORE.SYSTEM.DIHEDRAL>
0

>  <SCORE.SYSTEM.SOLV>
0

>  <SCORE.SYSTEM.norm>
0

>  <SCORE.heavy>
25

>  <SCORE.norm>
-0.516963

>  <RMSD>
4.954

$$$$
ligand
 OpenBabel11021811503D
libRbt.so/2013.1/901 2013/11/27
 25 27  0  0  0  0  0  0  0  0999 V2000
    8.7615  -22.9119   20.6317 N   0  0  0  0  0  0  0  0  0  0  0  0
    7.3806  -23.2803   20.5771 C   0  0  0  0  0  0  0  0  0  0  0  0
    6.8919  -23.7264   19.5464 O   0  0  0  0  0  0  0  0  0  0  0  0
    7.1553  -16.3211   26.3917 N   0  0  0  0  0  0  0  0  0  0  0  0
    6.3257  -18.2695   27.5233 N   0  0  0  0  0  0  0  0  0  0  0  0
    6.1792  -17.3512   26.5403 C   0  0  0  0  0  0  0  0  0  0  0  0
    5.1068  -17.3875   25.6937 N   0  0  0  0  0  0  0  0  0  0  0  0
    4.1442  -18.3396   25.7908 C   0  0  0  0  0  0  0  0  0  0  0  0
    4.2685  -19.3271   26.7973 C   0  0  0  0  0  0  0  0  0  0  0  0
    3.0949  -18.3310   24.9020 O   0  0  0  0  0  0  0  0  0  0  0  0
    1.8800  -20.2093   26.9196 C   0  0  0  0  0  0  0  0  0  0  0  0
    3.3069  -20.3907   27.0373 N   0  0  0  0  0  0  0  0  0  0  0  0
    1.3441  -19.1068   26.8869 O   0  0  0  0  0  0  0  0  0  0  0  0
    3.8566  -21.5925   27.5012 C   0  0  2  0  0  0  0  0  0  0  0  0
    4.6427  -21.3316   28.8117 C   0  0  0  0  0  0  0  0  0  0  0  0
    5.3896  -19.2577   27.6835 C   0  0  0  0  0  0  0  0  0  0  0  0
    5.5556  -20.2632   28.7366 N   0  0  0  0  0  0  0  0  0  0  0  0
    4.7617  -22.2111   26.4550 C   0  0  0  0  0  0  0  0  0  0  0  0
    4.1517  -22.6179   25.2194 N   0  0  0  0  0  0  0  0  0  0  0  0
    6.5493  -23.1278   21.8036 C   0  0  0  0  0  0  0  0  0  0  0  0
    6.8995  -23.7645   22.9863 C   0  0  0  0  0  0  0  0  0  0  0  0
    6.1033  -23.6014   24.1134 C   0  0  0  0  0  0  0  0  0  0  0  0
    4.9687  -22.7941   24.0601 C   0  0  0  0  0  0  0  0  0  0  0  0
    4.6295  -22.1527   22.8816 C   0  0  0  0  0  0  0  0  0  0  0  0
    5.4194  -22.3245   21.7512 C   0  0  0  0  0  0  0  0  0  0  0  0
  1  2  1  0  0  0  0
  2  3  2  0  0  0  0
  2 20  1  0  0  0  0
  4  6  1  0  0  0  0
  5  6  2  0  0  0  0
  5 16  1  0  0  0  0
  6  7  1  0  0  0  0
  7  8  1  0  0  0  0
  8  9  1  0  0  0  0
  8 10  2  0  0  0  0
  9 12  1  0  0  0  0
  9 16  2  0  0  0  0
 11 13  1  0  0  0  0
 11 12  1  0  0  0  0
 12 14  1  0  0  0  0
 14 15  1  0  0  0  0
 14 18  1  6  0  0  0
 15 17  1  0  0  0  0
 16 17  1  0  0  0  0
 18 19  1  0  0  0  0
 19 23  1  0  0  0  0
 20 21  2  0  0  0  0
 20 25  1  0  0  0  0
 21 22  1  0  0  0  0
 22 23  2  0  0  0  0
 23 24  1  0  0  0  0
 24 25  2  0  0  0  0
M  END
>  <CHROM.1>
-15.81591952,-63.53096724,159.85893489,52.06875092,-57.40529067,5.09803646
-20.75092597,25.12528881,-1.09172896,0.77170500,0.58945909

>  <Name>
ligand

>  <RI>
0

>  <Rbt.Current_Directory>
/home/itssahil/PROJECTS/Mol_Feturizer/New_Systems/rnas/4LVV

>  <Rbt.Executable>
rbdock ($Id: //depot/dev/client3/rdock/2013.1/src/exe/rbdock.cxx#4 $)

>  <Rbt.Library>
libRbt.so (2013.1, Build901 2013/11/27)

>  <Rbt.Parameter_File>
/export/apps/rDock/src/rDock_2013.1_src/data/scripts/dock_solv.prm

>  <Rbt.Receptor>
prm/pocket_docking_8.prm

>  <SCORE>
-12.9806

>  <SCORE.INTER>
-11.8449

>  <SCORE.INTER.CONST>
1

>  <SCORE.INTER.POLAR>
0

>  <SCORE.INTER.ROT>
5

>  <SCORE.INTER.SOLV>
14.5062

>  <SCORE.INTER.VDW>
-19.6654

>  <SCORE.INTER.norm>
-0.473798

>  <SCORE.INTRA>
-1.13561

>  <SCORE.INTRA.DIHEDRAL>
-0.203443

>  <SCORE.INTRA.DIHEDRAL.0>
3.94806

>  <SCORE.INTRA.POLAR>
0

>  <SCORE.INTRA.POLAR.0>
0

>  <SCORE.INTRA.REPUL>
0

>  <SCORE.INTRA.REPUL.0>
0

>  <SCORE.INTRA.SOLV>
0.0898188

>  <SCORE.INTRA.SOLV.lig_0>
-70.9803

>  <SCORE.INTRA.VDW>
-1.0788

>  <SCORE.INTRA.VDW.0>
-0.709409

>  <SCORE.INTRA.norm>
-0.0454246

>  <SCORE.RESTR>
0

>  <SCORE.RESTR.CAVITY>
0

>  <SCORE.RESTR.norm>
0

>  <SCORE.SYSTEM>
0

>  <SCORE.SYSTEM.CONST>
0

>  <SCORE.SYSTEM.DIHEDRAL>
0

>  <SCORE.SYSTEM.SOLV>
0

>  <SCORE.SYSTEM.norm>
0

>  <SCORE.heavy>
25

>  <SCORE.norm>
-0.519222

>  <RMSD>
4.960

$$$$
ligand
 OpenBabel11021811503D
libRbt.so/2013.1/901 2013/11/27
 25 27  0  0  0  0  0  0  0  0999 V2000
    8.8132  -24.2882   17.9989 N   0  0  0  0  0  0  0  0  0  0  0  0
    7.9102  -24.7713   18.9971 C   0  0  0  0  0  0  0  0  0  0  0  0
    7.8921  -25.9569   19.3041 O   0  0  0  0  0  0  0  0  0  0  0  0
    6.2365  -18.5685   28.6192 N   0  0  0  0  0  0  0  0  0  0  0  0
    5.8159  -20.3567   27.0730 N   0  0  0  0  0  0  0  0  0  0  0  0
    5.4128  -19.1943   27.6363 C   0  0  0  0  0  0  0  0  0  0  0  0
    4.2252  -18.6146   27.2874 N   0  0  0  0  0  0  0  0  0  0  0  0
    3.3980  -19.1667   26.3636 C   0  0  0  0  0  0  0  0  0  0  0  0
    3.7906  -20.3756   25.7406 C   0  0  0  0  0  0  0  0  0  0  0  0
    2.2214  -18.5299   26.0455 O   0  0  0  0  0  0  0  0  0  0  0  0
    1.5620  -21.2009   24.8185 C   0  0  0  0  0  0  0  0  0  0  0  0
    2.9998  -21.0940   24.7547 N   0  0  0  0  0  0  0  0  0  0  0  0
    0.8467  -21.2347   23.8230 O   0  0  0  0  0  0  0  0  0  0  0  0
    3.7425  -21.7765   23.7830 C   0  0  2  0  0  0  0  0  0  0  0  0
    4.7022  -22.7795   24.4733 C   0  0  0  0  0  0  0  0  0  0  0  0
    5.0289  -20.9735   26.1356 C   0  0  0  0  0  0  0  0  0  0  0  0
    5.4719  -22.2234   25.5119 N   0  0  0  0  0  0  0  0  0  0  0  0
    4.5226  -20.8056   22.9198 C   0  0  0  0  0  0  0  0  0  0  0  0
    4.4581  -20.9966   21.4972 N   0  0  0  0  0  0  0  0  0  0  0  0
    7.0018  -23.8021   19.6710 C   0  0  0  0  0  0  0  0  0  0  0  0
    6.5525  -24.0269   20.9650 C   0  0  0  0  0  0  0  0  0  0  0  0
    5.7063  -23.1029   21.5660 C   0  0  0  0  0  0  0  0  0  0  0  0
    5.3221  -21.9529   20.8794 C   0  0  0  0  0  0  0  0  0  0  0  0
    5.7813  -21.7278   19.5934 C   0  0  0  0  0  0  0  0  0  0  0  0
    6.6186  -22.6570   18.9879 C   0  0  0  0  0  0  0  0  0  0  0  0
  1  2  1  0  0  0  0
  2  3  2  0  0  0  0
  2 20  1  0  0  0  0
  4  6  1  0  0  0  0
  5  6  2  0  0  0  0
  5 16  1  0  0  0  0
  6  7  1  0  0  0  0
  7  8  1  0  0  0  0
  8  9  1  0  0  0  0
  8 10  2  0  0  0  0
  9 12  1  0  0  0  0
  9 16  2  0  0  0  0
 11 13  1  0  0  0  0
 11 12  1  0  0  0  0
 12 14  1  0  0  0  0
 14 15  1  0  0  0  0
 14 18  1  1  0  0  0
 15 17  1  0  0  0  0
 16 17  1  0  0  0  0
 18 19  1  0  0  0  0
 19 23  1  0  0  0  0
 20 21  2  0  0  0  0
 20 25  1  0  0  0  0
 21 22  1  0  0  0  0
 22 23  2  0  0  0  0
 23 24  1  0  0  0  0
 24 25  2  0  0  0  0
M  END
>  <CHROM.1>
146.15807608,-132.84705171,-83.01156464,31.91996216,-151.75781488,4.97768247
-21.58756557,23.43459369,-1.18560800,-0.21909263,1.11306373

>  <Name>
ligand

>  <RI>
0

>  <Rbt.Current_Directory>
/home/itssahil/PROJECTS/Mol_Feturizer/New_Systems/rnas/4LVV

>  <Rbt.Executable>
rbdock ($Id: //depot/dev/client3/rdock/2013.1/src/exe/rbdock.cxx#4 $)

>  <Rbt.Library>
libRbt.so (2013.1, Build901 2013/11/27)

>  <Rbt.Parameter_File>
/export/apps/rDock/src/rDock_2013.1_src/data/scripts/dock_solv.prm

>  <Rbt.Receptor>
prm/pocket_docking_8.prm

>  <SCORE>
-10.0361

>  <SCORE.INTER>
-11.5632

>  <SCORE.INTER.CONST>
1

>  <SCORE.INTER.POLAR>
0

>  <SCORE.INTER.ROT>
5

>  <SCORE.INTER.SOLV>
13.7216

>  <SCORE.INTER.VDW>
-19.216

>  <SCORE.INTER.norm>
-0.46253

>  <SCORE.INTRA>
1.52717

>  <SCORE.INTRA.DIHEDRAL>
4.2695

>  <SCORE.INTRA.DIHEDRAL.0>
3.94806

>  <SCORE.INTRA.POLAR>
0

>  <SCORE.INTRA.POLAR.0>
0

>  <SCORE.INTRA.REPUL>
0

>  <SCORE.INTRA.REPUL.0>
0

>  <SCORE.INTRA.SOLV>
-0.637385

>  <SCORE.INTRA.SOLV.lig_0>
-70.9803

>  <SCORE.INTRA.VDW>
-0.288887

>  <SCORE.INTRA.VDW.0>
-0.709409

>  <SCORE.INTRA.norm>
0.0610869

>  <SCORE.RESTR>
0

>  <SCORE.RESTR.CAVITY>
0

>  <SCORE.RESTR.norm>
0

>  <SCORE.SYSTEM>
0

>  <SCORE.SYSTEM.CONST>
0

>  <SCORE.SYSTEM.DIHEDRAL>
0

>  <SCORE.SYSTEM.SOLV>
0

>  <SCORE.SYSTEM.norm>
0

>  <SCORE.heavy>
25

>  <SCORE.norm>
-0.401443

>  <RMSD>
4.967

$$$$
ligand
 OpenBabel11021811503D
libRbt.so/2013.1/901 2013/11/27
 25 27  0  0  0  0  0  0  0  0999 V2000
    6.8476  -23.0065   19.1734 N   0  0  0  0  0  0  0  0  0  0  0  0
    6.7216  -23.9265   20.2612 C   0  0  0  0  0  0  0  0  0  0  0  0
    6.8910  -25.1272   20.0887 O   0  0  0  0  0  0  0  0  0  0  0  0
    7.3057  -17.0310   25.1189 N   0  0  0  0  0  0  0  0  0  0  0  0
    6.5366  -18.7613   26.5953 N   0  0  0  0  0  0  0  0  0  0  0  0
    6.2976  -17.9490   25.5400 C   0  0  0  0  0  0  0  0  0  0  0  0
    5.1030  -17.9854   24.8766 N   0  0  0  0  0  0  0  0  0  0  0  0
    4.1054  -18.8330   25.2354 C   0  0  0  0  0  0  0  0  0  0  0  0
    4.3217  -19.7093   26.3258 C   0  0  0  0  0  0  0  0  0  0  0  0
    2.9300  -18.8318   24.5216 O   0  0  0  0  0  0  0  0  0  0  0  0
    1.9289  -20.3603   26.9167 C   0  0  0  0  0  0  0  0  0  0  0  0
    3.3402  -20.6514   26.8384 N   0  0  0  0  0  0  0  0  0  0  0  0
    1.4789  -19.2197   26.9354 O   0  0  0  0  0  0  0  0  0  0  0  0
    3.8733  -21.8375   27.3588 C   0  0  2  0  0  0  0  0  0  0  0  0
    4.8759  -21.5019   28.4926 C   0  0  0  0  0  0  0  0  0  0  0  0
    5.5726  -19.6399   27.0165 C   0  0  0  0  0  0  0  0  0  0  0  0
    5.8361  -20.5324   28.1486 N   0  0  0  0  0  0  0  0  0  0  0  0
    4.5536  -22.6455   26.2722 C   0  0  0  0  0  0  0  0  0  0  0  0
    5.5422  -21.9715   25.4769 N   0  0  0  0  0  0  0  0  0  0  0  0
    6.3969  -23.3957   21.6146 C   0  0  0  0  0  0  0  0  0  0  0  0
    5.3556  -22.4961   21.7969 C   0  0  0  0  0  0  0  0  0  0  0  0
    5.0776  -22.0202   23.0725 C   0  0  0  0  0  0  0  0  0  0  0  0
    5.8303  -22.4529   24.1624 C   0  0  0  0  0  0  0  0  0  0  0  0
    6.8606  -23.3582   23.9772 C   0  0  0  0  0  0  0  0  0  0  0  0
    7.1461  -23.8259   22.7001 C   0  0  0  0  0  0  0  0  0  0  0  0
  1  2  1  0  0  0  0
  2  3  2  0  0  0  0
  2 20  1  0  0  0  0
  4  6  1  0  0  0  0
  5  6  2  0  0  0  0
  5 16  1  0  0  0  0
  6  7  1  0  0  0  0
  7  8  1  0  0  0  0
  8  9  1  0  0  0  0
  8 10  2  0  0  0  0
  9 12  1  0  0  0  0
  9 16  2  0  0  0  0
 11 13  1  0  0  0  0
 11 12  1  0  0  0  0
 12 14  1  0  0  0  0
 14 15  1  0  0  0  0
 14 18  1  6  0  0  0
 15 17  1  0  0  0  0
 16 17  1  0  0  0  0
 18 19  1  0  0  0  0
 19 23  1  0  0  0  0
 20 21  2  0  0  0  0
 20 25  1  0  0  0  0
 21 22  1  0  0  0  0
 22 23  2  0  0  0  0
 23 24  1  0  0  0  0
 24 25  2  0  0  0  0
M  END
>  <CHROM.1>
-21.75766586,52.76394029,-155.53420879,86.89102459,48.53371371,5.16976201
-21.04611246,24.77989801,-0.92812722,0.99702897,0.38101926

>  <Name>
ligand

>  <RI>
0

>  <Rbt.Current_Directory>
/home/itssahil/PROJECTS/Mol_Feturizer/New_Systems/rnas/4LVV

>  <Rbt.Executable>
rbdock ($Id: //depot/dev/client3/rdock/2013.1/src/exe/rbdock.cxx#4 $)

>  <Rbt.Library>
libRbt.so (2013.1, Build901 2013/11/27)

>  <Rbt.Parameter_File>
/export/apps/rDock/src/rDock_2013.1_src/data/scripts/dock_solv.prm

>  <Rbt.Receptor>
prm/pocket_docking_8.prm

>  <SCORE>
-10.8662

>  <SCORE.INTER>
-10.6144

>  <SCORE.INTER.CONST>
1

>  <SCORE.INTER.POLAR>
0

>  <SCORE.INTER.ROT>
5

>  <SCORE.INTER.SOLV>
12.3805

>  <SCORE.INTER.VDW>
-18.1364

>  <SCORE.INTER.norm>
-0.424577

>  <SCORE.INTRA>
-0.251733

>  <SCORE.INTRA.DIHEDRAL>
0.0608229

>  <SCORE.INTRA.DIHEDRAL.0>
3.94806

>  <SCORE.INTRA.POLAR>
0

>  <SCORE.INTRA.POLAR.0>
0

>  <SCORE.INTRA.REPUL>
0

>  <SCORE.INTRA.REPUL.0>
0

>  <SCORE.INTRA.SOLV>
2.48047

>  <SCORE.INTRA.SOLV.lig_0>
-70.9803

>  <SCORE.INTRA.VDW>
-1.52238

>  <SCORE.INTRA.VDW.0>
-0.709409

>  <SCORE.INTRA.norm>
-0.0100693

>  <SCORE.RESTR>
0

>  <SCORE.RESTR.CAVITY>
0

>  <SCORE.RESTR.norm>
0

>  <SCORE.SYSTEM>
0

>  <SCORE.SYSTEM.CONST>
0

>  <SCORE.SYSTEM.DIHEDRAL>
0

>  <SCORE.SYSTEM.SOLV>
0

>  <SCORE.SYSTEM.norm>
0

>  <SCORE.heavy>
25

>  <SCORE.norm>
-0.434646

>  <RMSD>
4.988

$$$$
ligand
 OpenBabel11021811503D
libRbt.so/2013.1/901 2013/11/27
 25 27  0  0  0  0  0  0  0  0999 V2000
    8.7279  -23.2624   20.8307 N   0  0  0  0  0  0  0  0  0  0  0  0
    7.3774  -23.7332   20.8226 C   0  0  0  0  0  0  0  0  0  0  0  0
    6.9755  -24.4672   19.9283 O   0  0  0  0  0  0  0  0  0  0  0  0
    7.3946  -16.3190   26.3843 N   0  0  0  0  0  0  0  0  0  0  0  0
    6.3805  -18.1854   27.5039 N   0  0  0  0  0  0  0  0  0  0  0  0
    6.3345  -17.2656   26.5126 C   0  0  0  0  0  0  0  0  0  0  0  0
    5.2849  -17.2211   25.6381 N   0  0  0  0  0  0  0  0  0  0  0  0
    4.2460  -18.0913   25.7149 C   0  0  0  0  0  0  0  0  0  0  0  0
    4.2638  -19.0781   26.7296 C   0  0  0  0  0  0  0  0  0  0  0  0
    3.2243  -18.0044   24.7987 O   0  0  0  0  0  0  0  0  0  0  0  0
    1.8091  -19.7631   26.7935 C   0  0  0  0  0  0  0  0  0  0  0  0
    3.2131  -20.0585   26.9497 N   0  0  0  0  0  0  0  0  0  0  0  0
    1.0483  -20.4541   26.1246 O   0  0  0  0  0  0  0  0  0  0  0  0
    3.6512  -21.2975   27.4343 C   0  0  2  0  0  0  0  0  0  0  0  0
    4.4218  -21.0914   28.7637 C   0  0  0  0  0  0  0  0  0  0  0  0
    5.3634  -19.0933   27.6446 C   0  0  0  0  0  0  0  0  0  0  0  0
    5.4200  -20.1011   28.7070 N   0  0  0  0  0  0  0  0  0  0  0  0
    4.5298  -21.9951   26.4156 C   0  0  0  0  0  0  0  0  0  0  0  0
    3.9534  -22.2614   25.1268 N   0  0  0  0  0  0  0  0  0  0  0  0
    6.4708  -23.3284   21.9330 C   0  0  0  0  0  0  0  0  0  0  0  0
    5.4035  -22.4706   21.7054 C   0  0  0  0  0  0  0  0  0  0  0  0
    4.5755  -22.1126   22.7625 C   0  0  0  0  0  0  0  0  0  0  0  0
    4.8074  -22.6214   24.0388 C   0  0  0  0  0  0  0  0  0  0  0  0
    5.8665  -23.4847   24.2587 C   0  0  0  0  0  0  0  0  0  0  0  0
    6.7013  -23.8342   23.2041 C   0  0  0  0  0  0  0  0  0  0  0  0
  1  2  1  0  0  0  0
  2  3  2  0  0  0  0
  2 20  1  0  0  0  0
  4  6  1  0  0  0  0
  5  6  2  0  0  0  0
  5 16  1  0  0  0  0
  6  7  1  0  0  0  0
  7  8  1  0  0  0  0
  8  9  1  0  0  0  0
  8 10  2  0  0  0  0
  9 12  1  0  0  0  0
  9 16  2  0  0  0  0
 11 13  1  0  0  0  0
 11 12  1  0  0  0  0
 12 14  1  0  0  0  0
 14 15  1  0  0  0  0
 14 18  1  6  0  0  0
 15 17  1  0  0  0  0
 16 17  1  0  0  0  0
 18 19  1  0  0  0  0
 19 23  1  0  0  0  0
 20 21  2  0  0  0  0
 20 25  1  0  0  0  0
 21 22  1  0  0  0  0
 22 23  2  0  0  0  0
 23 24  1  0  0  0  0
 24 25  2  0  0  0  0
M  END
>  <CHROM.1>
129.55013465,-58.53966672,165.38361113,-139.63168213,111.56236768,5.04565254
-20.74686297,25.09887657,-1.19346591,0.59211293,0.64576173

>  <Name>
ligand

>  <RI>
0

>  <Rbt.Current_Directory>
/home/itssahil/PROJECTS/Mol_Feturizer/New_Systems/rnas/4LVV

>  <Rbt.Executable>
rbdock ($Id: //depot/dev/client3/rdock/2013.1/src/exe/rbdock.cxx#4 $)

>  <Rbt.Library>
libRbt.so (2013.1, Build901 2013/11/27)

>  <Rbt.Parameter_File>
/export/apps/rDock/src/rDock_2013.1_src/data/scripts/dock_solv.prm

>  <Rbt.Receptor>
prm/pocket_docking_7.prm

>  <SCORE>
-13.7419

>  <SCORE.INTER>
-12.7421

>  <SCORE.INTER.CONST>
1

>  <SCORE.INTER.POLAR>
0

>  <SCORE.INTER.ROT>
5

>  <SCORE.INTER.SOLV>
13.5466

>  <SCORE.INTER.VDW>
-19.9436

>  <SCORE.INTER.norm>
-0.509684

>  <SCORE.INTRA>
-0.999811

>  <SCORE.INTRA.DIHEDRAL>
-0.561636

>  <SCORE.INTRA.DIHEDRAL.0>
3.94806

>  <SCORE.INTRA.POLAR>
0

>  <SCORE.INTRA.POLAR.0>
0

>  <SCORE.INTRA.REPUL>
0

>  <SCORE.INTRA.REPUL.0>
0

>  <SCORE.INTRA.SOLV>
0.419489

>  <SCORE.INTRA.SOLV.lig_0>
-70.9803

>  <SCORE.INTRA.VDW>
-0.928738

>  <SCORE.INTRA.VDW.0>
-0.709409

>  <SCORE.INTRA.norm>
-0.0399924

>  <SCORE.RESTR>
0

>  <SCORE.RESTR.CAVITY>
0

>  <SCORE.RESTR.norm>
0

>  <SCORE.SYSTEM>
0

>  <SCORE.SYSTEM.CONST>
0

>  <SCORE.SYSTEM.DIHEDRAL>
0

>  <SCORE.SYSTEM.SOLV>
0

>  <SCORE.SYSTEM.norm>
0

>  <SCORE.heavy>
25

>  <SCORE.norm>
-0.549677

>  <RMSD>
5.002

$$$$
ligand
 OpenBabel11021811503D
libRbt.so/2013.1/901 2013/11/27
 25 27  0  0  0  0  0  0  0  0999 V2000
    7.4488  -26.4577   19.8246 N   0  0  0  0  0  0  0  0  0  0  0  0
    7.8321  -25.0817   19.7537 C   0  0  0  0  0  0  0  0  0  0  0  0
    8.8136  -24.7376   19.1069 O   0  0  0  0  0  0  0  0  0  0  0  0
    8.3636  -18.2408   24.9979 N   0  0  0  0  0  0  0  0  0  0  0  0
    6.9253  -20.1613   25.0894 N   0  0  0  0  0  0  0  0  0  0  0  0
    7.0581  -18.8161   25.0303 C   0  0  0  0  0  0  0  0  0  0  0  0
    5.9631  -17.9982   25.0115 N   0  0  0  0  0  0  0  0  0  0  0  0
    4.6976  -18.4878   25.0465 C   0  0  0  0  0  0  0  0  0  0  0  0
    4.5162  -19.8908   25.0941 C   0  0  0  0  0  0  0  0  0  0  0  0
    3.6356  -17.6150   25.0129 O   0  0  0  0  0  0  0  0  0  0  0  0
    2.1102  -20.0486   25.9214 C   0  0  0  0  0  0  0  0  0  0  0  0
    3.2258  -20.5572   25.1603 N   0  0  0  0  0  0  0  0  0  0  0  0
    2.0589  -20.0893   27.1460 O   0  0  0  0  0  0  0  0  0  0  0  0
    3.1667  -21.7989   24.5149 C   0  0  2  0  0  0  0  0  0  0  0  0
    4.2425  -22.7440   25.1091 C   0  0  0  0  0  0  0  0  0  0  0  0
    5.6772  -20.7260   25.1320 C   0  0  0  0  0  0  0  0  0  0  0  0
    5.5314  -22.1834   25.1786 N   0  0  0  0  0  0  0  0  0  0  0  0
    3.3676  -21.6407   23.0213 C   0  0  0  0  0  0  0  0  0  0  0  0
    4.6810  -21.2688   22.5730 N   0  0  0  0  0  0  0  0  0  0  0  0
    7.0049  -24.0697   20.4681 C   0  0  0  0  0  0  0  0  0  0  0  0
    6.2776  -23.1187   19.7657 C   0  0  0  0  0  0  0  0  0  0  0  0
    5.5150  -22.1887   20.4617 C   0  0  0  0  0  0  0  0  0  0  0  0
    5.4704  -22.2189   21.8541 C   0  0  0  0  0  0  0  0  0  0  0  0
    6.1887  -23.1758   22.5497 C   0  0  0  0  0  0  0  0  0  0  0  0
    6.9603  -24.0990   21.8544 C   0  0  0  0  0  0  0  0  0  0  0  0
  1  2  1  0  0  0  0
  2  3  2  0  0  0  0
  2 20  1  0  0  0  0
  4  6  1  0  0  0  0
  5  6  2  0  0  0  0
  5 16  1  0  0  0  0
  6  7  1  0  0  0  0
  7  8  1  0  0  0  0
  8  9  1  0  0  0  0
  8 10  2  0  0  0  0
  9 12  1  0  0  0  0
  9 16  2  0  0  0  0
 11 13  1  0  0  0  0
 11 12  1  0  0  0  0
 12 14  1  0  0  0  0
 14 15  1  0  0  0  0
 14 18  1  6  0  0  0
 15 17  1  0  0  0  0
 16 17  1  0  0  0  0
 18 19  1  0  0  0  0
 19 23  1  0  0  0  0
 20 21  2  0  0  0  0
 20 25  1  0  0  0  0
 21 22  1  0  0  0  0
 22 23  2  0  0  0  0
 23 24  1  0  0  0  0
 24 25  2  0  0  0  0
M  END
>  <CHROM.1>
-73.18074751,69.85259263,110.86447460,97.55214938,-113.22891901,5.42221526
-21.45104059,23.45200150,1.13161564,-0.39555338,-2.50799789

>  <Name>
ligand

>  <RI>
0

>  <Rbt.Current_Directory>
/home/itssahil/PROJECTS/Mol_Feturizer/New_Systems/rnas/4LVV

>  <Rbt.Executable>
rbdock ($Id: //depot/dev/client3/rdock/2013.1/src/exe/rbdock.cxx#4 $)

>  <Rbt.Library>
libRbt.so (2013.1, Build901 2013/11/27)

>  <Rbt.Parameter_File>
/export/apps/rDock/src/rDock_2013.1_src/data/scripts/dock_solv.prm

>  <Rbt.Receptor>
prm/pocket_docking_7.prm

>  <SCORE>
-9.32049

>  <SCORE.INTER>
-9.14459

>  <SCORE.INTER.CONST>
1

>  <SCORE.INTER.POLAR>
0

>  <SCORE.INTER.ROT>
5

>  <SCORE.INTER.SOLV>
10.0659

>  <SCORE.INTER.VDW>
-16.385

>  <SCORE.INTER.norm>
-0.365784

>  <SCORE.INTRA>
-0.175894

>  <SCORE.INTRA.DIHEDRAL>
0.658344

>  <SCORE.INTRA.DIHEDRAL.0>
3.94806

>  <SCORE.INTRA.POLAR>
0

>  <SCORE.INTRA.POLAR.0>
0

>  <SCORE.INTRA.REPUL>
0

>  <SCORE.INTRA.REPUL.0>
0

>  <SCORE.INTRA.SOLV>
2.7493

>  <SCORE.INTRA.SOLV.lig_0>
-70.9803

>  <SCORE.INTRA.VDW>
-1.87972

>  <SCORE.INTRA.VDW.0>
-0.709409

>  <SCORE.INTRA.norm>
-0.00703576

>  <SCORE.RESTR>
0

>  <SCORE.RESTR.CAVITY>
0

>  <SCORE.RESTR.norm>
0

>  <SCORE.SYSTEM>
0

>  <SCORE.SYSTEM.CONST>
0

>  <SCORE.SYSTEM.DIHEDRAL>
0

>  <SCORE.SYSTEM.SOLV>
0

>  <SCORE.SYSTEM.norm>
0

>  <SCORE.heavy>
25

>  <SCORE.norm>
-0.37282

>  <RMSD>
5.013

$$$$
ligand
 OpenBabel11021811503D
libRbt.so/2013.1/901 2013/11/27
 25 27  0  0  0  0  0  0  0  0999 V2000
    8.6016  -22.9718   20.6970 N   0  0  0  0  0  0  0  0  0  0  0  0
    7.3117  -23.5850   20.7711 C   0  0  0  0  0  0  0  0  0  0  0  0
    6.9524  -24.3922   19.9229 O   0  0  0  0  0  0  0  0  0  0  0  0
    7.3582  -16.3045   26.3810 N   0  0  0  0  0  0  0  0  0  0  0  0
    6.3611  -18.1734   27.5116 N   0  0  0  0  0  0  0  0  0  0  0  0
    6.3053  -17.2580   26.5168 C   0  0  0  0  0  0  0  0  0  0  0  0
    5.2524  -17.2244   25.6457 N   0  0  0  0  0  0  0  0  0  0  0  0
    4.2200  -18.1017   25.7296 C   0  0  0  0  0  0  0  0  0  0  0  0
    4.2481  -19.0842   26.7481 C   0  0  0  0  0  0  0  0  0  0  0  0
    3.1945  -18.0256   24.8165 O   0  0  0  0  0  0  0  0  0  0  0  0
    1.7986  -19.7861   26.8232 C   0  0  0  0  0  0  0  0  0  0  0  0
    3.2052  -20.0711   26.9758 N   0  0  0  0  0  0  0  0  0  0  0  0
    1.0447  -20.4733   26.1427 O   0  0  0  0  0  0  0  0  0  0  0  0
    3.6537  -21.3049   27.4639 C   0  0  2  0  0  0  0  0  0  0  0  0
    4.4273  -21.0880   28.7898 C   0  0  0  0  0  0  0  0  0  0  0  0
    5.3510  -19.0878   27.6595 C   0  0  0  0  0  0  0  0  0  0  0  0
    5.4182  -20.0909   28.7258 N   0  0  0  0  0  0  0  0  0  0  0  0
    4.5337  -22.0004   26.4450 C   0  0  0  0  0  0  0  0  0  0  0  0
    3.9359  -22.3326   25.1815 N   0  0  0  0  0  0  0  0  0  0  0  0
    6.4172  -23.2371   21.9102 C   0  0  0  0  0  0  0  0  0  0  0  0
    5.3356  -22.3852   21.7333 C   0  0  0  0  0  0  0  0  0  0  0  0
    4.5196  -22.0809   22.8161 C   0  0  0  0  0  0  0  0  0  0  0  0
    4.7776  -22.6372   24.0673 C   0  0  0  0  0  0  0  0  0  0  0  0
    5.8508  -23.4945   24.2365 C   0  0  0  0  0  0  0  0  0  0  0  0
    6.6737  -23.7903   23.1564 C   0  0  0  0  0  0  0  0  0  0  0  0
  1  2  1  0  0  0  0
  2  3  2  0  0  0  0
  2 20  1  0  0  0  0
  4  6  1  0  0  0  0
  5  6  2  0  0  0  0
  5 16  1  0  0  0  0
  6  7  1  0  0  0  0
  7  8  1  0  0  0  0
  8  9  1  0  0  0  0
  8 10  2  0  0  0  0
  9 12  1  0  0  0  0
  9 16  2  0  0  0  0
 11 13  1  0  0  0  0
 11 12  1  0  0  0  0
 12 14  1  0  0  0  0
 14 15  1  0  0  0  0
 14 18  1  6  0  0  0
 15 17  1  0  0  0  0
 16 17  1  0  0  0  0
 18 19  1  0  0  0  0
 19 23  1  0  0  0  0
 20 21  2  0  0  0  0
 20 25  1  0  0  0  0
 21 22  1  0  0  0  0
 22 23  2  0  0  0  0
 23 24  1  0  0  0  0
 24 25  2  0  0  0  0
M  END
>  <CHROM.1>
128.36881283,-61.38885746,162.66418685,-134.45551639,104.30678700,5.01843419
-20.72305303,25.10481222,-1.18988854,0.62560589,0.65169062

>  <Name>
ligand

>  <RI>
0

>  <Rbt.Current_Directory>
/home/itssahil/PROJECTS/Mol_Feturizer/New_Systems/rnas/4LVV

>  <Rbt.Executable>
rbdock ($Id: //depot/dev/client3/rdock/2013.1/src/exe/rbdock.cxx#4 $)

>  <Rbt.Library>
libRbt.so (2013.1, Build901 2013/11/27)

>  <Rbt.Parameter_File>
/export/apps/rDock/src/rDock_2013.1_src/data/scripts/dock_solv.prm

>  <Rbt.Receptor>
prm/pocket_docking_8.prm

>  <SCORE>
-13.6175

>  <SCORE.INTER>
-12.5002

>  <SCORE.INTER.CONST>
1

>  <SCORE.INTER.POLAR>
0

>  <SCORE.INTER.ROT>
5

>  <SCORE.INTER.SOLV>
13.8195

>  <SCORE.INTER.VDW>
-19.8733

>  <SCORE.INTER.norm>
-0.500007

>  <SCORE.INTRA>
-1.11732

>  <SCORE.INTRA.DIHEDRAL>
-0.482338

>  <SCORE.INTRA.DIHEDRAL.0>
3.94806

>  <SCORE.INTRA.POLAR>
0

>  <SCORE.INTRA.POLAR.0>
0

>  <SCORE.INTRA.REPUL>
0

>  <SCORE.INTRA.REPUL.0>
0

>  <SCORE.INTRA.SOLV>
0.378456

>  <SCORE.INTRA.SOLV.lig_0>
-70.9803

>  <SCORE.INTRA.VDW>
-1.06538

>  <SCORE.INTRA.VDW.0>
-0.709409

>  <SCORE.INTRA.norm>
-0.0446927

>  <SCORE.RESTR>
0

>  <SCORE.RESTR.CAVITY>
0

>  <SCORE.RESTR.norm>
0

>  <SCORE.SYSTEM>
0

>  <SCORE.SYSTEM.CONST>
0

>  <SCORE.SYSTEM.DIHEDRAL>
0

>  <SCORE.SYSTEM.SOLV>
0

>  <SCORE.SYSTEM.norm>
0

>  <SCORE.heavy>
25

>  <SCORE.norm>
-0.544699

>  <RMSD>
5.018

$$$$
ligand
 OpenBabel11021811503D
libRbt.so/2013.1/901 2013/11/27
 25 27  0  0  0  0  0  0  0  0999 V2000
    8.5384  -22.9131   20.6109 N   0  0  0  0  0  0  0  0  0  0  0  0
    7.2755  -23.5755   20.7187 C   0  0  0  0  0  0  0  0  0  0  0  0
    6.9519  -24.4413   19.9151 O   0  0  0  0  0  0  0  0  0  0  0  0
    7.3680  -16.3906   26.4057 N   0  0  0  0  0  0  0  0  0  0  0  0
    6.3214  -18.2551   27.4982 N   0  0  0  0  0  0  0  0  0  0  0  0
    6.2922  -17.3211   26.5196 C   0  0  0  0  0  0  0  0  0  0  0  0
    5.2447  -17.2472   25.6445 N   0  0  0  0  0  0  0  0  0  0  0  0
    4.1914  -18.1010   25.7081 C   0  0  0  0  0  0  0  0  0  0  0  0
    4.1913  -19.1018   26.7091 C   0  0  0  0  0  0  0  0  0  0  0  0
    3.1726  -17.9845   24.7919 O   0  0  0  0  0  0  0  0  0  0  0  0
    1.7256  -19.7466   26.7605 C   0  0  0  0  0  0  0  0  0  0  0  0
    3.1242  -20.0675   26.9144 N   0  0  0  0  0  0  0  0  0  0  0  0
    0.9481  -20.4317   26.1048 O   0  0  0  0  0  0  0  0  0  0  0  0
    3.5410  -21.3201   27.3824 C   0  0  2  0  0  0  0  0  0  0  0  0
    4.3129  -21.1451   28.7155 C   0  0  0  0  0  0  0  0  0  0  0  0
    5.2892  -19.1477   27.6252 C   0  0  0  0  0  0  0  0  0  0  0  0
    5.3275  -20.1708   28.6737 N   0  0  0  0  0  0  0  0  0  0  0  0
    4.4094  -22.0182   26.3553 C   0  0  0  0  0  0  0  0  0  0  0  0
    3.8377  -22.2387   25.0558 N   0  0  0  0  0  0  0  0  0  0  0  0
    6.3655  -23.2054   21.8383 C   0  0  0  0  0  0  0  0  0  0  0  0
    5.3037  -22.3343   21.6362 C   0  0  0  0  0  0  0  0  0  0  0  0
    4.4724  -22.0096   22.7013 C   0  0  0  0  0  0  0  0  0  0  0  0
    4.6953  -22.5645   23.9599 C   0  0  0  0  0  0  0  0  0  0  0  0
    5.7487  -23.4408   24.1541 C   0  0  0  0  0  0  0  0  0  0  0  0
    6.5870  -23.7572   23.0918 C   0  0  0  0  0  0  0  0  0  0  0  0
  1  2  1  0  0  0  0
  2  3  2  0  0  0  0
  2 20  1  0  0  0  0
  4  6  1  0  0  0  0
  5  6  2  0  0  0  0
  5 16  1  0  0  0  0
  6  7  1  0  0  0  0
  7  8  1  0  0  0  0
  8  9  1  0  0  0  0
  8 10  2  0  0  0  0
  9 12  1  0  0  0  0
  9 16  2  0  0  0  0
 11 13  1  0  0  0  0
 11 12  1  0  0  0  0
 12 14  1  0  0  0  0
 14 15  1  0  0  0  0
 14 18  1  6  0  0  0
 15 17  1  0  0  0  0
 16 17  1  0  0  0  0
 18 19  1  0  0  0  0
 19 23  1  0  0  0  0
 20 21  2  0  0  0  0
 20 25  1  0  0  0  0
 21 22  1  0  0  0  0
 22 23  2  0  0  0  0
 23 24  1  0  0  0  0
 24 25  2  0  0  0  0
M  END
>  <CHROM.1>
131.18048283,-57.60646135,163.83985803,-139.48201217,99.69238653,4.95805136
-20.72173635,25.05084662,-1.19044033,0.59940268,0.67057401

>  <Name>
ligand

>  <RI>
0

>  <Rbt.Current_Directory>
/home/itssahil/PROJECTS/Mol_Feturizer/New_Systems/rnas/4LVV

>  <Rbt.Executable>
rbdock ($Id: //depot/dev/client3/rdock/2013.1/src/exe/rbdock.cxx#4 $)

>  <Rbt.Library>
libRbt.so (2013.1, Build901 2013/11/27)

>  <Rbt.Parameter_File>
/export/apps/rDock/src/rDock_2013.1_src/data/scripts/dock_solv.prm

>  <Rbt.Receptor>
prm/pocket_docking_6.prm

>  <SCORE>
-13.6686

>  <SCORE.INTER>
-12.6526

>  <SCORE.INTER.CONST>
1

>  <SCORE.INTER.POLAR>
0

>  <SCORE.INTER.ROT>
5

>  <SCORE.INTER.SOLV>
13.7806

>  <SCORE.INTER.VDW>
-19.962

>  <SCORE.INTER.norm>
-0.506105

>  <SCORE.INTRA>
-1.01593

>  <SCORE.INTRA.DIHEDRAL>
-0.514479

>  <SCORE.INTRA.DIHEDRAL.0>
3.94806

>  <SCORE.INTRA.POLAR>
0

>  <SCORE.INTRA.POLAR.0>
0

>  <SCORE.INTRA.REPUL>
0

>  <SCORE.INTRA.REPUL.0>
0

>  <SCORE.INTRA.SOLV>
0.425755

>  <SCORE.INTRA.SOLV.lig_0>
-70.9803

>  <SCORE.INTRA.VDW>
-0.971568

>  <SCORE.INTRA.VDW.0>
-0.709409

>  <SCORE.INTRA.norm>
-0.0406372

>  <SCORE.RESTR>
0

>  <SCORE.RESTR.CAVITY>
0

>  <SCORE.RESTR.norm>
0

>  <SCORE.SYSTEM>
0

>  <SCORE.SYSTEM.CONST>
0

>  <SCORE.SYSTEM.DIHEDRAL>
0

>  <SCORE.SYSTEM.SOLV>
0

>  <SCORE.SYSTEM.norm>
0

>  <SCORE.heavy>
25

>  <SCORE.norm>
-0.546742

>  <RMSD>
5.020

$$$$
ligand
 OpenBabel11021811503D
libRbt.so/2013.1/901 2013/11/27
 25 27  0  0  0  0  0  0  0  0999 V2000
    8.4741  -22.9647   20.5791 N   0  0  0  0  0  0  0  0  0  0  0  0
    7.2481  -23.6782   20.7612 C   0  0  0  0  0  0  0  0  0  0  0  0
    6.9200  -24.5676   19.9857 O   0  0  0  0  0  0  0  0  0  0  0  0
    7.3047  -16.2454   26.3055 N   0  0  0  0  0  0  0  0  0  0  0  0
    6.3077  -18.1057   27.4503 N   0  0  0  0  0  0  0  0  0  0  0  0
    6.2530  -17.1993   26.4473 C   0  0  0  0  0  0  0  0  0  0  0  0
    5.2021  -17.1751   25.5735 N   0  0  0  0  0  0  0  0  0  0  0  0
    4.1708  -18.0531   25.6627 C   0  0  0  0  0  0  0  0  0  0  0  0
    4.1980  -19.0265   26.6900 C   0  0  0  0  0  0  0  0  0  0  0  0
    3.1474  -17.9867   24.7466 O   0  0  0  0  0  0  0  0  0  0  0  0
    1.7493  -19.7314   26.7656 C   0  0  0  0  0  0  0  0  0  0  0  0
    3.1559  -20.0128   26.9240 N   0  0  0  0  0  0  0  0  0  0  0  0
    0.9935  -20.4382   26.1076 O   0  0  0  0  0  0  0  0  0  0  0  0
    3.6051  -21.2416   27.4242 C   0  0  2  0  0  0  0  0  0  0  0  0
    4.3752  -21.0117   28.7499 C   0  0  0  0  0  0  0  0  0  0  0  0
    5.2986  -19.0203   27.6040 C   0  0  0  0  0  0  0  0  0  0  0  0
    5.3648  -20.0137   28.6793 N   0  0  0  0  0  0  0  0  0  0  0  0
    4.4886  -21.9449   26.4137 C   0  0  0  0  0  0  0  0  0  0  0  0
    3.8983  -22.2766   25.1465 N   0  0  0  0  0  0  0  0  0  0  0  0
    6.3831  -23.3316   21.9233 C   0  0  0  0  0  0  0  0  0  0  0  0
    6.6426  -23.8493   23.1849 C   0  0  0  0  0  0  0  0  0  0  0  0
    5.8172  -23.5059   24.2488 C   0  0  0  0  0  0  0  0  0  0  0  0
    4.7447  -22.6380   24.0531 C   0  0  0  0  0  0  0  0  0  0  0  0
    4.4964  -22.1159   22.7956 C   0  0  0  0  0  0  0  0  0  0  0  0
    5.3150  -22.4679   21.7292 C   0  0  0  0  0  0  0  0  0  0  0  0
  1  2  1  0  0  0  0
  2  3  2  0  0  0  0
  2 20  1  0  0  0  0
  4  6  1  0  0  0  0
  5  6  2  0  0  0  0
  5 16  1  0  0  0  0
  6  7  1  0  0  0  0
  7  8  1  0  0  0  0
  8  9  1  0  0  0  0
  8 10  2  0  0  0  0
  9 12  1  0  0  0  0
  9 16  2  0  0  0  0
 11 13  1  0  0  0  0
 11 12  1  0  0  0  0
 12 14  1  0  0  0  0
 14 15  1  0  0  0  0
 14 18  1  6  0  0  0
 15 17  1  0  0  0  0
 16 17  1  0  0  0  0
 18 19  1  0  0  0  0
 19 23  1  0  0  0  0
 20 21  2  0  0  0  0
 20 25  1  0  0  0  0
 21 22  1  0  0  0  0
 22 23  2  0  0  0  0
 23 24  1  0  0  0  0
 24 25  2  0  0  0  0
M  END
>  <CHROM.1>
129.62111930,-60.75393482,165.00648550,43.66164346,-81.92813256,4.97026981
-20.70705546,25.06763655,-1.19357462,0.63044111,0.63033309

>  <Name>
ligand

>  <RI>
0

>  <Rbt.Current_Directory>
/home/itssahil/PROJECTS/Mol_Feturizer/New_Systems/rnas/4LVV

>  <Rbt.Executable>
rbdock ($Id: //depot/dev/client3/rdock/2013.1/src/exe/rbdock.cxx#4 $)

>  <Rbt.Library>
libRbt.so (2013.1, Build901 2013/11/27)

>  <Rbt.Parameter_File>
/export/apps/rDock/src/rDock_2013.1_src/data/scripts/dock_solv.prm

>  <Rbt.Receptor>
prm/pocket_docking_7.prm

>  <SCORE>
-13.7602

>  <SCORE.INTER>
-12.5764

>  <SCORE.INTER.CONST>
1

>  <SCORE.INTER.POLAR>
0

>  <SCORE.INTER.ROT>
5

>  <SCORE.INTER.SOLV>
14.4223

>  <SCORE.INTER.VDW>
-20.125

>  <SCORE.INTER.norm>
-0.503057

>  <SCORE.INTRA>
-1.18376

>  <SCORE.INTRA.DIHEDRAL>
-0.595107

>  <SCORE.INTRA.DIHEDRAL.0>
3.94806

>  <SCORE.INTRA.POLAR>
0

>  <SCORE.INTRA.POLAR.0>
0

>  <SCORE.INTRA.REPUL>
0

>  <SCORE.INTRA.REPUL.0>
0

>  <SCORE.INTRA.SOLV>
0.384558

>  <SCORE.INTRA.SOLV.lig_0>
-70.9803

>  <SCORE.INTRA.VDW>
-1.07849

>  <SCORE.INTRA.VDW.0>
-0.709409

>  <SCORE.INTRA.norm>
-0.0473505

>  <SCORE.RESTR>
0

>  <SCORE.RESTR.CAVITY>
0

>  <SCORE.RESTR.norm>
0

>  <SCORE.SYSTEM>
0

>  <SCORE.SYSTEM.CONST>
0

>  <SCORE.SYSTEM.DIHEDRAL>
0

>  <SCORE.SYSTEM.SOLV>
0

>  <SCORE.SYSTEM.norm>
0

>  <SCORE.heavy>
25

>  <SCORE.norm>
-0.550407

>  <RMSD>
5.023

$$$$
ligand
 OpenBabel11021811503D
libRbt.so/2013.1/901 2013/11/27
 25 27  0  0  0  0  0  0  0  0999 V2000
    8.7026  -23.8646   20.9617 N   0  0  0  0  0  0  0  0  0  0  0  0
    7.3053  -23.6592   20.7361 C   0  0  0  0  0  0  0  0  0  0  0  0
    6.8275  -23.7812   19.6150 O   0  0  0  0  0  0  0  0  0  0  0  0
    7.4142  -16.3393   26.4250 N   0  0  0  0  0  0  0  0  0  0  0  0
    6.3914  -18.2122   27.5256 N   0  0  0  0  0  0  0  0  0  0  0  0
    6.3493  -17.2816   26.5443 C   0  0  0  0  0  0  0  0  0  0  0  0
    5.2990  -17.2221   25.6715 N   0  0  0  0  0  0  0  0  0  0  0  0
    4.2556  -18.0876   25.7401 C   0  0  0  0  0  0  0  0  0  0  0  0
    4.2691  -19.0854   26.7440 C   0  0  0  0  0  0  0  0  0  0  0  0
    3.2333  -17.9853   24.8260 O   0  0  0  0  0  0  0  0  0  0  0  0
    1.8110  -19.7579   26.8033 C   0  0  0  0  0  0  0  0  0  0  0  0
    3.2135  -20.0625   26.9547 N   0  0  0  0  0  0  0  0  0  0  0  0
    0.9780  -20.5873   26.4539 O   0  0  0  0  0  0  0  0  0  0  0  0
    3.6456  -21.3089   27.4255 C   0  0  2  0  0  0  0  0  0  0  0  0
    4.4186  -21.1212   28.7561 C   0  0  0  0  0  0  0  0  0  0  0  0
    5.3697  -19.1162   27.6576 C   0  0  0  0  0  0  0  0  0  0  0  0
    5.4220  -20.1357   28.7091 N   0  0  0  0  0  0  0  0  0  0  0  0
    4.5194  -22.0001   26.3984 C   0  0  0  0  0  0  0  0  0  0  0  0
    3.9407  -22.2482   25.1070 N   0  0  0  0  0  0  0  0  0  0  0  0
    6.4362  -23.3104   21.8944 C   0  0  0  0  0  0  0  0  0  0  0  0
    6.6812  -23.8387   23.1545 C   0  0  0  0  0  0  0  0  0  0  0  0
    5.8522  -23.4929   24.2147 C   0  0  0  0  0  0  0  0  0  0  0  0
    4.7907  -22.6121   24.0171 C   0  0  0  0  0  0  0  0  0  0  0  0
    4.5568  -22.0796   22.7613 C   0  0  0  0  0  0  0  0  0  0  0  0
    5.3789  -22.4338   21.6983 C   0  0  0  0  0  0  0  0  0  0  0  0
  1  2  1  0  0  0  0
  2  3  2  0  0  0  0
  2 20  1  0  0  0  0
  4  6  1  0  0  0  0
  5  6  2  0  0  0  0
  5 16  1  0  0  0  0
  6  7  1  0  0  0  0
  7  8  1  0  0  0  0
  8  9  1  0  0  0  0
  8 10  2  0  0  0  0
  9 12  1  0  0  0  0
  9 16  2  0  0  0  0
 11 13  1  0  0  0  0
 11 12  1  0  0  0  0
 12 14  1  0  0  0  0
 14 15  1  0  0  0  0
 14 18  1  6  0  0  0
 15 17  1  0  0  0  0
 16 17  1  0  0  0  0
 18 19  1  0  0  0  0
 19 23  1  0  0  0  0
 20 21  2  0  0  0  0
 20 25  1  0  0  0  0
 21 22  1  0  0  0  0
 22 23  2  0  0  0  0
 23 24  1  0  0  0  0
 24 25  2  0  0  0  0
M  END
>  <CHROM.1>
150.04134710,-58.47500607,165.91981805,40.37074732,-34.82739392,5.02932401
-20.74532072,25.10305177,-1.19218319,0.60966023,0.66110136

>  <Name>
ligand

>  <RI>
0

>  <Rbt.Current_Directory>
/home/itssahil/PROJECTS/Mol_Feturizer/New_Systems/rnas/4LVV

>  <Rbt.Executable>
rbdock ($Id: //depot/dev/client3/rdock/2013.1/src/exe/rbdock.cxx#4 $)

>  <Rbt.Library>
libRbt.so (2013.1, Build901 2013/11/27)

>  <Rbt.Parameter_File>
/export/apps/rDock/src/rDock_2013.1_src/data/scripts/dock_solv.prm

>  <Rbt.Receptor>
prm/pocket_docking_7.prm

>  <SCORE>
-13.4864

>  <SCORE.INTER>
-12.6434

>  <SCORE.INTER.CONST>
1

>  <SCORE.INTER.POLAR>
0

>  <SCORE.INTER.ROT>
5

>  <SCORE.INTER.SOLV>
13.7367

>  <SCORE.INTER.VDW>
-19.9412

>  <SCORE.INTER.norm>
-0.505737

>  <SCORE.INTRA>
-0.843026

>  <SCORE.INTRA.DIHEDRAL>
-0.659833

>  <SCORE.INTRA.DIHEDRAL.0>
3.94806

>  <SCORE.INTRA.POLAR>
0

>  <SCORE.INTRA.POLAR.0>
0

>  <SCORE.INTRA.REPUL>
0

>  <SCORE.INTRA.REPUL.0>
0

>  <SCORE.INTRA.SOLV>
0.339547

>  <SCORE.INTRA.SOLV.lig_0>
-70.9803

>  <SCORE.INTRA.VDW>
-0.682882

>  <SCORE.INTRA.VDW.0>
-0.709409

>  <SCORE.INTRA.norm>
-0.033721

>  <SCORE.RESTR>
0

>  <SCORE.RESTR.CAVITY>
0

>  <SCORE.RESTR.norm>
0

>  <SCORE.SYSTEM>
0

>  <SCORE.SYSTEM.CONST>
0

>  <SCORE.SYSTEM.DIHEDRAL>
0

>  <SCORE.SYSTEM.SOLV>
0

>  <SCORE.SYSTEM.norm>
0

>  <SCORE.heavy>
25

>  <SCORE.norm>
-0.539458

>  <RMSD>
5.034

$$$$
ligand
 OpenBabel11021811503D
libRbt.so/2013.1/901 2013/11/27
 25 27  0  0  0  0  0  0  0  0999 V2000
    7.4139  -21.6684   19.9795 N   0  0  0  0  0  0  0  0  0  0  0  0
    6.9119  -22.8984   20.5089 C   0  0  0  0  0  0  0  0  0  0  0  0
    7.0591  -23.9496   19.8977 O   0  0  0  0  0  0  0  0  0  0  0  0
    6.9211  -16.2117   25.9055 N   0  0  0  0  0  0  0  0  0  0  0  0
    6.2283  -18.0662   27.2643 N   0  0  0  0  0  0  0  0  0  0  0  0
    6.0166  -17.2797   26.1838 C   0  0  0  0  0  0  0  0  0  0  0  0
    4.9452  -17.4843   25.3600 N   0  0  0  0  0  0  0  0  0  0  0  0
    4.0487  -18.4799   25.5781 C   0  0  0  0  0  0  0  0  0  0  0  0
    4.2431  -19.3337   26.6902 C   0  0  0  0  0  0  0  0  0  0  0  0
    2.9973  -18.6435   24.7069 O   0  0  0  0  0  0  0  0  0  0  0  0
    1.9193  -20.3509   26.9424 C   0  0  0  0  0  0  0  0  0  0  0  0
    3.3557  -20.4232   27.0629 N   0  0  0  0  0  0  0  0  0  0  0  0
    1.3045  -19.2925   26.8685 O   0  0  0  0  0  0  0  0  0  0  0  0
    3.9863  -21.5244   27.6558 C   0  0  2  0  0  0  0  0  0  0  0  0
    4.7591  -21.0621   28.9178 C   0  0  0  0  0  0  0  0  0  0  0  0
    5.3609  -19.0885   27.5488 C   0  0  0  0  0  0  0  0  0  0  0  0
    5.5982  -19.9519   28.7089 N   0  0  0  0  0  0  0  0  0  0  0  0
    4.9260  -22.1992   26.6771 C   0  0  0  0  0  0  0  0  0  0  0  0
    4.3291  -22.9138   25.5829 N   0  0  0  0  0  0  0  0  0  0  0  0
    6.2203  -22.8816   21.8281 C   0  0  0  0  0  0  0  0  0  0  0  0
    5.0454  -22.1647   22.0083 C   0  0  0  0  0  0  0  0  0  0  0  0
    4.4241  -22.1699   23.2512 C   0  0  0  0  0  0  0  0  0  0  0  0
    4.9696  -22.9000   24.3053 C   0  0  0  0  0  0  0  0  0  0  0  0
    6.1354  -23.6219   24.1179 C   0  0  0  0  0  0  0  0  0  0  0  0
    6.7631  -23.6079   22.8781 C   0  0  0  0  0  0  0  0  0  0  0  0
  1  2  1  0  0  0  0
  2  3  2  0  0  0  0
  2 20  1  0  0  0  0
  4  6  1  0  0  0  0
  5  6  2  0  0  0  0
  5 16  1  0  0  0  0
  6  7  1  0  0  0  0
  7  8  1  0  0  0  0
  8  9  1  0  0  0  0
  8 10  2  0  0  0  0
  9 12  1  0  0  0  0
  9 16  2  0  0  0  0
 11 13  1  0  0  0  0
 11 12  1  0  0  0  0
 12 14  1  0  0  0  0
 14 15  1  0  0  0  0
 14 18  1  6  0  0  0
 15 17  1  0  0  0  0
 16 17  1  0  0  0  0
 18 19  1  0  0  0  0
 19 23  1  0  0  0  0
 20 21  2  0  0  0  0
 20 25  1  0  0  0  0
 21 22  1  0  0  0  0
 22 23  2  0  0  0  0
 23 24  1  0  0  0  0
 24 25  2  0  0  0  0
M  END
>  <CHROM.1>
-20.26824293,-70.28243262,143.98151555,-107.84010789,62.59535362,4.98734344
-20.68415153,25.09205050,-0.99880489,0.98855044,0.47603834

>  <Name>
ligand

>  <RI>
0

>  <Rbt.Current_Directory>
/home/itssahil/PROJECTS/Mol_Feturizer/New_Systems/rnas/4LVV

>  <Rbt.Executable>
rbdock ($Id: //depot/dev/client3/rdock/2013.1/src/exe/rbdock.cxx#4 $)

>  <Rbt.Library>
libRbt.so (2013.1, Build901 2013/11/27)

>  <Rbt.Parameter_File>
/export/apps/rDock/src/rDock_2013.1_src/data/scripts/dock_solv.prm

>  <Rbt.Receptor>
prm/pocket_docking_5.prm

>  <SCORE>
-12.8635

>  <SCORE.INTER>
-11.7177

>  <SCORE.INTER.CONST>
1

>  <SCORE.INTER.POLAR>
0

>  <SCORE.INTER.ROT>
5

>  <SCORE.INTER.SOLV>
15.2676

>  <SCORE.INTER.VDW>
-19.8343

>  <SCORE.INTER.norm>
-0.468707

>  <SCORE.INTRA>
-1.14583

>  <SCORE.INTRA.DIHEDRAL>
0.621572

>  <SCORE.INTRA.DIHEDRAL.0>
3.94806

>  <SCORE.INTRA.POLAR>
0

>  <SCORE.INTRA.POLAR.0>
0

>  <SCORE.INTRA.REPUL>
0

>  <SCORE.INTRA.REPUL.0>
0

>  <SCORE.INTRA.SOLV>
-0.0244478

>  <SCORE.INTRA.SOLV.lig_0>
-70.9803

>  <SCORE.INTRA.VDW>
-1.44439

>  <SCORE.INTRA.VDW.0>
-0.709409

>  <SCORE.INTRA.norm>
-0.0458331

>  <SCORE.RESTR>
0

>  <SCORE.RESTR.CAVITY>
0

>  <SCORE.RESTR.norm>
0

>  <SCORE.SYSTEM>
0

>  <SCORE.SYSTEM.CONST>
0

>  <SCORE.SYSTEM.DIHEDRAL>
0

>  <SCORE.SYSTEM.SOLV>
0

>  <SCORE.SYSTEM.norm>
0

>  <SCORE.heavy>
25

>  <SCORE.norm>
-0.51454

>  <RMSD>
5.039

$$$$
ligand
 OpenBabel11021811503D
libRbt.so/2013.1/901 2013/11/27
 25 27  0  0  0  0  0  0  0  0999 V2000
    9.0622  -23.0373   19.0850 N   0  0  0  0  0  0  0  0  0  0  0  0
    7.6880  -23.3197   18.8073 C   0  0  0  0  0  0  0  0  0  0  0  0
    7.3773  -24.2038   18.0186 O   0  0  0  0  0  0  0  0  0  0  0  0
    6.3309  -18.5985   28.5236 N   0  0  0  0  0  0  0  0  0  0  0  0
    5.7411  -20.2076   26.8418 N   0  0  0  0  0  0  0  0  0  0  0  0
    5.3787  -19.1648   27.6243 C   0  0  0  0  0  0  0  0  0  0  0  0
    4.1130  -18.6512   27.5753 N   0  0  0  0  0  0  0  0  0  0  0  0
    3.1638  -19.1525   26.7445 C   0  0  0  0  0  0  0  0  0  0  0  0
    3.5077  -20.2346   25.8994 C   0  0  0  0  0  0  0  0  0  0  0  0
    1.9111  -18.5854   26.7317 O   0  0  0  0  0  0  0  0  0  0  0  0
    1.2019  -21.1279   25.2799 C   0  0  0  0  0  0  0  0  0  0  0  0
    2.5929  -20.8893   24.9784 N   0  0  0  0  0  0  0  0  0  0  0  0
    0.3519  -21.3220   24.4175 O   0  0  0  0  0  0  0  0  0  0  0  0
    3.1820  -21.3769   23.8050 C   0  0  2  0  0  0  0  0  0  0  0  0
    4.3145  -22.3716   24.1678 C   0  0  0  0  0  0  0  0  0  0  0  0
    4.8328  -20.7676   25.9817 C   0  0  0  0  0  0  0  0  0  0  0  0
    5.2286  -21.8859   25.1212 N   0  0  0  0  0  0  0  0  0  0  0  0
    3.7248  -20.2411   22.9615 C   0  0  0  0  0  0  0  0  0  0  0  0
    3.6411  -20.3871   21.5347 N   0  0  0  0  0  0  0  0  0  0  0  0
    6.6381  -22.5294   19.5087 C   0  0  0  0  0  0  0  0  0  0  0  0
    6.3520  -21.2260   19.1265 C   0  0  0  0  0  0  0  0  0  0  0  0
    5.3661  -20.5157   19.8006 C   0  0  0  0  0  0  0  0  0  0  0  0
    4.6610  -21.1120   20.8441 C   0  0  0  0  0  0  0  0  0  0  0  0
    4.9425  -22.4154   21.2147 C   0  0  0  0  0  0  0  0  0  0  0  0
    5.9360  -23.1224   20.5480 C   0  0  0  0  0  0  0  0  0  0  0  0
  1  2  1  0  0  0  0
  2  3  2  0  0  0  0
  2 20  1  0  0  0  0
  4  6  1  0  0  0  0
  5  6  2  0  0  0  0
  5 16  1  0  0  0  0
  6  7  1  0  0  0  0
  7  8  1  0  0  0  0
  8  9  1  0  0  0  0
  8 10  2  0  0  0  0
  9 12  1  0  0  0  0
  9 16  2  0  0  0  0
 11 13  1  0  0  0  0
 11 12  1  0  0  0  0
 12 14  1  0  0  0  0
 14 15  1  0  0  0  0
 14 18  1  1  0  0  0
 15 17  1  0  0  0  0
 16 17  1  0  0  0  0
 18 19  1  0  0  0  0
 19 23  1  0  0  0  0
 20 21  2  0  0  0  0
 20 25  1  0  0  0  0
 21 22  1  0  0  0  0
 22 23  2  0  0  0  0
 23 24  1  0  0  0  0
 24 25  2  0  0  0  0
M  END
>  <CHROM.1>
158.85474059,-144.91209549,-84.17074328,-124.22568604,76.07599037,4.62608803
-21.05099771,23.46639558,-1.18096498,-0.01826365,1.18473657

>  <Name>
ligand

>  <RI>
0

>  <Rbt.Current_Directory>
/home/itssahil/PROJECTS/Mol_Feturizer/New_Systems/rnas/4LVV

>  <Rbt.Executable>
rbdock ($Id: //depot/dev/client3/rdock/2013.1/src/exe/rbdock.cxx#4 $)

>  <Rbt.Library>
libRbt.so (2013.1, Build901 2013/11/27)

>  <Rbt.Parameter_File>
/export/apps/rDock/src/rDock_2013.1_src/data/scripts/dock_solv.prm

>  <Rbt.Receptor>
prm/pocket_docking_8.prm

>  <SCORE>
-9.63378

>  <SCORE.INTER>
-10.0388

>  <SCORE.INTER.CONST>
1

>  <SCORE.INTER.POLAR>
0

>  <SCORE.INTER.ROT>
5

>  <SCORE.INTER.SOLV>
14.6843

>  <SCORE.INTER.VDW>
-18.5206

>  <SCORE.INTER.norm>
-0.401553

>  <SCORE.INTRA>
0.405062

>  <SCORE.INTRA.DIHEDRAL>
2.92917

>  <SCORE.INTRA.DIHEDRAL.0>
3.94806

>  <SCORE.INTRA.POLAR>
0

>  <SCORE.INTRA.POLAR.0>
0

>  <SCORE.INTRA.REPUL>
0

>  <SCORE.INTRA.REPUL.0>
0

>  <SCORE.INTRA.SOLV>
-0.602183

>  <SCORE.INTRA.SOLV.lig_0>
-70.9803

>  <SCORE.INTRA.VDW>
-0.758434

>  <SCORE.INTRA.VDW.0>
-0.709409

>  <SCORE.INTRA.norm>
0.0162025

>  <SCORE.RESTR>
0

>  <SCORE.RESTR.CAVITY>
0

>  <SCORE.RESTR.norm>
0

>  <SCORE.SYSTEM>
0

>  <SCORE.SYSTEM.CONST>
0

>  <SCORE.SYSTEM.DIHEDRAL>
0

>  <SCORE.SYSTEM.SOLV>
0

>  <SCORE.SYSTEM.norm>
0

>  <SCORE.heavy>
25

>  <SCORE.norm>
-0.385351

>  <RMSD>
5.041

$$$$
ligand
 OpenBabel11021811503D
libRbt.so/2013.1/901 2013/11/27
 25 27  0  0  0  0  0  0  0  0999 V2000
    6.9755  -26.1667   20.2227 N   0  0  0  0  0  0  0  0  0  0  0  0
    7.3847  -24.8002   20.3254 C   0  0  0  0  0  0  0  0  0  0  0  0
    8.3768  -24.3973   19.7308 O   0  0  0  0  0  0  0  0  0  0  0  0
    8.5881  -18.3130   24.1684 N   0  0  0  0  0  0  0  0  0  0  0  0
    7.1576  -20.0134   25.0781 N   0  0  0  0  0  0  0  0  0  0  0  0
    7.3066  -18.7491   24.6197 C   0  0  0  0  0  0  0  0  0  0  0  0
    6.2527  -17.8791   24.5913 N   0  0  0  0  0  0  0  0  0  0  0  0
    5.0128  -18.2356   25.0131 C   0  0  0  0  0  0  0  0  0  0  0  0
    4.8125  -19.5544   25.4866 C   0  0  0  0  0  0  0  0  0  0  0  0
    3.9892  -17.3195   24.9488 O   0  0  0  0  0  0  0  0  0  0  0  0
    2.6364  -19.2858   26.7868 C   0  0  0  0  0  0  0  0  0  0  0  0
    3.5507  -20.0701   25.9921 N   0  0  0  0  0  0  0  0  0  0  0  0
    1.4171  -19.3725   26.6882 O   0  0  0  0  0  0  0  0  0  0  0  0
    3.3253  -21.4303   25.7452 C   0  0  2  0  0  0  0  0  0  0  0  0
    4.4806  -22.2663   26.3534 C   0  0  0  0  0  0  0  0  0  0  0  0
    5.9345  -20.4413   25.5246 C   0  0  0  0  0  0  0  0  0  0  0  0
    5.7674  -21.8156   26.0052 N   0  0  0  0  0  0  0  0  0  0  0  0
    3.2054  -21.6960   24.2581 C   0  0  0  0  0  0  0  0  0  0  0  0
    4.2521  -21.1872   23.4156 N   0  0  0  0  0  0  0  0  0  0  0  0
    6.5716  -23.8692   21.1565 C   0  0  0  0  0  0  0  0  0  0  0  0
    6.6720  -23.8764   22.5410 C   0  0  0  0  0  0  0  0  0  0  0  0
    5.9003  -22.9946   23.2879 C   0  0  0  0  0  0  0  0  0  0  0  0
    5.0416  -22.1008   22.6510 C   0  0  0  0  0  0  0  0  0  0  0  0
    4.9528  -22.0900   21.2699 C   0  0  0  0  0  0  0  0  0  0  0  0
    5.7162  -22.9793   20.5231 C   0  0  0  0  0  0  0  0  0  0  0  0
  1  2  1  0  0  0  0
  2  3  2  0  0  0  0
  2 20  1  0  0  0  0
  4  6  1  0  0  0  0
  5  6  2  0  0  0  0
  5 16  1  0  0  0  0
  6  7  1  0  0  0  0
  7  8  1  0  0  0  0
  8  9  1  0  0  0  0
  8 10  2  0  0  0  0
  9 12  1  0  0  0  0
  9 16  2  0  0  0  0
 11 13  1  0  0  0  0
 11 12  1  0  0  0  0
 12 14  1  0  0  0  0
 14 15  1  0  0  0  0
 14 18  1  6  0  0  0
 15 17  1  0  0  0  0
 16 17  1  0  0  0  0
 18 19  1  0  0  0  0
 19 23  1  0  0  0  0
 20 21  2  0  0  0  0
 20 25  1  0  0  0  0
 21 22  1  0  0  0  0
 22 23  2  0  0  0  0
 23 24  1  0  0  0  0
 24 25  2  0  0  0  0
M  END
>  <CHROM.1>
143.12751888,51.30885413,118.48707417,-66.98494361,77.73554005,5.36775837
-21.18339091,23.90884338,1.12819604,-0.49383356,-2.58394710

>  <Name>
ligand

>  <RI>
0

>  <Rbt.Current_Directory>
/home/itssahil/PROJECTS/Mol_Feturizer/New_Systems/rnas/4LVV

>  <Rbt.Executable>
rbdock ($Id: //depot/dev/client3/rdock/2013.1/src/exe/rbdock.cxx#4 $)

>  <Rbt.Library>
libRbt.so (2013.1, Build901 2013/11/27)

>  <Rbt.Parameter_File>
/export/apps/rDock/src/rDock_2013.1_src/data/scripts/dock_solv.prm

>  <Rbt.Receptor>
prm/pocket_docking_6.prm

>  <SCORE>
-9.15425

>  <SCORE.INTER>
-9.04672

>  <SCORE.INTER.CONST>
1

>  <SCORE.INTER.POLAR>
0

>  <SCORE.INTER.ROT>
5

>  <SCORE.INTER.SOLV>
11.4285

>  <SCORE.INTER.VDW>
-16.774

>  <SCORE.INTER.norm>
-0.361869

>  <SCORE.INTRA>
-0.107523

>  <SCORE.INTRA.DIHEDRAL>
0.648978

>  <SCORE.INTRA.DIHEDRAL.0>
3.94806

>  <SCORE.INTRA.POLAR>
0

>  <SCORE.INTRA.POLAR.0>
0

>  <SCORE.INTRA.REPUL>
0

>  <SCORE.INTRA.REPUL.0>
0

>  <SCORE.INTRA.SOLV>
2.88898

>  <SCORE.INTRA.SOLV.lig_0>
-70.9803

>  <SCORE.INTRA.VDW>
-1.8765

>  <SCORE.INTRA.VDW.0>
-0.709409

>  <SCORE.INTRA.norm>
-0.00430092

>  <SCORE.RESTR>
0

>  <SCORE.RESTR.CAVITY>
0

>  <SCORE.RESTR.norm>
0

>  <SCORE.SYSTEM>
0

>  <SCORE.SYSTEM.CONST>
0

>  <SCORE.SYSTEM.DIHEDRAL>
0

>  <SCORE.SYSTEM.SOLV>
0

>  <SCORE.SYSTEM.norm>
0

>  <SCORE.heavy>
25

>  <SCORE.norm>
-0.36617

>  <RMSD>
5.050

$$$$
ligand
 OpenBabel11021811503D
libRbt.so/2013.1/901 2013/11/27
 25 27  0  0  0  0  0  0  0  0999 V2000
    8.5610  -24.2213   18.9584 N   0  0  0  0  0  0  0  0  0  0  0  0
    7.4643  -24.5838   19.8017 C   0  0  0  0  0  0  0  0  0  0  0  0
    7.2406  -25.7582   20.0679 O   0  0  0  0  0  0  0  0  0  0  0  0
    8.3077  -21.2319   28.2853 N   0  0  0  0  0  0  0  0  0  0  0  0
    6.4465  -21.7975   26.8778 N   0  0  0  0  0  0  0  0  0  0  0  0
    7.1031  -20.8695   27.6116 C   0  0  0  0  0  0  0  0  0  0  0  0
    6.6268  -19.5935   27.7270 N   0  0  0  0  0  0  0  0  0  0  0  0
    5.4838  -19.1931   27.1142 C   0  0  0  0  0  0  0  0  0  0  0  0
    4.7750  -20.1307   26.3253 C   0  0  0  0  0  0  0  0  0  0  0  0
    5.0614  -17.8924   27.2580 O   0  0  0  0  0  0  0  0  0  0  0  0
    2.4845  -19.0211   26.1808 C   0  0  0  0  0  0  0  0  0  0  0  0
    3.5273  -19.8545   25.6322 N   0  0  0  0  0  0  0  0  0  0  0  0
    1.6099  -19.4454   26.9283 O   0  0  0  0  0  0  0  0  0  0  0  0
    3.3540  -20.5458   24.4264 C   0  0  2  0  0  0  0  0  0  0  0  0
    3.4490  -22.0715   24.6850 C   0  0  0  0  0  0  0  0  0  0  0  0
    5.2827  -21.4652   26.2346 C   0  0  0  0  0  0  0  0  0  0  0  0
    4.5794  -22.4642   25.4254 N   0  0  0  0  0  0  0  0  0  0  0  0
    4.3879  -20.1164   23.4051 C   0  0  0  0  0  0  0  0  0  0  0  0
    4.1688  -20.5178   22.0431 N   0  0  0  0  0  0  0  0  0  0  0  0
    6.6069  -23.5044   20.3661 C   0  0  0  0  0  0  0  0  0  0  0  0
    6.1953  -22.4365   19.5805 C   0  0  0  0  0  0  0  0  0  0  0  0
    5.3950  -21.4460   20.1367 C   0  0  0  0  0  0  0  0  0  0  0  0
    4.9981  -21.5308   21.4698 C   0  0  0  0  0  0  0  0  0  0  0  0
    5.4022  -22.6029   22.2461 C   0  0  0  0  0  0  0  0  0  0  0  0
    6.2116  -23.5880   21.6933 C   0  0  0  0  0  0  0  0  0  0  0  0
  1  2  1  0  0  0  0
  2  3  2  0  0  0  0
  2 20  1  0  0  0  0
  4  6  1  0  0  0  0
  5  6  2  0  0  0  0
  5 16  1  0  0  0  0
  6  7  1  0  0  0  0
  7  8  1  0  0  0  0
  8  9  1  0  0  0  0
  8 10  2  0  0  0  0
  9 12  1  0  0  0  0
  9 16  2  0  0  0  0
 11 13  1  0  0  0  0
 11 12  1  0  0  0  0
 12 14  1  0  0  0  0
 14 15  1  0  0  0  0
 14 18  1  6  0  0  0
 15 17  1  0  0  0  0
 16 17  1  0  0  0  0
 18 19  1  0  0  0  0
 19 23  1  0  0  0  0
 20 21  2  0  0  0  0
 20 25  1  0  0  0  0
 21 22  1  0  0  0  0
 22 23  2  0  0  0  0
 23 24  1  0  0  0  0
 24 25  2  0  0  0  0
M  END
>  <CHROM.1>
-86.35668309,-167.04058643,-108.18819596,-142.75010547,43.18165379,5.34732122
-21.39720457,24.10094683,-1.27326884,-0.50303791,1.18919686

>  <Name>
ligand

>  <RI>
0

>  <Rbt.Current_Directory>
/home/itssahil/PROJECTS/Mol_Feturizer/New_Systems/rnas/4LVV

>  <Rbt.Executable>
rbdock ($Id: //depot/dev/client3/rdock/2013.1/src/exe/rbdock.cxx#4 $)

>  <Rbt.Library>
libRbt.so (2013.1, Build901 2013/11/27)

>  <Rbt.Parameter_File>
/export/apps/rDock/src/rDock_2013.1_src/data/scripts/dock_solv.prm

>  <Rbt.Receptor>
prm/pocket_docking_6.prm

>  <SCORE>
-9.15254

>  <SCORE.INTER>
-8.572

>  <SCORE.INTER.CONST>
1

>  <SCORE.INTER.POLAR>
0

>  <SCORE.INTER.ROT>
5

>  <SCORE.INTER.SOLV>
10.9466

>  <SCORE.INTER.VDW>
-16.2969

>  <SCORE.INTER.norm>
-0.34288

>  <SCORE.INTRA>
-0.580537

>  <SCORE.INTRA.DIHEDRAL>
0.799444

>  <SCORE.INTRA.DIHEDRAL.0>
3.94806

>  <SCORE.INTRA.POLAR>
0

>  <SCORE.INTRA.POLAR.0>
0

>  <SCORE.INTRA.REPUL>
0

>  <SCORE.INTRA.REPUL.0>
0

>  <SCORE.INTRA.SOLV>
-0.191224

>  <SCORE.INTRA.SOLV.lig_0>
-70.9803

>  <SCORE.INTRA.VDW>
-0.884647

>  <SCORE.INTRA.VDW.0>
-0.709409

>  <SCORE.INTRA.norm>
-0.0232215

>  <SCORE.RESTR>
0

>  <SCORE.RESTR.CAVITY>
0

>  <SCORE.RESTR.norm>
0

>  <SCORE.SYSTEM>
0

>  <SCORE.SYSTEM.CONST>
0

>  <SCORE.SYSTEM.DIHEDRAL>
0

>  <SCORE.SYSTEM.SOLV>
0

>  <SCORE.SYSTEM.norm>
0

>  <SCORE.heavy>
25

>  <SCORE.norm>
-0.366101

>  <RMSD>
5.052

$$$$
ligand
 OpenBabel11021811503D
libRbt.so/2013.1/901 2013/11/27
 25 27  0  0  0  0  0  0  0  0999 V2000
    6.9965  -23.0575   19.4159 N   0  0  0  0  0  0  0  0  0  0  0  0
    6.6674  -23.9139   20.5131 C   0  0  0  0  0  0  0  0  0  0  0  0
    6.7069  -25.1319   20.3905 O   0  0  0  0  0  0  0  0  0  0  0  0
    7.5349  -16.7837   25.1922 N   0  0  0  0  0  0  0  0  0  0  0  0
    6.5143  -18.4130   26.6307 N   0  0  0  0  0  0  0  0  0  0  0  0
    6.4123  -17.5797   25.5696 C   0  0  0  0  0  0  0  0  0  0  0  0
    5.2488  -17.4797   24.8591 N   0  0  0  0  0  0  0  0  0  0  0  0
    4.1471  -18.2070   25.1750 C   0  0  0  0  0  0  0  0  0  0  0  0
    4.2179  -19.1012   26.2700 C   0  0  0  0  0  0  0  0  0  0  0  0
    3.0090  -18.0718   24.4151 O   0  0  0  0  0  0  0  0  0  0  0  0
    1.7447  -19.4731   26.7629 C   0  0  0  0  0  0  0  0  0  0  0  0
    3.1154  -19.9241   26.7398 N   0  0  0  0  0  0  0  0  0  0  0  0
    0.7920  -20.2090   26.5291 O   0  0  0  0  0  0  0  0  0  0  0  0
    3.4879  -21.1629   27.2766 C   0  0  2  0  0  0  0  0  0  0  0  0
    4.4763  -20.9434   28.4506 C   0  0  0  0  0  0  0  0  0  0  0  0
    5.4401  -19.1749   27.0101 C   0  0  0  0  0  0  0  0  0  0  0  0
    5.5542  -20.0907   28.1485 N   0  0  0  0  0  0  0  0  0  0  0  0
    4.1140  -22.0447   26.2151 C   0  0  0  0  0  0  0  0  0  0  0  0
    5.1834  -21.4782   25.4407 N   0  0  0  0  0  0  0  0  0  0  0  0
    6.2915  -23.2971   21.8158 C   0  0  0  0  0  0  0  0  0  0  0  0
    6.8635  -23.7336   23.0029 C   0  0  0  0  0  0  0  0  0  0  0  0
    6.4921  -23.1369   24.2017 C   0  0  0  0  0  0  0  0  0  0  0  0
    5.5620  -22.0994   24.2105 C   0  0  0  0  0  0  0  0  0  0  0  0
    5.0024  -21.6604   23.0232 C   0  0  0  0  0  0  0  0  0  0  0  0
    5.3653  -22.2643   21.8254 C   0  0  0  0  0  0  0  0  0  0  0  0
  1  2  1  0  0  0  0
  2  3  2  0  0  0  0
  2 20  1  0  0  0  0
  4  6  1  0  0  0  0
  5  6  2  0  0  0  0
  5 16  1  0  0  0  0
  6  7  1  0  0  0  0
  7  8  1  0  0  0  0
  8  9  1  0  0  0  0
  8 10  2  0  0  0  0
  9 12  1  0  0  0  0
  9 16  2  0  0  0  0
 11 13  1  0  0  0  0
 11 12  1  0  0  0  0
 12 14  1  0  0  0  0
 14 15  1  0  0  0  0
 14 18  1  6  0  0  0
 15 17  1  0  0  0  0
 16 17  1  0  0  0  0
 18 19  1  0  0  0  0
 19 23  1  0  0  0  0
 20 21  2  0  0  0  0
 20 25  1  0  0  0  0
 21 22  1  0  0  0  0
 22 23  2  0  0  0  0
 23 24  1  0  0  0  0
 24 25  2  0  0  0  0
M  END
>  <CHROM.1>
144.12779039,51.33973619,-162.99563132,-86.86642643,-131.90535500,5.01418728
-20.70692149,24.79724350,-1.11578687,0.73126141,0.55927320

>  <Name>
ligand

>  <RI>
0

>  <Rbt.Current_Directory>
/home/itssahil/PROJECTS/Mol_Feturizer/New_Systems/rnas/4LVV

>  <Rbt.Executable>
rbdock ($Id: //depot/dev/client3/rdock/2013.1/src/exe/rbdock.cxx#4 $)

>  <Rbt.Library>
libRbt.so (2013.1, Build901 2013/11/27)

>  <Rbt.Parameter_File>
/export/apps/rDock/src/rDock_2013.1_src/data/scripts/dock_solv.prm

>  <Rbt.Receptor>
prm/pocket_docking_5.prm

>  <SCORE>
-10.9457

>  <SCORE.INTER>
-10.6888

>  <SCORE.INTER.CONST>
1

>  <SCORE.INTER.POLAR>
0

>  <SCORE.INTER.ROT>
5

>  <SCORE.INTER.SOLV>
12.7618

>  <SCORE.INTER.VDW>
-18.3131

>  <SCORE.INTER.norm>
-0.427551

>  <SCORE.INTRA>
-0.256905

>  <SCORE.INTRA.DIHEDRAL>
-0.334733

>  <SCORE.INTRA.DIHEDRAL.0>
3.94806

>  <SCORE.INTRA.POLAR>
0

>  <SCORE.INTRA.POLAR.0>
0

>  <SCORE.INTRA.REPUL>
0

>  <SCORE.INTRA.REPUL.0>
0

>  <SCORE.INTRA.SOLV>
2.34022

>  <SCORE.INTRA.SOLV.lig_0>
-70.9803

>  <SCORE.INTRA.VDW>
-1.25965

>  <SCORE.INTRA.VDW.0>
-0.709409

>  <SCORE.INTRA.norm>
-0.0102762

>  <SCORE.RESTR>
0

>  <SCORE.RESTR.CAVITY>
0

>  <SCORE.RESTR.norm>
0

>  <SCORE.SYSTEM>
0

>  <SCORE.SYSTEM.CONST>
0

>  <SCORE.SYSTEM.DIHEDRAL>
0

>  <SCORE.SYSTEM.SOLV>
0

>  <SCORE.SYSTEM.norm>
0

>  <SCORE.heavy>
25

>  <SCORE.norm>
-0.437827

>  <RMSD>
5.053

$$$$
ligand
 OpenBabel11021811503D
libRbt.so/2013.1/901 2013/11/27
 25 27  0  0  0  0  0  0  0  0999 V2000
    8.3725  -22.8420   20.4289 N   0  0  0  0  0  0  0  0  0  0  0  0
    7.1254  -23.5242   20.5864 C   0  0  0  0  0  0  0  0  0  0  0  0
    6.7783  -24.3865   19.7889 O   0  0  0  0  0  0  0  0  0  0  0  0
    7.4344  -16.4223   26.4172 N   0  0  0  0  0  0  0  0  0  0  0  0
    6.3549  -18.2830   27.4838 N   0  0  0  0  0  0  0  0  0  0  0  0
    6.3390  -17.3307   26.5228 C   0  0  0  0  0  0  0  0  0  0  0  0
    5.2868  -17.2174   25.6577 N   0  0  0  0  0  0  0  0  0  0  0  0
    4.2152  -18.0487   25.7141 C   0  0  0  0  0  0  0  0  0  0  0  0
    4.2005  -19.0676   26.6965 C   0  0  0  0  0  0  0  0  0  0  0  0
    3.1922  -17.8927   24.8084 O   0  0  0  0  0  0  0  0  0  0  0  0
    1.7214  -19.6585   26.7561 C   0  0  0  0  0  0  0  0  0  0  0  0
    3.1137  -20.0131   26.8927 N   0  0  0  0  0  0  0  0  0  0  0  0
    0.8932  -20.3861   26.2190 O   0  0  0  0  0  0  0  0  0  0  0  0
    3.5060  -21.2831   27.3343 C   0  0  2  0  0  0  0  0  0  0  0  0
    4.2919  -21.1499   28.6641 C   0  0  0  0  0  0  0  0  0  0  0  0
    5.3041  -19.1548   27.6027 C   0  0  0  0  0  0  0  0  0  0  0  0
    5.3275  -20.1978   28.6320 N   0  0  0  0  0  0  0  0  0  0  0  0
    4.3507  -21.9811   26.2876 C   0  0  0  0  0  0  0  0  0  0  0  0
    3.7807  -22.1269   24.9769 N   0  0  0  0  0  0  0  0  0  0  0  0
    6.2617  -23.1789   21.7498 C   0  0  0  0  0  0  0  0  0  0  0  0
    6.5181  -23.7037   23.0090 C   0  0  0  0  0  0  0  0  0  0  0  0
    5.6939  -23.3614   24.0741 C   0  0  0  0  0  0  0  0  0  0  0  0
    4.6258  -22.4873   23.8821 C   0  0  0  0  0  0  0  0  0  0  0  0
    4.3805  -21.9581   22.6271 C   0  0  0  0  0  0  0  0  0  0  0  0
    5.1978  -22.3090   21.5593 C   0  0  0  0  0  0  0  0  0  0  0  0
  1  2  1  0  0  0  0
  2  3  2  0  0  0  0
  2 20  1  0  0  0  0
  4  6  1  0  0  0  0
  5  6  2  0  0  0  0
  5 16  1  0  0  0  0
  6  7  1  0  0  0  0
  7  8  1  0  0  0  0
  8  9  1  0  0  0  0
  8 10  2  0  0  0  0
  9 12  1  0  0  0  0
  9 16  2  0  0  0  0
 11 13  1  0  0  0  0
 11 12  1  0  0  0  0
 12 14  1  0  0  0  0
 14 15  1  0  0  0  0
 14 18  1  6  0  0  0
 15 17  1  0  0  0  0
 16 17  1  0  0  0  0
 18 19  1  0  0  0  0
 19 23  1  0  0  0  0
 20 21  2  0  0  0  0
 20 25  1  0  0  0  0
 21 22  1  0  0  0  0
 22 23  2  0  0  0  0
 23 24  1  0  0  0  0
 24 25  2  0  0  0  0
M  END
>  <CHROM.1>
139.41689139,-55.68072110,165.59836195,35.27759730,-80.20412078,4.91945657
-20.68274307,25.00779040,-1.21570380,0.59558395,0.70182031

>  <Name>
ligand

>  <RI>
0

>  <Rbt.Current_Directory>
/home/itssahil/PROJECTS/Mol_Feturizer/New_Systems/rnas/4LVV

>  <Rbt.Executable>
rbdock ($Id: //depot/dev/client3/rdock/2013.1/src/exe/rbdock.cxx#4 $)

>  <Rbt.Library>
libRbt.so (2013.1, Build901 2013/11/27)

>  <Rbt.Parameter_File>
/export/apps/rDock/src/rDock_2013.1_src/data/scripts/dock_solv.prm

>  <Rbt.Receptor>
prm/pocket_docking_8.prm

>  <SCORE>
-13.724

>  <SCORE.INTER>
-12.7826

>  <SCORE.INTER.CONST>
1

>  <SCORE.INTER.POLAR>
0

>  <SCORE.INTER.ROT>
5

>  <SCORE.INTER.SOLV>
13.7831

>  <SCORE.INTER.VDW>
-20.0495

>  <SCORE.INTER.norm>
-0.511306

>  <SCORE.INTRA>
-0.941321

>  <SCORE.INTRA.DIHEDRAL>
-0.606917

>  <SCORE.INTRA.DIHEDRAL.0>
3.94806

>  <SCORE.INTRA.POLAR>
0

>  <SCORE.INTRA.POLAR.0>
0

>  <SCORE.INTRA.REPUL>
0

>  <SCORE.INTRA.REPUL.0>
0

>  <SCORE.INTRA.SOLV>
0.433202

>  <SCORE.INTRA.SOLV.lig_0>
-70.9803

>  <SCORE.INTRA.VDW>
-0.854464

>  <SCORE.INTRA.VDW.0>
-0.709409

>  <SCORE.INTRA.norm>
-0.0376528

>  <SCORE.RESTR>
0

>  <SCORE.RESTR.CAVITY>
0

>  <SCORE.RESTR.norm>
0

>  <SCORE.SYSTEM>
0

>  <SCORE.SYSTEM.CONST>
0

>  <SCORE.SYSTEM.DIHEDRAL>
0

>  <SCORE.SYSTEM.SOLV>
0

>  <SCORE.SYSTEM.norm>
0

>  <SCORE.heavy>
25

>  <SCORE.norm>
-0.548959

>  <RMSD>
5.076

$$$$
ligand
 OpenBabel11021811503D
libRbt.so/2013.1/901 2013/11/27
 25 27  0  0  0  0  0  0  0  0999 V2000
    8.7293  -23.5136   20.5212 N   0  0  0  0  0  0  0  0  0  0  0  0
    7.3871  -24.0006   20.6022 C   0  0  0  0  0  0  0  0  0  0  0  0
    6.9770  -24.8408   19.8109 O   0  0  0  0  0  0  0  0  0  0  0  0
    7.7358  -16.3627   26.4318 N   0  0  0  0  0  0  0  0  0  0  0  0
    6.4988  -18.1856   27.3868 N   0  0  0  0  0  0  0  0  0  0  0  0
    6.5989  -17.2250   26.4391 C   0  0  0  0  0  0  0  0  0  0  0  0
    5.6246  -17.0600   25.4948 N   0  0  0  0  0  0  0  0  0  0  0  0
    4.5185  -17.8459   25.4560 C   0  0  0  0  0  0  0  0  0  0  0  0
    4.3835  -18.8719   26.4217 C   0  0  0  0  0  0  0  0  0  0  0  0
    3.5783  -17.6390   24.4740 O   0  0  0  0  0  0  0  0  0  0  0  0
    1.8853  -19.3584   26.2774 C   0  0  0  0  0  0  0  0  0  0  0  0
    3.2464  -19.7725   26.5197 N   0  0  0  0  0  0  0  0  0  0  0  0
    0.9382  -19.7330   26.9604 O   0  0  0  0  0  0  0  0  0  0  0  0
    3.5495  -21.0616   26.9756 C   0  0  2  0  0  0  0  0  0  0  0  0
    4.2317  -20.9734   28.3650 C   0  0  0  0  0  0  0  0  0  0  0  0
    5.4068  -19.0134   27.4115 C   0  0  0  0  0  0  0  0  0  0  0  0
    5.3051  -20.0654   28.4267 N   0  0  0  0  0  0  0  0  0  0  0  0
    4.4455  -21.7854   25.9908 C   0  0  0  0  0  0  0  0  0  0  0  0
    3.9536  -21.9406   24.6499 N   0  0  0  0  0  0  0  0  0  0  0  0
    6.4995  -23.4796   21.6790 C   0  0  0  0  0  0  0  0  0  0  0  0
    6.7172  -23.8164   23.0079 C   0  0  0  0  0  0  0  0  0  0  0  0
    5.8716  -23.3132   23.9890 C   0  0  0  0  0  0  0  0  0  0  0  0
    4.8207  -22.4662   23.6426 C   0  0  0  0  0  0  0  0  0  0  0  0
    4.6140  -22.1246   22.3175 C   0  0  0  0  0  0  0  0  0  0  0  0
    5.4528  -22.6366   21.3348 C   0  0  0  0  0  0  0  0  0  0  0  0
  1  2  1  0  0  0  0
  2  3  2  0  0  0  0
  2 20  1  0  0  0  0
  4  6  1  0  0  0  0
  5  6  2  0  0  0  0
  5 16  1  0  0  0  0
  6  7  1  0  0  0  0
  7  8  1  0  0  0  0
  8  9  1  0  0  0  0
  8 10  2  0  0  0  0
  9 12  1  0  0  0  0
  9 16  2  0  0  0  0
 11 13  1  0  0  0  0
 11 12  1  0  0  0  0
 12 14  1  0  0  0  0
 14 15  1  0  0  0  0
 14 18  1  6  0  0  0
 15 17  1  0  0  0  0
 16 17  1  0  0  0  0
 18 19  1  0  0  0  0
 19 23  1  0  0  0  0
 20 21  2  0  0  0  0
 20 25  1  0  0  0  0
 21 22  1  0  0  0  0
 22 23  2  0  0  0  0
 23 24  1  0  0  0  0
 24 25  2  0  0  0  0
M  END
>  <CHROM.1>
-139.31051477,-58.00514362,172.35100350,26.61659420,-69.97411767,5.10636138
-20.63969741,24.86258412,-1.22363431,0.51873604,0.65333361

>  <Name>
ligand

>  <RI>
0

>  <Rbt.Current_Directory>
/home/itssahil/PROJECTS/Mol_Feturizer/New_Systems/rnas/4LVV

>  <Rbt.Executable>
rbdock ($Id: //depot/dev/client3/rdock/2013.1/src/exe/rbdock.cxx#4 $)

>  <Rbt.Library>
libRbt.so (2013.1, Build901 2013/11/27)

>  <Rbt.Parameter_File>
/export/apps/rDock/src/rDock_2013.1_src/data/scripts/dock_solv.prm

>  <Rbt.Receptor>
prm/pocket_docking_8.prm

>  <SCORE>
-12.6351

>  <SCORE.INTER>
-11.8916

>  <SCORE.INTER.CONST>
1

>  <SCORE.INTER.POLAR>
0

>  <SCORE.INTER.ROT>
5

>  <SCORE.INTER.SOLV>
12.5363

>  <SCORE.INTER.VDW>
-19.0398

>  <SCORE.INTER.norm>
-0.475663

>  <SCORE.INTRA>
-0.743547

>  <SCORE.INTRA.DIHEDRAL>
-0.488292

>  <SCORE.INTRA.DIHEDRAL.0>
3.94806

>  <SCORE.INTRA.POLAR>
0

>  <SCORE.INTRA.POLAR.0>
0

>  <SCORE.INTRA.REPUL>
0

>  <SCORE.INTRA.REPUL.0>
0

>  <SCORE.INTRA.SOLV>
-0.112966

>  <SCORE.INTRA.SOLV.lig_0>
-70.9803

>  <SCORE.INTRA.VDW>
-0.442918

>  <SCORE.INTRA.VDW.0>
-0.709409

>  <SCORE.INTRA.norm>
-0.0297419

>  <SCORE.RESTR>
0

>  <SCORE.RESTR.CAVITY>
0

>  <SCORE.RESTR.norm>
0

>  <SCORE.SYSTEM>
0

>  <SCORE.SYSTEM.CONST>
0

>  <SCORE.SYSTEM.DIHEDRAL>
0

>  <SCORE.SYSTEM.SOLV>
0

>  <SCORE.SYSTEM.norm>
0

>  <SCORE.heavy>
25

>  <SCORE.norm>
-0.505404

>  <RMSD>
5.080

$$$$
ligand
 OpenBabel11021811503D
libRbt.so/2013.1/901 2013/11/27
 25 27  0  0  0  0  0  0  0  0999 V2000
    9.6092  -25.4167   21.2120 N   0  0  0  0  0  0  0  0  0  0  0  0
    8.4356  -24.6096   21.0825 C   0  0  0  0  0  0  0  0  0  0  0  0
    7.9075  -24.4431   19.9901 O   0  0  0  0  0  0  0  0  0  0  0  0
    7.7536  -14.8108   26.4083 N   0  0  0  0  0  0  0  0  0  0  0  0
    6.9099  -16.8910   27.2606 N   0  0  0  0  0  0  0  0  0  0  0  0
    6.8443  -15.9080   26.3331 C   0  0  0  0  0  0  0  0  0  0  0  0
    5.9150  -15.9427   25.3314 N   0  0  0  0  0  0  0  0  0  0  0  0
    5.0209  -16.9571   25.2130 C   0  0  0  0  0  0  0  0  0  0  0  0
    5.0664  -18.0123   26.1555 C   0  0  0  0  0  0  0  0  0  0  0  0
    4.1175  -16.9424   24.1764 O   0  0  0  0  0  0  0  0  0  0  0  0
    2.7572  -19.0474   25.8478 C   0  0  0  0  0  0  0  0  0  0  0  0
    4.1602  -19.1490   26.1703 N   0  0  0  0  0  0  0  0  0  0  0  0
    1.8723  -19.0401   26.6967 O   0  0  0  0  0  0  0  0  0  0  0  0
    4.7214  -20.3478   26.6283 C   0  0  2  0  0  0  0  0  0  0  0  0
    5.2830  -20.1443   28.0590 C   0  0  0  0  0  0  0  0  0  0  0  0
    6.0353  -17.9448   27.2060 C   0  0  0  0  0  0  0  0  0  0  0  0
    6.1162  -19.0190   28.1995 N   0  0  0  0  0  0  0  0  0  0  0  0
    5.8146  -20.8237   25.6931 C   0  0  0  0  0  0  0  0  0  0  0  0
    6.1244  -22.2266   25.7081 N   0  0  0  0  0  0  0  0  0  0  0  0
    7.8554  -23.9875   22.3053 C   0  0  0  0  0  0  0  0  0  0  0  0
    8.6739  -23.5101   23.3196 C   0  0  0  0  0  0  0  0  0  0  0  0
    8.1015  -22.9342   24.4473 C   0  0  0  0  0  0  0  0  0  0  0  0
    6.7163  -22.8252   24.5531 C   0  0  0  0  0  0  0  0  0  0  0  0
    5.9046  -23.2929   23.5344 C   0  0  0  0  0  0  0  0  0  0  0  0
    6.4764  -23.8789   22.4115 C   0  0  0  0  0  0  0  0  0  0  0  0
  1  2  1  0  0  0  0
  2  3  2  0  0  0  0
  2 20  1  0  0  0  0
  4  6  1  0  0  0  0
  5  6  2  0  0  0  0
  5 16  1  0  0  0  0
  6  7  1  0  0  0  0
  7  8  1  0  0  0  0
  8  9  1  0  0  0  0
  8 10  2  0  0  0  0
  9 12  1  0  0  0  0
  9 16  2  0  0  0  0
 11 13  1  0  0  0  0
 11 12  1  0  0  0  0
 12 14  1  0  0  0  0
 14 15  1  0  0  0  0
 14 18  1  6  0  0  0
 15 17  1  0  0  0  0
 16 17  1  0  0  0  0
 18 19  1  0  0  0  0
 19 23  1  0  0  0  0
 20 21  2  0  0  0  0
 20 25  1  0  0  0  0
 21 22  1  0  0  0  0
 22 23  2  0  0  0  0
 23 24  1  0  0  0  0
 24 25  2  0  0  0  0
M  END
>  <CHROM.1>
-102.54219080,-156.57881924,155.44964848,93.21323622,36.69678738,6.10053152
-20.25915945,24.97681118,-1.19982491,0.50874280,0.38335693

>  <Name>
ligand

>  <RI>
0

>  <Rbt.Current_Directory>
/home/itssahil/PROJECTS/Mol_Feturizer/New_Systems/rnas/4LVV

>  <Rbt.Executable>
rbdock ($Id: //depot/dev/client3/rdock/2013.1/src/exe/rbdock.cxx#4 $)

>  <Rbt.Library>
libRbt.so (2013.1, Build901 2013/11/27)

>  <Rbt.Parameter_File>
/export/apps/rDock/src/rDock_2013.1_src/data/scripts/dock_solv.prm

>  <Rbt.Receptor>
prm/pocket_docking_5.prm

>  <SCORE>
-7.29119

>  <SCORE.INTER>
-6.82253

>  <SCORE.INTER.CONST>
1

>  <SCORE.INTER.POLAR>
0

>  <SCORE.INTER.ROT>
5

>  <SCORE.INTER.SOLV>
10.2272

>  <SCORE.INTER.VDW>
-14.8908

>  <SCORE.INTER.norm>
-0.272901

>  <SCORE.INTRA>
-0.468664

>  <SCORE.INTRA.DIHEDRAL>
1.35062

>  <SCORE.INTRA.DIHEDRAL.0>
3.94806

>  <SCORE.INTRA.POLAR>
0

>  <SCORE.INTRA.POLAR.0>
0

>  <SCORE.INTRA.REPUL>
0

>  <SCORE.INTRA.REPUL.0>
0

>  <SCORE.INTRA.SOLV>
-0.615719

>  <SCORE.INTRA.SOLV.lig_0>
-70.9803

>  <SCORE.INTRA.VDW>
-0.836116

>  <SCORE.INTRA.VDW.0>
-0.709409

>  <SCORE.INTRA.norm>
-0.0187466

>  <SCORE.RESTR>
0

>  <SCORE.RESTR.CAVITY>
0

>  <SCORE.RESTR.norm>
0

>  <SCORE.SYSTEM>
0

>  <SCORE.SYSTEM.CONST>
0

>  <SCORE.SYSTEM.DIHEDRAL>
0

>  <SCORE.SYSTEM.SOLV>
0

>  <SCORE.SYSTEM.norm>
0

>  <SCORE.heavy>
25

>  <SCORE.norm>
-0.291648

>  <RMSD>
5.082

$$$$
ligand
 OpenBabel11021811503D
libRbt.so/2013.1/901 2013/11/27
 25 27  0  0  0  0  0  0  0  0999 V2000
    7.9136  -24.5725   20.6491 N   0  0  0  0  0  0  0  0  0  0  0  0
    7.0373  -23.4433   20.5984 C   0  0  0  0  0  0  0  0  0  0  0  0
    6.9669  -22.7501   19.5911 O   0  0  0  0  0  0  0  0  0  0  0  0
    7.3066  -16.2997   26.0936 N   0  0  0  0  0  0  0  0  0  0  0  0
    6.3223  -18.1301   27.2961 N   0  0  0  0  0  0  0  0  0  0  0  0
    6.2440  -17.2322   26.2869 C   0  0  0  0  0  0  0  0  0  0  0  0
    5.1595  -17.1965   25.4556 N   0  0  0  0  0  0  0  0  0  0  0  0
    4.1166  -18.0541   25.5948 C   0  0  0  0  0  0  0  0  0  0  0  0
    4.1671  -19.0181   26.6301 C   0  0  0  0  0  0  0  0  0  0  0  0
    3.0587  -17.9771   24.7197 O   0  0  0  0  0  0  0  0  0  0  0  0
    1.7109  -19.6762   26.8105 C   0  0  0  0  0  0  0  0  0  0  0  0
    3.1173  -19.9825   26.9155 N   0  0  0  0  0  0  0  0  0  0  0  0
    0.9075  -20.4010   26.2334 O   0  0  0  0  0  0  0  0  0  0  0  0
    3.5635  -21.2148   27.4097 C   0  0  2  0  0  0  0  0  0  0  0  0
    4.3904  -20.9870   28.7012 C   0  0  0  0  0  0  0  0  0  0  0  0
    5.3035  -19.0241   27.4992 C   0  0  0  0  0  0  0  0  0  0  0  0
    5.3945  -20.0085   28.5810 N   0  0  0  0  0  0  0  0  0  0  0  0
    4.3927  -21.9439   26.3718 C   0  0  0  0  0  0  0  0  0  0  0  0
    3.7796  -22.1844   25.0949 N   0  0  0  0  0  0  0  0  0  0  0  0
    6.1970  -23.1344   21.7888 C   0  0  0  0  0  0  0  0  0  0  0  0
    6.4901  -23.6819   23.0302 C   0  0  0  0  0  0  0  0  0  0  0  0
    5.6870  -23.3733   24.1214 C   0  0  0  0  0  0  0  0  0  0  0  0
    4.6032  -22.5101   23.9732 C   0  0  0  0  0  0  0  0  0  0  0  0
    4.3212  -21.9582   22.7358 C   0  0  0  0  0  0  0  0  0  0  0  0
    5.1175  -22.2753   21.6419 C   0  0  0  0  0  0  0  0  0  0  0  0
  1  2  1  0  0  0  0
  2  3  2  0  0  0  0
  2 20  1  0  0  0  0
  4  6  1  0  0  0  0
  5  6  2  0  0  0  0
  5 16  1  0  0  0  0
  6  7  1  0  0  0  0
  7  8  1  0  0  0  0
  8  9  1  0  0  0  0
  8 10  2  0  0  0  0
  9 12  1  0  0  0  0
  9 16  2  0  0  0  0
 11 13  1  0  0  0  0
 11 12  1  0  0  0  0
 12 14  1  0  0  0  0
 14 15  1  0  0  0  0
 14 18  1  6  0  0  0
 15 17  1  0  0  0  0
 16 17  1  0  0  0  0
 18 19  1  0  0  0  0
 19 23  1  0  0  0  0
 20 21  2  0  0  0  0
 20 25  1  0  0  0  0
 21 22  1  0  0  0  0
 22 23  2  0  0  0  0
 23 24  1  0  0  0  0
 24 25  2  0  0  0  0
M  END
>  <CHROM.1>
132.47355340,-56.04876936,162.29794150,40.64773755,16.88361081,4.88123352
-20.63694542,24.98365627,-1.17914643,0.69431234,0.64016648

>  <Name>
ligand

>  <RI>
0

>  <Rbt.Current_Directory>
/home/itssahil/PROJECTS/Mol_Feturizer/New_Systems/rnas/4LVV

>  <Rbt.Executable>
rbdock ($Id: //depot/dev/client3/rdock/2013.1/src/exe/rbdock.cxx#4 $)

>  <Rbt.Library>
libRbt.so (2013.1, Build901 2013/11/27)

>  <Rbt.Parameter_File>
/export/apps/rDock/src/rDock_2013.1_src/data/scripts/dock_solv.prm

>  <Rbt.Receptor>
prm/pocket_docking_5.prm

>  <SCORE>
-13.7651

>  <SCORE.INTER>
-13.0362

>  <SCORE.INTER.CONST>
1

>  <SCORE.INTER.POLAR>
0

>  <SCORE.INTER.ROT>
5

>  <SCORE.INTER.SOLV>
13.6806

>  <SCORE.INTER.VDW>
-20.1844

>  <SCORE.INTER.norm>
-0.521449

>  <SCORE.INTRA>
-0.728912

>  <SCORE.INTRA.DIHEDRAL>
-0.491101

>  <SCORE.INTRA.DIHEDRAL.0>
3.94806

>  <SCORE.INTRA.POLAR>
0

>  <SCORE.INTRA.POLAR.0>
0

>  <SCORE.INTRA.REPUL>
0

>  <SCORE.INTRA.REPUL.0>
0

>  <SCORE.INTRA.SOLV>
0.464718

>  <SCORE.INTRA.SOLV.lig_0>
-70.9803

>  <SCORE.INTRA.VDW>
-0.715721

>  <SCORE.INTRA.VDW.0>
-0.709409

>  <SCORE.INTRA.norm>
-0.0291565

>  <SCORE.RESTR>
0

>  <SCORE.RESTR.CAVITY>
0

>  <SCORE.RESTR.norm>
0

>  <SCORE.SYSTEM>
0

>  <SCORE.SYSTEM.CONST>
0

>  <SCORE.SYSTEM.DIHEDRAL>
0

>  <SCORE.SYSTEM.SOLV>
0

>  <SCORE.SYSTEM.norm>
0

>  <SCORE.heavy>
25

>  <SCORE.norm>
-0.550605

>  <RMSD>
5.087

$$$$
ligand
 OpenBabel11021811503D
libRbt.so/2013.1/901 2013/11/27
 25 27  0  0  0  0  0  0  0  0999 V2000
    8.1560  -22.5818   20.2289 N   0  0  0  0  0  0  0  0  0  0  0  0
    7.0873  -23.4704   20.5658 C   0  0  0  0  0  0  0  0  0  0  0  0
    6.8768  -24.4772   19.9008 O   0  0  0  0  0  0  0  0  0  0  0  0
    7.4121  -16.2670   26.3060 N   0  0  0  0  0  0  0  0  0  0  0  0
    6.3629  -18.1195   27.4162 N   0  0  0  0  0  0  0  0  0  0  0  0
    6.3328  -17.1919   26.4316 C   0  0  0  0  0  0  0  0  0  0  0  0
    5.2811  -17.1190   25.5615 N   0  0  0  0  0  0  0  0  0  0  0  0
    4.2244  -17.9677   25.6360 C   0  0  0  0  0  0  0  0  0  0  0  0
    4.2249  -18.9619   26.6436 C   0  0  0  0  0  0  0  0  0  0  0  0
    3.2014  -17.8526   24.7243 O   0  0  0  0  0  0  0  0  0  0  0  0
    1.7566  -19.5953   26.7120 C   0  0  0  0  0  0  0  0  0  0  0  0
    3.1546  -19.9214   26.8608 N   0  0  0  0  0  0  0  0  0  0  0  0
    0.9081  -20.4151   26.3778 O   0  0  0  0  0  0  0  0  0  0  0  0
    3.5682  -21.1727   27.3349 C   0  0  2  0  0  0  0  0  0  0  0  0
    4.3478  -20.9925   28.6628 C   0  0  0  0  0  0  0  0  0  0  0  0
    5.3274  -19.0067   27.5543 C   0  0  0  0  0  0  0  0  0  0  0  0
    5.3665  -20.0230   28.6094 N   0  0  0  0  0  0  0  0  0  0  0  0
    4.4282  -21.8814   26.3080 C   0  0  0  0  0  0  0  0  0  0  0  0
    3.8149  -22.2008   25.0486 N   0  0  0  0  0  0  0  0  0  0  0  0
    6.2432  -23.1585   21.7528 C   0  0  0  0  0  0  0  0  0  0  0  0
    6.5382  -23.6951   22.9985 C   0  0  0  0  0  0  0  0  0  0  0  0
    5.7316  -23.3839   24.0864 C   0  0  0  0  0  0  0  0  0  0  0  0
    4.6422  -22.5292   23.9304 C   0  0  0  0  0  0  0  0  0  0  0  0
    4.3583  -21.9880   22.6887 C   0  0  0  0  0  0  0  0  0  0  0  0
    5.1582  -22.3078   21.5982 C   0  0  0  0  0  0  0  0  0  0  0  0
  1  2  1  0  0  0  0
  2  3  2  0  0  0  0
  2 20  1  0  0  0  0
  4  6  1  0  0  0  0
  5  6  2  0  0  0  0
  5 16  1  0  0  0  0
  6  7  1  0  0  0  0
  7  8  1  0  0  0  0
  8  9  1  0  0  0  0
  8 10  2  0  0  0  0
  9 12  1  0  0  0  0
  9 16  2  0  0  0  0
 11 13  1  0  0  0  0
 11 12  1  0  0  0  0
 12 14  1  0  0  0  0
 14 15  1  0  0  0  0
 14 18  1  6  0  0  0
 15 17  1  0  0  0  0
 16 17  1  0  0  0  0
 18 19  1  0  0  0  0
 19 23  1  0  0  0  0
 20 21  2  0  0  0  0
 20 25  1  0  0  0  0
 21 22  1  0  0  0  0
 22 23  2  0  0  0  0
 23 24  1  0  0  0  0
 24 25  2  0  0  0  0
M  END
>  <CHROM.1>
150.62104717,-62.31597079,163.20238352,43.74839664,-93.47803801,4.92995083
-20.61551632,24.99152606,-1.21327859,0.64850294,0.67098747

>  <Name>
ligand

>  <RI>
0

>  <Rbt.Current_Directory>
/home/itssahil/PROJECTS/Mol_Feturizer/New_Systems/rnas/4LVV

>  <Rbt.Executable>
rbdock ($Id: //depot/dev/client3/rdock/2013.1/src/exe/rbdock.cxx#4 $)

>  <Rbt.Library>
libRbt.so (2013.1, Build901 2013/11/27)

>  <Rbt.Parameter_File>
/export/apps/rDock/src/rDock_2013.1_src/data/scripts/dock_solv.prm

>  <Rbt.Receptor>
prm/pocket_docking_6.prm

>  <SCORE>
-13.7682

>  <SCORE.INTER>
-12.6448

>  <SCORE.INTER.CONST>
1

>  <SCORE.INTER.POLAR>
0

>  <SCORE.INTER.ROT>
5

>  <SCORE.INTER.SOLV>
14.03

>  <SCORE.INTER.VDW>
-20.0398

>  <SCORE.INTER.norm>
-0.505791

>  <SCORE.INTRA>
-1.12341

>  <SCORE.INTRA.DIHEDRAL>
-0.643125

>  <SCORE.INTRA.DIHEDRAL.0>
3.94806

>  <SCORE.INTRA.POLAR>
0

>  <SCORE.INTRA.POLAR.0>
0

>  <SCORE.INTRA.REPUL>
0

>  <SCORE.INTRA.REPUL.0>
0

>  <SCORE.INTRA.SOLV>
0.272472

>  <SCORE.INTRA.SOLV.lig_0>
-70.9803

>  <SCORE.INTRA.VDW>
-0.938087

>  <SCORE.INTRA.VDW.0>
-0.709409

>  <SCORE.INTRA.norm>
-0.0449365

>  <SCORE.RESTR>
0

>  <SCORE.RESTR.CAVITY>
0

>  <SCORE.RESTR.norm>
0

>  <SCORE.SYSTEM>
0

>  <SCORE.SYSTEM.CONST>
0

>  <SCORE.SYSTEM.DIHEDRAL>
0

>  <SCORE.SYSTEM.SOLV>
0

>  <SCORE.SYSTEM.norm>
0

>  <SCORE.heavy>
25

>  <SCORE.norm>
-0.550728

>  <RMSD>
5.104

$$$$
ligand
 OpenBabel11021811503D
libRbt.so/2013.1/901 2013/11/27
 25 27  0  0  0  0  0  0  0  0999 V2000
    8.4845  -23.0235   20.5840 N   0  0  0  0  0  0  0  0  0  0  0  0
    7.2225  -23.6762   20.7478 C   0  0  0  0  0  0  0  0  0  0  0  0
    6.8765  -24.5705   19.9859 O   0  0  0  0  0  0  0  0  0  0  0  0
    7.6915  -16.4034   26.4297 N   0  0  0  0  0  0  0  0  0  0  0  0
    6.5660  -18.2190   27.5262 N   0  0  0  0  0  0  0  0  0  0  0  0
    6.5775  -17.2877   26.5446 C   0  0  0  0  0  0  0  0  0  0  0  0
    5.5355  -17.1728   25.6675 N   0  0  0  0  0  0  0  0  0  0  0  0
    4.4472  -17.9816   25.7318 C   0  0  0  0  0  0  0  0  0  0  0  0
    4.4036  -18.9783   26.7359 C   0  0  0  0  0  0  0  0  0  0  0  0
    3.4357  -17.8254   24.8134 O   0  0  0  0  0  0  0  0  0  0  0  0
    1.9129  -19.5192   26.7850 C   0  0  0  0  0  0  0  0  0  0  0  0
    3.2966  -19.8979   26.9423 N   0  0  0  0  0  0  0  0  0  0  0  0
    1.0607  -20.2687   26.3206 O   0  0  0  0  0  0  0  0  0  0  0  0
    3.6598  -21.1653   27.4150 C   0  0  2  0  0  0  0  0  0  0  0  0
    4.4363  -21.0186   28.7489 C   0  0  0  0  0  0  0  0  0  0  0  0
    5.4971  -19.0673   27.6541 C   0  0  0  0  0  0  0  0  0  0  0  0
    5.4908  -20.0877   28.7059 N   0  0  0  0  0  0  0  0  0  0  0  0
    4.4999  -21.9024   26.3916 C   0  0  0  0  0  0  0  0  0  0  0  0
    3.8966  -22.1620   25.1138 N   0  0  0  0  0  0  0  0  0  0  0  0
    6.3416  -23.2601   21.8746 C   0  0  0  0  0  0  0  0  0  0  0  0
    5.2809  -22.3892   21.6664 C   0  0  0  0  0  0  0  0  0  0  0  0
    4.4770  -22.0209   22.7384 C   0  0  0  0  0  0  0  0  0  0  0  0
    4.7260  -22.5325   24.0104 C   0  0  0  0  0  0  0  0  0  0  0  0
    5.7781  -23.4090   24.2110 C   0  0  0  0  0  0  0  0  0  0  0  0
    6.5891  -23.7688   23.1413 C   0  0  0  0  0  0  0  0  0  0  0  0
  1  2  1  0  0  0  0
  2  3  2  0  0  0  0
  2 20  1  0  0  0  0
  4  6  1  0  0  0  0
  5  6  2  0  0  0  0
  5 16  1  0  0  0  0
  6  7  1  0  0  0  0
  7  8  1  0  0  0  0
  8  9  1  0  0  0  0
  8 10  2  0  0  0  0
  9 12  1  0  0  0  0
  9 16  2  0  0  0  0
 11 13  1  0  0  0  0
 11 12  1  0  0  0  0
 12 14  1  0  0  0  0
 14 15  1  0  0  0  0
 14 18  1  6  0  0  0
 15 17  1  0  0  0  0
 16 17  1  0  0  0  0
 18 19  1  0  0  0  0
 19 23  1  0  0  0  0
 20 21  2  0  0  0  0
 20 25  1  0  0  0  0
 21 22  1  0  0  0  0
 22 23  2  0  0  0  0
 23 24  1  0  0  0  0
 24 25  2  0  0  0  0
M  END
>  <CHROM.1>
143.39791574,-60.64683986,163.99862550,-139.60790299,99.45456323,5.07787278
-20.66660007,25.09207284,-1.24310019,0.58108456,0.68703801

>  <Name>
ligand

>  <RI>
0

>  <Rbt.Current_Directory>
/home/itssahil/PROJECTS/Mol_Feturizer/New_Systems/rnas/4LVV

>  <Rbt.Executable>
rbdock ($Id: //depot/dev/client3/rdock/2013.1/src/exe/rbdock.cxx#4 $)

>  <Rbt.Library>
libRbt.so (2013.1, Build901 2013/11/27)

>  <Rbt.Parameter_File>
/export/apps/rDock/src/rDock_2013.1_src/data/scripts/dock_solv.prm

>  <Rbt.Receptor>
prm/pocket_docking_6.prm

>  <SCORE>
-13.5954

>  <SCORE.INTER>
-12.6127

>  <SCORE.INTER.CONST>
1

>  <SCORE.INTER.POLAR>
0

>  <SCORE.INTER.ROT>
5

>  <SCORE.INTER.SOLV>
12.6831

>  <SCORE.INTER.VDW>
-19.5695

>  <SCORE.INTER.norm>
-0.504507

>  <SCORE.INTRA>
-0.982673

>  <SCORE.INTRA.DIHEDRAL>
-0.613611

>  <SCORE.INTRA.DIHEDRAL.0>
3.94806

>  <SCORE.INTRA.POLAR>
0

>  <SCORE.INTRA.POLAR.0>
0

>  <SCORE.INTRA.REPUL>
0

>  <SCORE.INTRA.REPUL.0>
0

>  <SCORE.INTRA.SOLV>
0.332051

>  <SCORE.INTRA.SOLV.lig_0>
-70.9803

>  <SCORE.INTRA.VDW>
-0.841893

>  <SCORE.INTRA.VDW.0>
-0.709409

>  <SCORE.INTRA.norm>
-0.0393069

>  <SCORE.RESTR>
0

>  <SCORE.RESTR.CAVITY>
0

>  <SCORE.RESTR.norm>
0

>  <SCORE.SYSTEM>
0

>  <SCORE.SYSTEM.CONST>
0

>  <SCORE.SYSTEM.DIHEDRAL>
0

>  <SCORE.SYSTEM.SOLV>
0

>  <SCORE.SYSTEM.norm>
0

>  <SCORE.heavy>
25

>  <SCORE.norm>
-0.543814

>  <RMSD>
5.105

$$$$
ligand
 OpenBabel11021811503D
libRbt.so/2013.1/901 2013/11/27
 25 27  0  0  0  0  0  0  0  0999 V2000
    7.8905  -24.6697   20.5757 N   0  0  0  0  0  0  0  0  0  0  0  0
    7.0404  -23.5209   20.5200 C   0  0  0  0  0  0  0  0  0  0  0  0
    6.9798  -22.8353   19.5069 O   0  0  0  0  0  0  0  0  0  0  0  0
    7.3685  -16.2936   26.2290 N   0  0  0  0  0  0  0  0  0  0  0  0
    6.3912  -18.1697   27.3649 N   0  0  0  0  0  0  0  0  0  0  0  0
    6.3077  -17.2340   26.3911 C   0  0  0  0  0  0  0  0  0  0  0  0
    5.2196  -17.1677   25.5665 N   0  0  0  0  0  0  0  0  0  0  0  0
    4.1781  -18.0312   25.6773 C   0  0  0  0  0  0  0  0  0  0  0  0
    4.2340  -19.0340   26.6747 C   0  0  0  0  0  0  0  0  0  0  0  0
    3.1163  -17.9220   24.8103 O   0  0  0  0  0  0  0  0  0  0  0  0
    1.7793  -19.7013   26.8404 C   0  0  0  0  0  0  0  0  0  0  0  0
    3.1864  -20.0098   26.9276 N   0  0  0  0  0  0  0  0  0  0  0  0
    0.9835  -20.3741   26.1940 O   0  0  0  0  0  0  0  0  0  0  0  0
    3.6359  -21.2596   27.3724 C   0  0  2  0  0  0  0  0  0  0  0  0
    4.4682  -21.0804   28.6681 C   0  0  0  0  0  0  0  0  0  0  0  0
    5.3742  -19.0720   27.5380 C   0  0  0  0  0  0  0  0  0  0  0  0
    5.4709  -20.0968   28.5811 N   0  0  0  0  0  0  0  0  0  0  0  0
    4.4613  -21.9476   26.3038 C   0  0  0  0  0  0  0  0  0  0  0  0
    3.8398  -22.1476   25.0240 N   0  0  0  0  0  0  0  0  0  0  0  0
    6.2150  -23.1818   21.7127 C   0  0  0  0  0  0  0  0  0  0  0  0
    6.5182  -23.7054   22.9620 C   0  0  0  0  0  0  0  0  0  0  0  0
    5.7290  -23.3689   24.0551 C   0  0  0  0  0  0  0  0  0  0  0  0
    4.6490  -22.5020   23.9005 C   0  0  0  0  0  0  0  0  0  0  0  0
    4.3572  -21.9740   22.6550 C   0  0  0  0  0  0  0  0  0  0  0  0
    5.1395  -22.3190   21.5595 C   0  0  0  0  0  0  0  0  0  0  0  0
  1  2  1  0  0  0  0
  2  3  2  0  0  0  0
  2 20  1  0  0  0  0
  4  6  1  0  0  0  0
  5  6  2  0  0  0  0
  5 16  1  0  0  0  0
  6  7  1  0  0  0  0
  7  8  1  0  0  0  0
  8  9  1  0  0  0  0
  8 10  2  0  0  0  0
  9 12  1  0  0  0  0
  9 16  2  0  0  0  0
 11 13  1  0  0  0  0
 11 12  1  0  0  0  0
 12 14  1  0  0  0  0
 14 15  1  0  0  0  0
 14 18  1  6  0  0  0
 15 17  1  0  0  0  0
 16 17  1  0  0  0  0
 18 19  1  0  0  0  0
 19 23  1  0  0  0  0
 20 21  2  0  0  0  0
 20 25  1  0  0  0  0
 21 22  1  0  0  0  0
 22 23  2  0  0  0  0
 23 24  1  0  0  0  0
 24 25  2  0  0  0  0
M  END
>  <CHROM.1>
129.37662791,-56.44742772,165.71296922,37.67764298,18.08984660,4.93233077
-20.66017614,24.97613747,-1.20780512,0.68037986,0.66277205

>  <Name>
ligand

>  <RI>
0

>  <Rbt.Current_Directory>
/home/itssahil/PROJECTS/Mol_Feturizer/New_Systems/rnas/4LVV

>  <Rbt.Executable>
rbdock ($Id: //depot/dev/client3/rdock/2013.1/src/exe/rbdock.cxx#4 $)

>  <Rbt.Library>
libRbt.so (2013.1, Build901 2013/11/27)

>  <Rbt.Parameter_File>
/export/apps/rDock/src/rDock_2013.1_src/data/scripts/dock_solv.prm

>  <Rbt.Receptor>
prm/pocket_docking_7.prm

>  <SCORE>
-13.7508

>  <SCORE.INTER>
-13.0581

>  <SCORE.INTER.CONST>
1

>  <SCORE.INTER.POLAR>
0

>  <SCORE.INTER.ROT>
5

>  <SCORE.INTER.SOLV>
13.5699

>  <SCORE.INTER.VDW>
-20.162

>  <SCORE.INTER.norm>
-0.522324

>  <SCORE.INTRA>
-0.69266

>  <SCORE.INTRA.DIHEDRAL>
-0.558293

>  <SCORE.INTRA.DIHEDRAL.0>
3.94806

>  <SCORE.INTRA.POLAR>
0

>  <SCORE.INTRA.POLAR.0>
0

>  <SCORE.INTRA.REPUL>
0

>  <SCORE.INTRA.REPUL.0>
0

>  <SCORE.INTRA.SOLV>
0.46545

>  <SCORE.INTRA.SOLV.lig_0>
-70.9803

>  <SCORE.INTRA.VDW>
-0.646239

>  <SCORE.INTRA.VDW.0>
-0.709409

>  <SCORE.INTRA.norm>
-0.0277064

>  <SCORE.RESTR>
0

>  <SCORE.RESTR.CAVITY>
0

>  <SCORE.RESTR.norm>
0

>  <SCORE.SYSTEM>
0

>  <SCORE.SYSTEM.CONST>
0

>  <SCORE.SYSTEM.DIHEDRAL>
0

>  <SCORE.SYSTEM.SOLV>
0

>  <SCORE.SYSTEM.norm>
0

>  <SCORE.heavy>
25

>  <SCORE.norm>
-0.55003

>  <RMSD>
5.110

$$$$
ligand
 OpenBabel11021811503D
libRbt.so/2013.1/901 2013/11/27
 25 27  0  0  0  0  0  0  0  0999 V2000
    7.9844  -22.9573   19.1907 N   0  0  0  0  0  0  0  0  0  0  0  0
    7.2484  -23.9051   19.9688 C   0  0  0  0  0  0  0  0  0  0  0  0
    7.2895  -25.1000   19.7031 O   0  0  0  0  0  0  0  0  0  0  0  0
    7.4630  -16.5783   26.8897 N   0  0  0  0  0  0  0  0  0  0  0  0
    6.5398  -18.6780   27.5996 N   0  0  0  0  0  0  0  0  0  0  0  0
    6.4365  -17.5679   26.8330 C   0  0  0  0  0  0  0  0  0  0  0  0
    5.3606  -17.3733   26.0127 N   0  0  0  0  0  0  0  0  0  0  0  0
    4.3514  -18.2765   25.9219 C   0  0  0  0  0  0  0  0  0  0  0  0
    4.4292  -19.4581   26.6974 C   0  0  0  0  0  0  0  0  0  0  0  0
    3.3008  -18.0304   25.0694 O   0  0  0  0  0  0  0  0  0  0  0  0
    1.9995  -20.2288   26.6658 C   0  0  0  0  0  0  0  0  0  0  0  0
    3.4158  -20.5002   26.7227 N   0  0  0  0  0  0  0  0  0  0  0  0
    1.5123  -19.1416   26.9564 O   0  0  0  0  0  0  0  0  0  0  0  0
    3.9056  -21.7979   26.9168 C   0  0  2  0  0  0  0  0  0  0  0  0
    4.7086  -21.8565   28.2417 C   0  0  0  0  0  0  0  0  0  0  0  0
    5.5554  -19.6310   27.5625 C   0  0  0  0  0  0  0  0  0  0  0  0
    5.6741  -20.8420   28.3792 N   0  0  0  0  0  0  0  0  0  0  0  0
    4.7745  -22.2265   25.7516 C   0  0  0  0  0  0  0  0  0  0  0  0
    4.2119  -22.1037   24.4354 N   0  0  0  0  0  0  0  0  0  0  0  0
    6.4427  -23.4144   21.1215 C   0  0  0  0  0  0  0  0  0  0  0  0
    5.3900  -22.5299   20.9307 C   0  0  0  0  0  0  0  0  0  0  0  0
    4.6571  -22.0915   22.0268 C   0  0  0  0  0  0  0  0  0  0  0  0
    4.9684  -22.5465   23.3066 C   0  0  0  0  0  0  0  0  0  0  0  0
    6.0120  -23.4367   23.4906 C   0  0  0  0  0  0  0  0  0  0  0  0
    6.7523  -23.8668   22.3959 C   0  0  0  0  0  0  0  0  0  0  0  0
  1  2  1  0  0  0  0
  2  3  2  0  0  0  0
  2 20  1  0  0  0  0
  4  6  1  0  0  0  0
  5  6  2  0  0  0  0
  5 16  1  0  0  0  0
  6  7  1  0  0  0  0
  7  8  1  0  0  0  0
  8  9  1  0  0  0  0
  8 10  2  0  0  0  0
  9 12  1  0  0  0  0
  9 16  2  0  0  0  0
 11 13  1  0  0  0  0
 11 12  1  0  0  0  0
 12 14  1  0  0  0  0
 14 15  1  0  0  0  0
 14 18  1  6  0  0  0
 15 17  1  0  0  0  0
 16 17  1  0  0  0  0
 18 19  1  0  0  0  0
 19 23  1  0  0  0  0
 20 21  2  0  0  0  0
 20 25  1  0  0  0  0
 21 22  1  0  0  0  0
 22 23  2  0  0  0  0
 23 24  1  0  0  0  0
 24 25  2  0  0  0  0
M  END
>  <CHROM.1>
-20.69711300,-52.58807614,-177.38865228,-160.52398243,61.92713625,5.16859836
-20.92288529,24.80242244,-1.23262151,0.66266741,0.72063729

>  <Name>
ligand

>  <RI>
0

>  <Rbt.Current_Directory>
/home/itssahil/PROJECTS/Mol_Feturizer/New_Systems/rnas/4LVV

>  <Rbt.Executable>
rbdock ($Id: //depot/dev/client3/rdock/2013.1/src/exe/rbdock.cxx#4 $)

>  <Rbt.Library>
libRbt.so (2013.1, Build901 2013/11/27)

>  <Rbt.Parameter_File>
/export/apps/rDock/src/rDock_2013.1_src/data/scripts/dock_solv.prm

>  <Rbt.Receptor>
prm/pocket_docking_6.prm

>  <SCORE>
-13.3945

>  <SCORE.INTER>
-13.0078

>  <SCORE.INTER.CONST>
1

>  <SCORE.INTER.POLAR>
0

>  <SCORE.INTER.ROT>
5

>  <SCORE.INTER.SOLV>
12.7117

>  <SCORE.INTER.VDW>
-19.8424

>  <SCORE.INTER.norm>
-0.520311

>  <SCORE.INTRA>
-0.386747

>  <SCORE.INTRA.DIHEDRAL>
-0.329984

>  <SCORE.INTRA.DIHEDRAL.0>
3.94806

>  <SCORE.INTRA.POLAR>
0

>  <SCORE.INTRA.POLAR.0>
0

>  <SCORE.INTRA.REPUL>
0

>  <SCORE.INTRA.REPUL.0>
0

>  <SCORE.INTRA.SOLV>
0.274152

>  <SCORE.INTRA.SOLV.lig_0>
-70.9803

>  <SCORE.INTRA.VDW>
-0.358831

>  <SCORE.INTRA.VDW.0>
-0.709409

>  <SCORE.INTRA.norm>
-0.0154699

>  <SCORE.RESTR>
0

>  <SCORE.RESTR.CAVITY>
0

>  <SCORE.RESTR.norm>
0

>  <SCORE.SYSTEM>
0

>  <SCORE.SYSTEM.CONST>
0

>  <SCORE.SYSTEM.DIHEDRAL>
0

>  <SCORE.SYSTEM.SOLV>
0

>  <SCORE.SYSTEM.norm>
0

>  <SCORE.heavy>
25

>  <SCORE.norm>
-0.535781

>  <RMSD>
5.123

$$$$
ligand
 OpenBabel11021811503D
libRbt.so/2013.1/901 2013/11/27
 25 27  0  0  0  0  0  0  0  0999 V2000
    7.0074  -23.9454   19.2732 N   0  0  0  0  0  0  0  0  0  0  0  0
    7.4328  -24.0502   20.6346 C   0  0  0  0  0  0  0  0  0  0  0  0
    8.5156  -24.5490   20.9157 O   0  0  0  0  0  0  0  0  0  0  0  0
    7.8576  -16.4129   26.6051 N   0  0  0  0  0  0  0  0  0  0  0  0
    6.5700  -18.2313   27.5000 N   0  0  0  0  0  0  0  0  0  0  0  0
    6.7069  -17.2561   26.5720 C   0  0  0  0  0  0  0  0  0  0  0  0
    5.7568  -17.0583   25.6095 N   0  0  0  0  0  0  0  0  0  0  0  0
    4.6392  -17.8248   25.5323 C   0  0  0  0  0  0  0  0  0  0  0  0
    4.4658  -18.8651   26.4764 C   0  0  0  0  0  0  0  0  0  0  0  0
    3.7247  -17.5852   24.5337 O   0  0  0  0  0  0  0  0  0  0  0  0
    1.9639  -19.3071   26.2684 C   0  0  0  0  0  0  0  0  0  0  0  0
    3.3123  -19.7481   26.5332 N   0  0  0  0  0  0  0  0  0  0  0  0
    1.0209  -19.5456   27.0152 O   0  0  0  0  0  0  0  0  0  0  0  0
    3.5840  -21.0499   26.9727 C   0  0  2  0  0  0  0  0  0  0  0  0
    4.2363  -20.9973   28.3782 C   0  0  0  0  0  0  0  0  0  0  0  0
    5.4643  -19.0410   27.4858 C   0  0  0  0  0  0  0  0  0  0  0  0
    5.3227  -20.1086   28.4796 N   0  0  0  0  0  0  0  0  0  0  0  0
    4.4898  -21.7712   25.9952 C   0  0  0  0  0  0  0  0  0  0  0  0
    3.9886  -21.9718   24.6638 N   0  0  0  0  0  0  0  0  0  0  0  0
    6.5414  -23.5252   21.7064 C   0  0  0  0  0  0  0  0  0  0  0  0
    6.7208  -23.9006   23.0306 C   0  0  0  0  0  0  0  0  0  0  0  0
    5.8728  -23.3924   24.0071 C   0  0  0  0  0  0  0  0  0  0  0  0
    4.8579  -22.5025   23.6611 C   0  0  0  0  0  0  0  0  0  0  0  0
    4.6896  -22.1228   22.3409 C   0  0  0  0  0  0  0  0  0  0  0  0
    5.5306  -22.6394   21.3625 C   0  0  0  0  0  0  0  0  0  0  0  0
  1  2  1  0  0  0  0
  2  3  2  0  0  0  0
  2 20  1  0  0  0  0
  4  6  1  0  0  0  0
  5  6  2  0  0  0  0
  5 16  1  0  0  0  0
  6  7  1  0  0  0  0
  7  8  1  0  0  0  0
  8  9  1  0  0  0  0
  8 10  2  0  0  0  0
  9 12  1  0  0  0  0
  9 16  2  0  0  0  0
 11 13  1  0  0  0  0
 11 12  1  0  0  0  0
 12 14  1  0  0  0  0
 14 15  1  0  0  0  0
 14 18  1  6  0  0  0
 15 17  1  0  0  0  0
 16 17  1  0  0  0  0
 18 19  1  0  0  0  0
 19 23  1  0  0  0  0
 20 21  2  0  0  0  0
 20 25  1  0  0  0  0
 21 22  1  0  0  0  0
 22 23  2  0  0  0  0
 23 24  1  0  0  0  0
 24 25  2  0  0  0  0
M  END
>  <CHROM.1>
-130.21413579,-61.96628599,172.64170376,31.26694726,162.99800354,5.16769278
-20.64787470,24.90746861,-1.23743015,0.49690550,0.66577787

>  <Name>
ligand

>  <RI>
0

>  <Rbt.Current_Directory>
/home/itssahil/PROJECTS/Mol_Feturizer/New_Systems/rnas/4LVV

>  <Rbt.Executable>
rbdock ($Id: //depot/dev/client3/rdock/2013.1/src/exe/rbdock.cxx#4 $)

>  <Rbt.Library>
libRbt.so (2013.1, Build901 2013/11/27)

>  <Rbt.Parameter_File>
/export/apps/rDock/src/rDock_2013.1_src/data/scripts/dock_solv.prm

>  <Rbt.Receptor>
prm/pocket_docking_6.prm

>  <SCORE>
-12.3121

>  <SCORE.INTER>
-11.677

>  <SCORE.INTER.CONST>
1

>  <SCORE.INTER.POLAR>
0

>  <SCORE.INTER.ROT>
5

>  <SCORE.INTER.SOLV>
13.2431

>  <SCORE.INTER.VDW>
-19.1324

>  <SCORE.INTER.norm>
-0.467078

>  <SCORE.INTRA>
-0.635164

>  <SCORE.INTRA.DIHEDRAL>
-0.549354

>  <SCORE.INTRA.DIHEDRAL.0>
3.94806

>  <SCORE.INTRA.POLAR>
0

>  <SCORE.INTRA.POLAR.0>
0

>  <SCORE.INTRA.REPUL>
0

>  <SCORE.INTRA.REPUL.0>
0

>  <SCORE.INTRA.SOLV>
-0.158864

>  <SCORE.INTRA.SOLV.lig_0>
-70.9803

>  <SCORE.INTRA.VDW>
-0.281055

>  <SCORE.INTRA.VDW.0>
-0.709409

>  <SCORE.INTRA.norm>
-0.0254066

>  <SCORE.RESTR>
0

>  <SCORE.RESTR.CAVITY>
0

>  <SCORE.RESTR.norm>
0

>  <SCORE.SYSTEM>
0

>  <SCORE.SYSTEM.CONST>
0

>  <SCORE.SYSTEM.DIHEDRAL>
0

>  <SCORE.SYSTEM.SOLV>
0

>  <SCORE.SYSTEM.norm>
0

>  <SCORE.heavy>
25

>  <SCORE.norm>
-0.492485

>  <RMSD>
5.139

$$$$
ligand
 OpenBabel11021811503D
libRbt.so/2013.1/901 2013/11/27
 25 27  0  0  0  0  0  0  0  0999 V2000
    7.8750  -24.6559   20.5913 N   0  0  0  0  0  0  0  0  0  0  0  0
    7.0461  -23.4947   20.4920 C   0  0  0  0  0  0  0  0  0  0  0  0
    7.0315  -22.8214   19.4690 O   0  0  0  0  0  0  0  0  0  0  0  0
    7.5465  -16.3895   26.3097 N   0  0  0  0  0  0  0  0  0  0  0  0
    6.4738  -18.2408   27.3993 N   0  0  0  0  0  0  0  0  0  0  0  0
    6.4479  -17.2913   26.4357 C   0  0  0  0  0  0  0  0  0  0  0  0
    5.3825  -17.1746   25.5873 N   0  0  0  0  0  0  0  0  0  0  0  0
    4.3073  -17.9996   25.6635 C   0  0  0  0  0  0  0  0  0  0  0  0
    4.3026  -19.0154   26.6493 C   0  0  0  0  0  0  0  0  0  0  0  0
    3.2708  -17.8406   24.7739 O   0  0  0  0  0  0  0  0  0  0  0  0
    1.8215  -19.5920   26.7505 C   0  0  0  0  0  0  0  0  0  0  0  0
    3.2137  -19.9541   26.8659 N   0  0  0  0  0  0  0  0  0  0  0  0
    0.9835  -20.3098   26.2154 O   0  0  0  0  0  0  0  0  0  0  0  0
    3.6059  -21.2249   27.3051 C   0  0  2  0  0  0  0  0  0  0  0  0
    4.4139  -21.0922   28.6216 C   0  0  0  0  0  0  0  0  0  0  0  0
    5.4201  -19.1062   27.5379 C   0  0  0  0  0  0  0  0  0  0  0  0
    5.4542  -20.1461   28.5699 N   0  0  0  0  0  0  0  0  0  0  0  0
    4.4297  -21.9309   26.2472 C   0  0  0  0  0  0  0  0  0  0  0  0
    3.8002  -22.1686   24.9778 N   0  0  0  0  0  0  0  0  0  0  0  0
    6.1856  -23.1274   21.6510 C   0  0  0  0  0  0  0  0  0  0  0  0
    5.1148  -22.2576   21.4969 C   0  0  0  0  0  0  0  0  0  0  0  0
    4.3306  -21.9354   22.5979 C   0  0  0  0  0  0  0  0  0  0  0  0
    4.6093  -22.4917   23.8448 C   0  0  0  0  0  0  0  0  0  0  0  0
    5.6714  -23.3667   23.9913 C   0  0  0  0  0  0  0  0  0  0  0  0
    6.4627  -23.6805   22.8928 C   0  0  0  0  0  0  0  0  0  0  0  0
  1  2  1  0  0  0  0
  2  3  2  0  0  0  0
  2 20  1  0  0  0  0
  4  6  1  0  0  0  0
  5  6  2  0  0  0  0
  5 16  1  0  0  0  0
  6  7  1  0  0  0  0
  7  8  1  0  0  0  0
  8  9  1  0  0  0  0
  8 10  2  0  0  0  0
  9 12  1  0  0  0  0
  9 16  2  0  0  0  0
 11 13  1  0  0  0  0
 11 12  1  0  0  0  0
 12 14  1  0  0  0  0
 14 15  1  0  0  0  0
 14 18  1  6  0  0  0
 15 17  1  0  0  0  0
 16 17  1  0  0  0  0
 18 19  1  0  0  0  0
 19 23  1  0  0  0  0
 20 21  2  0  0  0  0
 20 25  1  0  0  0  0
 21 22  1  0  0  0  0
 22 23  2  0  0  0  0
 23 24  1  0  0  0  0
 24 25  2  0  0  0  0
M  END
>  <CHROM.1>
138.54676314,-60.31409906,163.29637563,-138.63618830,-162.26985510,4.96077707
-20.64731918,24.95004714,-1.23161621,0.64490275,0.69454579

>  <Name>
ligand

>  <RI>
0

>  <Rbt.Current_Directory>
/home/itssahil/PROJECTS/Mol_Feturizer/New_Systems/rnas/4LVV

>  <Rbt.Executable>
rbdock ($Id: //depot/dev/client3/rdock/2013.1/src/exe/rbdock.cxx#4 $)

>  <Rbt.Library>
libRbt.so (2013.1, Build901 2013/11/27)

>  <Rbt.Parameter_File>
/export/apps/rDock/src/rDock_2013.1_src/data/scripts/dock_solv.prm

>  <Rbt.Receptor>
prm/pocket_docking_7.prm

>  <SCORE>
-13.6991

>  <SCORE.INTER>
-12.9971

>  <SCORE.INTER.CONST>
1

>  <SCORE.INTER.POLAR>
0

>  <SCORE.INTER.ROT>
5

>  <SCORE.INTER.SOLV>
12.9156

>  <SCORE.INTER.VDW>
-19.9033

>  <SCORE.INTER.norm>
-0.519884

>  <SCORE.INTRA>
-0.701973

>  <SCORE.INTRA.DIHEDRAL>
-0.577518

>  <SCORE.INTRA.DIHEDRAL.0>
3.94806

>  <SCORE.INTRA.POLAR>
0

>  <SCORE.INTRA.POLAR.0>
0

>  <SCORE.INTRA.REPUL>
0

>  <SCORE.INTRA.REPUL.0>
0

>  <SCORE.INTRA.SOLV>
0.375261

>  <SCORE.INTRA.SOLV.lig_0>
-70.9803

>  <SCORE.INTRA.VDW>
-0.600844

>  <SCORE.INTRA.VDW.0>
-0.709409

>  <SCORE.INTRA.norm>
-0.0280789

>  <SCORE.RESTR>
0

>  <SCORE.RESTR.CAVITY>
0

>  <SCORE.RESTR.norm>
0

>  <SCORE.SYSTEM>
0

>  <SCORE.SYSTEM.CONST>
0

>  <SCORE.SYSTEM.DIHEDRAL>
0

>  <SCORE.SYSTEM.SOLV>
0

>  <SCORE.SYSTEM.norm>
0

>  <SCORE.heavy>
25

>  <SCORE.norm>
-0.547963

>  <RMSD>
5.140

$$$$
ligand
 OpenBabel11021811503D
libRbt.so/2013.1/901 2013/11/27
 25 27  0  0  0  0  0  0  0  0999 V2000
    7.7102  -22.5469   19.8151 N   0  0  0  0  0  0  0  0  0  0  0  0
    6.9717  -23.5724   20.4848 C   0  0  0  0  0  0  0  0  0  0  0  0
    7.0184  -24.7330   20.0963 O   0  0  0  0  0  0  0  0  0  0  0  0
    7.4992  -16.3026   26.0629 N   0  0  0  0  0  0  0  0  0  0  0  0
    6.4710  -18.1272   27.2371 N   0  0  0  0  0  0  0  0  0  0  0  0
    6.4133  -17.2104   26.2436 C   0  0  0  0  0  0  0  0  0  0  0  0
    5.3278  -17.1324   25.4165 N   0  0  0  0  0  0  0  0  0  0  0  0
    4.2634  -17.9649   25.5444 C   0  0  0  0  0  0  0  0  0  0  0  0
    4.2917  -18.9475   26.5629 C   0  0  0  0  0  0  0  0  0  0  0  0
    3.2054  -17.8456   24.6741 O   0  0  0  0  0  0  0  0  0  0  0  0
    1.8197  -19.5447   26.7399 C   0  0  0  0  0  0  0  0  0  0  0  0
    3.2180  -19.8891   26.8352 N   0  0  0  0  0  0  0  0  0  0  0  0
    0.9333  -20.3764   26.5776 O   0  0  0  0  0  0  0  0  0  0  0  0
    3.6334  -21.1408   27.3069 C   0  0  2  0  0  0  0  0  0  0  0  0
    4.4694  -20.9566   28.5995 C   0  0  0  0  0  0  0  0  0  0  0  0
    5.4299  -18.9978   27.4282 C   0  0  0  0  0  0  0  0  0  0  0  0
    5.4983  -20.0025   28.4928 N   0  0  0  0  0  0  0  0  0  0  0  0
    4.4405  -21.8734   26.2542 C   0  0  0  0  0  0  0  0  0  0  0  0
    3.8089  -22.0974   24.9833 N   0  0  0  0  0  0  0  0  0  0  0  0
    6.1563  -23.2064   21.6763 C   0  0  0  0  0  0  0  0  0  0  0  0
    6.4679  -23.7043   22.9340 C   0  0  0  0  0  0  0  0  0  0  0  0
    5.6879  -23.3431   24.0258 C   0  0  0  0  0  0  0  0  0  0  0  0
    4.6087  -22.4771   23.8614 C   0  0  0  0  0  0  0  0  0  0  0  0
    4.3083  -21.9747   22.6073 C   0  0  0  0  0  0  0  0  0  0  0  0
    5.0814  -22.3445   21.5133 C   0  0  0  0  0  0  0  0  0  0  0  0
  1  2  1  0  0  0  0
  2  3  2  0  0  0  0
  2 20  1  0  0  0  0
  4  6  1  0  0  0  0
  5  6  2  0  0  0  0
  5 16  1  0  0  0  0
  6  7  1  0  0  0  0
  7  8  1  0  0  0  0
  8  9  1  0  0  0  0
  8 10  2  0  0  0  0
  9 12  1  0  0  0  0
  9 16  2  0  0  0  0
 11 13  1  0  0  0  0
 11 12  1  0  0  0  0
 12 14  1  0  0  0  0
 14 15  1  0  0  0  0
 14 18  1  6  0  0  0
 15 17  1  0  0  0  0
 16 17  1  0  0  0  0
 18 19  1  0  0  0  0
 19 23  1  0  0  0  0
 20 21  2  0  0  0  0
 20 25  1  0  0  0  0
 21 22  1  0  0  0  0
 22 23  2  0  0  0  0
 23 24  1  0  0  0  0
 24 25  2  0  0  0  0
M  END
>  <CHROM.1>
157.84449124,-57.14937800,164.72993939,37.60996242,-115.04007537,4.94159508
-20.61768401,24.91710121,-1.22426112,0.68214119,0.66301475

>  <Name>
ligand

>  <RI>
0

>  <Rbt.Current_Directory>
/home/itssahil/PROJECTS/Mol_Feturizer/New_Systems/rnas/4LVV

>  <Rbt.Executable>
rbdock ($Id: //depot/dev/client3/rdock/2013.1/src/exe/rbdock.cxx#4 $)

>  <Rbt.Library>
libRbt.so (2013.1, Build901 2013/11/27)

>  <Rbt.Parameter_File>
/export/apps/rDock/src/rDock_2013.1_src/data/scripts/dock_solv.prm

>  <Rbt.Receptor>
prm/pocket_docking_8.prm

>  <SCORE>
-13.7913

>  <SCORE.INTER>
-12.8736

>  <SCORE.INTER.CONST>
1

>  <SCORE.INTER.POLAR>
0

>  <SCORE.INTER.ROT>
5

>  <SCORE.INTER.SOLV>
13.2671

>  <SCORE.INTER.VDW>
-19.9381

>  <SCORE.INTER.norm>
-0.514944

>  <SCORE.INTRA>
-0.917701

>  <SCORE.INTRA.DIHEDRAL>
-0.639476

>  <SCORE.INTRA.DIHEDRAL.0>
3.94806

>  <SCORE.INTRA.POLAR>
0

>  <SCORE.INTRA.POLAR.0>
0

>  <SCORE.INTRA.REPUL>
0

>  <SCORE.INTRA.REPUL.0>
0

>  <SCORE.INTRA.SOLV>
0.307589

>  <SCORE.INTRA.SOLV.lig_0>
-70.9803

>  <SCORE.INTRA.VDW>
-0.751757

>  <SCORE.INTRA.VDW.0>
-0.709409

>  <SCORE.INTRA.norm>
-0.036708

>  <SCORE.RESTR>
0

>  <SCORE.RESTR.CAVITY>
0

>  <SCORE.RESTR.norm>
0

>  <SCORE.SYSTEM>
0

>  <SCORE.SYSTEM.CONST>
0

>  <SCORE.SYSTEM.DIHEDRAL>
0

>  <SCORE.SYSTEM.SOLV>
0

>  <SCORE.SYSTEM.norm>
0

>  <SCORE.heavy>
25

>  <SCORE.norm>
-0.551652

>  <RMSD>
5.160

$$$$
ligand
 OpenBabel11021811503D
libRbt.so/2013.1/901 2013/11/27
 25 27  0  0  0  0  0  0  0  0999 V2000
    7.2517  -25.7076   19.8853 N   0  0  0  0  0  0  0  0  0  0  0  0
    7.2136  -24.2800   19.9619 C   0  0  0  0  0  0  0  0  0  0  0  0
    7.7490  -23.5922   19.1014 O   0  0  0  0  0  0  0  0  0  0  0  0
    7.4891  -16.7881   27.7201 N   0  0  0  0  0  0  0  0  0  0  0  0
    6.5152  -18.9496   28.1004 N   0  0  0  0  0  0  0  0  0  0  0  0
    6.4752  -17.7580   27.4607 C   0  0  0  0  0  0  0  0  0  0  0  0
    5.4742  -17.4634   26.5777 N   0  0  0  0  0  0  0  0  0  0  0  0
    4.4800  -18.3437   26.2959 C   0  0  0  0  0  0  0  0  0  0  0  0
    4.4943  -19.6071   26.9340 C   0  0  0  0  0  0  0  0  0  0  0  0
    3.5069  -17.9944   25.3893 O   0  0  0  0  0  0  0  0  0  0  0  0
    2.0795  -20.3535   26.6025 C   0  0  0  0  0  0  0  0  0  0  0  0
    3.4864  -20.6387   26.7509 N   0  0  0  0  0  0  0  0  0  0  0  0
    1.5631  -19.3077   26.9813 O   0  0  0  0  0  0  0  0  0  0  0  0
    3.9621  -21.9533   26.8361 C   0  0  2  0  0  0  0  0  0  0  0  0
    4.6467  -22.1690   28.2103 C   0  0  0  0  0  0  0  0  0  0  0  0
    5.5414  -19.8856   27.8682 C   0  0  0  0  0  0  0  0  0  0  0  0
    5.5928  -21.1833   28.5472 N   0  0  0  0  0  0  0  0  0  0  0  0
    4.9309  -22.2505   25.7094 C   0  0  0  0  0  0  0  0  0  0  0  0
    4.5104  -21.9120   24.3780 N   0  0  0  0  0  0  0  0  0  0  0  0
    6.4947  -23.6424   21.1001 C   0  0  0  0  0  0  0  0  0  0  0  0
    5.4590  -22.7456   20.8769 C   0  0  0  0  0  0  0  0  0  0  0  0
    4.8077  -22.1685   21.9603 C   0  0  0  0  0  0  0  0  0  0  0  0
    5.1831  -22.4977   23.2612 C   0  0  0  0  0  0  0  0  0  0  0  0
    6.2092  -23.4006   23.4789 C   0  0  0  0  0  0  0  0  0  0  0  0
    6.8681  -23.9694   22.3956 C   0  0  0  0  0  0  0  0  0  0  0  0
  1  2  1  0  0  0  0
  2  3  2  0  0  0  0
  2 20  1  0  0  0  0
  4  6  1  0  0  0  0
  5  6  2  0  0  0  0
  5 16  1  0  0  0  0
  6  7  1  0  0  0  0
  7  8  1  0  0  0  0
  8  9  1  0  0  0  0
  8 10  2  0  0  0  0
  9 12  1  0  0  0  0
  9 16  2  0  0  0  0
 11 13  1  0  0  0  0
 11 12  1  0  0  0  0
 12 14  1  0  0  0  0
 14 15  1  0  0  0  0
 14 18  1  6  0  0  0
 15 17  1  0  0  0  0
 16 17  1  0  0  0  0
 18 19  1  0  0  0  0
 19 23  1  0  0  0  0
 20 21  2  0  0  0  0
 20 25  1  0  0  0  0
 21 22  1  0  0  0  0
 22 23  2  0  0  0  0
 23 24  1  0  0  0  0
 24 25  2  0  0  0  0
M  END
>  <CHROM.1>
-21.22161191,-49.59052024,-162.23387518,-178.96268280,-122.94885302,5.23410317
-21.09066615,24.94412397,1.29843816,-0.52711530,-2.34654236

>  <Name>
ligand

>  <RI>
0

>  <Rbt.Current_Directory>
/home/itssahil/PROJECTS/Mol_Feturizer/New_Systems/rnas/4LVV

>  <Rbt.Executable>
rbdock ($Id: //depot/dev/client3/rdock/2013.1/src/exe/rbdock.cxx#4 $)

>  <Rbt.Library>
libRbt.so (2013.1, Build901 2013/11/27)

>  <Rbt.Parameter_File>
/export/apps/rDock/src/rDock_2013.1_src/data/scripts/dock_solv.prm

>  <Rbt.Receptor>
prm/pocket_docking_7.prm

>  <SCORE>
-12.6424

>  <SCORE.INTER>
-12.7296

>  <SCORE.INTER.CONST>
1

>  <SCORE.INTER.POLAR>
0

>  <SCORE.INTER.ROT>
5

>  <SCORE.INTER.SOLV>
14.404

>  <SCORE.INTER.VDW>
-20.221

>  <SCORE.INTER.norm>
-0.509182

>  <SCORE.INTRA>
0.0871208

>  <SCORE.INTRA.DIHEDRAL>
0.100797

>  <SCORE.INTRA.DIHEDRAL.0>
3.94806

>  <SCORE.INTRA.POLAR>
0

>  <SCORE.INTRA.POLAR.0>
0

>  <SCORE.INTRA.REPUL>
0

>  <SCORE.INTRA.REPUL.0>
0

>  <SCORE.INTRA.SOLV>
0.365356

>  <SCORE.INTRA.SOLV.lig_0>
-70.9803

>  <SCORE.INTRA.VDW>
-0.145956

>  <SCORE.INTRA.VDW.0>
-0.709409

>  <SCORE.INTRA.norm>
0.00348483

>  <SCORE.RESTR>
0

>  <SCORE.RESTR.CAVITY>
0

>  <SCORE.RESTR.norm>
0

>  <SCORE.SYSTEM>
0

>  <SCORE.SYSTEM.CONST>
0

>  <SCORE.SYSTEM.DIHEDRAL>
0

>  <SCORE.SYSTEM.SOLV>
0

>  <SCORE.SYSTEM.norm>
0

>  <SCORE.heavy>
25

>  <SCORE.norm>
-0.505697

>  <RMSD>
5.161

$$$$
ligand
 OpenBabel11021811503D
libRbt.so/2013.1/901 2013/11/27
 25 27  0  0  0  0  0  0  0  0999 V2000
    8.3711  -23.9033   17.2519 N   0  0  0  0  0  0  0  0  0  0  0  0
    7.8877  -24.6662   18.3608 C   0  0  0  0  0  0  0  0  0  0  0  0
    8.1146  -25.8671   18.4410 O   0  0  0  0  0  0  0  0  0  0  0  0
    6.3867  -17.7106   28.2138 N   0  0  0  0  0  0  0  0  0  0  0  0
    5.8367  -19.9419   27.5181 N   0  0  0  0  0  0  0  0  0  0  0  0
    5.6323  -18.6094   27.4019 C   0  0  0  0  0  0  0  0  0  0  0  0
    4.7081  -18.1099   26.5274 N   0  0  0  0  0  0  0  0  0  0  0  0
    3.9574  -18.9163   25.7344 C   0  0  0  0  0  0  0  0  0  0  0  0
    4.1516  -20.3160   25.8159 C   0  0  0  0  0  0  0  0  0  0  0  0
    3.0520  -18.3540   24.8655 O   0  0  0  0  0  0  0  0  0  0  0  0
    1.9999  -21.1745   24.7522 C   0  0  0  0  0  0  0  0  0  0  0  0
    3.4064  -21.3014   25.0496 N   0  0  0  0  0  0  0  0  0  0  0  0
    1.5110  -21.4904   23.6728 O   0  0  0  0  0  0  0  0  0  0  0  0
    4.1270  -22.4518   24.7045 C   0  0  2  0  0  0  0  0  0  0  0  0
    4.6676  -23.1301   25.9895 C   0  0  0  0  0  0  0  0  0  0  0  0
    5.1110  -20.8163   26.7518 C   0  0  0  0  0  0  0  0  0  0  0  0
    5.3433  -22.2589   26.8640 N   0  0  0  0  0  0  0  0  0  0  0  0
    5.2667  -22.1129   23.7651 C   0  0  0  0  0  0  0  0  0  0  0  0
    4.9376  -21.9173   22.3803 N   0  0  0  0  0  0  0  0  0  0  0  0
    7.1163  -23.9698   19.4278 C   0  0  0  0  0  0  0  0  0  0  0  0
    6.9955  -24.5212   20.6959 C   0  0  0  0  0  0  0  0  0  0  0  0
    6.2697  -23.8460   21.6697 C   0  0  0  0  0  0  0  0  0  0  0  0
    5.6784  -22.6182   21.3790 C   0  0  0  0  0  0  0  0  0  0  0  0
    5.8106  -22.0672   20.1163 C   0  0  0  0  0  0  0  0  0  0  0  0
    6.5271  -22.7475   19.1390 C   0  0  0  0  0  0  0  0  0  0  0  0
  1  2  1  0  0  0  0
  2  3  2  0  0  0  0
  2 20  1  0  0  0  0
  4  6  1  0  0  0  0
  5  6  2  0  0  0  0
  5 16  1  0  0  0  0
  6  7  1  0  0  0  0
  7  8  1  0  0  0  0
  8  9  1  0  0  0  0
  8 10  2  0  0  0  0
  9 12  1  0  0  0  0
  9 16  2  0  0  0  0
 11 13  1  0  0  0  0
 11 12  1  0  0  0  0
 12 14  1  0  0  0  0
 14 15  1  0  0  0  0
 14 18  1  6  0  0  0
 15 17  1  0  0  0  0
 16 17  1  0  0  0  0
 18 19  1  0  0  0  0
 19 23  1  0  0  0  0
 20 21  2  0  0  0  0
 20 25  1  0  0  0  0
 21 22  1  0  0  0  0
 22 23  2  0  0  0  0
 23 24  1  0  0  0  0
 24 25  2  0  0  0  0
M  END
>  <CHROM.1>
140.84812194,-79.30210256,-129.27419632,27.67134151,-159.07272174,5.25841472
-21.68856981,23.50499985,-1.26001691,-0.03487414,1.02990374

>  <Name>
ligand

>  <RI>
0

>  <Rbt.Current_Directory>
/home/itssahil/PROJECTS/Mol_Feturizer/New_Systems/rnas/4LVV

>  <Rbt.Executable>
rbdock ($Id: //depot/dev/client3/rdock/2013.1/src/exe/rbdock.cxx#4 $)

>  <Rbt.Library>
libRbt.so (2013.1, Build901 2013/11/27)

>  <Rbt.Parameter_File>
/export/apps/rDock/src/rDock_2013.1_src/data/scripts/dock_solv.prm

>  <Rbt.Receptor>
prm/pocket_docking_7.prm

>  <SCORE>
-11.3292

>  <SCORE.INTER>
-11.925

>  <SCORE.INTER.CONST>
1

>  <SCORE.INTER.POLAR>
0

>  <SCORE.INTER.ROT>
5

>  <SCORE.INTER.SOLV>
14.7858

>  <SCORE.INTER.VDW>
-19.812

>  <SCORE.INTER.norm>
-0.477001

>  <SCORE.INTRA>
0.595863

>  <SCORE.INTRA.DIHEDRAL>
1.55846

>  <SCORE.INTRA.DIHEDRAL.0>
3.94806

>  <SCORE.INTRA.POLAR>
0

>  <SCORE.INTRA.POLAR.0>
0

>  <SCORE.INTRA.REPUL>
0

>  <SCORE.INTRA.REPUL.0>
0

>  <SCORE.INTRA.SOLV>
0.0595008

>  <SCORE.INTRA.SOLV.lig_0>
-70.9803

>  <SCORE.INTRA.VDW>
-0.213116

>  <SCORE.INTRA.VDW.0>
-0.709409

>  <SCORE.INTRA.norm>
0.0238345

>  <SCORE.RESTR>
0

>  <SCORE.RESTR.CAVITY>
0

>  <SCORE.RESTR.norm>
0

>  <SCORE.SYSTEM>
0

>  <SCORE.SYSTEM.CONST>
0

>  <SCORE.SYSTEM.DIHEDRAL>
0

>  <SCORE.SYSTEM.SOLV>
0

>  <SCORE.SYSTEM.norm>
0

>  <SCORE.heavy>
25

>  <SCORE.norm>
-0.453166

>  <RMSD>
5.163

$$$$
ligand
 OpenBabel11021811503D
libRbt.so/2013.1/901 2013/11/27
 25 27  0  0  0  0  0  0  0  0999 V2000
    7.7036  -22.3159   19.8654 N   0  0  0  0  0  0  0  0  0  0  0  0
    6.8792  -23.3478   20.4138 C   0  0  0  0  0  0  0  0  0  0  0  0
    6.8422  -24.4591   19.9002 O   0  0  0  0  0  0  0  0  0  0  0  0
    7.4105  -16.2560   26.0644 N   0  0  0  0  0  0  0  0  0  0  0  0
    6.4141  -18.0944   27.2446 N   0  0  0  0  0  0  0  0  0  0  0  0
    6.3373  -17.1773   26.2527 C   0  0  0  0  0  0  0  0  0  0  0  0
    5.2444  -17.1116   25.4343 N   0  0  0  0  0  0  0  0  0  0  0  0
    4.1913  -17.9573   25.5696 C   0  0  0  0  0  0  0  0  0  0  0  0
    4.2397  -18.9406   26.5867 C   0  0  0  0  0  0  0  0  0  0  0  0
    3.1251  -17.8499   24.7079 O   0  0  0  0  0  0  0  0  0  0  0  0
    1.7768  -19.5682   26.7826 C   0  0  0  0  0  0  0  0  0  0  0  0
    3.1798  -19.8956   26.8663 N   0  0  0  0  0  0  0  0  0  0  0  0
    0.9576  -20.2699   26.1991 O   0  0  0  0  0  0  0  0  0  0  0  0
    3.6143  -21.1426   27.3332 C   0  0  2  0  0  0  0  0  0  0  0  0
    4.4582  -20.9497   28.6193 C   0  0  0  0  0  0  0  0  0  0  0  0
    5.3853  -18.9779   27.4428 C   0  0  0  0  0  0  0  0  0  0  0  0
    5.4745  -19.9829   28.5056 N   0  0  0  0  0  0  0  0  0  0  0  0
    4.4219  -21.8640   26.2732 C   0  0  0  0  0  0  0  0  0  0  0  0
    3.7658  -22.1399   25.0251 N   0  0  0  0  0  0  0  0  0  0  0  0
    6.0775  -23.0520   21.6338 C   0  0  0  0  0  0  0  0  0  0  0  0
    6.4243  -23.5938   22.8639 C   0  0  0  0  0  0  0  0  0  0  0  0
    5.6562  -23.2977   23.9834 C   0  0  0  0  0  0  0  0  0  0  0  0
    4.5536  -22.4528   23.8744 C   0  0  0  0  0  0  0  0  0  0  0  0
    4.2179  -21.9064   22.6479 C   0  0  0  0  0  0  0  0  0  0  0  0
    4.9793  -22.2111   21.5260 C   0  0  0  0  0  0  0  0  0  0  0  0
  1  2  1  0  0  0  0
  2  3  2  0  0  0  0
  2 20  1  0  0  0  0
  4  6  1  0  0  0  0
  5  6  2  0  0  0  0
  5 16  1  0  0  0  0
  6  7  1  0  0  0  0
  7  8  1  0  0  0  0
  8  9  1  0  0  0  0
  8 10  2  0  0  0  0
  9 12  1  0  0  0  0
  9 16  2  0  0  0  0
 11 13  1  0  0  0  0
 11 12  1  0  0  0  0
 12 14  1  0  0  0  0
 14 15  1  0  0  0  0
 14 18  1  6  0  0  0
 15 17  1  0  0  0  0
 16 17  1  0  0  0  0
 18 19  1  0  0  0  0
 19 23  1  0  0  0  0
 20 21  2  0  0  0  0
 20 25  1  0  0  0  0
 21 22  1  0  0  0  0
 22 23  2  0  0  0  0
 23 24  1  0  0  0  0
 24 25  2  0  0  0  0
M  END
>  <CHROM.1>
132.31672539,-59.47743609,161.97816644,41.80035515,-107.82449302,4.88569976
-20.55746340,24.89928164,-1.23248696,0.69214485,0.68752725

>  <Name>
ligand

>  <RI>
0

>  <Rbt.Current_Directory>
/home/itssahil/PROJECTS/Mol_Feturizer/New_Systems/rnas/4LVV

>  <Rbt.Executable>
rbdock ($Id: //depot/dev/client3/rdock/2013.1/src/exe/rbdock.cxx#4 $)

>  <Rbt.Library>
libRbt.so (2013.1, Build901 2013/11/27)

>  <Rbt.Parameter_File>
/export/apps/rDock/src/rDock_2013.1_src/data/scripts/dock_solv.prm

>  <Rbt.Receptor>
prm/pocket_docking_7.prm

>  <SCORE>
-13.9488

>  <SCORE.INTER>
-12.8426

>  <SCORE.INTER.CONST>
1

>  <SCORE.INTER.POLAR>
0

>  <SCORE.INTER.ROT>
5

>  <SCORE.INTER.SOLV>
13.6929

>  <SCORE.INTER.VDW>
-20.0594

>  <SCORE.INTER.norm>
-0.513703

>  <SCORE.INTRA>
-1.10622

>  <SCORE.INTRA.DIHEDRAL>
-0.533772

>  <SCORE.INTRA.DIHEDRAL.0>
3.94806

>  <SCORE.INTRA.POLAR>
0

>  <SCORE.INTRA.POLAR.0>
0

>  <SCORE.INTRA.REPUL>
0

>  <SCORE.INTRA.REPUL.0>
0

>  <SCORE.INTRA.SOLV>
0.397248

>  <SCORE.INTRA.SOLV.lig_0>
-70.9803

>  <SCORE.INTRA.VDW>
-1.03796

>  <SCORE.INTRA.VDW.0>
-0.709409

>  <SCORE.INTRA.norm>
-0.0442489

>  <SCORE.RESTR>
0

>  <SCORE.RESTR.CAVITY>
0

>  <SCORE.RESTR.norm>
0

>  <SCORE.SYSTEM>
0

>  <SCORE.SYSTEM.CONST>
0

>  <SCORE.SYSTEM.DIHEDRAL>
0

>  <SCORE.SYSTEM.SOLV>
0

>  <SCORE.SYSTEM.norm>
0

>  <SCORE.heavy>
25

>  <SCORE.norm>
-0.557952

>  <RMSD>
5.165

$$$$
ligand
 OpenBabel11021811503D
libRbt.so/2013.1/901 2013/11/27
 25 27  0  0  0  0  0  0  0  0999 V2000
    7.6787  -22.4489   19.7432 N   0  0  0  0  0  0  0  0  0  0  0  0
    6.9812  -23.4865   20.4377 C   0  0  0  0  0  0  0  0  0  0  0  0
    7.0906  -24.6558   20.0902 O   0  0  0  0  0  0  0  0  0  0  0  0
    7.5421  -16.3911   26.3083 N   0  0  0  0  0  0  0  0  0  0  0  0
    6.4728  -18.2497   27.3887 N   0  0  0  0  0  0  0  0  0  0  0  0
    6.4429  -17.2924   26.4329 C   0  0  0  0  0  0  0  0  0  0  0  0
    5.3731  -17.1675   25.5912 N   0  0  0  0  0  0  0  0  0  0  0  0
    4.2972  -17.9916   25.6666 C   0  0  0  0  0  0  0  0  0  0  0  0
    4.2964  -19.0154   26.6441 C   0  0  0  0  0  0  0  0  0  0  0  0
    3.2562  -17.8240   24.7840 O   0  0  0  0  0  0  0  0  0  0  0  0
    1.8152  -19.5894   26.7541 C   0  0  0  0  0  0  0  0  0  0  0  0
    3.2075  -19.9543   26.8590 N   0  0  0  0  0  0  0  0  0  0  0  0
    0.9527  -20.3491   26.3266 O   0  0  0  0  0  0  0  0  0  0  0  0
    3.6003  -21.2292   27.2858 C   0  0  2  0  0  0  0  0  0  0  0  0
    4.4155  -21.1083   28.5989 C   0  0  0  0  0  0  0  0  0  0  0  0
    5.4186  -19.1148   27.5259 C   0  0  0  0  0  0  0  0  0  0  0  0
    5.4569  -20.1631   28.5492 N   0  0  0  0  0  0  0  0  0  0  0  0
    4.4174  -21.9277   26.2177 C   0  0  0  0  0  0  0  0  0  0  0  0
    3.7760  -22.1670   24.9546 N   0  0  0  0  0  0  0  0  0  0  0  0
    6.1308  -23.1212   21.6048 C   0  0  0  0  0  0  0  0  0  0  0  0
    5.0433  -22.2714   21.4566 C   0  0  0  0  0  0  0  0  0  0  0  0
    4.2691  -21.9506   22.5651 C   0  0  0  0  0  0  0  0  0  0  0  0
    4.5746  -22.4886   23.8137 C   0  0  0  0  0  0  0  0  0  0  0  0
    5.6535  -23.3439   23.9545 C   0  0  0  0  0  0  0  0  0  0  0  0
    6.4346  -23.6561   22.8483 C   0  0  0  0  0  0  0  0  0  0  0  0
  1  2  1  0  0  0  0
  2  3  2  0  0  0  0
  2 20  1  0  0  0  0
  4  6  1  0  0  0  0
  5  6  2  0  0  0  0
  5 16  1  0  0  0  0
  6  7  1  0  0  0  0
  7  8  1  0  0  0  0
  8  9  1  0  0  0  0
  8 10  2  0  0  0  0
  9 12  1  0  0  0  0
  9 16  2  0  0  0  0
 11 13  1  0  0  0  0
 11 12  1  0  0  0  0
 12 14  1  0  0  0  0
 14 15  1  0  0  0  0
 14 18  1  6  0  0  0
 15 17  1  0  0  0  0
 16 17  1  0  0  0  0
 18 19  1  0  0  0  0
 19 23  1  0  0  0  0
 20 21  2  0  0  0  0
 20 25  1  0  0  0  0
 21 22  1  0  0  0  0
 22 23  2  0  0  0  0
 23 24  1  0  0  0  0
 24 25  2  0  0  0  0
M  END
>  <CHROM.1>
145.27927154,-60.96264613,163.58227507,-139.70286567,61.31508957,4.93763369
-20.64390206,24.93385461,-1.24213846,0.65414683,0.70461267

>  <Name>
ligand

>  <RI>
0

>  <Rbt.Current_Directory>
/home/itssahil/PROJECTS/Mol_Feturizer/New_Systems/rnas/4LVV

>  <Rbt.Executable>
rbdock ($Id: //depot/dev/client3/rdock/2013.1/src/exe/rbdock.cxx#4 $)

>  <Rbt.Library>
libRbt.so (2013.1, Build901 2013/11/27)

>  <Rbt.Parameter_File>
/export/apps/rDock/src/rDock_2013.1_src/data/scripts/dock_solv.prm

>  <Rbt.Receptor>
prm/pocket_docking_5.prm

>  <SCORE>
-13.8494

>  <SCORE.INTER>
-12.8969

>  <SCORE.INTER.CONST>
1

>  <SCORE.INTER.POLAR>
0

>  <SCORE.INTER.ROT>
5

>  <SCORE.INTER.SOLV>
13.1626

>  <SCORE.INTER.VDW>
-19.9188

>  <SCORE.INTER.norm>
-0.515875

>  <SCORE.INTRA>
-0.952531

>  <SCORE.INTRA.DIHEDRAL>
-0.633312

>  <SCORE.INTRA.DIHEDRAL.0>
3.94806

>  <SCORE.INTRA.POLAR>
0

>  <SCORE.INTRA.POLAR.0>
0

>  <SCORE.INTRA.REPUL>
0

>  <SCORE.INTRA.REPUL.0>
0

>  <SCORE.INTRA.SOLV>
0.320935

>  <SCORE.INTRA.SOLV.lig_0>
-70.9803

>  <SCORE.INTRA.VDW>
-0.796342

>  <SCORE.INTRA.VDW.0>
-0.709409

>  <SCORE.INTRA.norm>
-0.0381012

>  <SCORE.RESTR>
0

>  <SCORE.RESTR.CAVITY>
0

>  <SCORE.RESTR.norm>
0

>  <SCORE.SYSTEM>
0

>  <SCORE.SYSTEM.CONST>
0

>  <SCORE.SYSTEM.DIHEDRAL>
0

>  <SCORE.SYSTEM.SOLV>
0

>  <SCORE.SYSTEM.norm>
0

>  <SCORE.heavy>
25

>  <SCORE.norm>
-0.553976

>  <RMSD>
5.167

$$$$
ligand
 OpenBabel11021811503D
libRbt.so/2013.1/901 2013/11/27
 25 27  0  0  0  0  0  0  0  0999 V2000
    7.5374  -22.3170   19.7521 N   0  0  0  0  0  0  0  0  0  0  0  0
    6.8765  -23.3788   20.4458 C   0  0  0  0  0  0  0  0  0  0  0  0
    6.9922  -24.5391   20.0710 O   0  0  0  0  0  0  0  0  0  0  0  0
    7.3572  -16.2021   25.9779 N   0  0  0  0  0  0  0  0  0  0  0  0
    6.4055  -18.0393   27.1961 N   0  0  0  0  0  0  0  0  0  0  0  0
    6.3021  -17.1386   26.1917 C   0  0  0  0  0  0  0  0  0  0  0  0
    5.1994  -17.1038   25.3847 N   0  0  0  0  0  0  0  0  0  0  0  0
    4.1625  -17.9651   25.5444 C   0  0  0  0  0  0  0  0  0  0  0  0
    4.2389  -18.9322   26.5752 C   0  0  0  0  0  0  0  0  0  0  0  0
    3.0852  -17.8888   24.6931 O   0  0  0  0  0  0  0  0  0  0  0  0
    1.7894  -19.5986   26.8079 C   0  0  0  0  0  0  0  0  0  0  0  0
    3.1987  -19.9008   26.8807 N   0  0  0  0  0  0  0  0  0  0  0  0
    0.9682  -20.3483   26.2908 O   0  0  0  0  0  0  0  0  0  0  0  0
    3.6596  -21.1331   27.3610 C   0  0  2  0  0  0  0  0  0  0  0  0
    4.5141  -20.9067   28.6346 C   0  0  0  0  0  0  0  0  0  0  0  0
    5.3943  -18.9372   27.4189 C   0  0  0  0  0  0  0  0  0  0  0  0
    5.5123  -19.9246   28.4953 N   0  0  0  0  0  0  0  0  0  0  0  0
    4.4678  -21.8564   26.3028 C   0  0  0  0  0  0  0  0  0  0  0  0
    3.7907  -22.2004   25.0832 N   0  0  0  0  0  0  0  0  0  0  0  0
    6.0569  -23.0500   21.6453 C   0  0  0  0  0  0  0  0  0  0  0  0
    4.9638  -22.1997   21.5510 C   0  0  0  0  0  0  0  0  0  0  0  0
    4.2189  -21.9136   22.6886 C   0  0  0  0  0  0  0  0  0  0  0  0
    4.5592  -22.4864   23.9125 C   0  0  0  0  0  0  0  0  0  0  0  0
    5.6434  -23.3420   23.9995 C   0  0  0  0  0  0  0  0  0  0  0  0
    6.3953  -23.6197   22.8643 C   0  0  0  0  0  0  0  0  0  0  0  0
  1  2  1  0  0  0  0
  2  3  2  0  0  0  0
  2 20  1  0  0  0  0
  4  6  1  0  0  0  0
  5  6  2  0  0  0  0
  5 16  1  0  0  0  0
  6  7  1  0  0  0  0
  7  8  1  0  0  0  0
  8  9  1  0  0  0  0
  8 10  2  0  0  0  0
  9 12  1  0  0  0  0
  9 16  2  0  0  0  0
 11 13  1  0  0  0  0
 11 12  1  0  0  0  0
 12 14  1  0  0  0  0
 14 15  1  0  0  0  0
 14 18  1  6  0  0  0
 15 17  1  0  0  0  0
 16 17  1  0  0  0  0
 18 19  1  0  0  0  0
 19 23  1  0  0  0  0
 20 21  2  0  0  0  0
 20 25  1  0  0  0  0
 21 22  1  0  0  0  0
 22 23  2  0  0  0  0
 23 24  1  0  0  0  0
 24 25  2  0  0  0  0
M  END
>  <CHROM.1>
135.32400968,-61.43437338,160.39592589,-133.15947854,60.44737303,4.88535660
-20.56290637,24.90683238,-1.22147373,0.72466871,0.66263884

>  <Name>
ligand

>  <RI>
0

>  <Rbt.Current_Directory>
/home/itssahil/PROJECTS/Mol_Feturizer/New_Systems/rnas/4LVV

>  <Rbt.Executable>
rbdock ($Id: //depot/dev/client3/rdock/2013.1/src/exe/rbdock.cxx#4 $)

>  <Rbt.Library>
libRbt.so (2013.1, Build901 2013/11/27)

>  <Rbt.Parameter_File>
/export/apps/rDock/src/rDock_2013.1_src/data/scripts/dock_solv.prm

>  <Rbt.Receptor>
prm/pocket_docking_7.prm

>  <SCORE>
-13.9194

>  <SCORE.INTER>
-12.8339

>  <SCORE.INTER.CONST>
1

>  <SCORE.INTER.POLAR>
0

>  <SCORE.INTER.ROT>
5

>  <SCORE.INTER.SOLV>
13.8364

>  <SCORE.INTER.VDW>
-20.1014

>  <SCORE.INTER.norm>
-0.513356

>  <SCORE.INTRA>
-1.08552

>  <SCORE.INTRA.DIHEDRAL>
-0.497958

>  <SCORE.INTRA.DIHEDRAL.0>
3.94806

>  <SCORE.INTRA.POLAR>
0

>  <SCORE.INTRA.POLAR.0>
0

>  <SCORE.INTRA.REPUL>
0

>  <SCORE.INTRA.REPUL.0>
0

>  <SCORE.INTRA.SOLV>
0.356765

>  <SCORE.INTRA.SOLV.lig_0>
-70.9803

>  <SCORE.INTRA.VDW>
-1.01492

>  <SCORE.INTRA.VDW.0>
-0.709409

>  <SCORE.INTRA.norm>
-0.0434207

>  <SCORE.RESTR>
0

>  <SCORE.RESTR.CAVITY>
0

>  <SCORE.RESTR.norm>
0

>  <SCORE.SYSTEM>
0

>  <SCORE.SYSTEM.CONST>
0

>  <SCORE.SYSTEM.DIHEDRAL>
0

>  <SCORE.SYSTEM.SOLV>
0

>  <SCORE.SYSTEM.norm>
0

>  <SCORE.heavy>
25

>  <SCORE.norm>
-0.556776

>  <RMSD>
5.167

$$$$
ligand
 OpenBabel11021811503D
libRbt.so/2013.1/901 2013/11/27
 25 27  0  0  0  0  0  0  0  0999 V2000
    7.6390  -22.4694   19.7114 N   0  0  0  0  0  0  0  0  0  0  0  0
    6.9156  -23.5024   20.3860 C   0  0  0  0  0  0  0  0  0  0  0  0
    6.9792  -24.6640   20.0031 O   0  0  0  0  0  0  0  0  0  0  0  0
    7.4161  -16.2898   26.2172 N   0  0  0  0  0  0  0  0  0  0  0  0
    6.3743  -18.1574   27.3089 N   0  0  0  0  0  0  0  0  0  0  0  0
    6.3282  -17.2034   26.3505 C   0  0  0  0  0  0  0  0  0  0  0  0
    5.2525  -17.0935   25.5143 N   0  0  0  0  0  0  0  0  0  0  0  0
    4.1866  -17.9298   25.5979 C   0  0  0  0  0  0  0  0  0  0  0  0
    4.2030  -18.9506   26.5784 C   0  0  0  0  0  0  0  0  0  0  0  0
    3.1389  -17.7770   24.7205 O   0  0  0  0  0  0  0  0  0  0  0  0
    1.7293  -19.5531   26.7036 C   0  0  0  0  0  0  0  0  0  0  0  0
    3.1263  -19.9014   26.8020 N   0  0  0  0  0  0  0  0  0  0  0  0
    0.8447  -20.3776   26.5000 O   0  0  0  0  0  0  0  0  0  0  0  0
    3.5362  -21.1704   27.2305 C   0  0  2  0  0  0  0  0  0  0  0  0
    4.3570  -21.0360   28.5388 C   0  0  0  0  0  0  0  0  0  0  0  0
    5.3311  -19.0343   27.4544 C   0  0  0  0  0  0  0  0  0  0  0  0
    5.3871  -20.0790   28.4807 N   0  0  0  0  0  0  0  0  0  0  0  0
    4.3556  -21.8626   26.1601 C   0  0  0  0  0  0  0  0  0  0  0  0
    3.7336  -22.0507   24.8787 N   0  0  0  0  0  0  0  0  0  0  0  0
    6.0950  -23.1427   21.5760 C   0  0  0  0  0  0  0  0  0  0  0  0
    6.3977  -23.6517   22.8314 C   0  0  0  0  0  0  0  0  0  0  0  0
    5.6131  -23.2962   23.9217 C   0  0  0  0  0  0  0  0  0  0  0  0
    4.5381  -22.4247   23.7582 C   0  0  0  0  0  0  0  0  0  0  0  0
    4.2466  -21.9112   22.5065 C   0  0  0  0  0  0  0  0  0  0  0  0
    5.0244  -22.2753   21.4139 C   0  0  0  0  0  0  0  0  0  0  0  0
  1  2  1  0  0  0  0
  2  3  2  0  0  0  0
  2 20  1  0  0  0  0
  4  6  1  0  0  0  0
  5  6  2  0  0  0  0
  5 16  1  0  0  0  0
  6  7  1  0  0  0  0
  7  8  1  0  0  0  0
  8  9  1  0  0  0  0
  8 10  2  0  0  0  0
  9 12  1  0  0  0  0
  9 16  2  0  0  0  0
 11 13  1  0  0  0  0
 11 12  1  0  0  0  0
 12 14  1  0  0  0  0
 14 15  1  0  0  0  0
 14 18  1  6  0  0  0
 15 17  1  0  0  0  0
 16 17  1  0  0  0  0
 18 19  1  0  0  0  0
 19 23  1  0  0  0  0
 20 21  2  0  0  0  0
 20 25  1  0  0  0  0
 21 22  1  0  0  0  0
 22 23  2  0  0  0  0
 23 24  1  0  0  0  0
 24 25  2  0  0  0  0
M  END
>  <CHROM.1>
157.88105552,-57.81108846,166.46583598,36.50477764,-116.36410907,4.86208351
-20.59797399,24.88476309,-1.22972657,0.66746636,0.68555187

>  <Name>
ligand

>  <RI>
0

>  <Rbt.Current_Directory>
/home/itssahil/PROJECTS/Mol_Feturizer/New_Systems/rnas/4LVV

>  <Rbt.Executable>
rbdock ($Id: //depot/dev/client3/rdock/2013.1/src/exe/rbdock.cxx#4 $)

>  <Rbt.Library>
libRbt.so (2013.1, Build901 2013/11/27)

>  <Rbt.Parameter_File>
/export/apps/rDock/src/rDock_2013.1_src/data/scripts/dock_solv.prm

>  <Rbt.Receptor>
prm/pocket_docking_5.prm

>  <SCORE>
-13.9555

>  <SCORE.INTER>
-13.0457

>  <SCORE.INTER.CONST>
1

>  <SCORE.INTER.POLAR>
0

>  <SCORE.INTER.ROT>
5

>  <SCORE.INTER.SOLV>
14.0275

>  <SCORE.INTER.VDW>
-20.3063

>  <SCORE.INTER.norm>
-0.521829

>  <SCORE.INTRA>
-0.90974

>  <SCORE.INTRA.DIHEDRAL>
-0.687131

>  <SCORE.INTRA.DIHEDRAL.0>
3.94806

>  <SCORE.INTRA.POLAR>
0

>  <SCORE.INTRA.POLAR.0>
0

>  <SCORE.INTRA.REPUL>
0

>  <SCORE.INTRA.REPUL.0>
0

>  <SCORE.INTRA.SOLV>
0.298708

>  <SCORE.INTRA.SOLV.lig_0>
-70.9803

>  <SCORE.INTRA.VDW>
-0.715528

>  <SCORE.INTRA.VDW.0>
-0.709409

>  <SCORE.INTRA.norm>
-0.0363896

>  <SCORE.RESTR>
0

>  <SCORE.RESTR.CAVITY>
0

>  <SCORE.RESTR.norm>
0

>  <SCORE.SYSTEM>
0

>  <SCORE.SYSTEM.CONST>
0

>  <SCORE.SYSTEM.DIHEDRAL>
0

>  <SCORE.SYSTEM.SOLV>
0

>  <SCORE.SYSTEM.norm>
0

>  <SCORE.heavy>
25

>  <SCORE.norm>
-0.558218

>  <RMSD>
5.169

$$$$
ligand
 OpenBabel11021811503D
libRbt.so/2013.1/901 2013/11/27
 25 27  0  0  0  0  0  0  0  0999 V2000
    7.1969  -24.6474   20.1139 N   0  0  0  0  0  0  0  0  0  0  0  0
    6.8613  -23.2942   20.4325 C   0  0  0  0  0  0  0  0  0  0  0  0
    7.2085  -22.3743   19.7022 O   0  0  0  0  0  0  0  0  0  0  0  0
    7.2403  -16.1105   25.9794 N   0  0  0  0  0  0  0  0  0  0  0  0
    6.3468  -17.9667   27.2128 N   0  0  0  0  0  0  0  0  0  0  0  0
    6.2174  -17.0811   26.1980 C   0  0  0  0  0  0  0  0  0  0  0  0
    5.1188  -17.0939   25.3848 N   0  0  0  0  0  0  0  0  0  0  0  0
    4.1119  -17.9894   25.5485 C   0  0  0  0  0  0  0  0  0  0  0  0
    4.2164  -18.9419   26.5903 C   0  0  0  0  0  0  0  0  0  0  0  0
    3.0374  -17.9603   24.6908 O   0  0  0  0  0  0  0  0  0  0  0  0
    1.7905  -19.6915   26.8174 C   0  0  0  0  0  0  0  0  0  0  0  0
    3.2091  -19.9431   26.9011 N   0  0  0  0  0  0  0  0  0  0  0  0
    0.9918  -20.4990   26.3551 O   0  0  0  0  0  0  0  0  0  0  0  0
    3.7102  -21.1531   27.3975 C   0  0  2  0  0  0  0  0  0  0  0  0
    4.5490  -20.8829   28.6730 C   0  0  0  0  0  0  0  0  0  0  0  0
    5.3664  -18.8971   27.4402 C   0  0  0  0  0  0  0  0  0  0  0  0
    5.5129  -19.8679   28.5281 N   0  0  0  0  0  0  0  0  0  0  0  0
    4.5493  -21.8591   26.3516 C   0  0  0  0  0  0  0  0  0  0  0  0
    3.8687  -22.3396   25.1812 N   0  0  0  0  0  0  0  0  0  0  0  0
    6.0653  -23.0238   21.6622 C   0  0  0  0  0  0  0  0  0  0  0  0
    4.9538  -22.1932   21.6240 C   0  0  0  0  0  0  0  0  0  0  0  0
    4.2318  -21.9617   22.7885 C   0  0  0  0  0  0  0  0  0  0  0  0
    4.6134  -22.5693   23.9831 C   0  0  0  0  0  0  0  0  0  0  0  0
    5.7160  -23.4051   24.0140 C   0  0  0  0  0  0  0  0  0  0  0  0
    6.4448  -23.6281   22.8520 C   0  0  0  0  0  0  0  0  0  0  0  0
  1  2  1  0  0  0  0
  2  3  2  0  0  0  0
  2 20  1  0  0  0  0
  4  6  1  0  0  0  0
  5  6  2  0  0  0  0
  5 16  1  0  0  0  0
  6  7  1  0  0  0  0
  7  8  1  0  0  0  0
  8  9  1  0  0  0  0
  8 10  2  0  0  0  0
  9 12  1  0  0  0  0
  9 16  2  0  0  0  0
 11 13  1  0  0  0  0
 11 12  1  0  0  0  0
 12 14  1  0  0  0  0
 14 15  1  0  0  0  0
 14 18  1  6  0  0  0
 15 17  1  0  0  0  0
 16 17  1  0  0  0  0
 18 19  1  0  0  0  0
 19 23  1  0  0  0  0
 20 21  2  0  0  0  0
 20 25  1  0  0  0  0
 21 22  1  0  0  0  0
 22 23  2  0  0  0  0
 23 24  1  0  0  0  0
 24 25  2  0  0  0  0
M  END
>  <CHROM.1>
138.48222760,-66.51396021,157.84279874,-125.29187010,-131.74296652,4.87967261
-20.57010564,24.93060912,-1.20413565,0.77540013,0.63901296

>  <Name>
ligand

>  <RI>
0

>  <Rbt.Current_Directory>
/home/itssahil/PROJECTS/Mol_Feturizer/New_Systems/rnas/4LVV

>  <Rbt.Executable>
rbdock ($Id: //depot/dev/client3/rdock/2013.1/src/exe/rbdock.cxx#4 $)

>  <Rbt.Library>
libRbt.so (2013.1, Build901 2013/11/27)

>  <Rbt.Parameter_File>
/export/apps/rDock/src/rDock_2013.1_src/data/scripts/dock_solv.prm

>  <Rbt.Receptor>
prm/pocket_docking_8.prm

>  <SCORE>
-13.677

>  <SCORE.INTER>
-12.6237

>  <SCORE.INTER.CONST>
1

>  <SCORE.INTER.POLAR>
0

>  <SCORE.INTER.ROT>
5

>  <SCORE.INTER.SOLV>
15.129

>  <SCORE.INTER.VDW>
-20.3922

>  <SCORE.INTER.norm>
-0.504949

>  <SCORE.INTRA>
-1.05325

>  <SCORE.INTRA.DIHEDRAL>
-0.286459

>  <SCORE.INTRA.DIHEDRAL.0>
3.94806

>  <SCORE.INTRA.POLAR>
0

>  <SCORE.INTRA.POLAR.0>
0

>  <SCORE.INTRA.REPUL>
0

>  <SCORE.INTRA.REPUL.0>
0

>  <SCORE.INTRA.SOLV>
0.272325

>  <SCORE.INTRA.SOLV.lig_0>
-70.9803

>  <SCORE.INTRA.VDW>
-1.04619

>  <SCORE.INTRA.VDW.0>
-0.709409

>  <SCORE.INTRA.norm>
-0.0421301

>  <SCORE.RESTR>
0

>  <SCORE.RESTR.CAVITY>
0

>  <SCORE.RESTR.norm>
0

>  <SCORE.SYSTEM>
0

>  <SCORE.SYSTEM.CONST>
0

>  <SCORE.SYSTEM.DIHEDRAL>
0

>  <SCORE.SYSTEM.SOLV>
0

>  <SCORE.SYSTEM.norm>
0

>  <SCORE.heavy>
25

>  <SCORE.norm>
-0.547079

>  <RMSD>
5.169

$$$$
ligand
 OpenBabel11021811503D
libRbt.so/2013.1/901 2013/11/27
 25 27  0  0  0  0  0  0  0  0999 V2000
    7.6421  -22.4194   19.7871 N   0  0  0  0  0  0  0  0  0  0  0  0
    6.8926  -23.4451   20.4440 C   0  0  0  0  0  0  0  0  0  0  0  0
    6.9426  -24.6049   20.0535 O   0  0  0  0  0  0  0  0  0  0  0  0
    7.3886  -16.2363   26.0163 N   0  0  0  0  0  0  0  0  0  0  0  0
    6.4112  -18.0778   27.2074 N   0  0  0  0  0  0  0  0  0  0  0  0
    6.3211  -17.1618   26.2155 C   0  0  0  0  0  0  0  0  0  0  0  0
    5.2202  -17.1014   25.4076 N   0  0  0  0  0  0  0  0  0  0  0  0
    4.1719  -17.9513   25.5537 C   0  0  0  0  0  0  0  0  0  0  0  0
    4.2341  -18.9335   26.5710 C   0  0  0  0  0  0  0  0  0  0  0  0
    3.0970  -17.8490   24.7021 O   0  0  0  0  0  0  0  0  0  0  0  0
    1.7758  -19.5712   26.7909 C   0  0  0  0  0  0  0  0  0  0  0  0
    3.1809  -19.8927   26.8615 N   0  0  0  0  0  0  0  0  0  0  0  0
    0.9171  -20.3835   26.4644 O   0  0  0  0  0  0  0  0  0  0  0  0
    3.6250  -21.1375   27.3252 C   0  0  2  0  0  0  0  0  0  0  0  0
    4.4804  -20.9400   28.6030 C   0  0  0  0  0  0  0  0  0  0  0  0
    5.3880  -18.9654   27.4161 C   0  0  0  0  0  0  0  0  0  0  0  0
    5.4915  -19.9692   28.4788 N   0  0  0  0  0  0  0  0  0  0  0  0
    4.4254  -21.8565   26.2580 C   0  0  0  0  0  0  0  0  0  0  0  0
    3.7615  -22.1279   25.0132 N   0  0  0  0  0  0  0  0  0  0  0  0
    6.0613  -23.0805   21.6250 C   0  0  0  0  0  0  0  0  0  0  0  0
    4.9709  -22.2315   21.4948 C   0  0  0  0  0  0  0  0  0  0  0  0
    4.2149  -21.9113   22.6159 C   0  0  0  0  0  0  0  0  0  0  0  0
    4.5414  -22.4489   23.8593 C   0  0  0  0  0  0  0  0  0  0  0  0
    5.6230  -23.3035   23.9823 C   0  0  0  0  0  0  0  0  0  0  0  0
    6.3860  -23.6151   22.8633 C   0  0  0  0  0  0  0  0  0  0  0  0
  1  2  1  0  0  0  0
  2  3  2  0  0  0  0
  2 20  1  0  0  0  0
  4  6  1  0  0  0  0
  5  6  2  0  0  0  0
  5 16  1  0  0  0  0
  6  7  1  0  0  0  0
  7  8  1  0  0  0  0
  8  9  1  0  0  0  0
  8 10  2  0  0  0  0
  9 12  1  0  0  0  0
  9 16  2  0  0  0  0
 11 13  1  0  0  0  0
 11 12  1  0  0  0  0
 12 14  1  0  0  0  0
 14 15  1  0  0  0  0
 14 18  1  6  0  0  0
 15 17  1  0  0  0  0
 16 17  1  0  0  0  0
 18 19  1  0  0  0  0
 19 23  1  0  0  0  0
 20 21  2  0  0  0  0
 20 25  1  0  0  0  0
 21 22  1  0  0  0  0
 22 23  2  0  0  0  0
 23 24  1  0  0  0  0
 24 25  2  0  0  0  0
M  END
>  <CHROM.1>
147.60230728,-59.06118222,162.49609201,-138.21285573,65.05850587,4.87969625
-20.57507174,24.90243344,-1.22387510,0.70152228,0.66946702

>  <Name>
ligand

>  <RI>
0

>  <Rbt.Current_Directory>
/home/itssahil/PROJECTS/Mol_Feturizer/New_Systems/rnas/4LVV

>  <Rbt.Executable>
rbdock ($Id: //depot/dev/client3/rdock/2013.1/src/exe/rbdock.cxx#4 $)

>  <Rbt.Library>
libRbt.so (2013.1, Build901 2013/11/27)

>  <Rbt.Parameter_File>
/export/apps/rDock/src/rDock_2013.1_src/data/scripts/dock_solv.prm

>  <Rbt.Receptor>
prm/pocket_docking_6.prm

>  <SCORE>
-13.9076

>  <SCORE.INTER>
-12.9293

>  <SCORE.INTER.CONST>
1

>  <SCORE.INTER.POLAR>
0

>  <SCORE.INTER.ROT>
5

>  <SCORE.INTER.SOLV>
13.7845

>  <SCORE.INTER.VDW>
-20.1477

>  <SCORE.INTER.norm>
-0.517173

>  <SCORE.INTRA>
-0.978277

>  <SCORE.INTRA.DIHEDRAL>
-0.60694

>  <SCORE.INTRA.DIHEDRAL.0>
3.94806

>  <SCORE.INTRA.POLAR>
0

>  <SCORE.INTRA.POLAR.0>
0

>  <SCORE.INTRA.REPUL>
0

>  <SCORE.INTRA.REPUL.0>
0

>  <SCORE.INTRA.SOLV>
0.33597

>  <SCORE.INTRA.SOLV.lig_0>
-70.9803

>  <SCORE.INTRA.VDW>
-0.842792

>  <SCORE.INTRA.VDW.0>
-0.709409

>  <SCORE.INTRA.norm>
-0.0391311

>  <SCORE.RESTR>
0

>  <SCORE.RESTR.CAVITY>
0

>  <SCORE.RESTR.norm>
0

>  <SCORE.SYSTEM>
0

>  <SCORE.SYSTEM.CONST>
0

>  <SCORE.SYSTEM.DIHEDRAL>
0

>  <SCORE.SYSTEM.SOLV>
0

>  <SCORE.SYSTEM.norm>
0

>  <SCORE.heavy>
25

>  <SCORE.norm>
-0.556304

>  <RMSD>
5.170

$$$$
ligand
 OpenBabel11021811503D
libRbt.so/2013.1/901 2013/11/27
 25 27  0  0  0  0  0  0  0  0999 V2000
    7.6717  -23.0630   19.1376 N   0  0  0  0  0  0  0  0  0  0  0  0
    7.0335  -23.9850   20.0253 C   0  0  0  0  0  0  0  0  0  0  0  0
    7.1097  -25.1925   19.8349 O   0  0  0  0  0  0  0  0  0  0  0  0
    7.4385  -16.6102   26.9876 N   0  0  0  0  0  0  0  0  0  0  0  0
    6.5431  -18.7190   27.7065 N   0  0  0  0  0  0  0  0  0  0  0  0
    6.4171  -17.6058   26.9476 C   0  0  0  0  0  0  0  0  0  0  0  0
    5.3230  -17.4139   26.1510 N   0  0  0  0  0  0  0  0  0  0  0  0
    4.3176  -18.3228   26.0769 C   0  0  0  0  0  0  0  0  0  0  0  0
    4.4187  -19.5076   26.8449 C   0  0  0  0  0  0  0  0  0  0  0  0
    3.2478  -18.0791   25.2479 O   0  0  0  0  0  0  0  0  0  0  0  0
    1.9936  -20.2930   26.8605 C   0  0  0  0  0  0  0  0  0  0  0  0
    3.4124  -20.5560   26.8864 N   0  0  0  0  0  0  0  0  0  0  0  0
    1.3031  -20.4347   25.8570 O   0  0  0  0  0  0  0  0  0  0  0  0
    3.9140  -21.8516   27.0638 C   0  0  2  0  0  0  0  0  0  0  0  0
    4.7449  -21.9116   28.3713 C   0  0  0  0  0  0  0  0  0  0  0  0
    5.5639  -19.6777   27.6854 C   0  0  0  0  0  0  0  0  0  0  0  0
    5.7069  -20.8918   28.4935 N   0  0  0  0  0  0  0  0  0  0  0  0
    4.7607  -22.2694   25.8786 C   0  0  0  0  0  0  0  0  0  0  0  0
    4.2265  -22.0136   24.5697 N   0  0  0  0  0  0  0  0  0  0  0  0
    6.2870  -23.4504   21.1982 C   0  0  0  0  0  0  0  0  0  0  0  0
    5.2257  -22.5720   21.0282 C   0  0  0  0  0  0  0  0  0  0  0  0
    4.5491  -22.0919   22.1429 C   0  0  0  0  0  0  0  0  0  0  0  0
    4.9251  -22.4994   23.4213 C   0  0  0  0  0  0  0  0  0  0  0  0
    5.9770  -23.3837   23.5853 C   0  0  0  0  0  0  0  0  0  0  0  0
    6.6610  -23.8554   22.4714 C   0  0  0  0  0  0  0  0  0  0  0  0
  1  2  1  0  0  0  0
  2  3  2  0  0  0  0
  2 20  1  0  0  0  0
  4  6  1  0  0  0  0
  5  6  2  0  0  0  0
  5 16  1  0  0  0  0
  6  7  1  0  0  0  0
  7  8  1  0  0  0  0
  8  9  1  0  0  0  0
  8 10  2  0  0  0  0
  9 12  1  0  0  0  0
  9 16  2  0  0  0  0
 11 13  1  0  0  0  0
 11 12  1  0  0  0  0
 12 14  1  0  0  0  0
 14 15  1  0  0  0  0
 14 18  1  6  0  0  0
 15 17  1  0  0  0  0
 16 17  1  0  0  0  0
 18 19  1  0  0  0  0
 19 23  1  0  0  0  0
 20 21  2  0  0  0  0
 20 25  1  0  0  0  0
 21 22  1  0  0  0  0
 22 23  2  0  0  0  0
 23 24  1  0  0  0  0
 24 25  2  0  0  0  0
M  END
>  <CHROM.1>
102.33848099,-46.22204838,-174.18184813,-169.92290904,58.77482529,5.10337226
-21.01872788,24.86101822,-1.29682495,0.60546969,0.78328092

>  <Name>
ligand

>  <RI>
0

>  <Rbt.Current_Directory>
/home/itssahil/PROJECTS/Mol_Feturizer/New_Systems/rnas/4LVV

>  <Rbt.Executable>
rbdock ($Id: //depot/dev/client3/rdock/2013.1/src/exe/rbdock.cxx#4 $)

>  <Rbt.Library>
libRbt.so (2013.1, Build901 2013/11/27)

>  <Rbt.Parameter_File>
/export/apps/rDock/src/rDock_2013.1_src/data/scripts/dock_solv.prm

>  <Rbt.Receptor>
prm/pocket_docking_7.prm

>  <SCORE>
-13.0103

>  <SCORE.INTER>
-13.1316

>  <SCORE.INTER.CONST>
1

>  <SCORE.INTER.POLAR>
0

>  <SCORE.INTER.ROT>
5

>  <SCORE.INTER.SOLV>
12.9422

>  <SCORE.INTER.VDW>
-20.0018

>  <SCORE.INTER.norm>
-0.525263

>  <SCORE.INTRA>
0.121302

>  <SCORE.INTRA.DIHEDRAL>
0.140631

>  <SCORE.INTRA.DIHEDRAL.0>
3.94806

>  <SCORE.INTRA.POLAR>
0

>  <SCORE.INTRA.POLAR.0>
0

>  <SCORE.INTRA.REPUL>
0

>  <SCORE.INTRA.REPUL.0>
0

>  <SCORE.INTRA.SOLV>
0.821476

>  <SCORE.INTRA.SOLV.lig_0>
-70.9803

>  <SCORE.INTRA.VDW>
-0.359752

>  <SCORE.INTRA.VDW.0>
-0.709409

>  <SCORE.INTRA.norm>
0.00485207

>  <SCORE.RESTR>
0

>  <SCORE.RESTR.CAVITY>
0

>  <SCORE.RESTR.norm>
0

>  <SCORE.SYSTEM>
0

>  <SCORE.SYSTEM.CONST>
0

>  <SCORE.SYSTEM.DIHEDRAL>
0

>  <SCORE.SYSTEM.SOLV>
0

>  <SCORE.SYSTEM.norm>
0

>  <SCORE.heavy>
25

>  <SCORE.norm>
-0.520411

>  <RMSD>
5.170

$$$$
ligand
 OpenBabel11021811503D
libRbt.so/2013.1/901 2013/11/27
 25 27  0  0  0  0  0  0  0  0999 V2000
    7.0195  -22.3749   19.4282 N   0  0  0  0  0  0  0  0  0  0  0  0
    6.8565  -23.3618   20.4503 C   0  0  0  0  0  0  0  0  0  0  0  0
    7.3942  -24.4580   20.3538 O   0  0  0  0  0  0  0  0  0  0  0  0
    7.3460  -16.2425   25.8838 N   0  0  0  0  0  0  0  0  0  0  0  0
    6.4043  -18.0628   27.1349 N   0  0  0  0  0  0  0  0  0  0  0  0
    6.2895  -17.1711   26.1236 C   0  0  0  0  0  0  0  0  0  0  0  0
    5.1740  -17.1380   25.3343 N   0  0  0  0  0  0  0  0  0  0  0  0
    4.1353  -17.9920   25.5189 C   0  0  0  0  0  0  0  0  0  0  0  0
    4.2232  -18.9496   26.5577 C   0  0  0  0  0  0  0  0  0  0  0  0
    3.0448  -17.9180   24.6845 O   0  0  0  0  0  0  0  0  0  0  0  0
    1.7742  -19.6002   26.8363 C   0  0  0  0  0  0  0  0  0  0  0  0
    3.1829  -19.9095   26.8893 N   0  0  0  0  0  0  0  0  0  0  0  0
    0.9627  -20.2728   26.2095 O   0  0  0  0  0  0  0  0  0  0  0  0
    3.6449  -21.1396   27.3740 C   0  0  2  0  0  0  0  0  0  0  0  0
    4.5211  -20.9057   28.6314 C   0  0  0  0  0  0  0  0  0  0  0  0
    5.3920  -18.9529   27.3826 C   0  0  0  0  0  0  0  0  0  0  0  0
    5.5222  -19.9305   28.4665 N   0  0  0  0  0  0  0  0  0  0  0  0
    4.4320  -21.8775   26.3099 C   0  0  0  0  0  0  0  0  0  0  0  0
    3.7578  -22.1565   25.0722 N   0  0  0  0  0  0  0  0  0  0  0  0
    6.0333  -23.0264   21.6456 C   0  0  0  0  0  0  0  0  0  0  0  0
    4.9312  -22.1890   21.5403 C   0  0  0  0  0  0  0  0  0  0  0  0
    4.1832  -21.8961   22.6742 C   0  0  0  0  0  0  0  0  0  0  0  0
    4.5294  -22.4494   23.9054 C   0  0  0  0  0  0  0  0  0  0  0  0
    5.6227  -23.2923   24.0034 C   0  0  0  0  0  0  0  0  0  0  0  0
    6.3775  -23.5766   22.8717 C   0  0  0  0  0  0  0  0  0  0  0  0
  1  2  1  0  0  0  0
  2  3  2  0  0  0  0
  2 20  1  0  0  0  0
  4  6  1  0  0  0  0
  5  6  2  0  0  0  0
  5 16  1  0  0  0  0
  6  7  1  0  0  0  0
  7  8  1  0  0  0  0
  8  9  1  0  0  0  0
  8 10  2  0  0  0  0
  9 12  1  0  0  0  0
  9 16  2  0  0  0  0
 11 13  1  0  0  0  0
 11 12  1  0  0  0  0
 12 14  1  0  0  0  0
 14 15  1  0  0  0  0
 14 18  1  6  0  0  0
 15 17  1  0  0  0  0
 16 17  1  0  0  0  0
 18 19  1  0  0  0  0
 19 23  1  0  0  0  0
 20 21  2  0  0  0  0
 20 25  1  0  0  0  0
 21 22  1  0  0  0  0
 22 23  2  0  0  0  0
 23 24  1  0  0  0  0
 24 25  2  0  0  0  0
M  END
>  <CHROM.1>
126.76403937,-57.69053661,160.22801621,-137.31246325,33.50639027,4.86645764
-20.55946732,24.88850946,-1.20959066,0.73345382,0.65879773

>  <Name>
ligand

>  <RI>
0

>  <Rbt.Current_Directory>
/home/itssahil/PROJECTS/Mol_Feturizer/New_Systems/rnas/4LVV

>  <Rbt.Executable>
rbdock ($Id: //depot/dev/client3/rdock/2013.1/src/exe/rbdock.cxx#4 $)

>  <Rbt.Library>
libRbt.so (2013.1, Build901 2013/11/27)

>  <Rbt.Parameter_File>
/export/apps/rDock/src/rDock_2013.1_src/data/scripts/dock_solv.prm

>  <Rbt.Receptor>
prm/pocket_docking_8.prm

>  <SCORE>
-13.7172

>  <SCORE.INTER>
-12.8719

>  <SCORE.INTER.CONST>
1

>  <SCORE.INTER.POLAR>
0

>  <SCORE.INTER.ROT>
5

>  <SCORE.INTER.SOLV>
13.6891

>  <SCORE.INTER.VDW>
-20.0776

>  <SCORE.INTER.norm>
-0.514876

>  <SCORE.INTRA>
-0.845268

>  <SCORE.INTRA.DIHEDRAL>
-0.440128

>  <SCORE.INTRA.DIHEDRAL.0>
3.94806

>  <SCORE.INTRA.POLAR>
0

>  <SCORE.INTRA.POLAR.0>
0

>  <SCORE.INTRA.REPUL>
0

>  <SCORE.INTRA.REPUL.0>
0

>  <SCORE.INTRA.SOLV>
0.448101

>  <SCORE.INTRA.SOLV.lig_0>
-70.9803

>  <SCORE.INTRA.VDW>
-0.849255

>  <SCORE.INTRA.VDW.0>
-0.709409

>  <SCORE.INTRA.norm>
-0.0338107

>  <SCORE.RESTR>
0

>  <SCORE.RESTR.CAVITY>
0

>  <SCORE.RESTR.norm>
0

>  <SCORE.SYSTEM>
0

>  <SCORE.SYSTEM.CONST>
0

>  <SCORE.SYSTEM.DIHEDRAL>
0

>  <SCORE.SYSTEM.SOLV>
0

>  <SCORE.SYSTEM.norm>
0

>  <SCORE.heavy>
25

>  <SCORE.norm>
-0.548686

>  <RMSD>
5.173

$$$$
ligand
 OpenBabel11021811503D
libRbt.so/2013.1/901 2013/11/27
 25 27  0  0  0  0  0  0  0  0999 V2000
    6.4494  -21.9575   19.2047 N   0  0  0  0  0  0  0  0  0  0  0  0
    6.7809  -22.9483   20.1813 C   0  0  0  0  0  0  0  0  0  0  0  0
    7.6137  -23.8130   19.9384 O   0  0  0  0  0  0  0  0  0  0  0  0
    7.2298  -16.0985   25.6344 N   0  0  0  0  0  0  0  0  0  0  0  0
    6.3012  -17.8823   26.9463 N   0  0  0  0  0  0  0  0  0  0  0  0
    6.2278  -17.0911   25.8511 C   0  0  0  0  0  0  0  0  0  0  0  0
    5.2046  -17.2196   24.9540 N   0  0  0  0  0  0  0  0  0  0  0  0
    4.2205  -18.1413   25.1109 C   0  0  0  0  0  0  0  0  0  0  0  0
    4.2693  -18.9980   26.2367 C   0  0  0  0  0  0  0  0  0  0  0  0
    3.2237  -18.2308   24.1679 O   0  0  0  0  0  0  0  0  0  0  0  0
    1.8617  -19.8309   26.3264 C   0  0  0  0  0  0  0  0  0  0  0  0
    3.2760  -20.0126   26.5488 N   0  0  0  0  0  0  0  0  0  0  0  0
    1.1263  -19.2533   27.1198 O   0  0  0  0  0  0  0  0  0  0  0  0
    3.7761  -21.1540   27.1883 C   0  0  2  0  0  0  0  0  0  0  0  0
    4.4914  -20.7419   28.5005 C   0  0  0  0  0  0  0  0  0  0  0  0
    5.3394  -18.8323   27.1717 C   0  0  0  0  0  0  0  0  0  0  0  0
    5.4267  -19.7015   28.3483 N   0  0  0  0  0  0  0  0  0  0  0  0
    4.7274  -21.9076   26.2808 C   0  0  0  0  0  0  0  0  0  0  0  0
    4.1449  -22.6832   25.2209 N   0  0  0  0  0  0  0  0  0  0  0  0
    6.1066  -22.9000   21.5086 C   0  0  0  0  0  0  0  0  0  0  0  0
    6.6185  -23.5970   22.5944 C   0  0  0  0  0  0  0  0  0  0  0  0
    5.9663  -23.5307   23.8196 C   0  0  0  0  0  0  0  0  0  0  0  0
    4.8141  -22.7598   23.9603 C   0  0  0  0  0  0  0  0  0  0  0  0
    4.3134  -22.0581   22.8776 C   0  0  0  0  0  0  0  0  0  0  0  0
    4.9592  -22.1330   21.6494 C   0  0  0  0  0  0  0  0  0  0  0  0
  1  2  1  0  0  0  0
  2  3  2  0  0  0  0
  2 20  1  0  0  0  0
  4  6  1  0  0  0  0
  5  6  2  0  0  0  0
  5 16  1  0  0  0  0
  6  7  1  0  0  0  0
  7  8  1  0  0  0  0
  8  9  1  0  0  0  0
  8 10  2  0  0  0  0
  9 12  1  0  0  0  0
  9 16  2  0  0  0  0
 11 13  1  0  0  0  0
 11 12  1  0  0  0  0
 12 14  1  0  0  0  0
 14 15  1  0  0  0  0
 14 18  1  6  0  0  0
 15 17  1  0  0  0  0
 16 17  1  0  0  0  0
 18 19  1  0  0  0  0
 19 23  1  0  0  0  0
 20 21  2  0  0  0  0
 20 25  1  0  0  0  0
 21 22  1  0  0  0  0
 22 23  2  0  0  0  0
 23 24  1  0  0  0  0
 24 25  2  0  0  0  0
M  END
>  <CHROM.1>
-83.40656686,-75.80966203,143.71260712,73.79556116,-163.27912835,4.93527606
-20.49308520,24.73348811,-1.10004847,0.90873980,0.55488048

>  <Name>
ligand

>  <RI>
0

>  <Rbt.Current_Directory>
/home/itssahil/PROJECTS/Mol_Feturizer/New_Systems/rnas/4LVV

>  <Rbt.Executable>
rbdock ($Id: //depot/dev/client3/rdock/2013.1/src/exe/rbdock.cxx#4 $)

>  <Rbt.Library>
libRbt.so (2013.1, Build901 2013/11/27)

>  <Rbt.Parameter_File>
/export/apps/rDock/src/rDock_2013.1_src/data/scripts/dock_solv.prm

>  <Rbt.Receptor>
prm/pocket_docking_5.prm

>  <SCORE>
-11.6619

>  <SCORE.INTER>
-10.7614

>  <SCORE.INTER.CONST>
1

>  <SCORE.INTER.POLAR>
0

>  <SCORE.INTER.ROT>
5

>  <SCORE.INTER.SOLV>
14.9116

>  <SCORE.INTER.VDW>
-19.0781

>  <SCORE.INTER.norm>
-0.430456

>  <SCORE.INTRA>
-0.900544

>  <SCORE.INTRA.DIHEDRAL>
0.805573

>  <SCORE.INTRA.DIHEDRAL.0>
3.94806

>  <SCORE.INTRA.POLAR>
0

>  <SCORE.INTRA.POLAR.0>
0

>  <SCORE.INTRA.REPUL>
0

>  <SCORE.INTRA.REPUL.0>
0

>  <SCORE.INTRA.SOLV>
-0.32648

>  <SCORE.INTRA.SOLV.lig_0>
-70.9803

>  <SCORE.INTRA.VDW>
-1.14009

>  <SCORE.INTRA.VDW.0>
-0.709409

>  <SCORE.INTRA.norm>
-0.0360217

>  <SCORE.RESTR>
0

>  <SCORE.RESTR.CAVITY>
0

>  <SCORE.RESTR.norm>
0

>  <SCORE.SYSTEM>
0

>  <SCORE.SYSTEM.CONST>
0

>  <SCORE.SYSTEM.DIHEDRAL>
0

>  <SCORE.SYSTEM.SOLV>
0

>  <SCORE.SYSTEM.norm>
0

>  <SCORE.heavy>
25

>  <SCORE.norm>
-0.466477

>  <RMSD>
5.174

$$$$
ligand
 OpenBabel11021811503D
libRbt.so/2013.1/901 2013/11/27
 25 27  0  0  0  0  0  0  0  0999 V2000
    6.9668  -24.7812   20.0398 N   0  0  0  0  0  0  0  0  0  0  0  0
    6.8927  -23.4116   20.4448 C   0  0  0  0  0  0  0  0  0  0  0  0
    7.4876  -22.5412   19.8215 O   0  0  0  0  0  0  0  0  0  0  0  0
    7.3780  -16.2304   26.0037 N   0  0  0  0  0  0  0  0  0  0  0  0
    6.4080  -18.0702   27.2036 N   0  0  0  0  0  0  0  0  0  0  0  0
    6.3137  -17.1586   26.2081 C   0  0  0  0  0  0  0  0  0  0  0  0
    5.2116  -17.1050   25.4013 N   0  0  0  0  0  0  0  0  0  0  0  0
    4.1662  -17.9577   25.5522 C   0  0  0  0  0  0  0  0  0  0  0  0
    4.2329  -18.9355   26.5735 C   0  0  0  0  0  0  0  0  0  0  0  0
    3.0900  -17.8624   24.7016 O   0  0  0  0  0  0  0  0  0  0  0  0
    1.7769  -19.5802   26.7991 C   0  0  0  0  0  0  0  0  0  0  0  0
    3.1832  -19.8969   26.8693 N   0  0  0  0  0  0  0  0  0  0  0  0
    0.9571  -20.2894   26.2258 O   0  0  0  0  0  0  0  0  0  0  0  0
    3.6318  -21.1383   27.3375 C   0  0  2  0  0  0  0  0  0  0  0  0
    4.4881  -20.9328   28.6134 C   0  0  0  0  0  0  0  0  0  0  0  0
    5.3879  -18.9602   27.4173 C   0  0  0  0  0  0  0  0  0  0  0  0
    5.4960  -19.9593   28.4840 N   0  0  0  0  0  0  0  0  0  0  0  0
    4.4332  -21.8591   26.2723 C   0  0  0  0  0  0  0  0  0  0  0  0
    3.7670  -22.1424   25.0313 N   0  0  0  0  0  0  0  0  0  0  0  0
    6.0633  -23.0589   21.6308 C   0  0  0  0  0  0  0  0  0  0  0  0
    4.9894  -22.1869   21.5162 C   0  0  0  0  0  0  0  0  0  0  0  0
    4.2347  -21.8787   22.6415 C   0  0  0  0  0  0  0  0  0  0  0  0
    4.5457  -22.4511   23.8733 C   0  0  0  0  0  0  0  0  0  0  0  0
    5.6108  -23.3284   23.9805 C   0  0  0  0  0  0  0  0  0  0  0  0
    6.3726  -23.6282   22.8576 C   0  0  0  0  0  0  0  0  0  0  0  0
  1  2  1  0  0  0  0
  2  3  2  0  0  0  0
  2 20  1  0  0  0  0
  4  6  1  0  0  0  0
  5  6  2  0  0  0  0
  5 16  1  0  0  0  0
  6  7  1  0  0  0  0
  7  8  1  0  0  0  0
  8  9  1  0  0  0  0
  8 10  2  0  0  0  0
  9 12  1  0  0  0  0
  9 16  2  0  0  0  0
 11 13  1  0  0  0  0
 11 12  1  0  0  0  0
 12 14  1  0  0  0  0
 14 15  1  0  0  0  0
 14 18  1  6  0  0  0
 15 17  1  0  0  0  0
 16 17  1  0  0  0  0
 18 19  1  0  0  0  0
 19 23  1  0  0  0  0
 20 21  2  0  0  0  0
 20 25  1  0  0  0  0
 21 22  1  0  0  0  0
 22 23  2  0  0  0  0
 23 24  1  0  0  0  0
 24 25  2  0  0  0  0
M  END
>  <CHROM.1>
132.16914197,-59.29532261,161.79279723,-135.70473706,-119.57398183,4.87978037
-20.56823315,24.89464192,-1.22748666,0.70546507,0.66767641

>  <Name>
ligand

>  <RI>
0

>  <Rbt.Current_Directory>
/home/itssahil/PROJECTS/Mol_Feturizer/New_Systems/rnas/4LVV

>  <Rbt.Executable>
rbdock ($Id: //depot/dev/client3/rdock/2013.1/src/exe/rbdock.cxx#4 $)

>  <Rbt.Library>
libRbt.so (2013.1, Build901 2013/11/27)

>  <Rbt.Parameter_File>
/export/apps/rDock/src/rDock_2013.1_src/data/scripts/dock_solv.prm

>  <Rbt.Receptor>
prm/pocket_docking_8.prm

>  <SCORE>
-13.8198

>  <SCORE.INTER>
-12.7674

>  <SCORE.INTER.CONST>
1

>  <SCORE.INTER.POLAR>
0

>  <SCORE.INTER.ROT>
5

>  <SCORE.INTER.SOLV>
14.7882

>  <SCORE.INTER.VDW>
-20.3743

>  <SCORE.INTER.norm>
-0.510695

>  <SCORE.INTRA>
-1.0524

>  <SCORE.INTRA.DIHEDRAL>
-0.51509

>  <SCORE.INTRA.DIHEDRAL.0>
3.94806

>  <SCORE.INTRA.POLAR>
0

>  <SCORE.INTRA.POLAR.0>
0

>  <SCORE.INTRA.REPUL>
0

>  <SCORE.INTRA.REPUL.0>
0

>  <SCORE.INTRA.SOLV>
0.403244

>  <SCORE.INTRA.SOLV.lig_0>
-70.9803

>  <SCORE.INTRA.VDW>
-0.99648

>  <SCORE.INTRA.VDW.0>
-0.709409

>  <SCORE.INTRA.norm>
-0.0420961

>  <SCORE.RESTR>
0

>  <SCORE.RESTR.CAVITY>
0

>  <SCORE.RESTR.norm>
0

>  <SCORE.SYSTEM>
0

>  <SCORE.SYSTEM.CONST>
0

>  <SCORE.SYSTEM.DIHEDRAL>
0

>  <SCORE.SYSTEM.SOLV>
0

>  <SCORE.SYSTEM.norm>
0

>  <SCORE.heavy>
25

>  <SCORE.norm>
-0.552791

>  <RMSD>
5.178

$$$$
ligand
 OpenBabel11021811503D
libRbt.so/2013.1/901 2013/11/27
 25 27  0  0  0  0  0  0  0  0999 V2000
    7.1183  -24.8100   20.1177 N   0  0  0  0  0  0  0  0  0  0  0  0
    6.8941  -23.4288   20.4137 C   0  0  0  0  0  0  0  0  0  0  0  0
    7.3635  -22.5512   19.6999 O   0  0  0  0  0  0  0  0  0  0  0  0
    7.3896  -16.2264   26.0724 N   0  0  0  0  0  0  0  0  0  0  0  0
    6.4021  -18.0798   27.2366 N   0  0  0  0  0  0  0  0  0  0  0  0
    6.3210  -17.1549   26.2523 C   0  0  0  0  0  0  0  0  0  0  0  0
    5.2283  -17.0881   25.4339 N   0  0  0  0  0  0  0  0  0  0  0  0
    4.1795  -17.9403   25.5615 C   0  0  0  0  0  0  0  0  0  0  0  0
    4.2325  -18.9318   26.5703 C   0  0  0  0  0  0  0  0  0  0  0  0
    3.1133  -17.8314   24.7000 O   0  0  0  0  0  0  0  0  0  0  0  0
    1.7728  -19.5739   26.7595 C   0  0  0  0  0  0  0  0  0  0  0  0
    3.1775  -19.8947   26.8414 N   0  0  0  0  0  0  0  0  0  0  0  0
    0.9568  -20.2776   26.1739 O   0  0  0  0  0  0  0  0  0  0  0  0
    3.6182  -21.1432   27.2981 C   0  0  2  0  0  0  0  0  0  0  0  0
    4.4603  -20.9566   28.5863 C   0  0  0  0  0  0  0  0  0  0  0  0
    5.3778  -18.9703   27.4269 C   0  0  0  0  0  0  0  0  0  0  0  0
    5.4716  -19.9837   28.4813 N   0  0  0  0  0  0  0  0  0  0  0  0
    4.4301  -21.8516   26.2326 C   0  0  0  0  0  0  0  0  0  0  0  0
    3.7643  -22.1561   24.9964 N   0  0  0  0  0  0  0  0  0  0  0  0
    6.0632  -23.0757   21.5984 C   0  0  0  0  0  0  0  0  0  0  0  0
    4.9724  -22.2258   21.4767 C   0  0  0  0  0  0  0  0  0  0  0  0
    4.2168  -21.9165   22.6011 C   0  0  0  0  0  0  0  0  0  0  0  0
    4.5439  -22.4659   23.8392 C   0  0  0  0  0  0  0  0  0  0  0  0
    5.6258  -23.3212   23.9537 C   0  0  0  0  0  0  0  0  0  0  0  0
    6.3884  -23.6220   22.8315 C   0  0  0  0  0  0  0  0  0  0  0  0
  1  2  1  0  0  0  0
  2  3  2  0  0  0  0
  2 20  1  0  0  0  0
  4  6  1  0  0  0  0
  5  6  2  0  0  0  0
  5 16  1  0  0  0  0
  6  7  1  0  0  0  0
  7  8  1  0  0  0  0
  8  9  1  0  0  0  0
  8 10  2  0  0  0  0
  9 12  1  0  0  0  0
  9 16  2  0  0  0  0
 11 13  1  0  0  0  0
 11 12  1  0  0  0  0
 12 14  1  0  0  0  0
 14 15  1  0  0  0  0
 14 18  1  6  0  0  0
 15 17  1  0  0  0  0
 16 17  1  0  0  0  0
 18 19  1  0  0  0  0
 19 23  1  0  0  0  0
 20 21  2  0  0  0  0
 20 25  1  0  0  0  0
 21 22  1  0  0  0  0
 22 23  2  0  0  0  0
 23 24  1  0  0  0  0
 24 25  2  0  0  0  0
M  END
>  <CHROM.1>
132.59791890,-61.28105571,162.38404215,-136.10529828,-126.66900306,4.87905384
-20.57302434,24.88024210,-1.23394027,0.69842535,0.67185136

>  <Name>
ligand

>  <RI>
0

>  <Rbt.Current_Directory>
/home/itssahil/PROJECTS/Mol_Feturizer/New_Systems/rnas/4LVV

>  <Rbt.Executable>
rbdock ($Id: //depot/dev/client3/rdock/2013.1/src/exe/rbdock.cxx#4 $)

>  <Rbt.Library>
libRbt.so (2013.1, Build901 2013/11/27)

>  <Rbt.Parameter_File>
/export/apps/rDock/src/rDock_2013.1_src/data/scripts/dock_solv.prm

>  <Rbt.Receptor>
prm/pocket_docking_7.prm

>  <SCORE>
-13.809

>  <SCORE.INTER>
-12.7953

>  <SCORE.INTER.CONST>
1

>  <SCORE.INTER.POLAR>
0

>  <SCORE.INTER.ROT>
5

>  <SCORE.INTER.SOLV>
14.7295

>  <SCORE.INTER.VDW>
-20.3734

>  <SCORE.INTER.norm>
-0.511813

>  <SCORE.INTRA>
-1.01372

>  <SCORE.INTRA.DIHEDRAL>
-0.520336

>  <SCORE.INTRA.DIHEDRAL.0>
3.94806

>  <SCORE.INTRA.POLAR>
0

>  <SCORE.INTRA.POLAR.0>
0

>  <SCORE.INTRA.REPUL>
0

>  <SCORE.INTRA.REPUL.0>
0

>  <SCORE.INTRA.SOLV>
0.373856

>  <SCORE.INTRA.SOLV.lig_0>
-70.9803

>  <SCORE.INTRA.VDW>
-0.940479

>  <SCORE.INTRA.VDW.0>
-0.709409

>  <SCORE.INTRA.norm>
-0.0405488

>  <SCORE.RESTR>
0

>  <SCORE.RESTR.CAVITY>
0

>  <SCORE.RESTR.norm>
0

>  <SCORE.SYSTEM>
0

>  <SCORE.SYSTEM.CONST>
0

>  <SCORE.SYSTEM.DIHEDRAL>
0

>  <SCORE.SYSTEM.SOLV>
0

>  <SCORE.SYSTEM.norm>
0

>  <SCORE.heavy>
25

>  <SCORE.norm>
-0.552362

>  <RMSD>
5.179

$$$$
ligand
 OpenBabel11021811503D
libRbt.so/2013.1/901 2013/11/27
 25 27  0  0  0  0  0  0  0  0999 V2000
    7.5294  -22.2981   19.7596 N   0  0  0  0  0  0  0  0  0  0  0  0
    6.8522  -23.3765   20.4107 C   0  0  0  0  0  0  0  0  0  0  0  0
    6.9206  -24.5167   19.9689 O   0  0  0  0  0  0  0  0  0  0  0  0
    7.4411  -16.2128   25.9807 N   0  0  0  0  0  0  0  0  0  0  0  0
    6.4732  -18.0417   27.1987 N   0  0  0  0  0  0  0  0  0  0  0  0
    6.3789  -17.1417   26.1927 C   0  0  0  0  0  0  0  0  0  0  0  0
    5.2789  -17.1005   25.3824 N   0  0  0  0  0  0  0  0  0  0  0  0
    4.2356  -17.9545   25.5401 C   0  0  0  0  0  0  0  0  0  0  0  0
    4.3023  -18.9205   26.5725 C   0  0  0  0  0  0  0  0  0  0  0  0
    3.1614  -17.8720   24.6855 O   0  0  0  0  0  0  0  0  0  0  0  0
    1.8476  -19.5697   26.7989 C   0  0  0  0  0  0  0  0  0  0  0  0
    3.2546  -19.8815   26.8764 N   0  0  0  0  0  0  0  0  0  0  0  0
    0.9935  -20.3940   26.4908 O   0  0  0  0  0  0  0  0  0  0  0  0
    3.7055  -21.1162   27.3599 C   0  0  2  0  0  0  0  0  0  0  0  0
    4.5577  -20.8938   28.6357 C   0  0  0  0  0  0  0  0  0  0  0  0
    5.4551  -18.9322   27.4197 C   0  0  0  0  0  0  0  0  0  0  0  0
    5.5631  -19.9188   28.4980 N   0  0  0  0  0  0  0  0  0  0  0  0
    4.5119  -21.8467   26.3051 C   0  0  0  0  0  0  0  0  0  0  0  0
    3.8307  -22.2056   25.0921 N   0  0  0  0  0  0  0  0  0  0  0  0
    6.0742  -23.0909   21.6484 C   0  0  0  0  0  0  0  0  0  0  0  0
    6.4276  -23.6658   22.8614 C   0  0  0  0  0  0  0  0  0  0  0  0
    5.6819  -23.3785   23.9982 C   0  0  0  0  0  0  0  0  0  0  0  0
    4.5953  -22.5094   23.9235 C   0  0  0  0  0  0  0  0  0  0  0  0
    4.2533  -21.9301   22.7140 C   0  0  0  0  0  0  0  0  0  0  0  0
    4.9920  -22.2259   21.5747 C   0  0  0  0  0  0  0  0  0  0  0  0
  1  2  1  0  0  0  0
  2  3  2  0  0  0  0
  2 20  1  0  0  0  0
  4  6  1  0  0  0  0
  5  6  2  0  0  0  0
  5 16  1  0  0  0  0
  6  7  1  0  0  0  0
  7  8  1  0  0  0  0
  8  9  1  0  0  0  0
  8 10  2  0  0  0  0
  9 12  1  0  0  0  0
  9 16  2  0  0  0  0
 11 13  1  0  0  0  0
 11 12  1  0  0  0  0
 12 14  1  0  0  0  0
 14 15  1  0  0  0  0
 14 18  1  6  0  0  0
 15 17  1  0  0  0  0
 16 17  1  0  0  0  0
 18 19  1  0  0  0  0
 19 23  1  0  0  0  0
 20 21  2  0  0  0  0
 20 25  1  0  0  0  0
 21 22  1  0  0  0  0
 22 23  2  0  0  0  0
 23 24  1  0  0  0  0
 24 25  2  0  0  0  0
M  END
>  <CHROM.1>
148.01031451,-62.34227313,160.84679988,47.60975008,-117.08439773,4.92600102
-20.56504563,24.91231874,-1.23216156,0.73322416,0.67032996

>  <Name>
ligand

>  <RI>
0

>  <Rbt.Current_Directory>
/home/itssahil/PROJECTS/Mol_Feturizer/New_Systems/rnas/4LVV

>  <Rbt.Executable>
rbdock ($Id: //depot/dev/client3/rdock/2013.1/src/exe/rbdock.cxx#4 $)

>  <Rbt.Library>
libRbt.so (2013.1, Build901 2013/11/27)

>  <Rbt.Parameter_File>
/export/apps/rDock/src/rDock_2013.1_src/data/scripts/dock_solv.prm

>  <Rbt.Receptor>
prm/pocket_docking_7.prm

>  <SCORE>
-13.9216

>  <SCORE.INTER>
-12.7973

>  <SCORE.INTER.CONST>
1

>  <SCORE.INTER.POLAR>
0

>  <SCORE.INTER.ROT>
5

>  <SCORE.INTER.SOLV>
13.5955

>  <SCORE.INTER.VDW>
-19.9967

>  <SCORE.INTER.norm>
-0.511891

>  <SCORE.INTRA>
-1.12427

>  <SCORE.INTRA.DIHEDRAL>
-0.555451

>  <SCORE.INTRA.DIHEDRAL.0>
3.94806

>  <SCORE.INTRA.POLAR>
0

>  <SCORE.INTRA.POLAR.0>
0

>  <SCORE.INTRA.REPUL>
0

>  <SCORE.INTRA.REPUL.0>
0

>  <SCORE.INTRA.SOLV>
0.289774

>  <SCORE.INTRA.SOLV.lig_0>
-70.9803

>  <SCORE.INTRA.VDW>
-0.991433

>  <SCORE.INTRA.VDW.0>
-0.709409

>  <SCORE.INTRA.norm>
-0.0449709

>  <SCORE.RESTR>
0

>  <SCORE.RESTR.CAVITY>
0

>  <SCORE.RESTR.norm>
0

>  <SCORE.SYSTEM>
0

>  <SCORE.SYSTEM.CONST>
0

>  <SCORE.SYSTEM.DIHEDRAL>
0

>  <SCORE.SYSTEM.SOLV>
0

>  <SCORE.SYSTEM.norm>
0

>  <SCORE.heavy>
25

>  <SCORE.norm>
-0.556862

>  <RMSD>
5.191

$$$$
ligand
 OpenBabel11021811503D
libRbt.so/2013.1/901 2013/11/27
 25 27  0  0  0  0  0  0  0  0999 V2000
    7.4363  -22.1880   19.7339 N   0  0  0  0  0  0  0  0  0  0  0  0
    6.8286  -23.3015   20.3943 C   0  0  0  0  0  0  0  0  0  0  0  0
    6.9460  -24.4354   19.9464 O   0  0  0  0  0  0  0  0  0  0  0  0
    7.3746  -16.1748   26.0102 N   0  0  0  0  0  0  0  0  0  0  0  0
    6.4277  -18.0162   27.2258 N   0  0  0  0  0  0  0  0  0  0  0  0
    6.3263  -17.1206   26.2166 C   0  0  0  0  0  0  0  0  0  0  0  0
    5.2321  -17.0998   25.3977 N   0  0  0  0  0  0  0  0  0  0  0  0
    4.2019  -17.9705   25.5499 C   0  0  0  0  0  0  0  0  0  0  0  0
    4.2766  -18.9326   26.5855 C   0  0  0  0  0  0  0  0  0  0  0  0
    3.1331  -17.9082   24.6868 O   0  0  0  0  0  0  0  0  0  0  0  0
    1.8313  -19.6219   26.7947 C   0  0  0  0  0  0  0  0  0  0  0  0
    3.2426  -19.9100   26.8839 N   0  0  0  0  0  0  0  0  0  0  0  0
    0.9831  -20.4813   26.5810 O   0  0  0  0  0  0  0  0  0  0  0  0
    3.7103  -21.1359   27.3743 C   0  0  2  0  0  0  0  0  0  0  0  0
    4.5488  -20.8959   28.6560 C   0  0  0  0  0  0  0  0  0  0  0  0
    5.4229  -18.9229   27.4415 C   0  0  0  0  0  0  0  0  0  0  0  0
    5.5389  -19.9047   28.5233 N   0  0  0  0  0  0  0  0  0  0  0  0
    4.5368  -21.8556   26.3278 C   0  0  0  0  0  0  0  0  0  0  0  0
    3.8534  -22.2970   25.1435 N   0  0  0  0  0  0  0  0  0  0  0  0
    6.0629  -23.0599   21.6489 C   0  0  0  0  0  0  0  0  0  0  0  0
    6.4290  -23.6761   22.8377 C   0  0  0  0  0  0  0  0  0  0  0  0
    5.6945  -23.4292   23.9912 C   0  0  0  0  0  0  0  0  0  0  0  0
    4.6064  -22.5593   23.9574 C   0  0  0  0  0  0  0  0  0  0  0  0
    4.2518  -21.9389   22.7722 C   0  0  0  0  0  0  0  0  0  0  0  0
    4.9793  -22.1941   21.6160 C   0  0  0  0  0  0  0  0  0  0  0  0
  1  2  1  0  0  0  0
  2  3  2  0  0  0  0
  2 20  1  0  0  0  0
  4  6  1  0  0  0  0
  5  6  2  0  0  0  0
  5 16  1  0  0  0  0
  6  7  1  0  0  0  0
  7  8  1  0  0  0  0
  8  9  1  0  0  0  0
  8 10  2  0  0  0  0
  9 12  1  0  0  0  0
  9 16  2  0  0  0  0
 11 13  1  0  0  0  0
 11 12  1  0  0  0  0
 12 14  1  0  0  0  0
 14 15  1  0  0  0  0
 14 18  1  6  0  0  0
 15 17  1  0  0  0  0
 16 17  1  0  0  0  0
 18 19  1  0  0  0  0
 19 23  1  0  0  0  0
 20 21  2  0  0  0  0
 20 25  1  0  0  0  0
 21 22  1  0  0  0  0
 22 23  2  0  0  0  0
 23 24  1  0  0  0  0
 24 25  2  0  0  0  0
M  END
>  <CHROM.1>
153.66114845,-65.82141448,158.98781938,53.50381667,-120.51397410,4.90832369
-20.56688619,24.92890145,-1.22177617,0.76050335,0.66419500

>  <Name>
ligand

>  <RI>
0

>  <Rbt.Current_Directory>
/home/itssahil/PROJECTS/Mol_Feturizer/New_Systems/rnas/4LVV

>  <Rbt.Executable>
rbdock ($Id: //depot/dev/client3/rdock/2013.1/src/exe/rbdock.cxx#4 $)

>  <Rbt.Library>
libRbt.so (2013.1, Build901 2013/11/27)

>  <Rbt.Parameter_File>
/export/apps/rDock/src/rDock_2013.1_src/data/scripts/dock_solv.prm

>  <Rbt.Receptor>
prm/pocket_docking_5.prm

>  <SCORE>
-13.7588

>  <SCORE.INTER>
-12.6716

>  <SCORE.INTER.CONST>
1

>  <SCORE.INTER.POLAR>
0

>  <SCORE.INTER.ROT>
5

>  <SCORE.INTER.SOLV>
14.1336

>  <SCORE.INTER.VDW>
-20.0923

>  <SCORE.INTER.norm>
-0.506864

>  <SCORE.INTRA>
-1.08717

>  <SCORE.INTRA.DIHEDRAL>
-0.40533

>  <SCORE.INTRA.DIHEDRAL.0>
3.94806

>  <SCORE.INTRA.POLAR>
0

>  <SCORE.INTRA.POLAR.0>
0

>  <SCORE.INTRA.REPUL>
0

>  <SCORE.INTRA.REPUL.0>
0

>  <SCORE.INTRA.SOLV>
0.208577

>  <SCORE.INTRA.SOLV.lig_0>
-70.9803

>  <SCORE.INTRA.VDW>
-0.988795

>  <SCORE.INTRA.VDW.0>
-0.709409

>  <SCORE.INTRA.norm>
-0.0434869

>  <SCORE.RESTR>
0

>  <SCORE.RESTR.CAVITY>
0

>  <SCORE.RESTR.norm>
0

>  <SCORE.SYSTEM>
0

>  <SCORE.SYSTEM.CONST>
0

>  <SCORE.SYSTEM.DIHEDRAL>
0

>  <SCORE.SYSTEM.SOLV>
0

>  <SCORE.SYSTEM.norm>
0

>  <SCORE.heavy>
25

>  <SCORE.norm>
-0.550351

>  <RMSD>
5.192

$$$$
ligand
 OpenBabel11021811503D
libRbt.so/2013.1/901 2013/11/27
 25 27  0  0  0  0  0  0  0  0999 V2000
    7.5288  -22.3450   19.6568 N   0  0  0  0  0  0  0  0  0  0  0  0
    6.8632  -23.4054   20.3483 C   0  0  0  0  0  0  0  0  0  0  0  0
    6.9472  -24.5612   19.9518 O   0  0  0  0  0  0  0  0  0  0  0  0
    7.3793  -16.1063   25.8949 N   0  0  0  0  0  0  0  0  0  0  0  0
    6.4831  -17.9643   27.1238 N   0  0  0  0  0  0  0  0  0  0  0  0
    6.3469  -17.0648   26.1222 C   0  0  0  0  0  0  0  0  0  0  0  0
    5.2325  -17.0519   25.3308 N   0  0  0  0  0  0  0  0  0  0  0  0
    4.2160  -17.9348   25.5037 C   0  0  0  0  0  0  0  0  0  0  0  0
    4.3269  -18.9012   26.5320 C   0  0  0  0  0  0  0  0  0  0  0  0
    3.1255  -17.8799   24.6677 O   0  0  0  0  0  0  0  0  0  0  0  0
    1.8953  -19.6186   26.7980 C   0  0  0  0  0  0  0  0  0  0  0  0
    3.3115  -19.8915   26.8507 N   0  0  0  0  0  0  0  0  0  0  0  0
    1.0841  -20.3789   26.2806 O   0  0  0  0  0  0  0  0  0  0  0  0
    3.8045  -21.1146   27.3227 C   0  0  2  0  0  0  0  0  0  0  0  0
    4.6719  -20.8719   28.5846 C   0  0  0  0  0  0  0  0  0  0  0  0
    5.4939  -18.8832   27.3594 C   0  0  0  0  0  0  0  0  0  0  0  0
    5.6475  -19.8691   28.4327 N   0  0  0  0  0  0  0  0  0  0  0  0
    4.6126  -21.8198   26.2523 C   0  0  0  0  0  0  0  0  0  0  0  0
    3.9083  -22.2468   25.0751 N   0  0  0  0  0  0  0  0  0  0  0  0
    6.0783  -23.0811   21.5720 C   0  0  0  0  0  0  0  0  0  0  0  0
    5.0108  -22.1953   21.5206 C   0  0  0  0  0  0  0  0  0  0  0  0
    4.2979  -21.9144   22.6798 C   0  0  0  0  0  0  0  0  0  0  0  0
    4.6441  -22.5275   23.8824 C   0  0  0  0  0  0  0  0  0  0  0  0
    5.7025  -23.4182   23.9265 C   0  0  0  0  0  0  0  0  0  0  0  0
    6.4226  -23.6909   22.7696 C   0  0  0  0  0  0  0  0  0  0  0  0
  1  2  1  0  0  0  0
  2  3  2  0  0  0  0
  2 20  1  0  0  0  0
  4  6  1  0  0  0  0
  5  6  2  0  0  0  0
  5 16  1  0  0  0  0
  6  7  1  0  0  0  0
  7  8  1  0  0  0  0
  8  9  1  0  0  0  0
  8 10  2  0  0  0  0
  9 12  1  0  0  0  0
  9 16  2  0  0  0  0
 11 13  1  0  0  0  0
 11 12  1  0  0  0  0
 12 14  1  0  0  0  0
 14 15  1  0  0  0  0
 14 18  1  6  0  0  0
 15 17  1  0  0  0  0
 16 17  1  0  0  0  0
 18 19  1  0  0  0  0
 19 23  1  0  0  0  0
 20 21  2  0  0  0  0
 20 25  1  0  0  0  0
 21 22  1  0  0  0  0
 22 23  2  0  0  0  0
 23 24  1  0  0  0  0
 24 25  2  0  0  0  0
M  END
>  <CHROM.1>
134.63948800,-65.01104523,160.65502205,-126.78276772,59.63112127,4.95543702
-20.55510713,24.85386372,-1.23584231,0.75807169,0.65457957

>  <Name>
ligand

>  <RI>
0

>  <Rbt.Current_Directory>
/home/itssahil/PROJECTS/Mol_Feturizer/New_Systems/rnas/4LVV

>  <Rbt.Executable>
rbdock ($Id: //depot/dev/client3/rdock/2013.1/src/exe/rbdock.cxx#4 $)

>  <Rbt.Library>
libRbt.so (2013.1, Build901 2013/11/27)

>  <Rbt.Parameter_File>
/export/apps/rDock/src/rDock_2013.1_src/data/scripts/dock_solv.prm

>  <Rbt.Receptor>
prm/pocket_docking_8.prm

>  <SCORE>
-13.7355

>  <SCORE.INTER>
-12.6093

>  <SCORE.INTER.CONST>
1

>  <SCORE.INTER.POLAR>
0

>  <SCORE.INTER.ROT>
5

>  <SCORE.INTER.SOLV>
13.583

>  <SCORE.INTER.VDW>
-19.8672

>  <SCORE.INTER.norm>
-0.504373

>  <SCORE.INTRA>
-1.12616

>  <SCORE.INTRA.DIHEDRAL>
-0.419731

>  <SCORE.INTRA.DIHEDRAL.0>
3.94806

>  <SCORE.INTRA.POLAR>
0

>  <SCORE.INTRA.POLAR.0>
0

>  <SCORE.INTRA.REPUL>
0

>  <SCORE.INTRA.REPUL.0>
0

>  <SCORE.INTRA.SOLV>
0.303792

>  <SCORE.INTRA.SOLV.lig_0>
-70.9803

>  <SCORE.INTRA.VDW>
-1.06819

>  <SCORE.INTRA.VDW.0>
-0.709409

>  <SCORE.INTRA.norm>
-0.0450466

>  <SCORE.RESTR>
0

>  <SCORE.RESTR.CAVITY>
0

>  <SCORE.RESTR.norm>
0

>  <SCORE.SYSTEM>
0

>  <SCORE.SYSTEM.CONST>
0

>  <SCORE.SYSTEM.DIHEDRAL>
0

>  <SCORE.SYSTEM.SOLV>
0

>  <SCORE.SYSTEM.norm>
0

>  <SCORE.heavy>
25

>  <SCORE.norm>
-0.54942

>  <RMSD>
5.193

$$$$
ligand
 OpenBabel11021811503D
libRbt.so/2013.1/901 2013/11/27
 25 27  0  0  0  0  0  0  0  0999 V2000
    7.3536  -22.4984   19.5614 N   0  0  0  0  0  0  0  0  0  0  0  0
    6.8150  -23.5244   20.3996 C   0  0  0  0  0  0  0  0  0  0  0  0
    7.0207  -24.7064   20.1533 O   0  0  0  0  0  0  0  0  0  0  0  0
    7.3962  -16.2041   25.8419 N   0  0  0  0  0  0  0  0  0  0  0  0
    6.4676  -18.0374   27.0836 N   0  0  0  0  0  0  0  0  0  0  0  0
    6.3410  -17.1334   26.0848 C   0  0  0  0  0  0  0  0  0  0  0  0
    5.2151  -17.0885   25.3110 N   0  0  0  0  0  0  0  0  0  0  0  0
    4.1771  -17.9427   25.4993 C   0  0  0  0  0  0  0  0  0  0  0  0
    4.2769  -18.9129   26.5252 C   0  0  0  0  0  0  0  0  0  0  0  0
    3.0756  -17.8563   24.6807 O   0  0  0  0  0  0  0  0  0  0  0  0
    1.8306  -19.5620   26.8290 C   0  0  0  0  0  0  0  0  0  0  0  0
    3.2392  -19.8746   26.8592 N   0  0  0  0  0  0  0  0  0  0  0  0
    1.0095  -20.2239   26.2032 O   0  0  0  0  0  0  0  0  0  0  0  0
    3.7050  -21.1115   27.3228 C   0  0  2  0  0  0  0  0  0  0  0  0
    4.5986  -20.8945   28.5710 C   0  0  0  0  0  0  0  0  0  0  0  0
    5.4568  -18.9284   27.3342 C   0  0  0  0  0  0  0  0  0  0  0  0
    5.5995  -19.9194   28.4044 N   0  0  0  0  0  0  0  0  0  0  0  0
    4.4761  -21.8380   26.2393 C   0  0  0  0  0  0  0  0  0  0  0  0
    3.7878  -22.0922   25.0041 N   0  0  0  0  0  0  0  0  0  0  0  0
    6.0118  -23.1290   21.5901 C   0  0  0  0  0  0  0  0  0  0  0  0
    4.9628  -22.2272   21.4751 C   0  0  0  0  0  0  0  0  0  0  0  0
    4.2321  -21.8794   22.6048 C   0  0  0  0  0  0  0  0  0  0  0  0
    4.5420  -22.4418   23.8415 C   0  0  0  0  0  0  0  0  0  0  0  0
    5.5819  -23.3486   23.9492 C   0  0  0  0  0  0  0  0  0  0  0  0
    6.3199  -23.6882   22.8217 C   0  0  0  0  0  0  0  0  0  0  0  0
  1  2  1  0  0  0  0
  2  3  2  0  0  0  0
  2 20  1  0  0  0  0
  4  6  1  0  0  0  0
  5  6  2  0  0  0  0
  5 16  1  0  0  0  0
  6  7  1  0  0  0  0
  7  8  1  0  0  0  0
  8  9  1  0  0  0  0
  8 10  2  0  0  0  0
  9 12  1  0  0  0  0
  9 16  2  0  0  0  0
 11 13  1  0  0  0  0
 11 12  1  0  0  0  0
 12 14  1  0  0  0  0
 14 15  1  0  0  0  0
 14 18  1  6  0  0  0
 15 17  1  0  0  0  0
 16 17  1  0  0  0  0
 18 19  1  0  0  0  0
 19 23  1  0  0  0  0
 20 21  2  0  0  0  0
 20 25  1  0  0  0  0
 21 22  1  0  0  0  0
 22 23  2  0  0  0  0
 23 24  1  0  0  0  0
 24 25  2  0  0  0  0
M  END
>  <CHROM.1>
126.63217777,-57.26021057,163.52439462,-137.03954268,50.62692123,4.89467840
-20.56780482,24.84477912,-1.23936150,0.72756590,0.65707726

>  <Name>
ligand

>  <RI>
0

>  <Rbt.Current_Directory>
/home/itssahil/PROJECTS/Mol_Feturizer/New_Systems/rnas/4LVV

>  <Rbt.Executable>
rbdock ($Id: //depot/dev/client3/rdock/2013.1/src/exe/rbdock.cxx#4 $)

>  <Rbt.Library>
libRbt.so (2013.1, Build901 2013/11/27)

>  <Rbt.Parameter_File>
/export/apps/rDock/src/rDock_2013.1_src/data/scripts/dock_solv.prm

>  <Rbt.Receptor>
prm/pocket_docking_6.prm

>  <SCORE>
-13.7887

>  <SCORE.INTER>
-12.8115

>  <SCORE.INTER.CONST>
1

>  <SCORE.INTER.POLAR>
0

>  <SCORE.INTER.ROT>
5

>  <SCORE.INTER.SOLV>
13.692

>  <SCORE.INTER.VDW>
-20.0383

>  <SCORE.INTER.norm>
-0.512459

>  <SCORE.INTRA>
-0.977215

>  <SCORE.INTRA.DIHEDRAL>
-0.501922

>  <SCORE.INTRA.DIHEDRAL.0>
3.94806

>  <SCORE.INTRA.POLAR>
0

>  <SCORE.INTRA.POLAR.0>
0

>  <SCORE.INTRA.REPUL>
0

>  <SCORE.INTRA.REPUL.0>
0

>  <SCORE.INTRA.SOLV>
0.450107

>  <SCORE.INTRA.SOLV.lig_0>
-70.9803

>  <SCORE.INTRA.VDW>
-0.951308

>  <SCORE.INTRA.VDW.0>
-0.709409

>  <SCORE.INTRA.norm>
-0.0390886

>  <SCORE.RESTR>
0

>  <SCORE.RESTR.CAVITY>
0

>  <SCORE.RESTR.norm>
0

>  <SCORE.SYSTEM>
0

>  <SCORE.SYSTEM.CONST>
0

>  <SCORE.SYSTEM.DIHEDRAL>
0

>  <SCORE.SYSTEM.SOLV>
0

>  <SCORE.SYSTEM.norm>
0

>  <SCORE.heavy>
25

>  <SCORE.norm>
-0.551547

>  <RMSD>
5.194

$$$$
ligand
 OpenBabel11021811503D
libRbt.so/2013.1/901 2013/11/27
 25 27  0  0  0  0  0  0  0  0999 V2000
    7.6357  -22.4359   19.7364 N   0  0  0  0  0  0  0  0  0  0  0  0
    6.8618  -23.4536   20.3773 C   0  0  0  0  0  0  0  0  0  0  0  0
    6.8791  -24.6066   19.9645 O   0  0  0  0  0  0  0  0  0  0  0  0
    7.4306  -16.2339   26.0203 N   0  0  0  0  0  0  0  0  0  0  0  0
    6.4574  -18.0869   27.1971 N   0  0  0  0  0  0  0  0  0  0  0  0
    6.3634  -17.1609   26.2150 C   0  0  0  0  0  0  0  0  0  0  0  0
    5.2589  -17.0918   25.4126 N   0  0  0  0  0  0  0  0  0  0  0  0
    4.2109  -17.9426   25.5548 C   0  0  0  0  0  0  0  0  0  0  0  0
    4.2771  -18.9351   26.5618 C   0  0  0  0  0  0  0  0  0  0  0  0
    3.1323  -17.8313   24.7091 O   0  0  0  0  0  0  0  0  0  0  0  0
    1.8194  -19.5737   26.7863 C   0  0  0  0  0  0  0  0  0  0  0  0
    3.2247  -19.8966   26.8474 N   0  0  0  0  0  0  0  0  0  0  0  0
    0.9473  -20.4097   26.5757 O   0  0  0  0  0  0  0  0  0  0  0  0
    3.6701  -21.1463   27.2965 C   0  0  2  0  0  0  0  0  0  0  0  0
    4.5313  -20.9621   28.5724 C   0  0  0  0  0  0  0  0  0  0  0  0
    5.4347  -18.9761   27.4015 C   0  0  0  0  0  0  0  0  0  0  0  0
    5.5424  -19.9906   28.4536 N   0  0  0  0  0  0  0  0  0  0  0  0
    4.4654  -21.8548   26.2186 C   0  0  0  0  0  0  0  0  0  0  0  0
    3.7862  -22.1416   24.9855 N   0  0  0  0  0  0  0  0  0  0  0  0
    6.0458  -23.0895   21.5690 C   0  0  0  0  0  0  0  0  0  0  0  0
    4.9856  -22.1998   21.4626 C   0  0  0  0  0  0  0  0  0  0  0  0
    4.2431  -21.8814   22.5932 C   0  0  0  0  0  0  0  0  0  0  0  0
    4.5525  -22.4609   23.8221 C   0  0  0  0  0  0  0  0  0  0  0  0
    5.6037  -23.3556   23.9211 C   0  0  0  0  0  0  0  0  0  0  0  0
    6.3535  -23.6658   22.7929 C   0  0  0  0  0  0  0  0  0  0  0  0
  1  2  1  0  0  0  0
  2  3  2  0  0  0  0
  2 20  1  0  0  0  0
  4  6  1  0  0  0  0
  5  6  2  0  0  0  0
  5 16  1  0  0  0  0
  6  7  1  0  0  0  0
  7  8  1  0  0  0  0
  8  9  1  0  0  0  0
  8 10  2  0  0  0  0
  9 12  1  0  0  0  0
  9 16  2  0  0  0  0
 11 13  1  0  0  0  0
 11 12  1  0  0  0  0
 12 14  1  0  0  0  0
 14 15  1  0  0  0  0
 14 18  1  6  0  0  0
 15 17  1  0  0  0  0
 16 17  1  0  0  0  0
 18 19  1  0  0  0  0
 19 23  1  0  0  0  0
 20 21  2  0  0  0  0
 20 25  1  0  0  0  0
 21 22  1  0  0  0  0
 22 23  2  0  0  0  0
 23 24  1  0  0  0  0
 24 25  2  0  0  0  0
M  END
>  <CHROM.1>
154.52386892,-60.48933551,162.87647928,-134.92797056,64.46021740,4.90186912
-20.58172056,24.88126352,-1.23540795,0.71198029,0.67766833

>  <Name>
ligand

>  <RI>
0

>  <Rbt.Current_Directory>
/home/itssahil/PROJECTS/Mol_Feturizer/New_Systems/rnas/4LVV

>  <Rbt.Executable>
rbdock ($Id: //depot/dev/client3/rdock/2013.1/src/exe/rbdock.cxx#4 $)

>  <Rbt.Library>
libRbt.so (2013.1, Build901 2013/11/27)

>  <Rbt.Parameter_File>
/export/apps/rDock/src/rDock_2013.1_src/data/scripts/dock_solv.prm

>  <Rbt.Receptor>
prm/pocket_docking_8.prm

>  <SCORE>
-13.833

>  <SCORE.INTER>
-12.8058

>  <SCORE.INTER.CONST>
1

>  <SCORE.INTER.POLAR>
0

>  <SCORE.INTER.ROT>
5

>  <SCORE.INTER.SOLV>
13.7653

>  <SCORE.INTER.VDW>
-20.059

>  <SCORE.INTER.norm>
-0.512232

>  <SCORE.INTRA>
-1.02722

>  <SCORE.INTRA.DIHEDRAL>
-0.624876

>  <SCORE.INTRA.DIHEDRAL.0>
3.94806

>  <SCORE.INTRA.POLAR>
0

>  <SCORE.INTRA.POLAR.0>
0

>  <SCORE.INTRA.REPUL>
0

>  <SCORE.INTRA.REPUL.0>
0

>  <SCORE.INTRA.SOLV>
0.278132

>  <SCORE.INTRA.SOLV.lig_0>
-70.9803

>  <SCORE.INTRA.VDW>
-0.853852

>  <SCORE.INTRA.VDW.0>
-0.709409

>  <SCORE.INTRA.norm>
-0.041089

>  <SCORE.RESTR>
0

>  <SCORE.RESTR.CAVITY>
0

>  <SCORE.RESTR.norm>
0

>  <SCORE.SYSTEM>
0

>  <SCORE.SYSTEM.CONST>
0

>  <SCORE.SYSTEM.DIHEDRAL>
0

>  <SCORE.SYSTEM.SOLV>
0

>  <SCORE.SYSTEM.norm>
0

>  <SCORE.heavy>
25

>  <SCORE.norm>
-0.553321

>  <RMSD>
5.194

$$$$
ligand
 OpenBabel11021811503D
libRbt.so/2013.1/901 2013/11/27
 25 27  0  0  0  0  0  0  0  0999 V2000
    7.0057  -24.6751   20.0167 N   0  0  0  0  0  0  0  0  0  0  0  0
    6.9077  -23.3165   20.4525 C   0  0  0  0  0  0  0  0  0  0  0  0
    7.4865  -22.4218   19.8487 O   0  0  0  0  0  0  0  0  0  0  0  0
    7.4521  -16.2637   26.2522 N   0  0  0  0  0  0  0  0  0  0  0  0
    6.4191  -18.1163   27.3774 N   0  0  0  0  0  0  0  0  0  0  0  0
    6.3697  -17.1817   26.4002 C   0  0  0  0  0  0  0  0  0  0  0  0
    5.2960  -17.0953   25.5587 N   0  0  0  0  0  0  0  0  0  0  0  0
    4.2353  -17.9368   25.6556 C   0  0  0  0  0  0  0  0  0  0  0  0
    4.2553  -18.9379   26.6562 C   0  0  0  0  0  0  0  0  0  0  0  0
    3.1894  -17.8081   24.7722 O   0  0  0  0  0  0  0  0  0  0  0  0
    1.7851  -19.5540   26.7857 C   0  0  0  0  0  0  0  0  0  0  0  0
    3.1840  -19.8912   26.8952 N   0  0  0  0  0  0  0  0  0  0  0  0
    0.9224  -20.3647   26.4659 O   0  0  0  0  0  0  0  0  0  0  0  0
    3.6008  -21.1487   27.3498 C   0  0  2  0  0  0  0  0  0  0  0  0
    4.4166  -20.9832   28.6578 C   0  0  0  0  0  0  0  0  0  0  0  0
    5.3811  -18.9969   27.5370 C   0  0  0  0  0  0  0  0  0  0  0  0
    5.4406  -20.0208   28.5838 N   0  0  0  0  0  0  0  0  0  0  0  0
    4.4281  -21.8565   26.2958 C   0  0  0  0  0  0  0  0  0  0  0  0
    3.7663  -22.2050   25.0691 N   0  0  0  0  0  0  0  0  0  0  0  0
    6.0732  -23.0055   21.6466 C   0  0  0  0  0  0  0  0  0  0  0  0
    4.9652  -22.1755   21.5457 C   0  0  0  0  0  0  0  0  0  0  0  0
    4.2067  -21.9055   22.6784 C   0  0  0  0  0  0  0  0  0  0  0  0
    4.5485  -22.4743   23.9037 C   0  0  0  0  0  0  0  0  0  0  0  0
    5.6479  -23.3098   23.9971 C   0  0  0  0  0  0  0  0  0  0  0  0
    6.4131  -23.5711   22.8669 C   0  0  0  0  0  0  0  0  0  0  0  0
  1  2  1  0  0  0  0
  2  3  2  0  0  0  0
  2 20  1  0  0  0  0
  4  6  1  0  0  0  0
  5  6  2  0  0  0  0
  5 16  1  0  0  0  0
  6  7  1  0  0  0  0
  7  8  1  0  0  0  0
  8  9  1  0  0  0  0
  8 10  2  0  0  0  0
  9 12  1  0  0  0  0
  9 16  2  0  0  0  0
 11 13  1  0  0  0  0
 11 12  1  0  0  0  0
 12 14  1  0  0  0  0
 14 15  1  0  0  0  0
 14 18  1  6  0  0  0
 15 17  1  0  0  0  0
 16 17  1  0  0  0  0
 18 19  1  0  0  0  0
 19 23  1  0  0  0  0
 20 21  2  0  0  0  0
 20 25  1  0  0  0  0
 21 22  1  0  0  0  0
 22 23  2  0  0  0  0
 23 24  1  0  0  0  0
 24 25  2  0  0  0  0
M  END
>  <CHROM.1>
150.45188726,-64.45698539,160.33591114,-133.42570125,-118.02519421,4.89217227
-20.56307290,24.96711824,-1.23560342,0.69207415,0.69467212

>  <Name>
ligand

>  <RI>
0

>  <Rbt.Current_Directory>
/home/itssahil/PROJECTS/Mol_Feturizer/New_Systems/rnas/4LVV

>  <Rbt.Executable>
rbdock ($Id: //depot/dev/client3/rdock/2013.1/src/exe/rbdock.cxx#4 $)

>  <Rbt.Library>
libRbt.so (2013.1, Build901 2013/11/27)

>  <Rbt.Parameter_File>
/export/apps/rDock/src/rDock_2013.1_src/data/scripts/dock_solv.prm

>  <Rbt.Receptor>
prm/pocket_docking_8.prm

>  <SCORE>
-13.7759

>  <SCORE.INTER>
-12.7586

>  <SCORE.INTER.CONST>
1

>  <SCORE.INTER.POLAR>
0

>  <SCORE.INTER.ROT>
5

>  <SCORE.INTER.SOLV>
14.8322

>  <SCORE.INTER.VDW>
-20.3831

>  <SCORE.INTER.norm>
-0.510344

>  <SCORE.INTRA>
-1.01734

>  <SCORE.INTRA.DIHEDRAL>
-0.496985

>  <SCORE.INTRA.DIHEDRAL.0>
3.94806

>  <SCORE.INTRA.POLAR>
0

>  <SCORE.INTRA.POLAR.0>
0

>  <SCORE.INTRA.REPUL>
0

>  <SCORE.INTRA.REPUL.0>
0

>  <SCORE.INTRA.SOLV>
0.2458

>  <SCORE.INTRA.SOLV.lig_0>
-70.9803

>  <SCORE.INTRA.VDW>
-0.891746

>  <SCORE.INTRA.VDW.0>
-0.709409

>  <SCORE.INTRA.norm>
-0.0406935

>  <SCORE.RESTR>
0

>  <SCORE.RESTR.CAVITY>
0

>  <SCORE.RESTR.norm>
0

>  <SCORE.SYSTEM>
0

>  <SCORE.SYSTEM.CONST>
0

>  <SCORE.SYSTEM.DIHEDRAL>
0

>  <SCORE.SYSTEM.SOLV>
0

>  <SCORE.SYSTEM.norm>
0

>  <SCORE.heavy>
25

>  <SCORE.norm>
-0.551037

>  <RMSD>
5.196

$$$$
ligand
 OpenBabel11021811503D
libRbt.so/2013.1/901 2013/11/27
 25 27  0  0  0  0  0  0  0  0999 V2000
    7.3086  -25.3232   19.7770 N   0  0  0  0  0  0  0  0  0  0  0  0
    7.0288  -23.9256   19.8944 C   0  0  0  0  0  0  0  0  0  0  0  0
    7.3593  -23.1444   19.0108 O   0  0  0  0  0  0  0  0  0  0  0  0
    7.6343  -16.7278   26.9905 N   0  0  0  0  0  0  0  0  0  0  0  0
    6.6386  -18.8034   27.6728 N   0  0  0  0  0  0  0  0  0  0  0  0
    6.5732  -17.6794   26.9223 C   0  0  0  0  0  0  0  0  0  0  0  0
    5.5032  -17.4351   26.1076 N   0  0  0  0  0  0  0  0  0  0  0  0
    4.4624  -18.3005   26.0065 C   0  0  0  0  0  0  0  0  0  0  0  0
    4.4998  -19.4951   26.7649 C   0  0  0  0  0  0  0  0  0  0  0  0
    3.4194  -18.0051   25.1604 O   0  0  0  0  0  0  0  0  0  0  0  0
    2.0442  -20.1787   26.7286 C   0  0  0  0  0  0  0  0  0  0  0  0
    3.4501  -20.5009   26.7780 N   0  0  0  0  0  0  0  0  0  0  0  0
    1.6050  -19.0554   26.9501 O   0  0  0  0  0  0  0  0  0  0  0  0
    3.8939  -21.8178   26.9524 C   0  0  2  0  0  0  0  0  0  0  0  0
    4.6970  -21.9238   28.2742 C   0  0  0  0  0  0  0  0  0  0  0  0
    5.6209  -19.7202   27.6246 C   0  0  0  0  0  0  0  0  0  0  0  0
    5.6982  -20.9462   28.4237 N   0  0  0  0  0  0  0  0  0  0  0  0
    4.7446  -22.2602   25.7790 C   0  0  0  0  0  0  0  0  0  0  0  0
    4.2360  -21.9900   24.4627 N   0  0  0  0  0  0  0  0  0  0  0  0
    6.3113  -23.4377   21.1051 C   0  0  0  0  0  0  0  0  0  0  0  0
    6.7207  -23.8141   22.3769 C   0  0  0  0  0  0  0  0  0  0  0  0
    6.0306  -23.3411   23.4863 C   0  0  0  0  0  0  0  0  0  0  0  0
    4.9435  -22.4846   23.3237 C   0  0  0  0  0  0  0  0  0  0  0  0
    4.5455  -22.1035   22.0541 C   0  0  0  0  0  0  0  0  0  0  0  0
    5.2286  -22.5852   20.9439 C   0  0  0  0  0  0  0  0  0  0  0  0
  1  2  1  0  0  0  0
  2  3  2  0  0  0  0
  2 20  1  0  0  0  0
  4  6  1  0  0  0  0
  5  6  2  0  0  0  0
  5 16  1  0  0  0  0
  6  7  1  0  0  0  0
  7  8  1  0  0  0  0
  8  9  1  0  0  0  0
  8 10  2  0  0  0  0
  9 12  1  0  0  0  0
  9 16  2  0  0  0  0
 11 13  1  0  0  0  0
 11 12  1  0  0  0  0
 12 14  1  0  0  0  0
 14 15  1  0  0  0  0
 14 18  1  6  0  0  0
 15 17  1  0  0  0  0
 16 17  1  0  0  0  0
 18 19  1  0  0  0  0
 19 23  1  0  0  0  0
 20 21  2  0  0  0  0
 20 25  1  0  0  0  0
 21 22  1  0  0  0  0
 22 23  2  0  0  0  0
 23 24  1  0  0  0  0
 24 25  2  0  0  0  0
M  END
>  <CHROM.1>
-15.70080073,-47.18524255,-174.81100658,6.96724657,48.87411719,5.16416534
-20.94563207,24.82999229,-1.28332514,0.64460740,0.76996239

>  <Name>
ligand

>  <RI>
0

>  <Rbt.Current_Directory>
/home/itssahil/PROJECTS/Mol_Feturizer/New_Systems/rnas/4LVV

>  <Rbt.Executable>
rbdock ($Id: //depot/dev/client3/rdock/2013.1/src/exe/rbdock.cxx#4 $)

>  <Rbt.Library>
libRbt.so (2013.1, Build901 2013/11/27)

>  <Rbt.Parameter_File>
/export/apps/rDock/src/rDock_2013.1_src/data/scripts/dock_solv.prm

>  <Rbt.Receptor>
prm/pocket_docking_7.prm

>  <SCORE>
-13.2287

>  <SCORE.INTER>
-13.2431

>  <SCORE.INTER.CONST>
1

>  <SCORE.INTER.POLAR>
0

>  <SCORE.INTER.ROT>
5

>  <SCORE.INTER.SOLV>
13.5419

>  <SCORE.INTER.VDW>
-20.2761

>  <SCORE.INTER.norm>
-0.529725

>  <SCORE.INTRA>
0.0144082

>  <SCORE.INTRA.DIHEDRAL>
0.0296459

>  <SCORE.INTRA.DIHEDRAL.0>
3.94806

>  <SCORE.INTRA.POLAR>
0

>  <SCORE.INTRA.POLAR.0>
0

>  <SCORE.INTRA.REPUL>
0

>  <SCORE.INTRA.REPUL.0>
0

>  <SCORE.INTRA.SOLV>
0.453705

>  <SCORE.INTRA.SOLV.lig_0>
-70.9803

>  <SCORE.INTRA.VDW>
-0.227267

>  <SCORE.INTRA.VDW.0>
-0.709409

>  <SCORE.INTRA.norm>
0.00057633

>  <SCORE.RESTR>
0

>  <SCORE.RESTR.CAVITY>
0

>  <SCORE.RESTR.norm>
0

>  <SCORE.SYSTEM>
0

>  <SCORE.SYSTEM.CONST>
0

>  <SCORE.SYSTEM.DIHEDRAL>
0

>  <SCORE.SYSTEM.SOLV>
0

>  <SCORE.SYSTEM.norm>
0

>  <SCORE.heavy>
25

>  <SCORE.norm>
-0.529149

>  <RMSD>
5.199

$$$$
ligand
 OpenBabel11021811503D
libRbt.so/2013.1/901 2013/11/27
 25 27  0  0  0  0  0  0  0  0999 V2000
    7.3406  -23.4456   19.8403 N   0  0  0  0  0  0  0  0  0  0  0  0
    6.3340  -22.5390   20.2990 C   0  0  0  0  0  0  0  0  0  0  0  0
    5.8845  -21.6747   19.5566 O   0  0  0  0  0  0  0  0  0  0  0  0
    6.9757  -16.2125   25.9604 N   0  0  0  0  0  0  0  0  0  0  0  0
    6.2645  -18.0773   27.2953 N   0  0  0  0  0  0  0  0  0  0  0  0
    6.0624  -17.2768   26.2232 C   0  0  0  0  0  0  0  0  0  0  0  0
    4.9924  -17.4640   25.3935 N   0  0  0  0  0  0  0  0  0  0  0  0
    4.0879  -18.4555   25.5969 C   0  0  0  0  0  0  0  0  0  0  0  0
    4.2721  -19.3234   26.6998 C   0  0  0  0  0  0  0  0  0  0  0  0
    3.0384  -18.6012   24.7204 O   0  0  0  0  0  0  0  0  0  0  0  0
    1.9401  -20.3263   26.9322 C   0  0  0  0  0  0  0  0  0  0  0  0
    3.3754  -20.4106   27.0568 N   0  0  0  0  0  0  0  0  0  0  0  0
    1.3311  -19.2626   26.8934 O   0  0  0  0  0  0  0  0  0  0  0  0
    3.9959  -21.5232   27.6390 C   0  0  2  0  0  0  0  0  0  0  0  0
    4.7676  -21.0812   28.9089 C   0  0  0  0  0  0  0  0  0  0  0  0
    5.3886  -19.0964   27.5650 C   0  0  0  0  0  0  0  0  0  0  0  0
    5.6156  -19.9750   28.7157 N   0  0  0  0  0  0  0  0  0  0  0  0
    4.9340  -22.1936   26.6558 C   0  0  0  0  0  0  0  0  0  0  0  0
    4.3362  -22.9797   25.6123 N   0  0  0  0  0  0  0  0  0  0  0  0
    5.8282  -22.6756   21.6933 C   0  0  0  0  0  0  0  0  0  0  0  0
    6.4906  -23.4719   22.6175 C   0  0  0  0  0  0  0  0  0  0  0  0
    5.9936  -23.5777   23.9108 C   0  0  0  0  0  0  0  0  0  0  0  0
    4.8460  -22.8793   24.2808 C   0  0  0  0  0  0  0  0  0  0  0  0
    4.1950  -22.0781   23.3590 C   0  0  0  0  0  0  0  0  0  0  0  0
    4.6855  -21.9808   22.0624 C   0  0  0  0  0  0  0  0  0  0  0  0
  1  2  1  0  0  0  0
  2  3  2  0  0  0  0
  2 20  1  0  0  0  0
  4  6  1  0  0  0  0
  5  6  2  0  0  0  0
  5 16  1  0  0  0  0
  6  7  1  0  0  0  0
  7  8  1  0  0  0  0
  8  9  1  0  0  0  0
  8 10  2  0  0  0  0
  9 12  1  0  0  0  0
  9 16  2  0  0  0  0
 11 13  1  0  0  0  0
 11 12  1  0  0  0  0
 12 14  1  0  0  0  0
 14 15  1  0  0  0  0
 14 18  1  6  0  0  0
 15 17  1  0  0  0  0
 16 17  1  0  0  0  0
 18 19  1  0  0  0  0
 19 23  1  0  0  0  0
 20 21  2  0  0  0  0
 20 25  1  0  0  0  0
 21 22  1  0  0  0  0
 22 23  2  0  0  0  0
 23 24  1  0  0  0  0
 24 25  2  0  0  0  0
M  END
>  <CHROM.1>
-21.66321864,-75.10151960,137.36828857,80.56074609,12.90380420,4.87024924
-20.60988054,25.05427630,-1.06130313,1.08769037,0.56106730

>  <Name>
ligand

>  <RI>
0

>  <Rbt.Current_Directory>
/home/itssahil/PROJECTS/Mol_Feturizer/New_Systems/rnas/4LVV

>  <Rbt.Executable>
rbdock ($Id: //depot/dev/client3/rdock/2013.1/src/exe/rbdock.cxx#4 $)

>  <Rbt.Library>
libRbt.so (2013.1, Build901 2013/11/27)

>  <Rbt.Parameter_File>
/export/apps/rDock/src/rDock_2013.1_src/data/scripts/dock_solv.prm

>  <Rbt.Receptor>
prm/pocket_docking_7.prm

>  <SCORE>
-13.1066

>  <SCORE.INTER>
-12.3856

>  <SCORE.INTER.CONST>
1

>  <SCORE.INTER.POLAR>
0

>  <SCORE.INTER.ROT>
5

>  <SCORE.INTER.SOLV>
16.4504

>  <SCORE.INTER.VDW>
-20.6739

>  <SCORE.INTER.norm>
-0.495426

>  <SCORE.INTRA>
-0.720919

>  <SCORE.INTRA.DIHEDRAL>
1.19246

>  <SCORE.INTRA.DIHEDRAL.0>
3.94806

>  <SCORE.INTRA.POLAR>
0

>  <SCORE.INTRA.POLAR.0>
0

>  <SCORE.INTRA.REPUL>
0

>  <SCORE.INTRA.REPUL.0>
0

>  <SCORE.INTRA.SOLV>
-0.0860898

>  <SCORE.INTRA.SOLV.lig_0>
-70.9803

>  <SCORE.INTRA.VDW>
-1.2741

>  <SCORE.INTRA.VDW.0>
-0.709409

>  <SCORE.INTRA.norm>
-0.0288368

>  <SCORE.RESTR>
0

>  <SCORE.RESTR.CAVITY>
0

>  <SCORE.RESTR.norm>
0

>  <SCORE.SYSTEM>
0

>  <SCORE.SYSTEM.CONST>
0

>  <SCORE.SYSTEM.DIHEDRAL>
0

>  <SCORE.SYSTEM.SOLV>
0

>  <SCORE.SYSTEM.norm>
0

>  <SCORE.heavy>
25

>  <SCORE.norm>
-0.524263

>  <RMSD>
5.200

$$$$
ligand
 OpenBabel11021811503D
libRbt.so/2013.1/901 2013/11/27
 25 27  0  0  0  0  0  0  0  0999 V2000
    7.6570  -22.4479   19.7833 N   0  0  0  0  0  0  0  0  0  0  0  0
    6.9045  -23.4841   20.4200 C   0  0  0  0  0  0  0  0  0  0  0  0
    6.9246  -24.6294   19.9863 O   0  0  0  0  0  0  0  0  0  0  0  0
    7.6253  -16.3434   26.2320 N   0  0  0  0  0  0  0  0  0  0  0  0
    6.5594  -18.1815   27.3502 N   0  0  0  0  0  0  0  0  0  0  0  0
    6.5232  -17.2373   26.3817 C   0  0  0  0  0  0  0  0  0  0  0  0
    5.4444  -17.1185   25.5507 N   0  0  0  0  0  0  0  0  0  0  0  0
    4.3654  -17.9361   25.6498 C   0  0  0  0  0  0  0  0  0  0  0  0
    4.3709  -18.9463   26.6413 C   0  0  0  0  0  0  0  0  0  0  0  0
    3.3151  -17.7753   24.7769 O   0  0  0  0  0  0  0  0  0  0  0  0
    1.8882  -19.5062   26.7877 C   0  0  0  0  0  0  0  0  0  0  0  0
    3.2799  -19.8767   26.8816 N   0  0  0  0  0  0  0  0  0  0  0  0
    0.9846  -20.3227   26.6441 O   0  0  0  0  0  0  0  0  0  0  0  0
    3.6713  -21.1475   27.3215 C   0  0  2  0  0  0  0  0  0  0  0  0
    4.5022  -21.0126   28.6234 C   0  0  0  0  0  0  0  0  0  0  0  0
    5.5027  -19.0393   27.5115 C   0  0  0  0  0  0  0  0  0  0  0  0
    5.5476  -20.0736   28.5487 N   0  0  0  0  0  0  0  0  0  0  0  0
    4.4726  -21.8648   26.2539 C   0  0  0  0  0  0  0  0  0  0  0  0
    3.8135  -22.1236   25.0038 N   0  0  0  0  0  0  0  0  0  0  0  0
    6.1074  -23.1490   21.6329 C   0  0  0  0  0  0  0  0  0  0  0  0
    6.4143  -23.7094   22.8652 C   0  0  0  0  0  0  0  0  0  0  0  0
    5.6518  -23.3757   23.9779 C   0  0  0  0  0  0  0  0  0  0  0  0
    4.5951  -22.4751   23.8599 C   0  0  0  0  0  0  0  0  0  0  0  0
    4.2996  -21.9107   22.6313 C   0  0  0  0  0  0  0  0  0  0  0  0
    5.0550  -22.2527   21.5161 C   0  0  0  0  0  0  0  0  0  0  0  0
  1  2  1  0  0  0  0
  2  3  2  0  0  0  0
  2 20  1  0  0  0  0
  4  6  1  0  0  0  0
  5  6  2  0  0  0  0
  5 16  1  0  0  0  0
  6  7  1  0  0  0  0
  7  8  1  0  0  0  0
  8  9  1  0  0  0  0
  8 10  2  0  0  0  0
  9 12  1  0  0  0  0
  9 16  2  0  0  0  0
 11 13  1  0  0  0  0
 11 12  1  0  0  0  0
 12 14  1  0  0  0  0
 14 15  1  0  0  0  0
 14 18  1  6  0  0  0
 15 17  1  0  0  0  0
 16 17  1  0  0  0  0
 18 19  1  0  0  0  0
 19 23  1  0  0  0  0
 20 21  2  0  0  0  0
 20 25  1  0  0  0  0
 21 22  1  0  0  0  0
 22 23  2  0  0  0  0
 23 24  1  0  0  0  0
 24 25  2  0  0  0  0
M  END
>  <CHROM.1>
160.46356913,-61.24016818,164.05245930,42.67842488,-115.53637017,4.97242163
-20.60202118,24.95225255,-1.25608349,0.67870042,0.70268293

>  <Name>
ligand

>  <RI>
0

>  <Rbt.Current_Directory>
/home/itssahil/PROJECTS/Mol_Feturizer/New_Systems/rnas/4LVV

>  <Rbt.Executable>
rbdock ($Id: //depot/dev/client3/rdock/2013.1/src/exe/rbdock.cxx#4 $)

>  <Rbt.Library>
libRbt.so (2013.1, Build901 2013/11/27)

>  <Rbt.Parameter_File>
/export/apps/rDock/src/rDock_2013.1_src/data/scripts/dock_solv.prm

>  <Rbt.Receptor>
prm/pocket_docking_5.prm

>  <SCORE>
-13.8422

>  <SCORE.INTER>
-12.8118

>  <SCORE.INTER.CONST>
1

>  <SCORE.INTER.POLAR>
0

>  <SCORE.INTER.ROT>
5

>  <SCORE.INTER.SOLV>
13.1256

>  <SCORE.INTER.VDW>
-19.8497

>  <SCORE.INTER.norm>
-0.512472

>  <SCORE.INTRA>
-1.03044

>  <SCORE.INTRA.DIHEDRAL>
-0.641932

>  <SCORE.INTRA.DIHEDRAL.0>
3.94806

>  <SCORE.INTRA.POLAR>
0

>  <SCORE.INTRA.POLAR.0>
0

>  <SCORE.INTRA.REPUL>
0

>  <SCORE.INTRA.REPUL.0>
0

>  <SCORE.INTRA.SOLV>
0.234872

>  <SCORE.INTRA.SOLV.lig_0>
-70.9803

>  <SCORE.INTRA.VDW>
-0.826907

>  <SCORE.INTRA.VDW.0>
-0.709409

>  <SCORE.INTRA.norm>
-0.0412175

>  <SCORE.RESTR>
0

>  <SCORE.RESTR.CAVITY>
0

>  <SCORE.RESTR.norm>
0

>  <SCORE.SYSTEM>
0

>  <SCORE.SYSTEM.CONST>
0

>  <SCORE.SYSTEM.DIHEDRAL>
0

>  <SCORE.SYSTEM.SOLV>
0

>  <SCORE.SYSTEM.norm>
0

>  <SCORE.heavy>
25

>  <SCORE.norm>
-0.553689

>  <RMSD>
5.210

$$$$
ligand
 OpenBabel11021811503D
libRbt.so/2013.1/901 2013/11/27
 25 27  0  0  0  0  0  0  0  0999 V2000
    7.7136  -22.6026   19.7563 N   0  0  0  0  0  0  0  0  0  0  0  0
    6.8919  -23.5859   20.3913 C   0  0  0  0  0  0  0  0  0  0  0  0
    6.8637  -24.7390   19.9795 O   0  0  0  0  0  0  0  0  0  0  0  0
    7.6504  -16.4337   26.3928 N   0  0  0  0  0  0  0  0  0  0  0  0
    6.5216  -18.2851   27.4241 N   0  0  0  0  0  0  0  0  0  0  0  0
    6.5242  -17.3044   26.4919 C   0  0  0  0  0  0  0  0  0  0  0  0
    5.4621  -17.1269   25.6500 N   0  0  0  0  0  0  0  0  0  0  0  0
    4.3616  -17.9200   25.7018 C   0  0  0  0  0  0  0  0  0  0  0  0
    4.3263  -18.9667   26.6540 C   0  0  0  0  0  0  0  0  0  0  0  0
    3.3296  -17.6997   24.8201 O   0  0  0  0  0  0  0  0  0  0  0  0
    1.8285  -19.4684   26.7419 C   0  0  0  0  0  0  0  0  0  0  0  0
    3.2089  -19.8774   26.8424 N   0  0  0  0  0  0  0  0  0  0  0  0
    0.9067  -20.2562   26.5589 O   0  0  0  0  0  0  0  0  0  0  0  0
    3.5616  -21.1735   27.2393 C   0  0  2  0  0  0  0  0  0  0  0  0
    4.3748  -21.1090   28.5576 C   0  0  0  0  0  0  0  0  0  0  0  0
    5.4415  -19.1212   27.5368 C   0  0  0  0  0  0  0  0  0  0  0  0
    5.4442  -20.1947   28.5344 N   0  0  0  0  0  0  0  0  0  0  0  0
    4.3616  -21.8701   26.1571 C   0  0  0  0  0  0  0  0  0  0  0  0
    3.7511  -21.9831   24.8615 N   0  0  0  0  0  0  0  0  0  0  0  0
    6.0820  -23.1863   21.5759 C   0  0  0  0  0  0  0  0  0  0  0  0
    6.3889  -23.6624   22.8431 C   0  0  0  0  0  0  0  0  0  0  0  0
    5.6143  -23.2700   23.9280 C   0  0  0  0  0  0  0  0  0  0  0  0
    4.5452  -22.3948   23.7469 C   0  0  0  0  0  0  0  0  0  0  0  0
    4.2496  -21.9143   22.4831 C   0  0  0  0  0  0  0  0  0  0  0  0
    5.0172  -22.3152   21.3963 C   0  0  0  0  0  0  0  0  0  0  0  0
  1  2  1  0  0  0  0
  2  3  2  0  0  0  0
  2 20  1  0  0  0  0
  4  6  1  0  0  0  0
  5  6  2  0  0  0  0
  5 16  1  0  0  0  0
  6  7  1  0  0  0  0
  7  8  1  0  0  0  0
  8  9  1  0  0  0  0
  8 10  2  0  0  0  0
  9 12  1  0  0  0  0
  9 16  2  0  0  0  0
 11 13  1  0  0  0  0
 11 12  1  0  0  0  0
 12 14  1  0  0  0  0
 14 15  1  0  0  0  0
 14 18  1  6  0  0  0
 15 17  1  0  0  0  0
 16 17  1  0  0  0  0
 18 19  1  0  0  0  0
 19 23  1  0  0  0  0
 20 21  2  0  0  0  0
 20 25  1  0  0  0  0
 21 22  1  0  0  0  0
 22 23  2  0  0  0  0
 23 24  1  0  0  0  0
 24 25  2  0  0  0  0
M  END
>  <CHROM.1>
160.74918588,-57.08187275,168.15494675,31.43626310,-110.78994485,4.92973754
-20.62291157,24.93040189,-1.27063199,0.62020533,0.72643599

>  <Name>
ligand

>  <RI>
0

>  <Rbt.Current_Directory>
/home/itssahil/PROJECTS/Mol_Feturizer/New_Systems/rnas/4LVV

>  <Rbt.Executable>
rbdock ($Id: //depot/dev/client3/rdock/2013.1/src/exe/rbdock.cxx#4 $)

>  <Rbt.Library>
libRbt.so (2013.1, Build901 2013/11/27)

>  <Rbt.Parameter_File>
/export/apps/rDock/src/rDock_2013.1_src/data/scripts/dock_solv.prm

>  <Rbt.Receptor>
prm/pocket_docking_5.prm

>  <SCORE>
-13.8483

>  <SCORE.INTER>
-13.0945

>  <SCORE.INTER.CONST>
1

>  <SCORE.INTER.POLAR>
0

>  <SCORE.INTER.ROT>
5

>  <SCORE.INTER.SOLV>
13.3054

>  <SCORE.INTER.VDW>
-20.0982

>  <SCORE.INTER.norm>
-0.523782

>  <SCORE.INTRA>
-0.753789

>  <SCORE.INTRA.DIHEDRAL>
-0.705088

>  <SCORE.INTRA.DIHEDRAL.0>
3.94806

>  <SCORE.INTRA.POLAR>
0

>  <SCORE.INTRA.POLAR.0>
0

>  <SCORE.INTRA.REPUL>
0

>  <SCORE.INTRA.REPUL.0>
0

>  <SCORE.INTRA.SOLV>
0.289552

>  <SCORE.INTRA.SOLV.lig_0>
-70.9803

>  <SCORE.INTRA.VDW>
-0.546021

>  <SCORE.INTRA.VDW.0>
-0.709409

>  <SCORE.INTRA.norm>
-0.0301516

>  <SCORE.RESTR>
0

>  <SCORE.RESTR.CAVITY>
0

>  <SCORE.RESTR.norm>
0

>  <SCORE.SYSTEM>
0

>  <SCORE.SYSTEM.CONST>
0

>  <SCORE.SYSTEM.DIHEDRAL>
0

>  <SCORE.SYSTEM.SOLV>
0

>  <SCORE.SYSTEM.norm>
0

>  <SCORE.heavy>
25

>  <SCORE.norm>
-0.553934

>  <RMSD>
5.210

$$$$
ligand
 OpenBabel11021811503D
libRbt.so/2013.1/901 2013/11/27
 25 27  0  0  0  0  0  0  0  0999 V2000
    6.6833  -21.0647   19.7514 N   0  0  0  0  0  0  0  0  0  0  0  0
    6.4411  -22.3781   20.2632 C   0  0  0  0  0  0  0  0  0  0  0  0
    6.7200  -23.3696   19.6005 O   0  0  0  0  0  0  0  0  0  0  0  0
    7.1170  -16.3297   26.5213 N   0  0  0  0  0  0  0  0  0  0  0  0
    6.2930  -18.2816   27.6511 N   0  0  0  0  0  0  0  0  0  0  0  0
    6.1599  -17.3801   26.6509 C   0  0  0  0  0  0  0  0  0  0  0  0
    5.1184  -17.4523   25.7687 N   0  0  0  0  0  0  0  0  0  0  0  0
    4.1747  -18.4250   25.8463 C   0  0  0  0  0  0  0  0  0  0  0  0
    4.2866  -19.3958   26.8703 C   0  0  0  0  0  0  0  0  0  0  0  0
    3.1569  -18.4524   24.9221 O   0  0  0  0  0  0  0  0  0  0  0  0
    1.9158  -20.3312   26.9232 C   0  0  0  0  0  0  0  0  0  0  0  0
    3.3415  -20.4781   27.0922 N   0  0  0  0  0  0  0  0  0  0  0  0
    1.3465  -19.2452   26.9383 O   0  0  0  0  0  0  0  0  0  0  0  0
    3.9019  -21.6606   27.5915 C   0  0  2  0  0  0  0  0  0  0  0  0
    4.6363  -21.3642   28.9243 C   0  0  0  0  0  0  0  0  0  0  0  0
    5.3745  -19.2888   27.7932 C   0  0  0  0  0  0  0  0  0  0  0  0
    5.5267  -20.2761   28.8654 N   0  0  0  0  0  0  0  0  0  0  0  0
    4.8563  -22.2720   26.5857 C   0  0  0  0  0  0  0  0  0  0  0  0
    4.2762  -23.0012   25.4920 N   0  0  0  0  0  0  0  0  0  0  0  0
    5.8582  -22.5196   21.6266 C   0  0  0  0  0  0  0  0  0  0  0  0
    4.7002  -21.8412   21.9810 C   0  0  0  0  0  0  0  0  0  0  0  0
    4.1812  -21.9952   23.2608 C   0  0  0  0  0  0  0  0  0  0  0  0
    4.8114  -22.8345   24.1774 C   0  0  0  0  0  0  0  0  0  0  0  0
    5.9598  -23.5171   23.8159 C   0  0  0  0  0  0  0  0  0  0  0  0
    6.4854  -23.3548   22.5397 C   0  0  0  0  0  0  0  0  0  0  0  0
  1  2  1  0  0  0  0
  2  3  2  0  0  0  0
  2 20  1  0  0  0  0
  4  6  1  0  0  0  0
  5  6  2  0  0  0  0
  5 16  1  0  0  0  0
  6  7  1  0  0  0  0
  7  8  1  0  0  0  0
  8  9  1  0  0  0  0
  8 10  2  0  0  0  0
  9 12  1  0  0  0  0
  9 16  2  0  0  0  0
 11 13  1  0  0  0  0
 11 12  1  0  0  0  0
 12 14  1  0  0  0  0
 14 15  1  0  0  0  0
 14 18  1  6  0  0  0
 15 17  1  0  0  0  0
 16 17  1  0  0  0  0
 18 19  1  0  0  0  0
 19 23  1  0  0  0  0
 20 21  2  0  0  0  0
 20 25  1  0  0  0  0
 21 22  1  0  0  0  0
 22 23  2  0  0  0  0
 23 24  1  0  0  0  0
 24 25  2  0  0  0  0
M  END
>  <CHROM.1>
-20.41221844,-78.44323553,137.93590862,-99.93942230,51.98003576,4.88940294
-20.61812141,25.13563782,-1.12681456,1.02717587,0.67365625

>  <Name>
ligand

>  <RI>
0

>  <Rbt.Current_Directory>
/home/itssahil/PROJECTS/Mol_Feturizer/New_Systems/rnas/4LVV

>  <Rbt.Executable>
rbdock ($Id: //depot/dev/client3/rdock/2013.1/src/exe/rbdock.cxx#4 $)

>  <Rbt.Library>
libRbt.so (2013.1, Build901 2013/11/27)

>  <Rbt.Parameter_File>
/export/apps/rDock/src/rDock_2013.1_src/data/scripts/dock_solv.prm

>  <Rbt.Receptor>
prm/pocket_docking_7.prm

>  <SCORE>
-12.9492

>  <SCORE.INTER>
-12.2054

>  <SCORE.INTER.CONST>
1

>  <SCORE.INTER.POLAR>
0

>  <SCORE.INTER.ROT>
5

>  <SCORE.INTER.SOLV>
16.3245

>  <SCORE.INTER.VDW>
-20.5118

>  <SCORE.INTER.norm>
-0.488218

>  <SCORE.INTRA>
-0.743789

>  <SCORE.INTRA.DIHEDRAL>
1.53603

>  <SCORE.INTRA.DIHEDRAL.0>
3.94806

>  <SCORE.INTRA.POLAR>
0

>  <SCORE.INTRA.POLAR.0>
0

>  <SCORE.INTRA.REPUL>
0

>  <SCORE.INTRA.REPUL.0>
0

>  <SCORE.INTRA.SOLV>
-0.139193

>  <SCORE.INTRA.SOLV.lig_0>
-70.9803

>  <SCORE.INTRA.VDW>
-1.44221

>  <SCORE.INTRA.VDW.0>
-0.709409

>  <SCORE.INTRA.norm>
-0.0297516

>  <SCORE.RESTR>
0

>  <SCORE.RESTR.CAVITY>
0

>  <SCORE.RESTR.norm>
0

>  <SCORE.SYSTEM>
0

>  <SCORE.SYSTEM.CONST>
0

>  <SCORE.SYSTEM.DIHEDRAL>
0

>  <SCORE.SYSTEM.SOLV>
0

>  <SCORE.SYSTEM.norm>
0

>  <SCORE.heavy>
25

>  <SCORE.norm>
-0.517969

>  <RMSD>
5.217

$$$$
ligand
 OpenBabel11021811503D
libRbt.so/2013.1/901 2013/11/27
 25 27  0  0  0  0  0  0  0  0999 V2000
    8.8279  -25.8548   18.3076 N   0  0  0  0  0  0  0  0  0  0  0  0
    7.8281  -24.8800   17.9987 C   0  0  0  0  0  0  0  0  0  0  0  0
    7.5062  -24.6592   16.8378 O   0  0  0  0  0  0  0  0  0  0  0  0
    6.0922  -17.4192   27.5509 N   0  0  0  0  0  0  0  0  0  0  0  0
    5.7080  -19.7431   27.0848 N   0  0  0  0  0  0  0  0  0  0  0  0
    5.4561  -18.4463   26.7917 C   0  0  0  0  0  0  0  0  0  0  0  0
    4.5946  -18.1035   25.7873 N   0  0  0  0  0  0  0  0  0  0  0  0
    3.9563  -19.0365   25.0360 C   0  0  0  0  0  0  0  0  0  0  0  0
    4.2042  -20.4045   25.3020 C   0  0  0  0  0  0  0  0  0  0  0  0
    3.1102  -18.6297   24.0312 O   0  0  0  0  0  0  0  0  0  0  0  0
    2.1993  -21.4978   24.1691 C   0  0  0  0  0  0  0  0  0  0  0  0
    3.5769  -21.5118   24.5992 N   0  0  0  0  0  0  0  0  0  0  0  0
    1.8491  -21.1377   23.0504 O   0  0  0  0  0  0  0  0  0  0  0  0
    4.3765  -22.6531   24.4584 C   0  0  2  0  0  0  0  0  0  0  0  0
    4.8267  -23.1467   25.8574 C   0  0  0  0  0  0  0  0  0  0  0  0
    5.0951  -20.7392   26.3703 C   0  0  0  0  0  0  0  0  0  0  0  0
    5.3800  -22.1440   26.6751 N   0  0  0  0  0  0  0  0  0  0  0  0
    5.5813  -22.3634   23.5861 C   0  0  0  0  0  0  0  0  0  0  0  0
    5.3277  -21.9931   22.2213 N   0  0  0  0  0  0  0  0  0  0  0  0
    7.1710  -24.1482   19.1174 C   0  0  0  0  0  0  0  0  0  0  0  0
    6.9742  -24.7567   20.3494 C   0  0  0  0  0  0  0  0  0  0  0  0
    6.3588  -24.0466   21.3732 C   0  0  0  0  0  0  0  0  0  0  0  0
    5.9540  -22.7291   21.1683 C   0  0  0  0  0  0  0  0  0  0  0  0
    6.1620  -22.1230   19.9416 C   0  0  0  0  0  0  0  0  0  0  0  0
    6.7674  -22.8365   18.9141 C   0  0  0  0  0  0  0  0  0  0  0  0
  1  2  1  0  0  0  0
  2  3  2  0  0  0  0
  2 20  1  0  0  0  0
  4  6  1  0  0  0  0
  5  6  2  0  0  0  0
  5 16  1  0  0  0  0
  6  7  1  0  0  0  0
  7  8  1  0  0  0  0
  8  9  1  0  0  0  0
  8 10  2  0  0  0  0
  9 12  1  0  0  0  0
  9 16  2  0  0  0  0
 11 13  1  0  0  0  0
 11 12  1  0  0  0  0
 12 14  1  0  0  0  0
 14 15  1  0  0  0  0
 14 18  1  6  0  0  0
 15 17  1  0  0  0  0
 16 17  1  0  0  0  0
 18 19  1  0  0  0  0
 19 23  1  0  0  0  0
 20 21  2  0  0  0  0
 20 25  1  0  0  0  0
 21 22  1  0  0  0  0
 22 23  2  0  0  0  0
 23 24  1  0  0  0  0
 24 25  2  0  0  0  0
M  END
>  <CHROM.1>
93.31019289,-63.00379989,-125.52225581,24.85141404,-31.90142055,5.33650076
-21.76586909,23.09565930,-1.22679130,-0.42686619,1.13171095

>  <Name>
ligand

>  <RI>
0

>  <Rbt.Current_Directory>
/home/itssahil/PROJECTS/Mol_Feturizer/New_Systems/rnas/4LVV

>  <Rbt.Executable>
rbdock ($Id: //depot/dev/client3/rdock/2013.1/src/exe/rbdock.cxx#4 $)

>  <Rbt.Library>
libRbt.so (2013.1, Build901 2013/11/27)

>  <Rbt.Parameter_File>
/export/apps/rDock/src/rDock_2013.1_src/data/scripts/dock_solv.prm

>  <Rbt.Receptor>
prm/pocket_docking_8.prm

>  <SCORE>
-11.3363

>  <SCORE.INTER>
-11.3607

>  <SCORE.INTER.CONST>
1

>  <SCORE.INTER.POLAR>
0

>  <SCORE.INTER.ROT>
5

>  <SCORE.INTER.SOLV>
15.5977

>  <SCORE.INTER.VDW>
-19.7064

>  <SCORE.INTER.norm>
-0.454428

>  <SCORE.INTRA>
0.0243602

>  <SCORE.INTRA.DIHEDRAL>
0.711243

>  <SCORE.INTRA.DIHEDRAL.0>
3.94806

>  <SCORE.INTRA.POLAR>
0

>  <SCORE.INTRA.POLAR.0>
0

>  <SCORE.INTRA.REPUL>
0

>  <SCORE.INTRA.REPUL.0>
0

>  <SCORE.INTRA.SOLV>
0.427849

>  <SCORE.INTRA.SOLV.lig_0>
-70.9803

>  <SCORE.INTRA.VDW>
-0.545186

>  <SCORE.INTRA.VDW.0>
-0.709409

>  <SCORE.INTRA.norm>
0.000974408

>  <SCORE.RESTR>
0

>  <SCORE.RESTR.CAVITY>
0

>  <SCORE.RESTR.norm>
0

>  <SCORE.SYSTEM>
0

>  <SCORE.SYSTEM.CONST>
0

>  <SCORE.SYSTEM.DIHEDRAL>
0

>  <SCORE.SYSTEM.SOLV>
0

>  <SCORE.SYSTEM.norm>
0

>  <SCORE.heavy>
25

>  <SCORE.norm>
-0.453454

>  <RMSD>
5.238

$$$$
ligand
 OpenBabel11021811503D
libRbt.so/2013.1/901 2013/11/27
 25 27  0  0  0  0  0  0  0  0999 V2000
    8.6364  -25.0915   19.2239 N   0  0  0  0  0  0  0  0  0  0  0  0
    7.5624  -24.2736   18.7519 C   0  0  0  0  0  0  0  0  0  0  0  0
    7.2755  -24.2423   17.5615 O   0  0  0  0  0  0  0  0  0  0  0  0
    8.4190  -18.1833   24.6874 N   0  0  0  0  0  0  0  0  0  0  0  0
    7.0323  -20.1391   24.8185 N   0  0  0  0  0  0  0  0  0  0  0  0
    7.1323  -18.7899   24.7994 C   0  0  0  0  0  0  0  0  0  0  0  0
    6.0225  -17.9978   24.8960 N   0  0  0  0  0  0  0  0  0  0  0  0
    4.7740  -18.5179   25.0107 C   0  0  0  0  0  0  0  0  0  0  0  0
    4.6259  -19.9256   25.0200 C   0  0  0  0  0  0  0  0  0  0  0  0
    3.6948  -17.6696   25.0920 O   0  0  0  0  0  0  0  0  0  0  0  0
    2.2958  -20.1690   26.0248 C   0  0  0  0  0  0  0  0  0  0  0  0
    3.3587  -20.6241   25.1611 N   0  0  0  0  0  0  0  0  0  0  0  0
    2.1455  -20.5717   27.1733 O   0  0  0  0  0  0  0  0  0  0  0  0
    3.2749  -21.8431   24.4765 C   0  0  2  0  0  0  0  0  0  0  0  0
    4.4131  -22.7832   24.9500 C   0  0  0  0  0  0  0  0  0  0  0  0
    5.8033  -20.7341   24.9367 C   0  0  0  0  0  0  0  0  0  0  0  0
    5.6917  -22.1953   24.9402 N   0  0  0  0  0  0  0  0  0  0  0  0
    3.3549  -21.6273   22.9788 C   0  0  0  0  0  0  0  0  0  0  0  0
    4.5954  -21.1268   22.4547 N   0  0  0  0  0  0  0  0  0  0  0  0
    6.7855  -23.4717   19.7379 C   0  0  0  0  0  0  0  0  0  0  0  0
    6.6188  -23.9136   21.0432 C   0  0  0  0  0  0  0  0  0  0  0  0
    5.8891  -23.1417   21.9392 C   0  0  0  0  0  0  0  0  0  0  0  0
    5.3400  -21.9269   21.5337 C   0  0  0  0  0  0  0  0  0  0  0  0
    5.5180  -21.4854   20.2342 C   0  0  0  0  0  0  0  0  0  0  0  0
    6.2382  -22.2623   19.3348 C   0  0  0  0  0  0  0  0  0  0  0  0
  1  2  1  0  0  0  0
  2  3  2  0  0  0  0
  2 20  1  0  0  0  0
  4  6  1  0  0  0  0
  5  6  2  0  0  0  0
  5 16  1  0  0  0  0
  6  7  1  0  0  0  0
  7  8  1  0  0  0  0
  8  9  1  0  0  0  0
  8 10  2  0  0  0  0
  9 12  1  0  0  0  0
  9 16  2  0  0  0  0
 11 13  1  0  0  0  0
 11 12  1  0  0  0  0
 12 14  1  0  0  0  0
 14 15  1  0  0  0  0
 14 18  1  6  0  0  0
 15 17  1  0  0  0  0
 16 17  1  0  0  0  0
 18 19  1  0  0  0  0
 19 23  1  0  0  0  0
 20 21  2  0  0  0  0
 20 25  1  0  0  0  0
 21 22  1  0  0  0  0
 22 23  2  0  0  0  0
 23 24  1  0  0  0  0
 24 25  2  0  0  0  0
M  END
>  <CHROM.1>
-94.53114194,65.96054732,117.76027430,-65.04010112,-30.30945654,5.40919146
-21.27385129,23.13952937,-1.14862036,0.50685127,0.76115093

>  <Name>
ligand

>  <RI>
0

>  <Rbt.Current_Directory>
/home/itssahil/PROJECTS/Mol_Feturizer/New_Systems/rnas/4LVV

>  <Rbt.Executable>
rbdock ($Id: //depot/dev/client3/rdock/2013.1/src/exe/rbdock.cxx#4 $)

>  <Rbt.Library>
libRbt.so (2013.1, Build901 2013/11/27)

>  <Rbt.Parameter_File>
/export/apps/rDock/src/rDock_2013.1_src/data/scripts/dock_solv.prm

>  <Rbt.Receptor>
prm/pocket_docking_7.prm

>  <SCORE>
-9.61035

>  <SCORE.INTER>
-9.56088

>  <SCORE.INTER.CONST>
1

>  <SCORE.INTER.POLAR>
0

>  <SCORE.INTER.ROT>
5

>  <SCORE.INTER.SOLV>
9.07378

>  <SCORE.INTER.VDW>
-16.3318

>  <SCORE.INTER.norm>
-0.382435

>  <SCORE.INTRA>
-0.0494745

>  <SCORE.INTRA.DIHEDRAL>
0.510962

>  <SCORE.INTRA.DIHEDRAL.0>
3.94806

>  <SCORE.INTRA.POLAR>
0

>  <SCORE.INTRA.POLAR.0>
0

>  <SCORE.INTRA.REPUL>
0

>  <SCORE.INTRA.REPUL.0>
0

>  <SCORE.INTRA.SOLV>
2.62259

>  <SCORE.INTRA.SOLV.lig_0>
-70.9803

>  <SCORE.INTRA.VDW>
-1.61625

>  <SCORE.INTRA.VDW.0>
-0.709409

>  <SCORE.INTRA.norm>
-0.00197898

>  <SCORE.RESTR>
0

>  <SCORE.RESTR.CAVITY>
0

>  <SCORE.RESTR.norm>
0

>  <SCORE.SYSTEM>
0

>  <SCORE.SYSTEM.CONST>
0

>  <SCORE.SYSTEM.DIHEDRAL>
0

>  <SCORE.SYSTEM.SOLV>
0

>  <SCORE.SYSTEM.norm>
0

>  <SCORE.heavy>
25

>  <SCORE.norm>
-0.384414

>  <RMSD>
5.262

$$$$
ligand
 OpenBabel11021811503D
libRbt.so/2013.1/901 2013/11/27
 25 27  0  0  0  0  0  0  0  0999 V2000
    6.7025  -23.1219   19.7764 N   0  0  0  0  0  0  0  0  0  0  0  0
    5.8193  -22.1974   20.4173 C   0  0  0  0  0  0  0  0  0  0  0  0
    5.3669  -21.2372   19.8062 O   0  0  0  0  0  0  0  0  0  0  0  0
    7.1712  -16.5606   25.4147 N   0  0  0  0  0  0  0  0  0  0  0  0
    6.4183  -18.2177   26.9807 N   0  0  0  0  0  0  0  0  0  0  0  0
    6.2411  -17.5693   25.8064 C   0  0  0  0  0  0  0  0  0  0  0  0
    5.1804  -17.8570   24.9936 N   0  0  0  0  0  0  0  0  0  0  0  0
    4.2608  -18.8018   25.3166 C   0  0  0  0  0  0  0  0  0  0  0  0
    4.4189  -19.5126   26.5304 C   0  0  0  0  0  0  0  0  0  0  0  0
    3.2219  -19.0550   24.4520 O   0  0  0  0  0  0  0  0  0  0  0  0
    2.0715  -20.4498   26.8616 C   0  0  0  0  0  0  0  0  0  0  0  0
    3.5038  -20.5312   27.0187 N   0  0  0  0  0  0  0  0  0  0  0  0
    1.4622  -19.3872   26.8031 O   0  0  0  0  0  0  0  0  0  0  0  0
    4.1022  -21.5602   27.7569 C   0  0  2  0  0  0  0  0  0  0  0  0
    4.8617  -20.9568   28.9664 C   0  0  0  0  0  0  0  0  0  0  0  0
    5.5261  -19.1811   27.3736 C   0  0  0  0  0  0  0  0  0  0  0  0
    5.7261  -19.8963   28.6370 N   0  0  0  0  0  0  0  0  0  0  0  0
    5.0454  -22.3686   26.8892 C   0  0  0  0  0  0  0  0  0  0  0  0
    4.4559  -23.1766   25.8578 N   0  0  0  0  0  0  0  0  0  0  0  0
    5.4447  -22.4328   21.8396 C   0  0  0  0  0  0  0  0  0  0  0  0
    4.3201  -21.8330   22.3896 C   0  0  0  0  0  0  0  0  0  0  0  0
    3.9972  -22.0735   23.7195 C   0  0  0  0  0  0  0  0  0  0  0  0
    4.7893  -22.9209   24.4917 C   0  0  0  0  0  0  0  0  0  0  0  0
    5.9035  -23.5251   23.9360 C   0  0  0  0  0  0  0  0  0  0  0  0
    6.2330  -23.2761   22.6091 C   0  0  0  0  0  0  0  0  0  0  0  0
  1  2  1  0  0  0  0
  2  3  2  0  0  0  0
  2 20  1  0  0  0  0
  4  6  1  0  0  0  0
  5  6  2  0  0  0  0
  5 16  1  0  0  0  0
  6  7  1  0  0  0  0
  7  8  1  0  0  0  0
  8  9  1  0  0  0  0
  8 10  2  0  0  0  0
  9 12  1  0  0  0  0
  9 16  2  0  0  0  0
 11 13  1  0  0  0  0
 11 12  1  0  0  0  0
 12 14  1  0  0  0  0
 14 15  1  0  0  0  0
 14 18  1  6  0  0  0
 15 17  1  0  0  0  0
 16 17  1  0  0  0  0
 18 19  1  0  0  0  0
 19 23  1  0  0  0  0
 20 21  2  0  0  0  0
 20 25  1  0  0  0  0
 21 22  1  0  0  0  0
 22 23  2  0  0  0  0
 23 24  1  0  0  0  0
 24 25  2  0  0  0  0
M  END
>  <CHROM.1>
-29.24100070,-68.65415578,118.80069810,-93.14303196,-160.72867552,4.84534770
-20.65777243,25.01708456,-1.16505694,1.14694053,0.73226819

>  <Name>
ligand

>  <RI>
0

>  <Rbt.Current_Directory>
/home/itssahil/PROJECTS/Mol_Feturizer/New_Systems/rnas/4LVV

>  <Rbt.Executable>
rbdock ($Id: //depot/dev/client3/rdock/2013.1/src/exe/rbdock.cxx#4 $)

>  <Rbt.Library>
libRbt.so (2013.1, Build901 2013/11/27)

>  <Rbt.Parameter_File>
/export/apps/rDock/src/rDock_2013.1_src/data/scripts/dock_solv.prm

>  <Rbt.Receptor>
prm/pocket_docking_7.prm

>  <SCORE>
-12.7927

>  <SCORE.INTER>
-11.3655

>  <SCORE.INTER.CONST>
1

>  <SCORE.INTER.POLAR>
0

>  <SCORE.INTER.ROT>
5

>  <SCORE.INTER.SOLV>
15.5481

>  <SCORE.INTER.VDW>
-19.693

>  <SCORE.INTER.norm>
-0.454621

>  <SCORE.INTRA>
-1.42721

>  <SCORE.INTRA.DIHEDRAL>
0.960067

>  <SCORE.INTRA.DIHEDRAL.0>
3.94806

>  <SCORE.INTRA.POLAR>
0

>  <SCORE.INTRA.POLAR.0>
0

>  <SCORE.INTRA.REPUL>
0

>  <SCORE.INTRA.REPUL.0>
0

>  <SCORE.INTRA.SOLV>
0.198864

>  <SCORE.INTRA.SOLV.lig_0>
-70.9803

>  <SCORE.INTRA.VDW>
-2.00668

>  <SCORE.INTRA.VDW.0>
-0.709409

>  <SCORE.INTRA.norm>
-0.0570884

>  <SCORE.RESTR>
0

>  <SCORE.RESTR.CAVITY>
0

>  <SCORE.RESTR.norm>
0

>  <SCORE.SYSTEM>
0

>  <SCORE.SYSTEM.CONST>
0

>  <SCORE.SYSTEM.DIHEDRAL>
0

>  <SCORE.SYSTEM.SOLV>
0

>  <SCORE.SYSTEM.norm>
0

>  <SCORE.heavy>
25

>  <SCORE.norm>
-0.51171

>  <RMSD>
5.300

$$$$
ligand
 OpenBabel11021811503D
libRbt.so/2013.1/901 2013/11/27
 25 27  0  0  0  0  0  0  0  0999 V2000
    7.4406  -26.1626   20.0368 N   0  0  0  0  0  0  0  0  0  0  0  0
    7.6182  -24.7776   19.7275 C   0  0  0  0  0  0  0  0  0  0  0  0
    8.4329  -24.4237   18.8841 O   0  0  0  0  0  0  0  0  0  0  0  0
    9.2432  -21.3219   28.3416 N   0  0  0  0  0  0  0  0  0  0  0  0
    7.3529  -22.1136   27.0905 N   0  0  0  0  0  0  0  0  0  0  0  0
    7.9410  -21.1190   27.7946 C   0  0  0  0  0  0  0  0  0  0  0  0
    7.3047  -19.9267   27.9996 N   0  0  0  0  0  0  0  0  0  0  0  0
    6.0636  -19.6789   27.5089 C   0  0  0  0  0  0  0  0  0  0  0  0
    5.4203  -20.6892   26.7545 C   0  0  0  0  0  0  0  0  0  0  0  0
    5.4797  -18.4552   27.7380 O   0  0  0  0  0  0  0  0  0  0  0  0
    2.9943  -19.9136   26.8605 C   0  0  0  0  0  0  0  0  0  0  0  0
    4.0857  -20.5773   26.1889 N   0  0  0  0  0  0  0  0  0  0  0  0
    1.9779  -20.4949   27.2253 O   0  0  0  0  0  0  0  0  0  0  0  0
    3.8959  -21.2580   24.9796 C   0  0  2  0  0  0  0  0  0  0  0  0
    4.2270  -22.7602   25.1725 C   0  0  0  0  0  0  0  0  0  0  0  0
    6.0980  -21.9354   26.5690 C   0  0  0  0  0  0  0  0  0  0  0  0
    5.4667  -23.0053   25.7916 N   0  0  0  0  0  0  0  0  0  0  0  0
    4.7573  -20.6623   23.8843 C   0  0  0  0  0  0  0  0  0  0  0  0
    4.4155  -20.9946   22.5290 N   0  0  0  0  0  0  0  0  0  0  0  0
    6.7807  -23.7715   20.4383 C   0  0  0  0  0  0  0  0  0  0  0  0
    6.1847  -22.7246   19.7488 C   0  0  0  0  0  0  0  0  0  0  0  0
    5.4086  -21.8029   20.4409 C   0  0  0  0  0  0  0  0  0  0  0  0
    5.2194  -21.9363   21.8150 C   0  0  0  0  0  0  0  0  0  0  0  0
    5.8069  -22.9879   22.4965 C   0  0  0  0  0  0  0  0  0  0  0  0
    6.5923  -23.9034   21.8064 C   0  0  0  0  0  0  0  0  0  0  0  0
  1  2  1  0  0  0  0
  2  3  2  0  0  0  0
  2 20  1  0  0  0  0
  4  6  1  0  0  0  0
  5  6  2  0  0  0  0
  5 16  1  0  0  0  0
  6  7  1  0  0  0  0
  7  8  1  0  0  0  0
  8  9  1  0  0  0  0
  8 10  2  0  0  0  0
  9 12  1  0  0  0  0
  9 16  2  0  0  0  0
 11 13  1  0  0  0  0
 11 12  1  0  0  0  0
 12 14  1  0  0  0  0
 14 15  1  0  0  0  0
 14 18  1  6  0  0  0
 15 17  1  0  0  0  0
 16 17  1  0  0  0  0
 18 19  1  0  0  0  0
 19 23  1  0  0  0  0
 20 21  2  0  0  0  0
 20 25  1  0  0  0  0
 21 22  1  0  0  0  0
 22 23  2  0  0  0  0
 23 24  1  0  0  0  0
 24 25  2  0  0  0  0
M  END
>  <CHROM.1>
-116.15056829,-163.33668496,-104.82600022,-146.63154480,-135.59878890,5.81512111
-21.85699084,24.39045996,-1.37524380,-0.35893627,1.16948814

>  <Name>
ligand

>  <RI>
0

>  <Rbt.Current_Directory>
/home/itssahil/PROJECTS/Mol_Feturizer/New_Systems/rnas/4LVV

>  <Rbt.Executable>
rbdock ($Id: //depot/dev/client3/rdock/2013.1/src/exe/rbdock.cxx#4 $)

>  <Rbt.Library>
libRbt.so (2013.1, Build901 2013/11/27)

>  <Rbt.Parameter_File>
/export/apps/rDock/src/rDock_2013.1_src/data/scripts/dock_solv.prm

>  <Rbt.Receptor>
prm/pocket_docking_6.prm

>  <SCORE>
-8.91546

>  <SCORE.INTER>
-8.77237

>  <SCORE.INTER.CONST>
1

>  <SCORE.INTER.POLAR>
0

>  <SCORE.INTER.ROT>
5

>  <SCORE.INTER.SOLV>
11.1365

>  <SCORE.INTER.VDW>
-16.4937

>  <SCORE.INTER.norm>
-0.350895

>  <SCORE.INTRA>
-0.143089

>  <SCORE.INTRA.DIHEDRAL>
1.28678

>  <SCORE.INTRA.DIHEDRAL.0>
3.94806

>  <SCORE.INTRA.POLAR>
0

>  <SCORE.INTRA.POLAR.0>
0

>  <SCORE.INTRA.REPUL>
0

>  <SCORE.INTRA.REPUL.0>
0

>  <SCORE.INTRA.SOLV>
-0.270652

>  <SCORE.INTRA.SOLV.lig_0>
-70.9803

>  <SCORE.INTRA.VDW>
-0.651153

>  <SCORE.INTRA.VDW.0>
-0.709409

>  <SCORE.INTRA.norm>
-0.00572356

>  <SCORE.RESTR>
0

>  <SCORE.RESTR.CAVITY>
0

>  <SCORE.RESTR.norm>
0

>  <SCORE.SYSTEM>
0

>  <SCORE.SYSTEM.CONST>
0

>  <SCORE.SYSTEM.DIHEDRAL>
0

>  <SCORE.SYSTEM.SOLV>
0

>  <SCORE.SYSTEM.norm>
0

>  <SCORE.heavy>
25

>  <SCORE.norm>
-0.356618

>  <RMSD>
5.321

$$$$
ligand
 OpenBabel11021811503D
libRbt.so/2013.1/901 2013/11/27
 25 27  0  0  0  0  0  0  0  0999 V2000
    5.3421  -20.5771   19.9064 N   0  0  0  0  0  0  0  0  0  0  0  0
    5.6223  -21.8868   20.4082 C   0  0  0  0  0  0  0  0  0  0  0  0
    6.1477  -22.7318   19.6940 O   0  0  0  0  0  0  0  0  0  0  0  0
    7.0238  -16.5451   25.4097 N   0  0  0  0  0  0  0  0  0  0  0  0
    6.2678  -18.2054   26.9709 N   0  0  0  0  0  0  0  0  0  0  0  0
    6.0998  -17.5631   25.7918 C   0  0  0  0  0  0  0  0  0  0  0  0
    5.0541  -17.8657   24.9652 N   0  0  0  0  0  0  0  0  0  0  0  0
    4.1409  -18.8198   25.2786 C   0  0  0  0  0  0  0  0  0  0  0  0
    4.2899  -19.5246   26.4971 C   0  0  0  0  0  0  0  0  0  0  0  0
    3.1172  -19.0879   24.4005 O   0  0  0  0  0  0  0  0  0  0  0  0
    1.9489  -20.4875   26.7986 C   0  0  0  0  0  0  0  0  0  0  0  0
    3.3797  -20.5520   26.9761 N   0  0  0  0  0  0  0  0  0  0  0  0
    1.3122  -19.4409   26.8551 O   0  0  0  0  0  0  0  0  0  0  0  0
    3.9793  -21.5715   27.7264 C   0  0  2  0  0  0  0  0  0  0  0  0
    4.7147  -20.9553   28.9442 C   0  0  0  0  0  0  0  0  0  0  0  0
    5.3812  -19.1775   27.3546 C   0  0  0  0  0  0  0  0  0  0  0  0
    5.5715  -19.8861   28.6232 N   0  0  0  0  0  0  0  0  0  0  0  0
    4.9438  -22.3720   26.8749 C   0  0  0  0  0  0  0  0  0  0  0  0
    4.3809  -23.1634   25.8161 N   0  0  0  0  0  0  0  0  0  0  0  0
    5.2787  -22.2007   21.8232 C   0  0  0  0  0  0  0  0  0  0  0  0
    4.1395  -21.6722   22.4146 C   0  0  0  0  0  0  0  0  0  0  0  0
    3.8465  -21.9849   23.7364 C   0  0  0  0  0  0  0  0  0  0  0  0
    4.6833  -22.8333   24.4588 C   0  0  0  0  0  0  0  0  0  0  0  0
    5.8122  -23.3664   23.8615 C   0  0  0  0  0  0  0  0  0  0  0  0
    6.1115  -23.0450   22.5431 C   0  0  0  0  0  0  0  0  0  0  0  0
  1  2  1  0  0  0  0
  2  3  2  0  0  0  0
  2 20  1  0  0  0  0
  4  6  1  0  0  0  0
  5  6  2  0  0  0  0
  5 16  1  0  0  0  0
  6  7  1  0  0  0  0
  7  8  1  0  0  0  0
  8  9  1  0  0  0  0
  8 10  2  0  0  0  0
  9 12  1  0  0  0  0
  9 16  2  0  0  0  0
 11 13  1  0  0  0  0
 11 12  1  0  0  0  0
 12 14  1  0  0  0  0
 14 15  1  0  0  0  0
 14 18  1  6  0  0  0
 15 17  1  0  0  0  0
 16 17  1  0  0  0  0
 18 19  1  0  0  0  0
 19 23  1  0  0  0  0
 20 21  2  0  0  0  0
 20 25  1  0  0  0  0
 21 22  1  0  0  0  0
 22 23  2  0  0  0  0
 23 24  1  0  0  0  0
 24 25  2  0  0  0  0
M  END
>  <CHROM.1>
-36.42948052,-67.08953595,114.60393054,-92.60227289,36.17901231,4.70452250
-20.58291419,24.99642025,-1.16341798,1.15599729,0.78568235

>  <Name>
ligand

>  <RI>
0

>  <Rbt.Current_Directory>
/home/itssahil/PROJECTS/Mol_Feturizer/New_Systems/rnas/4LVV

>  <Rbt.Executable>
rbdock ($Id: //depot/dev/client3/rdock/2013.1/src/exe/rbdock.cxx#4 $)

>  <Rbt.Library>
libRbt.so (2013.1, Build901 2013/11/27)

>  <Rbt.Parameter_File>
/export/apps/rDock/src/rDock_2013.1_src/data/scripts/dock_solv.prm

>  <Rbt.Receptor>
prm/pocket_docking_6.prm

>  <SCORE>
-12.7528

>  <SCORE.INTER>
-10.916

>  <SCORE.INTER.CONST>
1

>  <SCORE.INTER.POLAR>
0

>  <SCORE.INTER.ROT>
5

>  <SCORE.INTER.SOLV>
15.8145

>  <SCORE.INTER.VDW>
-19.4821

>  <SCORE.INTER.norm>
-0.436639

>  <SCORE.INTRA>
-1.83678

>  <SCORE.INTRA.DIHEDRAL>
0.785359

>  <SCORE.INTRA.DIHEDRAL.0>
3.94806

>  <SCORE.INTRA.POLAR>
0

>  <SCORE.INTRA.POLAR.0>
0

>  <SCORE.INTRA.REPUL>
0

>  <SCORE.INTRA.REPUL.0>
0

>  <SCORE.INTRA.SOLV>
0.255068

>  <SCORE.INTRA.SOLV.lig_0>
-70.9803

>  <SCORE.INTRA.VDW>
-2.35699

>  <SCORE.INTRA.VDW.0>
-0.709409

>  <SCORE.INTRA.norm>
-0.073471

>  <SCORE.RESTR>
0

>  <SCORE.RESTR.CAVITY>
0

>  <SCORE.RESTR.norm>
0

>  <SCORE.SYSTEM>
0

>  <SCORE.SYSTEM.CONST>
0

>  <SCORE.SYSTEM.DIHEDRAL>
0

>  <SCORE.SYSTEM.SOLV>
0

>  <SCORE.SYSTEM.norm>
0

>  <SCORE.heavy>
25

>  <SCORE.norm>
-0.51011

>  <RMSD>
5.328

$$$$
ligand
 OpenBabel11021811503D
libRbt.so/2013.1/901 2013/11/27
 25 27  0  0  0  0  0  0  0  0999 V2000
    9.3305  -23.8704   17.9821 N   0  0  0  0  0  0  0  0  0  0  0  0
    7.9127  -24.0544   17.9472 C   0  0  0  0  0  0  0  0  0  0  0  0
    7.3744  -24.5917   16.9871 O   0  0  0  0  0  0  0  0  0  0  0  0
    7.0533  -17.2429   26.8294 N   0  0  0  0  0  0  0  0  0  0  0  0
    6.3115  -19.5250   26.7442 N   0  0  0  0  0  0  0  0  0  0  0  0
    6.1727  -18.2460   26.3249 C   0  0  0  0  0  0  0  0  0  0  0  0
    5.1968  -17.8966   25.4340 N   0  0  0  0  0  0  0  0  0  0  0  0
    4.3270  -18.8059   24.9250 C   0  0  0  0  0  0  0  0  0  0  0  0
    4.4484  -20.1574   25.3279 C   0  0  0  0  0  0  0  0  0  0  0  0
    3.3738  -18.3958   24.0227 O   0  0  0  0  0  0  0  0  0  0  0  0
    2.1571  -21.0709   24.6847 C   0  0  0  0  0  0  0  0  0  0  0  0
    3.5765  -21.2343   24.8878 N   0  0  0  0  0  0  0  0  0  0  0  0
    1.5197  -21.7113   23.8557 O   0  0  0  0  0  0  0  0  0  0  0  0
    4.1931  -22.4868   24.7748 C   0  0  2  0  0  0  0  0  0  0  0  0
    4.8182  -22.8821   26.1373 C   0  0  0  0  0  0  0  0  0  0  0  0
    5.4653  -20.4959   26.2756 C   0  0  0  0  0  0  0  0  0  0  0  0
    5.6252  -21.8846   26.7155 N   0  0  0  0  0  0  0  0  0  0  0  0
    5.2521  -22.4709   23.6910 C   0  0  0  0  0  0  0  0  0  0  0  0
    4.8122  -22.2043   22.3495 N   0  0  0  0  0  0  0  0  0  0  0  0
    7.1018  -23.5958   19.1095 C   0  0  0  0  0  0  0  0  0  0  0  0
    6.9517  -24.3953   20.2342 C   0  0  0  0  0  0  0  0  0  0  0  0
    6.1893  -23.9381   21.3023 C   0  0  0  0  0  0  0  0  0  0  0  0
    5.5907  -22.6809   21.2498 C   0  0  0  0  0  0  0  0  0  0  0  0
    5.7520  -21.8829   20.1306 C   0  0  0  0  0  0  0  0  0  0  0  0
    6.5052  -22.3443   19.0577 C   0  0  0  0  0  0  0  0  0  0  0  0
  1  2  1  0  0  0  0
  2  3  2  0  0  0  0
  2 20  1  0  0  0  0
  4  6  1  0  0  0  0
  5  6  2  0  0  0  0
  5 16  1  0  0  0  0
  6  7  1  0  0  0  0
  7  8  1  0  0  0  0
  8  9  1  0  0  0  0
  8 10  2  0  0  0  0
  9 12  1  0  0  0  0
  9 16  2  0  0  0  0
 11 13  1  0  0  0  0
 11 12  1  0  0  0  0
 12 14  1  0  0  0  0
 14 15  1  0  0  0  0
 14 18  1  6  0  0  0
 15 17  1  0  0  0  0
 16 17  1  0  0  0  0
 18 19  1  0  0  0  0
 19 23  1  0  0  0  0
 20 21  2  0  0  0  0
 20 25  1  0  0  0  0
 21 22  1  0  0  0  0
 22 23  2  0  0  0  0
 23 24  1  0  0  0  0
 24 25  2  0  0  0  0
M  END
>  <CHROM.1>
149.51394645,-62.22483527,-155.16381658,39.30009789,-83.46642543,5.42233253
-21.49756032,23.12015467,-1.24250050,0.44683973,0.89126189

>  <Name>
ligand

>  <RI>
0

>  <Rbt.Current_Directory>
/home/itssahil/PROJECTS/Mol_Feturizer/New_Systems/rnas/4LVV

>  <Rbt.Executable>
rbdock ($Id: //depot/dev/client3/rdock/2013.1/src/exe/rbdock.cxx#4 $)

>  <Rbt.Library>
libRbt.so (2013.1, Build901 2013/11/27)

>  <Rbt.Parameter_File>
/export/apps/rDock/src/rDock_2013.1_src/data/scripts/dock_solv.prm

>  <Rbt.Receptor>
prm/pocket_docking_8.prm

>  <SCORE>
-12.2182

>  <SCORE.INTER>
-11.4337

>  <SCORE.INTER.CONST>
1

>  <SCORE.INTER.POLAR>
0

>  <SCORE.INTER.ROT>
5

>  <SCORE.INTER.SOLV>
11.5142

>  <SCORE.INTER.VDW>
-18.3939

>  <SCORE.INTER.norm>
-0.457349

>  <SCORE.INTRA>
-0.78451

>  <SCORE.INTRA.DIHEDRAL>
-0.420255

>  <SCORE.INTRA.DIHEDRAL.0>
3.94806

>  <SCORE.INTRA.POLAR>
0

>  <SCORE.INTRA.POLAR.0>
0

>  <SCORE.INTRA.REPUL>
0

>  <SCORE.INTRA.REPUL.0>
0

>  <SCORE.INTRA.SOLV>
0.279719

>  <SCORE.INTRA.SOLV.lig_0>
-70.9803

>  <SCORE.INTRA.VDW>
-0.714242

>  <SCORE.INTRA.VDW.0>
-0.709409

>  <SCORE.INTRA.norm>
-0.0313804

>  <SCORE.RESTR>
0

>  <SCORE.RESTR.CAVITY>
0

>  <SCORE.RESTR.norm>
0

>  <SCORE.SYSTEM>
0

>  <SCORE.SYSTEM.CONST>
0

>  <SCORE.SYSTEM.DIHEDRAL>
0

>  <SCORE.SYSTEM.SOLV>
0

>  <SCORE.SYSTEM.norm>
0

>  <SCORE.heavy>
25

>  <SCORE.norm>
-0.48873

>  <RMSD>
5.367

$$$$
ligand
 OpenBabel11021811503D
libRbt.so/2013.1/901 2013/11/27
 25 27  0  0  0  0  0  0  0  0999 V2000
    5.1288  -20.4285   19.9935 N   0  0  0  0  0  0  0  0  0  0  0  0
    5.4563  -21.7452   20.4455 C   0  0  0  0  0  0  0  0  0  0  0  0
    5.9772  -22.5555   19.6890 O   0  0  0  0  0  0  0  0  0  0  0  0
    7.0283  -16.5280   25.6636 N   0  0  0  0  0  0  0  0  0  0  0  0
    6.2584  -18.2408   27.1599 N   0  0  0  0  0  0  0  0  0  0  0  0
    6.1059  -17.5641   25.9982 C   0  0  0  0  0  0  0  0  0  0  0  0
    5.0773  -17.8490   25.1443 N   0  0  0  0  0  0  0  0  0  0  0  0
    4.1663  -18.8190   25.4123 C   0  0  0  0  0  0  0  0  0  0  0  0
    4.2997  -19.5597   26.6112 C   0  0  0  0  0  0  0  0  0  0  0  0
    3.1603  -19.0678   24.5084 O   0  0  0  0  0  0  0  0  0  0  0  0
    1.9615  -20.5487   26.8417 C   0  0  0  0  0  0  0  0  0  0  0  0
    3.3894  -20.6080   27.0425 N   0  0  0  0  0  0  0  0  0  0  0  0
    1.3203  -19.5044   26.8865 O   0  0  0  0  0  0  0  0  0  0  0  0
    3.9839  -21.6454   27.7719 C   0  0  2  0  0  0  0  0  0  0  0  0
    4.6930  -21.0613   29.0207 C   0  0  0  0  0  0  0  0  0  0  0  0
    5.3730  -19.2309   27.4981 C   0  0  0  0  0  0  0  0  0  0  0  0
    5.5467  -19.9764   28.7477 N   0  0  0  0  0  0  0  0  0  0  0  0
    4.9696  -22.4123   26.9136 C   0  0  0  0  0  0  0  0  0  0  0  0
    4.4279  -23.2119   25.8499 N   0  0  0  0  0  0  0  0  0  0  0  0
    5.1679  -22.1094   21.8608 C   0  0  0  0  0  0  0  0  0  0  0  0
    4.0342  -21.6314   22.5033 C   0  0  0  0  0  0  0  0  0  0  0  0
    3.7932  -21.9903   23.8240 C   0  0  0  0  0  0  0  0  0  0  0  0
    4.6765  -22.8344   24.4940 C   0  0  0  0  0  0  0  0  0  0  0  0
    5.8000  -23.3171   23.8458 C   0  0  0  0  0  0  0  0  0  0  0  0
    6.0471  -22.9494   22.5286 C   0  0  0  0  0  0  0  0  0  0  0  0
  1  2  1  0  0  0  0
  2  3  2  0  0  0  0
  2 20  1  0  0  0  0
  4  6  1  0  0  0  0
  5  6  2  0  0  0  0
  5 16  1  0  0  0  0
  6  7  1  0  0  0  0
  7  8  1  0  0  0  0
  8  9  1  0  0  0  0
  8 10  2  0  0  0  0
  9 12  1  0  0  0  0
  9 16  2  0  0  0  0
 11 13  1  0  0  0  0
 11 12  1  0  0  0  0
 12 14  1  0  0  0  0
 14 15  1  0  0  0  0
 14 18  1  6  0  0  0
 15 17  1  0  0  0  0
 16 17  1  0  0  0  0
 18 19  1  0  0  0  0
 19 23  1  0  0  0  0
 20 21  2  0  0  0  0
 20 25  1  0  0  0  0
 21 22  1  0  0  0  0
 22 23  2  0  0  0  0
 23 24  1  0  0  0  0
 24 25  2  0  0  0  0
M  END
>  <CHROM.1>
-34.59503125,-69.18030842,112.22953478,-90.77367326,36.45978811,4.67531448
-20.57850419,25.08133551,-1.23160389,1.17475168,0.86890005

>  <Name>
ligand

>  <RI>
0

>  <Rbt.Current_Directory>
/home/itssahil/PROJECTS/Mol_Feturizer/New_Systems/rnas/4LVV

>  <Rbt.Executable>
rbdock ($Id: //depot/dev/client3/rdock/2013.1/src/exe/rbdock.cxx#4 $)

>  <Rbt.Library>
libRbt.so (2013.1, Build901 2013/11/27)

>  <Rbt.Parameter_File>
/export/apps/rDock/src/rDock_2013.1_src/data/scripts/dock_solv.prm

>  <Rbt.Receptor>
prm/pocket_docking_6.prm

>  <SCORE>
-12.8467

>  <SCORE.INTER>
-11.0358

>  <SCORE.INTER.CONST>
1

>  <SCORE.INTER.POLAR>
0

>  <SCORE.INTER.ROT>
5

>  <SCORE.INTER.SOLV>
16.2584

>  <SCORE.INTER.VDW>
-19.71

>  <SCORE.INTER.norm>
-0.44143

>  <SCORE.INTRA>
-1.8109

>  <SCORE.INTRA.DIHEDRAL>
0.884921

>  <SCORE.INTRA.DIHEDRAL.0>
3.94806

>  <SCORE.INTRA.POLAR>
0

>  <SCORE.INTRA.POLAR.0>
0

>  <SCORE.INTRA.REPUL>
0

>  <SCORE.INTRA.REPUL.0>
0

>  <SCORE.INTRA.SOLV>
0.24865

>  <SCORE.INTRA.SOLV.lig_0>
-70.9803

>  <SCORE.INTRA.VDW>
-2.37769

>  <SCORE.INTRA.VDW.0>
-0.709409

>  <SCORE.INTRA.norm>
-0.0724361

>  <SCORE.RESTR>
0

>  <SCORE.RESTR.CAVITY>
0

>  <SCORE.RESTR.norm>
0

>  <SCORE.SYSTEM>
0

>  <SCORE.SYSTEM.CONST>
0

>  <SCORE.SYSTEM.DIHEDRAL>
0

>  <SCORE.SYSTEM.SOLV>
0

>  <SCORE.SYSTEM.norm>
0

>  <SCORE.heavy>
25

>  <SCORE.norm>
-0.513867

>  <RMSD>
5.377

$$$$
ligand
 OpenBabel11021811503D
libRbt.so/2013.1/901 2013/11/27
 25 27  0  0  0  0  0  0  0  0999 V2000
    7.5729  -24.7640   18.7067 N   0  0  0  0  0  0  0  0  0  0  0  0
    7.0928  -23.4939   19.1557 C   0  0  0  0  0  0  0  0  0  0  0  0
    7.0508  -22.5355   18.3943 O   0  0  0  0  0  0  0  0  0  0  0  0
    8.4252  -18.2251   29.3539 N   0  0  0  0  0  0  0  0  0  0  0  0
    6.8553  -19.9344   28.7384 N   0  0  0  0  0  0  0  0  0  0  0  0
    7.2971  -18.6633   28.5979 C   0  0  0  0  0  0  0  0  0  0  0  0
    6.6749  -17.7886   27.7516 N   0  0  0  0  0  0  0  0  0  0  0  0
    5.5946  -18.1469   27.0120 C   0  0  0  0  0  0  0  0  0  0  0  0
    5.1104  -19.4726   27.1201 C   0  0  0  0  0  0  0  0  0  0  0  0
    5.0188  -17.2257   26.1690 O   0  0  0  0  0  0  0  0  0  0  0  0
    2.7581  -19.2167   26.1715 C   0  0  0  0  0  0  0  0  0  0  0  0
    3.9519  -19.9914   26.4114 N   0  0  0  0  0  0  0  0  0  0  0  0
    1.8195  -19.1689   26.9593 O   0  0  0  0  0  0  0  0  0  0  0  0
    4.0276  -21.3463   26.0646 C   0  0  2  0  0  0  0  0  0  0  0  0
    4.2480  -22.1971   27.3417 C   0  0  0  0  0  0  0  0  0  0  0  0
    5.7662  -20.3646   28.0262 C   0  0  0  0  0  0  0  0  0  0  0  0
    5.2969  -21.7460   28.1643 N   0  0  0  0  0  0  0  0  0  0  0  0
    5.1443  -21.5867   25.0689 C   0  0  0  0  0  0  0  0  0  0  0  0
    5.2514  -22.9064   24.5111 N   0  0  0  0  0  0  0  0  0  0  0  0
    6.6273  -23.3611   20.5644 C   0  0  0  0  0  0  0  0  0  0  0  0
    7.2900  -24.0079   21.5985 C   0  0  0  0  0  0  0  0  0  0  0  0
    6.8311  -23.8630   22.9021 C   0  0  0  0  0  0  0  0  0  0  0  0
    5.7216  -23.0639   23.1707 C   0  0  0  0  0  0  0  0  0  0  0  0
    5.0706  -22.4124   22.1377 C   0  0  0  0  0  0  0  0  0  0  0  0
    5.5225  -22.5659   20.8325 C   0  0  0  0  0  0  0  0  0  0  0  0
  1  2  1  0  0  0  0
  2  3  2  0  0  0  0
  2 20  1  0  0  0  0
  4  6  1  0  0  0  0
  5  6  2  0  0  0  0
  5 16  1  0  0  0  0
  6  7  1  0  0  0  0
  7  8  1  0  0  0  0
  8  9  1  0  0  0  0
  8 10  2  0  0  0  0
  9 12  1  0  0  0  0
  9 16  2  0  0  0  0
 11 13  1  0  0  0  0
 11 12  1  0  0  0  0
 12 14  1  0  0  0  0
 14 15  1  0  0  0  0
 14 18  1  6  0  0  0
 15 17  1  0  0  0  0
 16 17  1  0  0  0  0
 18 19  1  0  0  0  0
 19 23  1  0  0  0  0
 20 21  2  0  0  0  0
 20 25  1  0  0  0  0
 21 22  1  0  0  0  0
 22 23  2  0  0  0  0
 23 24  1  0  0  0  0
 24 25  2  0  0  0  0
M  END
>  <CHROM.1>
-88.58487271,-173.51446491,147.28803573,123.32651888,38.65639091,5.63397042
-21.05235579,24.88811816,-1.42862173,0.01783873,1.04644672

>  <Name>
ligand

>  <RI>
0

>  <Rbt.Current_Directory>
/home/itssahil/PROJECTS/Mol_Feturizer/New_Systems/rnas/4LVV

>  <Rbt.Executable>
rbdock ($Id: //depot/dev/client3/rdock/2013.1/src/exe/rbdock.cxx#4 $)

>  <Rbt.Library>
libRbt.so (2013.1, Build901 2013/11/27)

>  <Rbt.Parameter_File>
/export/apps/rDock/src/rDock_2013.1_src/data/scripts/dock_solv.prm

>  <Rbt.Receptor>
prm/pocket_docking_7.prm

>  <SCORE>
-10.0912

>  <SCORE.INTER>
-9.25233

>  <SCORE.INTER.CONST>
1

>  <SCORE.INTER.POLAR>
0

>  <SCORE.INTER.ROT>
5

>  <SCORE.INTER.SOLV>
13.9497

>  <SCORE.INTER.VDW>
-17.7514

>  <SCORE.INTER.norm>
-0.370093

>  <SCORE.INTRA>
-0.838859

>  <SCORE.INTRA.DIHEDRAL>
-0.0406768

>  <SCORE.INTRA.DIHEDRAL.0>
3.94806

>  <SCORE.INTRA.POLAR>
0

>  <SCORE.INTRA.POLAR.0>
0

>  <SCORE.INTRA.REPUL>
0

>  <SCORE.INTRA.REPUL.0>
0

>  <SCORE.INTRA.SOLV>
-0.366167

>  <SCORE.INTRA.SOLV.lig_0>
-70.9803

>  <SCORE.INTRA.VDW>
-0.635437

>  <SCORE.INTRA.VDW.0>
-0.709409

>  <SCORE.INTRA.norm>
-0.0335544

>  <SCORE.RESTR>
0

>  <SCORE.RESTR.CAVITY>
0

>  <SCORE.RESTR.norm>
0

>  <SCORE.SYSTEM>
0

>  <SCORE.SYSTEM.CONST>
0

>  <SCORE.SYSTEM.DIHEDRAL>
0

>  <SCORE.SYSTEM.SOLV>
0

>  <SCORE.SYSTEM.norm>
0

>  <SCORE.heavy>
25

>  <SCORE.norm>
-0.403648

>  <RMSD>
5.404

$$$$
ligand
 OpenBabel11021811503D
libRbt.so/2013.1/901 2013/11/27
 25 27  0  0  0  0  0  0  0  0999 V2000
    8.0526  -24.0827   17.2202 N   0  0  0  0  0  0  0  0  0  0  0  0
    8.3577  -23.8005   18.5886 C   0  0  0  0  0  0  0  0  0  0  0  0
    9.4972  -23.9356   19.0169 O   0  0  0  0  0  0  0  0  0  0  0  0
    8.9603  -19.4374   27.3526 N   0  0  0  0  0  0  0  0  0  0  0  0
    7.4343  -21.0481   26.4349 N   0  0  0  0  0  0  0  0  0  0  0  0
    7.6637  -19.7879   26.8708 C   0  0  0  0  0  0  0  0  0  0  0  0
    6.6718  -18.8475   26.8671 N   0  0  0  0  0  0  0  0  0  0  0  0
    5.4182  -19.1245   26.4264 C   0  0  0  0  0  0  0  0  0  0  0  0
    5.1417  -20.4280   25.9487 C   0  0  0  0  0  0  0  0  0  0  0  0
    4.4654  -18.1330   26.4360 O   0  0  0  0  0  0  0  0  0  0  0  0
    2.5955  -20.4655   26.0651 C   0  0  0  0  0  0  0  0  0  0  0  0
    3.8443  -20.8767   25.4702 N   0  0  0  0  0  0  0  0  0  0  0  0
    2.2734  -20.7500   27.2137 O   0  0  0  0  0  0  0  0  0  0  0  0
    3.8885  -21.8323   24.4471 C   0  0  2  0  0  0  0  0  0  0  0  0
    4.6935  -23.0678   24.9257 C   0  0  0  0  0  0  0  0  0  0  0  0
    6.1905  -21.4005   25.9797 C   0  0  0  0  0  0  0  0  0  0  0  0
    5.9449  -22.7602   25.4912 N   0  0  0  0  0  0  0  0  0  0  0  0
    4.5075  -21.2507   23.1921 C   0  0  0  0  0  0  0  0  0  0  0  0
    4.1773  -21.8838   21.9453 N   0  0  0  0  0  0  0  0  0  0  0  0
    7.2662  -23.3218   19.4821 C   0  0  0  0  0  0  0  0  0  0  0  0
    7.0226  -23.9363   20.7027 C   0  0  0  0  0  0  0  0  0  0  0  0
    5.9973  -23.4652   21.5138 C   0  0  0  0  0  0  0  0  0  0  0  0
    5.2278  -22.3758   21.1103 C   0  0  0  0  0  0  0  0  0  0  0  0
    5.4813  -21.7597   19.8973 C   0  0  0  0  0  0  0  0  0  0  0  0
    6.4994  -22.2375   19.0810 C   0  0  0  0  0  0  0  0  0  0  0  0
  1  2  1  0  0  0  0
  2  3  2  0  0  0  0
  2 20  1  0  0  0  0
  4  6  1  0  0  0  0
  5  6  2  0  0  0  0
  5 16  1  0  0  0  0
  6  7  1  0  0  0  0
  7  8  1  0  0  0  0
  8  9  1  0  0  0  0
  8 10  2  0  0  0  0
  9 12  1  0  0  0  0
  9 16  2  0  0  0  0
 11 13  1  0  0  0  0
 11 12  1  0  0  0  0
 12 14  1  0  0  0  0
 14 15  1  0  0  0  0
 14 18  1  6  0  0  0
 15 17  1  0  0  0  0
 16 17  1  0  0  0  0
 18 19  1  0  0  0  0
 19 23  1  0  0  0  0
 20 21  2  0  0  0  0
 20 25  1  0  0  0  0
 21 22  1  0  0  0  0
 22 23  2  0  0  0  0
 23 24  1  0  0  0  0
 24 25  2  0  0  0  0
M  END
>  <CHROM.1>
-64.38561562,-156.87865329,-123.53380152,68.02350737,128.62825510,5.85516849
-21.56365154,23.59516418,-1.29026847,0.04693910,1.12580191

>  <Name>
ligand

>  <RI>
0

>  <Rbt.Current_Directory>
/home/itssahil/PROJECTS/Mol_Feturizer/New_Systems/rnas/4LVV

>  <Rbt.Executable>
rbdock ($Id: //depot/dev/client3/rdock/2013.1/src/exe/rbdock.cxx#4 $)

>  <Rbt.Library>
libRbt.so (2013.1, Build901 2013/11/27)

>  <Rbt.Parameter_File>
/export/apps/rDock/src/rDock_2013.1_src/data/scripts/dock_solv.prm

>  <Rbt.Receptor>
prm/pocket_docking_8.prm

>  <SCORE>
-8.61569

>  <SCORE.INTER>
-8.14056

>  <SCORE.INTER.CONST>
1

>  <SCORE.INTER.POLAR>
0

>  <SCORE.INTER.ROT>
5

>  <SCORE.INTER.SOLV>
9.53312

>  <SCORE.INTER.VDW>
-15.5381

>  <SCORE.INTER.norm>
-0.325622

>  <SCORE.INTRA>
-0.475129

>  <SCORE.INTRA.DIHEDRAL>
2.14378

>  <SCORE.INTRA.DIHEDRAL.0>
3.94806

>  <SCORE.INTRA.POLAR>
0

>  <SCORE.INTRA.POLAR.0>
0

>  <SCORE.INTRA.REPUL>
0

>  <SCORE.INTRA.REPUL.0>
0

>  <SCORE.INTRA.SOLV>
-0.51594

>  <SCORE.INTRA.SOLV.lig_0>
-70.9803

>  <SCORE.INTRA.VDW>
-1.28905

>  <SCORE.INTRA.VDW.0>
-0.709409

>  <SCORE.INTRA.norm>
-0.0190052

>  <SCORE.RESTR>
0

>  <SCORE.RESTR.CAVITY>
0

>  <SCORE.RESTR.norm>
0

>  <SCORE.SYSTEM>
0

>  <SCORE.SYSTEM.CONST>
0

>  <SCORE.SYSTEM.DIHEDRAL>
0

>  <SCORE.SYSTEM.SOLV>
0

>  <SCORE.SYSTEM.norm>
0

>  <SCORE.heavy>
25

>  <SCORE.norm>
-0.344627

>  <RMSD>
5.413

$$$$
ligand
 OpenBabel11021811503D
libRbt.so/2013.1/901 2013/11/27
 25 27  0  0  0  0  0  0  0  0999 V2000
    6.1688  -22.3972   19.5953 N   0  0  0  0  0  0  0  0  0  0  0  0
    5.3441  -21.5497   20.3998 C   0  0  0  0  0  0  0  0  0  0  0  0
    4.8677  -20.5196   19.9393 O   0  0  0  0  0  0  0  0  0  0  0  0
    7.2720  -16.7124   25.3186 N   0  0  0  0  0  0  0  0  0  0  0  0
    6.4467  -18.3211   26.8985 N   0  0  0  0  0  0  0  0  0  0  0  0
    6.3035  -17.6828   25.7141 C   0  0  0  0  0  0  0  0  0  0  0  0
    5.2412  -17.9442   24.8945 N   0  0  0  0  0  0  0  0  0  0  0  0
    4.2861  -18.8519   25.2207 C   0  0  0  0  0  0  0  0  0  0  0  0
    4.4077  -19.5514   26.4452 C   0  0  0  0  0  0  0  0  0  0  0  0
    3.2472  -19.0804   24.3492 O   0  0  0  0  0  0  0  0  0  0  0  0
    2.0259  -20.4017   26.7653 C   0  0  0  0  0  0  0  0  0  0  0  0
    3.4529  -20.5309   26.9377 N   0  0  0  0  0  0  0  0  0  0  0  0
    1.4350  -19.3298   26.8414 O   0  0  0  0  0  0  0  0  0  0  0  0
    4.0079  -21.5700   27.6953 C   0  0  2  0  0  0  0  0  0  0  0  0
    4.7764  -20.9773   28.9042 C   0  0  0  0  0  0  0  0  0  0  0  0
    5.5177  -19.2474   27.2950 C   0  0  0  0  0  0  0  0  0  0  0  0
    5.6805  -19.9521   28.5696 N   0  0  0  0  0  0  0  0  0  0  0  0
    4.9304  -22.4224   26.8476 C   0  0  0  0  0  0  0  0  0  0  0  0
    4.3338  -23.1578   25.7672 N   0  0  0  0  0  0  0  0  0  0  0  0
    5.0599  -21.9515   21.8057 C   0  0  0  0  0  0  0  0  0  0  0  0
    3.9109  -21.5182   22.4528 C   0  0  0  0  0  0  0  0  0  0  0  0
    3.6744  -21.9115   23.7644 C   0  0  0  0  0  0  0  0  0  0  0  0
    4.5776  -22.7452   24.4208 C   0  0  0  0  0  0  0  0  0  0  0  0
    5.7165  -23.1833   23.7678 C   0  0  0  0  0  0  0  0  0  0  0  0
    5.9590  -22.7812   22.4599 C   0  0  0  0  0  0  0  0  0  0  0  0
  1  2  1  0  0  0  0
  2  3  2  0  0  0  0
  2 20  1  0  0  0  0
  4  6  1  0  0  0  0
  5  6  2  0  0  0  0
  5 16  1  0  0  0  0
  6  7  1  0  0  0  0
  7  8  1  0  0  0  0
  8  9  1  0  0  0  0
  8 10  2  0  0  0  0
  9 12  1  0  0  0  0
  9 16  2  0  0  0  0
 11 13  1  0  0  0  0
 11 12  1  0  0  0  0
 12 14  1  0  0  0  0
 14 15  1  0  0  0  0
 14 18  1  6  0  0  0
 15 17  1  0  0  0  0
 16 17  1  0  0  0  0
 18 19  1  0  0  0  0
 19 23  1  0  0  0  0
 20 21  2  0  0  0  0
 20 25  1  0  0  0  0
 21 22  1  0  0  0  0
 22 23  2  0  0  0  0
 23 24  1  0  0  0  0
 24 25  2  0  0  0  0
M  END
>  <CHROM.1>
-37.97117830,-64.82565983,108.42031295,-95.29449947,-154.23204749,4.70446129
-20.52409082,24.95560827,-1.31356699,1.12170219,0.99895334

>  <Name>
ligand

>  <RI>
0

>  <Rbt.Current_Directory>
/home/itssahil/PROJECTS/Mol_Feturizer/New_Systems/rnas/4LVV

>  <Rbt.Executable>
rbdock ($Id: //depot/dev/client3/rdock/2013.1/src/exe/rbdock.cxx#4 $)

>  <Rbt.Library>
libRbt.so (2013.1, Build901 2013/11/27)

>  <Rbt.Parameter_File>
/export/apps/rDock/src/rDock_2013.1_src/data/scripts/dock_solv.prm

>  <Rbt.Receptor>
prm/pocket_docking_5.prm

>  <SCORE>
-12.5097

>  <SCORE.INTER>
-10.5396

>  <SCORE.INTER.CONST>
1

>  <SCORE.INTER.POLAR>
0

>  <SCORE.INTER.ROT>
5

>  <SCORE.INTER.SOLV>
14.8904

>  <SCORE.INTER.VDW>
-18.9232

>  <SCORE.INTER.norm>
-0.421585

>  <SCORE.INTRA>
-1.97009

>  <SCORE.INTRA.DIHEDRAL>
0.653924

>  <SCORE.INTRA.DIHEDRAL.0>
3.94806

>  <SCORE.INTRA.POLAR>
0

>  <SCORE.INTRA.POLAR.0>
0

>  <SCORE.INTRA.REPUL>
0

>  <SCORE.INTRA.REPUL.0>
0

>  <SCORE.INTRA.SOLV>
0.368099

>  <SCORE.INTRA.SOLV.lig_0>
-70.9803

>  <SCORE.INTRA.VDW>
-2.4811

>  <SCORE.INTRA.VDW.0>
-0.709409

>  <SCORE.INTRA.norm>
-0.0788037

>  <SCORE.RESTR>
0

>  <SCORE.RESTR.CAVITY>
0

>  <SCORE.RESTR.norm>
0

>  <SCORE.SYSTEM>
0

>  <SCORE.SYSTEM.CONST>
0

>  <SCORE.SYSTEM.DIHEDRAL>
0

>  <SCORE.SYSTEM.SOLV>
0

>  <SCORE.SYSTEM.norm>
0

>  <SCORE.heavy>
25

>  <SCORE.norm>
-0.500388

>  <RMSD>
5.434

$$$$
ligand
 OpenBabel11021811503D
libRbt.so/2013.1/901 2013/11/27
 25 27  0  0  0  0  0  0  0  0999 V2000
    8.0443  -20.8542   29.1624 N   0  0  0  0  0  0  0  0  0  0  0  0
    6.7137  -20.6415   29.6417 C   0  0  0  0  0  0  0  0  0  0  0  0
    6.5070  -20.3808   30.8204 O   0  0  0  0  0  0  0  0  0  0  0  0
    7.6297  -17.0460   23.2523 N   0  0  0  0  0  0  0  0  0  0  0  0
    5.9233  -18.6187   22.6360 N   0  0  0  0  0  0  0  0  0  0  0  0
    6.8971  -18.2455   23.4981 C   0  0  0  0  0  0  0  0  0  0  0  0
    7.1979  -19.0034   24.5951 N   0  0  0  0  0  0  0  0  0  0  0  0
    6.5393  -20.1564   24.8767 C   0  0  0  0  0  0  0  0  0  0  0  0
    5.5038  -20.5738   24.0066 C   0  0  0  0  0  0  0  0  0  0  0  0
    6.8791  -20.8697   26.0022 O   0  0  0  0  0  0  0  0  0  0  0  0
    5.2982  -23.0367   24.6313 C   0  0  0  0  0  0  0  0  0  0  0  0
    4.7303  -21.7944   24.1655 N   0  0  0  0  0  0  0  0  0  0  0  0
    4.6799  -23.8406   25.3206 O   0  0  0  0  0  0  0  0  0  0  0  0
    3.4017  -21.7147   23.7293 C   0  0  2  0  0  0  0  0  0  0  0  0
    3.3702  -21.3001   22.2357 C   0  0  0  0  0  0  0  0  0  0  0  0
    5.2195  -19.7742   22.8548 C   0  0  0  0  0  0  0  0  0  0  0  0
    4.1529  -20.1709   21.9314 N   0  0  0  0  0  0  0  0  0  0  0  0
    2.6163  -20.7279   24.5694 C   0  0  0  0  0  0  0  0  0  0  0  0
    2.4014  -21.0678   25.9487 N   0  0  0  0  0  0  0  0  0  0  0  0
    5.5823  -20.7257   28.6765 C   0  0  0  0  0  0  0  0  0  0  0  0
    5.0841  -19.5860   28.0605 C   0  0  0  0  0  0  0  0  0  0  0  0
    4.0283  -19.6983   27.1641 C   0  0  0  0  0  0  0  0  0  0  0  0
    3.4823  -20.9476   26.8760 C   0  0  0  0  0  0  0  0  0  0  0  0
    3.9895  -22.0824   27.4845 C   0  0  0  0  0  0  0  0  0  0  0  0
    5.0381  -21.9692   28.3894 C   0  0  0  0  0  0  0  0  0  0  0  0
  1  2  1  0  0  0  0
  2  3  2  0  0  0  0
  2 20  1  0  0  0  0
  4  6  1  0  0  0  0
  5  6  2  0  0  0  0
  5 16  1  0  0  0  0
  6  7  1  0  0  0  0
  7  8  1  0  0  0  0
  8  9  1  0  0  0  0
  8 10  2  0  0  0  0
  9 12  1  0  0  0  0
  9 16  2  0  0  0  0
 11 13  1  0  0  0  0
 11 12  1  0  0  0  0
 12 14  1  0  0  0  0
 14 15  1  0  0  0  0
 14 18  1  1  0  0  0
 15 17  1  0  0  0  0
 16 17  1  0  0  0  0
 18 19  1  0  0  0  0
 19 23  1  0  0  0  0
 20 21  2  0  0  0  0
 20 25  1  0  0  0  0
 21 22  1  0  0  0  0
 22 23  2  0  0  0  0
 23 24  1  0  0  0  0
 24 25  2  0  0  0  0
M  END
>  <CHROM.1>
145.96910807,-66.41328506,75.01062817,64.81787825,-94.59036334,5.25280832
-20.62244858,25.59995825,-1.33163983,-0.71831273,-1.28169286

>  <Name>
ligand

>  <RI>
0

>  <Rbt.Current_Directory>
/home/itssahil/PROJECTS/Mol_Feturizer/New_Systems/rnas/4LVV

>  <Rbt.Executable>
rbdock ($Id: //depot/dev/client3/rdock/2013.1/src/exe/rbdock.cxx#4 $)

>  <Rbt.Library>
libRbt.so (2013.1, Build901 2013/11/27)

>  <Rbt.Parameter_File>
/export/apps/rDock/src/rDock_2013.1_src/data/scripts/dock_solv.prm

>  <Rbt.Receptor>
prm/pocket_docking_7.prm

>  <SCORE>
-7.98197

>  <SCORE.INTER>
-4.64397

>  <SCORE.INTER.CONST>
1

>  <SCORE.INTER.POLAR>
0

>  <SCORE.INTER.ROT>
5

>  <SCORE.INTER.SOLV>
8.24901

>  <SCORE.INTER.VDW>
-12.779

>  <SCORE.INTER.norm>
-0.185759

>  <SCORE.INTRA>
-3.338

>  <SCORE.INTRA.DIHEDRAL>
-0.552195

>  <SCORE.INTRA.DIHEDRAL.0>
3.94806

>  <SCORE.INTRA.POLAR>
0

>  <SCORE.INTRA.POLAR.0>
0

>  <SCORE.INTRA.REPUL>
0

>  <SCORE.INTRA.REPUL.0>
0

>  <SCORE.INTRA.SOLV>
1.76274

>  <SCORE.INTRA.SOLV.lig_0>
-70.9803

>  <SCORE.INTRA.VDW>
-3.94327

>  <SCORE.INTRA.VDW.0>
-0.709409

>  <SCORE.INTRA.norm>
-0.13352

>  <SCORE.RESTR>
0

>  <SCORE.RESTR.CAVITY>
0

>  <SCORE.RESTR.norm>
0

>  <SCORE.SYSTEM>
0

>  <SCORE.SYSTEM.CONST>
0

>  <SCORE.SYSTEM.DIHEDRAL>
0

>  <SCORE.SYSTEM.SOLV>
0

>  <SCORE.SYSTEM.norm>
0

>  <SCORE.heavy>
25

>  <SCORE.norm>
-0.319279

>  <RMSD>
5.495

$$$$
ligand
 OpenBabel11021811503D
libRbt.so/2013.1/901 2013/11/27
 25 27  0  0  0  0  0  0  0  0999 V2000
    6.3883  -21.8419   30.0467 N   0  0  0  0  0  0  0  0  0  0  0  0
    5.2145  -22.0815   29.2655 C   0  0  0  0  0  0  0  0  0  0  0  0
    4.4674  -23.0159   29.5281 O   0  0  0  0  0  0  0  0  0  0  0  0
    8.0892  -24.1071   22.7575 N   0  0  0  0  0  0  0  0  0  0  0  0
    6.4376  -22.5310   22.0136 N   0  0  0  0  0  0  0  0  0  0  0  0
    6.8943  -23.3598   22.9808 C   0  0  0  0  0  0  0  0  0  0  0  0
    6.2249  -23.5011   24.1641 N   0  0  0  0  0  0  0  0  0  0  0  0
    5.0807  -22.8210   24.4301 C   0  0  0  0  0  0  0  0  0  0  0  0
    4.5780  -21.9330   23.4492 C   0  0  0  0  0  0  0  0  0  0  0  0
    4.4588  -22.9961   25.6441 O   0  0  0  0  0  0  0  0  0  0  0  0
    2.1628  -21.6644   24.2194 C   0  0  0  0  0  0  0  0  0  0  0  0
    3.3548  -21.1585   23.5822 N   0  0  0  0  0  0  0  0  0  0  0  0
    1.0306  -21.3339   23.8837 O   0  0  0  0  0  0  0  0  0  0  0  0
    3.3725  -19.9098   22.9481 C   0  0  2  0  0  0  0  0  0  0  0  0
    3.6770  -20.0983   21.4397 C   0  0  0  0  0  0  0  0  0  0  0  0
    5.2853  -21.8158   22.2112 C   0  0  0  0  0  0  0  0  0  0  0  0
    4.7986  -20.9048   21.1716 N   0  0  0  0  0  0  0  0  0  0  0  0
    4.3995  -18.9957   23.5854 C   0  0  0  0  0  0  0  0  0  0  0  0
    4.1396  -18.5540   24.9276 N   0  0  0  0  0  0  0  0  0  0  0  0
    4.9063  -21.1621   28.1348 C   0  0  0  0  0  0  0  0  0  0  0  0
    3.6218  -20.6718   27.9441 C   0  0  0  0  0  0  0  0  0  0  0  0
    3.3670  -19.8151   26.8800 C   0  0  0  0  0  0  0  0  0  0  0  0
    4.3963  -19.4409   26.0185 C   0  0  0  0  0  0  0  0  0  0  0  0
    5.6777  -19.9239   26.2190 C   0  0  0  0  0  0  0  0  0  0  0  0
    5.9305  -20.7894   27.2764 C   0  0  0  0  0  0  0  0  0  0  0  0
  1  2  1  0  0  0  0
  2  3  2  0  0  0  0
  2 20  1  0  0  0  0
  4  6  1  0  0  0  0
  5  6  2  0  0  0  0
  5 16  1  0  0  0  0
  6  7  1  0  0  0  0
  7  8  1  0  0  0  0
  8  9  1  0  0  0  0
  8 10  2  0  0  0  0
  9 12  1  0  0  0  0
  9 16  2  0  0  0  0
 11 13  1  0  0  0  0
 11 12  1  0  0  0  0
 12 14  1  0  0  0  0
 14 15  1  0  0  0  0
 14 18  1  1  0  0  0
 15 17  1  0  0  0  0
 16 17  1  0  0  0  0
 18 19  1  0  0  0  0
 19 23  1  0  0  0  0
 20 21  2  0  0  0  0
 20 25  1  0  0  0  0
 21 22  1  0  0  0  0
 22 23  2  0  0  0  0
 23 24  1  0  0  0  0
 24 25  2  0  0  0  0
M  END
>  <CHROM.1>
-148.25462755,-67.86630012,78.48954689,-120.42599523,-134.61103632,4.67853647
-21.40842702,24.95952587,-1.51791636,0.73690352,-1.58720285

>  <Name>
ligand

>  <RI>
0

>  <Rbt.Current_Directory>
/home/itssahil/PROJECTS/Mol_Feturizer/New_Systems/rnas/4LVV

>  <Rbt.Executable>
rbdock ($Id: //depot/dev/client3/rdock/2013.1/src/exe/rbdock.cxx#4 $)

>  <Rbt.Library>
libRbt.so (2013.1, Build901 2013/11/27)

>  <Rbt.Parameter_File>
/export/apps/rDock/src/rDock_2013.1_src/data/scripts/dock_solv.prm

>  <Rbt.Receptor>
prm/pocket_docking_5.prm

>  <SCORE>
-11.9552

>  <SCORE.INTER>
-8.94289

>  <SCORE.INTER.CONST>
1

>  <SCORE.INTER.POLAR>
0

>  <SCORE.INTER.ROT>
5

>  <SCORE.INTER.SOLV>
17.2527

>  <SCORE.INTER.VDW>
-18.6462

>  <SCORE.INTER.norm>
-0.357715

>  <SCORE.INTRA>
-3.01235

>  <SCORE.INTRA.DIHEDRAL>
-0.0285396

>  <SCORE.INTRA.DIHEDRAL.0>
3.94806

>  <SCORE.INTRA.POLAR>
0

>  <SCORE.INTRA.POLAR.0>
0

>  <SCORE.INTRA.REPUL>
0

>  <SCORE.INTRA.REPUL.0>
0

>  <SCORE.INTRA.SOLV>
0.704249

>  <SCORE.INTRA.SOLV.lig_0>
-70.9803

>  <SCORE.INTRA.VDW>
-3.35021

>  <SCORE.INTRA.VDW.0>
-0.709409

>  <SCORE.INTRA.norm>
-0.120494

>  <SCORE.RESTR>
0

>  <SCORE.RESTR.CAVITY>
0

>  <SCORE.RESTR.norm>
0

>  <SCORE.SYSTEM>
0

>  <SCORE.SYSTEM.CONST>
0

>  <SCORE.SYSTEM.DIHEDRAL>
0

>  <SCORE.SYSTEM.SOLV>
0

>  <SCORE.SYSTEM.norm>
0

>  <SCORE.heavy>
25

>  <SCORE.norm>
-0.47821

>  <RMSD>
5.602

$$$$
ligand
 OpenBabel11021811503D
libRbt.so/2013.1/901 2013/11/27
 25 27  0  0  0  0  0  0  0  0999 V2000
    7.0847  -23.3508   31.1875 N   0  0  0  0  0  0  0  0  0  0  0  0
    5.7310  -22.9777   30.9159 C   0  0  0  0  0  0  0  0  0  0  0  0
    4.8261  -23.3104   31.6713 O   0  0  0  0  0  0  0  0  0  0  0  0
    5.0488  -19.2852   19.5434 N   0  0  0  0  0  0  0  0  0  0  0  0
    3.5827  -20.1473   21.2382 N   0  0  0  0  0  0  0  0  0  0  0  0
    4.8431  -19.9652   20.7809 C   0  0  0  0  0  0  0  0  0  0  0  0
    5.9221  -20.4304   21.4791 N   0  0  0  0  0  0  0  0  0  0  0  0
    5.7875  -21.0893   22.6582 C   0  0  0  0  0  0  0  0  0  0  0  0
    4.4858  -21.2875   23.1776 C   0  0  0  0  0  0  0  0  0  0  0  0
    6.9119  -21.5232   23.3205 O   0  0  0  0  0  0  0  0  0  0  0  0
    4.9025  -23.1693   24.8460 C   0  0  0  0  0  0  0  0  0  0  0  0
    4.1855  -21.9945   24.4120 N   0  0  0  0  0  0  0  0  0  0  0  0
    4.9874  -23.5075   26.0217 O   0  0  0  0  0  0  0  0  0  0  0  0
    3.0689  -21.5182   25.1106 C   0  0  2  0  0  0  0  0  0  0  0  0
    1.8206  -21.5733   24.1928 C   0  0  0  0  0  0  0  0  0  0  0  0
    3.3708  -20.8083   22.4200 C   0  0  0  0  0  0  0  0  0  0  0  0
    2.0074  -20.9914   22.9252 N   0  0  0  0  0  0  0  0  0  0  0  0
    3.3028  -20.1040   25.6020 C   0  0  0  0  0  0  0  0  0  0  0  0
    4.5258  -19.8516   26.3125 N   0  0  0  0  0  0  0  0  0  0  0  0
    5.4422  -22.1609   29.7042 C   0  0  0  0  0  0  0  0  0  0  0  0
    6.3785  -22.0384   28.6869 C   0  0  0  0  0  0  0  0  0  0  0  0
    6.0782  -21.2695   27.5690 C   0  0  0  0  0  0  0  0  0  0  0  0
    4.8411  -20.6369   27.4643 C   0  0  0  0  0  0  0  0  0  0  0  0
    3.9066  -20.7706   28.4763 C   0  0  0  0  0  0  0  0  0  0  0  0
    4.2108  -21.5304   29.5995 C   0  0  0  0  0  0  0  0  0  0  0  0
  1  2  1  0  0  0  0
  2  3  2  0  0  0  0
  2 20  1  0  0  0  0
  4  6  1  0  0  0  0
  5  6  2  0  0  0  0
  5 16  1  0  0  0  0
  6  7  1  0  0  0  0
  7  8  1  0  0  0  0
  8  9  1  0  0  0  0
  8 10  2  0  0  0  0
  9 12  1  0  0  0  0
  9 16  2  0  0  0  0
 11 13  1  0  0  0  0
 11 12  1  0  0  0  0
 12 14  1  0  0  0  0
 14 15  1  0  0  0  0
 14 18  1  6  0  0  0
 15 17  1  0  0  0  0
 16 17  1  0  0  0  0
 18 19  1  0  0  0  0
 19 23  1  0  0  0  0
 20 21  2  0  0  0  0
 20 25  1  0  0  0  0
 21 22  1  0  0  0  0
 22 23  2  0  0  0  0
 23 24  1  0  0  0  0
 24 25  2  0  0  0  0
M  END
>  <CHROM.1>
154.87380720,-50.01793624,-55.40539620,128.22466877,15.88272133,4.68967590
-21.44189670,25.53873888,-1.44453867,0.17545564,-1.35579817

>  <Name>
ligand

>  <RI>
0

>  <Rbt.Current_Directory>
/home/itssahil/PROJECTS/Mol_Feturizer/New_Systems/rnas/4LVV

>  <Rbt.Executable>
rbdock ($Id: //depot/dev/client3/rdock/2013.1/src/exe/rbdock.cxx#4 $)

>  <Rbt.Library>
libRbt.so (2013.1, Build901 2013/11/27)

>  <Rbt.Parameter_File>
/export/apps/rDock/src/rDock_2013.1_src/data/scripts/dock_solv.prm

>  <Rbt.Receptor>
prm/pocket_docking_8.prm

>  <SCORE>
-11.0381

>  <SCORE.INTER>
-9.52176

>  <SCORE.INTER.CONST>
1

>  <SCORE.INTER.POLAR>
0

>  <SCORE.INTER.ROT>
5

>  <SCORE.INTER.SOLV>
15.1511

>  <SCORE.INTER.VDW>
-18.3315

>  <SCORE.INTER.norm>
-0.38087

>  <SCORE.INTRA>
-1.51632

>  <SCORE.INTRA.DIHEDRAL>
-0.498047

>  <SCORE.INTRA.DIHEDRAL.0>
3.94806

>  <SCORE.INTRA.POLAR>
0

>  <SCORE.INTRA.POLAR.0>
0

>  <SCORE.INTRA.REPUL>
0

>  <SCORE.INTRA.REPUL.0>
0

>  <SCORE.INTRA.SOLV>
0.922985

>  <SCORE.INTRA.SOLV.lig_0>
-70.9803

>  <SCORE.INTRA.VDW>
-1.72879

>  <SCORE.INTRA.VDW.0>
-0.709409

>  <SCORE.INTRA.norm>
-0.0606528

>  <SCORE.RESTR>
0

>  <SCORE.RESTR.CAVITY>
0

>  <SCORE.RESTR.norm>
0

>  <SCORE.SYSTEM>
0

>  <SCORE.SYSTEM.CONST>
0

>  <SCORE.SYSTEM.DIHEDRAL>
0

>  <SCORE.SYSTEM.SOLV>
0

>  <SCORE.SYSTEM.norm>
0

>  <SCORE.heavy>
25

>  <SCORE.norm>
-0.441523

>  <RMSD>
5.612

$$$$
ligand
 OpenBabel11021811503D
libRbt.so/2013.1/901 2013/11/27
 25 27  0  0  0  0  0  0  0  0999 V2000
    5.7761  -22.0746   33.2752 N   0  0  0  0  0  0  0  0  0  0  0  0
    5.7356  -23.1281   32.3089 C   0  0  0  0  0  0  0  0  0  0  0  0
    5.7042  -24.3006   32.6617 O   0  0  0  0  0  0  0  0  0  0  0  0
    3.8058  -19.2037   20.4228 N   0  0  0  0  0  0  0  0  0  0  0  0
    4.3424  -18.5399   22.6670 N   0  0  0  0  0  0  0  0  0  0  0  0
    3.6997  -19.3902   21.8335 C   0  0  0  0  0  0  0  0  0  0  0  0
    2.9420  -20.4187   22.3199 N   0  0  0  0  0  0  0  0  0  0  0  0
    2.7996  -20.6413   23.6513 C   0  0  0  0  0  0  0  0  0  0  0  0
    3.4680  -19.7822   24.5562 C   0  0  0  0  0  0  0  0  0  0  0  0
    2.0337  -21.7000   24.0799 O   0  0  0  0  0  0  0  0  0  0  0  0
    2.1810  -20.2370   26.7091 C   0  0  0  0  0  0  0  0  0  0  0  0
    3.3894  -19.8821   26.0044 N   0  0  0  0  0  0  0  0  0  0  0  0
    1.2647  -19.4472   26.9101 O   0  0  0  0  0  0  0  0  0  0  0  0
    4.5510  -19.5016   26.6883 C   0  0  2  0  0  0  0  0  0  0  0  0
    4.9202  -18.0436   26.3123 C   0  0  0  0  0  0  0  0  0  0  0  0
    4.2399  -18.7015   24.0241 C   0  0  0  0  0  0  0  0  0  0  0  0
    4.9493  -17.7920   24.9280 N   0  0  0  0  0  0  0  0  0  0  0  0
    5.6979  -20.4382   26.3660 C   0  0  0  0  0  0  0  0  0  0  0  0
    5.5581  -21.8089   26.7731 N   0  0  0  0  0  0  0  0  0  0  0  0
    5.7149  -22.7733   30.8624 C   0  0  0  0  0  0  0  0  0  0  0  0
    6.8842  -22.4392   30.1932 C   0  0  0  0  0  0  0  0  0  0  0  0
    6.8313  -22.1138   28.8432 C   0  0  0  0  0  0  0  0  0  0  0  0
    5.6152  -22.1355   28.1634 C   0  0  0  0  0  0  0  0  0  0  0  0
    4.4535  -22.4797   28.8323 C   0  0  0  0  0  0  0  0  0  0  0  0
    4.5043  -22.7944   30.1849 C   0  0  0  0  0  0  0  0  0  0  0  0
  1  2  1  0  0  0  0
  2  3  2  0  0  0  0
  2 20  1  0  0  0  0
  4  6  1  0  0  0  0
  5  6  2  0  0  0  0
  5 16  1  0  0  0  0
  6  7  1  0  0  0  0
  7  8  1  0  0  0  0
  8  9  1  0  0  0  0
  8 10  2  0  0  0  0
  9 12  1  0  0  0  0
  9 16  2  0  0  0  0
 11 13  1  0  0  0  0
 11 12  1  0  0  0  0
 12 14  1  0  0  0  0
 14 15  1  0  0  0  0
 14 18  1  6  0  0  0
 15 17  1  0  0  0  0
 16 17  1  0  0  0  0
 18 19  1  0  0  0  0
 19 23  1  0  0  0  0
 20 21  2  0  0  0  0
 20 25  1  0  0  0  0
 21 22  1  0  0  0  0
 22 23  2  0  0  0  0
 23 24  1  0  0  0  0
 24 25  2  0  0  0  0
M  END
>  <CHROM.1>
-78.39689969,-64.07035225,-70.53236391,-73.84370492,80.61907322,4.38583183
-20.76667983,26.74986860,-1.31066182,-0.35961215,-1.08165839

>  <Name>
ligand

>  <RI>
0

>  <Rbt.Current_Directory>
/home/itssahil/PROJECTS/Mol_Feturizer/New_Systems/rnas/4LVV

>  <Rbt.Executable>
rbdock ($Id: //depot/dev/client3/rdock/2013.1/src/exe/rbdock.cxx#4 $)

>  <Rbt.Library>
libRbt.so (2013.1, Build901 2013/11/27)

>  <Rbt.Parameter_File>
/export/apps/rDock/src/rDock_2013.1_src/data/scripts/dock_solv.prm

>  <Rbt.Receptor>
prm/pocket_docking_8.prm

>  <SCORE>
-11.0851

>  <SCORE.INTER>
-9.01083

>  <SCORE.INTER.CONST>
1

>  <SCORE.INTER.POLAR>
0

>  <SCORE.INTER.ROT>
5

>  <SCORE.INTER.SOLV>
13.6444

>  <SCORE.INTER.VDW>
-17.4887

>  <SCORE.INTER.norm>
-0.360433

>  <SCORE.INTRA>
-2.07428

>  <SCORE.INTRA.DIHEDRAL>
-0.665296

>  <SCORE.INTRA.DIHEDRAL.0>
3.94806

>  <SCORE.INTRA.POLAR>
0

>  <SCORE.INTRA.POLAR.0>
0

>  <SCORE.INTRA.REPUL>
0

>  <SCORE.INTRA.REPUL.0>
0

>  <SCORE.INTRA.SOLV>
-0.112042

>  <SCORE.INTRA.SOLV.lig_0>
-70.9803

>  <SCORE.INTRA.VDW>
-1.68562

>  <SCORE.INTRA.VDW.0>
-0.709409

>  <SCORE.INTRA.norm>
-0.0829714

>  <SCORE.RESTR>
0

>  <SCORE.RESTR.CAVITY>
0

>  <SCORE.RESTR.norm>
0

>  <SCORE.SYSTEM>
0

>  <SCORE.SYSTEM.CONST>
0

>  <SCORE.SYSTEM.DIHEDRAL>
0

>  <SCORE.SYSTEM.SOLV>
0

>  <SCORE.SYSTEM.norm>
0

>  <SCORE.heavy>
25

>  <SCORE.norm>
-0.443405

>  <RMSD>
5.613

$$$$
ligand
 OpenBabel11021811503D
libRbt.so/2013.1/901 2013/11/27
 25 27  0  0  0  0  0  0  0  0999 V2000
    7.1320  -23.5457   33.5953 N   0  0  0  0  0  0  0  0  0  0  0  0
    6.5702  -24.1774   32.4417 C   0  0  0  0  0  0  0  0  0  0  0  0
    6.3915  -25.3888   32.4158 O   0  0  0  0  0  0  0  0  0  0  0  0
    3.9497  -19.7389   20.9964 N   0  0  0  0  0  0  0  0  0  0  0  0
    3.8581  -19.1756   23.3287 N   0  0  0  0  0  0  0  0  0  0  0  0
    3.4478  -19.9689   22.3122 C   0  0  0  0  0  0  0  0  0  0  0  0
    2.5528  -20.9804   22.5223 N   0  0  0  0  0  0  0  0  0  0  0  0
    2.0370  -21.2423   23.7503 C   0  0  0  0  0  0  0  0  0  0  0  0
    2.4523  -20.4437   24.8428 C   0  0  0  0  0  0  0  0  0  0  0  0
    1.1493  -22.2816   23.9013 O   0  0  0  0  0  0  0  0  0  0  0  0
    0.6013  -20.9171   26.5304 C   0  0  0  0  0  0  0  0  0  0  0  0
    1.9689  -20.5897   26.2061 N   0  0  0  0  0  0  0  0  0  0  0  0
   -0.3243  -20.1205   26.4179 O   0  0  0  0  0  0  0  0  0  0  0  0
    2.9044  -20.2824   27.2022 C   0  0  2  0  0  0  0  0  0  0  0  0
    3.4091  -18.8293   27.0093 C   0  0  0  0  0  0  0  0  0  0  0  0
    3.3753  -19.3791   24.5951 C   0  0  0  0  0  0  0  0  0  0  0  0
    3.8317  -18.5319   25.7004 N   0  0  0  0  0  0  0  0  0  0  0  0
    4.0659  -21.2551   27.1700 C   0  0  0  0  0  0  0  0  0  0  0  0
    5.2159  -20.9282   27.9668 N   0  0  0  0  0  0  0  0  0  0  0  0
    6.1892  -23.3320   31.2760 C   0  0  0  0  0  0  0  0  0  0  0  0
    4.8768  -22.9186   31.0934 C   0  0  0  0  0  0  0  0  0  0  0  0
    4.5539  -22.1298   29.9959 C   0  0  0  0  0  0  0  0  0  0  0  0
    5.5429  -21.7459   29.0925 C   0  0  0  0  0  0  0  0  0  0  0  0
    6.8521  -22.1516   29.2845 C   0  0  0  0  0  0  0  0  0  0  0  0
    7.1733  -22.9497   30.3759 C   0  0  0  0  0  0  0  0  0  0  0  0
  1  2  1  0  0  0  0
  2  3  2  0  0  0  0
  2 20  1  0  0  0  0
  4  6  1  0  0  0  0
  5  6  2  0  0  0  0
  5 16  1  0  0  0  0
  6  7  1  0  0  0  0
  7  8  1  0  0  0  0
  8  9  1  0  0  0  0
  8 10  2  0  0  0  0
  9 12  1  0  0  0  0
  9 16  2  0  0  0  0
 11 13  1  0  0  0  0
 11 12  1  0  0  0  0
 12 14  1  0  0  0  0
 14 15  1  0  0  0  0
 14 18  1  6  0  0  0
 15 17  1  0  0  0  0
 16 17  1  0  0  0  0
 18 19  1  0  0  0  0
 19 23  1  0  0  0  0
 20 21  2  0  0  0  0
 20 25  1  0  0  0  0
 21 22  1  0  0  0  0
 22 23  2  0  0  0  0
 23 24  1  0  0  0  0
 24 25  2  0  0  0  0
M  END
>  <CHROM.1>
-73.34848486,169.05717950,112.95251485,-46.36060281,-97.54760918,3.91070361
-21.31052585,27.14864445,-1.14991012,0.01850174,-1.17886164

>  <Name>
ligand

>  <RI>
0

>  <Rbt.Current_Directory>
/home/itssahil/PROJECTS/Mol_Feturizer/New_Systems/rnas/4LVV

>  <Rbt.Executable>
rbdock ($Id: //depot/dev/client3/rdock/2013.1/src/exe/rbdock.cxx#4 $)

>  <Rbt.Library>
libRbt.so (2013.1, Build901 2013/11/27)

>  <Rbt.Parameter_File>
/export/apps/rDock/src/rDock_2013.1_src/data/scripts/dock_solv.prm

>  <Rbt.Receptor>
prm/pocket_docking_8.prm

>  <SCORE>
-13.3223

>  <SCORE.INTER>
-12.9559

>  <SCORE.INTER.CONST>
1

>  <SCORE.INTER.POLAR>
0

>  <SCORE.INTER.ROT>
5

>  <SCORE.INTER.SOLV>
17.666

>  <SCORE.INTER.VDW>
-21.4593

>  <SCORE.INTER.norm>
-0.518236

>  <SCORE.INTRA>
-0.366384

>  <SCORE.INTRA.DIHEDRAL>
0.735797

>  <SCORE.INTRA.DIHEDRAL.0>
3.94806

>  <SCORE.INTRA.POLAR>
0

>  <SCORE.INTRA.POLAR.0>
0

>  <SCORE.INTRA.REPUL>
0

>  <SCORE.INTRA.REPUL.0>
0

>  <SCORE.INTRA.SOLV>
-0.00761297

>  <SCORE.INTRA.SOLV.lig_0>
-70.9803

>  <SCORE.INTRA.VDW>
-0.730475

>  <SCORE.INTRA.VDW.0>
-0.709409

>  <SCORE.INTRA.norm>
-0.0146553

>  <SCORE.RESTR>
0

>  <SCORE.RESTR.CAVITY>
0

>  <SCORE.RESTR.norm>
0

>  <SCORE.SYSTEM>
0

>  <SCORE.SYSTEM.CONST>
0

>  <SCORE.SYSTEM.DIHEDRAL>
0

>  <SCORE.SYSTEM.SOLV>
0

>  <SCORE.SYSTEM.norm>
0

>  <SCORE.heavy>
25

>  <SCORE.norm>
-0.532892

>  <RMSD>
5.678

$$$$
ligand
 OpenBabel11021811503D
libRbt.so/2013.1/901 2013/11/27
 25 27  0  0  0  0  0  0  0  0999 V2000
    6.1881  -22.1965   30.0238 N   0  0  0  0  0  0  0  0  0  0  0  0
    5.1822  -21.9218   29.0450 C   0  0  0  0  0  0  0  0  0  0  0  0
    4.1488  -21.3419   29.3549 O   0  0  0  0  0  0  0  0  0  0  0  0
    6.6308  -16.3215   24.3973 N   0  0  0  0  0  0  0  0  0  0  0  0
    5.4537  -18.3752   23.9946 N   0  0  0  0  0  0  0  0  0  0  0  0
    6.3519  -17.4541   23.5754 C   0  0  0  0  0  0  0  0  0  0  0  0
    6.9891  -17.5847   22.3732 N   0  0  0  0  0  0  0  0  0  0  0  0
    6.7597  -18.6370   21.5470 C   0  0  0  0  0  0  0  0  0  0  0  0
    5.8374  -19.6298   21.9560 C   0  0  0  0  0  0  0  0  0  0  0  0
    7.4406  -18.7195   20.3551 O   0  0  0  0  0  0  0  0  0  0  0  0
    5.3198  -20.7667   19.7339 C   0  0  0  0  0  0  0  0  0  0  0  0
    5.4730  -20.7963   21.1687 N   0  0  0  0  0  0  0  0  0  0  0  0
    4.5508  -20.0057   19.1566 O   0  0  0  0  0  0  0  0  0  0  0  0
    5.1708  -21.9430   21.9139 C   0  0  2  0  0  0  0  0  0  0  0  0
    4.0157  -21.6313   22.9000 C   0  0  0  0  0  0  0  0  0  0  0  0
    5.1688  -19.4620   23.2097 C   0  0  0  0  0  0  0  0  0  0  0  0
    4.2092  -20.4694   23.6699 N   0  0  0  0  0  0  0  0  0  0  0  0
    6.3909  -22.4347   22.6661 C   0  0  0  0  0  0  0  0  0  0  0  0
    6.1831  -23.4565   23.6544 N   0  0  0  0  0  0  0  0  0  0  0  0
    5.4213  -22.3387   27.6352 C   0  0  0  0  0  0  0  0  0  0  0  0
    4.4316  -22.9808   26.9037 C   0  0  0  0  0  0  0  0  0  0  0  0
    4.6858  -23.3563   25.5902 C   0  0  0  0  0  0  0  0  0  0  0  0
    5.9208  -23.0787   25.0076 C   0  0  0  0  0  0  0  0  0  0  0  0
    6.9008  -22.4287   25.7374 C   0  0  0  0  0  0  0  0  0  0  0  0
    6.6507  -22.0630   27.0545 C   0  0  0  0  0  0  0  0  0  0  0  0
  1  2  1  0  0  0  0
  2  3  2  0  0  0  0
  2 20  1  0  0  0  0
  4  6  1  0  0  0  0
  5  6  2  0  0  0  0
  5 16  1  0  0  0  0
  6  7  1  0  0  0  0
  7  8  1  0  0  0  0
  8  9  1  0  0  0  0
  8 10  2  0  0  0  0
  9 12  1  0  0  0  0
  9 16  2  0  0  0  0
 11 13  1  0  0  0  0
 11 12  1  0  0  0  0
 12 14  1  0  0  0  0
 14 15  1  0  0  0  0
 14 18  1  1  0  0  0
 15 17  1  0  0  0  0
 16 17  1  0  0  0  0
 18 19  1  0  0  0  0
 19 23  1  0  0  0  0
 20 21  2  0  0  0  0
 20 25  1  0  0  0  0
 21 22  1  0  0  0  0
 22 23  2  0  0  0  0
 23 24  1  0  0  0  0
 24 25  2  0  0  0  0
M  END
>  <CHROM.1>
-56.52500573,169.29038559,-90.96874805,114.32132871,134.38784426,5.64902064
-20.73006967,24.01790465,-1.90195342,-1.34613688,-1.50338051

>  <Name>
ligand

>  <RI>
0

>  <Rbt.Current_Directory>
/home/itssahil/PROJECTS/Mol_Feturizer/New_Systems/rnas/4LVV

>  <Rbt.Executable>
rbdock ($Id: //depot/dev/client3/rdock/2013.1/src/exe/rbdock.cxx#4 $)

>  <Rbt.Library>
libRbt.so (2013.1, Build901 2013/11/27)

>  <Rbt.Parameter_File>
/export/apps/rDock/src/rDock_2013.1_src/data/scripts/dock_solv.prm

>  <Rbt.Receptor>
prm/pocket_docking_6.prm

>  <SCORE>
-8.46274

>  <SCORE.INTER>
-7.35568

>  <SCORE.INTER.CONST>
1

>  <SCORE.INTER.POLAR>
0

>  <SCORE.INTER.ROT>
5

>  <SCORE.INTER.SOLV>
9.67036

>  <SCORE.INTER.VDW>
-15.0606

>  <SCORE.INTER.norm>
-0.294227

>  <SCORE.INTRA>
-1.10705

>  <SCORE.INTRA.DIHEDRAL>
0.327416

>  <SCORE.INTRA.DIHEDRAL.0>
3.94806

>  <SCORE.INTRA.POLAR>
0

>  <SCORE.INTRA.POLAR.0>
0

>  <SCORE.INTRA.REPUL>
0

>  <SCORE.INTRA.REPUL.0>
0

>  <SCORE.INTRA.SOLV>
0.489344

>  <SCORE.INTRA.SOLV.lig_0>
-70.9803

>  <SCORE.INTRA.VDW>
-1.51543

>  <SCORE.INTRA.VDW.0>
-0.709409

>  <SCORE.INTRA.norm>
-0.0442821

>  <SCORE.RESTR>
0

>  <SCORE.RESTR.CAVITY>
0

>  <SCORE.RESTR.norm>
0

>  <SCORE.SYSTEM>
0

>  <SCORE.SYSTEM.CONST>
0

>  <SCORE.SYSTEM.DIHEDRAL>
0

>  <SCORE.SYSTEM.SOLV>
0

>  <SCORE.SYSTEM.norm>
0

>  <SCORE.heavy>
25

>  <SCORE.norm>
-0.338509

>  <RMSD>
5.682

$$$$
ligand
 OpenBabel11021811503D
libRbt.so/2013.1/901 2013/11/27
 25 27  0  0  0  0  0  0  0  0999 V2000
    4.4260  -22.8400   29.8564 N   0  0  0  0  0  0  0  0  0  0  0  0
    5.1519  -22.2006   28.8031 C   0  0  0  0  0  0  0  0  0  0  0  0
    6.2642  -21.7295   29.0054 O   0  0  0  0  0  0  0  0  0  0  0  0
    7.6189  -17.0936   25.2731 N   0  0  0  0  0  0  0  0  0  0  0  0
    6.3296  -17.9342   23.4302 N   0  0  0  0  0  0  0  0  0  0  0  0
    7.0455  -18.1827   24.5511 C   0  0  0  0  0  0  0  0  0  0  0  0
    7.2376  -19.4601   24.9981 N   0  0  0  0  0  0  0  0  0  0  0  0
    6.7217  -20.5353   24.3498 C   0  0  0  0  0  0  0  0  0  0  0  0
    5.9543  -20.3162   23.1807 C   0  0  0  0  0  0  0  0  0  0  0  0
    6.9390  -21.7956   24.8551 O   0  0  0  0  0  0  0  0  0  0  0  0
    6.0111  -22.6305   22.1134 C   0  0  0  0  0  0  0  0  0  0  0  0
    5.3617  -21.3675   22.3700 N   0  0  0  0  0  0  0  0  0  0  0  0
    6.0637  -23.5376   22.9370 O   0  0  0  0  0  0  0  0  0  0  0  0
    4.1488  -21.0296   21.7565 C   0  0  2  0  0  0  0  0  0  0  0  0
    4.3484  -19.7740   20.8693 C   0  0  0  0  0  0  0  0  0  0  0  0
    5.7827  -18.9721   22.7216 C   0  0  0  0  0  0  0  0  0  0  0  0
    4.9926  -18.7035   21.5170 N   0  0  0  0  0  0  0  0  0  0  0  0
    3.0713  -20.7802   22.7924 C   0  0  0  0  0  0  0  0  0  0  0  0
    2.7315  -21.8737   23.6600 N   0  0  0  0  0  0  0  0  0  0  0  0
    4.5374  -22.1328   27.4479 C   0  0  0  0  0  0  0  0  0  0  0  0
    4.8785  -23.0500   26.4634 C   0  0  0  0  0  0  0  0  0  0  0  0
    4.2867  -22.9602   25.2094 C   0  0  0  0  0  0  0  0  0  0  0  0
    3.3480  -21.9645   24.9462 C   0  0  0  0  0  0  0  0  0  0  0  0
    3.0031  -21.0588   25.9343 C   0  0  0  0  0  0  0  0  0  0  0  0
    3.6030  -21.1416   27.1851 C   0  0  0  0  0  0  0  0  0  0  0  0
  1  2  1  0  0  0  0
  2  3  2  0  0  0  0
  2 20  1  0  0  0  0
  4  6  1  0  0  0  0
  5  6  2  0  0  0  0
  5 16  1  0  0  0  0
  6  7  1  0  0  0  0
  7  8  1  0  0  0  0
  8  9  1  0  0  0  0
  8 10  2  0  0  0  0
  9 12  1  0  0  0  0
  9 16  2  0  0  0  0
 11 13  1  0  0  0  0
 11 12  1  0  0  0  0
 12 14  1  0  0  0  0
 14 15  1  0  0  0  0
 14 18  1  1  0  0  0
 15 17  1  0  0  0  0
 16 17  1  0  0  0  0
 18 19  1  0  0  0  0
 19 23  1  0  0  0  0
 20 21  2  0  0  0  0
 20 25  1  0  0  0  0
 21 22  1  0  0  0  0
 22 23  2  0  0  0  0
 23 24  1  0  0  0  0
 24 25  2  0  0  0  0
M  END
>  <CHROM.1>
77.00639760,-60.81793394,95.53276112,-109.47910797,-97.99106265,5.23621738
-20.93378493,24.61637633,1.70504746,0.92068237,1.85574596

>  <Name>
ligand

>  <RI>
0

>  <Rbt.Current_Directory>
/home/itssahil/PROJECTS/Mol_Feturizer/New_Systems/rnas/4LVV

>  <Rbt.Executable>
rbdock ($Id: //depot/dev/client3/rdock/2013.1/src/exe/rbdock.cxx#4 $)

>  <Rbt.Library>
libRbt.so (2013.1, Build901 2013/11/27)

>  <Rbt.Parameter_File>
/export/apps/rDock/src/rDock_2013.1_src/data/scripts/dock_solv.prm

>  <Rbt.Receptor>
prm/pocket_docking_7.prm

>  <SCORE>
-9.08008

>  <SCORE.INTER>
-6.27819

>  <SCORE.INTER.CONST>
1

>  <SCORE.INTER.POLAR>
0

>  <SCORE.INTER.ROT>
5

>  <SCORE.INTER.SOLV>
11.8529

>  <SCORE.INTER.VDW>
-15.0698

>  <SCORE.INTER.norm>
-0.251128

>  <SCORE.INTRA>
-2.80189

>  <SCORE.INTRA.DIHEDRAL>
0.173505

>  <SCORE.INTRA.DIHEDRAL.0>
3.94806

>  <SCORE.INTRA.POLAR>
0

>  <SCORE.INTRA.POLAR.0>
0

>  <SCORE.INTRA.REPUL>
0

>  <SCORE.INTRA.REPUL.0>
0

>  <SCORE.INTRA.SOLV>
1.10578

>  <SCORE.INTRA.SOLV.lig_0>
-70.9803

>  <SCORE.INTRA.VDW>
-3.44154

>  <SCORE.INTRA.VDW.0>
-0.709409

>  <SCORE.INTRA.norm>
-0.112076

>  <SCORE.RESTR>
0

>  <SCORE.RESTR.CAVITY>
0

>  <SCORE.RESTR.norm>
0

>  <SCORE.SYSTEM>
0

>  <SCORE.SYSTEM.CONST>
0

>  <SCORE.SYSTEM.DIHEDRAL>
0

>  <SCORE.SYSTEM.SOLV>
0

>  <SCORE.SYSTEM.norm>
0

>  <SCORE.heavy>
25

>  <SCORE.norm>
-0.363203

>  <RMSD>
5.695

$$$$
ligand
 OpenBabel11021811503D
libRbt.so/2013.1/901 2013/11/27
 25 27  0  0  0  0  0  0  0  0999 V2000
    3.7323  -18.5460   20.1967 N   0  0  0  0  0  0  0  0  0  0  0  0
    4.2923  -19.8596   20.2771 C   0  0  0  0  0  0  0  0  0  0  0  0
    4.8538  -20.3611   19.3110 O   0  0  0  0  0  0  0  0  0  0  0  0
    7.1454  -16.3807   26.3721 N   0  0  0  0  0  0  0  0  0  0  0  0
    6.1975  -18.2921   27.4735 N   0  0  0  0  0  0  0  0  0  0  0  0
    6.1332  -17.3811   26.4751 C   0  0  0  0  0  0  0  0  0  0  0  0
    5.1095  -17.3965   25.5695 N   0  0  0  0  0  0  0  0  0  0  0  0
    4.1159  -18.3199   25.6212 C   0  0  0  0  0  0  0  0  0  0  0  0
    4.1549  -19.2992   26.6426 C   0  0  0  0  0  0  0  0  0  0  0  0
    3.1190  -18.2916   24.6744 O   0  0  0  0  0  0  0  0  0  0  0  0
    1.7388  -20.1121   26.6380 C   0  0  0  0  0  0  0  0  0  0  0  0
    3.1510  -20.3324   26.8379 N   0  0  0  0  0  0  0  0  0  0  0  0
    0.9839  -20.9658   26.1851 O   0  0  0  0  0  0  0  0  0  0  0  0
    3.6388  -21.5440   27.3437 C   0  0  2  0  0  0  0  0  0  0  0  0
    4.3571  -21.2907   28.6940 C   0  0  0  0  0  0  0  0  0  0  0  0
    5.2258  -19.2516   27.5900 C   0  0  0  0  0  0  0  0  0  0  0  0
    5.3031  -20.2495   28.6605 N   0  0  0  0  0  0  0  0  0  0  0  0
    4.5831  -22.1996   26.3564 C   0  0  0  0  0  0  0  0  0  0  0  0
    4.0021  -22.7600   25.1678 N   0  0  0  0  0  0  0  0  0  0  0  0
    4.1956  -20.6022   21.5646 C   0  0  0  0  0  0  0  0  0  0  0  0
    3.1006  -20.4385   22.4019 C   0  0  0  0  0  0  0  0  0  0  0  0
    3.0399  -21.1466   23.5960 C   0  0  0  0  0  0  0  0  0  0  0  0
    4.0647  -22.0243   23.9441 C   0  0  0  0  0  0  0  0  0  0  0  0
    5.1494  -22.1923   23.1011 C   0  0  0  0  0  0  0  0  0  0  0  0
    5.2157  -21.4760   21.9121 C   0  0  0  0  0  0  0  0  0  0  0  0
  1  2  1  0  0  0  0
  2  3  2  0  0  0  0
  2 20  1  0  0  0  0
  4  6  1  0  0  0  0
  5  6  2  0  0  0  0
  5 16  1  0  0  0  0
  6  7  1  0  0  0  0
  7  8  1  0  0  0  0
  8  9  1  0  0  0  0
  8 10  2  0  0  0  0
  9 12  1  0  0  0  0
  9 16  2  0  0  0  0
 11 13  1  0  0  0  0
 11 12  1  0  0  0  0
 12 14  1  0  0  0  0
 14 15  1  0  0  0  0
 14 18  1  6  0  0  0
 15 17  1  0  0  0  0
 16 17  1  0  0  0  0
 18 19  1  0  0  0  0
 19 23  1  0  0  0  0
 20 21  2  0  0  0  0
 20 25  1  0  0  0  0
 21 22  1  0  0  0  0
 22 23  2  0  0  0  0
 23 24  1  0  0  0  0
 24 25  2  0  0  0  0
M  END
>  <CHROM.1>
144.54414367,-71.46577232,100.33799431,-90.80981110,33.04733301,4.23224579
-20.01141901,24.93508294,-1.69016748,1.02462382,1.56024079

>  <Name>
ligand

>  <RI>
0

>  <Rbt.Current_Directory>
/home/itssahil/PROJECTS/Mol_Feturizer/New_Systems/rnas/4LVV

>  <Rbt.Executable>
rbdock ($Id: //depot/dev/client3/rdock/2013.1/src/exe/rbdock.cxx#4 $)

>  <Rbt.Library>
libRbt.so (2013.1, Build901 2013/11/27)

>  <Rbt.Parameter_File>
/export/apps/rDock/src/rDock_2013.1_src/data/scripts/dock_solv.prm

>  <Rbt.Receptor>
prm/pocket_docking_5.prm

>  <SCORE>
-11.6745

>  <SCORE.INTER>
-9.56698

>  <SCORE.INTER.CONST>
1

>  <SCORE.INTER.POLAR>
0

>  <SCORE.INTER.ROT>
5

>  <SCORE.INTER.SOLV>
15.6912

>  <SCORE.INTER.VDW>
-18.5417

>  <SCORE.INTER.norm>
-0.382679

>  <SCORE.INTRA>
-2.10748

>  <SCORE.INTRA.DIHEDRAL>
0.498994

>  <SCORE.INTRA.DIHEDRAL.0>
3.94806

>  <SCORE.INTRA.POLAR>
0

>  <SCORE.INTRA.POLAR.0>
0

>  <SCORE.INTRA.REPUL>
0

>  <SCORE.INTRA.REPUL.0>
0

>  <SCORE.INTRA.SOLV>
0.630508

>  <SCORE.INTRA.SOLV.lig_0>
-70.9803

>  <SCORE.INTRA.VDW>
-2.67223

>  <SCORE.INTRA.VDW.0>
-0.709409

>  <SCORE.INTRA.norm>
-0.0842992

>  <SCORE.RESTR>
0

>  <SCORE.RESTR.CAVITY>
0

>  <SCORE.RESTR.norm>
0

>  <SCORE.SYSTEM>
0

>  <SCORE.SYSTEM.CONST>
0

>  <SCORE.SYSTEM.DIHEDRAL>
0

>  <SCORE.SYSTEM.SOLV>
0

>  <SCORE.SYSTEM.norm>
0

>  <SCORE.heavy>
25

>  <SCORE.norm>
-0.466978

>  <RMSD>
5.867

$$$$
ligand
 OpenBabel11021811503D
libRbt.so/2013.1/901 2013/11/27
 25 27  0  0  0  0  0  0  0  0999 V2000
    4.5722  -22.9057   29.7284 N   0  0  0  0  0  0  0  0  0  0  0  0
    4.6237  -21.4797   29.8239 C   0  0  0  0  0  0  0  0  0  0  0  0
    4.8354  -20.9314   30.8985 O   0  0  0  0  0  0  0  0  0  0  0  0
    8.0000  -24.0523   22.9421 N   0  0  0  0  0  0  0  0  0  0  0  0
    6.3764  -22.4529   22.1864 N   0  0  0  0  0  0  0  0  0  0  0  0
    6.7897  -23.3222   23.1374 C   0  0  0  0  0  0  0  0  0  0  0  0
    6.0622  -23.5206   24.2775 N   0  0  0  0  0  0  0  0  0  0  0  0
    4.9007  -22.8594   24.5150 C   0  0  0  0  0  0  0  0  0  0  0  0
    4.4417  -21.9305   23.5507 C   0  0  0  0  0  0  0  0  0  0  0  0
    4.2193  -23.0926   25.6865 O   0  0  0  0  0  0  0  0  0  0  0  0
    1.9886  -21.7100   24.2077 C   0  0  0  0  0  0  0  0  0  0  0  0
    3.2075  -21.1694   23.6557 N   0  0  0  0  0  0  0  0  0  0  0  0
    0.8779  -21.2563   23.9540 O   0  0  0  0  0  0  0  0  0  0  0  0
    3.2479  -19.8931   23.0802 C   0  0  2  0  0  0  0  0  0  0  0  0
    3.6301  -20.0114   21.5824 C   0  0  0  0  0  0  0  0  0  0  0  0
    5.2101  -21.7535   22.3569 C   0  0  0  0  0  0  0  0  0  0  0  0
    4.7700  -20.7989   21.3359 N   0  0  0  0  0  0  0  0  0  0  0  0
    4.2342  -19.0034   23.8096 C   0  0  0  0  0  0  0  0  0  0  0  0
    3.8137  -18.4546   25.0691 N   0  0  0  0  0  0  0  0  0  0  0  0
    4.4320  -20.6713   28.5876 C   0  0  0  0  0  0  0  0  0  0  0  0
    5.3715  -19.7253   28.2013 C   0  0  0  0  0  0  0  0  0  0  0  0
    5.1637  -18.9879   27.0420 C   0  0  0  0  0  0  0  0  0  0  0  0
    4.0269  -19.2058   26.2661 C   0  0  0  0  0  0  0  0  0  0  0  0
    3.0983  -20.1576   26.6496 C   0  0  0  0  0  0  0  0  0  0  0  0
    3.3003  -20.8874   27.8149 C   0  0  0  0  0  0  0  0  0  0  0  0
  1  2  1  0  0  0  0
  2  3  2  0  0  0  0
  2 20  1  0  0  0  0
  4  6  1  0  0  0  0
  5  6  2  0  0  0  0
  5 16  1  0  0  0  0
  6  7  1  0  0  0  0
  7  8  1  0  0  0  0
  8  9  1  0  0  0  0
  8 10  2  0  0  0  0
  9 12  1  0  0  0  0
  9 16  2  0  0  0  0
 11 13  1  0  0  0  0
 11 12  1  0  0  0  0
 12 14  1  0  0  0  0
 14 15  1  0  0  0  0
 14 18  1  1  0  0  0
 15 17  1  0  0  0  0
 16 17  1  0  0  0  0
 18 19  1  0  0  0  0
 19 23  1  0  0  0  0
 20 21  2  0  0  0  0
 20 25  1  0  0  0  0
 21 22  1  0  0  0  0
 22 23  2  0  0  0  0
 23 24  1  0  0  0  0
 24 25  2  0  0  0  0
M  END
>  <CHROM.1>
-157.68940264,-77.30242148,87.66963309,94.67387945,-125.63182627,4.41615314
-21.23683399,25.18621265,-1.66543535,0.80011534,-1.62182755

>  <Name>
ligand

>  <RI>
0

>  <Rbt.Current_Directory>
/home/itssahil/PROJECTS/Mol_Feturizer/New_Systems/rnas/4LVV

>  <Rbt.Executable>
rbdock ($Id: //depot/dev/client3/rdock/2013.1/src/exe/rbdock.cxx#4 $)

>  <Rbt.Library>
libRbt.so (2013.1, Build901 2013/11/27)

>  <Rbt.Parameter_File>
/export/apps/rDock/src/rDock_2013.1_src/data/scripts/dock_solv.prm

>  <Rbt.Receptor>
prm/pocket_docking_6.prm

>  <SCORE>
-11.8332

>  <SCORE.INTER>
-9.98132

>  <SCORE.INTER.CONST>
1

>  <SCORE.INTER.POLAR>
0

>  <SCORE.INTER.ROT>
5

>  <SCORE.INTER.SOLV>
21.2066

>  <SCORE.INTER.VDW>
-20.6564

>  <SCORE.INTER.norm>
-0.399253

>  <SCORE.INTRA>
-1.85189

>  <SCORE.INTRA.DIHEDRAL>
0.986584

>  <SCORE.INTRA.DIHEDRAL.0>
3.94806

>  <SCORE.INTRA.POLAR>
0

>  <SCORE.INTRA.POLAR.0>
0

>  <SCORE.INTRA.REPUL>
0

>  <SCORE.INTRA.REPUL.0>
0

>  <SCORE.INTRA.SOLV>
0.230224

>  <SCORE.INTRA.SOLV.lig_0>
-70.9803

>  <SCORE.INTRA.VDW>
-2.4603

>  <SCORE.INTRA.VDW.0>
-0.709409

>  <SCORE.INTRA.norm>
-0.0740757

>  <SCORE.RESTR>
0

>  <SCORE.RESTR.CAVITY>
0

>  <SCORE.RESTR.norm>
0

>  <SCORE.SYSTEM>
0

>  <SCORE.SYSTEM.CONST>
0

>  <SCORE.SYSTEM.DIHEDRAL>
0

>  <SCORE.SYSTEM.SOLV>
0

>  <SCORE.SYSTEM.norm>
0

>  <SCORE.heavy>
25

>  <SCORE.norm>
-0.473328

>  <RMSD>
5.878

$$$$
ligand
 OpenBabel11021811503D
libRbt.so/2013.1/901 2013/11/27
 25 27  0  0  0  0  0  0  0  0999 V2000
    3.5801  -18.5325   20.3079 N   0  0  0  0  0  0  0  0  0  0  0  0
    4.1770  -19.8309   20.3641 C   0  0  0  0  0  0  0  0  0  0  0  0
    4.7315  -20.3082   19.3819 O   0  0  0  0  0  0  0  0  0  0  0  0
    7.0806  -16.3279   26.4194 N   0  0  0  0  0  0  0  0  0  0  0  0
    6.1920  -18.2643   27.5266 N   0  0  0  0  0  0  0  0  0  0  0  0
    6.0935  -17.3522   26.5320 C   0  0  0  0  0  0  0  0  0  0  0  0
    5.0589  -17.3890   25.6395 N   0  0  0  0  0  0  0  0  0  0  0  0
    4.0880  -18.3356   25.7009 C   0  0  0  0  0  0  0  0  0  0  0  0
    4.1630  -19.3166   26.7185 C   0  0  0  0  0  0  0  0  0  0  0  0
    3.0787  -18.3279   24.7669 O   0  0  0  0  0  0  0  0  0  0  0  0
    1.7668  -20.1861   26.7420 C   0  0  0  0  0  0  0  0  0  0  0  0
    3.1862  -20.3737   26.9232 N   0  0  0  0  0  0  0  0  0  0  0  0
    1.0748  -20.9265   26.0516 O   0  0  0  0  0  0  0  0  0  0  0  0
    3.7087  -21.5750   27.4188 C   0  0  2  0  0  0  0  0  0  0  0  0
    4.4382  -21.3089   28.7607 C   0  0  0  0  0  0  0  0  0  0  0  0
    5.2446  -19.2467   27.6523 C   0  0  0  0  0  0  0  0  0  0  0  0
    5.3590  -20.2457   28.7184 N   0  0  0  0  0  0  0  0  0  0  0  0
    4.6554  -22.2054   26.4174 C   0  0  0  0  0  0  0  0  0  0  0  0
    4.0724  -22.7768   25.2351 N   0  0  0  0  0  0  0  0  0  0  0  0
    4.1273  -20.5875   21.6462 C   0  0  0  0  0  0  0  0  0  0  0  0
    3.0083  -20.5298   22.4655 C   0  0  0  0  0  0  0  0  0  0  0  0
    2.9930  -21.2480   23.6550 C   0  0  0  0  0  0  0  0  0  0  0  0
    4.0878  -22.0307   24.0162 C   0  0  0  0  0  0  0  0  0  0  0  0
    5.1969  -22.0936   23.1909 C   0  0  0  0  0  0  0  0  0  0  0  0
    5.2171  -21.3667   22.0067 C   0  0  0  0  0  0  0  0  0  0  0  0
  1  2  1  0  0  0  0
  2  3  2  0  0  0  0
  2 20  1  0  0  0  0
  4  6  1  0  0  0  0
  5  6  2  0  0  0  0
  5 16  1  0  0  0  0
  6  7  1  0  0  0  0
  7  8  1  0  0  0  0
  8  9  1  0  0  0  0
  8 10  2  0  0  0  0
  9 12  1  0  0  0  0
  9 16  2  0  0  0  0
 11 13  1  0  0  0  0
 11 12  1  0  0  0  0
 12 14  1  0  0  0  0
 14 15  1  0  0  0  0
 14 18  1  6  0  0  0
 15 17  1  0  0  0  0
 16 17  1  0  0  0  0
 18 19  1  0  0  0  0
 19 23  1  0  0  0  0
 20 21  2  0  0  0  0
 20 25  1  0  0  0  0
 21 22  1  0  0  0  0
 22 23  2  0  0  0  0
 23 24  1  0  0  0  0
 24 25  2  0  0  0  0
M  END
>  <CHROM.1>
128.81955970,-71.52105212,99.63833176,-94.64736096,37.31624151,4.22397213
-20.01016983,24.99953523,-1.75294080,1.04943997,1.61590956

>  <Name>
ligand

>  <RI>
0

>  <Rbt.Current_Directory>
/home/itssahil/PROJECTS/Mol_Feturizer/New_Systems/rnas/4LVV

>  <Rbt.Executable>
rbdock ($Id: //depot/dev/client3/rdock/2013.1/src/exe/rbdock.cxx#4 $)

>  <Rbt.Library>
libRbt.so (2013.1, Build901 2013/11/27)

>  <Rbt.Parameter_File>
/export/apps/rDock/src/rDock_2013.1_src/data/scripts/dock_solv.prm

>  <Rbt.Receptor>
prm/pocket_docking_5.prm

>  <SCORE>
-11.7215

>  <SCORE.INTER>
-9.56488

>  <SCORE.INTER.CONST>
1

>  <SCORE.INTER.POLAR>
0

>  <SCORE.INTER.ROT>
5

>  <SCORE.INTER.SOLV>
16.1864

>  <SCORE.INTER.VDW>
-18.7054

>  <SCORE.INTER.norm>
-0.382595

>  <SCORE.INTRA>
-2.15664

>  <SCORE.INTRA.DIHEDRAL>
0.583574

>  <SCORE.INTRA.DIHEDRAL.0>
3.94806

>  <SCORE.INTRA.POLAR>
0

>  <SCORE.INTRA.POLAR.0>
0

>  <SCORE.INTRA.REPUL>
0

>  <SCORE.INTRA.REPUL.0>
0

>  <SCORE.INTRA.SOLV>
0.694705

>  <SCORE.INTRA.SOLV.lig_0>
-70.9803

>  <SCORE.INTRA.VDW>
-2.79578

>  <SCORE.INTRA.VDW.0>
-0.709409

>  <SCORE.INTRA.norm>
-0.0862658

>  <SCORE.RESTR>
0

>  <SCORE.RESTR.CAVITY>
0

>  <SCORE.RESTR.norm>
0

>  <SCORE.SYSTEM>
0

>  <SCORE.SYSTEM.CONST>
0

>  <SCORE.SYSTEM.DIHEDRAL>
0

>  <SCORE.SYSTEM.SOLV>
0

>  <SCORE.SYSTEM.norm>
0

>  <SCORE.heavy>
25

>  <SCORE.norm>
-0.468861

>  <RMSD>
5.883

$$$$
ligand
 OpenBabel11021811503D
libRbt.so/2013.1/901 2013/11/27
 25 27  0  0  0  0  0  0  0  0999 V2000
    5.0474  -21.6680   20.8202 N   0  0  0  0  0  0  0  0  0  0  0  0
    5.7704  -22.5363   21.6969 C   0  0  0  0  0  0  0  0  0  0  0  0
    6.7322  -23.1767   21.2910 O   0  0  0  0  0  0  0  0  0  0  0  0
   10.2468  -20.1219   25.4767 N   0  0  0  0  0  0  0  0  0  0  0  0
    8.6949  -20.3018   27.3000 N   0  0  0  0  0  0  0  0  0  0  0  0
    8.9106  -20.1151   25.9774 C   0  0  0  0  0  0  0  0  0  0  0  0
    7.8709  -19.9098   25.1140 N   0  0  0  0  0  0  0  0  0  0  0  0
    6.5801  -19.8870   25.5334 C   0  0  0  0  0  0  0  0  0  0  0  0
    6.3117  -20.0927   26.9079 C   0  0  0  0  0  0  0  0  0  0  0  0
    5.5761  -19.6879   24.6151 O   0  0  0  0  0  0  0  0  0  0  0  0
    3.9472  -19.1581   27.0932 C   0  0  0  0  0  0  0  0  0  0  0  0
    4.9864  -20.0709   27.5051 N   0  0  0  0  0  0  0  0  0  0  0  0
    2.7893  -19.5070   26.8901 O   0  0  0  0  0  0  0  0  0  0  0  0
    4.8138  -20.9333   28.5952 C   0  0  2  0  0  0  0  0  0  0  0  0
    5.8563  -20.5973   29.6925 C   0  0  0  0  0  0  0  0  0  0  0  0
    7.4170  -20.2867   27.7953 C   0  0  0  0  0  0  0  0  0  0  0  0
    7.1804  -20.5059   29.2248 N   0  0  0  0  0  0  0  0  0  0  0  0
    4.9457  -22.3802   28.1647 C   0  0  0  0  0  0  0  0  0  0  0  0
    4.0686  -22.8356   27.1219 N   0  0  0  0  0  0  0  0  0  0  0  0
    5.3428  -22.6353   23.1203 C   0  0  0  0  0  0  0  0  0  0  0  0
    6.0728  -23.3831   24.0339 C   0  0  0  0  0  0  0  0  0  0  0  0
    5.6478  -23.4548   25.3550 C   0  0  0  0  0  0  0  0  0  0  0  0
    4.5044  -22.7704   25.7623 C   0  0  0  0  0  0  0  0  0  0  0  0
    3.7858  -22.0174   24.8502 C   0  0  0  0  0  0  0  0  0  0  0  0
    4.2043  -21.9545   23.5265 C   0  0  0  0  0  0  0  0  0  0  0  0
  1  2  1  0  0  0  0
  2  3  2  0  0  0  0
  2 20  1  0  0  0  0
  4  6  1  0  0  0  0
  5  6  2  0  0  0  0
  5 16  1  0  0  0  0
  6  7  1  0  0  0  0
  7  8  1  0  0  0  0
  8  9  1  0  0  0  0
  8 10  2  0  0  0  0
  9 12  1  0  0  0  0
  9 16  2  0  0  0  0
 11 13  1  0  0  0  0
 11 12  1  0  0  0  0
 12 14  1  0  0  0  0
 14 15  1  0  0  0  0
 14 18  1  6  0  0  0
 15 17  1  0  0  0  0
 16 17  1  0  0  0  0
 18 19  1  0  0  0  0
 19 23  1  0  0  0  0
 20 21  2  0  0  0  0
 20 25  1  0  0  0  0
 21 22  1  0  0  0  0
 22 23  2  0  0  0  0
 23 24  1  0  0  0  0
 24 25  2  0  0  0  0
M  END
>  <CHROM.1>
134.24603386,-56.69534272,92.21894736,59.56997005,-175.00665743,5.88133878
-21.15730525,25.75541829,1.63442221,-0.24749524,-1.89093296

>  <Name>
ligand

>  <RI>
0

>  <Rbt.Current_Directory>
/home/itssahil/PROJECTS/Mol_Feturizer/New_Systems/rnas/4LVV

>  <Rbt.Executable>
rbdock ($Id: //depot/dev/client3/rdock/2013.1/src/exe/rbdock.cxx#4 $)

>  <Rbt.Library>
libRbt.so (2013.1, Build901 2013/11/27)

>  <Rbt.Parameter_File>
/export/apps/rDock/src/rDock_2013.1_src/data/scripts/dock_solv.prm

>  <Rbt.Receptor>
prm/pocket_docking_6.prm

>  <SCORE>
-9.84273

>  <SCORE.INTER>
-7.06822

>  <SCORE.INTER.CONST>
1

>  <SCORE.INTER.POLAR>
0

>  <SCORE.INTER.ROT>
5

>  <SCORE.INTER.SOLV>
10.3642

>  <SCORE.INTER.VDW>
-15.1002

>  <SCORE.INTER.norm>
-0.282729

>  <SCORE.INTRA>
-2.77452

>  <SCORE.INTRA.DIHEDRAL>
-0.0675737

>  <SCORE.INTRA.DIHEDRAL.0>
3.94806

>  <SCORE.INTRA.POLAR>
0

>  <SCORE.INTRA.POLAR.0>
0

>  <SCORE.INTRA.REPUL>
0

>  <SCORE.INTRA.REPUL.0>
0

>  <SCORE.INTRA.SOLV>
1.2047

>  <SCORE.INTRA.SOLV.lig_0>
-70.9803

>  <SCORE.INTRA.VDW>
-3.34308

>  <SCORE.INTRA.VDW.0>
-0.709409

>  <SCORE.INTRA.norm>
-0.110981

>  <SCORE.RESTR>
0

>  <SCORE.RESTR.CAVITY>
0

>  <SCORE.RESTR.norm>
0

>  <SCORE.SYSTEM>
0

>  <SCORE.SYSTEM.CONST>
0

>  <SCORE.SYSTEM.DIHEDRAL>
0

>  <SCORE.SYSTEM.SOLV>
0

>  <SCORE.SYSTEM.norm>
0

>  <SCORE.heavy>
25

>  <SCORE.norm>
-0.393709

>  <RMSD>
5.897

$$$$
ligand
 OpenBabel11021811503D
libRbt.so/2013.1/901 2013/11/27
 25 27  0  0  0  0  0  0  0  0999 V2000
    6.3466  -21.6801   29.0566 N   0  0  0  0  0  0  0  0  0  0  0  0
    5.0842  -22.2945   28.7844 C   0  0  0  0  0  0  0  0  0  0  0  0
    4.4667  -22.8752   29.6685 O   0  0  0  0  0  0  0  0  0  0  0  0
    8.2795  -17.2618   24.4880 N   0  0  0  0  0  0  0  0  0  0  0  0
    7.0496  -18.4485   22.8015 N   0  0  0  0  0  0  0  0  0  0  0  0
    7.6363  -18.4468   24.0208 C   0  0  0  0  0  0  0  0  0  0  0  0
    7.6324  -19.5640   24.8083 N   0  0  0  0  0  0  0  0  0  0  0  0
    7.0418  -20.7209   24.4143 C   0  0  0  0  0  0  0  0  0  0  0  0
    6.4045  -20.7591   23.1510 C   0  0  0  0  0  0  0  0  0  0  0  0
    7.0602  -21.8082   25.2560 O   0  0  0  0  0  0  0  0  0  0  0  0
    6.2612  -23.2720   22.7474 C   0  0  0  0  0  0  0  0  0  0  0  0
    5.7541  -21.9304   22.5866 N   0  0  0  0  0  0  0  0  0  0  0  0
    6.8169  -23.8918   21.8469 O   0  0  0  0  0  0  0  0  0  0  0  0
    4.6458  -21.6588   21.7744 C   0  0  2  0  0  0  0  0  0  0  0  0
    5.0700  -20.7216   20.6146 C   0  0  0  0  0  0  0  0  0  0  0  0
    6.4379  -19.5834   22.3365 C   0  0  0  0  0  0  0  0  0  0  0  0
    5.7870  -19.5818   21.0235 N   0  0  0  0  0  0  0  0  0  0  0  0
    3.5272  -21.0305   22.5807 C   0  0  0  0  0  0  0  0  0  0  0  0
    2.8754  -21.8617   23.5546 N   0  0  0  0  0  0  0  0  0  0  0  0
    4.5237  -22.2007   27.4075 C   0  0  0  0  0  0  0  0  0  0  0  0
    4.8160  -23.1636   26.4514 C   0  0  0  0  0  0  0  0  0  0  0  0
    4.2767  -23.0478   25.1760 C   0  0  0  0  0  0  0  0  0  0  0  0
    3.4381  -21.9799   24.8631 C   0  0  0  0  0  0  0  0  0  0  0  0
    3.1408  -21.0281   25.8228 C   0  0  0  0  0  0  0  0  0  0  0  0
    3.6890  -21.1375   27.0951 C   0  0  0  0  0  0  0  0  0  0  0  0
  1  2  1  0  0  0  0
  2  3  2  0  0  0  0
  2 20  1  0  0  0  0
  4  6  1  0  0  0  0
  5  6  2  0  0  0  0
  5 16  1  0  0  0  0
  6  7  1  0  0  0  0
  7  8  1  0  0  0  0
  8  9  1  0  0  0  0
  8 10  2  0  0  0  0
  9 12  1  0  0  0  0
  9 16  2  0  0  0  0
 11 13  1  0  0  0  0
 11 12  1  0  0  0  0
 12 14  1  0  0  0  0
 14 15  1  0  0  0  0
 14 18  1  1  0  0  0
 15 17  1  0  0  0  0
 16 17  1  0  0  0  0
 18 19  1  0  0  0  0
 19 23  1  0  0  0  0
 20 21  2  0  0  0  0
 20 25  1  0  0  0  0
 21 22  1  0  0  0  0
 22 23  2  0  0  0  0
 23 24  1  0  0  0  0
 24 25  2  0  0  0  0
M  END
>  <CHROM.1>
-105.69627606,-68.22626318,85.48900249,-95.70646708,89.69915569,5.56108311
-21.21937133,24.46004467,-1.91794165,-0.84548840,-1.51536192

>  <Name>
ligand

>  <RI>
0

>  <Rbt.Current_Directory>
/home/itssahil/PROJECTS/Mol_Feturizer/New_Systems/rnas/4LVV

>  <Rbt.Executable>
rbdock ($Id: //depot/dev/client3/rdock/2013.1/src/exe/rbdock.cxx#4 $)

>  <Rbt.Library>
libRbt.so (2013.1, Build901 2013/11/27)

>  <Rbt.Parameter_File>
/export/apps/rDock/src/rDock_2013.1_src/data/scripts/dock_solv.prm

>  <Rbt.Receptor>
prm/pocket_docking_6.prm

>  <SCORE>
-9.8625

>  <SCORE.INTER>
-6.93917

>  <SCORE.INTER.CONST>
1

>  <SCORE.INTER.POLAR>
0

>  <SCORE.INTER.ROT>
5

>  <SCORE.INTER.SOLV>
10.7915

>  <SCORE.INTER.VDW>
-15.1566

>  <SCORE.INTER.norm>
-0.277567

>  <SCORE.INTRA>
-2.92333

>  <SCORE.INTRA.DIHEDRAL>
-0.0585116

>  <SCORE.INTRA.DIHEDRAL.0>
3.94806

>  <SCORE.INTRA.POLAR>
0

>  <SCORE.INTRA.POLAR.0>
0

>  <SCORE.INTRA.REPUL>
0

>  <SCORE.INTRA.REPUL.0>
0

>  <SCORE.INTRA.SOLV>
0.588581

>  <SCORE.INTRA.SOLV.lig_0>
-70.9803

>  <SCORE.INTRA.VDW>
-3.18837

>  <SCORE.INTRA.VDW.0>
-0.709409

>  <SCORE.INTRA.norm>
-0.116933

>  <SCORE.RESTR>
0

>  <SCORE.RESTR.CAVITY>
0

>  <SCORE.RESTR.norm>
0

>  <SCORE.SYSTEM>
0

>  <SCORE.SYSTEM.CONST>
0

>  <SCORE.SYSTEM.DIHEDRAL>
0

>  <SCORE.SYSTEM.SOLV>
0

>  <SCORE.SYSTEM.norm>
0

>  <SCORE.heavy>
25

>  <SCORE.norm>
-0.3945

>  <RMSD>
5.898

$$$$
ligand
 OpenBabel11021811503D
libRbt.so/2013.1/901 2013/11/27
 25 27  0  0  0  0  0  0  0  0999 V2000
    5.7951  -21.2077   21.0414 N   0  0  0  0  0  0  0  0  0  0  0  0
    5.7466  -22.5072   21.6366 C   0  0  0  0  0  0  0  0  0  0  0  0
    6.0451  -23.5036   20.9900 O   0  0  0  0  0  0  0  0  0  0  0  0
   10.2611  -19.9185   25.5426 N   0  0  0  0  0  0  0  0  0  0  0  0
    8.6981  -20.1952   27.3442 N   0  0  0  0  0  0  0  0  0  0  0  0
    8.9205  -19.9680   26.0290 C   0  0  0  0  0  0  0  0  0  0  0  0
    7.8832  -19.7749   25.1601 N   0  0  0  0  0  0  0  0  0  0  0  0
    6.5883  -19.8048   25.5661 C   0  0  0  0  0  0  0  0  0  0  0  0
    6.3133  -20.0540   26.9321 C   0  0  0  0  0  0  0  0  0  0  0  0
    5.5874  -19.6154   24.6424 O   0  0  0  0  0  0  0  0  0  0  0  0
    3.9177  -19.2020   27.1155 C   0  0  0  0  0  0  0  0  0  0  0  0
    4.9822  -20.0906   27.5155 N   0  0  0  0  0  0  0  0  0  0  0  0
    2.7487  -19.5582   27.0139 O   0  0  0  0  0  0  0  0  0  0  0  0
    4.8273  -20.9855   28.5818 C   0  0  2  0  0  0  0  0  0  0  0  0
    5.8474  -20.6437   29.6981 C   0  0  0  0  0  0  0  0  0  0  0  0
    7.4156  -20.2344   27.8260 C   0  0  0  0  0  0  0  0  0  0  0  0
    7.1723  -20.4974   29.2470 N   0  0  0  0  0  0  0  0  0  0  0  0
    5.0110  -22.4159   28.1165 C   0  0  0  0  0  0  0  0  0  0  0  0
    4.1309  -22.8864   27.0829 N   0  0  0  0  0  0  0  0  0  0  0  0
    5.3425  -22.6264   23.0653 C   0  0  0  0  0  0  0  0  0  0  0  0
    6.1155  -23.3439   23.9677 C   0  0  0  0  0  0  0  0  0  0  0  0
    5.7114  -23.4355   25.2941 C   0  0  0  0  0  0  0  0  0  0  0  0
    4.5455  -22.8008   25.7178 C   0  0  0  0  0  0  0  0  0  0  0  0
    3.7837  -22.0775   24.8168 C   0  0  0  0  0  0  0  0  0  0  0  0
    4.1816  -21.9949   23.4879 C   0  0  0  0  0  0  0  0  0  0  0  0
  1  2  1  0  0  0  0
  2  3  2  0  0  0  0
  2 20  1  0  0  0  0
  4  6  1  0  0  0  0
  5  6  2  0  0  0  0
  5 16  1  0  0  0  0
  6  7  1  0  0  0  0
  7  8  1  0  0  0  0
  8  9  1  0  0  0  0
  8 10  2  0  0  0  0
  9 12  1  0  0  0  0
  9 16  2  0  0  0  0
 11 13  1  0  0  0  0
 11 12  1  0  0  0  0
 12 14  1  0  0  0  0
 14 15  1  0  0  0  0
 14 18  1  6  0  0  0
 15 17  1  0  0  0  0
 16 17  1  0  0  0  0
 18 19  1  0  0  0  0
 19 23  1  0  0  0  0
 20 21  2  0  0  0  0
 20 25  1  0  0  0  0
 21 22  1  0  0  0  0
 22 23  2  0  0  0  0
 23 24  1  0  0  0  0
 24 25  2  0  0  0  0
M  END
>  <CHROM.1>
141.37419380,-58.63145863,93.59106075,58.55201460,-129.08825871,5.88759735
-21.13357999,25.75452124,-1.65428815,0.32051763,1.25041915

>  <Name>
ligand

>  <RI>
0

>  <Rbt.Current_Directory>
/home/itssahil/PROJECTS/Mol_Feturizer/New_Systems/rnas/4LVV

>  <Rbt.Executable>
rbdock ($Id: //depot/dev/client3/rdock/2013.1/src/exe/rbdock.cxx#4 $)

>  <Rbt.Library>
libRbt.so (2013.1, Build901 2013/11/27)

>  <Rbt.Parameter_File>
/export/apps/rDock/src/rDock_2013.1_src/data/scripts/dock_solv.prm

>  <Rbt.Receptor>
prm/pocket_docking_5.prm

>  <SCORE>
-10.2536

>  <SCORE.INTER>
-7.27029

>  <SCORE.INTER.CONST>
1

>  <SCORE.INTER.POLAR>
0

>  <SCORE.INTER.ROT>
5

>  <SCORE.INTER.SOLV>
10.1812

>  <SCORE.INTER.VDW>
-15.1739

>  <SCORE.INTER.norm>
-0.290812

>  <SCORE.INTRA>
-2.98327

>  <SCORE.INTRA.DIHEDRAL>
-0.0933178

>  <SCORE.INTRA.DIHEDRAL.0>
3.94806

>  <SCORE.INTRA.POLAR>
0

>  <SCORE.INTRA.POLAR.0>
0

>  <SCORE.INTRA.REPUL>
0

>  <SCORE.INTRA.REPUL.0>
0

>  <SCORE.INTRA.SOLV>
1.14112

>  <SCORE.INTRA.SOLV.lig_0>
-70.9803

>  <SCORE.INTRA.VDW>
-3.50717

>  <SCORE.INTRA.VDW.0>
-0.709409

>  <SCORE.INTRA.norm>
-0.119331

>  <SCORE.RESTR>
0

>  <SCORE.RESTR.CAVITY>
0

>  <SCORE.RESTR.norm>
0

>  <SCORE.SYSTEM>
0

>  <SCORE.SYSTEM.CONST>
0

>  <SCORE.SYSTEM.DIHEDRAL>
0

>  <SCORE.SYSTEM.SOLV>
0

>  <SCORE.SYSTEM.norm>
0

>  <SCORE.heavy>
25

>  <SCORE.norm>
-0.410142

>  <RMSD>
5.900

$$$$
ligand
 OpenBabel11021811503D
libRbt.so/2013.1/901 2013/11/27
 25 27  0  0  0  0  0  0  0  0999 V2000
    4.9807  -20.2494   19.2465 N   0  0  0  0  0  0  0  0  0  0  0  0
    4.1859  -19.7775   20.3377 C   0  0  0  0  0  0  0  0  0  0  0  0
    3.5255  -18.7512   20.2336 O   0  0  0  0  0  0  0  0  0  0  0  0
    7.1526  -16.3467   26.4608 N   0  0  0  0  0  0  0  0  0  0  0  0
    6.2118  -18.2727   27.5427 N   0  0  0  0  0  0  0  0  0  0  0  0
    6.1426  -17.3502   26.5552 C   0  0  0  0  0  0  0  0  0  0  0  0
    5.1161  -17.3570   25.6527 N   0  0  0  0  0  0  0  0  0  0  0  0
    4.1244  -18.2828   25.6967 C   0  0  0  0  0  0  0  0  0  0  0  0
    4.1684  -19.2739   26.7064 C   0  0  0  0  0  0  0  0  0  0  0  0
    3.1245  -18.2454   24.7534 O   0  0  0  0  0  0  0  0  0  0  0  0
    1.7539  -20.0914   26.6998 C   0  0  0  0  0  0  0  0  0  0  0  0
    3.1671  -20.3112   26.8928 N   0  0  0  0  0  0  0  0  0  0  0  0
    1.0293  -20.8744   26.0951 O   0  0  0  0  0  0  0  0  0  0  0  0
    3.6588  -21.5277   27.3828 C   0  0  2  0  0  0  0  0  0  0  0  0
    4.3809  -21.2889   28.7337 C   0  0  0  0  0  0  0  0  0  0  0  0
    5.2422  -19.2353   27.6510 C   0  0  0  0  0  0  0  0  0  0  0  0
    5.3249  -20.2455   28.7094 N   0  0  0  0  0  0  0  0  0  0  0  0
    4.6012  -22.1699   26.3849 C   0  0  0  0  0  0  0  0  0  0  0  0
    4.0155  -22.7340   25.2005 N   0  0  0  0  0  0  0  0  0  0  0  0
    4.1616  -20.5670   21.6006 C   0  0  0  0  0  0  0  0  0  0  0  0
    5.1849  -21.4534   21.9073 C   0  0  0  0  0  0  0  0  0  0  0  0
    5.1331  -22.1746   23.0939 C   0  0  0  0  0  0  0  0  0  0  0  0
    4.0682  -21.9996   23.9755 C   0  0  0  0  0  0  0  0  0  0  0  0
    3.0557  -21.1068   23.6704 C   0  0  0  0  0  0  0  0  0  0  0  0
    3.1015  -20.3936   22.4786 C   0  0  0  0  0  0  0  0  0  0  0  0
  1  2  1  0  0  0  0
  2  3  2  0  0  0  0
  2 20  1  0  0  0  0
  4  6  1  0  0  0  0
  5  6  2  0  0  0  0
  5 16  1  0  0  0  0
  6  7  1  0  0  0  0
  7  8  1  0  0  0  0
  8  9  1  0  0  0  0
  8 10  2  0  0  0  0
  9 12  1  0  0  0  0
  9 16  2  0  0  0  0
 11 13  1  0  0  0  0
 11 12  1  0  0  0  0
 12 14  1  0  0  0  0
 14 15  1  0  0  0  0
 14 18  1  6  0  0  0
 15 17  1  0  0  0  0
 16 17  1  0  0  0  0
 18 19  1  0  0  0  0
 19 23  1  0  0  0  0
 20 21  2  0  0  0  0
 20 25  1  0  0  0  0
 21 22  1  0  0  0  0
 22 23  2  0  0  0  0
 23 24  1  0  0  0  0
 24 25  2  0  0  0  0
M  END
>  <CHROM.1>
135.50530265,-72.30932059,100.87121604,90.87755684,21.67455378,4.22559902
-19.97665073,24.98151677,-1.73330889,1.03113197,1.59518269

>  <Name>
ligand

>  <RI>
0

>  <Rbt.Current_Directory>
/home/itssahil/PROJECTS/Mol_Feturizer/New_Systems/rnas/4LVV

>  <Rbt.Executable>
rbdock ($Id: //depot/dev/client3/rdock/2013.1/src/exe/rbdock.cxx#4 $)

>  <Rbt.Library>
libRbt.so (2013.1, Build901 2013/11/27)

>  <Rbt.Parameter_File>
/export/apps/rDock/src/rDock_2013.1_src/data/scripts/dock_solv.prm

>  <Rbt.Receptor>
prm/pocket_docking_6.prm

>  <SCORE>
-11.3842

>  <SCORE.INTER>
-9.42221

>  <SCORE.INTER.CONST>
1

>  <SCORE.INTER.POLAR>
0

>  <SCORE.INTER.ROT>
5

>  <SCORE.INTER.SOLV>
16.2865

>  <SCORE.INTER.VDW>
-18.6436

>  <SCORE.INTER.norm>
-0.376888

>  <SCORE.INTRA>
-1.96195

>  <SCORE.INTRA.DIHEDRAL>
0.625931

>  <SCORE.INTRA.DIHEDRAL.0>
3.94806

>  <SCORE.INTRA.POLAR>
0

>  <SCORE.INTRA.POLAR.0>
0

>  <SCORE.INTRA.REPUL>
0

>  <SCORE.INTRA.REPUL.0>
0

>  <SCORE.INTRA.SOLV>
0.672416

>  <SCORE.INTRA.SOLV.lig_0>
-70.9803

>  <SCORE.INTRA.VDW>
-2.61113

>  <SCORE.INTRA.VDW.0>
-0.709409

>  <SCORE.INTRA.norm>
-0.0784781

>  <SCORE.RESTR>
0

>  <SCORE.RESTR.CAVITY>
0

>  <SCORE.RESTR.norm>
0

>  <SCORE.SYSTEM>
0

>  <SCORE.SYSTEM.CONST>
0

>  <SCORE.SYSTEM.DIHEDRAL>
0

>  <SCORE.SYSTEM.SOLV>
0

>  <SCORE.SYSTEM.norm>
0

>  <SCORE.heavy>
25

>  <SCORE.norm>
-0.455367

>  <RMSD>
5.900

$$$$
ligand
 OpenBabel11021811503D
libRbt.so/2013.1/901 2013/11/27
 25 27  0  0  0  0  0  0  0  0999 V2000
    4.5407  -22.9226   29.6081 N   0  0  0  0  0  0  0  0  0  0  0  0
    4.5638  -21.4975   29.7270 C   0  0  0  0  0  0  0  0  0  0  0  0
    4.7463  -20.9627   30.8136 O   0  0  0  0  0  0  0  0  0  0  0  0
    8.0647  -23.8917   22.7850 N   0  0  0  0  0  0  0  0  0  0  0  0
    6.4087  -22.3112   22.0605 N   0  0  0  0  0  0  0  0  0  0  0  0
    6.8411  -23.1885   22.9955 C   0  0  0  0  0  0  0  0  0  0  0  0
    6.1205  -23.4203   24.1337 N   0  0  0  0  0  0  0  0  0  0  0  0
    4.9472  -22.7857   24.3852 C   0  0  0  0  0  0  0  0  0  0  0  0
    4.4679  -21.8495   23.4379 C   0  0  0  0  0  0  0  0  0  0  0  0
    4.2735  -23.0520   25.5540 O   0  0  0  0  0  0  0  0  0  0  0  0
    2.0127  -21.6875   24.1043 C   0  0  0  0  0  0  0  0  0  0  0  0
    3.2196  -21.1142   23.5588 N   0  0  0  0  0  0  0  0  0  0  0  0
    0.8984  -21.2122   23.9139 O   0  0  0  0  0  0  0  0  0  0  0  0
    3.2340  -19.8278   23.0051 C   0  0  2  0  0  0  0  0  0  0  0  0
    3.6143  -19.9131   21.5046 C   0  0  0  0  0  0  0  0  0  0  0  0
    5.2297  -21.6374   22.2456 C   0  0  0  0  0  0  0  0  0  0  0  0
    4.7685  -20.6742   21.2420 N   0  0  0  0  0  0  0  0  0  0  0  0
    4.2048  -18.9318   23.7473 C   0  0  0  0  0  0  0  0  0  0  0  0
    3.7734  -18.4049   25.0124 N   0  0  0  0  0  0  0  0  0  0  0  0
    4.3788  -20.6731   28.5003 C   0  0  0  0  0  0  0  0  0  0  0  0
    5.3686  -19.7990   28.0725 C   0  0  0  0  0  0  0  0  0  0  0  0
    5.1657  -19.0444   26.9235 C   0  0  0  0  0  0  0  0  0  0  0  0
    3.9825  -19.1738   26.1989 C   0  0  0  0  0  0  0  0  0  0  0  0
    3.0029  -20.0545   26.6234 C   0  0  0  0  0  0  0  0  0  0  0  0
    3.2009  -20.8011   27.7786 C   0  0  0  0  0  0  0  0  0  0  0  0
  1  2  1  0  0  0  0
  2  3  2  0  0  0  0
  2 20  1  0  0  0  0
  4  6  1  0  0  0  0
  5  6  2  0  0  0  0
  5 16  1  0  0  0  0
  6  7  1  0  0  0  0
  7  8  1  0  0  0  0
  8  9  1  0  0  0  0
  8 10  2  0  0  0  0
  9 12  1  0  0  0  0
  9 16  2  0  0  0  0
 11 13  1  0  0  0  0
 11 12  1  0  0  0  0
 12 14  1  0  0  0  0
 14 15  1  0  0  0  0
 14 18  1  1  0  0  0
 15 17  1  0  0  0  0
 16 17  1  0  0  0  0
 18 19  1  0  0  0  0
 19 23  1  0  0  0  0
 20 21  2  0  0  0  0
 20 25  1  0  0  0  0
 21 22  1  0  0  0  0
 22 23  2  0  0  0  0
 23 24  1  0  0  0  0
 24 25  2  0  0  0  0
M  END
>  <CHROM.1>
-161.36932019,-77.74150131,86.97279905,89.17470617,-119.13427906,4.41042629
-21.18060743,25.08918928,-1.69314662,0.77767357,-1.58842063

>  <Name>
ligand

>  <RI>
0

>  <Rbt.Current_Directory>
/home/itssahil/PROJECTS/Mol_Feturizer/New_Systems/rnas/4LVV

>  <Rbt.Executable>
rbdock ($Id: //depot/dev/client3/rdock/2013.1/src/exe/rbdock.cxx#4 $)

>  <Rbt.Library>
libRbt.so (2013.1, Build901 2013/11/27)

>  <Rbt.Parameter_File>
/export/apps/rDock/src/rDock_2013.1_src/data/scripts/dock_solv.prm

>  <Rbt.Receptor>
prm/pocket_docking_6.prm

>  <SCORE>
-12.018

>  <SCORE.INTER>
-10.0949

>  <SCORE.INTER.CONST>
1

>  <SCORE.INTER.POLAR>
0

>  <SCORE.INTER.ROT>
5

>  <SCORE.INTER.SOLV>
20.0561

>  <SCORE.INTER.VDW>
-20.3486

>  <SCORE.INTER.norm>
-0.403794

>  <SCORE.INTRA>
-1.92315

>  <SCORE.INTRA.DIHEDRAL>
0.984684

>  <SCORE.INTRA.DIHEDRAL.0>
3.94806

>  <SCORE.INTRA.POLAR>
0

>  <SCORE.INTRA.POLAR.0>
0

>  <SCORE.INTRA.REPUL>
0

>  <SCORE.INTRA.REPUL.0>
0

>  <SCORE.INTRA.SOLV>
0.205079

>  <SCORE.INTRA.SOLV.lig_0>
-70.9803

>  <SCORE.INTRA.VDW>
-2.51803

>  <SCORE.INTRA.VDW.0>
-0.709409

>  <SCORE.INTRA.norm>
-0.0769259

>  <SCORE.RESTR>
0

>  <SCORE.RESTR.CAVITY>
0

>  <SCORE.RESTR.norm>
0

>  <SCORE.SYSTEM>
0

>  <SCORE.SYSTEM.CONST>
0

>  <SCORE.SYSTEM.DIHEDRAL>
0

>  <SCORE.SYSTEM.SOLV>
0

>  <SCORE.SYSTEM.norm>
0

>  <SCORE.heavy>
25

>  <SCORE.norm>
-0.48072

>  <RMSD>
5.903

$$$$
ligand
 OpenBabel11021811503D
libRbt.so/2013.1/901 2013/11/27
 25 27  0  0  0  0  0  0  0  0999 V2000
    5.6932  -19.4944   19.5162 N   0  0  0  0  0  0  0  0  0  0  0  0
    4.3657  -19.7366   19.9899 C   0  0  0  0  0  0  0  0  0  0  0  0
    3.3931  -19.3680   19.3431 O   0  0  0  0  0  0  0  0  0  0  0  0
    7.2420  -16.3197   26.0000 N   0  0  0  0  0  0  0  0  0  0  0  0
    6.2813  -18.1973   27.1477 N   0  0  0  0  0  0  0  0  0  0  0  0
    6.1833  -17.2600   26.1768 C   0  0  0  0  0  0  0  0  0  0  0  0
    5.0827  -17.1920   25.3690 N   0  0  0  0  0  0  0  0  0  0  0  0
    4.0427  -18.0551   25.4943 C   0  0  0  0  0  0  0  0  0  0  0  0
    4.1134  -19.0596   26.4892 C   0  0  0  0  0  0  0  0  0  0  0  0
    2.9678  -17.9441   24.6439 O   0  0  0  0  0  0  0  0  0  0  0  0
    1.6612  -19.7261   26.6913 C   0  0  0  0  0  0  0  0  0  0  0  0
    3.0694  -20.0353   26.7565 N   0  0  0  0  0  0  0  0  0  0  0  0
    0.8393  -20.4524   26.1430 O   0  0  0  0  0  0  0  0  0  0  0  0
    3.5251  -21.2860   27.1923 C   0  0  2  0  0  0  0  0  0  0  0  0
    4.3771  -21.1092   28.4754 C   0  0  0  0  0  0  0  0  0  0  0  0
    5.2666  -19.0994   27.3349 C   0  0  0  0  0  0  0  0  0  0  0  0
    5.3788  -20.1260   28.3747 N   0  0  0  0  0  0  0  0  0  0  0  0
    4.3337  -21.9726   26.1102 C   0  0  0  0  0  0  0  0  0  0  0  0
    3.6199  -22.4301   24.9502 N   0  0  0  0  0  0  0  0  0  0  0  0
    4.1858  -20.4622   21.2782 C   0  0  0  0  0  0  0  0  0  0  0  0
    4.9619  -21.5709   21.5867 C   0  0  0  0  0  0  0  0  0  0  0  0
    4.7701  -22.2253   22.7975 C   0  0  0  0  0  0  0  0  0  0  0  0
    3.8146  -21.7641   23.7008 C   0  0  0  0  0  0  0  0  0  0  0  0
    3.0506  -20.6518   23.3934 C   0  0  0  0  0  0  0  0  0  0  0  0
    3.2344  -20.0037   22.1779 C   0  0  0  0  0  0  0  0  0  0  0  0
  1  2  1  0  0  0  0
  2  3  2  0  0  0  0
  2 20  1  0  0  0  0
  4  6  1  0  0  0  0
  5  6  2  0  0  0  0
  5 16  1  0  0  0  0
  6  7  1  0  0  0  0
  7  8  1  0  0  0  0
  8  9  1  0  0  0  0
  8 10  2  0  0  0  0
  9 12  1  0  0  0  0
  9 16  2  0  0  0  0
 11 13  1  0  0  0  0
 11 12  1  0  0  0  0
 12 14  1  0  0  0  0
 14 15  1  0  0  0  0
 14 18  1  6  0  0  0
 15 17  1  0  0  0  0
 16 17  1  0  0  0  0
 18 19  1  0  0  0  0
 19 23  1  0  0  0  0
 20 21  2  0  0  0  0
 20 25  1  0  0  0  0
 21 22  1  0  0  0  0
 22 23  2  0  0  0  0
 23 24  1  0  0  0  0
 24 25  2  0  0  0  0
M  END
>  <CHROM.1>
135.18675604,-69.53346555,109.77909281,93.07414594,-42.18999180,4.17792148
-19.79628213,24.72144546,-1.63312324,0.92878670,1.50934109

>  <Name>
ligand

>  <RI>
0

>  <Rbt.Current_Directory>
/home/itssahil/PROJECTS/Mol_Feturizer/New_Systems/rnas/4LVV

>  <Rbt.Executable>
rbdock ($Id: //depot/dev/client3/rdock/2013.1/src/exe/rbdock.cxx#4 $)

>  <Rbt.Library>
libRbt.so (2013.1, Build901 2013/11/27)

>  <Rbt.Parameter_File>
/export/apps/rDock/src/rDock_2013.1_src/data/scripts/dock_solv.prm

>  <Rbt.Receptor>
prm/pocket_docking_6.prm

>  <SCORE>
-11.3531

>  <SCORE.INTER>
-9.45066

>  <SCORE.INTER.CONST>
1

>  <SCORE.INTER.POLAR>
0

>  <SCORE.INTER.ROT>
5

>  <SCORE.INTER.SOLV>
14.6733

>  <SCORE.INTER.VDW>
-18.1249

>  <SCORE.INTER.norm>
-0.378026

>  <SCORE.INTRA>
-1.90249

>  <SCORE.INTRA.DIHEDRAL>
0.660673

>  <SCORE.INTRA.DIHEDRAL.0>
3.94806

>  <SCORE.INTRA.POLAR>
0

>  <SCORE.INTRA.POLAR.0>
0

>  <SCORE.INTRA.REPUL>
0

>  <SCORE.INTRA.REPUL.0>
0

>  <SCORE.INTRA.SOLV>
0.635077

>  <SCORE.INTRA.SOLV.lig_0>
-70.9803

>  <SCORE.INTRA.VDW>
-2.55036

>  <SCORE.INTRA.VDW.0>
-0.709409

>  <SCORE.INTRA.norm>
-0.0760994

>  <SCORE.RESTR>
0

>  <SCORE.RESTR.CAVITY>
0

>  <SCORE.RESTR.norm>
0

>  <SCORE.SYSTEM>
0

>  <SCORE.SYSTEM.CONST>
0

>  <SCORE.SYSTEM.DIHEDRAL>
0

>  <SCORE.SYSTEM.SOLV>
0

>  <SCORE.SYSTEM.norm>
0

>  <SCORE.heavy>
25

>  <SCORE.norm>
-0.454126

>  <RMSD>
5.920

$$$$
ligand
 OpenBabel11021811503D
libRbt.so/2013.1/901 2013/11/27
 25 27  0  0  0  0  0  0  0  0999 V2000
    5.7232  -20.9964   29.2745 N   0  0  0  0  0  0  0  0  0  0  0  0
    4.8510  -22.0404   28.8333 C   0  0  0  0  0  0  0  0  0  0  0  0
    4.4824  -22.9167   29.6056 O   0  0  0  0  0  0  0  0  0  0  0  0
    8.2220  -17.3666   24.8735 N   0  0  0  0  0  0  0  0  0  0  0  0
    6.9999  -18.3535   23.0575 N   0  0  0  0  0  0  0  0  0  0  0  0
    7.6057  -18.4973   24.2588 C   0  0  0  0  0  0  0  0  0  0  0  0
    7.6463  -19.7096   24.8890 N   0  0  0  0  0  0  0  0  0  0  0  0
    7.0830  -20.8208   24.3501 C   0  0  0  0  0  0  0  0  0  0  0  0
    6.4270  -20.7087   23.1008 C   0  0  0  0  0  0  0  0  0  0  0  0
    7.1460  -22.0100   25.0376 O   0  0  0  0  0  0  0  0  0  0  0  0
    6.3495  -23.1480   22.3646 C   0  0  0  0  0  0  0  0  0  0  0  0
    5.8017  -21.8132   22.3917 N   0  0  0  0  0  0  0  0  0  0  0  0
    6.4139  -23.8674   23.3556 O   0  0  0  0  0  0  0  0  0  0  0  0
    4.6733  -21.4691   21.6367 C   0  0  2  0  0  0  0  0  0  0  0  0
    5.0520  -20.3723   20.6084 C   0  0  0  0  0  0  0  0  0  0  0  0
    6.4137  -19.4340   22.4514 C   0  0  0  0  0  0  0  0  0  0  0  0
    5.7423  -19.2763   21.1584 N   0  0  0  0  0  0  0  0  0  0  0  0
    3.5500  -20.9891   22.5334 C   0  0  0  0  0  0  0  0  0  0  0  0
    2.9929  -21.9426   23.4524 N   0  0  0  0  0  0  0  0  0  0  0  0
    4.3836  -22.0339   27.4190 C   0  0  0  0  0  0  0  0  0  0  0  0
    4.7807  -23.0250   26.5320 C   0  0  0  0  0  0  0  0  0  0  0  0
    4.3265  -22.9910   25.2192 C   0  0  0  0  0  0  0  0  0  0  0  0
    3.4682  -21.9765   24.7998 C   0  0  0  0  0  0  0  0  0  0  0  0
    3.0664  -20.9965   25.6906 C   0  0  0  0  0  0  0  0  0  0  0  0
    3.5293  -21.0239   27.0006 C   0  0  0  0  0  0  0  0  0  0  0  0
  1  2  1  0  0  0  0
  2  3  2  0  0  0  0
  2 20  1  0  0  0  0
  4  6  1  0  0  0  0
  5  6  2  0  0  0  0
  5 16  1  0  0  0  0
  6  7  1  0  0  0  0
  7  8  1  0  0  0  0
  8  9  1  0  0  0  0
  8 10  2  0  0  0  0
  9 12  1  0  0  0  0
  9 16  2  0  0  0  0
 11 13  1  0  0  0  0
 11 12  1  0  0  0  0
 12 14  1  0  0  0  0
 14 15  1  0  0  0  0
 14 18  1  1  0  0  0
 15 17  1  0  0  0  0
 16 17  1  0  0  0  0
 18 19  1  0  0  0  0
 19 23  1  0  0  0  0
 20 21  2  0  0  0  0
 20 25  1  0  0  0  0
 21 22  1  0  0  0  0
 22 23  2  0  0  0  0
 23 24  1  0  0  0  0
 24 25  2  0  0  0  0
M  END
>  <CHROM.1>
67.18378002,-64.53102051,95.96148858,-104.55990709,113.23367921,5.50657619
-21.13488513,24.53268937,-1.92200282,-0.84870943,-1.51339609

>  <Name>
ligand

>  <RI>
0

>  <Rbt.Current_Directory>
/home/itssahil/PROJECTS/Mol_Feturizer/New_Systems/rnas/4LVV

>  <Rbt.Executable>
rbdock ($Id: //depot/dev/client3/rdock/2013.1/src/exe/rbdock.cxx#4 $)

>  <Rbt.Library>
libRbt.so (2013.1, Build901 2013/11/27)

>  <Rbt.Parameter_File>
/export/apps/rDock/src/rDock_2013.1_src/data/scripts/dock_solv.prm

>  <Rbt.Receptor>
prm/pocket_docking_6.prm

>  <SCORE>
-9.05165

>  <SCORE.INTER>
-6.49907

>  <SCORE.INTER.CONST>
1

>  <SCORE.INTER.POLAR>
0

>  <SCORE.INTER.ROT>
5

>  <SCORE.INTER.SOLV>
11.1443

>  <SCORE.INTER.VDW>
-14.9808

>  <SCORE.INTER.norm>
-0.259963

>  <SCORE.INTRA>
-2.55258

>  <SCORE.INTRA.DIHEDRAL>
0.217721

>  <SCORE.INTRA.DIHEDRAL.0>
3.94806

>  <SCORE.INTRA.POLAR>
0

>  <SCORE.INTRA.POLAR.0>
0

>  <SCORE.INTRA.REPUL>
0

>  <SCORE.INTRA.REPUL.0>
0

>  <SCORE.INTRA.SOLV>
0.959628

>  <SCORE.INTRA.SOLV.lig_0>
-70.9803

>  <SCORE.INTRA.VDW>
-3.14126

>  <SCORE.INTRA.VDW.0>
-0.709409

>  <SCORE.INTRA.norm>
-0.102103

>  <SCORE.RESTR>
0

>  <SCORE.RESTR.CAVITY>
0

>  <SCORE.RESTR.norm>
0

>  <SCORE.SYSTEM>
0

>  <SCORE.SYSTEM.CONST>
0

>  <SCORE.SYSTEM.DIHEDRAL>
0

>  <SCORE.SYSTEM.SOLV>
0

>  <SCORE.SYSTEM.norm>
0

>  <SCORE.heavy>
25

>  <SCORE.norm>
-0.362066

>  <RMSD>
5.938

$$$$
ligand
 OpenBabel11021811503D
libRbt.so/2013.1/901 2013/11/27
 25 27  0  0  0  0  0  0  0  0999 V2000
    6.3947  -21.5813   28.8976 N   0  0  0  0  0  0  0  0  0  0  0  0
    5.1596  -22.2397   28.6036 C   0  0  0  0  0  0  0  0  0  0  0  0
    4.5470  -22.8409   29.4773 O   0  0  0  0  0  0  0  0  0  0  0  0
    8.5410  -17.4146   24.2603 N   0  0  0  0  0  0  0  0  0  0  0  0
    7.3090  -18.6045   22.5775 N   0  0  0  0  0  0  0  0  0  0  0  0
    7.8741  -18.5918   23.8069 C   0  0  0  0  0  0  0  0  0  0  0  0
    7.8259  -19.6910   24.6180 N   0  0  0  0  0  0  0  0  0  0  0  0
    7.2110  -20.8400   24.2382 C   0  0  0  0  0  0  0  0  0  0  0  0
    6.5952  -20.8887   22.9646 C   0  0  0  0  0  0  0  0  0  0  0  0
    7.1850  -21.9087   25.1031 O   0  0  0  0  0  0  0  0  0  0  0  0
    6.3906  -23.4051   22.6123 C   0  0  0  0  0  0  0  0  0  0  0  0
    5.9232  -22.0542   22.4137 N   0  0  0  0  0  0  0  0  0  0  0  0
    7.5633  -23.6830   22.8391 O   0  0  0  0  0  0  0  0  0  0  0  0
    4.8372  -21.7708   21.5759 C   0  0  2  0  0  0  0  0  0  0  0  0
    5.3071  -20.8709   20.4041 C   0  0  0  0  0  0  0  0  0  0  0  0
    6.6749  -19.7324   22.1259 C   0  0  0  0  0  0  0  0  0  0  0  0
    6.0475  -19.7421   20.8015 N   0  0  0  0  0  0  0  0  0  0  0  0
    3.7220  -21.0952   22.3481 C   0  0  0  0  0  0  0  0  0  0  0  0
    3.0359  -21.8848   23.3329 N   0  0  0  0  0  0  0  0  0  0  0  0
    4.6212  -22.1668   27.2167 C   0  0  0  0  0  0  0  0  0  0  0  0
    4.9085  -23.1569   26.2871 C   0  0  0  0  0  0  0  0  0  0  0  0
    4.3901  -23.0601   25.0015 C   0  0  0  0  0  0  0  0  0  0  0  0
    3.5771  -21.9837   24.6520 C   0  0  0  0  0  0  0  0  0  0  0  0
    3.2846  -21.0046   25.5853 C   0  0  0  0  0  0  0  0  0  0  0  0
    3.8119  -21.0953   26.8679 C   0  0  0  0  0  0  0  0  0  0  0  0
  1  2  1  0  0  0  0
  2  3  2  0  0  0  0
  2 20  1  0  0  0  0
  4  6  1  0  0  0  0
  5  6  2  0  0  0  0
  5 16  1  0  0  0  0
  6  7  1  0  0  0  0
  7  8  1  0  0  0  0
  8  9  1  0  0  0  0
  8 10  2  0  0  0  0
  9 12  1  0  0  0  0
  9 16  2  0  0  0  0
 11 13  1  0  0  0  0
 11 12  1  0  0  0  0
 12 14  1  0  0  0  0
 14 15  1  0  0  0  0
 14 18  1  1  0  0  0
 15 17  1  0  0  0  0
 16 17  1  0  0  0  0
 18 19  1  0  0  0  0
 19 23  1  0  0  0  0
 20 21  2  0  0  0  0
 20 25  1  0  0  0  0
 21 22  1  0  0  0  0
 22 23  2  0  0  0  0
 23 24  1  0  0  0  0
 24 25  2  0  0  0  0
M  END
>  <CHROM.1>
-25.67621681,-67.88129261,85.38622371,-95.34429678,93.05523422,5.75307169
-21.27291103,24.32115320,-1.92863446,-0.75393853,-1.49376610

>  <Name>
ligand

>  <RI>
0

>  <Rbt.Current_Directory>
/home/itssahil/PROJECTS/Mol_Feturizer/New_Systems/rnas/4LVV

>  <Rbt.Executable>
rbdock ($Id: //depot/dev/client3/rdock/2013.1/src/exe/rbdock.cxx#4 $)

>  <Rbt.Library>
libRbt.so (2013.1, Build901 2013/11/27)

>  <Rbt.Parameter_File>
/export/apps/rDock/src/rDock_2013.1_src/data/scripts/dock_solv.prm

>  <Rbt.Receptor>
prm/pocket_docking_7.prm

>  <SCORE>
-9.67038

>  <SCORE.INTER>
-6.86855

>  <SCORE.INTER.CONST>
1

>  <SCORE.INTER.POLAR>
0

>  <SCORE.INTER.ROT>
5

>  <SCORE.INTER.SOLV>
10.1886

>  <SCORE.INTER.VDW>
-14.9086

>  <SCORE.INTER.norm>
-0.274742

>  <SCORE.INTRA>
-2.80183

>  <SCORE.INTRA.DIHEDRAL>
0.178299

>  <SCORE.INTRA.DIHEDRAL.0>
3.94806

>  <SCORE.INTRA.POLAR>
0

>  <SCORE.INTRA.POLAR.0>
0

>  <SCORE.INTRA.REPUL>
0

>  <SCORE.INTRA.REPUL.0>
0

>  <SCORE.INTRA.SOLV>
0.835591

>  <SCORE.INTRA.SOLV.lig_0>
-70.9803

>  <SCORE.INTRA.VDW>
-3.30878

>  <SCORE.INTRA.VDW.0>
-0.709409

>  <SCORE.INTRA.norm>
-0.112073

>  <SCORE.RESTR>
0

>  <SCORE.RESTR.CAVITY>
0

>  <SCORE.RESTR.norm>
0

>  <SCORE.SYSTEM>
0

>  <SCORE.SYSTEM.CONST>
0

>  <SCORE.SYSTEM.DIHEDRAL>
0

>  <SCORE.SYSTEM.SOLV>
0

>  <SCORE.SYSTEM.norm>
0

>  <SCORE.heavy>
25

>  <SCORE.norm>
-0.386815

>  <RMSD>
5.950

$$$$
ligand
 OpenBabel11021811503D
libRbt.so/2013.1/901 2013/11/27
 25 27  0  0  0  0  0  0  0  0999 V2000
    4.8331  -22.8166   33.3923 N   0  0  0  0  0  0  0  0  0  0  0  0
    5.7303  -22.0233   32.6105 C   0  0  0  0  0  0  0  0  0  0  0  0
    6.5348  -21.2732   33.1494 O   0  0  0  0  0  0  0  0  0  0  0  0
    5.3288  -16.2649   23.5207 N   0  0  0  0  0  0  0  0  0  0  0  0
    4.1208  -18.3247   23.7729 N   0  0  0  0  0  0  0  0  0  0  0  0
    5.3072  -17.6859   23.6498 C   0  0  0  0  0  0  0  0  0  0  0  0
    6.4850  -18.3794   23.6366 N   0  0  0  0  0  0  0  0  0  0  0  0
    6.5262  -19.7314   23.7496 C   0  0  0  0  0  0  0  0  0  0  0  0
    5.3068  -20.4355   23.8947 C   0  0  0  0  0  0  0  0  0  0  0  0
    7.7429  -20.3722   23.7418 O   0  0  0  0  0  0  0  0  0  0  0  0
    6.0231  -22.7975   23.2573 C   0  0  0  0  0  0  0  0  0  0  0  0
    5.1928  -21.8809   24.0011 N   0  0  0  0  0  0  0  0  0  0  0  0
    5.9153  -22.9706   22.0481 O   0  0  0  0  0  0  0  0  0  0  0  0
    4.1378  -22.3343   24.8031 C   0  0  2  0  0  0  0  0  0  0  0  0
    2.7976  -21.7708   24.2645 C   0  0  0  0  0  0  0  0  0  0  0  0
    4.0857  -19.6900   23.8868 C   0  0  0  0  0  0  0  0  0  0  0  0
    2.8027  -20.3820   24.0375 N   0  0  0  0  0  0  0  0  0  0  0  0
    4.3427  -21.9235   26.2472 C   0  0  0  0  0  0  0  0  0  0  0  0
    5.4507  -22.5147   26.9452 N   0  0  0  0  0  0  0  0  0  0  0  0
    5.6810  -22.1383   31.1263 C   0  0  0  0  0  0  0  0  0  0  0  0
    6.7962  -21.8511   30.3513 C   0  0  0  0  0  0  0  0  0  0  0  0
    6.7180  -21.9690   28.9689 C   0  0  0  0  0  0  0  0  0  0  0  0
    5.5325  -22.3849   28.3661 C   0  0  0  0  0  0  0  0  0  0  0  0
    4.4264  -22.6805   29.1437 C   0  0  0  0  0  0  0  0  0  0  0  0
    4.5010  -22.5521   30.5254 C   0  0  0  0  0  0  0  0  0  0  0  0
  1  2  1  0  0  0  0
  2  3  2  0  0  0  0
  2 20  1  0  0  0  0
  4  6  1  0  0  0  0
  5  6  2  0  0  0  0
  5 16  1  0  0  0  0
  6  7  1  0  0  0  0
  7  8  1  0  0  0  0
  8  9  1  0  0  0  0
  8 10  2  0  0  0  0
  9 12  1  0  0  0  0
  9 16  2  0  0  0  0
 11 13  1  0  0  0  0
 11 12  1  0  0  0  0
 12 14  1  0  0  0  0
 14 15  1  0  0  0  0
 14 18  1  1  0  0  0
 15 17  1  0  0  0  0
 16 17  1  0  0  0  0
 18 19  1  0  0  0  0
 19 23  1  0  0  0  0
 20 21  2  0  0  0  0
 20 25  1  0  0  0  0
 21 22  1  0  0  0  0
 22 23  2  0  0  0  0
 23 24  1  0  0  0  0
 24 25  2  0  0  0  0
M  END
>  <CHROM.1>
-71.22606222,-66.49052160,-167.16104625,-131.22633332,-154.13562162,5.30752676
-21.08333794,26.43767952,-1.33906979,-1.36786048,-1.07508940

>  <Name>
ligand

>  <RI>
0

>  <Rbt.Current_Directory>
/home/itssahil/PROJECTS/Mol_Feturizer/New_Systems/rnas/4LVV

>  <Rbt.Executable>
rbdock ($Id: //depot/dev/client3/rdock/2013.1/src/exe/rbdock.cxx#4 $)

>  <Rbt.Library>
libRbt.so (2013.1, Build901 2013/11/27)

>  <Rbt.Parameter_File>
/export/apps/rDock/src/rDock_2013.1_src/data/scripts/dock_solv.prm

>  <Rbt.Receptor>
prm/pocket_docking_8.prm

>  <SCORE>
-7.25891

>  <SCORE.INTER>
-6.23519

>  <SCORE.INTER.CONST>
1

>  <SCORE.INTER.POLAR>
0

>  <SCORE.INTER.ROT>
5

>  <SCORE.INTER.SOLV>
10.1888

>  <SCORE.INTER.VDW>
-14.4864

>  <SCORE.INTER.norm>
-0.249408

>  <SCORE.INTRA>
-1.02372

>  <SCORE.INTRA.DIHEDRAL>
-0.496458

>  <SCORE.INTRA.DIHEDRAL.0>
3.94806

>  <SCORE.INTRA.POLAR>
0

>  <SCORE.INTRA.POLAR.0>
0

>  <SCORE.INTRA.REPUL>
0

>  <SCORE.INTRA.REPUL.0>
0

>  <SCORE.INTRA.SOLV>
-0.158753

>  <SCORE.INTRA.SOLV.lig_0>
-70.9803

>  <SCORE.INTRA.VDW>
-0.696119

>  <SCORE.INTRA.VDW.0>
-0.709409

>  <SCORE.INTRA.norm>
-0.040949

>  <SCORE.RESTR>
0

>  <SCORE.RESTR.CAVITY>
0

>  <SCORE.RESTR.norm>
0

>  <SCORE.SYSTEM>
0

>  <SCORE.SYSTEM.CONST>
0

>  <SCORE.SYSTEM.DIHEDRAL>
0

>  <SCORE.SYSTEM.SOLV>
0

>  <SCORE.SYSTEM.norm>
0

>  <SCORE.heavy>
25

>  <SCORE.norm>
-0.290357

>  <RMSD>
5.956

$$$$
ligand
 OpenBabel11021811503D
libRbt.so/2013.1/901 2013/11/27
 25 27  0  0  0  0  0  0  0  0999 V2000
    4.8337  -22.7943   29.9797 N   0  0  0  0  0  0  0  0  0  0  0  0
    5.0655  -21.8258   28.9532 C   0  0  0  0  0  0  0  0  0  0  0  0
    5.0425  -20.6276   29.2060 O   0  0  0  0  0  0  0  0  0  0  0  0
    6.7441  -16.3171   23.5409 N   0  0  0  0  0  0  0  0  0  0  0  0
    5.6047  -18.4028   23.1995 N   0  0  0  0  0  0  0  0  0  0  0  0
    6.6009  -17.5569   22.8491 C   0  0  0  0  0  0  0  0  0  0  0  0
    7.4662  -17.8651   21.8369 N   0  0  0  0  0  0  0  0  0  0  0  0
    7.3750  -19.0263   21.1398 C   0  0  0  0  0  0  0  0  0  0  0  0
    6.3548  -19.9445   21.4856 C   0  0  0  0  0  0  0  0  0  0  0  0
    8.2826  -19.2855   20.1397 O   0  0  0  0  0  0  0  0  0  0  0  0
    6.2650  -21.3931   19.3899 C   0  0  0  0  0  0  0  0  0  0  0  0
    6.1196  -21.2125   20.8143 N   0  0  0  0  0  0  0  0  0  0  0  0
    6.1548  -20.4767   18.5825 O   0  0  0  0  0  0  0  0  0  0  0  0
    5.6317  -22.2362   21.6363 C   0  0  2  0  0  0  0  0  0  0  0  0
    4.3105  -21.7785   22.3059 C   0  0  0  0  0  0  0  0  0  0  0  0
    5.4496  -19.5919   22.5358 C   0  0  0  0  0  0  0  0  0  0  0  0
    4.3818  -20.5169   22.9254 N   0  0  0  0  0  0  0  0  0  0  0  0
    6.6541  -22.6171   22.6879 C   0  0  0  0  0  0  0  0  0  0  0  0
    6.2531  -23.5857   23.6704 N   0  0  0  0  0  0  0  0  0  0  0  0
    5.3532  -22.3013   27.5712 C   0  0  0  0  0  0  0  0  0  0  0  0
    4.3827  -22.9569   26.8261 C   0  0  0  0  0  0  0  0  0  0  0  0
    4.6824  -23.3875   25.5393 C   0  0  0  0  0  0  0  0  0  0  0  0
    5.9438  -23.1512   24.9963 C   0  0  0  0  0  0  0  0  0  0  0  0
    6.9047  -22.4876   25.7391 C   0  0  0  0  0  0  0  0  0  0  0  0
    6.6089  -22.0668   27.0301 C   0  0  0  0  0  0  0  0  0  0  0  0
  1  2  1  0  0  0  0
  2  3  2  0  0  0  0
  2 20  1  0  0  0  0
  4  6  1  0  0  0  0
  5  6  2  0  0  0  0
  5 16  1  0  0  0  0
  6  7  1  0  0  0  0
  7  8  1  0  0  0  0
  8  9  1  0  0  0  0
  8 10  2  0  0  0  0
  9 12  1  0  0  0  0
  9 16  2  0  0  0  0
 11 13  1  0  0  0  0
 11 12  1  0  0  0  0
 12 14  1  0  0  0  0
 14 15  1  0  0  0  0
 14 18  1  1  0  0  0
 15 17  1  0  0  0  0
 16 17  1  0  0  0  0
 18 19  1  0  0  0  0
 19 23  1  0  0  0  0
 20 21  2  0  0  0  0
 20 25  1  0  0  0  0
 21 22  1  0  0  0  0
 22 23  2  0  0  0  0
 23 24  1  0  0  0  0
 24 25  2  0  0  0  0
M  END
>  <CHROM.1>
-25.15587828,175.34178506,-104.79570775,120.84917452,66.90608440,5.95306870
-20.89415100,23.69055528,-2.47036639,-1.34010156,-2.11658794

>  <Name>
ligand

>  <RI>
0

>  <Rbt.Current_Directory>
/home/itssahil/PROJECTS/Mol_Feturizer/New_Systems/rnas/4LVV

>  <Rbt.Executable>
rbdock ($Id: //depot/dev/client3/rdock/2013.1/src/exe/rbdock.cxx#4 $)

>  <Rbt.Library>
libRbt.so (2013.1, Build901 2013/11/27)

>  <Rbt.Parameter_File>
/export/apps/rDock/src/rDock_2013.1_src/data/scripts/dock_solv.prm

>  <Rbt.Receptor>
prm/pocket_docking_7.prm

>  <SCORE>
-8.20932

>  <SCORE.INTER>
-7.22952

>  <SCORE.INTER.CONST>
1

>  <SCORE.INTER.POLAR>
0

>  <SCORE.INTER.ROT>
5

>  <SCORE.INTER.SOLV>
10.5992

>  <SCORE.INTER.VDW>
-15.2861

>  <SCORE.INTER.norm>
-0.289181

>  <SCORE.INTRA>
-0.979797

>  <SCORE.INTRA.DIHEDRAL>
0.578234

>  <SCORE.INTRA.DIHEDRAL.0>
3.94806

>  <SCORE.INTRA.POLAR>
0

>  <SCORE.INTRA.POLAR.0>
0

>  <SCORE.INTRA.REPUL>
0

>  <SCORE.INTRA.REPUL.0>
0

>  <SCORE.INTRA.SOLV>
0.218149

>  <SCORE.INTRA.SOLV.lig_0>
-70.9803

>  <SCORE.INTRA.VDW>
-1.37799

>  <SCORE.INTRA.VDW.0>
-0.709409

>  <SCORE.INTRA.norm>
-0.0391919

>  <SCORE.RESTR>
0

>  <SCORE.RESTR.CAVITY>
0

>  <SCORE.RESTR.norm>
0

>  <SCORE.SYSTEM>
0

>  <SCORE.SYSTEM.CONST>
0

>  <SCORE.SYSTEM.DIHEDRAL>
0

>  <SCORE.SYSTEM.SOLV>
0

>  <SCORE.SYSTEM.norm>
0

>  <SCORE.heavy>
25

>  <SCORE.norm>
-0.328373

>  <RMSD>
5.994

$$$$
ligand
 OpenBabel11021811503D
libRbt.so/2013.1/901 2013/11/27
 25 27  0  0  0  0  0  0  0  0999 V2000
    3.8974  -19.5093   19.6353 N   0  0  0  0  0  0  0  0  0  0  0  0
    3.6533  -19.0492   20.9673 C   0  0  0  0  0  0  0  0  0  0  0  0
    3.3028  -17.8944   21.1765 O   0  0  0  0  0  0  0  0  0  0  0  0
    7.1194  -16.3688   26.5008 N   0  0  0  0  0  0  0  0  0  0  0  0
    6.2219  -18.2928   27.6225 N   0  0  0  0  0  0  0  0  0  0  0  0
    6.1344  -17.3950   26.6139 C   0  0  0  0  0  0  0  0  0  0  0  0
    5.1128  -17.4483   25.7073 N   0  0  0  0  0  0  0  0  0  0  0  0
    4.1444  -18.3975   25.7683 C   0  0  0  0  0  0  0  0  0  0  0  0
    4.2084  -19.3639   26.8006 C   0  0  0  0  0  0  0  0  0  0  0  0
    3.1485  -18.4068   24.8201 O   0  0  0  0  0  0  0  0  0  0  0  0
    1.8152  -20.2419   26.8023 C   0  0  0  0  0  0  0  0  0  0  0  0
    3.2326  -20.4217   27.0063 N   0  0  0  0  0  0  0  0  0  0  0  0
    1.1501  -20.9488   26.0528 O   0  0  0  0  0  0  0  0  0  0  0  0
    3.7522  -21.6139   27.5262 C   0  0  2  0  0  0  0  0  0  0  0  0
    4.4615  -21.3262   28.8744 C   0  0  0  0  0  0  0  0  0  0  0  0
    5.2763  -19.2768   27.7487 C   0  0  0  0  0  0  0  0  0  0  0  0
    5.3791  -20.2602   28.8303 N   0  0  0  0  0  0  0  0  0  0  0  0
    4.7153  -22.2547   26.5474 C   0  0  0  0  0  0  0  0  0  0  0  0
    4.1724  -22.7095   25.2973 N   0  0  0  0  0  0  0  0  0  0  0  0
    3.8164  -20.0061   22.0971 C   0  0  0  0  0  0  0  0  0  0  0  0
    5.0604  -20.2239   22.6733 C   0  0  0  0  0  0  0  0  0  0  0  0
    5.1791  -21.1225   23.7265 C   0  0  0  0  0  0  0  0  0  0  0  0
    4.0554  -21.7903   24.2092 C   0  0  0  0  0  0  0  0  0  0  0  0
    2.8154  -21.5619   23.6386 C   0  0  0  0  0  0  0  0  0  0  0  0
    2.6981  -20.6716   22.5780 C   0  0  0  0  0  0  0  0  0  0  0  0
  1  2  1  0  0  0  0
  2  3  2  0  0  0  0
  2 20  1  0  0  0  0
  4  6  1  0  0  0  0
  5  6  2  0  0  0  0
  5 16  1  0  0  0  0
  6  7  1  0  0  0  0
  7  8  1  0  0  0  0
  8  9  1  0  0  0  0
  8 10  2  0  0  0  0
  9 12  1  0  0  0  0
  9 16  2  0  0  0  0
 11 13  1  0  0  0  0
 11 12  1  0  0  0  0
 12 14  1  0  0  0  0
 14 15  1  0  0  0  0
 14 18  1  6  0  0  0
 15 17  1  0  0  0  0
 16 17  1  0  0  0  0
 18 19  1  0  0  0  0
 19 23  1  0  0  0  0
 20 21  2  0  0  0  0
 20 25  1  0  0  0  0
 21 22  1  0  0  0  0
 22 23  2  0  0  0  0
 23 24  1  0  0  0  0
 24 25  2  0  0  0  0
M  END
>  <CHROM.1>
124.53860929,-64.66489913,85.90210957,57.61221243,85.11903998,4.14624411
-19.84108941,25.20168587,-1.92652594,0.98891240,1.91041510

>  <Name>
ligand

>  <RI>
0

>  <Rbt.Current_Directory>
/home/itssahil/PROJECTS/Mol_Feturizer/New_Systems/rnas/4LVV

>  <Rbt.Executable>
rbdock ($Id: //depot/dev/client3/rdock/2013.1/src/exe/rbdock.cxx#4 $)

>  <Rbt.Library>
libRbt.so (2013.1, Build901 2013/11/27)

>  <Rbt.Parameter_File>
/export/apps/rDock/src/rDock_2013.1_src/data/scripts/dock_solv.prm

>  <Rbt.Receptor>
prm/pocket_docking_7.prm

>  <SCORE>
-11.7483

>  <SCORE.INTER>
-8.46

>  <SCORE.INTER.CONST>
1

>  <SCORE.INTER.POLAR>
0

>  <SCORE.INTER.ROT>
5

>  <SCORE.INTER.SOLV>
16.1647

>  <SCORE.INTER.VDW>
-17.9616

>  <SCORE.INTER.norm>
-0.3384

>  <SCORE.INTRA>
-3.28826

>  <SCORE.INTRA.DIHEDRAL>
-0.131554

>  <SCORE.INTRA.DIHEDRAL.0>
3.94806

>  <SCORE.INTRA.POLAR>
0

>  <SCORE.INTRA.POLAR.0>
0

>  <SCORE.INTRA.REPUL>
0

>  <SCORE.INTRA.REPUL.0>
0

>  <SCORE.INTRA.SOLV>
1.34075

>  <SCORE.INTRA.SOLV.lig_0>
-70.9803

>  <SCORE.INTRA.VDW>
-3.89285

>  <SCORE.INTRA.VDW.0>
-0.709409

>  <SCORE.INTRA.norm>
-0.13153

>  <SCORE.RESTR>
0

>  <SCORE.RESTR.CAVITY>
0

>  <SCORE.RESTR.norm>
0

>  <SCORE.SYSTEM>
0

>  <SCORE.SYSTEM.CONST>
0

>  <SCORE.SYSTEM.DIHEDRAL>
0

>  <SCORE.SYSTEM.SOLV>
0

>  <SCORE.SYSTEM.norm>
0

>  <SCORE.heavy>
25

>  <SCORE.norm>
-0.46993

>  <RMSD>
6.036

$$$$
ligand
 OpenBabel11021811503D
libRbt.so/2013.1/901 2013/11/27
 25 27  0  0  0  0  0  0  0  0999 V2000
    4.3446  -22.8390   29.9284 N   0  0  0  0  0  0  0  0  0  0  0  0
    5.1691  -22.3344   28.8743 C   0  0  0  0  0  0  0  0  0  0  0  0
    6.3372  -22.0311   29.0836 O   0  0  0  0  0  0  0  0  0  0  0  0
    8.7902  -17.8707   24.1675 N   0  0  0  0  0  0  0  0  0  0  0  0
    6.8915  -18.2827   22.7567 N   0  0  0  0  0  0  0  0  0  0  0  0
    7.8614  -18.7705   23.5643 C   0  0  0  0  0  0  0  0  0  0  0  0
    7.9730  -20.1116   23.8041 N   0  0  0  0  0  0  0  0  0  0  0  0
    7.1226  -21.0149   23.2534 C   0  0  0  0  0  0  0  0  0  0  0  0
    6.0852  -20.5431   22.4138 C   0  0  0  0  0  0  0  0  0  0  0  0
    7.2781  -22.3505   23.5418 O   0  0  0  0  0  0  0  0  0  0  0  0
    5.4510  -22.6753   21.1688 C   0  0  0  0  0  0  0  0  0  0  0  0
    5.1178  -21.3910   21.7366 N   0  0  0  0  0  0  0  0  0  0  0  0
    6.4703  -22.8770   20.5174 O   0  0  0  0  0  0  0  0  0  0  0  0
    3.8466  -20.8259   21.5736 C   0  0  2  0  0  0  0  0  0  0  0  0
    3.9681  -19.4924   20.7923 C   0  0  0  0  0  0  0  0  0  0  0  0
    5.9998  -19.1373   22.1625 C   0  0  0  0  0  0  0  0  0  0  0  0
    4.9382  -18.6092   21.3013 N   0  0  0  0  0  0  0  0  0  0  0  0
    3.1830  -20.5945   22.9161 C   0  0  0  0  0  0  0  0  0  0  0  0
    2.8667  -21.7568   23.6992 N   0  0  0  0  0  0  0  0  0  0  0  0
    4.5861  -22.2001   27.5103 C   0  0  0  0  0  0  0  0  0  0  0  0
    4.9682  -23.0532   26.4841 C   0  0  0  0  0  0  0  0  0  0  0  0
    4.4049  -22.9023   25.2228 C   0  0  0  0  0  0  0  0  0  0  0  0
    3.4539  -21.9101   24.9933 C   0  0  0  0  0  0  0  0  0  0  0  0
    3.0681  -21.0687   26.0222 C   0  0  0  0  0  0  0  0  0  0  0  0
    3.6394  -21.2122   27.2809 C   0  0  0  0  0  0  0  0  0  0  0  0
  1  2  1  0  0  0  0
  2  3  2  0  0  0  0
  2 20  1  0  0  0  0
  4  6  1  0  0  0  0
  5  6  2  0  0  0  0
  5 16  1  0  0  0  0
  6  7  1  0  0  0  0
  7  8  1  0  0  0  0
  8  9  1  0  0  0  0
  8 10  2  0  0  0  0
  9 12  1  0  0  0  0
  9 16  2  0  0  0  0
 11 13  1  0  0  0  0
 11 12  1  0  0  0  0
 12 14  1  0  0  0  0
 14 15  1  0  0  0  0
 14 18  1  1  0  0  0
 15 17  1  0  0  0  0
 16 17  1  0  0  0  0
 18 19  1  0  0  0  0
 19 23  1  0  0  0  0
 20 21  2  0  0  0  0
 20 25  1  0  0  0  0
 21 22  1  0  0  0  0
 22 23  2  0  0  0  0
 23 24  1  0  0  0  0
 24 25  2  0  0  0  0
M  END
>  <CHROM.1>
-43.22370404,-64.94250742,119.54280639,-110.86597757,-108.56691817,5.39602898
-21.04303277,24.13151351,-1.76430137,-0.55906335,-1.35837737

>  <Name>
ligand

>  <RI>
0

>  <Rbt.Current_Directory>
/home/itssahil/PROJECTS/Mol_Feturizer/New_Systems/rnas/4LVV

>  <Rbt.Executable>
rbdock ($Id: //depot/dev/client3/rdock/2013.1/src/exe/rbdock.cxx#4 $)

>  <Rbt.Library>
libRbt.so (2013.1, Build901 2013/11/27)

>  <Rbt.Parameter_File>
/export/apps/rDock/src/rDock_2013.1_src/data/scripts/dock_solv.prm

>  <Rbt.Receptor>
prm/pocket_docking_6.prm

>  <SCORE>
-8.39061

>  <SCORE.INTER>
-6.62018

>  <SCORE.INTER.CONST>
1

>  <SCORE.INTER.POLAR>
0

>  <SCORE.INTER.ROT>
5

>  <SCORE.INTER.SOLV>
12.0763

>  <SCORE.INTER.VDW>
-15.3722

>  <SCORE.INTER.norm>
-0.264807

>  <SCORE.INTRA>
-1.77043

>  <SCORE.INTRA.DIHEDRAL>
0.693636

>  <SCORE.INTRA.DIHEDRAL.0>
3.94806

>  <SCORE.INTRA.POLAR>
0

>  <SCORE.INTRA.POLAR.0>
0

>  <SCORE.INTRA.REPUL>
0

>  <SCORE.INTRA.REPUL.0>
0

>  <SCORE.INTRA.SOLV>
0.110588

>  <SCORE.INTRA.SOLV.lig_0>
-70.9803

>  <SCORE.INTRA.VDW>
-2.17254

>  <SCORE.INTRA.VDW.0>
-0.709409

>  <SCORE.INTRA.norm>
-0.0708172

>  <SCORE.RESTR>
0

>  <SCORE.RESTR.CAVITY>
0

>  <SCORE.RESTR.norm>
0

>  <SCORE.SYSTEM>
0

>  <SCORE.SYSTEM.CONST>
0

>  <SCORE.SYSTEM.DIHEDRAL>
0

>  <SCORE.SYSTEM.SOLV>
0

>  <SCORE.SYSTEM.norm>
0

>  <SCORE.heavy>
25

>  <SCORE.norm>
-0.335624

>  <RMSD>
6.046

$$$$
ligand
 OpenBabel11021811503D
libRbt.so/2013.1/901 2013/11/27
 25 27  0  0  0  0  0  0  0  0999 V2000
    7.3501  -22.2054   20.7322 N   0  0  0  0  0  0  0  0  0  0  0  0
    6.6184  -23.2702   21.3457 C   0  0  0  0  0  0  0  0  0  0  0  0
    6.6012  -24.3879   20.8450 O   0  0  0  0  0  0  0  0  0  0  0  0
   10.7223  -22.9119   27.5039 N   0  0  0  0  0  0  0  0  0  0  0  0
    8.5948  -22.6259   28.5797 N   0  0  0  0  0  0  0  0  0  0  0  0
    9.4368  -22.2962   27.5732 C   0  0  0  0  0  0  0  0  0  0  0  0
    9.0811  -21.3759   26.6273 N   0  0  0  0  0  0  0  0  0  0  0  0
    7.8749  -20.7536   26.6455 C   0  0  0  0  0  0  0  0  0  0  0  0
    6.9599  -21.0818   27.6744 C   0  0  0  0  0  0  0  0  0  0  0  0
    7.5696  -19.8453   25.6592 O   0  0  0  0  0  0  0  0  0  0  0  0
    5.3748  -19.0876   27.5784 C   0  0  0  0  0  0  0  0  0  0  0  0
    5.6458  -20.4814   27.8365 N   0  0  0  0  0  0  0  0  0  0  0  0
    4.4168  -18.7013   26.9176 O   0  0  0  0  0  0  0  0  0  0  0  0
    4.6683  -21.3309   28.3700 C   0  0  2  0  0  0  0  0  0  0  0  0
    5.1409  -21.8657   29.7463 C   0  0  0  0  0  0  0  0  0  0  0  0
    7.3616  -22.0339   28.6638 C   0  0  0  0  0  0  0  0  0  0  0  0
    6.4417  -22.4025   29.7435 N   0  0  0  0  0  0  0  0  0  0  0  0
    4.3793  -22.4806   27.4260 C   0  0  0  0  0  0  0  0  0  0  0  0
    3.7880  -22.1538   26.1580 N   0  0  0  0  0  0  0  0  0  0  0  0
    5.8900  -22.9999   22.6165 C   0  0  0  0  0  0  0  0  0  0  0  0
    6.2527  -23.6361   23.7956 C   0  0  0  0  0  0  0  0  0  0  0  0
    5.5535  -23.3615   24.9647 C   0  0  0  0  0  0  0  0  0  0  0  0
    4.5044  -22.4445   24.9559 C   0  0  0  0  0  0  0  0  0  0  0  0
    4.1533  -21.8046   23.7801 C   0  0  0  0  0  0  0  0  0  0  0  0
    4.8451  -22.0872   22.6084 C   0  0  0  0  0  0  0  0  0  0  0  0
  1  2  1  0  0  0  0
  2  3  2  0  0  0  0
  2 20  1  0  0  0  0
  4  6  1  0  0  0  0
  5  6  2  0  0  0  0
  5 16  1  0  0  0  0
  6  7  1  0  0  0  0
  7  8  1  0  0  0  0
  8  9  1  0  0  0  0
  8 10  2  0  0  0  0
  9 12  1  0  0  0  0
  9 16  2  0  0  0  0
 11 13  1  0  0  0  0
 11 12  1  0  0  0  0
 12 14  1  0  0  0  0
 14 15  1  0  0  0  0
 14 18  1  6  0  0  0
 15 17  1  0  0  0  0
 16 17  1  0  0  0  0
 18 19  1  0  0  0  0
 19 23  1  0  0  0  0
 20 21  2  0  0  0  0
 20 25  1  0  0  0  0
 21 22  1  0  0  0  0
 22 23  2  0  0  0  0
 23 24  1  0  0  0  0
 24 25  2  0  0  0  0
M  END
>  <CHROM.1>
132.85226254,-65.18474638,117.58774538,18.58006609,-115.58148342,6.37434286
-21.86112013,25.96468044,-1.64638697,-0.27571405,1.28953098

>  <Name>
ligand

>  <RI>
0

>  <Rbt.Current_Directory>
/home/itssahil/PROJECTS/Mol_Feturizer/New_Systems/rnas/4LVV

>  <Rbt.Executable>
rbdock ($Id: //depot/dev/client3/rdock/2013.1/src/exe/rbdock.cxx#4 $)

>  <Rbt.Library>
libRbt.so (2013.1, Build901 2013/11/27)

>  <Rbt.Parameter_File>
/export/apps/rDock/src/rDock_2013.1_src/data/scripts/dock_solv.prm

>  <Rbt.Receptor>
prm/pocket_docking_7.prm

>  <SCORE>
-10.6696

>  <SCORE.INTER>
-9.61072

>  <SCORE.INTER.CONST>
1

>  <SCORE.INTER.POLAR>
0

>  <SCORE.INTER.ROT>
5

>  <SCORE.INTER.SOLV>
10.924

>  <SCORE.INTER.VDW>
-16.9818

>  <SCORE.INTER.norm>
-0.384429

>  <SCORE.INTRA>
-1.05884

>  <SCORE.INTRA.DIHEDRAL>
0.512354

>  <SCORE.INTRA.DIHEDRAL.0>
3.94806

>  <SCORE.INTRA.POLAR>
0

>  <SCORE.INTRA.POLAR.0>
0

>  <SCORE.INTRA.REPUL>
0

>  <SCORE.INTRA.REPUL.0>
0

>  <SCORE.INTRA.SOLV>
0.367642

>  <SCORE.INTRA.SOLV.lig_0>
-70.9803

>  <SCORE.INTRA.VDW>
-1.49884

>  <SCORE.INTRA.VDW.0>
-0.709409

>  <SCORE.INTRA.norm>
-0.0423535

>  <SCORE.RESTR>
0

>  <SCORE.RESTR.CAVITY>
0

>  <SCORE.RESTR.norm>
0

>  <SCORE.SYSTEM>
0

>  <SCORE.SYSTEM.CONST>
0

>  <SCORE.SYSTEM.DIHEDRAL>
0

>  <SCORE.SYSTEM.SOLV>
0

>  <SCORE.SYSTEM.norm>
0

>  <SCORE.heavy>
25

>  <SCORE.norm>
-0.426782

>  <RMSD>
6.054

$$$$
ligand
 OpenBabel11021811503D
libRbt.so/2013.1/901 2013/11/27
 25 27  0  0  0  0  0  0  0  0999 V2000
    8.1740  -23.0595   21.7168 N   0  0  0  0  0  0  0  0  0  0  0  0
    6.7620  -23.2856   21.7345 C   0  0  0  0  0  0  0  0  0  0  0  0
    6.1809  -23.6957   20.7374 O   0  0  0  0  0  0  0  0  0  0  0  0
   10.7219  -23.4721   27.3076 N   0  0  0  0  0  0  0  0  0  0  0  0
    8.7565  -22.8403   28.5338 N   0  0  0  0  0  0  0  0  0  0  0  0
    9.5082  -22.7294   27.4142 C   0  0  0  0  0  0  0  0  0  0  0  0
    9.1298  -21.9099   26.3876 N   0  0  0  0  0  0  0  0  0  0  0  0
    7.9896  -21.1751   26.4353 C   0  0  0  0  0  0  0  0  0  0  0  0
    7.1682  -21.2745   27.5838 C   0  0  0  0  0  0  0  0  0  0  0  0
    7.6558  -20.3778   25.3657 O   0  0  0  0  0  0  0  0  0  0  0  0
    5.7558  -19.1639   27.3634 C   0  0  0  0  0  0  0  0  0  0  0  0
    5.9350  -20.5318   27.7868 N   0  0  0  0  0  0  0  0  0  0  0  0
    4.6556  -18.6659   27.1506 O   0  0  0  0  0  0  0  0  0  0  0  0
    4.9537  -21.2041   28.5262 C   0  0  2  0  0  0  0  0  0  0  0  0
    5.5273  -21.5984   29.9115 C   0  0  0  0  0  0  0  0  0  0  0  0
    7.5942  -22.1240   28.6532 C   0  0  0  0  0  0  0  0  0  0  0  0
    6.7702  -22.2562   29.8579 N   0  0  0  0  0  0  0  0  0  0  0  0
    4.4674  -22.4332   27.7852 C   0  0  0  0  0  0  0  0  0  0  0  0
    3.8449  -22.2238   26.5073 N   0  0  0  0  0  0  0  0  0  0  0  0
    6.0110  -23.0293   22.9952 C   0  0  0  0  0  0  0  0  0  0  0  0
    6.3687  -23.6596   24.1790 C   0  0  0  0  0  0  0  0  0  0  0  0
    5.6485  -23.3985   25.3383 C   0  0  0  0  0  0  0  0  0  0  0  0
    4.5831  -22.5006   25.3153 C   0  0  0  0  0  0  0  0  0  0  0  0
    4.2369  -21.8664   24.1349 C   0  0  0  0  0  0  0  0  0  0  0  0
    4.9500  -22.1357   22.9729 C   0  0  0  0  0  0  0  0  0  0  0  0
  1  2  1  0  0  0  0
  2  3  2  0  0  0  0
  2 20  1  0  0  0  0
  4  6  1  0  0  0  0
  5  6  2  0  0  0  0
  5 16  1  0  0  0  0
  6  7  1  0  0  0  0
  7  8  1  0  0  0  0
  8  9  1  0  0  0  0
  8 10  2  0  0  0  0
  9 12  1  0  0  0  0
  9 16  2  0  0  0  0
 11 13  1  0  0  0  0
 11 12  1  0  0  0  0
 12 14  1  0  0  0  0
 14 15  1  0  0  0  0
 14 18  1  6  0  0  0
 15 17  1  0  0  0  0
 16 17  1  0  0  0  0
 18 19  1  0  0  0  0
 19 23  1  0  0  0  0
 20 21  2  0  0  0  0
 20 25  1  0  0  0  0
 21 22  1  0  0  0  0
 22 23  2  0  0  0  0
 23 24  1  0  0  0  0
 24 25  2  0  0  0  0
M  END
>  <CHROM.1>
156.98393250,-61.39863756,103.10779939,23.87310074,-56.12248717,6.53809004
-21.97738005,26.09112178,-1.61084637,-0.34009033,1.29102223

>  <Name>
ligand

>  <RI>
0

>  <Rbt.Current_Directory>
/home/itssahil/PROJECTS/Mol_Feturizer/New_Systems/rnas/4LVV

>  <Rbt.Executable>
rbdock ($Id: //depot/dev/client3/rdock/2013.1/src/exe/rbdock.cxx#4 $)

>  <Rbt.Library>
libRbt.so (2013.1, Build901 2013/11/27)

>  <Rbt.Parameter_File>
/export/apps/rDock/src/rDock_2013.1_src/data/scripts/dock_solv.prm

>  <Rbt.Receptor>
prm/pocket_docking_8.prm

>  <SCORE>
-10.8793

>  <SCORE.INTER>
-8.87594

>  <SCORE.INTER.CONST>
1

>  <SCORE.INTER.POLAR>
0

>  <SCORE.INTER.ROT>
5

>  <SCORE.INTER.SOLV>
11.1644

>  <SCORE.INTER.VDW>
-16.5721

>  <SCORE.INTER.norm>
-0.355038

>  <SCORE.INTRA>
-2.00331

>  <SCORE.INTRA.DIHEDRAL>
0.142626

>  <SCORE.INTRA.DIHEDRAL.0>
3.94806

>  <SCORE.INTRA.POLAR>
0

>  <SCORE.INTRA.POLAR.0>
0

>  <SCORE.INTRA.REPUL>
0

>  <SCORE.INTRA.REPUL.0>
0

>  <SCORE.INTRA.SOLV>
0.464371

>  <SCORE.INTRA.SOLV.lig_0>
-70.9803

>  <SCORE.INTRA.VDW>
-2.30681

>  <SCORE.INTRA.VDW.0>
-0.709409

>  <SCORE.INTRA.norm>
-0.0801323

>  <SCORE.RESTR>
0

>  <SCORE.RESTR.CAVITY>
0

>  <SCORE.RESTR.norm>
0

>  <SCORE.SYSTEM>
0

>  <SCORE.SYSTEM.CONST>
0

>  <SCORE.SYSTEM.DIHEDRAL>
0

>  <SCORE.SYSTEM.SOLV>
0

>  <SCORE.SYSTEM.norm>
0

>  <SCORE.heavy>
25

>  <SCORE.norm>
-0.43517

>  <RMSD>
6.076

$$$$
ligand
 OpenBabel11021811503D
libRbt.so/2013.1/901 2013/11/27
 25 27  0  0  0  0  0  0  0  0999 V2000
    6.4566  -22.0108   20.6874 N   0  0  0  0  0  0  0  0  0  0  0  0
    6.5008  -23.0930   21.6214 C   0  0  0  0  0  0  0  0  0  0  0  0
    7.0789  -24.1365   21.3438 O   0  0  0  0  0  0  0  0  0  0  0  0
   10.8107  -23.6266   26.5059 N   0  0  0  0  0  0  0  0  0  0  0  0
    9.0704  -22.8245   27.9527 N   0  0  0  0  0  0  0  0  0  0  0  0
    9.6307  -22.8538   26.7214 C   0  0  0  0  0  0  0  0  0  0  0  0
    9.0914  -22.1475   25.6828 N   0  0  0  0  0  0  0  0  0  0  0  0
    7.9743  -21.3905   25.8296 C   0  0  0  0  0  0  0  0  0  0  0  0
    7.3499  -21.3451   27.0991 C   0  0  0  0  0  0  0  0  0  0  0  0
    7.4721  -20.7118   24.7441 O   0  0  0  0  0  0  0  0  0  0  0  0
    5.9215  -19.2461   26.8706 C   0  0  0  0  0  0  0  0  0  0  0  0
    6.1663  -20.5613   27.4122 N   0  0  0  0  0  0  0  0  0  0  0  0
    4.8185  -18.7103   26.8820 O   0  0  0  0  0  0  0  0  0  0  0  0
    5.3174  -21.1279   28.3714 C   0  0  2  0  0  0  0  0  0  0  0  0
    6.1077  -21.3753   29.6820 C   0  0  0  0  0  0  0  0  0  0  0  0
    7.9431  -22.0775   28.1755 C   0  0  0  0  0  0  0  0  0  0  0  0
    7.3251  -22.0584   29.5041 N   0  0  0  0  0  0  0  0  0  0  0  0
    4.7168  -22.4228   27.8627 C   0  0  0  0  0  0  0  0  0  0  0  0
    3.9428  -22.3553   26.6542 N   0  0  0  0  0  0  0  0  0  0  0  0
    5.8448  -22.9221   22.9477 C   0  0  0  0  0  0  0  0  0  0  0  0
    6.2920  -23.6218   24.0600 C   0  0  0  0  0  0  0  0  0  0  0  0
    5.6590  -23.4395   25.2835 C   0  0  0  0  0  0  0  0  0  0  0  0
    4.5914  -22.5511   25.3957 C   0  0  0  0  0  0  0  0  0  0  0  0
    4.1559  -21.8476   24.2862 C   0  0  0  0  0  0  0  0  0  0  0  0
    4.7816  -22.0380   23.0601 C   0  0  0  0  0  0  0  0  0  0  0  0
  1  2  1  0  0  0  0
  2  3  2  0  0  0  0
  2 20  1  0  0  0  0
  4  6  1  0  0  0  0
  5  6  2  0  0  0  0
  5 16  1  0  0  0  0
  6  7  1  0  0  0  0
  7  8  1  0  0  0  0
  8  9  1  0  0  0  0
  8 10  2  0  0  0  0
  9 12  1  0  0  0  0
  9 16  2  0  0  0  0
 11 13  1  0  0  0  0
 11 12  1  0  0  0  0
 12 14  1  0  0  0  0
 14 15  1  0  0  0  0
 14 18  1  6  0  0  0
 15 17  1  0  0  0  0
 16 17  1  0  0  0  0
 18 19  1  0  0  0  0
 19 23  1  0  0  0  0
 20 21  2  0  0  0  0
 20 25  1  0  0  0  0
 21 22  1  0  0  0  0
 22 23  2  0  0  0  0
 23 24  1  0  0  0  0
 24 25  2  0  0  0  0
M  END
>  <CHROM.1>
163.13343015,-58.80325310,90.70590209,34.09841107,-152.56349085,6.61311009
-21.97759092,25.80683142,1.65785807,0.37974741,-1.84800361

>  <Name>
ligand

>  <RI>
0

>  <Rbt.Current_Directory>
/home/itssahil/PROJECTS/Mol_Feturizer/New_Systems/rnas/4LVV

>  <Rbt.Executable>
rbdock ($Id: //depot/dev/client3/rdock/2013.1/src/exe/rbdock.cxx#4 $)

>  <Rbt.Library>
libRbt.so (2013.1, Build901 2013/11/27)

>  <Rbt.Parameter_File>
/export/apps/rDock/src/rDock_2013.1_src/data/scripts/dock_solv.prm

>  <Rbt.Receptor>
prm/pocket_docking_5.prm

>  <SCORE>
-10.59

>  <SCORE.INTER>
-7.95486

>  <SCORE.INTER.CONST>
1

>  <SCORE.INTER.POLAR>
0

>  <SCORE.INTER.ROT>
5

>  <SCORE.INTER.SOLV>
10.3575

>  <SCORE.INTER.VDW>
-15.6891

>  <SCORE.INTER.norm>
-0.318194

>  <SCORE.INTRA>
-2.63518

>  <SCORE.INTRA.DIHEDRAL>
-0.172946

>  <SCORE.INTRA.DIHEDRAL.0>
3.94806

>  <SCORE.INTRA.POLAR>
0

>  <SCORE.INTRA.POLAR.0>
0

>  <SCORE.INTRA.REPUL>
0

>  <SCORE.INTRA.REPUL.0>
0

>  <SCORE.INTRA.SOLV>
0.96137

>  <SCORE.INTRA.SOLV.lig_0>
-70.9803

>  <SCORE.INTRA.VDW>
-3.02939

>  <SCORE.INTRA.VDW.0>
-0.709409

>  <SCORE.INTRA.norm>
-0.105407

>  <SCORE.RESTR>
0

>  <SCORE.RESTR.CAVITY>
0

>  <SCORE.RESTR.norm>
0

>  <SCORE.SYSTEM>
0

>  <SCORE.SYSTEM.CONST>
0

>  <SCORE.SYSTEM.DIHEDRAL>
0

>  <SCORE.SYSTEM.SOLV>
0

>  <SCORE.SYSTEM.norm>
0

>  <SCORE.heavy>
25

>  <SCORE.norm>
-0.423602

>  <RMSD>
6.153

$$$$
ligand
 OpenBabel11021811503D
libRbt.so/2013.1/901 2013/11/27
 25 27  0  0  0  0  0  0  0  0999 V2000
    7.6478  -24.2859   20.9097 N   0  0  0  0  0  0  0  0  0  0  0  0
    6.8435  -23.1272   21.1464 C   0  0  0  0  0  0  0  0  0  0  0  0
    6.7346  -22.2555   20.2930 O   0  0  0  0  0  0  0  0  0  0  0  0
   11.0059  -23.7917   27.2500 N   0  0  0  0  0  0  0  0  0  0  0  0
    9.0409  -22.8213   28.2311 N   0  0  0  0  0  0  0  0  0  0  0  0
    9.8133  -23.0163   27.1374 C   0  0  0  0  0  0  0  0  0  0  0  0
    9.4760  -22.4747   25.9286 N   0  0  0  0  0  0  0  0  0  0  0  0
    8.3575  -21.7238   25.7626 C   0  0  0  0  0  0  0  0  0  0  0  0
    7.5153  -21.5085   26.8798 C   0  0  0  0  0  0  0  0  0  0  0  0
    8.0648  -21.2156   24.5189 O   0  0  0  0  0  0  0  0  0  0  0  0
    6.1700  -19.4883   26.1004 C   0  0  0  0  0  0  0  0  0  0  0  0
    6.3017  -20.7084   26.8600 N   0  0  0  0  0  0  0  0  0  0  0  0
    5.2738  -19.2987   25.2852 O   0  0  0  0  0  0  0  0  0  0  0  0
    5.2891  -21.1469   27.7226 C   0  0  2  0  0  0  0  0  0  0  0  0
    5.8285  -21.1913   29.1754 C   0  0  0  0  0  0  0  0  0  0  0  0
    7.8987  -22.0696   28.1388 C   0  0  0  0  0  0  0  0  0  0  0  0
    7.0520  -21.8718   29.3184 N   0  0  0  0  0  0  0  0  0  0  0  0
    4.7783  -22.5112   27.3055 C   0  0  0  0  0  0  0  0  0  0  0  0
    4.0425  -22.5864   26.0737 N   0  0  0  0  0  0  0  0  0  0  0  0
    6.1249  -23.0070   22.4456 C   0  0  0  0  0  0  0  0  0  0  0  0
    6.5727  -23.6813   23.5733 C   0  0  0  0  0  0  0  0  0  0  0  0
    5.8804  -23.5476   24.7708 C   0  0  0  0  0  0  0  0  0  0  0  0
    4.7526  -22.7323   24.8420 C   0  0  0  0  0  0  0  0  0  0  0  0
    4.3162  -22.0536   23.7176 C   0  0  0  0  0  0  0  0  0  0  0  0
    5.0018  -22.1958   22.5172 C   0  0  0  0  0  0  0  0  0  0  0  0
  1  2  1  0  0  0  0
  2  3  2  0  0  0  0
  2 20  1  0  0  0  0
  4  6  1  0  0  0  0
  5  6  2  0  0  0  0
  5 16  1  0  0  0  0
  6  7  1  0  0  0  0
  7  8  1  0  0  0  0
  8  9  1  0  0  0  0
  8 10  2  0  0  0  0
  9 12  1  0  0  0  0
  9 16  2  0  0  0  0
 11 13  1  0  0  0  0
 11 12  1  0  0  0  0
 12 14  1  0  0  0  0
 14 15  1  0  0  0  0
 14 18  1  6  0  0  0
 15 17  1  0  0  0  0
 16 17  1  0  0  0  0
 18 19  1  0  0  0  0
 19 23  1  0  0  0  0
 20 21  2  0  0  0  0
 20 25  1  0  0  0  0
 21 22  1  0  0  0  0
 22 23  2  0  0  0  0
 23 24  1  0  0  0  0
 24 25  2  0  0  0  0
M  END
>  <CHROM.1>
125.26963181,-68.58876468,85.45335510,38.58865870,23.90592637,6.80350008
-22.12430716,25.44572450,-1.76636075,-0.37183817,1.33904804

>  <Name>
ligand

>  <RI>
0

>  <Rbt.Current_Directory>
/home/itssahil/PROJECTS/Mol_Feturizer/New_Systems/rnas/4LVV

>  <Rbt.Executable>
rbdock ($Id: //depot/dev/client3/rdock/2013.1/src/exe/rbdock.cxx#4 $)

>  <Rbt.Library>
libRbt.so (2013.1, Build901 2013/11/27)

>  <Rbt.Parameter_File>
/export/apps/rDock/src/rDock_2013.1_src/data/scripts/dock_solv.prm

>  <Rbt.Receptor>
prm/pocket_docking_5.prm

>  <SCORE>
-10.6731

>  <SCORE.INTER>
-8.01976

>  <SCORE.INTER.CONST>
1

>  <SCORE.INTER.POLAR>
0

>  <SCORE.INTER.ROT>
5

>  <SCORE.INTER.SOLV>
8.95386

>  <SCORE.INTER.VDW>
-15.2645

>  <SCORE.INTER.norm>
-0.32079

>  <SCORE.INTRA>
-2.65334

>  <SCORE.INTRA.DIHEDRAL>
-0.0196536

>  <SCORE.INTRA.DIHEDRAL.0>
3.94806

>  <SCORE.INTRA.POLAR>
0

>  <SCORE.INTRA.POLAR.0>
0

>  <SCORE.INTRA.REPUL>
0

>  <SCORE.INTRA.REPUL.0>
0

>  <SCORE.INTRA.SOLV>
1.00783

>  <SCORE.INTRA.SOLV.lig_0>
-70.9803

>  <SCORE.INTRA.VDW>
-3.14743

>  <SCORE.INTRA.VDW.0>
-0.709409

>  <SCORE.INTRA.norm>
-0.106133

>  <SCORE.RESTR>
0

>  <SCORE.RESTR.CAVITY>
0

>  <SCORE.RESTR.norm>
0

>  <SCORE.SYSTEM>
0

>  <SCORE.SYSTEM.CONST>
0

>  <SCORE.SYSTEM.DIHEDRAL>
0

>  <SCORE.SYSTEM.SOLV>
0

>  <SCORE.SYSTEM.norm>
0

>  <SCORE.heavy>
25

>  <SCORE.norm>
-0.426924

>  <RMSD>
6.160

$$$$
ligand
 OpenBabel11021811503D
libRbt.so/2013.1/901 2013/11/27
 25 27  0  0  0  0  0  0  0  0999 V2000
    7.4869  -22.1463   21.2174 N   0  0  0  0  0  0  0  0  0  0  0  0
    6.4644  -23.0694   21.6015 C   0  0  0  0  0  0  0  0  0  0  0  0
    6.1434  -23.9917   20.8622 O   0  0  0  0  0  0  0  0  0  0  0  0
   10.8325  -23.5418   26.7680 N   0  0  0  0  0  0  0  0  0  0  0  0
    9.0013  -22.8575   28.1622 N   0  0  0  0  0  0  0  0  0  0  0  0
    9.6324  -22.7959   26.9669 C   0  0  0  0  0  0  0  0  0  0  0  0
    9.1454  -22.0233   25.9499 N   0  0  0  0  0  0  0  0  0  0  0  0
    8.0123  -21.2879   26.0829 C   0  0  0  0  0  0  0  0  0  0  0  0
    7.3148  -21.3366   27.3137 C   0  0  0  0  0  0  0  0  0  0  0  0
    7.5654  -20.5393   25.0196 O   0  0  0  0  0  0  0  0  0  0  0  0
    5.8759  -19.2390   27.1479 C   0  0  0  0  0  0  0  0  0  0  0  0
    6.1053  -20.5866   27.6104 N   0  0  0  0  0  0  0  0  0  0  0  0
    6.3225  -18.2489   27.7172 O   0  0  0  0  0  0  0  0  0  0  0  0
    5.2094  -21.2260   28.4766 C   0  0  2  0  0  0  0  0  0  0  0  0
    5.9255  -21.5578   29.8110 C   0  0  0  0  0  0  0  0  0  0  0  0
    7.8538  -22.1374   28.3697 C   0  0  0  0  0  0  0  0  0  0  0  0
    7.1596  -22.2164   29.6580 N   0  0  0  0  0  0  0  0  0  0  0  0
    4.6556  -22.4873   27.8450 C   0  0  0  0  0  0  0  0  0  0  0  0
    3.9009  -22.3351   26.6320 N   0  0  0  0  0  0  0  0  0  0  0  0
    5.8068  -22.8995   22.9272 C   0  0  0  0  0  0  0  0  0  0  0  0
    6.2495  -23.6038   24.0384 C   0  0  0  0  0  0  0  0  0  0  0  0
    5.6151  -23.4223   25.2613 C   0  0  0  0  0  0  0  0  0  0  0  0
    4.5508  -22.5301   25.3741 C   0  0  0  0  0  0  0  0  0  0  0  0
    4.1198  -21.8221   24.2658 C   0  0  0  0  0  0  0  0  0  0  0  0
    4.7468  -22.0116   23.0401 C   0  0  0  0  0  0  0  0  0  0  0  0
  1  2  1  0  0  0  0
  2  3  2  0  0  0  0
  2 20  1  0  0  0  0
  4  6  1  0  0  0  0
  5  6  2  0  0  0  0
  5 16  1  0  0  0  0
  6  7  1  0  0  0  0
  7  8  1  0  0  0  0
  8  9  1  0  0  0  0
  8 10  2  0  0  0  0
  9 12  1  0  0  0  0
  9 16  2  0  0  0  0
 11 13  1  0  0  0  0
 11 12  1  0  0  0  0
 12 14  1  0  0  0  0
 14 15  1  0  0  0  0
 14 18  1  6  0  0  0
 15 17  1  0  0  0  0
 16 17  1  0  0  0  0
 18 19  1  0  0  0  0
 19 23  1  0  0  0  0
 20 21  2  0  0  0  0
 20 25  1  0  0  0  0
 21 22  1  0  0  0  0
 22 23  2  0  0  0  0
 23 24  1  0  0  0  0
 24 25  2  0  0  0  0
M  END
>  <CHROM.1>
-82.45044607,-61.51218245,96.72947861,30.42072818,-95.13460653,6.64793831
-21.94980282,25.95212513,-1.70301424,-0.27987141,1.27309599

>  <Name>
ligand

>  <RI>
0

>  <Rbt.Current_Directory>
/home/itssahil/PROJECTS/Mol_Feturizer/New_Systems/rnas/4LVV

>  <Rbt.Executable>
rbdock ($Id: //depot/dev/client3/rdock/2013.1/src/exe/rbdock.cxx#4 $)

>  <Rbt.Library>
libRbt.so (2013.1, Build901 2013/11/27)

>  <Rbt.Parameter_File>
/export/apps/rDock/src/rDock_2013.1_src/data/scripts/dock_solv.prm

>  <Rbt.Receptor>
prm/pocket_docking_5.prm

>  <SCORE>
-10.6921

>  <SCORE.INTER>
-7.86173

>  <SCORE.INTER.CONST>
1

>  <SCORE.INTER.POLAR>
0

>  <SCORE.INTER.ROT>
5

>  <SCORE.INTER.SOLV>
10.8622

>  <SCORE.INTER.VDW>
-15.7952

>  <SCORE.INTER.norm>
-0.314469

>  <SCORE.INTRA>
-2.8304

>  <SCORE.INTRA.DIHEDRAL>
-0.0583816

>  <SCORE.INTRA.DIHEDRAL.0>
3.94806

>  <SCORE.INTRA.POLAR>
0

>  <SCORE.INTRA.POLAR.0>
0

>  <SCORE.INTRA.REPUL>
0

>  <SCORE.INTRA.REPUL.0>
0

>  <SCORE.INTRA.SOLV>
0.286675

>  <SCORE.INTRA.SOLV.lig_0>
-70.9803

>  <SCORE.INTRA.VDW>
-2.94455

>  <SCORE.INTRA.VDW.0>
-0.709409

>  <SCORE.INTRA.norm>
-0.113216

>  <SCORE.RESTR>
0

>  <SCORE.RESTR.CAVITY>
0

>  <SCORE.RESTR.norm>
0

>  <SCORE.SYSTEM>
0

>  <SCORE.SYSTEM.CONST>
0

>  <SCORE.SYSTEM.DIHEDRAL>
0

>  <SCORE.SYSTEM.SOLV>
0

>  <SCORE.SYSTEM.norm>
0

>  <SCORE.heavy>
25

>  <SCORE.norm>
-0.427685

>  <RMSD>
6.177

$$$$
ligand
 OpenBabel11021811503D
libRbt.so/2013.1/901 2013/11/27
 25 27  0  0  0  0  0  0  0  0999 V2000
    7.8899  -13.9425   27.3507 N   0  0  0  0  0  0  0  0  0  0  0  0
    7.5254  -14.5623   26.1144 C   0  0  0  0  0  0  0  0  0  0  0  0
    7.9795  -14.1554   25.0521 O   0  0  0  0  0  0  0  0  0  0  0  0
    6.9919  -22.5470   20.3741 N   0  0  0  0  0  0  0  0  0  0  0  0
    4.9929  -22.1734   21.6507 N   0  0  0  0  0  0  0  0  0  0  0  0
    6.3203  -22.4348   21.6281 C   0  0  0  0  0  0  0  0  0  0  0  0
    7.0270  -22.6033   22.7859 N   0  0  0  0  0  0  0  0  0  0  0  0
    6.4409  -22.5140   24.0070 C   0  0  0  0  0  0  0  0  0  0  0  0
    5.0563  -22.2275   24.0735 C   0  0  0  0  0  0  0  0  0  0  0  0
    7.2071  -22.6813   25.1366 O   0  0  0  0  0  0  0  0  0  0  0  0
    4.5112  -22.9797   26.4474 C   0  0  0  0  0  0  0  0  0  0  0  0
    4.2898  -22.1266   25.3047 N   0  0  0  0  0  0  0  0  0  0  0  0
    4.5083  -22.5683   27.6026 O   0  0  0  0  0  0  0  0  0  0  0  0
    3.2350  -21.2056   25.2718 C   0  0  2  0  0  0  0  0  0  0  0  0
    2.2677  -21.5660   24.1150 C   0  0  0  0  0  0  0  0  0  0  0  0
    4.3339  -22.0738   22.8483 C   0  0  0  0  0  0  0  0  0  0  0  0
    2.8997  -21.7737   22.8749 N   0  0  0  0  0  0  0  0  0  0  0  0
    3.7573  -19.7930   25.1047 C   0  0  0  0  0  0  0  0  0  0  0  0
    4.0228  -19.0470   26.3035 N   0  0  0  0  0  0  0  0  0  0  0  0
    6.5949  -15.7251   26.1427 C   0  0  0  0  0  0  0  0  0  0  0  0
    5.7169  -15.9616   25.0939 C   0  0  0  0  0  0  0  0  0  0  0  0
    4.8620  -17.0557   25.1503 C   0  0  0  0  0  0  0  0  0  0  0  0
    4.8952  -17.9164   26.2457 C   0  0  0  0  0  0  0  0  0  0  0  0
    5.7798  -17.6826   27.2840 C   0  0  0  0  0  0  0  0  0  0  0  0
    6.6271  -16.5822   27.2331 C   0  0  0  0  0  0  0  0  0  0  0  0
  1  2  1  0  0  0  0
  2  3  2  0  0  0  0
  2 20  1  0  0  0  0
  4  6  1  0  0  0  0
  5  6  2  0  0  0  0
  5 16  1  0  0  0  0
  6  7  1  0  0  0  0
  7  8  1  0  0  0  0
  8  9  1  0  0  0  0
  8 10  2  0  0  0  0
  9 12  1  0  0  0  0
  9 16  2  0  0  0  0
 11 13  1  0  0  0  0
 11 12  1  0  0  0  0
 12 14  1  0  0  0  0
 14 15  1  0  0  0  0
 14 18  1  6  0  0  0
 15 17  1  0  0  0  0
 16 17  1  0  0  0  0
 18 19  1  0  0  0  0
 19 23  1  0  0  0  0
 20 21  2  0  0  0  0
 20 25  1  0  0  0  0
 21 22  1  0  0  0  0
 22 23  2  0  0  0  0
 23 24  1  0  0  0  0
 24 25  2  0  0  0  0
M  END
>  <CHROM.1>
138.25486285,-91.40232913,159.96483883,38.64158530,148.46020739,5.42930698
-19.82811518,24.85110717,-1.19956024,-0.87683952,-2.47746307

>  <Name>
ligand

>  <RI>
0

>  <Rbt.Current_Directory>
/home/itssahil/PROJECTS/Mol_Feturizer/New_Systems/rnas/4LVV

>  <Rbt.Executable>
rbdock ($Id: //depot/dev/client3/rdock/2013.1/src/exe/rbdock.cxx#4 $)

>  <Rbt.Library>
libRbt.so (2013.1, Build901 2013/11/27)

>  <Rbt.Parameter_File>
/export/apps/rDock/src/rDock_2013.1_src/data/scripts/dock_solv.prm

>  <Rbt.Receptor>
prm/pocket_docking_8.prm

>  <SCORE>
-9.02202

>  <SCORE.INTER>
-9.63036

>  <SCORE.INTER.CONST>
1

>  <SCORE.INTER.POLAR>
0

>  <SCORE.INTER.ROT>
5

>  <SCORE.INTER.SOLV>
11.371

>  <SCORE.INTER.VDW>
-17.1439

>  <SCORE.INTER.norm>
-0.385214

>  <SCORE.INTRA>
0.608335

>  <SCORE.INTRA.DIHEDRAL>
2.28256

>  <SCORE.INTRA.DIHEDRAL.0>
3.94806

>  <SCORE.INTRA.POLAR>
0

>  <SCORE.INTRA.POLAR.0>
0

>  <SCORE.INTRA.REPUL>
0

>  <SCORE.INTRA.REPUL.0>
0

>  <SCORE.INTRA.SOLV>
-0.153741

>  <SCORE.INTRA.SOLV.lig_0>
-70.9803

>  <SCORE.INTRA.VDW>
-0.456075

>  <SCORE.INTRA.VDW.0>
-0.709409

>  <SCORE.INTRA.norm>
0.0243334

>  <SCORE.RESTR>
0

>  <SCORE.RESTR.CAVITY>
0

>  <SCORE.RESTR.norm>
0

>  <SCORE.SYSTEM>
0

>  <SCORE.SYSTEM.CONST>
0

>  <SCORE.SYSTEM.DIHEDRAL>
0

>  <SCORE.SYSTEM.SOLV>
0

>  <SCORE.SYSTEM.norm>
0

>  <SCORE.heavy>
25

>  <SCORE.norm>
-0.360881

>  <RMSD>
6.187

$$$$
ligand
 OpenBabel11021811503D
libRbt.so/2013.1/901 2013/11/27
 25 27  0  0  0  0  0  0  0  0999 V2000
    5.6464  -22.9663   20.7774 N   0  0  0  0  0  0  0  0  0  0  0  0
    6.3837  -23.1439   21.9900 C   0  0  0  0  0  0  0  0  0  0  0  0
    7.5607  -23.4818   21.9634 O   0  0  0  0  0  0  0  0  0  0  0  0
   10.7227  -23.6215   27.1395 N   0  0  0  0  0  0  0  0  0  0  0  0
    8.9369  -22.7281   28.4729 N   0  0  0  0  0  0  0  0  0  0  0  0
    9.5433  -22.8286   27.2675 C   0  0  0  0  0  0  0  0  0  0  0  0
    9.0511  -22.1752   26.1724 N   0  0  0  0  0  0  0  0  0  0  0  0
    7.9370  -21.4024   26.2351 C   0  0  0  0  0  0  0  0  0  0  0  0
    7.2653  -21.2832   27.4754 C   0  0  0  0  0  0  0  0  0  0  0  0
    7.4833  -20.7794   25.0962 O   0  0  0  0  0  0  0  0  0  0  0  0
    5.8680  -19.1882   27.0795 C   0  0  0  0  0  0  0  0  0  0  0  0
    6.0786  -20.4740   27.7001 N   0  0  0  0  0  0  0  0  0  0  0  0
    4.7547  -18.7225   26.8615 O   0  0  0  0  0  0  0  0  0  0  0  0
    5.1881  -20.9809   28.6550 C   0  0  2  0  0  0  0  0  0  0  0  0
    5.9255  -21.1634   30.0065 C   0  0  0  0  0  0  0  0  0  0  0  0
    7.8096  -21.9610   28.6117 C   0  0  0  0  0  0  0  0  0  0  0  0
    7.1418  -21.8650   29.9126 N   0  0  0  0  0  0  0  0  0  0  0  0
    4.5942  -22.2966   28.1940 C   0  0  0  0  0  0  0  0  0  0  0  0
    3.8072  -22.2743   26.9922 N   0  0  0  0  0  0  0  0  0  0  0  0
    5.6984  -22.8934   23.2885 C   0  0  0  0  0  0  0  0  0  0  0  0
    4.6894  -21.9457   23.3913 C   0  0  0  0  0  0  0  0  0  0  0  0
    4.0691  -21.7363   24.6170 C   0  0  0  0  0  0  0  0  0  0  0  0
    4.4483  -22.4816   25.7317 C   0  0  0  0  0  0  0  0  0  0  0  0
    5.4474  -23.4329   25.6219 C   0  0  0  0  0  0  0  0  0  0  0  0
    6.0756  -23.6348   24.3989 C   0  0  0  0  0  0  0  0  0  0  0  0
  1  2  1  0  0  0  0
  2  3  2  0  0  0  0
  2 20  1  0  0  0  0
  4  6  1  0  0  0  0
  5  6  2  0  0  0  0
  5 16  1  0  0  0  0
  6  7  1  0  0  0  0
  7  8  1  0  0  0  0
  8  9  1  0  0  0  0
  8 10  2  0  0  0  0
  9 12  1  0  0  0  0
  9 16  2  0  0  0  0
 11 13  1  0  0  0  0
 11 12  1  0  0  0  0
 12 14  1  0  0  0  0
 14 15  1  0  0  0  0
 14 18  1  6  0  0  0
 15 17  1  0  0  0  0
 16 17  1  0  0  0  0
 18 19  1  0  0  0  0
 19 23  1  0  0  0  0
 20 21  2  0  0  0  0
 20 25  1  0  0  0  0
 21 22  1  0  0  0  0
 22 23  2  0  0  0  0
 23 24  1  0  0  0  0
 24 25  2  0  0  0  0
M  END
>  <CHROM.1>
153.21878376,-62.04367520,89.64305184,-140.31287973,-31.11672569,6.50255079
-21.93372458,26.16582629,1.72126598,0.36858559,-1.86694812

>  <Name>
ligand

>  <RI>
0

>  <Rbt.Current_Directory>
/home/itssahil/PROJECTS/Mol_Feturizer/New_Systems/rnas/4LVV

>  <Rbt.Executable>
rbdock ($Id: //depot/dev/client3/rdock/2013.1/src/exe/rbdock.cxx#4 $)

>  <Rbt.Library>
libRbt.so (2013.1, Build901 2013/11/27)

>  <Rbt.Parameter_File>
/export/apps/rDock/src/rDock_2013.1_src/data/scripts/dock_solv.prm

>  <Rbt.Receptor>
prm/pocket_docking_6.prm

>  <SCORE>
-10.5557

>  <SCORE.INTER>
-7.79089

>  <SCORE.INTER.CONST>
1

>  <SCORE.INTER.POLAR>
0

>  <SCORE.INTER.ROT>
5

>  <SCORE.INTER.SOLV>
12.2317

>  <SCORE.INTER.VDW>
-16.2045

>  <SCORE.INTER.norm>
-0.311636

>  <SCORE.INTRA>
-2.76479

>  <SCORE.INTRA.DIHEDRAL>
-0.22699

>  <SCORE.INTRA.DIHEDRAL.0>
3.94806

>  <SCORE.INTRA.POLAR>
0

>  <SCORE.INTRA.POLAR.0>
0

>  <SCORE.INTRA.REPUL>
0

>  <SCORE.INTRA.REPUL.0>
0

>  <SCORE.INTRA.SOLV>
0.958966

>  <SCORE.INTRA.SOLV.lig_0>
-70.9803

>  <SCORE.INTRA.VDW>
-3.13078

>  <SCORE.INTRA.VDW.0>
-0.709409

>  <SCORE.INTRA.norm>
-0.110592

>  <SCORE.RESTR>
0

>  <SCORE.RESTR.CAVITY>
0

>  <SCORE.RESTR.norm>
0

>  <SCORE.SYSTEM>
0

>  <SCORE.SYSTEM.CONST>
0

>  <SCORE.SYSTEM.DIHEDRAL>
0

>  <SCORE.SYSTEM.SOLV>
0

>  <SCORE.SYSTEM.norm>
0

>  <SCORE.heavy>
25

>  <SCORE.norm>
-0.422227

>  <RMSD>
6.208

$$$$
ligand
 OpenBabel11021811503D
libRbt.so/2013.1/901 2013/11/27
 25 27  0  0  0  0  0  0  0  0999 V2000
    6.4682  -22.0490   20.6902 N   0  0  0  0  0  0  0  0  0  0  0  0
    6.4715  -23.1157   21.6428 C   0  0  0  0  0  0  0  0  0  0  0  0
    7.0303  -24.1766   21.3929 O   0  0  0  0  0  0  0  0  0  0  0  0
   10.8799  -23.8386   26.9615 N   0  0  0  0  0  0  0  0  0  0  0  0
    9.0750  -22.9314   28.2594 N   0  0  0  0  0  0  0  0  0  0  0  0
    9.7070  -23.0329   27.0672 C   0  0  0  0  0  0  0  0  0  0  0  0
    9.2469  -22.3686   25.9648 N   0  0  0  0  0  0  0  0  0  0  0  0
    8.1404  -21.5834   26.0066 C   0  0  0  0  0  0  0  0  0  0  0  0
    7.4426  -21.4627   27.2322 C   0  0  0  0  0  0  0  0  0  0  0  0
    7.7194  -20.9498   24.8611 O   0  0  0  0  0  0  0  0  0  0  0  0
    6.0783  -19.3499   26.8160 C   0  0  0  0  0  0  0  0  0  0  0  0
    6.2604  -20.6410   27.4345 N   0  0  0  0  0  0  0  0  0  0  0  0
    5.4299  -19.1834   25.7885 O   0  0  0  0  0  0  0  0  0  0  0  0
    5.3431  -21.1424   28.3667 C   0  0  2  0  0  0  0  0  0  0  0  0
    6.0480  -21.3399   29.7333 C   0  0  0  0  0  0  0  0  0  0  0  0
    7.9536  -22.1521   28.3768 C   0  0  0  0  0  0  0  0  0  0  0  0
    7.2581  -22.0548   29.6630 N   0  0  0  0  0  0  0  0  0  0  0  0
    4.7448  -22.4489   27.8858 C   0  0  0  0  0  0  0  0  0  0  0  0
    3.9435  -22.4027   26.6942 N   0  0  0  0  0  0  0  0  0  0  0  0
    5.7967  -22.9074   22.9543 C   0  0  0  0  0  0  0  0  0  0  0  0
    4.7138  -22.0468   23.0703 C   0  0  0  0  0  0  0  0  0  0  0  0
    4.1056  -21.8749   24.3079 C   0  0  0  0  0  0  0  0  0  0  0  0
    4.5714  -22.5712   25.4214 C   0  0  0  0  0  0  0  0  0  0  0  0
    5.6446  -23.4363   25.2985 C   0  0  0  0  0  0  0  0  0  0  0  0
    6.2601  -23.6001   24.0634 C   0  0  0  0  0  0  0  0  0  0  0  0
  1  2  1  0  0  0  0
  2  3  2  0  0  0  0
  2 20  1  0  0  0  0
  4  6  1  0  0  0  0
  5  6  2  0  0  0  0
  5 16  1  0  0  0  0
  6  7  1  0  0  0  0
  7  8  1  0  0  0  0
  8  9  1  0  0  0  0
  8 10  2  0  0  0  0
  9 12  1  0  0  0  0
  9 16  2  0  0  0  0
 11 13  1  0  0  0  0
 11 12  1  0  0  0  0
 12 14  1  0  0  0  0
 14 15  1  0  0  0  0
 14 18  1  6  0  0  0
 15 17  1  0  0  0  0
 16 17  1  0  0  0  0
 18 19  1  0  0  0  0
 19 23  1  0  0  0  0
 20 21  2  0  0  0  0
 20 25  1  0  0  0  0
 21 22  1  0  0  0  0
 22 23  2  0  0  0  0
 23 24  1  0  0  0  0
 24 25  2  0  0  0  0
M  END
>  <CHROM.1>
97.37639160,-64.31616079,89.08166105,-145.18851809,29.33210678,6.67258388
-22.06944591,25.85090408,-1.77982255,-0.37477929,1.32438488

>  <Name>
ligand

>  <RI>
0

>  <Rbt.Current_Directory>
/home/itssahil/PROJECTS/Mol_Feturizer/New_Systems/rnas/4LVV

>  <Rbt.Executable>
rbdock ($Id: //depot/dev/client3/rdock/2013.1/src/exe/rbdock.cxx#4 $)

>  <Rbt.Library>
libRbt.so (2013.1, Build901 2013/11/27)

>  <Rbt.Parameter_File>
/export/apps/rDock/src/rDock_2013.1_src/data/scripts/dock_solv.prm

>  <Rbt.Receptor>
prm/pocket_docking_7.prm

>  <SCORE>
-10.6959

>  <SCORE.INTER>
-8.00122

>  <SCORE.INTER.CONST>
1

>  <SCORE.INTER.POLAR>
0

>  <SCORE.INTER.ROT>
5

>  <SCORE.INTER.SOLV>
10.4214

>  <SCORE.INTER.VDW>
-15.7413

>  <SCORE.INTER.norm>
-0.320049

>  <SCORE.INTRA>
-2.69467

>  <SCORE.INTRA.DIHEDRAL>
0.0764135

>  <SCORE.INTRA.DIHEDRAL.0>
3.94806

>  <SCORE.INTRA.POLAR>
0

>  <SCORE.INTRA.POLAR.0>
0

>  <SCORE.INTRA.REPUL>
0

>  <SCORE.INTRA.REPUL.0>
0

>  <SCORE.INTRA.SOLV>
1.11893

>  <SCORE.INTRA.SOLV.lig_0>
-70.9803

>  <SCORE.INTRA.VDW>
-3.29234

>  <SCORE.INTRA.VDW.0>
-0.709409

>  <SCORE.INTRA.norm>
-0.107787

>  <SCORE.RESTR>
0

>  <SCORE.RESTR.CAVITY>
0

>  <SCORE.RESTR.norm>
0

>  <SCORE.SYSTEM>
0

>  <SCORE.SYSTEM.CONST>
0

>  <SCORE.SYSTEM.DIHEDRAL>
0

>  <SCORE.SYSTEM.SOLV>
0

>  <SCORE.SYSTEM.norm>
0

>  <SCORE.heavy>
25

>  <SCORE.norm>
-0.427835

>  <RMSD>
6.223

$$$$
ligand
 OpenBabel11021811503D
libRbt.so/2013.1/901 2013/11/27
 25 27  0  0  0  0  0  0  0  0999 V2000
    7.4533  -13.3269   24.0994 N   0  0  0  0  0  0  0  0  0  0  0  0
    6.0468  -13.4901   24.3007 C   0  0  0  0  0  0  0  0  0  0  0  0
    5.3348  -12.5267   24.5559 O   0  0  0  0  0  0  0  0  0  0  0  0
    5.5757  -21.7885   29.6107 N   0  0  0  0  0  0  0  0  0  0  0  0
    5.5337  -22.1324   27.2348 N   0  0  0  0  0  0  0  0  0  0  0  0
    4.9221  -21.6665   28.3482 C   0  0  0  0  0  0  0  0  0  0  0  0
    3.6842  -21.0902   28.2857 N   0  0  0  0  0  0  0  0  0  0  0  0
    3.0120  -20.9526   27.1144 C   0  0  0  0  0  0  0  0  0  0  0  0
    3.6243  -21.4146   25.9248 C   0  0  0  0  0  0  0  0  0  0  0  0
    1.7743  -20.3533   27.1135 O   0  0  0  0  0  0  0  0  0  0  0  0
    1.6120  -21.5851   24.3692 C   0  0  0  0  0  0  0  0  0  0  0  0
    3.0174  -21.3574   24.6049 N   0  0  0  0  0  0  0  0  0  0  0  0
    1.0157  -21.1463   23.3916 O   0  0  0  0  0  0  0  0  0  0  0  0
    3.9164  -21.1700   23.5473 C   0  0  2  0  0  0  0  0  0  0  0  0
    4.9727  -22.3048   23.5573 C   0  0  0  0  0  0  0  0  0  0  0  0
    4.9120  -22.0311   26.0176 C   0  0  0  0  0  0  0  0  0  0  0  0
    5.5803  -22.5196   24.8083 N   0  0  0  0  0  0  0  0  0  0  0  0
    4.5917  -19.8171   23.6466 C   0  0  0  0  0  0  0  0  0  0  0  0
    3.7387  -18.6655   23.7497 N   0  0  0  0  0  0  0  0  0  0  0  0
    5.4586  -14.8530   24.1773 C   0  0  0  0  0  0  0  0  0  0  0  0
    5.6525  -15.8058   25.1680 C   0  0  0  0  0  0  0  0  0  0  0  0
    5.0897  -17.0680   25.0233 C   0  0  0  0  0  0  0  0  0  0  0  0
    4.3255  -17.3708   23.8982 C   0  0  0  0  0  0  0  0  0  0  0  0
    4.1260  -16.4142   22.9182 C   0  0  0  0  0  0  0  0  0  0  0  0
    4.6979  -15.1553   23.0572 C   0  0  0  0  0  0  0  0  0  0  0  0
  1  2  1  0  0  0  0
  2  3  2  0  0  0  0
  2 20  1  0  0  0  0
  4  6  1  0  0  0  0
  5  6  2  0  0  0  0
  5 16  1  0  0  0  0
  6  7  1  0  0  0  0
  7  8  1  0  0  0  0
  8  9  1  0  0  0  0
  8 10  2  0  0  0  0
  9 12  1  0  0  0  0
  9 16  2  0  0  0  0
 11 13  1  0  0  0  0
 11 12  1  0  0  0  0
 12 14  1  0  0  0  0
 14 15  1  0  0  0  0
 14 18  1  1  0  0  0
 15 17  1  0  0  0  0
 16 17  1  0  0  0  0
 18 19  1  0  0  0  0
 19 23  1  0  0  0  0
 20 21  2  0  0  0  0
 20 25  1  0  0  0  0
 21 22  1  0  0  0  0
 22 23  2  0  0  0  0
 23 24  1  0  0  0  0
 24 25  2  0  0  0  0
M  END
>  <CHROM.1>
156.26341536,-53.88603688,177.58179436,-63.01226882,74.12335604,4.33625189
-19.09497481,25.14684206,-1.14878374,0.98478479,2.50666836

>  <Name>
ligand

>  <RI>
0

>  <Rbt.Current_Directory>
/home/itssahil/PROJECTS/Mol_Feturizer/New_Systems/rnas/4LVV

>  <Rbt.Executable>
rbdock ($Id: //depot/dev/client3/rdock/2013.1/src/exe/rbdock.cxx#4 $)

>  <Rbt.Library>
libRbt.so (2013.1, Build901 2013/11/27)

>  <Rbt.Parameter_File>
/export/apps/rDock/src/rDock_2013.1_src/data/scripts/dock_solv.prm

>  <Rbt.Receptor>
prm/pocket_docking_8.prm

>  <SCORE>
-9.43256

>  <SCORE.INTER>
-8.17133

>  <SCORE.INTER.CONST>
1

>  <SCORE.INTER.POLAR>
0

>  <SCORE.INTER.ROT>
5

>  <SCORE.INTER.SOLV>
13.6502

>  <SCORE.INTER.VDW>
-16.9309

>  <SCORE.INTER.norm>
-0.326853

>  <SCORE.INTRA>
-1.26123

>  <SCORE.INTRA.DIHEDRAL>
-0.692229

>  <SCORE.INTRA.DIHEDRAL.0>
3.94806

>  <SCORE.INTRA.POLAR>
0

>  <SCORE.INTRA.POLAR.0>
0

>  <SCORE.INTRA.REPUL>
0

>  <SCORE.INTRA.REPUL.0>
0

>  <SCORE.INTRA.SOLV>
0.384981

>  <SCORE.INTRA.SOLV.lig_0>
-70.9803

>  <SCORE.INTRA.VDW>
-1.1076

>  <SCORE.INTRA.VDW.0>
-0.709409

>  <SCORE.INTRA.norm>
-0.050449

>  <SCORE.RESTR>
0

>  <SCORE.RESTR.CAVITY>
0

>  <SCORE.RESTR.norm>
0

>  <SCORE.SYSTEM>
0

>  <SCORE.SYSTEM.CONST>
0

>  <SCORE.SYSTEM.DIHEDRAL>
0

>  <SCORE.SYSTEM.SOLV>
0

>  <SCORE.SYSTEM.norm>
0

>  <SCORE.heavy>
25

>  <SCORE.norm>
-0.377302

>  <RMSD>
6.241

$$$$
ligand
 OpenBabel11021811503D
libRbt.so/2013.1/901 2013/11/27
 25 27  0  0  0  0  0  0  0  0999 V2000
    6.3919  -24.3151   20.9730 N   0  0  0  0  0  0  0  0  0  0  0  0
    6.4994  -23.0572   21.6449 C   0  0  0  0  0  0  0  0  0  0  0  0
    7.1141  -22.1270   21.1380 O   0  0  0  0  0  0  0  0  0  0  0  0
   10.8610  -23.7284   27.2690 N   0  0  0  0  0  0  0  0  0  0  0  0
    8.9576  -22.9514   28.5096 N   0  0  0  0  0  0  0  0  0  0  0  0
    9.6706  -22.9467   27.3596 C   0  0  0  0  0  0  0  0  0  0  0  0
    9.2756  -22.1979   26.2864 N   0  0  0  0  0  0  0  0  0  0  0  0
    8.1562  -21.4307   26.3163 C   0  0  0  0  0  0  0  0  0  0  0  0
    7.3749  -21.4197   27.4966 C   0  0  0  0  0  0  0  0  0  0  0  0
    7.8036  -20.7084   25.2005 O   0  0  0  0  0  0  0  0  0  0  0  0
    6.0079  -19.2941   27.1626 C   0  0  0  0  0  0  0  0  0  0  0  0
    6.1686  -20.6303   27.6839 N   0  0  0  0  0  0  0  0  0  0  0  0
    6.4860  -18.3016   27.7012 O   0  0  0  0  0  0  0  0  0  0  0  0
    5.1985  -21.2171   28.5062 C   0  0  2  0  0  0  0  0  0  0  0  0
    5.8121  -21.5202   29.8973 C   0  0  0  0  0  0  0  0  0  0  0  0
    7.8184  -22.1966   28.6131 C   0  0  0  0  0  0  0  0  0  0  0  0
    7.0356  -22.2139   29.8520 N   0  0  0  0  0  0  0  0  0  0  0  0
    4.6554  -22.4854   27.8793 C   0  0  0  0  0  0  0  0  0  0  0  0
    3.9046  -22.3448   26.6625 N   0  0  0  0  0  0  0  0  0  0  0  0
    5.8346  -22.8923   22.9676 C   0  0  0  0  0  0  0  0  0  0  0  0
    6.3067  -23.5571   24.0910 C   0  0  0  0  0  0  0  0  0  0  0  0
    5.6647  -23.3814   25.3107 C   0  0  0  0  0  0  0  0  0  0  0  0
    4.5628  -22.5339   25.4080 C   0  0  0  0  0  0  0  0  0  0  0  0
    4.1023  -21.8648   24.2875 C   0  0  0  0  0  0  0  0  0  0  0  0
    4.7374  -22.0489   23.0651 C   0  0  0  0  0  0  0  0  0  0  0  0
  1  2  1  0  0  0  0
  2  3  2  0  0  0  0
  2 20  1  0  0  0  0
  4  6  1  0  0  0  0
  5  6  2  0  0  0  0
  5 16  1  0  0  0  0
  6  7  1  0  0  0  0
  7  8  1  0  0  0  0
  8  9  1  0  0  0  0
  8 10  2  0  0  0  0
  9 12  1  0  0  0  0
  9 16  2  0  0  0  0
 11 13  1  0  0  0  0
 11 12  1  0  0  0  0
 12 14  1  0  0  0  0
 14 15  1  0  0  0  0
 14 18  1  6  0  0  0
 15 17  1  0  0  0  0
 16 17  1  0  0  0  0
 18 19  1  0  0  0  0
 19 23  1  0  0  0  0
 20 21  2  0  0  0  0
 20 25  1  0  0  0  0
 21 22  1  0  0  0  0
 22 23  2  0  0  0  0
 23 24  1  0  0  0  0
 24 25  2  0  0  0  0
M  END
>  <CHROM.1>
-79.48412980,-65.98123391,96.33083107,28.42681124,69.56581477,6.68361910
-21.99852652,26.07971486,-1.74198856,-0.32789385,1.28385383

>  <Name>
ligand

>  <RI>
0

>  <Rbt.Current_Directory>
/home/itssahil/PROJECTS/Mol_Feturizer/New_Systems/rnas/4LVV

>  <Rbt.Executable>
rbdock ($Id: //depot/dev/client3/rdock/2013.1/src/exe/rbdock.cxx#4 $)

>  <Rbt.Library>
libRbt.so (2013.1, Build901 2013/11/27)

>  <Rbt.Parameter_File>
/export/apps/rDock/src/rDock_2013.1_src/data/scripts/dock_solv.prm

>  <Rbt.Receptor>
prm/pocket_docking_7.prm

>  <SCORE>
-10.7032

>  <SCORE.INTER>
-8.15578

>  <SCORE.INTER.CONST>
1

>  <SCORE.INTER.POLAR>
0

>  <SCORE.INTER.ROT>
5

>  <SCORE.INTER.SOLV>
12.3745

>  <SCORE.INTER.VDW>
-16.4953

>  <SCORE.INTER.norm>
-0.326231

>  <SCORE.INTRA>
-2.54743

>  <SCORE.INTRA.DIHEDRAL>
0.0938492

>  <SCORE.INTRA.DIHEDRAL.0>
3.94806

>  <SCORE.INTRA.POLAR>
0

>  <SCORE.INTRA.POLAR.0>
0

>  <SCORE.INTRA.REPUL>
0

>  <SCORE.INTRA.REPUL.0>
0

>  <SCORE.INTRA.SOLV>
0.136608

>  <SCORE.INTRA.SOLV.lig_0>
-70.9803

>  <SCORE.INTRA.VDW>
-2.66266

>  <SCORE.INTRA.VDW.0>
-0.709409

>  <SCORE.INTRA.norm>
-0.101897

>  <SCORE.RESTR>
0

>  <SCORE.RESTR.CAVITY>
0

>  <SCORE.RESTR.norm>
0

>  <SCORE.SYSTEM>
0

>  <SCORE.SYSTEM.CONST>
0

>  <SCORE.SYSTEM.DIHEDRAL>
0

>  <SCORE.SYSTEM.SOLV>
0

>  <SCORE.SYSTEM.norm>
0

>  <SCORE.heavy>
25

>  <SCORE.norm>
-0.428128

>  <RMSD>
6.258

$$$$
ligand
 OpenBabel11021811503D
libRbt.so/2013.1/901 2013/11/27
 25 27  0  0  0  0  0  0  0  0999 V2000
    6.6511  -21.7750   20.8990 N   0  0  0  0  0  0  0  0  0  0  0  0
    6.3591  -22.9679   21.6319 C   0  0  0  0  0  0  0  0  0  0  0  0
    6.6301  -24.0692   21.1695 O   0  0  0  0  0  0  0  0  0  0  0  0
   10.8842  -23.8687   27.1903 N   0  0  0  0  0  0  0  0  0  0  0  0
    9.0536  -22.9134   28.4156 N   0  0  0  0  0  0  0  0  0  0  0  0
    9.7117  -23.0571   27.2421 C   0  0  0  0  0  0  0  0  0  0  0  0
    9.2783  -22.4299   26.1076 N   0  0  0  0  0  0  0  0  0  0  0  0
    8.1736  -21.6412   26.0977 C   0  0  0  0  0  0  0  0  0  0  0  0
    7.4489  -21.4769   27.3025 C   0  0  0  0  0  0  0  0  0  0  0  0
    7.7802  -21.0462   24.9221 O   0  0  0  0  0  0  0  0  0  0  0  0
    6.1008  -19.3765   26.7839 C   0  0  0  0  0  0  0  0  0  0  0  0
    6.2651  -20.6461   27.4501 N   0  0  0  0  0  0  0  0  0  0  0  0
    5.0580  -19.0364   26.2355 O   0  0  0  0  0  0  0  0  0  0  0  0
    5.3257  -21.1132   28.3782 C   0  0  2  0  0  0  0  0  0  0  0  0
    5.9993  -21.2654   29.7662 C   0  0  0  0  0  0  0  0  0  0  0  0
    7.9323  -22.1280   28.4812 C   0  0  0  0  0  0  0  0  0  0  0  0
    7.2085  -21.9851   29.7474 N   0  0  0  0  0  0  0  0  0  0  0  0
    4.7342  -22.4340   27.9289 C   0  0  0  0  0  0  0  0  0  0  0  0
    3.9185  -22.4177   26.7464 N   0  0  0  0  0  0  0  0  0  0  0  0
    5.7337  -22.8466   22.9784 C   0  0  0  0  0  0  0  0  0  0  0  0
    6.1978  -23.5964   24.0504 C   0  0  0  0  0  0  0  0  0  0  0  0
    5.5934  -23.4596   25.2942 C   0  0  0  0  0  0  0  0  0  0  0  0
    4.5376  -22.5667   25.4668 C   0  0  0  0  0  0  0  0  0  0  0  0
    4.0853  -21.8134   24.3975 C   0  0  0  0  0  0  0  0  0  0  0  0
    4.6823  -21.9580   23.1509 C   0  0  0  0  0  0  0  0  0  0  0  0
  1  2  1  0  0  0  0
  2  3  2  0  0  0  0
  2 20  1  0  0  0  0
  4  6  1  0  0  0  0
  5  6  2  0  0  0  0
  5 16  1  0  0  0  0
  6  7  1  0  0  0  0
  7  8  1  0  0  0  0
  8  9  1  0  0  0  0
  8 10  2  0  0  0  0
  9 12  1  0  0  0  0
  9 16  2  0  0  0  0
 11 13  1  0  0  0  0
 11 12  1  0  0  0  0
 12 14  1  0  0  0  0
 14 15  1  0  0  0  0
 14 18  1  6  0  0  0
 15 17  1  0  0  0  0
 16 17  1  0  0  0  0
 18 19  1  0  0  0  0
 19 23  1  0  0  0  0
 20 21  2  0  0  0  0
 20 25  1  0  0  0  0
 21 22  1  0  0  0  0
 22 23  2  0  0  0  0
 23 24  1  0  0  0  0
 24 25  2  0  0  0  0
M  END
>  <CHROM.1>
136.22911313,-66.57823234,87.33725905,39.14630076,-134.90013302,6.62888031
-22.03777442,25.92771972,-1.81066128,-0.38529800,1.32721879

>  <Name>
ligand

>  <RI>
0

>  <Rbt.Current_Directory>
/home/itssahil/PROJECTS/Mol_Feturizer/New_Systems/rnas/4LVV

>  <Rbt.Executable>
rbdock ($Id: //depot/dev/client3/rdock/2013.1/src/exe/rbdock.cxx#4 $)

>  <Rbt.Library>
libRbt.so (2013.1, Build901 2013/11/27)

>  <Rbt.Parameter_File>
/export/apps/rDock/src/rDock_2013.1_src/data/scripts/dock_solv.prm

>  <Rbt.Receptor>
prm/pocket_docking_6.prm

>  <SCORE>
-10.743

>  <SCORE.INTER>
-7.90263

>  <SCORE.INTER.CONST>
1

>  <SCORE.INTER.POLAR>
0

>  <SCORE.INTER.ROT>
5

>  <SCORE.INTER.SOLV>
10.3739

>  <SCORE.INTER.VDW>
-15.6597

>  <SCORE.INTER.norm>
-0.316105

>  <SCORE.INTRA>
-2.84033

>  <SCORE.INTRA.DIHEDRAL>
-0.107014

>  <SCORE.INTRA.DIHEDRAL.0>
3.94806

>  <SCORE.INTRA.POLAR>
0

>  <SCORE.INTRA.POLAR.0>
0

>  <SCORE.INTRA.REPUL>
0

>  <SCORE.INTRA.REPUL.0>
0

>  <SCORE.INTRA.SOLV>
0.982506

>  <SCORE.INTRA.SOLV.lig_0>
-70.9803

>  <SCORE.INTRA.VDW>
-3.27808

>  <SCORE.INTRA.VDW.0>
-0.709409

>  <SCORE.INTRA.norm>
-0.113613

>  <SCORE.RESTR>
0

>  <SCORE.RESTR.CAVITY>
0

>  <SCORE.RESTR.norm>
0

>  <SCORE.SYSTEM>
0

>  <SCORE.SYSTEM.CONST>
0

>  <SCORE.SYSTEM.DIHEDRAL>
0

>  <SCORE.SYSTEM.SOLV>
0

>  <SCORE.SYSTEM.norm>
0

>  <SCORE.heavy>
25

>  <SCORE.norm>
-0.429718

>  <RMSD>
6.260

$$$$
ligand
 OpenBabel11021811503D
libRbt.so/2013.1/901 2013/11/27
 25 27  0  0  0  0  0  0  0  0999 V2000
    6.9356  -21.8880   21.0164 N   0  0  0  0  0  0  0  0  0  0  0  0
    6.3657  -23.0251   21.6703 C   0  0  0  0  0  0  0  0  0  0  0  0
    6.4151  -24.1345   21.1537 O   0  0  0  0  0  0  0  0  0  0  0  0
   10.9266  -23.8463   27.0143 N   0  0  0  0  0  0  0  0  0  0  0  0
    9.1325  -22.9178   28.3121 N   0  0  0  0  0  0  0  0  0  0  0  0
    9.7554  -23.0377   27.1169 C   0  0  0  0  0  0  0  0  0  0  0  0
    9.2878  -22.3891   26.0083 N   0  0  0  0  0  0  0  0  0  0  0  0
    8.1826  -21.6019   26.0468 C   0  0  0  0  0  0  0  0  0  0  0  0
    7.4941  -21.4623   27.2756 C   0  0  0  0  0  0  0  0  0  0  0  0
    7.7538  -20.9847   24.8952 O   0  0  0  0  0  0  0  0  0  0  0  0
    6.1292  -19.3541   26.8385 C   0  0  0  0  0  0  0  0  0  0  0  0
    6.3144  -20.6362   27.4746 N   0  0  0  0  0  0  0  0  0  0  0  0
    5.1565  -19.0848   26.1420 O   0  0  0  0  0  0  0  0  0  0  0  0
    5.4036  -21.1227   28.4209 C   0  0  2  0  0  0  0  0  0  0  0  0
    6.1184  -21.3009   29.7850 C   0  0  0  0  0  0  0  0  0  0  0  0
    8.0129  -22.1355   28.4264 C   0  0  0  0  0  0  0  0  0  0  0  0
    7.3271  -22.0183   29.7162 N   0  0  0  0  0  0  0  0  0  0  0  0
    4.8001  -22.4354   27.9638 C   0  0  0  0  0  0  0  0  0  0  0  0
    3.9652  -22.4004   26.7951 N   0  0  0  0  0  0  0  0  0  0  0  0
    5.7246  -22.8393   23.0019 C   0  0  0  0  0  0  0  0  0  0  0  0
    4.6652  -21.9576   23.1665 C   0  0  0  0  0  0  0  0  0  0  0  0
    4.0882  -21.8076   24.4217 C   0  0  0  0  0  0  0  0  0  0  0  0
    4.5612  -22.5465   25.5043 C   0  0  0  0  0  0  0  0  0  0  0  0
    5.6107  -23.4323   25.3330 C   0  0  0  0  0  0  0  0  0  0  0  0
    6.1952  -23.5744   24.0803 C   0  0  0  0  0  0  0  0  0  0  0  0
  1  2  1  0  0  0  0
  2  3  2  0  0  0  0
  2 20  1  0  0  0  0
  4  6  1  0  0  0  0
  5  6  2  0  0  0  0
  5 16  1  0  0  0  0
  6  7  1  0  0  0  0
  7  8  1  0  0  0  0
  8  9  1  0  0  0  0
  8 10  2  0  0  0  0
  9 12  1  0  0  0  0
  9 16  2  0  0  0  0
 11 13  1  0  0  0  0
 11 12  1  0  0  0  0
 12 14  1  0  0  0  0
 14 15  1  0  0  0  0
 14 18  1  6  0  0  0
 15 17  1  0  0  0  0
 16 17  1  0  0  0  0
 18 19  1  0  0  0  0
 19 23  1  0  0  0  0
 20 21  2  0  0  0  0
 20 25  1  0  0  0  0
 21 22  1  0  0  0  0
 22 23  2  0  0  0  0
 23 24  1  0  0  0  0
 24 25  2  0  0  0  0
M  END
>  <CHROM.1>
123.91346727,-65.69535746,87.90830617,-142.21574121,58.42511862,6.66774157
-22.04047256,25.91638525,-1.81021895,-0.36559761,1.31766781

>  <Name>
ligand

>  <RI>
0

>  <Rbt.Current_Directory>
/home/itssahil/PROJECTS/Mol_Feturizer/New_Systems/rnas/4LVV

>  <Rbt.Executable>
rbdock ($Id: //depot/dev/client3/rdock/2013.1/src/exe/rbdock.cxx#4 $)

>  <Rbt.Library>
libRbt.so (2013.1, Build901 2013/11/27)

>  <Rbt.Parameter_File>
/export/apps/rDock/src/rDock_2013.1_src/data/scripts/dock_solv.prm

>  <Rbt.Receptor>
prm/pocket_docking_6.prm

>  <SCORE>
-10.6944

>  <SCORE.INTER>
-7.85489

>  <SCORE.INTER.CONST>
1

>  <SCORE.INTER.POLAR>
0

>  <SCORE.INTER.ROT>
5

>  <SCORE.INTER.SOLV>
10.413

>  <SCORE.INTER.VDW>
-15.6409

>  <SCORE.INTER.norm>
-0.314196

>  <SCORE.INTRA>
-2.83948

>  <SCORE.INTRA.DIHEDRAL>
-0.0590656

>  <SCORE.INTRA.DIHEDRAL.0>
3.94806

>  <SCORE.INTRA.POLAR>
0

>  <SCORE.INTRA.POLAR.0>
0

>  <SCORE.INTRA.REPUL>
0

>  <SCORE.INTRA.REPUL.0>
0

>  <SCORE.INTRA.SOLV>
1.11302

>  <SCORE.INTRA.SOLV.lig_0>
-70.9803

>  <SCORE.INTRA.VDW>
-3.36645

>  <SCORE.INTRA.VDW.0>
-0.709409

>  <SCORE.INTRA.norm>
-0.113579

>  <SCORE.RESTR>
0

>  <SCORE.RESTR.CAVITY>
0

>  <SCORE.RESTR.norm>
0

>  <SCORE.SYSTEM>
0

>  <SCORE.SYSTEM.CONST>
0

>  <SCORE.SYSTEM.DIHEDRAL>
0

>  <SCORE.SYSTEM.SOLV>
0

>  <SCORE.SYSTEM.norm>
0

>  <SCORE.heavy>
25

>  <SCORE.norm>
-0.427775

>  <RMSD>
6.267

$$$$
ligand
 OpenBabel11021811503D
libRbt.so/2013.1/901 2013/11/27
 25 27  0  0  0  0  0  0  0  0999 V2000
    6.9048  -21.8346   20.9933 N   0  0  0  0  0  0  0  0  0  0  0  0
    6.3532  -22.9974   21.6171 C   0  0  0  0  0  0  0  0  0  0  0  0
    6.4009  -24.0881   21.0618 O   0  0  0  0  0  0  0  0  0  0  0  0
   10.9153  -23.8176   27.2399 N   0  0  0  0  0  0  0  0  0  0  0  0
    9.0648  -22.8829   28.4513 N   0  0  0  0  0  0  0  0  0  0  0  0
    9.7380  -23.0125   27.2847 C   0  0  0  0  0  0  0  0  0  0  0  0
    9.3152  -22.3772   26.1507 N   0  0  0  0  0  0  0  0  0  0  0  0
    8.2066  -21.5941   26.1345 C   0  0  0  0  0  0  0  0  0  0  0  0
    7.4664  -21.4445   27.3317 C   0  0  0  0  0  0  0  0  0  0  0  0
    7.8245  -20.9903   24.9595 O   0  0  0  0  0  0  0  0  0  0  0  0
    6.1138  -19.3463   26.8157 C   0  0  0  0  0  0  0  0  0  0  0  0
    6.2766  -20.6211   27.4723 N   0  0  0  0  0  0  0  0  0  0  0  0
    6.6626  -18.3189   27.1993 O   0  0  0  0  0  0  0  0  0  0  0  0
    5.3284  -21.1014   28.3845 C   0  0  2  0  0  0  0  0  0  0  0  0
    5.9858  -21.2629   29.7793 C   0  0  0  0  0  0  0  0  0  0  0  0
    7.9387  -22.1039   28.5103 C   0  0  0  0  0  0  0  0  0  0  0  0
    7.1988  -21.9762   29.7688 N   0  0  0  0  0  0  0  0  0  0  0  0
    4.7493  -22.4211   27.9161 C   0  0  0  0  0  0  0  0  0  0  0  0
    3.9320  -22.3950   26.7348 N   0  0  0  0  0  0  0  0  0  0  0  0
    5.7336  -22.8619   22.9648 C   0  0  0  0  0  0  0  0  0  0  0  0
    6.2240  -23.5748   24.0502 C   0  0  0  0  0  0  0  0  0  0  0  0
    5.6242  -23.4256   25.2947 C   0  0  0  0  0  0  0  0  0  0  0  0
    4.5465  -22.5568   25.4546 C   0  0  0  0  0  0  0  0  0  0  0  0
    4.0678  -21.8400   24.3718 C   0  0  0  0  0  0  0  0  0  0  0  0
    4.6604  -21.9974   23.1247 C   0  0  0  0  0  0  0  0  0  0  0  0
  1  2  1  0  0  0  0
  2  3  2  0  0  0  0
  2 20  1  0  0  0  0
  4  6  1  0  0  0  0
  5  6  2  0  0  0  0
  5 16  1  0  0  0  0
  6  7  1  0  0  0  0
  7  8  1  0  0  0  0
  8  9  1  0  0  0  0
  8 10  2  0  0  0  0
  9 12  1  0  0  0  0
  9 16  2  0  0  0  0
 11 13  1  0  0  0  0
 11 12  1  0  0  0  0
 12 14  1  0  0  0  0
 14 15  1  0  0  0  0
 14 18  1  6  0  0  0
 15 17  1  0  0  0  0
 16 17  1  0  0  0  0
 18 19  1  0  0  0  0
 19 23  1  0  0  0  0
 20 21  2  0  0  0  0
 20 25  1  0  0  0  0
 21 22  1  0  0  0  0
 22 23  2  0  0  0  0
 23 24  1  0  0  0  0
 24 25  2  0  0  0  0
M  END
>  <CHROM.1>
-76.63565029,-67.46167225,89.10928227,36.47534751,-119.92282879,6.71613032
-21.98994105,25.98456115,-1.80546234,-0.34363448,1.28031563

>  <Name>
ligand

>  <RI>
0

>  <Rbt.Current_Directory>
/home/itssahil/PROJECTS/Mol_Feturizer/New_Systems/rnas/4LVV

>  <Rbt.Executable>
rbdock ($Id: //depot/dev/client3/rdock/2013.1/src/exe/rbdock.cxx#4 $)

>  <Rbt.Library>
libRbt.so (2013.1, Build901 2013/11/27)

>  <Rbt.Parameter_File>
/export/apps/rDock/src/rDock_2013.1_src/data/scripts/dock_solv.prm

>  <Rbt.Receptor>
prm/pocket_docking_6.prm

>  <SCORE>
-10.8424

>  <SCORE.INTER>
-7.95457

>  <SCORE.INTER.CONST>
1

>  <SCORE.INTER.POLAR>
0

>  <SCORE.INTER.ROT>
5

>  <SCORE.INTER.SOLV>
10.3297

>  <SCORE.INTER.VDW>
-15.6796

>  <SCORE.INTER.norm>
-0.318183

>  <SCORE.INTRA>
-2.88781

>  <SCORE.INTRA.DIHEDRAL>
-0.0590915

>  <SCORE.INTRA.DIHEDRAL.0>
3.94806

>  <SCORE.INTRA.POLAR>
0

>  <SCORE.INTRA.POLAR.0>
0

>  <SCORE.INTRA.REPUL>
0

>  <SCORE.INTRA.REPUL.0>
0

>  <SCORE.INTRA.SOLV>
0.364283

>  <SCORE.INTRA.SOLV.lig_0>
-70.9803

>  <SCORE.INTRA.VDW>
-3.04041

>  <SCORE.INTRA.VDW.0>
-0.709409

>  <SCORE.INTRA.norm>
-0.115512

>  <SCORE.RESTR>
0

>  <SCORE.RESTR.CAVITY>
0

>  <SCORE.RESTR.norm>
0

>  <SCORE.SYSTEM>
0

>  <SCORE.SYSTEM.CONST>
0

>  <SCORE.SYSTEM.DIHEDRAL>
0

>  <SCORE.SYSTEM.SOLV>
0

>  <SCORE.SYSTEM.norm>
0

>  <SCORE.heavy>
25

>  <SCORE.norm>
-0.433695

>  <RMSD>
6.280

$$$$
ligand
 OpenBabel11021811503D
libRbt.so/2013.1/901 2013/11/27
 25 27  0  0  0  0  0  0  0  0999 V2000
    7.5606  -23.2242   21.7677 N   0  0  0  0  0  0  0  0  0  0  0  0
    6.1680  -22.9106   21.8554 C   0  0  0  0  0  0  0  0  0  0  0  0
    5.4880  -22.7916   20.8437 O   0  0  0  0  0  0  0  0  0  0  0  0
   10.8487  -23.7982   27.2200 N   0  0  0  0  0  0  0  0  0  0  0  0
    9.0590  -22.8554   28.5137 N   0  0  0  0  0  0  0  0  0  0  0  0
    9.6749  -22.9925   27.3167 C   0  0  0  0  0  0  0  0  0  0  0  0
    9.1977  -22.3641   26.2006 N   0  0  0  0  0  0  0  0  0  0  0  0
    8.0896  -21.5808   26.2332 C   0  0  0  0  0  0  0  0  0  0  0  0
    7.4083  -21.4236   27.4639 C   0  0  0  0  0  0  0  0  0  0  0  0
    7.6511  -20.9844   25.0743 O   0  0  0  0  0  0  0  0  0  0  0  0
    6.0322  -19.3283   27.0009 C   0  0  0  0  0  0  0  0  0  0  0  0
    6.2266  -20.5991   27.6568 N   0  0  0  0  0  0  0  0  0  0  0  0
    5.1266  -19.1174   26.2013 O   0  0  0  0  0  0  0  0  0  0  0  0
    5.3237  -21.0734   28.6167 C   0  0  2  0  0  0  0  0  0  0  0  0
    6.0478  -21.2263   29.9790 C   0  0  0  0  0  0  0  0  0  0  0  0
    7.9371  -22.0757   28.6223 C   0  0  0  0  0  0  0  0  0  0  0  0
    7.2589  -21.9400   29.9143 N   0  0  0  0  0  0  0  0  0  0  0  0
    4.7227  -22.3958   28.1851 C   0  0  0  0  0  0  0  0  0  0  0  0
    3.8628  -22.3797   27.0343 N   0  0  0  0  0  0  0  0  0  0  0  0
    5.5536  -22.7479   23.2025 C   0  0  0  0  0  0  0  0  0  0  0  0
    4.5690  -21.7955   23.4270 C   0  0  0  0  0  0  0  0  0  0  0  0
    4.0150  -21.6693   24.6951 C   0  0  0  0  0  0  0  0  0  0  0  0
    4.4357  -22.5015   25.7306 C   0  0  0  0  0  0  0  0  0  0  0  0
    5.4101  -23.4568   25.4994 C   0  0  0  0  0  0  0  0  0  0  0  0
    5.9722  -23.5759   24.2340 C   0  0  0  0  0  0  0  0  0  0  0  0
  1  2  1  0  0  0  0
  2  3  2  0  0  0  0
  2 20  1  0  0  0  0
  4  6  1  0  0  0  0
  5  6  2  0  0  0  0
  5 16  1  0  0  0  0
  6  7  1  0  0  0  0
  7  8  1  0  0  0  0
  8  9  1  0  0  0  0
  8 10  2  0  0  0  0
  9 12  1  0  0  0  0
  9 16  2  0  0  0  0
 11 13  1  0  0  0  0
 11 12  1  0  0  0  0
 12 14  1  0  0  0  0
 14 15  1  0  0  0  0
 14 18  1  6  0  0  0
 15 17  1  0  0  0  0
 16 17  1  0  0  0  0
 18 19  1  0  0  0  0
 19 23  1  0  0  0  0
 20 21  2  0  0  0  0
 20 25  1  0  0  0  0
 21 22  1  0  0  0  0
 22 23  2  0  0  0  0
 23 24  1  0  0  0  0
 24 25  2  0  0  0  0
M  END
>  <CHROM.1>
116.39479564,-66.68092605,86.45069729,-135.33329706,143.40458111,6.55742774
-21.98961788,26.10833317,-1.85971077,-0.34919317,1.32852311

>  <Name>
ligand

>  <RI>
0

>  <Rbt.Current_Directory>
/home/itssahil/PROJECTS/Mol_Feturizer/New_Systems/rnas/4LVV

>  <Rbt.Executable>
rbdock ($Id: //depot/dev/client3/rdock/2013.1/src/exe/rbdock.cxx#4 $)

>  <Rbt.Library>
libRbt.so (2013.1, Build901 2013/11/27)

>  <Rbt.Parameter_File>
/export/apps/rDock/src/rDock_2013.1_src/data/scripts/dock_solv.prm

>  <Rbt.Receptor>
prm/pocket_docking_6.prm

>  <SCORE>
-10.7548

>  <SCORE.INTER>
-7.84833

>  <SCORE.INTER.CONST>
1

>  <SCORE.INTER.POLAR>
0

>  <SCORE.INTER.ROT>
5

>  <SCORE.INTER.SOLV>
10.6213

>  <SCORE.INTER.VDW>
-15.706

>  <SCORE.INTER.norm>
-0.313933

>  <SCORE.INTRA>
-2.90648

>  <SCORE.INTRA.DIHEDRAL>
-0.0186976

>  <SCORE.INTRA.DIHEDRAL.0>
3.94806

>  <SCORE.INTRA.POLAR>
0

>  <SCORE.INTRA.POLAR.0>
0

>  <SCORE.INTRA.REPUL>
0

>  <SCORE.INTRA.REPUL.0>
0

>  <SCORE.INTRA.SOLV>
1.20062

>  <SCORE.INTRA.SOLV.lig_0>
-70.9803

>  <SCORE.INTRA.VDW>
-3.49744

>  <SCORE.INTRA.VDW.0>
-0.709409

>  <SCORE.INTRA.norm>
-0.116259

>  <SCORE.RESTR>
0

>  <SCORE.RESTR.CAVITY>
0

>  <SCORE.RESTR.norm>
0

>  <SCORE.SYSTEM>
0

>  <SCORE.SYSTEM.CONST>
0

>  <SCORE.SYSTEM.DIHEDRAL>
0

>  <SCORE.SYSTEM.SOLV>
0

>  <SCORE.SYSTEM.norm>
0

>  <SCORE.heavy>
25

>  <SCORE.norm>
-0.430192

>  <RMSD>
6.289

$$$$
ligand
 OpenBabel11021811503D
libRbt.so/2013.1/901 2013/11/27
 25 27  0  0  0  0  0  0  0  0999 V2000
    4.8765  -22.3315   28.9907 N   0  0  0  0  0  0  0  0  0  0  0  0
    4.3734  -21.5472   27.9058 C   0  0  0  0  0  0  0  0  0  0  0  0
    3.6552  -20.5773   28.1146 O   0  0  0  0  0  0  0  0  0  0  0  0
    4.6106  -18.0624   20.7713 N   0  0  0  0  0  0  0  0  0  0  0  0
    5.3650  -20.2744   20.2205 N   0  0  0  0  0  0  0  0  0  0  0  0
    5.5640  -19.1172   20.8929 C   0  0  0  0  0  0  0  0  0  0  0  0
    6.6679  -18.9374   21.6786 N   0  0  0  0  0  0  0  0  0  0  0  0
    7.6110  -19.9023   21.8274 C   0  0  0  0  0  0  0  0  0  0  0  0
    7.4320  -21.1331   21.1516 C   0  0  0  0  0  0  0  0  0  0  0  0
    8.6940  -19.6670   22.6414 O   0  0  0  0  0  0  0  0  0  0  0  0
    9.7998  -22.0757   21.2096 C   0  0  0  0  0  0  0  0  0  0  0  0
    8.3668  -22.2457   21.1958 N   0  0  0  0  0  0  0  0  0  0  0  0
   10.5387  -22.6700   21.9871 O   0  0  0  0  0  0  0  0  0  0  0  0
    7.7807  -23.5152   21.1150 C   0  0  2  0  0  0  0  0  0  0  0  0
    6.9482  -23.6201   19.8113 C   0  0  0  0  0  0  0  0  0  0  0  0
    6.2785  -21.2912   20.3202 C   0  0  0  0  0  0  0  0  0  0  0  0
    6.0559  -22.5515   19.6063 N   0  0  0  0  0  0  0  0  0  0  0  0
    6.9075  -23.7843   22.3239 C   0  0  0  0  0  0  0  0  0  0  0  0
    5.8205  -22.8754   22.5618 N   0  0  0  0  0  0  0  0  0  0  0  0
    4.7529  -21.9212   26.5148 C   0  0  0  0  0  0  0  0  0  0  0  0
    4.7159  -23.2444   26.0968 C   0  0  0  0  0  0  0  0  0  0  0  0
    5.0753  -23.5604   24.7922 C   0  0  0  0  0  0  0  0  0  0  0  0
    5.4576  -22.5549   23.9065 C   0  0  0  0  0  0  0  0  0  0  0  0
    5.4826  -21.2359   24.3248 C   0  0  0  0  0  0  0  0  0  0  0  0
    5.1339  -20.9206   25.6325 C   0  0  0  0  0  0  0  0  0  0  0  0
  1  2  1  0  0  0  0
  2  3  2  0  0  0  0
  2 20  1  0  0  0  0
  4  6  1  0  0  0  0
  5  6  2  0  0  0  0
  5 16  1  0  0  0  0
  6  7  1  0  0  0  0
  7  8  1  0  0  0  0
  8  9  1  0  0  0  0
  8 10  2  0  0  0  0
  9 12  1  0  0  0  0
  9 16  2  0  0  0  0
 11 13  1  0  0  0  0
 11 12  1  0  0  0  0
 12 14  1  0  0  0  0
 14 15  1  0  0  0  0
 14 18  1  1  0  0  0
 15 17  1  0  0  0  0
 16 17  1  0  0  0  0
 18 19  1  0  0  0  0
 19 23  1  0  0  0  0
 20 21  2  0  0  0  0
 20 25  1  0  0  0  0
 21 22  1  0  0  0  0
 22 23  2  0  0  0  0
 23 24  1  0  0  0  0
 24 25  2  0  0  0  0
M  END
>  <CHROM.1>
133.01681807,58.98041367,-144.76908289,-58.62966271,44.97935394,6.38372347
-21.57421064,22.99049460,-2.28641629,0.86887098,-0.94709222

>  <Name>
ligand

>  <RI>
0

>  <Rbt.Current_Directory>
/home/itssahil/PROJECTS/Mol_Feturizer/New_Systems/rnas/4LVV

>  <Rbt.Executable>
rbdock ($Id: //depot/dev/client3/rdock/2013.1/src/exe/rbdock.cxx#4 $)

>  <Rbt.Library>
libRbt.so (2013.1, Build901 2013/11/27)

>  <Rbt.Parameter_File>
/export/apps/rDock/src/rDock_2013.1_src/data/scripts/dock_solv.prm

>  <Rbt.Receptor>
prm/pocket_docking_5.prm

>  <SCORE>
-4.76094

>  <SCORE.INTER>
-4.18466

>  <SCORE.INTER.CONST>
1

>  <SCORE.INTER.POLAR>
0

>  <SCORE.INTER.ROT>
5

>  <SCORE.INTER.SOLV>
11.8111

>  <SCORE.INTER.VDW>
-13.6602

>  <SCORE.INTER.norm>
-0.167387

>  <SCORE.INTRA>
-0.576272

>  <SCORE.INTRA.DIHEDRAL>
-0.0302117

>  <SCORE.INTRA.DIHEDRAL.0>
3.94806

>  <SCORE.INTRA.POLAR>
0

>  <SCORE.INTRA.POLAR.0>
0

>  <SCORE.INTRA.REPUL>
0

>  <SCORE.INTRA.REPUL.0>
0

>  <SCORE.INTRA.SOLV>
2.28758

>  <SCORE.INTRA.SOLV.lig_0>
-70.9803

>  <SCORE.INTRA.VDW>
-1.70496

>  <SCORE.INTRA.VDW.0>
-0.709409

>  <SCORE.INTRA.norm>
-0.0230509

>  <SCORE.RESTR>
0

>  <SCORE.RESTR.CAVITY>
0

>  <SCORE.RESTR.norm>
0

>  <SCORE.SYSTEM>
0

>  <SCORE.SYSTEM.CONST>
0

>  <SCORE.SYSTEM.DIHEDRAL>
0

>  <SCORE.SYSTEM.SOLV>
0

>  <SCORE.SYSTEM.norm>
0

>  <SCORE.heavy>
25

>  <SCORE.norm>
-0.190437

>  <RMSD>
6.291

$$$$
ligand
 OpenBabel11021811503D
libRbt.so/2013.1/901 2013/11/27
 25 27  0  0  0  0  0  0  0  0999 V2000
    8.5470  -14.1566   25.2435 N   0  0  0  0  0  0  0  0  0  0  0  0
    7.1186  -14.1510   25.3150 C   0  0  0  0  0  0  0  0  0  0  0  0
    6.4883  -13.1114   25.1670 O   0  0  0  0  0  0  0  0  0  0  0  0
    6.9780  -22.6517   20.4319 N   0  0  0  0  0  0  0  0  0  0  0  0
    4.9761  -22.2253   21.6871 N   0  0  0  0  0  0  0  0  0  0  0  0
    6.3034  -22.4880   21.6786 C   0  0  0  0  0  0  0  0  0  0  0  0
    7.0071  -22.6094   22.8441 N   0  0  0  0  0  0  0  0  0  0  0  0
    6.4180  -22.4700   24.0590 C   0  0  0  0  0  0  0  0  0  0  0  0
    5.0334  -22.1804   24.1103 C   0  0  0  0  0  0  0  0  0  0  0  0
    7.1812  -22.5915   25.1965 O   0  0  0  0  0  0  0  0  0  0  0  0
    4.4819  -22.8348   26.5115 C   0  0  0  0  0  0  0  0  0  0  0  0
    4.2639  -22.0289   25.3343 N   0  0  0  0  0  0  0  0  0  0  0  0
    4.4573  -22.3800   27.6501 O   0  0  0  0  0  0  0  0  0  0  0  0
    3.2097  -21.1096   25.2612 C   0  0  2  0  0  0  0  0  0  0  0  0
    2.2451  -21.5164   24.1177 C   0  0  0  0  0  0  0  0  0  0  0  0
    4.3141  -22.0766   22.8780 C   0  0  0  0  0  0  0  0  0  0  0  0
    2.8801  -21.7749   22.8887 N   0  0  0  0  0  0  0  0  0  0  0  0
    3.7332  -19.7052   25.0378 C   0  0  0  0  0  0  0  0  0  0  0  0
    4.3317  -19.0427   26.1636 N   0  0  0  0  0  0  0  0  0  0  0  0
    6.4082  -15.4379   25.5558 C   0  0  0  0  0  0  0  0  0  0  0  0
    6.7170  -16.2282   26.6544 C   0  0  0  0  0  0  0  0  0  0  0  0
    6.0353  -17.4230   26.8515 C   0  0  0  0  0  0  0  0  0  0  0  0
    5.0401  -17.8183   25.9598 C   0  0  0  0  0  0  0  0  0  0  0  0
    4.7283  -17.0218   24.8719 C   0  0  0  0  0  0  0  0  0  0  0  0
    5.4175  -15.8323   24.6683 C   0  0  0  0  0  0  0  0  0  0  0  0
  1  2  1  0  0  0  0
  2  3  2  0  0  0  0
  2 20  1  0  0  0  0
  4  6  1  0  0  0  0
  5  6  2  0  0  0  0
  5 16  1  0  0  0  0
  6  7  1  0  0  0  0
  7  8  1  0  0  0  0
  8  9  1  0  0  0  0
  8 10  2  0  0  0  0
  9 12  1  0  0  0  0
  9 16  2  0  0  0  0
 11 13  1  0  0  0  0
 11 12  1  0  0  0  0
 12 14  1  0  0  0  0
 14 15  1  0  0  0  0
 14 18  1  6  0  0  0
 15 17  1  0  0  0  0
 16 17  1  0  0  0  0
 18 19  1  0  0  0  0
 19 23  1  0  0  0  0
 20 21  2  0  0  0  0
 20 25  1  0  0  0  0
 21 22  1  0  0  0  0
 22 23  2  0  0  0  0
 23 24  1  0  0  0  0
 24 25  2  0  0  0  0
M  END
>  <CHROM.1>
139.33871531,-75.08856892,169.49523030,-155.05136107,54.94387873,5.36411046
-19.70264810,24.65916814,-1.23143521,-0.92572530,-2.61833278

>  <Name>
ligand

>  <RI>
0

>  <Rbt.Current_Directory>
/home/itssahil/PROJECTS/Mol_Feturizer/New_Systems/rnas/4LVV

>  <Rbt.Executable>
rbdock ($Id: //depot/dev/client3/rdock/2013.1/src/exe/rbdock.cxx#4 $)

>  <Rbt.Library>
libRbt.so (2013.1, Build901 2013/11/27)

>  <Rbt.Parameter_File>
/export/apps/rDock/src/rDock_2013.1_src/data/scripts/dock_solv.prm

>  <Rbt.Receptor>
prm/pocket_docking_7.prm

>  <SCORE>
-9.42594

>  <SCORE.INTER>
-9.2298

>  <SCORE.INTER.CONST>
1

>  <SCORE.INTER.POLAR>
0

>  <SCORE.INTER.ROT>
5

>  <SCORE.INTER.SOLV>
10.2765

>  <SCORE.INTER.VDW>
-16.512

>  <SCORE.INTER.norm>
-0.369192

>  <SCORE.INTRA>
-0.196134

>  <SCORE.INTRA.DIHEDRAL>
0.0338224

>  <SCORE.INTRA.DIHEDRAL.0>
3.94806

>  <SCORE.INTRA.POLAR>
0

>  <SCORE.INTRA.POLAR.0>
0

>  <SCORE.INTRA.REPUL>
0

>  <SCORE.INTRA.REPUL.0>
0

>  <SCORE.INTRA.SOLV>
0.120942

>  <SCORE.INTRA.SOLV.lig_0>
-70.9803

>  <SCORE.INTRA.VDW>
-0.273516

>  <SCORE.INTRA.VDW.0>
-0.709409

>  <SCORE.INTRA.norm>
-0.00784538

>  <SCORE.RESTR>
0

>  <SCORE.RESTR.CAVITY>
0

>  <SCORE.RESTR.norm>
0

>  <SCORE.SYSTEM>
0

>  <SCORE.SYSTEM.CONST>
0

>  <SCORE.SYSTEM.DIHEDRAL>
0

>  <SCORE.SYSTEM.SOLV>
0

>  <SCORE.SYSTEM.norm>
0

>  <SCORE.heavy>
25

>  <SCORE.norm>
-0.377037

>  <RMSD>
6.291

$$$$
ligand
 OpenBabel11021811503D
libRbt.so/2013.1/901 2013/11/27
 25 27  0  0  0  0  0  0  0  0999 V2000
    5.5316  -22.7920   20.7637 N   0  0  0  0  0  0  0  0  0  0  0  0
    6.3137  -22.9913   21.9443 C   0  0  0  0  0  0  0  0  0  0  0  0
    7.5005  -23.2843   21.8672 O   0  0  0  0  0  0  0  0  0  0  0  0
   10.8411  -23.8394   27.4567 N   0  0  0  0  0  0  0  0  0  0  0  0
    9.0292  -22.8255   28.6626 N   0  0  0  0  0  0  0  0  0  0  0  0
    9.6679  -23.0277   27.4870 C   0  0  0  0  0  0  0  0  0  0  0  0
    9.2143  -22.4594   26.3296 N   0  0  0  0  0  0  0  0  0  0  0  0
    8.1079  -21.6736   26.2984 C   0  0  0  0  0  0  0  0  0  0  0  0
    7.4032  -21.4493   27.5053 C   0  0  0  0  0  0  0  0  0  0  0  0
    7.6937  -21.1395   25.1008 O   0  0  0  0  0  0  0  0  0  0  0  0
    6.0421  -19.3796   26.9035 C   0  0  0  0  0  0  0  0  0  0  0  0
    6.2202  -20.6136   27.6304 N   0  0  0  0  0  0  0  0  0  0  0  0
    6.3862  -18.2871   27.3415 O   0  0  0  0  0  0  0  0  0  0  0  0
    5.2975  -21.0342   28.5965 C   0  0  2  0  0  0  0  0  0  0  0  0
    5.9945  -21.1149   29.9790 C   0  0  0  0  0  0  0  0  0  0  0  0
    7.9075  -22.0392   28.7071 C   0  0  0  0  0  0  0  0  0  0  0  0
    7.2046  -21.8331   29.9765 N   0  0  0  0  0  0  0  0  0  0  0  0
    4.7013  -22.3768   28.2248 C   0  0  0  0  0  0  0  0  0  0  0  0
    3.8690  -22.4223   27.0547 N   0  0  0  0  0  0  0  0  0  0  0  0
    5.6625  -22.8190   23.2729 C   0  0  0  0  0  0  0  0  0  0  0  0
    4.6549  -21.8822   23.4571 C   0  0  0  0  0  0  0  0  0  0  0  0
    4.0669  -21.7464   24.7087 C   0  0  0  0  0  0  0  0  0  0  0  0
    4.4768  -22.5538   25.7679 C   0  0  0  0  0  0  0  0  0  0  0  0
    5.4744  -23.4939   25.5767 C   0  0  0  0  0  0  0  0  0  0  0  0
    6.0704  -23.6223   24.3279 C   0  0  0  0  0  0  0  0  0  0  0  0
  1  2  1  0  0  0  0
  2  3  2  0  0  0  0
  2 20  1  0  0  0  0
  4  6  1  0  0  0  0
  5  6  2  0  0  0  0
  5 16  1  0  0  0  0
  6  7  1  0  0  0  0
  7  8  1  0  0  0  0
  8  9  1  0  0  0  0
  8 10  2  0  0  0  0
  9 12  1  0  0  0  0
  9 16  2  0  0  0  0
 11 13  1  0  0  0  0
 11 12  1  0  0  0  0
 12 14  1  0  0  0  0
 14 15  1  0  0  0  0
 14 18  1  6  0  0  0
 15 17  1  0  0  0  0
 16 17  1  0  0  0  0
 18 19  1  0  0  0  0
 19 23  1  0  0  0  0
 20 21  2  0  0  0  0
 20 25  1  0  0  0  0
 21 22  1  0  0  0  0
 22 23  2  0  0  0  0
 23 24  1  0  0  0  0
 24 25  2  0  0  0  0
M  END
>  <CHROM.1>
-91.17456894,-66.41039937,83.47799221,-134.10120201,-33.29621674,6.64500196
-21.98070562,26.21992873,-1.81632915,-0.36257379,1.27561416

>  <Name>
ligand

>  <RI>
0

>  <Rbt.Current_Directory>
/home/itssahil/PROJECTS/Mol_Feturizer/New_Systems/rnas/4LVV

>  <Rbt.Executable>
rbdock ($Id: //depot/dev/client3/rdock/2013.1/src/exe/rbdock.cxx#4 $)

>  <Rbt.Library>
libRbt.so (2013.1, Build901 2013/11/27)

>  <Rbt.Parameter_File>
/export/apps/rDock/src/rDock_2013.1_src/data/scripts/dock_solv.prm

>  <Rbt.Receptor>
prm/pocket_docking_7.prm

>  <SCORE>
-10.4979

>  <SCORE.INTER>
-7.43772

>  <SCORE.INTER.CONST>
1

>  <SCORE.INTER.POLAR>
0

>  <SCORE.INTER.ROT>
5

>  <SCORE.INTER.SOLV>
12.1494

>  <SCORE.INTER.VDW>
-15.9416

>  <SCORE.INTER.norm>
-0.297509

>  <SCORE.INTRA>
-3.06019

>  <SCORE.INTRA.DIHEDRAL>
-0.283845

>  <SCORE.INTRA.DIHEDRAL.0>
3.94806

>  <SCORE.INTRA.POLAR>
0

>  <SCORE.INTRA.POLAR.0>
0

>  <SCORE.INTRA.REPUL>
0

>  <SCORE.INTRA.REPUL.0>
0

>  <SCORE.INTRA.SOLV>
0.619971

>  <SCORE.INTRA.SOLV.lig_0>
-70.9803

>  <SCORE.INTRA.VDW>
-3.22826

>  <SCORE.INTRA.VDW.0>
-0.709409

>  <SCORE.INTRA.norm>
-0.122408

>  <SCORE.RESTR>
0

>  <SCORE.RESTR.CAVITY>
0

>  <SCORE.RESTR.norm>
0

>  <SCORE.SYSTEM>
0

>  <SCORE.SYSTEM.CONST>
0

>  <SCORE.SYSTEM.DIHEDRAL>
0

>  <SCORE.SYSTEM.SOLV>
0

>  <SCORE.SYSTEM.norm>
0

>  <SCORE.heavy>
25

>  <SCORE.norm>
-0.419917

>  <RMSD>
6.316

$$$$
ligand
 OpenBabel11021811503D
libRbt.so/2013.1/901 2013/11/27
 25 27  0  0  0  0  0  0  0  0999 V2000
    8.5764  -13.8684   25.0398 N   0  0  0  0  0  0  0  0  0  0  0  0
    7.1580  -13.8766   25.2229 C   0  0  0  0  0  0  0  0  0  0  0  0
    6.5106  -12.8398   25.1452 O   0  0  0  0  0  0  0  0  0  0  0  0
    7.3649  -23.3271   21.4182 N   0  0  0  0  0  0  0  0  0  0  0  0
    5.3027  -22.6084   22.4162 N   0  0  0  0  0  0  0  0  0  0  0  0
    6.6034  -22.9505   22.5647 C   0  0  0  0  0  0  0  0  0  0  0  0
    7.1976  -22.9513   23.7956 N   0  0  0  0  0  0  0  0  0  0  0  0
    6.5220  -22.6084   24.9219 C   0  0  0  0  0  0  0  0  0  0  0  0
    5.1629  -22.2303   24.8067 C   0  0  0  0  0  0  0  0  0  0  0  0
    7.1777  -22.6168   26.1306 O   0  0  0  0  0  0  0  0  0  0  0  0
    4.3685  -22.5091   27.2129 C   0  0  0  0  0  0  0  0  0  0  0  0
    4.3080  -21.8631   25.9238 N   0  0  0  0  0  0  0  0  0  0  0  0
    4.9188  -22.0099   28.1885 O   0  0  0  0  0  0  0  0  0  0  0  0
    3.3335  -20.9002   25.6323 C   0  0  2  0  0  0  0  0  0  0  0  0
    2.4395  -21.4024   24.4695 C   0  0  0  0  0  0  0  0  0  0  0  0
    4.5573  -22.2551   23.5108 C   0  0  0  0  0  0  0  0  0  0  0  0
    3.1532  -21.8678   23.3496 N   0  0  0  0  0  0  0  0  0  0  0  0
    3.9750  -19.5752   25.2728 C   0  0  0  0  0  0  0  0  0  0  0  0
    4.6297  -18.8563   26.3305 N   0  0  0  0  0  0  0  0  0  0  0  0
    6.4779  -15.1740   25.4932 C   0  0  0  0  0  0  0  0  0  0  0  0
    5.5233  -15.6746   24.6186 C   0  0  0  0  0  0  0  0  0  0  0  0
    4.9076  -16.8884   24.8989 C   0  0  0  0  0  0  0  0  0  0  0  0
    5.2553  -17.6039   26.0430 C   0  0  0  0  0  0  0  0  0  0  0  0
    6.2154  -17.1059   26.9065 C   0  0  0  0  0  0  0  0  0  0  0  0
    6.8234  -15.8867   26.6322 C   0  0  0  0  0  0  0  0  0  0  0  0
  1  2  1  0  0  0  0
  2  3  2  0  0  0  0
  2 20  1  0  0  0  0
  4  6  1  0  0  0  0
  5  6  2  0  0  0  0
  5 16  1  0  0  0  0
  6  7  1  0  0  0  0
  7  8  1  0  0  0  0
  8  9  1  0  0  0  0
  8 10  2  0  0  0  0
  9 12  1  0  0  0  0
  9 16  2  0  0  0  0
 11 13  1  0  0  0  0
 11 12  1  0  0  0  0
 12 14  1  0  0  0  0
 14 15  1  0  0  0  0
 14 18  1  6  0  0  0
 15 17  1  0  0  0  0
 16 17  1  0  0  0  0
 18 19  1  0  0  0  0
 19 23  1  0  0  0  0
 20 21  2  0  0  0  0
 20 25  1  0  0  0  0
 21 22  1  0  0  0  0
 22 23  2  0  0  0  0
 23 24  1  0  0  0  0
 24 25  2  0  0  0  0
M  END
>  <CHROM.1>
102.38364736,-69.70899510,179.74295353,19.47336895,-118.27395331,5.53094782
-19.64527438,25.06095098,-1.29929603,-0.89361881,-2.78534323

>  <Name>
ligand

>  <RI>
0

>  <Rbt.Current_Directory>
/home/itssahil/PROJECTS/Mol_Feturizer/New_Systems/rnas/4LVV

>  <Rbt.Executable>
rbdock ($Id: //depot/dev/client3/rdock/2013.1/src/exe/rbdock.cxx#4 $)

>  <Rbt.Library>
libRbt.so (2013.1, Build901 2013/11/27)

>  <Rbt.Parameter_File>
/export/apps/rDock/src/rDock_2013.1_src/data/scripts/dock_solv.prm

>  <Rbt.Receptor>
prm/pocket_docking_8.prm

>  <SCORE>
-9.33512

>  <SCORE.INTER>
-8.86516

>  <SCORE.INTER.CONST>
1

>  <SCORE.INTER.POLAR>
0

>  <SCORE.INTER.ROT>
5

>  <SCORE.INTER.SOLV>
9.32932

>  <SCORE.INTER.VDW>
-15.9532

>  <SCORE.INTER.norm>
-0.354606

>  <SCORE.INTRA>
-0.469954

>  <SCORE.INTRA.DIHEDRAL>
-0.216137

>  <SCORE.INTRA.DIHEDRAL.0>
3.94806

>  <SCORE.INTRA.POLAR>
0

>  <SCORE.INTRA.POLAR.0>
0

>  <SCORE.INTRA.REPUL>
0

>  <SCORE.INTRA.REPUL.0>
0

>  <SCORE.INTRA.SOLV>
0.293254

>  <SCORE.INTRA.SOLV.lig_0>
-70.9803

>  <SCORE.INTRA.VDW>
-0.508513

>  <SCORE.INTRA.VDW.0>
-0.709409

>  <SCORE.INTRA.norm>
-0.0187982

>  <SCORE.RESTR>
0

>  <SCORE.RESTR.CAVITY>
0

>  <SCORE.RESTR.norm>
0

>  <SCORE.SYSTEM>
0

>  <SCORE.SYSTEM.CONST>
0

>  <SCORE.SYSTEM.DIHEDRAL>
0

>  <SCORE.SYSTEM.SOLV>
0

>  <SCORE.SYSTEM.norm>
0

>  <SCORE.heavy>
25

>  <SCORE.norm>
-0.373405

>  <RMSD>
6.360

$$$$
ligand
 OpenBabel11021811503D
libRbt.so/2013.1/901 2013/11/27
 25 27  0  0  0  0  0  0  0  0999 V2000
    4.8828  -12.3352   24.3666 N   0  0  0  0  0  0  0  0  0  0  0  0
    5.6945  -13.3979   23.8595 C   0  0  0  0  0  0  0  0  0  0  0  0
    6.8509  -13.1916   23.5124 O   0  0  0  0  0  0  0  0  0  0  0  0
    5.5882  -21.7627   29.4168 N   0  0  0  0  0  0  0  0  0  0  0  0
    5.5242  -22.0856   27.0384 N   0  0  0  0  0  0  0  0  0  0  0  0
    4.9111  -21.6554   28.1653 C   0  0  0  0  0  0  0  0  0  0  0  0
    3.6502  -21.1292   28.1268 N   0  0  0  0  0  0  0  0  0  0  0  0
    2.9554  -21.0078   26.9670 C   0  0  0  0  0  0  0  0  0  0  0  0
    3.5679  -21.4333   25.7639 C   0  0  0  0  0  0  0  0  0  0  0  0
    1.6947  -20.4592   26.9903 O   0  0  0  0  0  0  0  0  0  0  0  0
    1.5408  -21.6705   24.2365 C   0  0  0  0  0  0  0  0  0  0  0  0
    2.9393  -21.3883   24.4538 N   0  0  0  0  0  0  0  0  0  0  0  0
    0.6430  -20.8978   24.5538 O   0  0  0  0  0  0  0  0  0  0  0  0
    3.8139  -21.1547   23.3850 C   0  0  2  0  0  0  0  0  0  0  0  0
    4.9152  -22.2458   23.3680 C   0  0  0  0  0  0  0  0  0  0  0  0
    4.8806  -21.9981   25.8315 C   0  0  0  0  0  0  0  0  0  0  0  0
    5.5498  -22.4476   24.6077 N   0  0  0  0  0  0  0  0  0  0  0  0
    4.4355  -19.7766   23.4879 C   0  0  0  0  0  0  0  0  0  0  0  0
    3.5385  -18.6619   23.6192 N   0  0  0  0  0  0  0  0  0  0  0  0
    5.1133  -14.7668   23.7769 C   0  0  0  0  0  0  0  0  0  0  0  0
    4.2913  -15.1299   22.7189 C   0  0  0  0  0  0  0  0  0  0  0  0
    3.7654  -16.4152   22.6704 C   0  0  0  0  0  0  0  0  0  0  0  0
    4.0715  -17.3367   23.6698 C   0  0  0  0  0  0  0  0  0  0  0  0
    4.9001  -16.9734   24.7171 C   0  0  0  0  0  0  0  0  0  0  0  0
    5.4173  -15.6847   24.7717 C   0  0  0  0  0  0  0  0  0  0  0  0
  1  2  1  0  0  0  0
  2  3  2  0  0  0  0
  2 20  1  0  0  0  0
  4  6  1  0  0  0  0
  5  6  2  0  0  0  0
  5 16  1  0  0  0  0
  6  7  1  0  0  0  0
  7  8  1  0  0  0  0
  8  9  1  0  0  0  0
  8 10  2  0  0  0  0
  9 12  1  0  0  0  0
  9 16  2  0  0  0  0
 11 13  1  0  0  0  0
 11 12  1  0  0  0  0
 12 14  1  0  0  0  0
 14 15  1  0  0  0  0
 14 18  1  1  0  0  0
 15 17  1  0  0  0  0
 16 17  1  0  0  0  0
 18 19  1  0  0  0  0
 19 23  1  0  0  0  0
 20 21  2  0  0  0  0
 20 25  1  0  0  0  0
 21 22  1  0  0  0  0
 22 23  2  0  0  0  0
 23 24  1  0  0  0  0
 24 25  2  0  0  0  0
M  END
>  <CHROM.1>
73.61285902,-53.70067450,-177.68644716,116.61308666,80.92315685,4.16616356
-19.05866429,24.97853026,-1.24961500,0.93985604,2.55716046

>  <Name>
ligand

>  <RI>
0

>  <Rbt.Current_Directory>
/home/itssahil/PROJECTS/Mol_Feturizer/New_Systems/rnas/4LVV

>  <Rbt.Executable>
rbdock ($Id: //depot/dev/client3/rdock/2013.1/src/exe/rbdock.cxx#4 $)

>  <Rbt.Library>
libRbt.so (2013.1, Build901 2013/11/27)

>  <Rbt.Parameter_File>
/export/apps/rDock/src/rDock_2013.1_src/data/scripts/dock_solv.prm

>  <Rbt.Receptor>
prm/pocket_docking_8.prm

>  <SCORE>
-9.58091

>  <SCORE.INTER>
-8.44929

>  <SCORE.INTER.CONST>
1

>  <SCORE.INTER.POLAR>
0

>  <SCORE.INTER.ROT>
5

>  <SCORE.INTER.SOLV>
14.9385

>  <SCORE.INTER.VDW>
-17.5457

>  <SCORE.INTER.norm>
-0.337972

>  <SCORE.INTRA>
-1.13162

>  <SCORE.INTRA.DIHEDRAL>
-0.426867

>  <SCORE.INTRA.DIHEDRAL.0>
3.94806

>  <SCORE.INTRA.POLAR>
0

>  <SCORE.INTRA.POLAR.0>
0

>  <SCORE.INTRA.REPUL>
0

>  <SCORE.INTRA.REPUL.0>
0

>  <SCORE.INTRA.SOLV>
0.583481

>  <SCORE.INTRA.SOLV.lig_0>
-70.9803

>  <SCORE.INTRA.VDW>
-1.20993

>  <SCORE.INTRA.VDW.0>
-0.709409

>  <SCORE.INTRA.norm>
-0.0452649

>  <SCORE.RESTR>
0

>  <SCORE.RESTR.CAVITY>
0

>  <SCORE.RESTR.norm>
0

>  <SCORE.SYSTEM>
0

>  <SCORE.SYSTEM.CONST>
0

>  <SCORE.SYSTEM.DIHEDRAL>
0

>  <SCORE.SYSTEM.SOLV>
0

>  <SCORE.SYSTEM.norm>
0

>  <SCORE.heavy>
25

>  <SCORE.norm>
-0.383236

>  <RMSD>
6.380

$$$$
ligand
 OpenBabel11021811503D
libRbt.so/2013.1/901 2013/11/27
 25 27  0  0  0  0  0  0  0  0999 V2000
    7.3411  -23.4216   21.4567 N   0  0  0  0  0  0  0  0  0  0  0  0
    6.0721  -22.8058   21.6930 C   0  0  0  0  0  0  0  0  0  0  0  0
    5.4242  -22.3316   20.7681 O   0  0  0  0  0  0  0  0  0  0  0  0
   11.0250  -23.9448   27.1814 N   0  0  0  0  0  0  0  0  0  0  0  0
    9.2455  -22.9093   28.4170 N   0  0  0  0  0  0  0  0  0  0  0  0
    9.8484  -23.1387   27.2275 C   0  0  0  0  0  0  0  0  0  0  0  0
    9.3554  -22.6031   26.0706 N   0  0  0  0  0  0  0  0  0  0  0  0
    8.2439  -21.8242   26.0538 C   0  0  0  0  0  0  0  0  0  0  0  0
    7.5758  -21.5723   27.2760 C   0  0  0  0  0  0  0  0  0  0  0  0
    7.7892  -21.3237   24.8565 O   0  0  0  0  0  0  0  0  0  0  0  0
    6.1841  -19.5261   26.6640 C   0  0  0  0  0  0  0  0  0  0  0  0
    6.3923  -20.7398   27.4166 N   0  0  0  0  0  0  0  0  0  0  0  0
    6.7545  -18.4712   26.9205 O   0  0  0  0  0  0  0  0  0  0  0  0
    5.5028  -21.1399   28.4218 C   0  0  2  0  0  0  0  0  0  0  0  0
    6.2432  -21.1809   29.7833 C   0  0  0  0  0  0  0  0  0  0  0  0
    8.1210  -22.1280   28.4764 C   0  0  0  0  0  0  0  0  0  0  0  0
    7.4570  -21.8926   29.7614 N   0  0  0  0  0  0  0  0  0  0  0  0
    4.9035  -22.4949   28.1039 C   0  0  0  0  0  0  0  0  0  0  0  0
    3.9987  -22.5656   26.9901 N   0  0  0  0  0  0  0  0  0  0  0  0
    5.5429  -22.7663   23.0848 C   0  0  0  0  0  0  0  0  0  0  0  0
    6.0633  -23.5948   24.0695 C   0  0  0  0  0  0  0  0  0  0  0  0
    5.5483  -23.5332   25.3586 C   0  0  0  0  0  0  0  0  0  0  0  0
    4.5256  -22.6371   25.6635 C   0  0  0  0  0  0  0  0  0  0  0  0
    4.0172  -21.8055   24.6810 C   0  0  0  0  0  0  0  0  0  0  0  0
    4.5245  -21.8746   23.3891 C   0  0  0  0  0  0  0  0  0  0  0  0
  1  2  1  0  0  0  0
  2  3  2  0  0  0  0
  2 20  1  0  0  0  0
  4  6  1  0  0  0  0
  5  6  2  0  0  0  0
  5 16  1  0  0  0  0
  6  7  1  0  0  0  0
  7  8  1  0  0  0  0
  8  9  1  0  0  0  0
  8 10  2  0  0  0  0
  9 12  1  0  0  0  0
  9 16  2  0  0  0  0
 11 13  1  0  0  0  0
 11 12  1  0  0  0  0
 12 14  1  0  0  0  0
 14 15  1  0  0  0  0
 14 18  1  6  0  0  0
 15 17  1  0  0  0  0
 16 17  1  0  0  0  0
 18 19  1  0  0  0  0
 19 23  1  0  0  0  0
 20 21  2  0  0  0  0
 20 25  1  0  0  0  0
 21 22  1  0  0  0  0
 22 23  2  0  0  0  0
 23 24  1  0  0  0  0
 24 25  2  0  0  0  0
M  END
>  <CHROM.1>
-76.27268486,-68.51962908,80.38834157,47.43942540,-16.90568567,6.73263918
-22.03873094,26.00562506,-1.91867416,-0.34224182,1.30582445

>  <Name>
ligand

>  <RI>
0

>  <Rbt.Current_Directory>
/home/itssahil/PROJECTS/Mol_Feturizer/New_Systems/rnas/4LVV

>  <Rbt.Executable>
rbdock ($Id: //depot/dev/client3/rdock/2013.1/src/exe/rbdock.cxx#4 $)

>  <Rbt.Library>
libRbt.so (2013.1, Build901 2013/11/27)

>  <Rbt.Parameter_File>
/export/apps/rDock/src/rDock_2013.1_src/data/scripts/dock_solv.prm

>  <Rbt.Receptor>
prm/pocket_docking_6.prm

>  <SCORE>
-10.8525

>  <SCORE.INTER>
-7.94515

>  <SCORE.INTER.CONST>
1

>  <SCORE.INTER.POLAR>
0

>  <SCORE.INTER.ROT>
5

>  <SCORE.INTER.SOLV>
10.4871

>  <SCORE.INTER.VDW>
-15.7258

>  <SCORE.INTER.norm>
-0.317806

>  <SCORE.INTRA>
-2.90733

>  <SCORE.INTRA.DIHEDRAL>
-0.240068

>  <SCORE.INTRA.DIHEDRAL.0>
3.94806

>  <SCORE.INTRA.POLAR>
0

>  <SCORE.INTRA.POLAR.0>
0

>  <SCORE.INTRA.REPUL>
0

>  <SCORE.INTRA.REPUL.0>
0

>  <SCORE.INTRA.SOLV>
0.660517

>  <SCORE.INTRA.SOLV.lig_0>
-70.9803

>  <SCORE.INTRA.VDW>
-3.11756

>  <SCORE.INTRA.VDW.0>
-0.709409

>  <SCORE.INTRA.norm>
-0.116293

>  <SCORE.RESTR>
0

>  <SCORE.RESTR.CAVITY>
0

>  <SCORE.RESTR.norm>
0

>  <SCORE.SYSTEM>
0

>  <SCORE.SYSTEM.CONST>
0

>  <SCORE.SYSTEM.DIHEDRAL>
0

>  <SCORE.SYSTEM.SOLV>
0

>  <SCORE.SYSTEM.norm>
0

>  <SCORE.heavy>
25

>  <SCORE.norm>
-0.434099

>  <RMSD>
6.386

$$$$
ligand
 OpenBabel11021811503D
libRbt.so/2013.1/901 2013/11/27
 25 27  0  0  0  0  0  0  0  0999 V2000
    5.9393  -22.1799   33.8323 N   0  0  0  0  0  0  0  0  0  0  0  0
    5.5070  -22.9663   32.7187 C   0  0  0  0  0  0  0  0  0  0  0  0
    5.2770  -24.1623   32.8484 O   0  0  0  0  0  0  0  0  0  0  0  0
    9.2179  -22.0267   25.3028 N   0  0  0  0  0  0  0  0  0  0  0  0
    7.3830  -20.4783   25.2683 N   0  0  0  0  0  0  0  0  0  0  0  0
    7.8172  -21.7597   25.2486 C   0  0  0  0  0  0  0  0  0  0  0  0
    6.9373  -22.8026   25.1672 N   0  0  0  0  0  0  0  0  0  0  0  0
    5.5951  -22.6096   25.1069 C   0  0  0  0  0  0  0  0  0  0  0  0
    5.1001  -21.2839   25.1395 C   0  0  0  0  0  0  0  0  0  0  0  0
    4.7595  -23.6996   25.0383 O   0  0  0  0  0  0  0  0  0  0  0  0
    2.7465  -21.6141   24.2176 C   0  0  0  0  0  0  0  0  0  0  0  0
    3.6943  -20.9226   25.0581 N   0  0  0  0  0  0  0  0  0  0  0  0
    1.5318  -21.5087   24.3483 O   0  0  0  0  0  0  0  0  0  0  0  0
    3.3350  -19.7755   25.7769 C   0  0  2  0  0  0  0  0  0  0  0  0
    4.1838  -18.5723   25.2918 C   0  0  0  0  0  0  0  0  0  0  0  0
    6.0408  -20.2080   25.2059 C   0  0  0  0  0  0  0  0  0  0  0  0
    5.5680  -18.8215   25.2446 N   0  0  0  0  0  0  0  0  0  0  0  0
    3.5232  -19.9905   27.2651 C   0  0  0  0  0  0  0  0  0  0  0  0
    4.8444  -20.3307   27.7156 N   0  0  0  0  0  0  0  0  0  0  0  0
    5.3243  -22.3002   31.3990 C   0  0  0  0  0  0  0  0  0  0  0  0
    4.5953  -22.9100   30.3872 C   0  0  0  0  0  0  0  0  0  0  0  0
    4.4425  -22.2619   29.1675 C   0  0  0  0  0  0  0  0  0  0  0  0
    5.0060  -21.0035   28.9662 C   0  0  0  0  0  0  0  0  0  0  0  0
    5.7229  -20.3948   29.9815 C   0  0  0  0  0  0  0  0  0  0  0  0
    5.8853  -21.0474   31.1976 C   0  0  0  0  0  0  0  0  0  0  0  0
  1  2  1  0  0  0  0
  2  3  2  0  0  0  0
  2 20  1  0  0  0  0
  4  6  1  0  0  0  0
  5  6  2  0  0  0  0
  5 16  1  0  0  0  0
  6  7  1  0  0  0  0
  7  8  1  0  0  0  0
  8  9  1  0  0  0  0
  8 10  2  0  0  0  0
  9 12  1  0  0  0  0
  9 16  2  0  0  0  0
 11 13  1  0  0  0  0
 11 12  1  0  0  0  0
 12 14  1  0  0  0  0
 14 15  1  0  0  0  0
 14 18  1  1  0  0  0
 15 17  1  0  0  0  0
 16 17  1  0  0  0  0
 18 19  1  0  0  0  0
 19 23  1  0  0  0  0
 20 21  2  0  0  0  0
 20 25  1  0  0  0  0
 21 22  1  0  0  0  0
 22 23  2  0  0  0  0
 23 24  1  0  0  0  0
 24 25  2  0  0  0  0
M  END
>  <CHROM.1>
164.12106527,58.78231380,-157.48646904,61.35694703,-163.36586009,5.15716699
-21.44196485,27.40572134,-1.47904814,0.23804339,-1.37879849

>  <Name>
ligand

>  <RI>
0

>  <Rbt.Current_Directory>
/home/itssahil/PROJECTS/Mol_Feturizer/New_Systems/rnas/4LVV

>  <Rbt.Executable>
rbdock ($Id: //depot/dev/client3/rdock/2013.1/src/exe/rbdock.cxx#4 $)

>  <Rbt.Library>
libRbt.so (2013.1, Build901 2013/11/27)

>  <Rbt.Parameter_File>
/export/apps/rDock/src/rDock_2013.1_src/data/scripts/dock_solv.prm

>  <Rbt.Receptor>
prm/pocket_docking_8.prm

>  <SCORE>
-8.33137

>  <SCORE.INTER>
-8.32708

>  <SCORE.INTER.CONST>
1

>  <SCORE.INTER.POLAR>
0

>  <SCORE.INTER.ROT>
5

>  <SCORE.INTER.SOLV>
9.31505

>  <SCORE.INTER.VDW>
-15.5897

>  <SCORE.INTER.norm>
-0.333083

>  <SCORE.INTRA>
-0.00429116

>  <SCORE.INTRA.DIHEDRAL>
-0.430492

>  <SCORE.INTRA.DIHEDRAL.0>
3.94806

>  <SCORE.INTRA.POLAR>
0

>  <SCORE.INTRA.POLAR.0>
0

>  <SCORE.INTRA.REPUL>
0

>  <SCORE.INTRA.REPUL.0>
0

>  <SCORE.INTRA.SOLV>
2.2388

>  <SCORE.INTRA.SOLV.lig_0>
-70.9803

>  <SCORE.INTRA.VDW>
-0.908447

>  <SCORE.INTRA.VDW.0>
-0.709409

>  <SCORE.INTRA.norm>
-0.000171646

>  <SCORE.RESTR>
0

>  <SCORE.RESTR.CAVITY>
0

>  <SCORE.RESTR.norm>
0

>  <SCORE.SYSTEM>
0

>  <SCORE.SYSTEM.CONST>
0

>  <SCORE.SYSTEM.DIHEDRAL>
0

>  <SCORE.SYSTEM.SOLV>
0

>  <SCORE.SYSTEM.norm>
0

>  <SCORE.heavy>
25

>  <SCORE.norm>
-0.333255

>  <RMSD>
6.438

$$$$
ligand
 OpenBabel11021811503D
libRbt.so/2013.1/901 2013/11/27
 25 27  0  0  0  0  0  0  0  0999 V2000
    4.2685  -22.8146   32.8989 N   0  0  0  0  0  0  0  0  0  0  0  0
    4.9917  -21.7549   32.2670 C   0  0  0  0  0  0  0  0  0  0  0  0
    5.5473  -20.8911   32.9344 O   0  0  0  0  0  0  0  0  0  0  0  0
    8.1085  -17.5180   25.1347 N   0  0  0  0  0  0  0  0  0  0  0  0
    6.2790  -18.9900   24.6333 N   0  0  0  0  0  0  0  0  0  0  0  0
    7.6089  -18.8149   24.8113 C   0  0  0  0  0  0  0  0  0  0  0  0
    8.4830  -19.8570   24.6765 N   0  0  0  0  0  0  0  0  0  0  0  0
    8.0666  -21.1107   24.3643 C   0  0  0  0  0  0  0  0  0  0  0  0
    6.6811  -21.3381   24.1841 C   0  0  0  0  0  0  0  0  0  0  0  0
    8.9928  -22.1211   24.2543 O   0  0  0  0  0  0  0  0  0  0  0  0
    6.7064  -23.5402   22.9003 C   0  0  0  0  0  0  0  0  0  0  0  0
    6.0919  -22.6174   23.8242 N   0  0  0  0  0  0  0  0  0  0  0  0
    6.5928  -23.4465   21.6829 O   0  0  0  0  0  0  0  0  0  0  0  0
    4.8183  -22.8538   24.3572 C   0  0  2  0  0  0  0  0  0  0  0  0
    3.8535  -21.7233   23.9161 C   0  0  0  0  0  0  0  0  0  0  0  0
    5.7874  -20.2283   24.3118 C   0  0  0  0  0  0  0  0  0  0  0  0
    4.3457  -20.4233   24.1356 N   0  0  0  0  0  0  0  0  0  0  0  0
    4.8742  -22.9425   25.8689 C   0  0  0  0  0  0  0  0  0  0  0  0
    5.2683  -21.7581   26.5802 N   0  0  0  0  0  0  0  0  0  0  0  0
    5.0722  -21.7295   30.7799 C   0  0  0  0  0  0  0  0  0  0  0  0
    5.7068  -20.6875   30.1177 C   0  0  0  0  0  0  0  0  0  0  0  0
    5.7656  -20.6936   28.7294 C   0  0  0  0  0  0  0  0  0  0  0  0
    5.2030  -21.7446   28.0079 C   0  0  0  0  0  0  0  0  0  0  0  0
    4.5807  -22.7867   28.6729 C   0  0  0  0  0  0  0  0  0  0  0  0
    4.5120  -22.7753   30.0609 C   0  0  0  0  0  0  0  0  0  0  0  0
  1  2  1  0  0  0  0
  2  3  2  0  0  0  0
  2 20  1  0  0  0  0
  4  6  1  0  0  0  0
  5  6  2  0  0  0  0
  5 16  1  0  0  0  0
  6  7  1  0  0  0  0
  7  8  1  0  0  0  0
  8  9  1  0  0  0  0
  8 10  2  0  0  0  0
  9 12  1  0  0  0  0
  9 16  2  0  0  0  0
 11 13  1  0  0  0  0
 11 12  1  0  0  0  0
 12 14  1  0  0  0  0
 14 15  1  0  0  0  0
 14 18  1  1  0  0  0
 15 17  1  0  0  0  0
 16 17  1  0  0  0  0
 18 19  1  0  0  0  0
 19 23  1  0  0  0  0
 20 21  2  0  0  0  0
 20 25  1  0  0  0  0
 21 22  1  0  0  0  0
 22 23  2  0  0  0  0
 23 24  1  0  0  0  0
 24 25  2  0  0  0  0
M  END
>  <CHROM.1>
-83.09075544,64.17229843,173.51240857,170.22165612,176.85382450,5.95880824
-21.42660426,26.48095309,1.96659523,0.96957929,1.28151723

>  <Name>
ligand

>  <RI>
0

>  <Rbt.Current_Directory>
/home/itssahil/PROJECTS/Mol_Feturizer/New_Systems/rnas/4LVV

>  <Rbt.Executable>
rbdock ($Id: //depot/dev/client3/rdock/2013.1/src/exe/rbdock.cxx#4 $)

>  <Rbt.Library>
libRbt.so (2013.1, Build901 2013/11/27)

>  <Rbt.Parameter_File>
/export/apps/rDock/src/rDock_2013.1_src/data/scripts/dock_solv.prm

>  <Rbt.Receptor>
prm/pocket_docking_8.prm

>  <SCORE>
-8.03759

>  <SCORE.INTER>
-8.73093

>  <SCORE.INTER.CONST>
1

>  <SCORE.INTER.POLAR>
0

>  <SCORE.INTER.ROT>
5

>  <SCORE.INTER.SOLV>
8.33933

>  <SCORE.INTER.VDW>
-15.5337

>  <SCORE.INTER.norm>
-0.349237

>  <SCORE.INTRA>
0.693331

>  <SCORE.INTRA.DIHEDRAL>
-0.756271

>  <SCORE.INTRA.DIHEDRAL.0>
3.94806

>  <SCORE.INTRA.POLAR>
0

>  <SCORE.INTRA.POLAR.0>
0

>  <SCORE.INTRA.REPUL>
0

>  <SCORE.INTRA.REPUL.0>
0

>  <SCORE.INTRA.SOLV>
2.1692

>  <SCORE.INTRA.SOLV.lig_0>
-70.9803

>  <SCORE.INTRA.VDW>
-0.0131363

>  <SCORE.INTRA.VDW.0>
-0.709409

>  <SCORE.INTRA.norm>
0.0277332

>  <SCORE.RESTR>
0

>  <SCORE.RESTR.CAVITY>
0

>  <SCORE.RESTR.norm>
0

>  <SCORE.SYSTEM>
0

>  <SCORE.SYSTEM.CONST>
0

>  <SCORE.SYSTEM.DIHEDRAL>
0

>  <SCORE.SYSTEM.SOLV>
0

>  <SCORE.SYSTEM.norm>
0

>  <SCORE.heavy>
25

>  <SCORE.norm>
-0.321504

>  <RMSD>
6.528

$$$$
ligand
 OpenBabel11021811503D
libRbt.so/2013.1/901 2013/11/27
 25 27  0  0  0  0  0  0  0  0999 V2000
    6.2514  -23.8412   20.7295 N   0  0  0  0  0  0  0  0  0  0  0  0
    6.0156  -22.6310   21.4543 C   0  0  0  0  0  0  0  0  0  0  0  0
    6.1768  -21.5403   20.9211 O   0  0  0  0  0  0  0  0  0  0  0  0
   11.1172  -23.9942   28.8590 N   0  0  0  0  0  0  0  0  0  0  0  0
    9.2129  -22.5670   29.1783 N   0  0  0  0  0  0  0  0  0  0  0  0
   10.0054  -23.2690   28.3356 C   0  0  0  0  0  0  0  0  0  0  0  0
    9.7651  -23.2869   26.9901 N   0  0  0  0  0  0  0  0  0  0  0  0
    8.7268  -22.6116   26.4348 C   0  0  0  0  0  0  0  0  0  0  0  0
    7.8658  -21.8767   27.2846 C   0  0  0  0  0  0  0  0  0  0  0  0
    8.5291  -22.6777   25.0755 O   0  0  0  0  0  0  0  0  0  0  0  0
    6.7409  -20.3140   25.6140 C   0  0  0  0  0  0  0  0  0  0  0  0
    6.7318  -21.0873   26.8325 N   0  0  0  0  0  0  0  0  0  0  0  0
    7.1872  -19.1738   25.5461 O   0  0  0  0  0  0  0  0  0  0  0  0
    5.6514  -21.0390   27.7225 C   0  0  2  0  0  0  0  0  0  0  0  0
    6.1288  -20.4817   29.0881 C   0  0  0  0  0  0  0  0  0  0  0  0
    8.1482  -21.8574   28.6870 C   0  0  0  0  0  0  0  0  0  0  0  0
    7.2788  -21.1106   29.6003 N   0  0  0  0  0  0  0  0  0  0  0  0
    5.0346  -22.4121   27.8973 C   0  0  0  0  0  0  0  0  0  0  0  0
    4.1866  -22.8885   26.8399 N   0  0  0  0  0  0  0  0  0  0  0  0
    5.5528  -22.7206   22.8673 C   0  0  0  0  0  0  0  0  0  0  0  0
    6.1971  -23.5469   23.7777 C   0  0  0  0  0  0  0  0  0  0  0  0
    5.7413  -23.6074   25.0890 C   0  0  0  0  0  0  0  0  0  0  0  0
    4.6534  -22.8345   25.4901 C   0  0  0  0  0  0  0  0  0  0  0  0
    4.0209  -22.0041   24.5815 C   0  0  0  0  0  0  0  0  0  0  0  0
    4.4695  -21.9516   23.2672 C   0  0  0  0  0  0  0  0  0  0  0  0
  1  2  1  0  0  0  0
  2  3  2  0  0  0  0
  2 20  1  0  0  0  0
  4  6  1  0  0  0  0
  5  6  2  0  0  0  0
  5 16  1  0  0  0  0
  6  7  1  0  0  0  0
  7  8  1  0  0  0  0
  8  9  1  0  0  0  0
  8 10  2  0  0  0  0
  9 12  1  0  0  0  0
  9 16  2  0  0  0  0
 11 13  1  0  0  0  0
 11 12  1  0  0  0  0
 12 14  1  0  0  0  0
 14 15  1  0  0  0  0
 14 18  1  1  0  0  0
 15 17  1  0  0  0  0
 16 17  1  0  0  0  0
 18 19  1  0  0  0  0
 19 23  1  0  0  0  0
 20 21  2  0  0  0  0
 20 25  1  0  0  0  0
 21 22  1  0  0  0  0
 22 23  2  0  0  0  0
 23 24  1  0  0  0  0
 24 25  2  0  0  0  0
M  END
>  <CHROM.1>
-84.90770745,-77.07358352,49.95227946,65.42287175,48.84753915,6.89096995
-22.16950259,25.93165344,-2.05576246,-0.38459679,1.33164957

>  <Name>
ligand

>  <RI>
0

>  <Rbt.Current_Directory>
/home/itssahil/PROJECTS/Mol_Feturizer/New_Systems/rnas/4LVV

>  <Rbt.Executable>
rbdock ($Id: //depot/dev/client3/rdock/2013.1/src/exe/rbdock.cxx#4 $)

>  <Rbt.Library>
libRbt.so (2013.1, Build901 2013/11/27)

>  <Rbt.Parameter_File>
/export/apps/rDock/src/rDock_2013.1_src/data/scripts/dock_solv.prm

>  <Rbt.Receptor>
prm/pocket_docking_5.prm

>  <SCORE>
-10.9436

>  <SCORE.INTER>
-8.182

>  <SCORE.INTER.CONST>
1

>  <SCORE.INTER.POLAR>
0

>  <SCORE.INTER.ROT>
5

>  <SCORE.INTER.SOLV>
11.5674

>  <SCORE.INTER.VDW>
-16.2438

>  <SCORE.INTER.norm>
-0.32728

>  <SCORE.INTRA>
-2.7616

>  <SCORE.INTRA.DIHEDRAL>
0.186788

>  <SCORE.INTRA.DIHEDRAL.0>
3.94806

>  <SCORE.INTRA.POLAR>
0

>  <SCORE.INTRA.POLAR.0>
0

>  <SCORE.INTRA.REPUL>
0

>  <SCORE.INTRA.REPUL.0>
0

>  <SCORE.INTRA.SOLV>
0.295305

>  <SCORE.INTRA.SOLV.lig_0>
-70.9803

>  <SCORE.INTRA.VDW>
-3.00265

>  <SCORE.INTRA.VDW.0>
-0.709409

>  <SCORE.INTRA.norm>
-0.110464

>  <SCORE.RESTR>
0

>  <SCORE.RESTR.CAVITY>
0

>  <SCORE.RESTR.norm>
0

>  <SCORE.SYSTEM>
0

>  <SCORE.SYSTEM.CONST>
0

>  <SCORE.SYSTEM.DIHEDRAL>
0

>  <SCORE.SYSTEM.SOLV>
0

>  <SCORE.SYSTEM.norm>
0

>  <SCORE.heavy>
25

>  <SCORE.norm>
-0.437744

>  <RMSD>
6.555

$$$$
ligand
 OpenBabel11021811503D
libRbt.so/2013.1/901 2013/11/27
 25 27  0  0  0  0  0  0  0  0999 V2000
    7.5839  -13.4239   25.8725 N   0  0  0  0  0  0  0  0  0  0  0  0
    7.4098  -14.5818   26.6936 C   0  0  0  0  0  0  0  0  0  0  0  0
    7.9586  -14.6635   27.7854 O   0  0  0  0  0  0  0  0  0  0  0  0
    6.9969  -22.8227   19.1423 N   0  0  0  0  0  0  0  0  0  0  0  0
    5.2005  -22.1861   20.6027 N   0  0  0  0  0  0  0  0  0  0  0  0
    6.4327  -22.7236   20.4492 C   0  0  0  0  0  0  0  0  0  0  0  0
    7.1421  -23.1827   21.5236 N   0  0  0  0  0  0  0  0  0  0  0  0
    6.6543  -23.1202   22.7888 C   0  0  0  0  0  0  0  0  0  0  0  0
    5.3743  -22.5515   22.9929 C   0  0  0  0  0  0  0  0  0  0  0  0
    7.4204  -23.5875   23.8308 O   0  0  0  0  0  0  0  0  0  0  0  0
    4.7970  -23.4553   25.3056 C   0  0  0  0  0  0  0  0  0  0  0  0
    4.7139  -22.4400   24.2833 N   0  0  0  0  0  0  0  0  0  0  0  0
    4.7317  -23.2072   26.5047 O   0  0  0  0  0  0  0  0  0  0  0  0
    3.8919  -21.3159   24.4327 C   0  0  2  0  0  0  0  0  0  0  0  0
    2.8105  -21.3128   23.3218 C   0  0  0  0  0  0  0  0  0  0  0  0
    4.6428  -22.0951   21.8513 C   0  0  0  0  0  0  0  0  0  0  0  0
    3.3155  -21.4975   22.0214 N   0  0  0  0  0  0  0  0  0  0  0  0
    4.7079  -20.0401   24.3809 C   0  0  0  0  0  0  0  0  0  0  0  0
    4.0946  -18.8490   24.9000 N   0  0  0  0  0  0  0  0  0  0  0  0
    6.5332  -15.6821   26.2040 C   0  0  0  0  0  0  0  0  0  0  0  0
    5.9234  -15.6079   24.9593 C   0  0  0  0  0  0  0  0  0  0  0  0
    5.1120  -16.6516   24.5312 C   0  0  0  0  0  0  0  0  0  0  0  0
    4.9223  -17.7702   25.3402 C   0  0  0  0  0  0  0  0  0  0  0  0
    5.5410  -17.8445   26.5760 C   0  0  0  0  0  0  0  0  0  0  0  0
    6.3437  -16.7960   27.0091 C   0  0  0  0  0  0  0  0  0  0  0  0
  1  2  1  0  0  0  0
  2  3  2  0  0  0  0
  2 20  1  0  0  0  0
  4  6  1  0  0  0  0
  5  6  2  0  0  0  0
  5 16  1  0  0  0  0
  6  7  1  0  0  0  0
  7  8  1  0  0  0  0
  8  9  1  0  0  0  0
  8 10  2  0  0  0  0
  9 12  1  0  0  0  0
  9 16  2  0  0  0  0
 11 13  1  0  0  0  0
 11 12  1  0  0  0  0
 12 14  1  0  0  0  0
 14 15  1  0  0  0  0
 14 18  1  6  0  0  0
 15 17  1  0  0  0  0
 16 17  1  0  0  0  0
 18 19  1  0  0  0  0
 19 23  1  0  0  0  0
 20 21  2  0  0  0  0
 20 25  1  0  0  0  0
 21 22  1  0  0  0  0
 22 23  2  0  0  0  0
 23 24  1  0  0  0  0
 24 25  2  0  0  0  0
M  END
>  <CHROM.1>
150.23242767,-162.24571783,156.86051881,101.49450627,1.76879115,5.61561049
-19.98349815,24.14188995,-1.29358044,-1.06606098,-2.39193638

>  <Name>
ligand

>  <RI>
0

>  <Rbt.Current_Directory>
/home/itssahil/PROJECTS/Mol_Feturizer/New_Systems/rnas/4LVV

>  <Rbt.Executable>
rbdock ($Id: //depot/dev/client3/rdock/2013.1/src/exe/rbdock.cxx#4 $)

>  <Rbt.Library>
libRbt.so (2013.1, Build901 2013/11/27)

>  <Rbt.Parameter_File>
/export/apps/rDock/src/rDock_2013.1_src/data/scripts/dock_solv.prm

>  <Rbt.Receptor>
prm/pocket_docking_7.prm

>  <SCORE>
-9.91993

>  <SCORE.INTER>
-9.53967

>  <SCORE.INTER.CONST>
1

>  <SCORE.INTER.POLAR>
0

>  <SCORE.INTER.ROT>
5

>  <SCORE.INTER.SOLV>
16.8175

>  <SCORE.INTER.VDW>
-18.8989

>  <SCORE.INTER.norm>
-0.381587

>  <SCORE.INTRA>
-0.380254

>  <SCORE.INTRA.DIHEDRAL>
0.598618

>  <SCORE.INTRA.DIHEDRAL.0>
3.94806

>  <SCORE.INTRA.POLAR>
0

>  <SCORE.INTRA.POLAR.0>
0

>  <SCORE.INTRA.REPUL>
0

>  <SCORE.INTRA.REPUL.0>
0

>  <SCORE.INTRA.SOLV>
-0.45502

>  <SCORE.INTRA.SOLV.lig_0>
-70.9803

>  <SCORE.INTRA.VDW>
-0.452053

>  <SCORE.INTRA.VDW.0>
-0.709409

>  <SCORE.INTRA.norm>
-0.0152102

>  <SCORE.RESTR>
0

>  <SCORE.RESTR.CAVITY>
0

>  <SCORE.RESTR.norm>
0

>  <SCORE.SYSTEM>
0

>  <SCORE.SYSTEM.CONST>
0

>  <SCORE.SYSTEM.DIHEDRAL>
0

>  <SCORE.SYSTEM.SOLV>
0

>  <SCORE.SYSTEM.norm>
0

>  <SCORE.heavy>
25

>  <SCORE.norm>
-0.396797

>  <RMSD>
6.565

$$$$
ligand
 OpenBabel11021811503D
libRbt.so/2013.1/901 2013/11/27
 25 27  0  0  0  0  0  0  0  0999 V2000
    3.3978  -18.7511   19.7543 N   0  0  0  0  0  0  0  0  0  0  0  0
    4.0293  -19.8180   20.4672 C   0  0  0  0  0  0  0  0  0  0  0  0
    4.9162  -20.4817   19.9446 O   0  0  0  0  0  0  0  0  0  0  0  0
    9.6108  -19.2627   26.7339 N   0  0  0  0  0  0  0  0  0  0  0  0
    7.7688  -20.7416   26.3035 N   0  0  0  0  0  0  0  0  0  0  0  0
    8.4190  -19.9211   27.1608 C   0  0  0  0  0  0  0  0  0  0  0  0
    7.9592  -19.7202   28.4322 N   0  0  0  0  0  0  0  0  0  0  0  0
    6.8351  -20.3238   28.8956 C   0  0  0  0  0  0  0  0  0  0  0  0
    6.1183  -21.1787   28.0244 C   0  0  0  0  0  0  0  0  0  0  0  0
    6.4157  -20.0728   30.1809 O   0  0  0  0  0  0  0  0  0  0  0  0
    4.7133  -22.5081   29.6849 C   0  0  0  0  0  0  0  0  0  0  0  0
    4.9156  -21.9106   28.3869 N   0  0  0  0  0  0  0  0  0  0  0  0
    4.0699  -21.9690   30.5789 O   0  0  0  0  0  0  0  0  0  0  0  0
    3.9971  -22.0935   27.3454 C   0  0  2  0  0  0  0  0  0  0  0  0
    4.6877  -22.8288   26.1680 C   0  0  0  0  0  0  0  0  0  0  0  0
    6.6290  -21.3884   26.7046 C   0  0  0  0  0  0  0  0  0  0  0  0
    5.9141  -22.2639   25.7718 N   0  0  0  0  0  0  0  0  0  0  0  0
    3.4344  -20.7648   26.8828 C   0  0  0  0  0  0  0  0  0  0  0  0
    2.4407  -20.7999   25.8457 N   0  0  0  0  0  0  0  0  0  0  0  0
    3.6006  -20.0976   21.8661 C   0  0  0  0  0  0  0  0  0  0  0  0
    3.0657  -21.3300   22.2152 C   0  0  0  0  0  0  0  0  0  0  0  0
    2.6760  -21.5597   23.5291 C   0  0  0  0  0  0  0  0  0  0  0  0
    2.8332  -20.5646   24.4918 C   0  0  0  0  0  0  0  0  0  0  0  0
    3.3770  -19.3411   24.1412 C   0  0  0  0  0  0  0  0  0  0  0  0
    3.7565  -19.1072   22.8250 C   0  0  0  0  0  0  0  0  0  0  0  0
  1  2  1  0  0  0  0
  2  3  2  0  0  0  0
  2 20  1  0  0  0  0
  4  6  1  0  0  0  0
  5  6  2  0  0  0  0
  5 16  1  0  0  0  0
  6  7  1  0  0  0  0
  7  8  1  0  0  0  0
  8  9  1  0  0  0  0
  8 10  2  0  0  0  0
  9 12  1  0  0  0  0
  9 16  2  0  0  0  0
 11 13  1  0  0  0  0
 11 12  1  0  0  0  0
 12 14  1  0  0  0  0
 14 15  1  0  0  0  0
 14 18  1  6  0  0  0
 15 17  1  0  0  0  0
 16 17  1  0  0  0  0
 18 19  1  0  0  0  0
 19 23  1  0  0  0  0
 20 21  2  0  0  0  0
 20 25  1  0  0  0  0
 21 22  1  0  0  0  0
 22 23  2  0  0  0  0
 23 24  1  0  0  0  0
 24 25  2  0  0  0  0
M  END
>  <CHROM.1>
97.73908572,-177.90744588,-98.02820318,117.42576874,119.49810104,5.05159096
-20.77162261,25.78421395,-1.91814406,0.32372166,1.81866722

>  <Name>
ligand

>  <RI>
0

>  <Rbt.Current_Directory>
/home/itssahil/PROJECTS/Mol_Feturizer/New_Systems/rnas/4LVV

>  <Rbt.Executable>
rbdock ($Id: //depot/dev/client3/rdock/2013.1/src/exe/rbdock.cxx#4 $)

>  <Rbt.Library>
libRbt.so (2013.1, Build901 2013/11/27)

>  <Rbt.Parameter_File>
/export/apps/rDock/src/rDock_2013.1_src/data/scripts/dock_solv.prm

>  <Rbt.Receptor>
prm/pocket_docking_6.prm

>  <SCORE>
-9.38774

>  <SCORE.INTER>
-8.07139

>  <SCORE.INTER.CONST>
1

>  <SCORE.INTER.POLAR>
0

>  <SCORE.INTER.ROT>
5

>  <SCORE.INTER.SOLV>
12.038

>  <SCORE.INTER.VDW>
-16.3269

>  <SCORE.INTER.norm>
-0.322855

>  <SCORE.INTRA>
-1.31635

>  <SCORE.INTRA.DIHEDRAL>
0.333243

>  <SCORE.INTRA.DIHEDRAL.0>
3.94806

>  <SCORE.INTRA.POLAR>
0

>  <SCORE.INTRA.POLAR.0>
0

>  <SCORE.INTRA.REPUL>
0

>  <SCORE.INTRA.REPUL.0>
0

>  <SCORE.INTRA.SOLV>
0.0367364

>  <SCORE.INTRA.SOLV.lig_0>
-70.9803

>  <SCORE.INTRA.VDW>
-1.50134

>  <SCORE.INTRA.VDW.0>
-0.709409

>  <SCORE.INTRA.norm>
-0.052654

>  <SCORE.RESTR>
0

>  <SCORE.RESTR.CAVITY>
0

>  <SCORE.RESTR.norm>
0

>  <SCORE.SYSTEM>
0

>  <SCORE.SYSTEM.CONST>
0

>  <SCORE.SYSTEM.DIHEDRAL>
0

>  <SCORE.SYSTEM.SOLV>
0

>  <SCORE.SYSTEM.norm>
0

>  <SCORE.heavy>
25

>  <SCORE.norm>
-0.375509

>  <RMSD>
6.602

$$$$
ligand
 OpenBabel11021811503D
libRbt.so/2013.1/901 2013/11/27
 25 27  0  0  0  0  0  0  0  0999 V2000
    6.4817  -23.9620   33.4726 N   0  0  0  0  0  0  0  0  0  0  0  0
    5.1736  -23.6650   32.9767 C   0  0  0  0  0  0  0  0  0  0  0  0
    4.1756  -24.0012   33.6019 O   0  0  0  0  0  0  0  0  0  0  0  0
    9.2523  -21.7155   25.7490 N   0  0  0  0  0  0  0  0  0  0  0  0
    7.2806  -20.3492   25.8538 N   0  0  0  0  0  0  0  0  0  0  0  0
    7.8391  -21.5605   25.6263 C   0  0  0  0  0  0  0  0  0  0  0  0
    7.0739  -22.6358   25.2708 N   0  0  0  0  0  0  0  0  0  0  0  0
    5.7264  -22.5470   25.1330 C   0  0  0  0  0  0  0  0  0  0  0  0
    5.1023  -21.3000   25.3763 C   0  0  0  0  0  0  0  0  0  0  0  0
    5.0088  -23.6671   24.7848 O   0  0  0  0  0  0  0  0  0  0  0  0
    2.8612  -21.6347   24.2085 C   0  0  0  0  0  0  0  0  0  0  0  0
    3.6766  -21.0479   25.2446 N   0  0  0  0  0  0  0  0  0  0  0  0
    3.0473  -21.4335   23.0133 O   0  0  0  0  0  0  0  0  0  0  0  0
    3.1578  -20.1005   26.1364 C   0  0  2  0  0  0  0  0  0  0  0  0
    3.9153  -18.7586   25.9660 C   0  0  0  0  0  0  0  0  0  0  0  0
    5.9258  -20.1844   25.7287 C   0  0  0  0  0  0  0  0  0  0  0  0
    5.3172  -18.8775   25.9916 N   0  0  0  0  0  0  0  0  0  0  0  0
    3.2641  -20.5907   27.5663 C   0  0  0  0  0  0  0  0  0  0  0  0
    4.5853  -20.8062   28.0881 N   0  0  0  0  0  0  0  0  0  0  0  0
    5.0460  -22.9225   31.6917 C   0  0  0  0  0  0  0  0  0  0  0  0
    6.0210  -23.0247   30.7090 C   0  0  0  0  0  0  0  0  0  0  0  0
    5.8720  -22.3198   29.5208 C   0  0  0  0  0  0  0  0  0  0  0  0
    4.7456  -21.5265   29.3121 C   0  0  0  0  0  0  0  0  0  0  0  0
    3.7709  -21.4361   30.2904 C   0  0  0  0  0  0  0  0  0  0  0  0
    3.9249  -22.1321   31.4834 C   0  0  0  0  0  0  0  0  0  0  0  0
  1  2  1  0  0  0  0
  2  3  2  0  0  0  0
  2 20  1  0  0  0  0
  4  6  1  0  0  0  0
  5  6  2  0  0  0  0
  5 16  1  0  0  0  0
  6  7  1  0  0  0  0
  7  8  1  0  0  0  0
  8  9  1  0  0  0  0
  8 10  2  0  0  0  0
  9 12  1  0  0  0  0
  9 16  2  0  0  0  0
 11 13  1  0  0  0  0
 11 12  1  0  0  0  0
 12 14  1  0  0  0  0
 14 15  1  0  0  0  0
 14 18  1  1  0  0  0
 15 17  1  0  0  0  0
 16 17  1  0  0  0  0
 18 19  1  0  0  0  0
 19 23  1  0  0  0  0
 20 21  2  0  0  0  0
 20 25  1  0  0  0  0
 21 22  1  0  0  0  0
 22 23  2  0  0  0  0
 23 24  1  0  0  0  0
 24 25  2  0  0  0  0
M  END
>  <CHROM.1>
-61.64812545,63.35756621,-166.88812196,147.64814178,28.74089257,5.10016691
-21.69230814,27.62785218,-1.55132533,0.29557855,-1.29714948

>  <Name>
ligand

>  <RI>
0

>  <Rbt.Current_Directory>
/home/itssahil/PROJECTS/Mol_Feturizer/New_Systems/rnas/4LVV

>  <Rbt.Executable>
rbdock ($Id: //depot/dev/client3/rdock/2013.1/src/exe/rbdock.cxx#4 $)

>  <Rbt.Library>
libRbt.so (2013.1, Build901 2013/11/27)

>  <Rbt.Parameter_File>
/export/apps/rDock/src/rDock_2013.1_src/data/scripts/dock_solv.prm

>  <Rbt.Receptor>
prm/pocket_docking_8.prm

>  <SCORE>
-9.95694

>  <SCORE.INTER>
-10.1396

>  <SCORE.INTER.CONST>
1

>  <SCORE.INTER.POLAR>
0

>  <SCORE.INTER.ROT>
5

>  <SCORE.INTER.SOLV>
9.92107

>  <SCORE.INTER.VDW>
-17.0001

>  <SCORE.INTER.norm>
-0.405585

>  <SCORE.INTRA>
0.179668

>  <SCORE.INTRA.DIHEDRAL>
-0.572802

>  <SCORE.INTRA.DIHEDRAL.0>
3.94806

>  <SCORE.INTRA.POLAR>
0

>  <SCORE.INTRA.POLAR.0>
0

>  <SCORE.INTRA.REPUL>
0

>  <SCORE.INTRA.REPUL.0>
0

>  <SCORE.INTRA.SOLV>
2.23797

>  <SCORE.INTRA.SOLV.lig_0>
-70.9803

>  <SCORE.INTRA.VDW>
-0.652914

>  <SCORE.INTRA.VDW.0>
-0.709409

>  <SCORE.INTRA.norm>
0.00718673

>  <SCORE.RESTR>
0.00301667

>  <SCORE.RESTR.CAVITY>
0.00301667

>  <SCORE.RESTR.norm>
0.000120667

>  <SCORE.SYSTEM>
0

>  <SCORE.SYSTEM.CONST>
0

>  <SCORE.SYSTEM.DIHEDRAL>
0

>  <SCORE.SYSTEM.SOLV>
0

>  <SCORE.SYSTEM.norm>
0

>  <SCORE.heavy>
25

>  <SCORE.norm>
-0.398278

>  <RMSD>
6.630

$$$$
ligand
 OpenBabel11021811503D
libRbt.so/2013.1/901 2013/11/27
 25 27  0  0  0  0  0  0  0  0999 V2000
    5.1562  -20.6042   29.0823 N   0  0  0  0  0  0  0  0  0  0  0  0
    5.0403  -21.9854   28.7299 C   0  0  0  0  0  0  0  0  0  0  0  0
    4.6260  -22.8056   29.5397 O   0  0  0  0  0  0  0  0  0  0  0  0
    8.2268  -16.9925   22.4192 N   0  0  0  0  0  0  0  0  0  0  0  0
    7.2352  -18.8748   21.3062 N   0  0  0  0  0  0  0  0  0  0  0  0
    8.1815  -18.3919   22.1441 C   0  0  0  0  0  0  0  0  0  0  0  0
    9.1013  -19.2204   22.7237 N   0  0  0  0  0  0  0  0  0  0  0  0
    9.1110  -20.5583   22.4947 C   0  0  0  0  0  0  0  0  0  0  0  0
    8.1280  -21.1046   21.6350 C   0  0  0  0  0  0  0  0  0  0  0  0
   10.0544  -21.3422   23.1164 O   0  0  0  0  0  0  0  0  0  0  0  0
    9.1791  -23.3521   21.0503 C   0  0  0  0  0  0  0  0  0  0  0  0
    8.0292  -22.5103   21.2777 N   0  0  0  0  0  0  0  0  0  0  0  0
    9.6893  -23.5073   19.9460 O   0  0  0  0  0  0  0  0  0  0  0  0
    6.7263  -22.9760   21.0603 C   0  0  2  0  0  0  0  0  0  0  0  0
    6.0538  -22.1339   19.9457 C   0  0  0  0  0  0  0  0  0  0  0  0
    7.1875  -20.2154   21.0253 C   0  0  0  0  0  0  0  0  0  0  0  0
    6.1526  -20.7425   20.1316 N   0  0  0  0  0  0  0  0  0  0  0  0
    5.9110  -22.9133   22.3361 C   0  0  0  0  0  0  0  0  0  0  0  0
    6.3967  -23.6634   23.4610 N   0  0  0  0  0  0  0  0  0  0  0  0
    5.4168  -22.4074   27.3519 C   0  0  0  0  0  0  0  0  0  0  0  0
    6.6573  -22.0826   26.8205 C   0  0  0  0  0  0  0  0  0  0  0  0
    6.9785  -22.4920   25.5320 C   0  0  0  0  0  0  0  0  0  0  0  0
    6.0668  -23.2341   24.7838 C   0  0  0  0  0  0  0  0  0  0  0  0
    4.8354  -23.5648   25.3218 C   0  0  0  0  0  0  0  0  0  0  0  0
    4.5095  -23.1461   26.6063 C   0  0  0  0  0  0  0  0  0  0  0  0
  1  2  1  0  0  0  0
  2  3  2  0  0  0  0
  2 20  1  0  0  0  0
  4  6  1  0  0  0  0
  5  6  2  0  0  0  0
  5 16  1  0  0  0  0
  6  7  1  0  0  0  0
  7  8  1  0  0  0  0
  8  9  1  0  0  0  0
  8 10  2  0  0  0  0
  9 12  1  0  0  0  0
  9 16  2  0  0  0  0
 11 13  1  0  0  0  0
 11 12  1  0  0  0  0
 12 14  1  0  0  0  0
 14 15  1  0  0  0  0
 14 18  1  1  0  0  0
 15 17  1  0  0  0  0
 16 17  1  0  0  0  0
 18 19  1  0  0  0  0
 19 23  1  0  0  0  0
 20 21  2  0  0  0  0
 20 25  1  0  0  0  0
 21 22  1  0  0  0  0
 22 23  2  0  0  0  0
 23 24  1  0  0  0  0
 24 25  2  0  0  0  0
M  END
>  <CHROM.1>
-91.24265802,-59.29415461,153.18285202,-98.85209473,53.13422428,7.03555557
-21.63823625,23.53425849,-2.68395120,-1.11854928,-2.45426255

>  <Name>
ligand

>  <RI>
0

>  <Rbt.Current_Directory>
/home/itssahil/PROJECTS/Mol_Feturizer/New_Systems/rnas/4LVV

>  <Rbt.Executable>
rbdock ($Id: //depot/dev/client3/rdock/2013.1/src/exe/rbdock.cxx#4 $)

>  <Rbt.Library>
libRbt.so (2013.1, Build901 2013/11/27)

>  <Rbt.Parameter_File>
/export/apps/rDock/src/rDock_2013.1_src/data/scripts/dock_solv.prm

>  <Rbt.Receptor>
prm/pocket_docking_5.prm

>  <SCORE>
-7.86754

>  <SCORE.INTER>
-6.1026

>  <SCORE.INTER.CONST>
1

>  <SCORE.INTER.POLAR>
0

>  <SCORE.INTER.ROT>
5

>  <SCORE.INTER.SOLV>
10.1807

>  <SCORE.INTER.VDW>
-14.3953

>  <SCORE.INTER.norm>
-0.244104

>  <SCORE.INTRA>
-1.76495

>  <SCORE.INTRA.DIHEDRAL>
-0.357411

>  <SCORE.INTRA.DIHEDRAL.0>
3.94806

>  <SCORE.INTRA.POLAR>
0

>  <SCORE.INTRA.POLAR.0>
0

>  <SCORE.INTRA.REPUL>
0

>  <SCORE.INTRA.REPUL.0>
0

>  <SCORE.INTRA.SOLV>
-0.12008

>  <SCORE.INTRA.SOLV.lig_0>
-70.9803

>  <SCORE.INTRA.VDW>
-1.5262

>  <SCORE.INTRA.VDW.0>
-0.709409

>  <SCORE.INTRA.norm>
-0.0705979

>  <SCORE.RESTR>
0

>  <SCORE.RESTR.CAVITY>
0

>  <SCORE.RESTR.norm>
0

>  <SCORE.SYSTEM>
0

>  <SCORE.SYSTEM.CONST>
0

>  <SCORE.SYSTEM.DIHEDRAL>
0

>  <SCORE.SYSTEM.SOLV>
0

>  <SCORE.SYSTEM.norm>
0

>  <SCORE.heavy>
25

>  <SCORE.norm>
-0.314702

>  <RMSD>
6.666

$$$$
ligand
 OpenBabel11021811503D
libRbt.so/2013.1/901 2013/11/27
 25 27  0  0  0  0  0  0  0  0999 V2000
    7.8253  -13.3202   24.0848 N   0  0  0  0  0  0  0  0  0  0  0  0
    6.4859  -13.5472   24.5318 C   0  0  0  0  0  0  0  0  0  0  0  0
    5.7293  -12.6080   24.7449 O   0  0  0  0  0  0  0  0  0  0  0  0
    7.3190  -23.0331   19.8973 N   0  0  0  0  0  0  0  0  0  0  0  0
    5.2744  -22.3705   20.9679 N   0  0  0  0  0  0  0  0  0  0  0  0
    6.5725  -22.7364   21.0767 C   0  0  0  0  0  0  0  0  0  0  0  0
    7.1783  -22.8367   22.2979 N   0  0  0  0  0  0  0  0  0  0  0  0
    6.5172  -22.5730   23.4538 C   0  0  0  0  0  0  0  0  0  0  0  0
    5.1613  -22.1731   23.3815 C   0  0  0  0  0  0  0  0  0  0  0  0
    7.1842  -22.6797   24.6516 O   0  0  0  0  0  0  0  0  0  0  0  0
    4.3866  -22.6249   25.7677 C   0  0  0  0  0  0  0  0  0  0  0  0
    4.3212  -21.8826   24.5318 N   0  0  0  0  0  0  0  0  0  0  0  0
    4.9535  -23.7074   25.8711 O   0  0  0  0  0  0  0  0  0  0  0  0
    3.3549  -20.8902   24.3239 C   0  0  2  0  0  0  0  0  0  0  0  0
    2.4444  -21.2936   23.1357 C   0  0  0  0  0  0  0  0  0  0  0  0
    4.5434  -22.0934   22.0936 C   0  0  0  0  0  0  0  0  0  0  0  0
    3.1422  -21.6803   21.9765 N   0  0  0  0  0  0  0  0  0  0  0  0
    4.0077  -19.5486   24.0590 C   0  0  0  0  0  0  0  0  0  0  0  0
    4.6278  -18.8904   25.1755 N   0  0  0  0  0  0  0  0  0  0  0  0
    6.0205  -14.9500   24.7176 C   0  0  0  0  0  0  0  0  0  0  0  0
    6.5247  -15.7388   25.7425 C   0  0  0  0  0  0  0  0  0  0  0  0
    6.0693  -17.0434   25.8895 C   0  0  0  0  0  0  0  0  0  0  0  0
    5.1041  -17.5516   25.0225 C   0  0  0  0  0  0  0  0  0  0  0  0
    4.5966  -16.7578   24.0087 C   0  0  0  0  0  0  0  0  0  0  0  0
    5.0598  -15.4567   23.8545 C   0  0  0  0  0  0  0  0  0  0  0  0
  1  2  1  0  0  0  0
  2  3  2  0  0  0  0
  2 20  1  0  0  0  0
  4  6  1  0  0  0  0
  5  6  2  0  0  0  0
  5 16  1  0  0  0  0
  6  7  1  0  0  0  0
  7  8  1  0  0  0  0
  8  9  1  0  0  0  0
  8 10  2  0  0  0  0
  9 12  1  0  0  0  0
  9 16  2  0  0  0  0
 11 13  1  0  0  0  0
 11 12  1  0  0  0  0
 12 14  1  0  0  0  0
 14 15  1  0  0  0  0
 14 18  1  6  0  0  0
 15 17  1  0  0  0  0
 16 17  1  0  0  0  0
 18 19  1  0  0  0  0
 19 23  1  0  0  0  0
 20 21  2  0  0  0  0
 20 25  1  0  0  0  0
 21 22  1  0  0  0  0
 22 23  2  0  0  0  0
 23 24  1  0  0  0  0
 24 25  2  0  0  0  0
M  END
>  <CHROM.1>
-14.65455951,-72.45435236,-171.96145295,-158.93641412,69.26067936,5.37117078
-19.60276294,23.82070505,-1.42873742,-0.91844315,-2.81733042

>  <Name>
ligand

>  <RI>
0

>  <Rbt.Current_Directory>
/home/itssahil/PROJECTS/Mol_Feturizer/New_Systems/rnas/4LVV

>  <Rbt.Executable>
rbdock ($Id: //depot/dev/client3/rdock/2013.1/src/exe/rbdock.cxx#4 $)

>  <Rbt.Library>
libRbt.so (2013.1, Build901 2013/11/27)

>  <Rbt.Parameter_File>
/export/apps/rDock/src/rDock_2013.1_src/data/scripts/dock_solv.prm

>  <Rbt.Receptor>
prm/pocket_docking_7.prm

>  <SCORE>
-8.68388

>  <SCORE.INTER>
-8.42287

>  <SCORE.INTER.CONST>
1

>  <SCORE.INTER.POLAR>
0

>  <SCORE.INTER.ROT>
5

>  <SCORE.INTER.SOLV>
11.6006

>  <SCORE.INTER.VDW>
-16.4155

>  <SCORE.INTER.norm>
-0.336915

>  <SCORE.INTRA>
-0.261003

>  <SCORE.INTRA.DIHEDRAL>
0.0361527

>  <SCORE.INTRA.DIHEDRAL.0>
3.94806

>  <SCORE.INTRA.POLAR>
0

>  <SCORE.INTRA.POLAR.0>
0

>  <SCORE.INTRA.REPUL>
0

>  <SCORE.INTRA.REPUL.0>
0

>  <SCORE.INTRA.SOLV>
-0.038003

>  <SCORE.INTRA.SOLV.lig_0>
-70.9803

>  <SCORE.INTRA.VDW>
-0.260078

>  <SCORE.INTRA.VDW.0>
-0.709409

>  <SCORE.INTRA.norm>
-0.0104401

>  <SCORE.RESTR>
0

>  <SCORE.RESTR.CAVITY>
0

>  <SCORE.RESTR.norm>
0

>  <SCORE.SYSTEM>
0

>  <SCORE.SYSTEM.CONST>
0

>  <SCORE.SYSTEM.DIHEDRAL>
0

>  <SCORE.SYSTEM.SOLV>
0

>  <SCORE.SYSTEM.norm>
0

>  <SCORE.heavy>
25

>  <SCORE.norm>
-0.347355

>  <RMSD>
6.719

$$$$
ligand
 OpenBabel11021811503D
libRbt.so/2013.1/901 2013/11/27
 25 27  0  0  0  0  0  0  0  0999 V2000
    0.4362  -19.6115   26.6481 N   0  0  0  0  0  0  0  0  0  0  0  0
    0.3688  -20.7083   25.7328 C   0  0  0  0  0  0  0  0  0  0  0  0
   -0.6852  -21.3032   25.5448 O   0  0  0  0  0  0  0  0  0  0  0  0
    3.4971  -15.9070   21.0094 N   0  0  0  0  0  0  0  0  0  0  0  0
    4.4516  -17.9242   20.1235 N   0  0  0  0  0  0  0  0  0  0  0  0
    4.3336  -17.0540   21.1529 C   0  0  0  0  0  0  0  0  0  0  0  0
    5.0102  -17.2496   22.3244 N   0  0  0  0  0  0  0  0  0  0  0  0
    5.8244  -18.3186   22.5162 C   0  0  0  0  0  0  0  0  0  0  0  0
    5.9634  -19.2598   21.4681 C   0  0  0  0  0  0  0  0  0  0  0  0
    6.4693  -18.4675   23.7216 O   0  0  0  0  0  0  0  0  0  0  0  0
    8.1117  -20.4478   22.1547 C   0  0  0  0  0  0  0  0  0  0  0  0
    6.8161  -20.4361   21.5192 N   0  0  0  0  0  0  0  0  0  0  0  0
    8.3907  -21.1821   23.0965 O   0  0  0  0  0  0  0  0  0  0  0  0
    6.3390  -21.5447   20.8084 C   0  0  2  0  0  0  0  0  0  0  0  0
    6.1225  -21.1548   19.3235 C   0  0  0  0  0  0  0  0  0  0  0  0
    5.2603  -19.0241   20.2446 C   0  0  0  0  0  0  0  0  0  0  0  0
    5.3758  -19.9767   19.1370 N   0  0  0  0  0  0  0  0  0  0  0  0
    5.0489  -22.0595   21.4141 C   0  0  0  0  0  0  0  0  0  0  0  0
    5.0237  -22.2479   22.8382 N   0  0  0  0  0  0  0  0  0  0  0  0
    1.6020  -21.1046   24.9973 C   0  0  0  0  0  0  0  0  0  0  0  0
    2.8090  -21.2661   25.6637 C   0  0  0  0  0  0  0  0  0  0  0  0
    3.9413  -21.6373   24.9489 C   0  0  0  0  0  0  0  0  0  0  0  0
    3.8628  -21.8585   23.5754 C   0  0  0  0  0  0  0  0  0  0  0  0
    2.6549  -21.7067   22.9171 C   0  0  0  0  0  0  0  0  0  0  0  0
    1.5247  -21.3247   23.6297 C   0  0  0  0  0  0  0  0  0  0  0  0
  1  2  1  0  0  0  0
  2  3  2  0  0  0  0
  2 20  1  0  0  0  0
  4  6  1  0  0  0  0
  5  6  2  0  0  0  0
  5 16  1  0  0  0  0
  6  7  1  0  0  0  0
  7  8  1  0  0  0  0
  8  9  1  0  0  0  0
  8 10  2  0  0  0  0
  9 12  1  0  0  0  0
  9 16  2  0  0  0  0
 11 13  1  0  0  0  0
 11 12  1  0  0  0  0
 12 14  1  0  0  0  0
 14 15  1  0  0  0  0
 14 18  1  1  0  0  0
 15 17  1  0  0  0  0
 16 17  1  0  0  0  0
 18 19  1  0  0  0  0
 19 23  1  0  0  0  0
 20 21  2  0  0  0  0
 20 25  1  0  0  0  0
 21 22  1  0  0  0  0
 22 23  2  0  0  0  0
 23 24  1  0  0  0  0
 24 25  2  0  0  0  0
M  END
>  <CHROM.1>
119.50604437,-48.09683599,138.57518204,-160.17281678,47.70481146,4.40104446
-20.09844568,22.64638039,2.66247460,-0.54396559,2.64401171

>  <Name>
ligand

>  <RI>
0

>  <Rbt.Current_Directory>
/home/itssahil/PROJECTS/Mol_Feturizer/New_Systems/rnas/4LVV

>  <Rbt.Executable>
rbdock ($Id: //depot/dev/client3/rdock/2013.1/src/exe/rbdock.cxx#4 $)

>  <Rbt.Library>
libRbt.so (2013.1, Build901 2013/11/27)

>  <Rbt.Parameter_File>
/export/apps/rDock/src/rDock_2013.1_src/data/scripts/dock_solv.prm

>  <Rbt.Receptor>
prm/pocket_docking_5.prm

>  <SCORE>
-6.99418

>  <SCORE.INTER>
-6.87787

>  <SCORE.INTER.CONST>
1

>  <SCORE.INTER.POLAR>
0

>  <SCORE.INTER.ROT>
5

>  <SCORE.INTER.SOLV>
13.4498

>  <SCORE.INTER.VDW>
-16.0018

>  <SCORE.INTER.norm>
-0.275115

>  <SCORE.INTRA>
-0.116304

>  <SCORE.INTRA.DIHEDRAL>
0.756391

>  <SCORE.INTRA.DIHEDRAL.0>
3.94806

>  <SCORE.INTRA.POLAR>
0

>  <SCORE.INTRA.POLAR.0>
0

>  <SCORE.INTRA.REPUL>
0

>  <SCORE.INTRA.REPUL.0>
0

>  <SCORE.INTRA.SOLV>
0.74122

>  <SCORE.INTRA.SOLV.lig_0>
-70.9803

>  <SCORE.INTRA.VDW>
-0.86511

>  <SCORE.INTRA.VDW.0>
-0.709409

>  <SCORE.INTRA.norm>
-0.00465216

>  <SCORE.RESTR>
0

>  <SCORE.RESTR.CAVITY>
0

>  <SCORE.RESTR.norm>
0

>  <SCORE.SYSTEM>
0

>  <SCORE.SYSTEM.CONST>
0

>  <SCORE.SYSTEM.DIHEDRAL>
0

>  <SCORE.SYSTEM.SOLV>
0

>  <SCORE.SYSTEM.norm>
0

>  <SCORE.heavy>
25

>  <SCORE.norm>
-0.279767

>  <RMSD>
6.779

$$$$
ligand
 OpenBabel11021811503D
libRbt.so/2013.1/901 2013/11/27
 25 27  0  0  0  0  0  0  0  0999 V2000
    8.5528  -23.7018   23.1502 N   0  0  0  0  0  0  0  0  0  0  0  0
    7.1246  -23.6289   23.1669 C   0  0  0  0  0  0  0  0  0  0  0  0
    6.4711  -23.9200   22.1728 O   0  0  0  0  0  0  0  0  0  0  0  0
   11.0857  -24.1003   29.6277 N   0  0  0  0  0  0  0  0  0  0  0  0
    9.0252  -23.3118   30.5752 N   0  0  0  0  0  0  0  0  0  0  0  0
    9.9526  -23.2337   29.5930 C   0  0  0  0  0  0  0  0  0  0  0  0
    9.8279  -22.3317   28.5736 N   0  0  0  0  0  0  0  0  0  0  0  0
    8.7755  -21.4784   28.4916 C   0  0  0  0  0  0  0  0  0  0  0  0
    7.7761  -21.5386   29.4922 C   0  0  0  0  0  0  0  0  0  0  0  0
    8.6991  -20.6013   27.4352 O   0  0  0  0  0  0  0  0  0  0  0  0
    6.6393  -19.2771   29.1897 C   0  0  0  0  0  0  0  0  0  0  0  0
    6.6085  -20.6743   29.5496 N   0  0  0  0  0  0  0  0  0  0  0  0
    7.0463  -18.3989   29.9427 O   0  0  0  0  0  0  0  0  0  0  0  0
    5.4588  -21.2671   30.0866 C   0  0  2  0  0  0  0  0  0  0  0  0
    5.7615  -21.7848   31.5162 C   0  0  0  0  0  0  0  0  0  0  0  0
    7.9377  -22.4777   30.5593 C   0  0  0  0  0  0  0  0  0  0  0  0
    6.9235  -22.5727   31.6129 N   0  0  0  0  0  0  0  0  0  0  0  0
    4.9738  -22.4000   29.2048 C   0  0  0  0  0  0  0  0  0  0  0  0
    4.4273  -22.0451   27.9243 N   0  0  0  0  0  0  0  0  0  0  0  0
    6.4432  -23.2082   24.4229 C   0  0  0  0  0  0  0  0  0  0  0  0
    7.1249  -22.4960   25.4000 C   0  0  0  0  0  0  0  0  0  0  0  0
    6.4604  -22.1175   26.5602 C   0  0  0  0  0  0  0  0  0  0  0  0
    5.1160  -22.4394   26.7356 C   0  0  0  0  0  0  0  0  0  0  0  0
    4.4376  -23.1403   25.7539 C   0  0  0  0  0  0  0  0  0  0  0  0
    5.1048  -23.5287   24.5983 C   0  0  0  0  0  0  0  0  0  0  0  0
  1  2  1  0  0  0  0
  2  3  2  0  0  0  0
  2 20  1  0  0  0  0
  4  6  1  0  0  0  0
  5  6  2  0  0  0  0
  5 16  1  0  0  0  0
  6  7  1  0  0  0  0
  7  8  1  0  0  0  0
  8  9  1  0  0  0  0
  8 10  2  0  0  0  0
  9 12  1  0  0  0  0
  9 16  2  0  0  0  0
 11 13  1  0  0  0  0
 11 12  1  0  0  0  0
 12 14  1  0  0  0  0
 14 15  1  0  0  0  0
 14 18  1  6  0  0  0
 15 17  1  0  0  0  0
 16 17  1  0  0  0  0
 18 19  1  0  0  0  0
 19 23  1  0  0  0  0
 20 21  2  0  0  0  0
 20 25  1  0  0  0  0
 21 22  1  0  0  0  0
 22 23  2  0  0  0  0
 23 24  1  0  0  0  0
 24 25  2  0  0  0  0
M  END
>  <CHROM.1>
-80.38778793,-69.13647371,113.76856480,-53.67282102,20.76852321,7.13185617
-22.17844935,27.85072809,-1.72165514,-0.33197368,1.23844373

>  <Name>
ligand

>  <RI>
0

>  <Rbt.Current_Directory>
/home/itssahil/PROJECTS/Mol_Feturizer/New_Systems/rnas/4LVV

>  <Rbt.Executable>
rbdock ($Id: //depot/dev/client3/rdock/2013.1/src/exe/rbdock.cxx#4 $)

>  <Rbt.Library>
libRbt.so (2013.1, Build901 2013/11/27)

>  <Rbt.Parameter_File>
/export/apps/rDock/src/rDock_2013.1_src/data/scripts/dock_solv.prm

>  <Rbt.Receptor>
prm/pocket_docking_7.prm

>  <SCORE>
-9.81922

>  <SCORE.INTER>
-8.27552

>  <SCORE.INTER.CONST>
1

>  <SCORE.INTER.POLAR>
0

>  <SCORE.INTER.ROT>
5

>  <SCORE.INTER.SOLV>
11.4607

>  <SCORE.INTER.VDW>
-16.2706

>  <SCORE.INTER.norm>
-0.331021

>  <SCORE.INTRA>
-1.54371

>  <SCORE.INTRA.DIHEDRAL>
0.590803

>  <SCORE.INTRA.DIHEDRAL.0>
3.94806

>  <SCORE.INTRA.POLAR>
0

>  <SCORE.INTRA.POLAR.0>
0

>  <SCORE.INTRA.REPUL>
0

>  <SCORE.INTRA.REPUL.0>
0

>  <SCORE.INTRA.SOLV>
0.159111

>  <SCORE.INTRA.SOLV.lig_0>
-70.9803

>  <SCORE.INTRA.VDW>
-1.91866

>  <SCORE.INTRA.VDW.0>
-0.709409

>  <SCORE.INTRA.norm>
-0.0617482

>  <SCORE.RESTR>
0

>  <SCORE.RESTR.CAVITY>
0

>  <SCORE.RESTR.norm>
0

>  <SCORE.SYSTEM>
0

>  <SCORE.SYSTEM.CONST>
0

>  <SCORE.SYSTEM.DIHEDRAL>
0

>  <SCORE.SYSTEM.SOLV>
0

>  <SCORE.SYSTEM.norm>
0

>  <SCORE.heavy>
25

>  <SCORE.norm>
-0.392769

>  <RMSD>
6.853

$$$$
ligand
 OpenBabel11021811503D
libRbt.so/2013.1/901 2013/11/27
 25 27  0  0  0  0  0  0  0  0999 V2000
   -1.4731  -20.9356   25.4709 N   0  0  0  0  0  0  0  0  0  0  0  0
   -0.1710  -21.2348   25.9811 C   0  0  0  0  0  0  0  0  0  0  0  0
   -0.0323  -21.7247   27.0951 O   0  0  0  0  0  0  0  0  0  0  0  0
    6.4243  -21.5235   29.4915 N   0  0  0  0  0  0  0  0  0  0  0  0
    7.2670  -20.9605   27.3148 N   0  0  0  0  0  0  0  0  0  0  0  0
    6.3986  -21.6695   28.0723 C   0  0  0  0  0  0  0  0  0  0  0  0
    5.5037  -22.5311   27.5019 N   0  0  0  0  0  0  0  0  0  0  0  0
    5.4372  -22.7156   26.1587 C   0  0  0  0  0  0  0  0  0  0  0  0
    6.3195  -21.9813   25.3305 C   0  0  0  0  0  0  0  0  0  0  0  0
    4.5072  -23.5874   25.6430 O   0  0  0  0  0  0  0  0  0  0  0  0
    6.2185  -23.3403   23.1762 C   0  0  0  0  0  0  0  0  0  0  0  0
    6.3808  -22.0921   23.8823 N   0  0  0  0  0  0  0  0  0  0  0  0
    6.0333  -23.4075   21.9658 O   0  0  0  0  0  0  0  0  0  0  0  0
    6.7191  -20.9100   23.2116 C   0  0  2  0  0  0  0  0  0  0  0  0
    8.0877  -20.3950   23.7266 C   0  0  0  0  0  0  0  0  0  0  0  0
    7.2598  -21.0997   25.9513 C   0  0  0  0  0  0  0  0  0  0  0  0
    8.1881  -20.3197   25.1282 N   0  0  0  0  0  0  0  0  0  0  0  0
    5.6492  -19.8546   23.4055 C   0  0  0  0  0  0  0  0  0  0  0  0
    4.3831  -20.0803   22.7650 N   0  0  0  0  0  0  0  0  0  0  0  0
    1.0156  -20.9556   25.1251 C   0  0  0  0  0  0  0  0  0  0  0  0
    1.2179  -21.6475   23.9389 C   0  0  0  0  0  0  0  0  0  0  0  0
    2.3346  -21.3629   23.1623 C   0  0  0  0  0  0  0  0  0  0  0  0
    3.2376  -20.3810   23.5650 C   0  0  0  0  0  0  0  0  0  0  0  0
    3.0260  -19.6863   24.7431 C   0  0  0  0  0  0  0  0  0  0  0  0
    1.9153  -19.9783   25.5256 C   0  0  0  0  0  0  0  0  0  0  0  0
  1  2  1  0  0  0  0
  2  3  2  0  0  0  0
  2 20  1  0  0  0  0
  4  6  1  0  0  0  0
  5  6  2  0  0  0  0
  5 16  1  0  0  0  0
  6  7  1  0  0  0  0
  7  8  1  0  0  0  0
  8  9  1  0  0  0  0
  8 10  2  0  0  0  0
  9 12  1  0  0  0  0
  9 16  2  0  0  0  0
 11 13  1  0  0  0  0
 11 12  1  0  0  0  0
 12 14  1  0  0  0  0
 14 15  1  0  0  0  0
 14 18  1  1  0  0  0
 15 17  1  0  0  0  0
 16 17  1  0  0  0  0
 18 19  1  0  0  0  0
 19 23  1  0  0  0  0
 20 21  2  0  0  0  0
 20 25  1  0  0  0  0
 21 22  1  0  0  0  0
 22 23  2  0  0  0  0
 23 24  1  0  0  0  0
 24 25  2  0  0  0  0
M  END
>  <CHROM.1>
166.64319318,-69.28113174,110.18504849,-138.45455755,-65.24001378,4.51742185
-21.41825398,25.08596515,-3.10056696,0.06018042,-1.50494483

>  <Name>
ligand

>  <RI>
0

>  <Rbt.Current_Directory>
/home/itssahil/PROJECTS/Mol_Feturizer/New_Systems/rnas/4LVV

>  <Rbt.Executable>
rbdock ($Id: //depot/dev/client3/rdock/2013.1/src/exe/rbdock.cxx#4 $)

>  <Rbt.Library>
libRbt.so (2013.1, Build901 2013/11/27)

>  <Rbt.Parameter_File>
/export/apps/rDock/src/rDock_2013.1_src/data/scripts/dock_solv.prm

>  <Rbt.Receptor>
prm/pocket_docking_4.prm

>  <SCORE>
-13.1052

>  <SCORE.INTER>
-11.8116

>  <SCORE.INTER.CONST>
1

>  <SCORE.INTER.POLAR>
0

>  <SCORE.INTER.ROT>
5

>  <SCORE.INTER.SOLV>
15.5392

>  <SCORE.INTER.VDW>
-19.9874

>  <SCORE.INTER.norm>
-0.472463

>  <SCORE.INTRA>
-1.29364

>  <SCORE.INTRA.DIHEDRAL>
0.599315

>  <SCORE.INTRA.DIHEDRAL.0>
3.94806

>  <SCORE.INTRA.POLAR>
0

>  <SCORE.INTRA.POLAR.0>
0

>  <SCORE.INTRA.REPUL>
0

>  <SCORE.INTRA.REPUL.0>
0

>  <SCORE.INTRA.SOLV>
0.144364

>  <SCORE.INTRA.SOLV.lig_0>
-70.9803

>  <SCORE.INTRA.VDW>
-1.66548

>  <SCORE.INTRA.VDW.0>
-0.709409

>  <SCORE.INTRA.norm>
-0.0517458

>  <SCORE.RESTR>
0

>  <SCORE.RESTR.CAVITY>
0

>  <SCORE.RESTR.norm>
0

>  <SCORE.SYSTEM>
0

>  <SCORE.SYSTEM.CONST>
0

>  <SCORE.SYSTEM.DIHEDRAL>
0

>  <SCORE.SYSTEM.SOLV>
0

>  <SCORE.SYSTEM.norm>
0

>  <SCORE.heavy>
25

>  <SCORE.norm>
-0.524209

>  <RMSD>
6.998

$$$$
ligand
 OpenBabel11021811503D
libRbt.so/2013.1/901 2013/11/27
 25 27  0  0  0  0  0  0  0  0999 V2000
    7.6681  -13.4086   23.8382 N   0  0  0  0  0  0  0  0  0  0  0  0
    6.3001  -13.4872   24.2477 C   0  0  0  0  0  0  0  0  0  0  0  0
    5.7143  -12.4970   24.6676 O   0  0  0  0  0  0  0  0  0  0  0  0
    7.5026  -23.1995   19.6226 N   0  0  0  0  0  0  0  0  0  0  0  0
    5.5080  -22.4499   20.7293 N   0  0  0  0  0  0  0  0  0  0  0  0
    6.7753  -22.9158   20.8170 C   0  0  0  0  0  0  0  0  0  0  0  0
    7.3673  -23.1290   22.0305 N   0  0  0  0  0  0  0  0  0  0  0  0
    6.7229  -22.8830   23.1995 C   0  0  0  0  0  0  0  0  0  0  0  0
    5.4003  -22.3811   23.1502 C   0  0  0  0  0  0  0  0  0  0  0  0
    7.3754  -23.1058   24.3893 O   0  0  0  0  0  0  0  0  0  0  0  0
    4.5851  -22.9086   25.5073 C   0  0  0  0  0  0  0  0  0  0  0  0
    4.5792  -22.0949   24.3154 N   0  0  0  0  0  0  0  0  0  0  0  0
    5.1028  -24.0191   25.5592 O   0  0  0  0  0  0  0  0  0  0  0  0
    3.6891  -21.0241   24.1641 C   0  0  2  0  0  0  0  0  0  0  0  0
    2.7562  -21.2918   22.9552 C   0  0  0  0  0  0  0  0  0  0  0  0
    4.7949  -22.1837   21.8691 C   0  0  0  0  0  0  0  0  0  0  0  0
    3.4283  -21.6628   21.7758 N   0  0  0  0  0  0  0  0  0  0  0  0
    4.4397  -19.7213   23.9754 C   0  0  0  0  0  0  0  0  0  0  0  0
    3.6569  -18.5185   23.9074 N   0  0  0  0  0  0  0  0  0  0  0  0
    5.5932  -14.7937   24.1380 C   0  0  0  0  0  0  0  0  0  0  0  0
    4.7923  -15.0815   23.0414 C   0  0  0  0  0  0  0  0  0  0  0  0
    4.1469  -16.3099   22.9685 C   0  0  0  0  0  0  0  0  0  0  0  0
    4.3130  -17.2510   23.9827 C   0  0  0  0  0  0  0  0  0  0  0  0
    5.1211  -16.9638   25.0689 C   0  0  0  0  0  0  0  0  0  0  0  0
    5.7578  -15.7311   25.1475 C   0  0  0  0  0  0  0  0  0  0  0  0
  1  2  1  0  0  0  0
  2  3  2  0  0  0  0
  2 20  1  0  0  0  0
  4  6  1  0  0  0  0
  5  6  2  0  0  0  0
  5 16  1  0  0  0  0
  6  7  1  0  0  0  0
  7  8  1  0  0  0  0
  8  9  1  0  0  0  0
  8 10  2  0  0  0  0
  9 12  1  0  0  0  0
  9 16  2  0  0  0  0
 11 13  1  0  0  0  0
 11 12  1  0  0  0  0
 12 14  1  0  0  0  0
 14 15  1  0  0  0  0
 14 18  1  6  0  0  0
 15 17  1  0  0  0  0
 16 17  1  0  0  0  0
 18 19  1  0  0  0  0
 19 23  1  0  0  0  0
 20 21  2  0  0  0  0
 20 25  1  0  0  0  0
 21 22  1  0  0  0  0
 22 23  2  0  0  0  0
 23 24  1  0  0  0  0
 24 25  2  0  0  0  0
M  END
>  <CHROM.1>
-12.59400473,-175.45366019,168.35030470,123.67645050,-96.87080895,5.33458403
-19.65304748,23.42574564,-1.57565238,-0.88064684,-2.98142022

>  <Name>
ligand

>  <RI>
0

>  <Rbt.Current_Directory>
/home/itssahil/PROJECTS/Mol_Feturizer/New_Systems/rnas/4LVV

>  <Rbt.Executable>
rbdock ($Id: //depot/dev/client3/rdock/2013.1/src/exe/rbdock.cxx#4 $)

>  <Rbt.Library>
libRbt.so (2013.1, Build901 2013/11/27)

>  <Rbt.Parameter_File>
/export/apps/rDock/src/rDock_2013.1_src/data/scripts/dock_solv.prm

>  <Rbt.Receptor>
prm/pocket_docking_8.prm

>  <SCORE>
-9.44711

>  <SCORE.INTER>
-8.53381

>  <SCORE.INTER.CONST>
1

>  <SCORE.INTER.POLAR>
0

>  <SCORE.INTER.ROT>
5

>  <SCORE.INTER.SOLV>
13.5727

>  <SCORE.INTER.VDW>
-17.1468

>  <SCORE.INTER.norm>
-0.341353

>  <SCORE.INTRA>
-0.913296

>  <SCORE.INTRA.DIHEDRAL>
-0.411243

>  <SCORE.INTRA.DIHEDRAL.0>
3.94806

>  <SCORE.INTRA.POLAR>
0

>  <SCORE.INTRA.POLAR.0>
0

>  <SCORE.INTRA.REPUL>
0

>  <SCORE.INTRA.REPUL.0>
0

>  <SCORE.INTRA.SOLV>
-0.0631664

>  <SCORE.INTRA.SOLV.lig_0>
-70.9803

>  <SCORE.INTRA.VDW>
-0.676091

>  <SCORE.INTRA.VDW.0>
-0.709409

>  <SCORE.INTRA.norm>
-0.0365318

>  <SCORE.RESTR>
0

>  <SCORE.RESTR.CAVITY>
0

>  <SCORE.RESTR.norm>
0

>  <SCORE.SYSTEM>
0

>  <SCORE.SYSTEM.CONST>
0

>  <SCORE.SYSTEM.DIHEDRAL>
0

>  <SCORE.SYSTEM.SOLV>
0

>  <SCORE.SYSTEM.norm>
0

>  <SCORE.heavy>
25

>  <SCORE.norm>
-0.377884

>  <RMSD>
7.026

$$$$
ligand
 OpenBabel11021811503D
libRbt.so/2013.1/901 2013/11/27
 25 27  0  0  0  0  0  0  0  0999 V2000
    5.0702  -13.9968   22.6868 N   0  0  0  0  0  0  0  0  0  0  0  0
    5.3380  -15.3937   22.5377 C   0  0  0  0  0  0  0  0  0  0  0  0
    5.8698  -15.8244   21.5219 O   0  0  0  0  0  0  0  0  0  0  0  0
    9.8756  -22.9317   25.1278 N   0  0  0  0  0  0  0  0  0  0  0  0
    7.5193  -22.6544   25.4967 N   0  0  0  0  0  0  0  0  0  0  0  0
    8.7794  -22.6265   25.9888 C   0  0  0  0  0  0  0  0  0  0  0  0
    9.0195  -22.3210   27.2993 N   0  0  0  0  0  0  0  0  0  0  0  0
    8.0168  -22.0283   28.1661 C   0  0  0  0  0  0  0  0  0  0  0  0
    6.6851  -22.0328   27.6863 C   0  0  0  0  0  0  0  0  0  0  0  0
    8.3221  -21.7168   29.4702 O   0  0  0  0  0  0  0  0  0  0  0  0
    5.3766  -22.2080   29.8671 C   0  0  0  0  0  0  0  0  0  0  0  0
    5.5107  -21.7644   28.5003 N   0  0  0  0  0  0  0  0  0  0  0  0
    4.5044  -22.9865   30.2374 O   0  0  0  0  0  0  0  0  0  0  0  0
    4.4572  -21.1307   27.8293 C   0  0  2  0  0  0  0  0  0  0  0  0
    4.0288  -21.9874   26.6102 C   0  0  0  0  0  0  0  0  0  0  0  0
    6.4569  -22.3739   26.3158 C   0  0  0  0  0  0  0  0  0  0  0  0
    5.0928  -22.3868   25.7803 N   0  0  0  0  0  0  0  0  0  0  0  0
    4.8607  -19.7398   27.3834 C   0  0  0  0  0  0  0  0  0  0  0  0
    3.8560  -18.9426   26.7359 N   0  0  0  0  0  0  0  0  0  0  0  0
    4.9735  -16.3158   23.6493 C   0  0  0  0  0  0  0  0  0  0  0  0
    5.6590  -16.2843   24.8558 C   0  0  0  0  0  0  0  0  0  0  0  0
    5.2940  -17.1572   25.8736 C   0  0  0  0  0  0  0  0  0  0  0  0
    4.2391  -18.0487   25.6887 C   0  0  0  0  0  0  0  0  0  0  0  0
    3.5516  -18.0690   24.4877 C   0  0  0  0  0  0  0  0  0  0  0  0
    3.9235  -17.2039   23.4658 C   0  0  0  0  0  0  0  0  0  0  0  0
  1  2  1  0  0  0  0
  2  3  2  0  0  0  0
  2 20  1  0  0  0  0
  4  6  1  0  0  0  0
  5  6  2  0  0  0  0
  5 16  1  0  0  0  0
  6  7  1  0  0  0  0
  7  8  1  0  0  0  0
  8  9  1  0  0  0  0
  8 10  2  0  0  0  0
  9 12  1  0  0  0  0
  9 16  2  0  0  0  0
 11 13  1  0  0  0  0
 11 12  1  0  0  0  0
 12 14  1  0  0  0  0
 14 15  1  0  0  0  0
 14 18  1  6  0  0  0
 15 17  1  0  0  0  0
 16 17  1  0  0  0  0
 18 19  1  0  0  0  0
 19 23  1  0  0  0  0
 20 21  2  0  0  0  0
 20 25  1  0  0  0  0
 21 22  1  0  0  0  0
 22 23  2  0  0  0  0
 23 24  1  0  0  0  0
 24 25  2  0  0  0  0
M  END
>  <CHROM.1>
-117.78062531,-177.06605233,-145.28336757,-50.13786294,-69.16628519,5.87065648
-19.99592185,26.19497218,-1.83241855,-0.51468922,2.37544688

>  <Name>
ligand

>  <RI>
0

>  <Rbt.Current_Directory>
/home/itssahil/PROJECTS/Mol_Feturizer/New_Systems/rnas/4LVV

>  <Rbt.Executable>
rbdock ($Id: //depot/dev/client3/rdock/2013.1/src/exe/rbdock.cxx#4 $)

>  <Rbt.Library>
libRbt.so (2013.1, Build901 2013/11/27)

>  <Rbt.Parameter_File>
/export/apps/rDock/src/rDock_2013.1_src/data/scripts/dock_solv.prm

>  <Rbt.Receptor>
prm/pocket_docking_6.prm

>  <SCORE>
-6.87607

>  <SCORE.INTER>
-5.9686

>  <SCORE.INTER.CONST>
1

>  <SCORE.INTER.POLAR>
0

>  <SCORE.INTER.ROT>
5

>  <SCORE.INTER.SOLV>
10.312

>  <SCORE.INTER.VDW>
-14.3497

>  <SCORE.INTER.norm>
-0.238744

>  <SCORE.INTRA>
-0.907473

>  <SCORE.INTRA.DIHEDRAL>
0.0779771

>  <SCORE.INTRA.DIHEDRAL.0>
3.94806

>  <SCORE.INTRA.POLAR>
0

>  <SCORE.INTRA.POLAR.0>
0

>  <SCORE.INTRA.REPUL>
0

>  <SCORE.INTRA.REPUL.0>
0

>  <SCORE.INTRA.SOLV>
-0.327575

>  <SCORE.INTRA.SOLV.lig_0>
-70.9803

>  <SCORE.INTRA.VDW>
-0.782674

>  <SCORE.INTRA.VDW.0>
-0.709409

>  <SCORE.INTRA.norm>
-0.0362989

>  <SCORE.RESTR>
0

>  <SCORE.RESTR.CAVITY>
0

>  <SCORE.RESTR.norm>
0

>  <SCORE.SYSTEM>
0

>  <SCORE.SYSTEM.CONST>
0

>  <SCORE.SYSTEM.DIHEDRAL>
0

>  <SCORE.SYSTEM.SOLV>
0

>  <SCORE.SYSTEM.norm>
0

>  <SCORE.heavy>
25

>  <SCORE.norm>
-0.275043

>  <RMSD>
7.080

$$$$
ligand
 OpenBabel11021811503D
libRbt.so/2013.1/901 2013/11/27
 25 27  0  0  0  0  0  0  0  0999 V2000
    1.8618  -20.1165   25.6998 N   0  0  0  0  0  0  0  0  0  0  0  0
    1.7403  -21.1580   24.7272 C   0  0  0  0  0  0  0  0  0  0  0  0
    0.6431  -21.6180   24.4360 O   0  0  0  0  0  0  0  0  0  0  0  0
    7.5050  -21.9607   29.0518 N   0  0  0  0  0  0  0  0  0  0  0  0
    7.5068  -21.3083   26.7410 N   0  0  0  0  0  0  0  0  0  0  0  0
    8.0359  -22.0634   27.7313 C   0  0  0  0  0  0  0  0  0  0  0  0
    9.0772  -22.9156   27.4905 N   0  0  0  0  0  0  0  0  0  0  0  0
    9.6268  -23.0508   26.2567 C   0  0  0  0  0  0  0  0  0  0  0  0
    9.0919  -22.2885   25.1906 C   0  0  0  0  0  0  0  0  0  0  0  0
   10.6652  -23.9335   26.0740 O   0  0  0  0  0  0  0  0  0  0  0  0
   10.9931  -22.4088   23.4967 C   0  0  0  0  0  0  0  0  0  0  0  0
    9.5914  -22.3095   23.8255 N   0  0  0  0  0  0  0  0  0  0  0  0
   11.7645  -21.4572   23.5524 O   0  0  0  0  0  0  0  0  0  0  0  0
    8.6190  -22.1165   22.8361 C   0  0  2  0  0  0  0  0  0  0  0  0
    7.8946  -20.7671   23.0770 C   0  0  0  0  0  0  0  0  0  0  0  0
    8.0147  -21.3896   25.4706 C   0  0  0  0  0  0  0  0  0  0  0  0
    7.4315  -20.5853   24.3934 N   0  0  0  0  0  0  0  0  0  0  0  0
    7.6228  -23.2583   22.8286 C   0  0  0  0  0  0  0  0  0  0  0  0
    6.4094  -23.0638   22.0844 N   0  0  0  0  0  0  0  0  0  0  0  0
    2.9728  -21.6629   24.0602 C   0  0  0  0  0  0  0  0  0  0  0  0
    3.9086  -22.4099   24.7623 C   0  0  0  0  0  0  0  0  0  0  0  0
    5.0478  -22.8671   24.1109 C   0  0  0  0  0  0  0  0  0  0  0  0
    5.2427  -22.5887   22.7596 C   0  0  0  0  0  0  0  0  0  0  0  0
    4.3016  -21.8526   22.0610 C   0  0  0  0  0  0  0  0  0  0  0  0
    3.1677  -21.3858   22.7149 C   0  0  0  0  0  0  0  0  0  0  0  0
  1  2  1  0  0  0  0
  2  3  2  0  0  0  0
  2 20  1  0  0  0  0
  4  6  1  0  0  0  0
  5  6  2  0  0  0  0
  5 16  1  0  0  0  0
  6  7  1  0  0  0  0
  7  8  1  0  0  0  0
  8  9  1  0  0  0  0
  8 10  2  0  0  0  0
  9 12  1  0  0  0  0
  9 16  2  0  0  0  0
 11 13  1  0  0  0  0
 11 12  1  0  0  0  0
 12 14  1  0  0  0  0
 14 15  1  0  0  0  0
 14 18  1  1  0  0  0
 15 17  1  0  0  0  0
 16 17  1  0  0  0  0
 18 19  1  0  0  0  0
 19 23  1  0  0  0  0
 20 21  2  0  0  0  0
 20 25  1  0  0  0  0
 21 22  1  0  0  0  0
 22 23  2  0  0  0  0
 23 24  1  0  0  0  0
 24 25  2  0  0  0  0
M  END
>  <CHROM.1>
-78.63475472,166.46232983,-94.47727128,-28.80130457,70.05796840,6.83958698
-22.02396022,24.62923085,3.01634434,0.12819965,-1.60064885

>  <Name>
ligand

>  <RI>
0

>  <Rbt.Current_Directory>
/home/itssahil/PROJECTS/Mol_Feturizer/New_Systems/rnas/4LVV

>  <Rbt.Executable>
rbdock ($Id: //depot/dev/client3/rdock/2013.1/src/exe/rbdock.cxx#4 $)

>  <Rbt.Library>
libRbt.so (2013.1, Build901 2013/11/27)

>  <Rbt.Parameter_File>
/export/apps/rDock/src/rDock_2013.1_src/data/scripts/dock_solv.prm

>  <Rbt.Receptor>
prm/pocket_docking_3.prm

>  <SCORE>
-6.42471

>  <SCORE.INTER>
-5.58975

>  <SCORE.INTER.CONST>
1

>  <SCORE.INTER.POLAR>
0

>  <SCORE.INTER.ROT>
5

>  <SCORE.INTER.SOLV>
11.1928

>  <SCORE.INTER.VDW>
-14.3908

>  <SCORE.INTER.norm>
-0.22359

>  <SCORE.INTRA>
-0.834959

>  <SCORE.INTRA.DIHEDRAL>
0.539195

>  <SCORE.INTRA.DIHEDRAL.0>
3.94806

>  <SCORE.INTRA.POLAR>
0

>  <SCORE.INTRA.POLAR.0>
0

>  <SCORE.INTRA.REPUL>
0

>  <SCORE.INTRA.REPUL.0>
0

>  <SCORE.INTRA.SOLV>
0.49773

>  <SCORE.INTRA.SOLV.lig_0>
-70.9803

>  <SCORE.INTRA.VDW>
-1.35342

>  <SCORE.INTRA.VDW.0>
-0.709409

>  <SCORE.INTRA.norm>
-0.0333984

>  <SCORE.RESTR>
0

>  <SCORE.RESTR.CAVITY>
0

>  <SCORE.RESTR.norm>
0

>  <SCORE.SYSTEM>
0

>  <SCORE.SYSTEM.CONST>
0

>  <SCORE.SYSTEM.DIHEDRAL>
0

>  <SCORE.SYSTEM.SOLV>
0

>  <SCORE.SYSTEM.norm>
0

>  <SCORE.heavy>
25

>  <SCORE.norm>
-0.256988

>  <RMSD>
7.110

$$$$
ligand
 OpenBabel11021811503D
libRbt.so/2013.1/901 2013/11/27
 25 27  0  0  0  0  0  0  0  0999 V2000
    5.0111  -22.4460   29.4175 N   0  0  0  0  0  0  0  0  0  0  0  0
    5.6467  -21.6583   28.4072 C   0  0  0  0  0  0  0  0  0  0  0  0
    6.0347  -20.5224   28.6505 O   0  0  0  0  0  0  0  0  0  0  0  0
    9.1311  -17.4778   20.6079 N   0  0  0  0  0  0  0  0  0  0  0  0
    7.3902  -19.1168   20.8268 N   0  0  0  0  0  0  0  0  0  0  0  0
    8.6451  -18.8071   20.4266 C   0  0  0  0  0  0  0  0  0  0  0  0
    9.4516  -19.7433   19.8423 N   0  0  0  0  0  0  0  0  0  0  0  0
    9.0416  -21.0212   19.6387 C   0  0  0  0  0  0  0  0  0  0  0  0
    7.7401  -21.3887   20.0566 C   0  0  0  0  0  0  0  0  0  0  0  0
    9.9030  -21.9213   19.0567 O   0  0  0  0  0  0  0  0  0  0  0  0
    7.3753  -23.5233   18.7116 C   0  0  0  0  0  0  0  0  0  0  0  0
    7.1564  -22.7088   19.8827 N   0  0  0  0  0  0  0  0  0  0  0  0
    7.5246  -23.0561   17.5876 O   0  0  0  0  0  0  0  0  0  0  0  0
    6.2682  -23.1013   20.8921 C   0  0  2  0  0  0  0  0  0  0  0  0
    5.1212  -22.0644   21.0057 C   0  0  0  0  0  0  0  0  0  0  0  0
    6.9075  -20.3871   20.6486 C   0  0  0  0  0  0  0  0  0  0  0  0
    5.5548  -20.7288   21.0970 N   0  0  0  0  0  0  0  0  0  0  0  0
    6.9873  -23.2429   22.2184 C   0  0  0  0  0  0  0  0  0  0  0  0
    6.3154  -23.9807   23.2520 N   0  0  0  0  0  0  0  0  0  0  0  0
    5.8447  -22.2513   27.0552 C   0  0  0  0  0  0  0  0  0  0  0  0
    7.0516  -22.1098   26.3841 C   0  0  0  0  0  0  0  0  0  0  0  0
    7.2047  -22.6756   25.1242 C   0  0  0  0  0  0  0  0  0  0  0  0
    6.1588  -23.3909   24.5444 C   0  0  0  0  0  0  0  0  0  0  0  0
    4.9610  -23.5384   25.2218 C   0  0  0  0  0  0  0  0  0  0  0  0
    4.8037  -22.9632   26.4771 C   0  0  0  0  0  0  0  0  0  0  0  0
  1  2  1  0  0  0  0
  2  3  2  0  0  0  0
  2 20  1  0  0  0  0
  4  6  1  0  0  0  0
  5  6  2  0  0  0  0
  5 16  1  0  0  0  0
  6  7  1  0  0  0  0
  7  8  1  0  0  0  0
  8  9  1  0  0  0  0
  8 10  2  0  0  0  0
  9 12  1  0  0  0  0
  9 16  2  0  0  0  0
 11 13  1  0  0  0  0
 11 12  1  0  0  0  0
 12 14  1  0  0  0  0
 14 15  1  0  0  0  0
 14 18  1  1  0  0  0
 15 17  1  0  0  0  0
 16 17  1  0  0  0  0
 18 19  1  0  0  0  0
 19 23  1  0  0  0  0
 20 21  2  0  0  0  0
 20 25  1  0  0  0  0
 21 22  1  0  0  0  0
 22 23  2  0  0  0  0
 23 24  1  0  0  0  0
 24 25  2  0  0  0  0
M  END
>  <CHROM.1>
-33.23021227,-163.28918390,-127.99126178,-41.52291922,-135.55250500,6.96036903
-21.74523923,22.58305921,-2.25090787,-1.08878487,-2.06602001

>  <Name>
ligand

>  <RI>
0

>  <Rbt.Current_Directory>
/home/itssahil/PROJECTS/Mol_Feturizer/New_Systems/rnas/4LVV

>  <Rbt.Executable>
rbdock ($Id: //depot/dev/client3/rdock/2013.1/src/exe/rbdock.cxx#4 $)

>  <Rbt.Library>
libRbt.so (2013.1, Build901 2013/11/27)

>  <Rbt.Parameter_File>
/export/apps/rDock/src/rDock_2013.1_src/data/scripts/dock_solv.prm

>  <Rbt.Receptor>
prm/pocket_docking_8.prm

>  <SCORE>
-7.97953

>  <SCORE.INTER>
-7.82938

>  <SCORE.INTER.CONST>
1

>  <SCORE.INTER.POLAR>
0

>  <SCORE.INTER.ROT>
5

>  <SCORE.INTER.SOLV>
11.653

>  <SCORE.INTER.VDW>
-16.0373

>  <SCORE.INTER.norm>
-0.313175

>  <SCORE.INTRA>
-0.150154

>  <SCORE.INTRA.DIHEDRAL>
1.58801

>  <SCORE.INTRA.DIHEDRAL.0>
3.94806

>  <SCORE.INTRA.POLAR>
0

>  <SCORE.INTRA.POLAR.0>
0

>  <SCORE.INTRA.REPUL>
0

>  <SCORE.INTRA.REPUL.0>
0

>  <SCORE.INTRA.SOLV>
-0.320045

>  <SCORE.INTRA.SOLV.lig_0>
-70.9803

>  <SCORE.INTRA.VDW>
-0.784135

>  <SCORE.INTRA.VDW.0>
-0.709409

>  <SCORE.INTRA.norm>
-0.00600618

>  <SCORE.RESTR>
0

>  <SCORE.RESTR.CAVITY>
0

>  <SCORE.RESTR.norm>
0

>  <SCORE.SYSTEM>
0

>  <SCORE.SYSTEM.CONST>
0

>  <SCORE.SYSTEM.DIHEDRAL>
0

>  <SCORE.SYSTEM.SOLV>
0

>  <SCORE.SYSTEM.norm>
0

>  <SCORE.heavy>
25

>  <SCORE.norm>
-0.319181

>  <RMSD>
7.138

$$$$
ligand
 OpenBabel11021811503D
libRbt.so/2013.1/901 2013/11/27
 25 27  0  0  0  0  0  0  0  0999 V2000
   -0.7501  -21.7405   27.3158 N   0  0  0  0  0  0  0  0  0  0  0  0
   -0.7419  -21.1728   26.0032 C   0  0  0  0  0  0  0  0  0  0  0  0
   -1.7876  -20.8459   25.4558 O   0  0  0  0  0  0  0  0  0  0  0  0
    6.9243  -20.5499   27.9829 N   0  0  0  0  0  0  0  0  0  0  0  0
    7.0576  -20.2323   25.6067 N   0  0  0  0  0  0  0  0  0  0  0  0
    6.7278  -21.0255   26.6521 C   0  0  0  0  0  0  0  0  0  0  0  0
    6.2191  -22.2788   26.4550 N   0  0  0  0  0  0  0  0  0  0  0  0
    6.0162  -22.7868   25.2127 C   0  0  0  0  0  0  0  0  0  0  0  0
    6.3353  -21.9824   24.0926 C   0  0  0  0  0  0  0  0  0  0  0  0
    5.4901  -24.0501   25.0783 O   0  0  0  0  0  0  0  0  0  0  0  0
    6.4803  -23.7384   22.2504 C   0  0  0  0  0  0  0  0  0  0  0  0
    6.1954  -22.3993   22.7069 N   0  0  0  0  0  0  0  0  0  0  0  0
    7.5279  -24.0491   21.6936 O   0  0  0  0  0  0  0  0  0  0  0  0
    5.8644  -21.3751   21.8107 C   0  0  2  0  0  0  0  0  0  0  0  0
    6.9340  -20.2553   21.8848 C   0  0  0  0  0  0  0  0  0  0  0  0
    6.8839  -20.6814   24.3235 C   0  0  0  0  0  0  0  0  0  0  0  0
    7.2245  -19.8171   23.1901 N   0  0  0  0  0  0  0  0  0  0  0  0
    4.4896  -20.8151   22.1154 C   0  0  0  0  0  0  0  0  0  0  0  0
    4.2685  -20.3075   23.4412 N   0  0  0  0  0  0  0  0  0  0  0  0
    0.5653  -20.9696   25.3186 C   0  0  0  0  0  0  0  0  0  0  0  0
    0.9070  -21.7146   24.1983 C   0  0  0  0  0  0  0  0  0  0  0  0
    2.1339  -21.5004   23.5819 C   0  0  0  0  0  0  0  0  0  0  0  0
    3.0091  -20.5358   24.0771 C   0  0  0  0  0  0  0  0  0  0  0  0
    2.6594  -19.7880   25.1880 C   0  0  0  0  0  0  0  0  0  0  0  0
    1.4373  -20.0096   25.8113 C   0  0  0  0  0  0  0  0  0  0  0  0
  1  2  1  0  0  0  0
  2  3  2  0  0  0  0
  2 20  1  0  0  0  0
  4  6  1  0  0  0  0
  5  6  2  0  0  0  0
  5 16  1  0  0  0  0
  6  7  1  0  0  0  0
  7  8  1  0  0  0  0
  8  9  1  0  0  0  0
  8 10  2  0  0  0  0
  9 12  1  0  0  0  0
  9 16  2  0  0  0  0
 11 13  1  0  0  0  0
 11 12  1  0  0  0  0
 12 14  1  0  0  0  0
 14 15  1  0  0  0  0
 14 18  1  1  0  0  0
 15 17  1  0  0  0  0
 16 17  1  0  0  0  0
 18 19  1  0  0  0  0
 19 23  1  0  0  0  0
 20 21  2  0  0  0  0
 20 25  1  0  0  0  0
 21 22  1  0  0  0  0
 22 23  2  0  0  0  0
 23 24  1  0  0  0  0
 24 25  2  0  0  0  0
M  END
>  <CHROM.1>
-100.12441873,56.60128436,-141.41838328,15.79756789,112.01644244,4.37776602
-21.43193421,24.42595884,-2.81680936,0.06230807,-1.77320415

>  <Name>
ligand

>  <RI>
0

>  <Rbt.Current_Directory>
/home/itssahil/PROJECTS/Mol_Feturizer/New_Systems/rnas/4LVV

>  <Rbt.Executable>
rbdock ($Id: //depot/dev/client3/rdock/2013.1/src/exe/rbdock.cxx#4 $)

>  <Rbt.Library>
libRbt.so (2013.1, Build901 2013/11/27)

>  <Rbt.Parameter_File>
/export/apps/rDock/src/rDock_2013.1_src/data/scripts/dock_solv.prm

>  <Rbt.Receptor>
prm/pocket_docking_4.prm

>  <SCORE>
-11.8735

>  <SCORE.INTER>
-12.2344

>  <SCORE.INTER.CONST>
1

>  <SCORE.INTER.POLAR>
0

>  <SCORE.INTER.ROT>
5

>  <SCORE.INTER.SOLV>
15.5864

>  <SCORE.INTER.VDW>
-20.2851

>  <SCORE.INTER.norm>
-0.489376

>  <SCORE.INTRA>
0.227066

>  <SCORE.INTRA.DIHEDRAL>
0.0954701

>  <SCORE.INTRA.DIHEDRAL.0>
3.94806

>  <SCORE.INTRA.POLAR>
0

>  <SCORE.INTRA.POLAR.0>
0

>  <SCORE.INTRA.REPUL>
0

>  <SCORE.INTRA.REPUL.0>
0

>  <SCORE.INTRA.SOLV>
2.19449

>  <SCORE.INTRA.SOLV.lig_0>
-70.9803

>  <SCORE.INTRA.VDW>
-0.917917

>  <SCORE.INTRA.VDW.0>
-0.709409

>  <SCORE.INTRA.norm>
0.00908263

>  <SCORE.RESTR>
0.133842

>  <SCORE.RESTR.CAVITY>
0.133842

>  <SCORE.RESTR.norm>
0.00535368

>  <SCORE.SYSTEM>
0

>  <SCORE.SYSTEM.CONST>
0

>  <SCORE.SYSTEM.DIHEDRAL>
0

>  <SCORE.SYSTEM.SOLV>
0

>  <SCORE.SYSTEM.norm>
0

>  <SCORE.heavy>
25

>  <SCORE.norm>
-0.47494

>  <RMSD>
7.182

$$$$
ligand
 OpenBabel11021811503D
libRbt.so/2013.1/901 2013/11/27
 25 27  0  0  0  0  0  0  0  0999 V2000
   -0.5335  -21.5385   25.6589 N   0  0  0  0  0  0  0  0  0  0  0  0
    0.5980  -20.6821   25.8367 C   0  0  0  0  0  0  0  0  0  0  0  0
    0.6957  -19.9716   26.8296 O   0  0  0  0  0  0  0  0  0  0  0  0
   10.9052  -21.3770   25.9569 N   0  0  0  0  0  0  0  0  0  0  0  0
    9.4361  -22.4506   24.3903 N   0  0  0  0  0  0  0  0  0  0  0  0
    9.5906  -21.6899   25.4985 C   0  0  0  0  0  0  0  0  0  0  0  0
    8.5088  -21.2245   26.1925 N   0  0  0  0  0  0  0  0  0  0  0  0
    7.2355  -21.4948   25.8076 C   0  0  0  0  0  0  0  0  0  0  0  0
    7.0316  -22.2757   24.6448 C   0  0  0  0  0  0  0  0  0  0  0  0
    6.1877  -20.9882   26.5400 O   0  0  0  0  0  0  0  0  0  0  0  0
    4.6172  -23.0253   24.9719 C   0  0  0  0  0  0  0  0  0  0  0  0
    5.7304  -22.6657   24.1268 N   0  0  0  0  0  0  0  0  0  0  0  0
    4.7433  -23.3383   26.1509 O   0  0  0  0  0  0  0  0  0  0  0  0
    5.6566  -22.7753   22.7324 C   0  0  2  0  0  0  0  0  0  0  0  0
    6.7128  -23.7957   22.2357 C   0  0  0  0  0  0  0  0  0  0  0  0
    8.1790  -22.7674   23.9457 C   0  0  0  0  0  0  0  0  0  0  0  0
    8.0098  -23.5768   22.7358 N   0  0  0  0  0  0  0  0  0  0  0  0
    5.8712  -21.4278   22.0733 C   0  0  0  0  0  0  0  0  0  0  0  0
    4.7167  -20.5890   21.9069 N   0  0  0  0  0  0  0  0  0  0  0  0
    1.6667  -20.6820   24.7991 C   0  0  0  0  0  0  0  0  0  0  0  0
    1.6356  -21.5824   23.7431 C   0  0  0  0  0  0  0  0  0  0  0  0
    2.6473  -21.5561   22.7910 C   0  0  0  0  0  0  0  0  0  0  0  0
    3.6786  -20.6240   22.8885 C   0  0  0  0  0  0  0  0  0  0  0  0
    3.6997  -19.7212   23.9373 C   0  0  0  0  0  0  0  0  0  0  0  0
    2.6940  -19.7545   24.8958 C   0  0  0  0  0  0  0  0  0  0  0  0
  1  2  1  0  0  0  0
  2  3  2  0  0  0  0
  2 20  1  0  0  0  0
  4  6  1  0  0  0  0
  5  6  2  0  0  0  0
  5 16  1  0  0  0  0
  6  7  1  0  0  0  0
  7  8  1  0  0  0  0
  8  9  1  0  0  0  0
  8 10  2  0  0  0  0
  9 12  1  0  0  0  0
  9 16  2  0  0  0  0
 11 13  1  0  0  0  0
 11 12  1  0  0  0  0
 12 14  1  0  0  0  0
 14 15  1  0  0  0  0
 14 18  1  6  0  0  0
 15 17  1  0  0  0  0
 16 17  1  0  0  0  0
 18 19  1  0  0  0  0
 19 23  1  0  0  0  0
 20 21  2  0  0  0  0
 20 25  1  0  0  0  0
 21 22  1  0  0  0  0
 22 23  2  0  0  0  0
 23 24  1  0  0  0  0
 24 25  2  0  0  0  0
M  END
>  <CHROM.1>
-17.78961657,-86.53634910,33.55842197,-87.29441408,-6.04084766,5.22256041
-21.68845849,24.49440257,-3.03741969,0.16679987,-1.85845418

>  <Name>
ligand

>  <RI>
0

>  <Rbt.Current_Directory>
/home/itssahil/PROJECTS/Mol_Feturizer/New_Systems/rnas/4LVV

>  <Rbt.Executable>
rbdock ($Id: //depot/dev/client3/rdock/2013.1/src/exe/rbdock.cxx#4 $)

>  <Rbt.Library>
libRbt.so (2013.1, Build901 2013/11/27)

>  <Rbt.Parameter_File>
/export/apps/rDock/src/rDock_2013.1_src/data/scripts/dock_solv.prm

>  <Rbt.Receptor>
prm/pocket_docking_5.prm

>  <SCORE>
-13.3692

>  <SCORE.INTER>
-12.3527

>  <SCORE.INTER.CONST>
1

>  <SCORE.INTER.POLAR>
0

>  <SCORE.INTER.ROT>
5

>  <SCORE.INTER.SOLV>
13.8511

>  <SCORE.INTER.VDW>
-19.7855

>  <SCORE.INTER.norm>
-0.49411

>  <SCORE.INTRA>
-1.01648

>  <SCORE.INTRA.DIHEDRAL>
2.10522

>  <SCORE.INTRA.DIHEDRAL.0>
3.94806

>  <SCORE.INTRA.POLAR>
0

>  <SCORE.INTRA.POLAR.0>
0

>  <SCORE.INTRA.REPUL>
0

>  <SCORE.INTRA.REPUL.0>
0

>  <SCORE.INTRA.SOLV>
0.125443

>  <SCORE.INTRA.SOLV.lig_0>
-70.9803

>  <SCORE.INTRA.VDW>
-2.13181

>  <SCORE.INTRA.VDW.0>
-0.709409

>  <SCORE.INTRA.norm>
-0.0406593

>  <SCORE.RESTR>
0

>  <SCORE.RESTR.CAVITY>
0

>  <SCORE.RESTR.norm>
0

>  <SCORE.SYSTEM>
0

>  <SCORE.SYSTEM.CONST>
0

>  <SCORE.SYSTEM.DIHEDRAL>
0

>  <SCORE.SYSTEM.SOLV>
0

>  <SCORE.SYSTEM.norm>
0

>  <SCORE.heavy>
25

>  <SCORE.norm>
-0.534769

>  <RMSD>
7.293

$$$$
ligand
 OpenBabel11021811503D
libRbt.so/2013.1/901 2013/11/27
 25 27  0  0  0  0  0  0  0  0999 V2000
   -0.0105  -20.0155   26.6668 N   0  0  0  0  0  0  0  0  0  0  0  0
    0.2606  -20.9575   25.6254 C   0  0  0  0  0  0  0  0  0  0  0  0
   -0.5068  -21.8865   25.4060 O   0  0  0  0  0  0  0  0  0  0  0  0
   10.8068  -21.9689   26.7278 N   0  0  0  0  0  0  0  0  0  0  0  0
    9.3878  -22.7511   24.9558 N   0  0  0  0  0  0  0  0  0  0  0  0
    9.5097  -22.1477   26.1608 C   0  0  0  0  0  0  0  0  0  0  0  0
    8.4105  -21.7157   26.8489 N   0  0  0  0  0  0  0  0  0  0  0  0
    7.1519  -21.8640   26.3626 C   0  0  0  0  0  0  0  0  0  0  0  0
    6.9832  -22.4777   25.0982 C   0  0  0  0  0  0  0  0  0  0  0  0
    6.0862  -21.3980   27.0960 O   0  0  0  0  0  0  0  0  0  0  0  0
    4.5203  -23.1284   25.1913 C   0  0  0  0  0  0  0  0  0  0  0  0
    5.6994  -22.7259   24.4629 N   0  0  0  0  0  0  0  0  0  0  0  0
    4.5238  -23.3689   26.3937 O   0  0  0  0  0  0  0  0  0  0  0  0
    5.7067  -22.6524   23.0642 C   0  0  2  0  0  0  0  0  0  0  0  0
    6.7417  -23.6579   22.4974 C   0  0  0  0  0  0  0  0  0  0  0  0
    8.1468  -22.9386   24.4052 C   0  0  0  0  0  0  0  0  0  0  0  0
    8.0143  -23.5764   23.0924 N   0  0  0  0  0  0  0  0  0  0  0  0
    6.0255  -21.2457   22.5996 C   0  0  0  0  0  0  0  0  0  0  0  0
    4.9165  -20.3534   22.4046 N   0  0  0  0  0  0  0  0  0  0  0  0
    1.4869  -20.7788   24.7990 C   0  0  0  0  0  0  0  0  0  0  0  0
    2.5413  -19.9954   25.2476 C   0  0  0  0  0  0  0  0  0  0  0  0
    3.6720  -19.8493   24.4531 C   0  0  0  0  0  0  0  0  0  0  0  0
    3.7520  -20.4952   23.2209 C   0  0  0  0  0  0  0  0  0  0  0  0
    2.7026  -21.2839   22.7826 C   0  0  0  0  0  0  0  0  0  0  0  0
    1.5671  -21.4212   23.5719 C   0  0  0  0  0  0  0  0  0  0  0  0
  1  2  1  0  0  0  0
  2  3  2  0  0  0  0
  2 20  1  0  0  0  0
  4  6  1  0  0  0  0
  5  6  2  0  0  0  0
  5 16  1  0  0  0  0
  6  7  1  0  0  0  0
  7  8  1  0  0  0  0
  8  9  1  0  0  0  0
  8 10  2  0  0  0  0
  9 12  1  0  0  0  0
  9 16  2  0  0  0  0
 11 13  1  0  0  0  0
 11 12  1  0  0  0  0
 12 14  1  0  0  0  0
 14 15  1  0  0  0  0
 14 18  1  1  0  0  0
 15 17  1  0  0  0  0
 16 17  1  0  0  0  0
 18 19  1  0  0  0  0
 19 23  1  0  0  0  0
 20 21  2  0  0  0  0
 20 25  1  0  0  0  0
 21 22  1  0  0  0  0
 22 23  2  0  0  0  0
 23 24  1  0  0  0  0
 24 25  2  0  0  0  0
M  END
>  <CHROM.1>
-4.37450418,-90.13295731,31.47308259,87.27942404,19.22024328,5.14216328,-21.82406998
24.80184549,3.12609673,0.20695893,-1.69090623

>  <Name>
ligand

>  <RI>
0

>  <Rbt.Current_Directory>
/home/itssahil/PROJECTS/Mol_Feturizer/New_Systems/rnas/4LVV

>  <Rbt.Executable>
rbdock ($Id: //depot/dev/client3/rdock/2013.1/src/exe/rbdock.cxx#4 $)

>  <Rbt.Library>
libRbt.so (2013.1, Build901 2013/11/27)

>  <Rbt.Parameter_File>
/export/apps/rDock/src/rDock_2013.1_src/data/scripts/dock_solv.prm

>  <Rbt.Receptor>
prm/pocket_docking_4.prm

>  <SCORE>
-13.928

>  <SCORE.INTER>
-13.3049

>  <SCORE.INTER.CONST>
1

>  <SCORE.INTER.POLAR>
0

>  <SCORE.INTER.ROT>
5

>  <SCORE.INTER.SOLV>
14.8044

>  <SCORE.INTER.VDW>
-20.7381

>  <SCORE.INTER.norm>
-0.532195

>  <SCORE.INTRA>
-0.623131

>  <SCORE.INTRA.DIHEDRAL>
2.54013

>  <SCORE.INTRA.DIHEDRAL.0>
3.94806

>  <SCORE.INTRA.POLAR>
0

>  <SCORE.INTRA.POLAR.0>
0

>  <SCORE.INTRA.REPUL>
0

>  <SCORE.INTRA.REPUL.0>
0

>  <SCORE.INTRA.SOLV>
0.0662135

>  <SCORE.INTRA.SOLV.lig_0>
-70.9803

>  <SCORE.INTRA.VDW>
-1.9263

>  <SCORE.INTRA.VDW.0>
-0.709409

>  <SCORE.INTRA.norm>
-0.0249252

>  <SCORE.RESTR>
0

>  <SCORE.RESTR.CAVITY>
0

>  <SCORE.RESTR.norm>
0

>  <SCORE.SYSTEM>
0

>  <SCORE.SYSTEM.CONST>
0

>  <SCORE.SYSTEM.DIHEDRAL>
0

>  <SCORE.SYSTEM.SOLV>
0

>  <SCORE.SYSTEM.norm>
0

>  <SCORE.heavy>
25

>  <SCORE.norm>
-0.55712

>  <RMSD>
7.304

$$$$
ligand
 OpenBabel11021811503D
libRbt.so/2013.1/901 2013/11/27
 25 27  0  0  0  0  0  0  0  0999 V2000
   -0.9043  -21.7749   25.8099 N   0  0  0  0  0  0  0  0  0  0  0  0
    0.0428  -20.7135   25.9576 C   0  0  0  0  0  0  0  0  0  0  0  0
   -0.1020  -19.8613   26.8252 O   0  0  0  0  0  0  0  0  0  0  0  0
    8.0590  -20.0693   26.4561 N   0  0  0  0  0  0  0  0  0  0  0  0
    7.7346  -20.1062   24.0773 N   0  0  0  0  0  0  0  0  0  0  0  0
    7.6183  -20.7316   25.2715 C   0  0  0  0  0  0  0  0  0  0  0  0
    7.0953  -21.9913   25.3614 N   0  0  0  0  0  0  0  0  0  0  0  0
    6.6655  -22.6724   24.2688 C   0  0  0  0  0  0  0  0  0  0  0  0
    6.7570  -22.0467   23.0024 C   0  0  0  0  0  0  0  0  0  0  0  0
    6.1374  -23.9326   24.4242 O   0  0  0  0  0  0  0  0  0  0  0  0
    6.5685  -24.0564   21.4454 C   0  0  0  0  0  0  0  0  0  0  0  0
    6.3609  -22.6600   21.7452 N   0  0  0  0  0  0  0  0  0  0  0  0
    7.6138  -24.4939   20.9766 O   0  0  0  0  0  0  0  0  0  0  0  0
    5.8542  -21.7728   20.7871 C   0  0  2  0  0  0  0  0  0  0  0  0
    6.9060  -20.6729   20.4912 C   0  0  0  0  0  0  0  0  0  0  0  0
    7.3251  -20.7357   22.9308 C   0  0  0  0  0  0  0  0  0  0  0  0
    7.4344  -20.0530   21.6387 N   0  0  0  0  0  0  0  0  0  0  0  0
    4.5563  -21.1505   21.2611 C   0  0  0  0  0  0  0  0  0  0  0  0
    4.5799  -20.4707   22.5266 N   0  0  0  0  0  0  0  0  0  0  0  0
    1.2205  -20.6721   25.0465 C   0  0  0  0  0  0  0  0  0  0  0  0
    1.2504  -21.4310   23.8847 C   0  0  0  0  0  0  0  0  0  0  0  0
    2.3637  -21.3696   23.0553 C   0  0  0  0  0  0  0  0  0  0  0  0
    3.4366  -20.5423   23.3811 C   0  0  0  0  0  0  0  0  0  0  0  0
    3.3976  -19.7793   24.5352 C   0  0  0  0  0  0  0  0  0  0  0  0
    2.2892  -19.8489   25.3705 C   0  0  0  0  0  0  0  0  0  0  0  0
  1  2  1  0  0  0  0
  2  3  2  0  0  0  0
  2 20  1  0  0  0  0
  4  6  1  0  0  0  0
  5  6  2  0  0  0  0
  5 16  1  0  0  0  0
  6  7  1  0  0  0  0
  7  8  1  0  0  0  0
  8  9  1  0  0  0  0
  8 10  2  0  0  0  0
  9 12  1  0  0  0  0
  9 16  2  0  0  0  0
 11 13  1  0  0  0  0
 11 12  1  0  0  0  0
 12 14  1  0  0  0  0
 14 15  1  0  0  0  0
 14 18  1  1  0  0  0
 15 17  1  0  0  0  0
 16 17  1  0  0  0  0
 18 19  1  0  0  0  0
 19 23  1  0  0  0  0
 20 21  2  0  0  0  0
 20 25  1  0  0  0  0
 21 22  1  0  0  0  0
 22 23  2  0  0  0  0
 23 24  1  0  0  0  0
 24 25  2  0  0  0  0
M  END
>  <CHROM.1>
-85.78963395,55.51677199,-144.07433042,6.42067943,15.41198707,4.86604429
-21.39405884,23.59615119,2.65835872,-0.00111044,1.14448549

>  <Name>
ligand

>  <RI>
0

>  <Rbt.Current_Directory>
/home/itssahil/PROJECTS/Mol_Feturizer/New_Systems/rnas/4LVV

>  <Rbt.Executable>
rbdock ($Id: //depot/dev/client3/rdock/2013.1/src/exe/rbdock.cxx#4 $)

>  <Rbt.Library>
libRbt.so (2013.1, Build901 2013/11/27)

>  <Rbt.Parameter_File>
/export/apps/rDock/src/rDock_2013.1_src/data/scripts/dock_solv.prm

>  <Rbt.Receptor>
prm/pocket_docking_7.prm

>  <SCORE>
-9.85772

>  <SCORE.INTER>
-10.4774

>  <SCORE.INTER.CONST>
1

>  <SCORE.INTER.POLAR>
0

>  <SCORE.INTER.ROT>
5

>  <SCORE.INTER.SOLV>
14.3375

>  <SCORE.INTER.VDW>
-18.6975

>  <SCORE.INTER.norm>
-0.419098

>  <SCORE.INTRA>
0.619719

>  <SCORE.INTRA.DIHEDRAL>
-0.0192329

>  <SCORE.INTRA.DIHEDRAL.0>
3.94806

>  <SCORE.INTRA.POLAR>
0

>  <SCORE.INTRA.POLAR.0>
0

>  <SCORE.INTRA.REPUL>
0

>  <SCORE.INTRA.REPUL.0>
0

>  <SCORE.INTRA.SOLV>
2.23126

>  <SCORE.INTRA.SOLV.lig_0>
-70.9803

>  <SCORE.INTRA.VDW>
-0.486293

>  <SCORE.INTRA.VDW.0>
-0.709409

>  <SCORE.INTRA.norm>
0.0247888

>  <SCORE.RESTR>
0

>  <SCORE.RESTR.CAVITY>
0

>  <SCORE.RESTR.norm>
0

>  <SCORE.SYSTEM>
0

>  <SCORE.SYSTEM.CONST>
0

>  <SCORE.SYSTEM.DIHEDRAL>
0

>  <SCORE.SYSTEM.SOLV>
0

>  <SCORE.SYSTEM.norm>
0

>  <SCORE.heavy>
25

>  <SCORE.norm>
-0.394309

>  <RMSD>
7.308

$$$$
ligand
 OpenBabel11021811503D
libRbt.so/2013.1/901 2013/11/27
 25 27  0  0  0  0  0  0  0  0999 V2000
   -1.8917  -20.7644   25.6300 N   0  0  0  0  0  0  0  0  0  0  0  0
   -0.6785  -21.2145   26.2390 C   0  0  0  0  0  0  0  0  0  0  0  0
   -0.6859  -21.7064   27.3606 O   0  0  0  0  0  0  0  0  0  0  0  0
    7.1989  -17.4208   25.9486 N   0  0  0  0  0  0  0  0  0  0  0  0
    6.6045  -18.3164   23.8015 N   0  0  0  0  0  0  0  0  0  0  0  0
    7.0994  -18.5201   25.0443 C   0  0  0  0  0  0  0  0  0  0  0  0
    7.5152  -19.7591   25.4449 N   0  0  0  0  0  0  0  0  0  0  0  0
    7.4502  -20.8402   24.6266 C   0  0  0  0  0  0  0  0  0  0  0  0
    6.9251  -20.6713   23.3230 C   0  0  0  0  0  0  0  0  0  0  0  0
    7.8727  -22.0637   25.0908 O   0  0  0  0  0  0  0  0  0  0  0  0
    7.8121  -22.7593   22.1604 C   0  0  0  0  0  0  0  0  0  0  0  0
    6.8169  -21.7281   22.3305 N   0  0  0  0  0  0  0  0  0  0  0  0
    7.5317  -23.9412   21.9918 O   0  0  0  0  0  0  0  0  0  0  0  0
    5.7211  -21.6180   21.4652 C   0  0  2  0  0  0  0  0  0  0  0  0
    5.7749  -20.2535   20.7311 C   0  0  0  0  0  0  0  0  0  0  0  0
    6.5137  -19.3617   22.9198 C   0  0  0  0  0  0  0  0  0  0  0  0
    5.9620  -19.1464   21.5793 N   0  0  0  0  0  0  0  0  0  0  0  0
    4.4175  -21.7594   22.2248 C   0  0  0  0  0  0  0  0  0  0  0  0
    4.1428  -20.7822   23.2416 N   0  0  0  0  0  0  0  0  0  0  0  0
    0.5951  -21.0900   25.4767 C   0  0  0  0  0  0  0  0  0  0  0  0
    1.7868  -20.7912   26.1228 C   0  0  0  0  0  0  0  0  0  0  0  0
    2.9581  -20.6828   25.3831 C   0  0  0  0  0  0  0  0  0  0  0  0
    2.9387  -20.8854   24.0045 C   0  0  0  0  0  0  0  0  0  0  0  0
    1.7500  -21.1936   23.3662 C   0  0  0  0  0  0  0  0  0  0  0  0
    0.5765  -21.2912   24.1041 C   0  0  0  0  0  0  0  0  0  0  0  0
  1  2  1  0  0  0  0
  2  3  2  0  0  0  0
  2 20  1  0  0  0  0
  4  6  1  0  0  0  0
  5  6  2  0  0  0  0
  5 16  1  0  0  0  0
  6  7  1  0  0  0  0
  7  8  1  0  0  0  0
  8  9  1  0  0  0  0
  8 10  2  0  0  0  0
  9 12  1  0  0  0  0
  9 16  2  0  0  0  0
 11 13  1  0  0  0  0
 11 12  1  0  0  0  0
 12 14  1  0  0  0  0
 14 15  1  0  0  0  0
 14 18  1  1  0  0  0
 15 17  1  0  0  0  0
 16 17  1  0  0  0  0
 18 19  1  0  0  0  0
 19 23  1  0  0  0  0
 20 21  2  0  0  0  0
 20 25  1  0  0  0  0
 21 22  1  0  0  0  0
 22 23  2  0  0  0  0
 23 24  1  0  0  0  0
 24 25  2  0  0  0  0
M  END
>  <CHROM.1>
136.93026698,61.54188600,-178.82111459,136.83230396,144.40460722,4.58205734
-20.78252378,23.96578769,2.90755958,0.26297576,0.86495319

>  <Name>
ligand

>  <RI>
0

>  <Rbt.Current_Directory>
/home/itssahil/PROJECTS/Mol_Feturizer/New_Systems/rnas/4LVV

>  <Rbt.Executable>
rbdock ($Id: //depot/dev/client3/rdock/2013.1/src/exe/rbdock.cxx#4 $)

>  <Rbt.Library>
libRbt.so (2013.1, Build901 2013/11/27)

>  <Rbt.Parameter_File>
/export/apps/rDock/src/rDock_2013.1_src/data/scripts/dock_solv.prm

>  <Rbt.Receptor>
prm/pocket_docking_5.prm

>  <SCORE>
-8.41279

>  <SCORE.INTER>
-8.64276

>  <SCORE.INTER.CONST>
1

>  <SCORE.INTER.POLAR>
0

>  <SCORE.INTER.ROT>
5

>  <SCORE.INTER.SOLV>
12.7451

>  <SCORE.INTER.VDW>
-16.9435

>  <SCORE.INTER.norm>
-0.34571

>  <SCORE.INTRA>
0.0480575

>  <SCORE.INTRA.DIHEDRAL>
-0.815369

>  <SCORE.INTRA.DIHEDRAL.0>
3.94806

>  <SCORE.INTRA.POLAR>
0

>  <SCORE.INTRA.POLAR.0>
0

>  <SCORE.INTRA.REPUL>
0

>  <SCORE.INTRA.REPUL.0>
0

>  <SCORE.INTRA.SOLV>
2.26945

>  <SCORE.INTRA.SOLV.lig_0>
-70.9803

>  <SCORE.INTRA.VDW>
-0.678985

>  <SCORE.INTRA.VDW.0>
-0.709409

>  <SCORE.INTRA.norm>
0.0019223

>  <SCORE.RESTR>
0.181907

>  <SCORE.RESTR.CAVITY>
0.181907

>  <SCORE.RESTR.norm>
0.00727629

>  <SCORE.SYSTEM>
0

>  <SCORE.SYSTEM.CONST>
0

>  <SCORE.SYSTEM.DIHEDRAL>
0

>  <SCORE.SYSTEM.SOLV>
0

>  <SCORE.SYSTEM.norm>
0

>  <SCORE.heavy>
25

>  <SCORE.norm>
-0.336512

>  <RMSD>
7.324

$$$$
ligand
 OpenBabel11021811503D
libRbt.so/2013.1/901 2013/11/27
 25 27  0  0  0  0  0  0  0  0999 V2000
   -0.0907  -19.9947   26.6450 N   0  0  0  0  0  0  0  0  0  0  0  0
    0.2182  -20.9447   25.6216 C   0  0  0  0  0  0  0  0  0  0  0  0
   -0.5304  -21.8874   25.3957 O   0  0  0  0  0  0  0  0  0  0  0  0
   10.9210  -22.3328   26.5617 N   0  0  0  0  0  0  0  0  0  0  0  0
    9.3973  -22.9855   24.8247 N   0  0  0  0  0  0  0  0  0  0  0  0
    9.5953  -22.4323   26.0435 C   0  0  0  0  0  0  0  0  0  0  0  0
    8.5459  -21.9764   26.7914 N   0  0  0  0  0  0  0  0  0  0  0  0
    7.2633  -22.0501   26.3531 C   0  0  0  0  0  0  0  0  0  0  0  0
    7.0156  -22.6093   25.0766 C   0  0  0  0  0  0  0  0  0  0  0  0
    6.2506  -21.5634   27.1461 O   0  0  0  0  0  0  0  0  0  0  0  0
    4.5308  -23.1513   25.2499 C   0  0  0  0  0  0  0  0  0  0  0  0
    5.6972  -22.7763   24.4873 N   0  0  0  0  0  0  0  0  0  0  0  0
    4.5593  -23.3688   26.4565 O   0  0  0  0  0  0  0  0  0  0  0  0
    5.6517  -22.6525   23.0929 C   0  0  2  0  0  0  0  0  0  0  0  0
    6.6153  -23.6824   22.4491 C   0  0  0  0  0  0  0  0  0  0  0  0
    8.1278  -23.0968   24.3202 C   0  0  0  0  0  0  0  0  0  0  0  0
    7.9132  -23.6800   22.9930 N   0  0  0  0  0  0  0  0  0  0  0  0
    6.0168  -21.2457   22.6640 C   0  0  0  0  0  0  0  0  0  0  0  0
    4.9386  -20.3100   22.5022 N   0  0  0  0  0  0  0  0  0  0  0  0
    1.4607  -20.7577   24.8216 C   0  0  0  0  0  0  0  0  0  0  0  0
    2.4918  -19.9514   25.2837 C   0  0  0  0  0  0  0  0  0  0  0  0
    3.6384  -19.7981   24.5139 C   0  0  0  0  0  0  0  0  0  0  0  0
    3.7576  -20.4592   23.2930 C   0  0  0  0  0  0  0  0  0  0  0  0
    2.7313  -21.2706   22.8415 C   0  0  0  0  0  0  0  0  0  0  0  0
    1.5798  -21.4154   23.6059 C   0  0  0  0  0  0  0  0  0  0  0  0
  1  2  1  0  0  0  0
  2  3  2  0  0  0  0
  2 20  1  0  0  0  0
  4  6  1  0  0  0  0
  5  6  2  0  0  0  0
  5 16  1  0  0  0  0
  6  7  1  0  0  0  0
  7  8  1  0  0  0  0
  8  9  1  0  0  0  0
  8 10  2  0  0  0  0
  9 12  1  0  0  0  0
  9 16  2  0  0  0  0
 11 13  1  0  0  0  0
 11 12  1  0  0  0  0
 12 14  1  0  0  0  0
 14 15  1  0  0  0  0
 14 18  1  1  0  0  0
 15 17  1  0  0  0  0
 16 17  1  0  0  0  0
 18 19  1  0  0  0  0
 19 23  1  0  0  0  0
 20 21  2  0  0  0  0
 20 25  1  0  0  0  0
 21 22  1  0  0  0  0
 22 23  2  0  0  0  0
 23 24  1  0  0  0  0
 24 25  2  0  0  0  0
M  END
>  <CHROM.1>
-0.52554727,-92.18705249,29.43245941,92.03871430,19.08684369,5.15114961,-21.89468202
24.79785050,3.12927467,0.23292982,-1.65227914

>  <Name>
ligand

>  <RI>
0

>  <Rbt.Current_Directory>
/home/itssahil/PROJECTS/Mol_Feturizer/New_Systems/rnas/4LVV

>  <Rbt.Executable>
rbdock ($Id: //depot/dev/client3/rdock/2013.1/src/exe/rbdock.cxx#4 $)

>  <Rbt.Library>
libRbt.so (2013.1, Build901 2013/11/27)

>  <Rbt.Parameter_File>
/export/apps/rDock/src/rDock_2013.1_src/data/scripts/dock_solv.prm

>  <Rbt.Receptor>
prm/pocket_docking_8.prm

>  <SCORE>
-13.9475

>  <SCORE.INTER>
-13.7316

>  <SCORE.INTER.CONST>
1

>  <SCORE.INTER.POLAR>
0

>  <SCORE.INTER.ROT>
5

>  <SCORE.INTER.SOLV>
15.312

>  <SCORE.INTER.VDW>
-21.1917

>  <SCORE.INTER.norm>
-0.549264

>  <SCORE.INTRA>
-0.215874

>  <SCORE.INTRA.DIHEDRAL>
2.85488

>  <SCORE.INTRA.DIHEDRAL.0>
3.94806

>  <SCORE.INTRA.POLAR>
0

>  <SCORE.INTRA.POLAR.0>
0

>  <SCORE.INTRA.REPUL>
0

>  <SCORE.INTRA.REPUL.0>
0

>  <SCORE.INTRA.SOLV>
0.0358479

>  <SCORE.INTRA.SOLV.lig_0>
-70.9803

>  <SCORE.INTRA.VDW>
-1.66124

>  <SCORE.INTRA.VDW.0>
-0.709409

>  <SCORE.INTRA.norm>
-0.00863496

>  <SCORE.RESTR>
0

>  <SCORE.RESTR.CAVITY>
0

>  <SCORE.RESTR.norm>
0

>  <SCORE.SYSTEM>
0

>  <SCORE.SYSTEM.CONST>
0

>  <SCORE.SYSTEM.DIHEDRAL>
0

>  <SCORE.SYSTEM.SOLV>
0

>  <SCORE.SYSTEM.norm>
0

>  <SCORE.heavy>
25

>  <SCORE.norm>
-0.557899

>  <RMSD>
7.350

$$$$
ligand
 OpenBabel11021811503D
libRbt.so/2013.1/901 2013/11/27
 25 27  0  0  0  0  0  0  0  0999 V2000
   -0.9667  -21.1793   25.1462 N   0  0  0  0  0  0  0  0  0  0  0  0
    0.3102  -21.0375   25.7745 C   0  0  0  0  0  0  0  0  0  0  0  0
    0.4219  -21.1190   26.9914 O   0  0  0  0  0  0  0  0  0  0  0  0
   10.9672  -22.3119   26.1330 N   0  0  0  0  0  0  0  0  0  0  0  0
    9.3605  -22.9670   24.4733 N   0  0  0  0  0  0  0  0  0  0  0  0
    9.6187  -22.4019   25.6754 C   0  0  0  0  0  0  0  0  0  0  0  0
    8.6087  -21.9250   26.4634 N   0  0  0  0  0  0  0  0  0  0  0  0
    7.3072  -21.9888   26.0834 C   0  0  0  0  0  0  0  0  0  0  0  0
    6.9968  -22.5600   24.8260 C   0  0  0  0  0  0  0  0  0  0  0  0
    6.3363  -21.4811   26.9145 O   0  0  0  0  0  0  0  0  0  0  0  0
    4.5162  -23.0708   25.1160 C   0  0  0  0  0  0  0  0  0  0  0  0
    5.6516  -22.7184   24.2979 N   0  0  0  0  0  0  0  0  0  0  0  0
    4.6124  -23.3878   26.2967 O   0  0  0  0  0  0  0  0  0  0  0  0
    5.5456  -22.6104   22.9054 C   0  0  2  0  0  0  0  0  0  0  0  0
    6.4680  -23.6589   22.2321 C   0  0  0  0  0  0  0  0  0  0  0  0
    8.0687  -23.0693   24.0270 C   0  0  0  0  0  0  0  0  0  0  0  0
    7.7887  -23.6654   22.7179 N   0  0  0  0  0  0  0  0  0  0  0  0
    5.9069  -21.2131   22.4436 C   0  0  0  0  0  0  0  0  0  0  0  0
    4.8580  -20.2312   22.4452 N   0  0  0  0  0  0  0  0  0  0  0  0
    1.5077  -20.8056   24.9195 C   0  0  0  0  0  0  0  0  0  0  0  0
    2.5365  -19.9755   25.3430 C   0  0  0  0  0  0  0  0  0  0  0  0
    3.6406  -19.7804   24.5222 C   0  0  0  0  0  0  0  0  0  0  0  0
    3.7203  -20.4236   23.2887 C   0  0  0  0  0  0  0  0  0  0  0  0
    2.6971  -21.2586   22.8753 C   0  0  0  0  0  0  0  0  0  0  0  0
    1.5876  -21.4453   23.6910 C   0  0  0  0  0  0  0  0  0  0  0  0
  1  2  1  0  0  0  0
  2  3  2  0  0  0  0
  2 20  1  0  0  0  0
  4  6  1  0  0  0  0
  5  6  2  0  0  0  0
  5 16  1  0  0  0  0
  6  7  1  0  0  0  0
  7  8  1  0  0  0  0
  8  9  1  0  0  0  0
  8 10  2  0  0  0  0
  9 12  1  0  0  0  0
  9 16  2  0  0  0  0
 11 13  1  0  0  0  0
 11 12  1  0  0  0  0
 12 14  1  0  0  0  0
 14 15  1  0  0  0  0
 14 18  1  6  0  0  0
 15 17  1  0  0  0  0
 16 17  1  0  0  0  0
 18 19  1  0  0  0  0
 19 23  1  0  0  0  0
 20 21  2  0  0  0  0
 20 25  1  0  0  0  0
 21 22  1  0  0  0  0
 22 23  2  0  0  0  0
 23 24  1  0  0  0  0
 24 25  2  0  0  0  0
M  END
>  <CHROM.1>
-7.08309658,-86.18493579,22.50371766,98.43549521,143.92877037,5.14765229
-21.88557154,24.66585256,-3.11004007,0.21590003,-1.62573477

>  <Name>
ligand

>  <RI>
0

>  <Rbt.Current_Directory>
/home/itssahil/PROJECTS/Mol_Feturizer/New_Systems/rnas/4LVV

>  <Rbt.Executable>
rbdock ($Id: //depot/dev/client3/rdock/2013.1/src/exe/rbdock.cxx#4 $)

>  <Rbt.Library>
libRbt.so (2013.1, Build901 2013/11/27)

>  <Rbt.Parameter_File>
/export/apps/rDock/src/rDock_2013.1_src/data/scripts/dock_solv.prm

>  <Rbt.Receptor>
prm/pocket_docking_3.prm

>  <SCORE>
-14.0511

>  <SCORE.INTER>
-13.3419

>  <SCORE.INTER.CONST>
1

>  <SCORE.INTER.POLAR>
0

>  <SCORE.INTER.ROT>
5

>  <SCORE.INTER.SOLV>
15.0839

>  <SCORE.INTER.VDW>
-20.8559

>  <SCORE.INTER.norm>
-0.533676

>  <SCORE.INTRA>
-0.709234

>  <SCORE.INTRA.DIHEDRAL>
2.2934

>  <SCORE.INTRA.DIHEDRAL.0>
3.94806

>  <SCORE.INTRA.POLAR>
0

>  <SCORE.INTRA.POLAR.0>
0

>  <SCORE.INTRA.REPUL>
0

>  <SCORE.INTRA.REPUL.0>
0

>  <SCORE.INTRA.SOLV>
0.151068

>  <SCORE.INTRA.SOLV.lig_0>
-70.9803

>  <SCORE.INTRA.VDW>
-1.93147

>  <SCORE.INTRA.VDW.0>
-0.709409

>  <SCORE.INTRA.norm>
-0.0283693

>  <SCORE.RESTR>
0

>  <SCORE.RESTR.CAVITY>
0

>  <SCORE.RESTR.norm>
0

>  <SCORE.SYSTEM>
0

>  <SCORE.SYSTEM.CONST>
0

>  <SCORE.SYSTEM.DIHEDRAL>
0

>  <SCORE.SYSTEM.SOLV>
0

>  <SCORE.SYSTEM.norm>
0

>  <SCORE.heavy>
25

>  <SCORE.norm>
-0.562045

>  <RMSD>
7.353

$$$$
ligand
 OpenBabel11021811503D
libRbt.so/2013.1/901 2013/11/27
 25 27  0  0  0  0  0  0  0  0999 V2000
    0.0138  -21.5880   27.0571 N   0  0  0  0  0  0  0  0  0  0  0  0
   -0.0672  -21.2168   25.6784 C   0  0  0  0  0  0  0  0  0  0  0  0
   -1.1520  -21.1273   25.1167 O   0  0  0  0  0  0  0  0  0  0  0  0
   10.7923  -22.0570   26.7996 N   0  0  0  0  0  0  0  0  0  0  0  0
    9.2893  -22.7299   25.0522 N   0  0  0  0  0  0  0  0  0  0  0  0
    9.4698  -22.1950   26.2819 C   0  0  0  0  0  0  0  0  0  0  0  0
    8.4062  -21.7939   27.0410 N   0  0  0  0  0  0  0  0  0  0  0  0
    7.1261  -21.9062   26.6037 C   0  0  0  0  0  0  0  0  0  0  0  0
    6.8960  -22.4477   25.3163 C   0  0  0  0  0  0  0  0  0  0  0  0
    6.0982  -21.4739   27.4085 O   0  0  0  0  0  0  0  0  0  0  0  0
    4.4334  -23.0851   25.4830 C   0  0  0  0  0  0  0  0  0  0  0  0
    5.5831  -22.6513   24.7261 N   0  0  0  0  0  0  0  0  0  0  0  0
    4.4494  -23.2370   26.6997 O   0  0  0  0  0  0  0  0  0  0  0  0
    5.5295  -22.5005   23.3347 C   0  0  2  0  0  0  0  0  0  0  0  0
    6.5289  -23.4803   22.6678 C   0  0  0  0  0  0  0  0  0  0  0  0
    8.0235  -22.8778   24.5479 C   0  0  0  0  0  0  0  0  0  0  0  0
    7.8272  -23.4410   23.2092 N   0  0  0  0  0  0  0  0  0  0  0  0
    5.8409  -21.0726   22.9344 C   0  0  0  0  0  0  0  0  0  0  0  0
    4.7281  -20.1751   22.7912 N   0  0  0  0  0  0  0  0  0  0  0  0
    1.1927  -20.9233   24.9400 C   0  0  0  0  0  0  0  0  0  0  0  0
    2.1470  -20.0661   25.4704 C   0  0  0  0  0  0  0  0  0  0  0  0
    3.3124  -19.8135   24.7570 C   0  0  0  0  0  0  0  0  0  0  0  0
    3.5272  -20.4265   23.5242 C   0  0  0  0  0  0  0  0  0  0  0  0
    2.5777  -21.2889   23.0044 C   0  0  0  0  0  0  0  0  0  0  0  0
    1.4071  -21.5330   23.7124 C   0  0  0  0  0  0  0  0  0  0  0  0
  1  2  1  0  0  0  0
  2  3  2  0  0  0  0
  2 20  1  0  0  0  0
  4  6  1  0  0  0  0
  5  6  2  0  0  0  0
  5 16  1  0  0  0  0
  6  7  1  0  0  0  0
  7  8  1  0  0  0  0
  8  9  1  0  0  0  0
  8 10  2  0  0  0  0
  9 12  1  0  0  0  0
  9 16  2  0  0  0  0
 11 13  1  0  0  0  0
 11 12  1  0  0  0  0
 12 14  1  0  0  0  0
 14 15  1  0  0  0  0
 14 18  1  1  0  0  0
 15 17  1  0  0  0  0
 16 17  1  0  0  0  0
 18 19  1  0  0  0  0
 19 23  1  0  0  0  0
 20 21  2  0  0  0  0
 20 25  1  0  0  0  0
 21 22  1  0  0  0  0
 22 23  2  0  0  0  0
 23 24  1  0  0  0  0
 24 25  2  0  0  0  0
M  END
>  <CHROM.1>
4.70321326,-92.32029989,26.05343298,94.44155422,-48.92602041,4.97840662,-21.83578511
25.00154755,3.08283860,0.17417843,-1.56731339

>  <Name>
ligand

>  <RI>
0

>  <Rbt.Current_Directory>
/home/itssahil/PROJECTS/Mol_Feturizer/New_Systems/rnas/4LVV

>  <Rbt.Executable>
rbdock ($Id: //depot/dev/client3/rdock/2013.1/src/exe/rbdock.cxx#4 $)

>  <Rbt.Library>
libRbt.so (2013.1, Build901 2013/11/27)

>  <Rbt.Parameter_File>
/export/apps/rDock/src/rDock_2013.1_src/data/scripts/dock_solv.prm

>  <Rbt.Receptor>
prm/pocket_docking_3.prm

>  <SCORE>
-14.501

>  <SCORE.INTER>
-14.3451

>  <SCORE.INTER.CONST>
1

>  <SCORE.INTER.POLAR>
0

>  <SCORE.INTER.ROT>
5

>  <SCORE.INTER.SOLV>
15.2358

>  <SCORE.INTER.VDW>
-21.5753

>  <SCORE.INTER.norm>
-0.573805

>  <SCORE.INTRA>
-0.161161

>  <SCORE.INTRA.DIHEDRAL>
2.96964

>  <SCORE.INTRA.DIHEDRAL.0>
3.94806

>  <SCORE.INTRA.POLAR>
0

>  <SCORE.INTRA.POLAR.0>
0

>  <SCORE.INTRA.REPUL>
0

>  <SCORE.INTRA.REPUL.0>
0

>  <SCORE.INTRA.SOLV>
0.0378641

>  <SCORE.INTRA.SOLV.lig_0>
-70.9803

>  <SCORE.INTRA.VDW>
-1.66491

>  <SCORE.INTRA.VDW.0>
-0.709409

>  <SCORE.INTRA.norm>
-0.00644643

>  <SCORE.RESTR>
0.00531838

>  <SCORE.RESTR.CAVITY>
0.00531838

>  <SCORE.RESTR.norm>
0.000212735

>  <SCORE.SYSTEM>
0

>  <SCORE.SYSTEM.CONST>
0

>  <SCORE.SYSTEM.DIHEDRAL>
0

>  <SCORE.SYSTEM.SOLV>
0

>  <SCORE.SYSTEM.norm>
0

>  <SCORE.heavy>
25

>  <SCORE.norm>
-0.580038

>  <RMSD>
7.357

$$$$
ligand
 OpenBabel11021811503D
libRbt.so/2013.1/901 2013/11/27
 25 27  0  0  0  0  0  0  0  0999 V2000
   -0.1778  -20.1131   26.4935 N   0  0  0  0  0  0  0  0  0  0  0  0
    0.3000  -21.0304   25.5058 C   0  0  0  0  0  0  0  0  0  0  0  0
   -0.3630  -22.0100   25.1881 O   0  0  0  0  0  0  0  0  0  0  0  0
   11.1881  -22.6988   25.8773 N   0  0  0  0  0  0  0  0  0  0  0  0
    9.4660  -23.2157   24.2859 N   0  0  0  0  0  0  0  0  0  0  0  0
    9.8168  -22.6912   25.4829 C   0  0  0  0  0  0  0  0  0  0  0  0
    8.8786  -22.1633   26.3252 N   0  0  0  0  0  0  0  0  0  0  0  0
    7.5595  -22.1340   26.0064 C   0  0  0  0  0  0  0  0  0  0  0  0
    7.1537  -22.6602   24.7566 C   0  0  0  0  0  0  0  0  0  0  0  0
    6.6642  -21.5787   26.8903 O   0  0  0  0  0  0  0  0  0  0  0  0
    4.6606  -23.0115   25.1561 C   0  0  0  0  0  0  0  0  0  0  0  0
    5.7779  -22.7197   24.2905 N   0  0  0  0  0  0  0  0  0  0  0  0
    4.7903  -23.3683   26.3221 O   0  0  0  0  0  0  0  0  0  0  0  0
    5.6149  -22.5793   22.9065 C   0  0  2  0  0  0  0  0  0  0  0  0
    6.4331  -23.6738   22.1742 C   0  0  0  0  0  0  0  0  0  0  0  0
    8.1510  -23.2243   23.8999 C   0  0  0  0  0  0  0  0  0  0  0  0
    7.7715  -23.7764   22.5965 N   0  0  0  0  0  0  0  0  0  0  0  0
    6.0470  -21.2006   22.4495 C   0  0  0  0  0  0  0  0  0  0  0  0
    5.2970  -20.0809   22.9474 N   0  0  0  0  0  0  0  0  0  0  0  0
    1.6135  -20.7637   24.8560 C   0  0  0  0  0  0  0  0  0  0  0  0
    2.6070  -20.0568   25.5195 C   0  0  0  0  0  0  0  0  0  0  0  0
    3.8219  -19.8254   24.8860 C   0  0  0  0  0  0  0  0  0  0  0  0
    4.0458  -20.3105   23.5991 C   0  0  0  0  0  0  0  0  0  0  0  0
    3.0562  -21.0239   22.9456 C   0  0  0  0  0  0  0  0  0  0  0  0
    1.8371  -21.2461   23.5746 C   0  0  0  0  0  0  0  0  0  0  0  0
  1  2  1  0  0  0  0
  2  3  2  0  0  0  0
  2 20  1  0  0  0  0
  4  6  1  0  0  0  0
  5  6  2  0  0  0  0
  5 16  1  0  0  0  0
  6  7  1  0  0  0  0
  7  8  1  0  0  0  0
  8  9  1  0  0  0  0
  8 10  2  0  0  0  0
  9 12  1  0  0  0  0
  9 16  2  0  0  0  0
 11 13  1  0  0  0  0
 11 12  1  0  0  0  0
 12 14  1  0  0  0  0
 14 15  1  0  0  0  0
 14 18  1  6  0  0  0
 15 17  1  0  0  0  0
 16 17  1  0  0  0  0
 18 19  1  0  0  0  0
 19 23  1  0  0  0  0
 20 21  2  0  0  0  0
 20 25  1  0  0  0  0
 21 22  1  0  0  0  0
 22 23  2  0  0  0  0
 23 24  1  0  0  0  0
 24 25  2  0  0  0  0
M  END
>  <CHROM.1>
-7.80728975,-63.90953889,-12.90139034,124.64184037,27.88931319,5.29976587
-21.92673963,24.62698910,-3.08651612,0.24082441,-1.68296552

>  <Name>
ligand

>  <RI>
0

>  <Rbt.Current_Directory>
/home/itssahil/PROJECTS/Mol_Feturizer/New_Systems/rnas/4LVV

>  <Rbt.Executable>
rbdock ($Id: //depot/dev/client3/rdock/2013.1/src/exe/rbdock.cxx#4 $)

>  <Rbt.Library>
libRbt.so (2013.1, Build901 2013/11/27)

>  <Rbt.Parameter_File>
/export/apps/rDock/src/rDock_2013.1_src/data/scripts/dock_solv.prm

>  <Rbt.Receptor>
prm/pocket_docking_3.prm

>  <SCORE>
-13.3198

>  <SCORE.INTER>
-12.4585

>  <SCORE.INTER.CONST>
1

>  <SCORE.INTER.POLAR>
0

>  <SCORE.INTER.ROT>
5

>  <SCORE.INTER.SOLV>
14.4625

>  <SCORE.INTER.VDW>
-20.0598

>  <SCORE.INTER.norm>
-0.498339

>  <SCORE.INTRA>
-0.861315

>  <SCORE.INTRA.DIHEDRAL>
0.490946

>  <SCORE.INTRA.DIHEDRAL.0>
3.94806

>  <SCORE.INTRA.POLAR>
0

>  <SCORE.INTRA.POLAR.0>
0

>  <SCORE.INTRA.REPUL>
0

>  <SCORE.INTRA.REPUL.0>
0

>  <SCORE.INTRA.SOLV>
0.486676

>  <SCORE.INTRA.SOLV.lig_0>
-70.9803

>  <SCORE.INTRA.VDW>
-1.35013

>  <SCORE.INTRA.VDW.0>
-0.709409

>  <SCORE.INTRA.norm>
-0.0344526

>  <SCORE.RESTR>
0

>  <SCORE.RESTR.CAVITY>
0

>  <SCORE.RESTR.norm>
0

>  <SCORE.SYSTEM>
0

>  <SCORE.SYSTEM.CONST>
0

>  <SCORE.SYSTEM.DIHEDRAL>
0

>  <SCORE.SYSTEM.SOLV>
0

>  <SCORE.SYSTEM.norm>
0

>  <SCORE.heavy>
25

>  <SCORE.norm>
-0.532792

>  <RMSD>
7.359

$$$$
ligand
 OpenBabel11021811503D
libRbt.so/2013.1/901 2013/11/27
 25 27  0  0  0  0  0  0  0  0999 V2000
    0.0978  -19.7782   26.6707 N   0  0  0  0  0  0  0  0  0  0  0  0
    0.1172  -20.8040   25.6744 C   0  0  0  0  0  0  0  0  0  0  0  0
   -0.9104  -21.3924   25.3613 O   0  0  0  0  0  0  0  0  0  0  0  0
    6.2652  -18.0833   19.8856 N   0  0  0  0  0  0  0  0  0  0  0  0
    6.2394  -20.4530   20.2718 N   0  0  0  0  0  0  0  0  0  0  0  0
    6.7020  -19.2289   20.6157 C   0  0  0  0  0  0  0  0  0  0  0  0
    7.5886  -19.0719   21.6441 N   0  0  0  0  0  0  0  0  0  0  0  0
    8.0437  -20.1249   22.3698 C   0  0  0  0  0  0  0  0  0  0  0  0
    7.5724  -21.4208   22.0504 C   0  0  0  0  0  0  0  0  0  0  0  0
    8.9261  -19.9024   23.4008 O   0  0  0  0  0  0  0  0  0  0  0  0
    9.3389  -22.8775   23.1710 C   0  0  0  0  0  0  0  0  0  0  0  0
    7.9881  -22.6418   22.7212 N   0  0  0  0  0  0  0  0  0  0  0  0
   10.3271  -22.6159   22.4936 O   0  0  0  0  0  0  0  0  0  0  0  0
    7.0034  -23.6341   22.8087 C   0  0  2  0  0  0  0  0  0  0  0  0
    6.5043  -23.9965   21.3863 C   0  0  0  0  0  0  0  0  0  0  0  0
    6.6594  -21.5625   20.9581 C   0  0  0  0  0  0  0  0  0  0  0  0
    6.1462  -22.8871   20.5980 N   0  0  0  0  0  0  0  0  0  0  0  0
    5.8480  -23.1727   23.6737 C   0  0  0  0  0  0  0  0  0  0  0  0
    5.1065  -22.0288   23.2202 N   0  0  0  0  0  0  0  0  0  0  0  0
    1.4090  -21.1334   25.0100 C   0  0  0  0  0  0  0  0  0  0  0  0
    1.4598  -21.4238   23.6536 C   0  0  0  0  0  0  0  0  0  0  0  0
    2.6809  -21.7263   23.0635 C   0  0  0  0  0  0  0  0  0  0  0  0
    3.8477  -21.7255   23.8253 C   0  0  0  0  0  0  0  0  0  0  0  0
    3.7936  -21.4249   25.1751 C   0  0  0  0  0  0  0  0  0  0  0  0
    2.5711  -21.1331   25.7679 C   0  0  0  0  0  0  0  0  0  0  0  0
  1  2  1  0  0  0  0
  2  3  2  0  0  0  0
  2 20  1  0  0  0  0
  4  6  1  0  0  0  0
  5  6  2  0  0  0  0
  5 16  1  0  0  0  0
  6  7  1  0  0  0  0
  7  8  1  0  0  0  0
  8  9  1  0  0  0  0
  8 10  2  0  0  0  0
  9 12  1  0  0  0  0
  9 16  2  0  0  0  0
 11 13  1  0  0  0  0
 11 12  1  0  0  0  0
 12 14  1  0  0  0  0
 14 15  1  0  0  0  0
 14 18  1  1  0  0  0
 15 17  1  0  0  0  0
 16 17  1  0  0  0  0
 18 19  1  0  0  0  0
 19 23  1  0  0  0  0
 20 21  2  0  0  0  0
 20 25  1  0  0  0  0
 21 22  1  0  0  0  0
 22 23  2  0  0  0  0
 23 24  1  0  0  0  0
 24 25  2  0  0  0  0
M  END
>  <CHROM.1>
-43.94124048,62.56437477,166.52135299,-118.29641168,-140.95238835,5.34107649
-21.38233347,23.00287505,2.96626832,-0.40204608,2.58584664

>  <Name>
ligand

>  <RI>
0

>  <Rbt.Current_Directory>
/home/itssahil/PROJECTS/Mol_Feturizer/New_Systems/rnas/4LVV

>  <Rbt.Executable>
rbdock ($Id: //depot/dev/client3/rdock/2013.1/src/exe/rbdock.cxx#4 $)

>  <Rbt.Library>
libRbt.so (2013.1, Build901 2013/11/27)

>  <Rbt.Parameter_File>
/export/apps/rDock/src/rDock_2013.1_src/data/scripts/dock_solv.prm

>  <Rbt.Receptor>
prm/pocket_docking_6.prm

>  <SCORE>
-9.52924

>  <SCORE.INTER>
-9.33365

>  <SCORE.INTER.CONST>
1

>  <SCORE.INTER.POLAR>
0

>  <SCORE.INTER.ROT>
5

>  <SCORE.INTER.SOLV>
15.0531

>  <SCORE.INTER.VDW>
-18.1735

>  <SCORE.INTER.norm>
-0.373346

>  <SCORE.INTRA>
-0.195589

>  <SCORE.INTRA.DIHEDRAL>
-0.389151

>  <SCORE.INTRA.DIHEDRAL.0>
3.94806

>  <SCORE.INTRA.POLAR>
0

>  <SCORE.INTRA.POLAR.0>
0

>  <SCORE.INTRA.REPUL>
0

>  <SCORE.INTRA.REPUL.0>
0

>  <SCORE.INTRA.SOLV>
2.3169

>  <SCORE.INTRA.SOLV.lig_0>
-70.9803

>  <SCORE.INTRA.VDW>
-1.15946

>  <SCORE.INTRA.VDW.0>
-0.709409

>  <SCORE.INTRA.norm>
-0.00782356

>  <SCORE.RESTR>
0

>  <SCORE.RESTR.CAVITY>
0

>  <SCORE.RESTR.norm>
0

>  <SCORE.SYSTEM>
0

>  <SCORE.SYSTEM.CONST>
0

>  <SCORE.SYSTEM.DIHEDRAL>
0

>  <SCORE.SYSTEM.SOLV>
0

>  <SCORE.SYSTEM.norm>
0

>  <SCORE.heavy>
25

>  <SCORE.norm>
-0.38117

>  <RMSD>
7.375

$$$$
ligand
 OpenBabel11021811503D
libRbt.so/2013.1/901 2013/11/27
 25 27  0  0  0  0  0  0  0  0999 V2000
    0.0284  -19.8700   26.6853 N   0  0  0  0  0  0  0  0  0  0  0  0
    0.2449  -20.8950   25.7117 C   0  0  0  0  0  0  0  0  0  0  0  0
   -0.5476  -21.8210   25.5905 O   0  0  0  0  0  0  0  0  0  0  0  0
   11.3041  -22.4891   25.9509 N   0  0  0  0  0  0  0  0  0  0  0  0
    9.6164  -23.0880   24.3515 N   0  0  0  0  0  0  0  0  0  0  0  0
    9.9327  -22.5946   25.5710 C   0  0  0  0  0  0  0  0  0  0  0  0
    8.9606  -22.2052   26.4495 N   0  0  0  0  0  0  0  0  0  0  0  0
    7.6402  -22.2881   26.1459 C   0  0  0  0  0  0  0  0  0  0  0  0
    7.2685  -22.7857   24.8740 C   0  0  0  0  0  0  0  0  0  0  0  0
    6.7089  -21.8693   27.0669 O   0  0  0  0  0  0  0  0  0  0  0  0
    4.8274  -23.3985   25.2790 C   0  0  0  0  0  0  0  0  0  0  0  0
    5.8981  -22.9547   24.4190 N   0  0  0  0  0  0  0  0  0  0  0  0
    4.2506  -22.6587   26.0689 O   0  0  0  0  0  0  0  0  0  0  0  0
    5.7014  -22.7591   23.0461 C   0  0  2  0  0  0  0  0  0  0  0  0
    6.6105  -23.7292   22.2486 C   0  0  0  0  0  0  0  0  0  0  0  0
    8.3027  -23.2047   23.9786 C   0  0  0  0  0  0  0  0  0  0  0  0
    7.9588  -23.7227   22.6516 N   0  0  0  0  0  0  0  0  0  0  0  0
    5.9911  -21.3230   22.6588 C   0  0  0  0  0  0  0  0  0  0  0  0
    4.8611  -20.4724   22.4060 N   0  0  0  0  0  0  0  0  0  0  0  0
    1.4450  -20.8074   24.8338 C   0  0  0  0  0  0  0  0  0  0  0  0
    1.5513  -21.5885   23.6912 C   0  0  0  0  0  0  0  0  0  0  0  0
    2.6835  -21.4827   22.8925 C   0  0  0  0  0  0  0  0  0  0  0  0
    3.6987  -20.5895   23.2292 C   0  0  0  0  0  0  0  0  0  0  0  0
    3.5834  -19.8050   24.3635 C   0  0  0  0  0  0  0  0  0  0  0  0
    2.4563  -19.9186   25.1685 C   0  0  0  0  0  0  0  0  0  0  0  0
  1  2  1  0  0  0  0
  2  3  2  0  0  0  0
  2 20  1  0  0  0  0
  4  6  1  0  0  0  0
  5  6  2  0  0  0  0
  5 16  1  0  0  0  0
  6  7  1  0  0  0  0
  7  8  1  0  0  0  0
  8  9  1  0  0  0  0
  8 10  2  0  0  0  0
  9 12  1  0  0  0  0
  9 16  2  0  0  0  0
 11 13  1  0  0  0  0
 11 12  1  0  0  0  0
 12 14  1  0  0  0  0
 14 15  1  0  0  0  0
 14 18  1  6  0  0  0
 15 17  1  0  0  0  0
 16 17  1  0  0  0  0
 18 19  1  0  0  0  0
 19 23  1  0  0  0  0
 20 21  2  0  0  0  0
 20 25  1  0  0  0  0
 21 22  1  0  0  0  0
 22 23  2  0  0  0  0
 23 24  1  0  0  0  0
 24 25  2  0  0  0  0
M  END
>  <CHROM.1>
79.41694569,-104.14768567,38.94889742,-89.10450809,-165.46520663,5.25893078
-21.96557887,24.64867173,-3.09009749,0.23634975,-1.69923431

>  <Name>
ligand

>  <RI>
0

>  <Rbt.Current_Directory>
/home/itssahil/PROJECTS/Mol_Feturizer/New_Systems/rnas/4LVV

>  <Rbt.Executable>
rbdock ($Id: //depot/dev/client3/rdock/2013.1/src/exe/rbdock.cxx#4 $)

>  <Rbt.Library>
libRbt.so (2013.1, Build901 2013/11/27)

>  <Rbt.Parameter_File>
/export/apps/rDock/src/rDock_2013.1_src/data/scripts/dock_solv.prm

>  <Rbt.Receptor>
prm/pocket_docking_3.prm

>  <SCORE>
-14.4312

>  <SCORE.INTER>
-14.3702

>  <SCORE.INTER.CONST>
1

>  <SCORE.INTER.POLAR>
0

>  <SCORE.INTER.ROT>
5

>  <SCORE.INTER.SOLV>
14.9956

>  <SCORE.INTER.VDW>
-21.512

>  <SCORE.INTER.norm>
-0.57481

>  <SCORE.INTRA>
-0.060937

>  <SCORE.INTRA.DIHEDRAL>
4.19057

>  <SCORE.INTRA.DIHEDRAL.0>
3.94806

>  <SCORE.INTRA.POLAR>
0

>  <SCORE.INTRA.POLAR.0>
0

>  <SCORE.INTRA.REPUL>
0

>  <SCORE.INTRA.REPUL.0>
0

>  <SCORE.INTRA.SOLV>
0.0395973

>  <SCORE.INTRA.SOLV.lig_0>
-70.9803

>  <SCORE.INTRA.VDW>
-2.17602

>  <SCORE.INTRA.VDW.0>
-0.709409

>  <SCORE.INTRA.norm>
-0.00243748

>  <SCORE.RESTR>
0

>  <SCORE.RESTR.CAVITY>
0

>  <SCORE.RESTR.norm>
0

>  <SCORE.SYSTEM>
0

>  <SCORE.SYSTEM.CONST>
0

>  <SCORE.SYSTEM.DIHEDRAL>
0

>  <SCORE.SYSTEM.SOLV>
0

>  <SCORE.SYSTEM.norm>
0

>  <SCORE.heavy>
25

>  <SCORE.norm>
-0.577247

>  <RMSD>
7.472

$$$$
ligand
 OpenBabel11021811503D
libRbt.so/2013.1/901 2013/11/27
 25 27  0  0  0  0  0  0  0  0999 V2000
   -0.5560  -21.7921   25.3499 N   0  0  0  0  0  0  0  0  0  0  0  0
    0.2499  -20.7133   25.8315 C   0  0  0  0  0  0  0  0  0  0  0  0
   -0.1755  -19.9475   26.6875 O   0  0  0  0  0  0  0  0  0  0  0  0
   11.4587  -22.9253   25.5257 N   0  0  0  0  0  0  0  0  0  0  0  0
    9.5968  -23.2999   24.0565 N   0  0  0  0  0  0  0  0  0  0  0  0
   10.0555  -22.9057   25.2669 C   0  0  0  0  0  0  0  0  0  0  0  0
    9.1969  -22.4988   26.2495 N   0  0  0  0  0  0  0  0  0  0  0  0
    7.8528  -22.4651   26.0631 C   0  0  0  0  0  0  0  0  0  0  0  0
    7.3343  -22.8562   24.8055 C   0  0  0  0  0  0  0  0  0  0  0  0
    7.0407  -22.0346   27.0859 O   0  0  0  0  0  0  0  0  0  0  0  0
    4.8965  -23.3094   25.3972 C   0  0  0  0  0  0  0  0  0  0  0  0
    5.9206  -22.8953   24.4685 N   0  0  0  0  0  0  0  0  0  0  0  0
    4.4666  -22.5855   26.2888 O   0  0  0  0  0  0  0  0  0  0  0  0
    5.6221  -22.6034   23.1316 C   0  0  2  0  0  0  0  0  0  0  0  0
    6.3791  -23.5885   22.2041 C   0  0  0  0  0  0  0  0  0  0  0  0
    8.2507  -23.2961   23.7988 C   0  0  0  0  0  0  0  0  0  0  0  0
    7.7534  -23.7063   22.4827 N   0  0  0  0  0  0  0  0  0  0  0  0
    5.9901  -21.1720   22.7968 C   0  0  0  0  0  0  0  0  0  0  0  0
    5.4848  -20.1457   23.6659 N   0  0  0  0  0  0  0  0  0  0  0  0
    1.6257  -20.5472   25.2852 C   0  0  0  0  0  0  0  0  0  0  0  0
    2.6195  -19.9290   26.0314 C   0  0  0  0  0  0  0  0  0  0  0  0
    3.8932  -19.7903   25.4935 C   0  0  0  0  0  0  0  0  0  0  0  0
    4.1739  -20.2798   24.2194 C   0  0  0  0  0  0  0  0  0  0  0  0
    3.1826  -20.9049   23.4833 C   0  0  0  0  0  0  0  0  0  0  0  0
    1.9058  -21.0340   24.0166 C   0  0  0  0  0  0  0  0  0  0  0  0
  1  2  1  0  0  0  0
  2  3  2  0  0  0  0
  2 20  1  0  0  0  0
  4  6  1  0  0  0  0
  5  6  2  0  0  0  0
  5 16  1  0  0  0  0
  6  7  1  0  0  0  0
  7  8  1  0  0  0  0
  8  9  1  0  0  0  0
  8 10  2  0  0  0  0
  9 12  1  0  0  0  0
  9 16  2  0  0  0  0
 11 13  1  0  0  0  0
 11 12  1  0  0  0  0
 12 14  1  0  0  0  0
 14 15  1  0  0  0  0
 14 18  1  6  0  0  0
 15 17  1  0  0  0  0
 16 17  1  0  0  0  0
 18 19  1  0  0  0  0
 19 23  1  0  0  0  0
 20 21  2  0  0  0  0
 20 25  1  0  0  0  0
 21 22  1  0  0  0  0
 22 23  2  0  0  0  0
 23 24  1  0  0  0  0
 24 25  2  0  0  0  0
M  END
>  <CHROM.1>
78.14366390,-51.67157852,-36.95487357,146.50208486,-153.53757562,5.38690672
-21.91675920,24.81640235,2.99170058,-0.26081504,1.35863034

>  <Name>
ligand

>  <RI>
0

>  <Rbt.Current_Directory>
/home/itssahil/PROJECTS/Mol_Feturizer/New_Systems/rnas/4LVV

>  <Rbt.Executable>
rbdock ($Id: //depot/dev/client3/rdock/2013.1/src/exe/rbdock.cxx#4 $)

>  <Rbt.Library>
libRbt.so (2013.1, Build901 2013/11/27)

>  <Rbt.Parameter_File>
/export/apps/rDock/src/rDock_2013.1_src/data/scripts/dock_solv.prm

>  <Rbt.Receptor>
prm/pocket_docking_5.prm

>  <SCORE>
-13.0661

>  <SCORE.INTER>
-12.0925

>  <SCORE.INTER.CONST>
1

>  <SCORE.INTER.POLAR>
0

>  <SCORE.INTER.ROT>
5

>  <SCORE.INTER.SOLV>
14.419

>  <SCORE.INTER.VDW>
-19.8014

>  <SCORE.INTER.norm>
-0.483702

>  <SCORE.INTRA>
-0.973515

>  <SCORE.INTRA.DIHEDRAL>
0.0966299

>  <SCORE.INTRA.DIHEDRAL.0>
3.94806

>  <SCORE.INTRA.POLAR>
0

>  <SCORE.INTRA.POLAR.0>
0

>  <SCORE.INTRA.REPUL>
0

>  <SCORE.INTRA.REPUL.0>
0

>  <SCORE.INTRA.SOLV>
1.27363

>  <SCORE.INTRA.SOLV.lig_0>
-70.9803

>  <SCORE.INTRA.VDW>
-1.65865

>  <SCORE.INTRA.VDW.0>
-0.709409

>  <SCORE.INTRA.norm>
-0.0389406

>  <SCORE.RESTR>
0

>  <SCORE.RESTR.CAVITY>
0

>  <SCORE.RESTR.norm>
0

>  <SCORE.SYSTEM>
0

>  <SCORE.SYSTEM.CONST>
0

>  <SCORE.SYSTEM.DIHEDRAL>
0

>  <SCORE.SYSTEM.SOLV>
0

>  <SCORE.SYSTEM.norm>
0

>  <SCORE.heavy>
25

>  <SCORE.norm>
-0.522642

>  <RMSD>
7.472

$$$$
ligand
 OpenBabel11021811503D
libRbt.so/2013.1/901 2013/11/27
 25 27  0  0  0  0  0  0  0  0999 V2000
   -0.8082  -21.7102   25.7842 N   0  0  0  0  0  0  0  0  0  0  0  0
    0.1667  -20.6743   25.9317 C   0  0  0  0  0  0  0  0  0  0  0  0
    0.0489  -19.8233   26.8046 O   0  0  0  0  0  0  0  0  0  0  0  0
   11.1571  -22.1296   26.2056 N   0  0  0  0  0  0  0  0  0  0  0  0
    9.5301  -22.8462   24.5918 N   0  0  0  0  0  0  0  0  0  0  0  0
    9.7996  -22.3124   25.8055 C   0  0  0  0  0  0  0  0  0  0  0  0
    8.7938  -21.9546   26.6591 N   0  0  0  0  0  0  0  0  0  0  0  0
    7.4848  -22.1106   26.3356 C   0  0  0  0  0  0  0  0  0  0  0  0
    7.1611  -22.6526   25.0687 C   0  0  0  0  0  0  0  0  0  0  0  0
    6.5175  -21.7207   27.2318 O   0  0  0  0  0  0  0  0  0  0  0  0
    4.7472  -23.3799   25.4464 C   0  0  0  0  0  0  0  0  0  0  0  0
    5.8091  -22.9003   24.5949 N   0  0  0  0  0  0  0  0  0  0  0  0
    4.1476  -22.6627   26.2400 O   0  0  0  0  0  0  0  0  0  0  0  0
    5.6271  -22.7434   23.2150 C   0  0  2  0  0  0  0  0  0  0  0  0
    6.5978  -23.6824   22.4537 C   0  0  0  0  0  0  0  0  0  0  0  0
    8.2307  -23.0371   24.1998 C   0  0  0  0  0  0  0  0  0  0  0  0
    7.9367  -23.5992   22.8788 N   0  0  0  0  0  0  0  0  0  0  0  0
    5.8508  -21.3028   22.8017 C   0  0  0  0  0  0  0  0  0  0  0  0
    4.6867  -20.5276   22.4728 N   0  0  0  0  0  0  0  0  0  0  0  0
    1.3398  -20.6584   25.0140 C   0  0  0  0  0  0  0  0  0  0  0  0
    1.3618  -21.4455   23.8709 C   0  0  0  0  0  0  0  0  0  0  0  0
    2.4709  -21.4074   23.0346 C   0  0  0  0  0  0  0  0  0  0  0  0
    3.5476  -20.5752   23.3347 C   0  0  0  0  0  0  0  0  0  0  0  0
    3.5166  -19.7841   24.4698 C   0  0  0  0  0  0  0  0  0  0  0  0
    2.4123  -19.8303   25.3122 C   0  0  0  0  0  0  0  0  0  0  0  0
  1  2  1  0  0  0  0
  2  3  2  0  0  0  0
  2 20  1  0  0  0  0
  4  6  1  0  0  0  0
  5  6  2  0  0  0  0
  5 16  1  0  0  0  0
  6  7  1  0  0  0  0
  7  8  1  0  0  0  0
  8  9  1  0  0  0  0
  8 10  2  0  0  0  0
  9 12  1  0  0  0  0
  9 16  2  0  0  0  0
 11 13  1  0  0  0  0
 11 12  1  0  0  0  0
 12 14  1  0  0  0  0
 14 15  1  0  0  0  0
 14 18  1  6  0  0  0
 15 17  1  0  0  0  0
 16 17  1  0  0  0  0
 18 19  1  0  0  0  0
 19 23  1  0  0  0  0
 20 21  2  0  0  0  0
 20 25  1  0  0  0  0
 21 22  1  0  0  0  0
 22 23  2  0  0  0  0
 23 24  1  0  0  0  0
 24 25  2  0  0  0  0
M  END
>  <CHROM.1>
77.11212880,-105.97982827,46.20995754,-98.05216597,13.25571831,5.14932448
-21.84184354,24.83197830,-3.08410654,0.22671949,-1.74113251

>  <Name>
ligand

>  <RI>
0

>  <Rbt.Current_Directory>
/home/itssahil/PROJECTS/Mol_Feturizer/New_Systems/rnas/4LVV

>  <Rbt.Executable>
rbdock ($Id: //depot/dev/client3/rdock/2013.1/src/exe/rbdock.cxx#4 $)

>  <Rbt.Library>
libRbt.so (2013.1, Build901 2013/11/27)

>  <Rbt.Parameter_File>
/export/apps/rDock/src/rDock_2013.1_src/data/scripts/dock_solv.prm

>  <Rbt.Receptor>
prm/pocket_docking_6.prm

>  <SCORE>
-14.4515

>  <SCORE.INTER>
-14.3648

>  <SCORE.INTER.CONST>
1

>  <SCORE.INTER.POLAR>
0

>  <SCORE.INTER.ROT>
5

>  <SCORE.INTER.SOLV>
15.2734

>  <SCORE.INTER.VDW>
-21.601

>  <SCORE.INTER.norm>
-0.574591

>  <SCORE.INTRA>
-0.0866718

>  <SCORE.INTRA.DIHEDRAL>
4.14164

>  <SCORE.INTRA.DIHEDRAL.0>
3.94806

>  <SCORE.INTRA.POLAR>
0

>  <SCORE.INTRA.POLAR.0>
0

>  <SCORE.INTRA.REPUL>
0

>  <SCORE.INTRA.REPUL.0>
0

>  <SCORE.INTRA.SOLV>
-0.0615021

>  <SCORE.INTRA.SOLV.lig_0>
-70.9803

>  <SCORE.INTRA.VDW>
-2.12674

>  <SCORE.INTRA.VDW.0>
-0.709409

>  <SCORE.INTRA.norm>
-0.00346687

>  <SCORE.RESTR>
0

>  <SCORE.RESTR.CAVITY>
0

>  <SCORE.RESTR.norm>
0

>  <SCORE.SYSTEM>
0

>  <SCORE.SYSTEM.CONST>
0

>  <SCORE.SYSTEM.DIHEDRAL>
0

>  <SCORE.SYSTEM.SOLV>
0

>  <SCORE.SYSTEM.norm>
0

>  <SCORE.heavy>
25

>  <SCORE.norm>
-0.578058

>  <RMSD>
7.478

$$$$
ligand
 OpenBabel11021811503D
libRbt.so/2013.1/901 2013/11/27
 25 27  0  0  0  0  0  0  0  0999 V2000
   -0.0490  -19.9969   26.6553 N   0  0  0  0  0  0  0  0  0  0  0  0
    0.2363  -20.9469   25.6250 C   0  0  0  0  0  0  0  0  0  0  0  0
   -0.5270  -21.8788   25.4037 O   0  0  0  0  0  0  0  0  0  0  0  0
   11.3426  -22.6911   25.8675 N   0  0  0  0  0  0  0  0  0  0  0  0
    9.6242  -23.1824   24.2640 N   0  0  0  0  0  0  0  0  0  0  0  0
    9.9655  -22.7430   25.4975 C   0  0  0  0  0  0  0  0  0  0  0  0
    9.0129  -22.3576   26.3988 N   0  0  0  0  0  0  0  0  0  0  0  0
    7.6880  -22.3912   26.1054 C   0  0  0  0  0  0  0  0  0  0  0  0
    7.2908  -22.8313   24.8200 C   0  0  0  0  0  0  0  0  0  0  0  0
    6.7774  -21.9793   27.0499 O   0  0  0  0  0  0  0  0  0  0  0  0
    4.8365  -23.3873   25.2265 C   0  0  0  0  0  0  0  0  0  0  0  0
    5.9121  -22.9438   24.3727 N   0  0  0  0  0  0  0  0  0  0  0  0
    4.2458  -22.6441   26.0027 O   0  0  0  0  0  0  0  0  0  0  0  0
    5.7094  -22.6930   23.0097 C   0  0  2  0  0  0  0  0  0  0  0  0
    6.5826  -23.6594   22.1689 C   0  0  0  0  0  0  0  0  0  0  0  0
    8.3044  -23.2473   23.9001 C   0  0  0  0  0  0  0  0  0  0  0  0
    7.9340  -23.7066   22.5587 N   0  0  0  0  0  0  0  0  0  0  0  0
    6.0376  -21.2528   22.6716 C   0  0  0  0  0  0  0  0  0  0  0  0
    4.9310  -20.3620   22.4573 N   0  0  0  0  0  0  0  0  0  0  0  0
    1.4724  -20.7729   24.8122 C   0  0  0  0  0  0  0  0  0  0  0  0
    2.5153  -19.9750   25.2622 C   0  0  0  0  0  0  0  0  0  0  0  0
    3.6556  -19.8338   24.4806 C   0  0  0  0  0  0  0  0  0  0  0  0
    3.7565  -20.4987   23.2602 C   0  0  0  0  0  0  0  0  0  0  0  0
    2.7185  -21.3017   22.8208 C   0  0  0  0  0  0  0  0  0  0  0  0
    1.5735  -21.4344   23.5969 C   0  0  0  0  0  0  0  0  0  0  0  0
  1  2  1  0  0  0  0
  2  3  2  0  0  0  0
  2 20  1  0  0  0  0
  4  6  1  0  0  0  0
  5  6  2  0  0  0  0
  5 16  1  0  0  0  0
  6  7  1  0  0  0  0
  7  8  1  0  0  0  0
  8  9  1  0  0  0  0
  8 10  2  0  0  0  0
  9 12  1  0  0  0  0
  9 16  2  0  0  0  0
 11 13  1  0  0  0  0
 11 12  1  0  0  0  0
 12 14  1  0  0  0  0
 14 15  1  0  0  0  0
 14 18  1  1  0  0  0
 15 17  1  0  0  0  0
 16 17  1  0  0  0  0
 18 19  1  0  0  0  0
 19 23  1  0  0  0  0
 20 21  2  0  0  0  0
 20 25  1  0  0  0  0
 21 22  1  0  0  0  0
 22 23  2  0  0  0  0
 23 24  1  0  0  0  0
 24 25  2  0  0  0  0
M  END
>  <CHROM.1>
83.01351302,-104.30026827,37.27308682,87.96314196,18.66235922,5.28115091
-21.98299782,24.60492411,-3.10191746,0.24740632,-1.65003809

>  <Name>
ligand

>  <RI>
0

>  <Rbt.Current_Directory>
/home/itssahil/PROJECTS/Mol_Feturizer/New_Systems/rnas/4LVV

>  <Rbt.Executable>
rbdock ($Id: //depot/dev/client3/rdock/2013.1/src/exe/rbdock.cxx#4 $)

>  <Rbt.Library>
libRbt.so (2013.1, Build901 2013/11/27)

>  <Rbt.Parameter_File>
/export/apps/rDock/src/rDock_2013.1_src/data/scripts/dock_solv.prm

>  <Rbt.Receptor>
prm/pocket_docking_6.prm

>  <SCORE>
-14.581

>  <SCORE.INTER>
-14.5114

>  <SCORE.INTER.CONST>
1

>  <SCORE.INTER.POLAR>
0

>  <SCORE.INTER.ROT>
5

>  <SCORE.INTER.SOLV>
14.8027

>  <SCORE.INTER.VDW>
-21.5418

>  <SCORE.INTER.norm>
-0.580455

>  <SCORE.INTRA>
-0.0696243

>  <SCORE.INTRA.DIHEDRAL>
4.22633

>  <SCORE.INTRA.DIHEDRAL.0>
3.94806

>  <SCORE.INTRA.POLAR>
0

>  <SCORE.INTRA.POLAR.0>
0

>  <SCORE.INTRA.REPUL>
0

>  <SCORE.INTRA.REPUL.0>
0

>  <SCORE.INTRA.SOLV>
0.0758621

>  <SCORE.INTRA.SOLV.lig_0>
-70.9803

>  <SCORE.INTRA.VDW>
-2.22072

>  <SCORE.INTRA.VDW.0>
-0.709409

>  <SCORE.INTRA.norm>
-0.00278497

>  <SCORE.RESTR>
0

>  <SCORE.RESTR.CAVITY>
0

>  <SCORE.RESTR.norm>
0

>  <SCORE.SYSTEM>
0

>  <SCORE.SYSTEM.CONST>
0

>  <SCORE.SYSTEM.DIHEDRAL>
0

>  <SCORE.SYSTEM.SOLV>
0

>  <SCORE.SYSTEM.norm>
0

>  <SCORE.heavy>
25

>  <SCORE.norm>
-0.58324

>  <RMSD>
7.481

$$$$
ligand
 OpenBabel11021811503D
libRbt.so/2013.1/901 2013/11/27
 25 27  0  0  0  0  0  0  0  0999 V2000
   -1.4580  -21.0371   25.4037 N   0  0  0  0  0  0  0  0  0  0  0  0
   -0.1553  -21.2333   25.9603 C   0  0  0  0  0  0  0  0  0  0  0  0
   -0.0190  -21.6756   27.0943 O   0  0  0  0  0  0  0  0  0  0  0  0
   10.8330  -19.9654   24.0388 N   0  0  0  0  0  0  0  0  0  0  0  0
    9.1791  -21.3636   23.0021 N   0  0  0  0  0  0  0  0  0  0  0  0
    9.5235  -20.5314   24.0120 C   0  0  0  0  0  0  0  0  0  0  0  0
    8.6416  -20.2318   25.0124 N   0  0  0  0  0  0  0  0  0  0  0  0
    7.3853  -20.7449   25.0429 C   0  0  0  0  0  0  0  0  0  0  0  0
    6.9817  -21.6085   23.9965 C   0  0  0  0  0  0  0  0  0  0  0  0
    6.5393  -20.3968   26.0696 O   0  0  0  0  0  0  0  0  0  0  0  0
    4.9694  -22.7598   25.0565 C   0  0  0  0  0  0  0  0  0  0  0  0
    5.6806  -22.2510   23.9084 N   0  0  0  0  0  0  0  0  0  0  0  0
    5.0920  -23.9089   25.4667 O   0  0  0  0  0  0  0  0  0  0  0  0
    5.2022  -22.4437   22.6061 C   0  0  2  0  0  0  0  0  0  0  0  0
    6.2241  -23.2831   21.7970 C   0  0  0  0  0  0  0  0  0  0  0  0
    7.9280  -21.9225   22.9705 C   0  0  0  0  0  0  0  0  0  0  0  0
    7.5477  -22.8103   21.8683 N   0  0  0  0  0  0  0  0  0  0  0  0
    4.9487  -21.1153   21.9225 C   0  0  0  0  0  0  0  0  0  0  0  0
    4.3794  -20.0657   22.7216 N   0  0  0  0  0  0  0  0  0  0  0  0
    1.0361  -20.9057   25.1285 C   0  0  0  0  0  0  0  0  0  0  0  0
    1.9633  -19.9628   25.5507 C   0  0  0  0  0  0  0  0  0  0  0  0
    3.0647  -19.6803   24.7519 C   0  0  0  0  0  0  0  0  0  0  0  0
    3.2438  -20.3482   23.5421 C   0  0  0  0  0  0  0  0  0  0  0  0
    2.3224  -21.2952   23.1304 C   0  0  0  0  0  0  0  0  0  0  0  0
    1.2150  -21.5699   23.9237 C   0  0  0  0  0  0  0  0  0  0  0  0
  1  2  1  0  0  0  0
  2  3  2  0  0  0  0
  2 20  1  0  0  0  0
  4  6  1  0  0  0  0
  5  6  2  0  0  0  0
  5 16  1  0  0  0  0
  6  7  1  0  0  0  0
  7  8  1  0  0  0  0
  8  9  1  0  0  0  0
  8 10  2  0  0  0  0
  9 12  1  0  0  0  0
  9 16  2  0  0  0  0
 11 13  1  0  0  0  0
 11 12  1  0  0  0  0
 12 14  1  0  0  0  0
 14 15  1  0  0  0  0
 14 18  1  6  0  0  0
 15 17  1  0  0  0  0
 16 17  1  0  0  0  0
 18 19  1  0  0  0  0
 19 23  1  0  0  0  0
 20 21  2  0  0  0  0
 20 25  1  0  0  0  0
 21 22  1  0  0  0  0
 22 23  2  0  0  0  0
 23 24  1  0  0  0  0
 24 25  2  0  0  0  0
M  END
>  <CHROM.1>
-90.34374699,-39.20978316,-47.67315440,147.76678007,120.91805567,4.92725745
-21.36185766,24.18675026,2.94561312,0.09259867,1.07743790

>  <Name>
ligand

>  <RI>
0

>  <Rbt.Current_Directory>
/home/itssahil/PROJECTS/Mol_Feturizer/New_Systems/rnas/4LVV

>  <Rbt.Executable>
rbdock ($Id: //depot/dev/client3/rdock/2013.1/src/exe/rbdock.cxx#4 $)

>  <Rbt.Library>
libRbt.so (2013.1, Build901 2013/11/27)

>  <Rbt.Parameter_File>
/export/apps/rDock/src/rDock_2013.1_src/data/scripts/dock_solv.prm

>  <Rbt.Receptor>
prm/pocket_docking_5.prm

>  <SCORE>
-13.159

>  <SCORE.INTER>
-12.1803

>  <SCORE.INTER.CONST>
1

>  <SCORE.INTER.POLAR>
0

>  <SCORE.INTER.ROT>
5

>  <SCORE.INTER.SOLV>
14.1844

>  <SCORE.INTER.VDW>
-19.7817

>  <SCORE.INTER.norm>
-0.487213

>  <SCORE.INTRA>
-0.978687

>  <SCORE.INTRA.DIHEDRAL>
0.691769

>  <SCORE.INTRA.DIHEDRAL.0>
3.94806

>  <SCORE.INTRA.POLAR>
0

>  <SCORE.INTRA.POLAR.0>
0

>  <SCORE.INTRA.REPUL>
0

>  <SCORE.INTRA.REPUL.0>
0

>  <SCORE.INTRA.SOLV>
0.76172

>  <SCORE.INTRA.SOLV.lig_0>
-70.9803

>  <SCORE.INTRA.VDW>
-1.70543

>  <SCORE.INTRA.VDW.0>
-0.709409

>  <SCORE.INTRA.norm>
-0.0391475

>  <SCORE.RESTR>
0

>  <SCORE.RESTR.CAVITY>
0

>  <SCORE.RESTR.norm>
0

>  <SCORE.SYSTEM>
0

>  <SCORE.SYSTEM.CONST>
0

>  <SCORE.SYSTEM.DIHEDRAL>
0

>  <SCORE.SYSTEM.SOLV>
0

>  <SCORE.SYSTEM.norm>
0

>  <SCORE.heavy>
25

>  <SCORE.norm>
-0.52636

>  <RMSD>
7.482

$$$$
ligand
 OpenBabel11021811503D
libRbt.so/2013.1/901 2013/11/27
 25 27  0  0  0  0  0  0  0  0999 V2000
    0.0573  -19.9594   26.6097 N   0  0  0  0  0  0  0  0  0  0  0  0
    0.2795  -20.9342   25.5871 C   0  0  0  0  0  0  0  0  0  0  0  0
   -0.5263  -21.8368   25.3966 O   0  0  0  0  0  0  0  0  0  0  0  0
   11.3844  -22.7215   25.8594 N   0  0  0  0  0  0  0  0  0  0  0  0
    9.6668  -23.2280   24.2598 N   0  0  0  0  0  0  0  0  0  0  0  0
   10.0076  -22.7751   25.4885 C   0  0  0  0  0  0  0  0  0  0  0  0
    9.0547  -22.3776   26.3843 N   0  0  0  0  0  0  0  0  0  0  0  0
    7.7301  -22.4121   26.0897 C   0  0  0  0  0  0  0  0  0  0  0  0
    7.3335  -22.8662   24.8091 C   0  0  0  0  0  0  0  0  0  0  0  0
    6.8192  -21.9877   27.0284 O   0  0  0  0  0  0  0  0  0  0  0  0
    4.8777  -23.4131   25.2193 C   0  0  0  0  0  0  0  0  0  0  0  0
    5.9551  -22.9814   24.3616 N   0  0  0  0  0  0  0  0  0  0  0  0
    4.2575  -22.6509   25.9530 O   0  0  0  0  0  0  0  0  0  0  0  0
    5.7543  -22.7459   22.9956 C   0  0  2  0  0  0  0  0  0  0  0  0
    6.6267  -23.7236   22.1669 C   0  0  0  0  0  0  0  0  0  0  0  0
    8.3473  -23.2947   23.8952 C   0  0  0  0  0  0  0  0  0  0  0  0
    7.9775  -23.7688   22.5587 N   0  0  0  0  0  0  0  0  0  0  0  0
    6.0855  -21.3103   22.6412 C   0  0  0  0  0  0  0  0  0  0  0  0
    4.9808  -20.4196   22.4170 N   0  0  0  0  0  0  0  0  0  0  0  0
    1.5024  -20.8224   24.7441 C   0  0  0  0  0  0  0  0  0  0  0  0
    1.6494  -21.5880   23.5955 C   0  0  0  0  0  0  0  0  0  0  0  0
    2.8020  -21.4597   22.8302 C   0  0  0  0  0  0  0  0  0  0  0  0
    3.7973  -20.5597   23.2060 C   0  0  0  0  0  0  0  0  0  0  0  0
    3.6416  -19.7908   24.3461 C   0  0  0  0  0  0  0  0  0  0  0  0
    2.4939  -19.9268   25.1178 C   0  0  0  0  0  0  0  0  0  0  0  0
  1  2  1  0  0  0  0
  2  3  2  0  0  0  0
  2 20  1  0  0  0  0
  4  6  1  0  0  0  0
  5  6  2  0  0  0  0
  5 16  1  0  0  0  0
  6  7  1  0  0  0  0
  7  8  1  0  0  0  0
  8  9  1  0  0  0  0
  8 10  2  0  0  0  0
  9 12  1  0  0  0  0
  9 16  2  0  0  0  0
 11 13  1  0  0  0  0
 11 12  1  0  0  0  0
 12 14  1  0  0  0  0
 14 15  1  0  0  0  0
 14 18  1  1  0  0  0
 15 17  1  0  0  0  0
 16 17  1  0  0  0  0
 18 19  1  0  0  0  0
 19 23  1  0  0  0  0
 20 21  2  0  0  0  0
 20 25  1  0  0  0  0
 21 22  1  0  0  0  0
 22 23  2  0  0  0  0
 23 24  1  0  0  0  0
 24 25  2  0  0  0  0
M  END
>  <CHROM.1>
85.56191646,-104.22743231,36.20066650,-85.65966991,-168.42471524,5.32130418
-22.01541625,24.57675401,-3.10097203,0.25050249,-1.66851144

>  <Name>
ligand

>  <RI>
0

>  <Rbt.Current_Directory>
/home/itssahil/PROJECTS/Mol_Feturizer/New_Systems/rnas/4LVV

>  <Rbt.Executable>
rbdock ($Id: //depot/dev/client3/rdock/2013.1/src/exe/rbdock.cxx#4 $)

>  <Rbt.Library>
libRbt.so (2013.1, Build901 2013/11/27)

>  <Rbt.Parameter_File>
/export/apps/rDock/src/rDock_2013.1_src/data/scripts/dock_solv.prm

>  <Rbt.Receptor>
prm/pocket_docking_4.prm

>  <SCORE>
-14.4475

>  <SCORE.INTER>
-14.4838

>  <SCORE.INTER.CONST>
1

>  <SCORE.INTER.POLAR>
0

>  <SCORE.INTER.ROT>
5

>  <SCORE.INTER.SOLV>
14.8979

>  <SCORE.INTER.VDW>
-21.5552

>  <SCORE.INTER.norm>
-0.579353

>  <SCORE.INTRA>
0.0362971

>  <SCORE.INTRA.DIHEDRAL>
4.30158

>  <SCORE.INTRA.DIHEDRAL.0>
3.94806

>  <SCORE.INTRA.POLAR>
0

>  <SCORE.INTRA.POLAR.0>
0

>  <SCORE.INTRA.REPUL>
0

>  <SCORE.INTRA.REPUL.0>
0

>  <SCORE.INTRA.SOLV>
0.109208

>  <SCORE.INTRA.SOLV.lig_0>
-70.9803

>  <SCORE.INTRA.VDW>
-2.1691

>  <SCORE.INTRA.VDW.0>
-0.709409

>  <SCORE.INTRA.norm>
0.00145189

>  <SCORE.RESTR>
0

>  <SCORE.RESTR.CAVITY>
0

>  <SCORE.RESTR.norm>
0

>  <SCORE.SYSTEM>
0

>  <SCORE.SYSTEM.CONST>
0

>  <SCORE.SYSTEM.DIHEDRAL>
0

>  <SCORE.SYSTEM.SOLV>
0

>  <SCORE.SYSTEM.norm>
0

>  <SCORE.heavy>
25

>  <SCORE.norm>
-0.577901

>  <RMSD>
7.489

$$$$
ligand
 OpenBabel11021811503D
libRbt.so/2013.1/901 2013/11/27
 25 27  0  0  0  0  0  0  0  0999 V2000
   -0.7908  -21.7230   25.7339 N   0  0  0  0  0  0  0  0  0  0  0  0
    0.1739  -20.6840   25.9220 C   0  0  0  0  0  0  0  0  0  0  0  0
    0.0349  -19.8542   26.8120 O   0  0  0  0  0  0  0  0  0  0  0  0
   11.1838  -22.1129   26.1663 N   0  0  0  0  0  0  0  0  0  0  0  0
    9.5585  -22.8472   24.5586 N   0  0  0  0  0  0  0  0  0  0  0  0
    9.8269  -22.3122   25.7721 C   0  0  0  0  0  0  0  0  0  0  0  0
    8.8206  -21.9688   26.6311 N   0  0  0  0  0  0  0  0  0  0  0  0
    7.5122  -22.1408   26.3133 C   0  0  0  0  0  0  0  0  0  0  0  0
    7.1895  -22.6845   25.0469 C   0  0  0  0  0  0  0  0  0  0  0  0
    6.5442  -21.7648   27.2147 O   0  0  0  0  0  0  0  0  0  0  0  0
    4.7868  -23.4431   25.4343 C   0  0  0  0  0  0  0  0  0  0  0  0
    5.8387  -22.9484   24.5789 N   0  0  0  0  0  0  0  0  0  0  0  0
    4.2190  -22.7482   26.2701 O   0  0  0  0  0  0  0  0  0  0  0  0
    5.6483  -22.7913   23.2002 C   0  0  2  0  0  0  0  0  0  0  0  0
    6.6272  -23.7165   22.4326 C   0  0  0  0  0  0  0  0  0  0  0  0
    8.2599  -23.0538   24.1724 C   0  0  0  0  0  0  0  0  0  0  0  0
    7.9670  -23.6171   22.8516 N   0  0  0  0  0  0  0  0  0  0  0  0
    5.8518  -21.3472   22.7885 C   0  0  0  0  0  0  0  0  0  0  0  0
    4.6788  -20.5937   22.4415 N   0  0  0  0  0  0  0  0  0  0  0  0
    1.3624  -20.6388   25.0252 C   0  0  0  0  0  0  0  0  0  0  0  0
    2.4716  -19.8698   25.3495 C   0  0  0  0  0  0  0  0  0  0  0  0
    3.5649  -19.8496   24.4921 C   0  0  0  0  0  0  0  0  0  0  0  0
    3.5530  -20.6061   23.3219 C   0  0  0  0  0  0  0  0  0  0  0  0
    2.4491  -21.3796   23.0081 C   0  0  0  0  0  0  0  0  0  0  0  0
    1.3510  -21.3914   23.8598 C   0  0  0  0  0  0  0  0  0  0  0  0
  1  2  1  0  0  0  0
  2  3  2  0  0  0  0
  2 20  1  0  0  0  0
  4  6  1  0  0  0  0
  5  6  2  0  0  0  0
  5 16  1  0  0  0  0
  6  7  1  0  0  0  0
  7  8  1  0  0  0  0
  8  9  1  0  0  0  0
  8 10  2  0  0  0  0
  9 12  1  0  0  0  0
  9 16  2  0  0  0  0
 11 13  1  0  0  0  0
 11 12  1  0  0  0  0
 12 14  1  0  0  0  0
 14 15  1  0  0  0  0
 14 18  1  6  0  0  0
 15 17  1  0  0  0  0
 16 17  1  0  0  0  0
 18 19  1  0  0  0  0
 19 23  1  0  0  0  0
 20 21  2  0  0  0  0
 20 25  1  0  0  0  0
 21 22  1  0  0  0  0
 22 23  2  0  0  0  0
 23 24  1  0  0  0  0
 24 25  2  0  0  0  0
M  END
>  <CHROM.1>
74.05873542,-107.15480494,49.44473101,76.70347346,-164.56024477,5.17152136
-21.86783969,24.81755727,-3.08130545,0.22616717,-1.74355095

>  <Name>
ligand

>  <RI>
0

>  <Rbt.Current_Directory>
/home/itssahil/PROJECTS/Mol_Feturizer/New_Systems/rnas/4LVV

>  <Rbt.Executable>
rbdock ($Id: //depot/dev/client3/rdock/2013.1/src/exe/rbdock.cxx#4 $)

>  <Rbt.Library>
libRbt.so (2013.1, Build901 2013/11/27)

>  <Rbt.Parameter_File>
/export/apps/rDock/src/rDock_2013.1_src/data/scripts/dock_solv.prm

>  <Rbt.Receptor>
prm/pocket_docking_4.prm

>  <SCORE>
-14.3644

>  <SCORE.INTER>
-14.3506

>  <SCORE.INTER.CONST>
1

>  <SCORE.INTER.POLAR>
0

>  <SCORE.INTER.ROT>
5

>  <SCORE.INTER.SOLV>
15.5457

>  <SCORE.INTER.VDW>
-21.6823

>  <SCORE.INTER.norm>
-0.574024

>  <SCORE.INTRA>
-0.0138049

>  <SCORE.INTRA.DIHEDRAL>
4.19688

>  <SCORE.INTRA.DIHEDRAL.0>
3.94806

>  <SCORE.INTRA.POLAR>
0

>  <SCORE.INTRA.POLAR.0>
0

>  <SCORE.INTRA.REPUL>
0

>  <SCORE.INTRA.REPUL.0>
0

>  <SCORE.INTRA.SOLV>
-0.103646

>  <SCORE.INTRA.SOLV.lig_0>
-70.9803

>  <SCORE.INTRA.VDW>
-2.06042

>  <SCORE.INTRA.VDW.0>
-0.709409

>  <SCORE.INTRA.norm>
-0.000552194

>  <SCORE.RESTR>
0

>  <SCORE.RESTR.CAVITY>
0

>  <SCORE.RESTR.norm>
0

>  <SCORE.SYSTEM>
0

>  <SCORE.SYSTEM.CONST>
0

>  <SCORE.SYSTEM.DIHEDRAL>
0

>  <SCORE.SYSTEM.SOLV>
0

>  <SCORE.SYSTEM.norm>
0

>  <SCORE.heavy>
25

>  <SCORE.norm>
-0.574576

>  <RMSD>
7.490

$$$$
ligand
 OpenBabel11021811503D
libRbt.so/2013.1/901 2013/11/27
 25 27  0  0  0  0  0  0  0  0999 V2000
   -0.6718  -21.6805   25.6266 N   0  0  0  0  0  0  0  0  0  0  0  0
    0.3397  -20.6914   25.8366 C   0  0  0  0  0  0  0  0  0  0  0  0
    0.2526  -19.8933   26.7616 O   0  0  0  0  0  0  0  0  0  0  0  0
   11.3325  -22.5455   25.8378 N   0  0  0  0  0  0  0  0  0  0  0  0
    9.6184  -23.1266   24.2600 N   0  0  0  0  0  0  0  0  0  0  0  0
    9.9552  -22.6409   25.4772 C   0  0  0  0  0  0  0  0  0  0  0  0
    8.9981  -22.2495   26.3712 N   0  0  0  0  0  0  0  0  0  0  0  0
    7.6730  -22.3229   26.0861 C   0  0  0  0  0  0  0  0  0  0  0  0
    7.2801  -22.8123   24.8174 C   0  0  0  0  0  0  0  0  0  0  0  0
    6.7575  -21.9027   27.0222 O   0  0  0  0  0  0  0  0  0  0  0  0
    4.8413  -23.4120   25.2545 C   0  0  0  0  0  0  0  0  0  0  0  0
    5.9024  -22.9708   24.3813 N   0  0  0  0  0  0  0  0  0  0  0  0
    4.2095  -22.6517   25.9801 O   0  0  0  0  0  0  0  0  0  0  0  0
    5.6874  -22.7678   23.0123 C   0  0  2  0  0  0  0  0  0  0  0  0
    6.5790  -23.7397   22.1974 C   0  0  0  0  0  0  0  0  0  0  0  0
    8.2988  -23.2335   23.9054 C   0  0  0  0  0  0  0  0  0  0  0  0
    7.9329  -23.7433   22.5811 N   0  0  0  0  0  0  0  0  0  0  0  0
    5.9803  -21.3317   22.6274 C   0  0  0  0  0  0  0  0  0  0  0  0
    4.8525  -20.4792   22.3717 N   0  0  0  0  0  0  0  0  0  0  0  0
    1.5125  -20.6597   24.9189 C   0  0  0  0  0  0  0  0  0  0  0  0
    1.5911  -21.5197   23.8321 C   0  0  0  0  0  0  0  0  0  0  0  0
    2.6982  -21.4647   22.9942 C   0  0  0  0  0  0  0  0  0  0  0  0
    3.7159  -20.5439   23.2358 C   0  0  0  0  0  0  0  0  0  0  0  0
    3.6281  -19.6812   24.3144 C   0  0  0  0  0  0  0  0  0  0  0  0
    2.5262  -19.7436   25.1590 C   0  0  0  0  0  0  0  0  0  0  0  0
  1  2  1  0  0  0  0
  2  3  2  0  0  0  0
  2 20  1  0  0  0  0
  4  6  1  0  0  0  0
  5  6  2  0  0  0  0
  5 16  1  0  0  0  0
  6  7  1  0  0  0  0
  7  8  1  0  0  0  0
  8  9  1  0  0  0  0
  8 10  2  0  0  0  0
  9 12  1  0  0  0  0
  9 16  2  0  0  0  0
 11 13  1  0  0  0  0
 11 12  1  0  0  0  0
 12 14  1  0  0  0  0
 14 15  1  0  0  0  0
 14 18  1  6  0  0  0
 15 17  1  0  0  0  0
 16 17  1  0  0  0  0
 18 19  1  0  0  0  0
 19 23  1  0  0  0  0
 20 21  2  0  0  0  0
 20 25  1  0  0  0  0
 21 22  1  0  0  0  0
 22 23  2  0  0  0  0
 23 24  1  0  0  0  0
 24 25  2  0  0  0  0
M  END
>  <CHROM.1>
85.32502198,-105.21068975,42.35602893,-87.28153749,3.70731689,5.28295643
-21.93651830,24.63449102,-3.06090671,0.25567709,-1.71501486

>  <Name>
ligand

>  <RI>
0

>  <Rbt.Current_Directory>
/home/itssahil/PROJECTS/Mol_Feturizer/New_Systems/rnas/4LVV

>  <Rbt.Executable>
rbdock ($Id: //depot/dev/client3/rdock/2013.1/src/exe/rbdock.cxx#4 $)

>  <Rbt.Library>
libRbt.so (2013.1, Build901 2013/11/27)

>  <Rbt.Parameter_File>
/export/apps/rDock/src/rDock_2013.1_src/data/scripts/dock_solv.prm

>  <Rbt.Receptor>
prm/pocket_docking_3.prm

>  <SCORE>
-14.2885

>  <SCORE.INTER>
-14.2656

>  <SCORE.INTER.CONST>
1

>  <SCORE.INTER.POLAR>
0

>  <SCORE.INTER.ROT>
5

>  <SCORE.INTER.SOLV>
14.9873

>  <SCORE.INTER.VDW>
-21.4395

>  <SCORE.INTER.norm>
-0.570625

>  <SCORE.INTRA>
-0.0228313

>  <SCORE.INTRA.DIHEDRAL>
4.2098

>  <SCORE.INTRA.DIHEDRAL.0>
3.94806

>  <SCORE.INTRA.POLAR>
0

>  <SCORE.INTRA.POLAR.0>
0

>  <SCORE.INTRA.REPUL>
0

>  <SCORE.INTRA.REPUL.0>
0

>  <SCORE.INTRA.SOLV>
0.0764473

>  <SCORE.INTRA.SOLV.lig_0>
-70.9803

>  <SCORE.INTRA.VDW>
-2.16595

>  <SCORE.INTRA.VDW.0>
-0.709409

>  <SCORE.INTRA.norm>
-0.000913252

>  <SCORE.RESTR>
0

>  <SCORE.RESTR.CAVITY>
0

>  <SCORE.RESTR.norm>
0

>  <SCORE.SYSTEM>
0

>  <SCORE.SYSTEM.CONST>
0

>  <SCORE.SYSTEM.DIHEDRAL>
0

>  <SCORE.SYSTEM.SOLV>
0

>  <SCORE.SYSTEM.norm>
0

>  <SCORE.heavy>
25

>  <SCORE.norm>
-0.571539

>  <RMSD>
7.496

$$$$
ligand
 OpenBabel11021811503D
libRbt.so/2013.1/901 2013/11/27
 25 27  0  0  0  0  0  0  0  0999 V2000
   -0.0440  -21.6086   27.1037 N   0  0  0  0  0  0  0  0  0  0  0  0
   -0.1652  -21.1944   25.7402 C   0  0  0  0  0  0  0  0  0  0  0  0
   -1.2668  -21.0155   25.2357 O   0  0  0  0  0  0  0  0  0  0  0  0
   11.1279  -22.3324   26.1464 N   0  0  0  0  0  0  0  0  0  0  0  0
    9.4448  -22.8471   24.5131 N   0  0  0  0  0  0  0  0  0  0  0  0
    9.7569  -22.4488   25.7680 C   0  0  0  0  0  0  0  0  0  0  0  0
    8.7814  -22.1659   26.6827 N   0  0  0  0  0  0  0  0  0  0  0  0
    7.4614  -22.2646   26.3819 C   0  0  0  0  0  0  0  0  0  0  0  0
    7.0936  -22.6644   25.0748 C   0  0  0  0  0  0  0  0  0  0  0  0
    6.5261  -21.9548   27.3412 O   0  0  0  0  0  0  0  0  0  0  0  0
    4.6765  -23.3862   25.4425 C   0  0  0  0  0  0  0  0  0  0  0  0
    5.7249  -22.8376   24.6162 N   0  0  0  0  0  0  0  0  0  0  0  0
    4.1570  -22.7683   26.3657 O   0  0  0  0  0  0  0  0  0  0  0  0
    5.5096  -22.5331   23.2662 C   0  0  2  0  0  0  0  0  0  0  0  0
    6.4409  -23.4030   22.3833 C   0  0  0  0  0  0  0  0  0  0  0  0
    8.1319  -22.9733   24.1404 C   0  0  0  0  0  0  0  0  0  0  0  0
    7.7920  -23.3879   22.7765 N   0  0  0  0  0  0  0  0  0  0  0  0
    5.7511  -21.0609   23.0001 C   0  0  0  0  0  0  0  0  0  0  0  0
    4.5955  -20.2396   22.7670 N   0  0  0  0  0  0  0  0  0  0  0  0
    1.0752  -20.9671   24.9474 C   0  0  0  0  0  0  0  0  0  0  0  0
    1.3057  -21.6630   23.7687 C   0  0  0  0  0  0  0  0  0  0  0  0
    2.4725  -21.4275   23.0516 C   0  0  0  0  0  0  0  0  0  0  0  0
    3.3980  -20.4900   23.5059 C   0  0  0  0  0  0  0  0  0  0  0  0
    3.1588  -19.7908   24.6760 C   0  0  0  0  0  0  0  0  0  0  0  0
    1.9973  -20.0342   25.3992 C   0  0  0  0  0  0  0  0  0  0  0  0
  1  2  1  0  0  0  0
  2  3  2  0  0  0  0
  2 20  1  0  0  0  0
  4  6  1  0  0  0  0
  5  6  2  0  0  0  0
  5 16  1  0  0  0  0
  6  7  1  0  0  0  0
  7  8  1  0  0  0  0
  8  9  1  0  0  0  0
  8 10  2  0  0  0  0
  9 12  1  0  0  0  0
  9 16  2  0  0  0  0
 11 13  1  0  0  0  0
 11 12  1  0  0  0  0
 12 14  1  0  0  0  0
 14 15  1  0  0  0  0
 14 18  1  1  0  0  0
 15 17  1  0  0  0  0
 16 17  1  0  0  0  0
 18 19  1  0  0  0  0
 19 23  1  0  0  0  0
 20 21  2  0  0  0  0
 20 25  1  0  0  0  0
 21 22  1  0  0  0  0
 22 23  2  0  0  0  0
 23 24  1  0  0  0  0
 24 25  2  0  0  0  0
M  END
>  <CHROM.1>
73.48701902,-106.91920565,37.24902073,-86.54891146,122.40994111,5.01691449
-21.92660116,24.83754013,3.13318884,0.19171277,-1.54030035

>  <Name>
ligand

>  <RI>
0

>  <Rbt.Current_Directory>
/home/itssahil/PROJECTS/Mol_Feturizer/New_Systems/rnas/4LVV

>  <Rbt.Executable>
rbdock ($Id: //depot/dev/client3/rdock/2013.1/src/exe/rbdock.cxx#4 $)

>  <Rbt.Library>
libRbt.so (2013.1, Build901 2013/11/27)

>  <Rbt.Parameter_File>
/export/apps/rDock/src/rDock_2013.1_src/data/scripts/dock_solv.prm

>  <Rbt.Receptor>
prm/pocket_docking_3.prm

>  <SCORE>
-15.2469

>  <SCORE.INTER>
-15.2245

>  <SCORE.INTER.CONST>
1

>  <SCORE.INTER.POLAR>
0

>  <SCORE.INTER.ROT>
5

>  <SCORE.INTER.SOLV>
15.3

>  <SCORE.INTER.VDW>
-22.183

>  <SCORE.INTER.norm>
-0.608978

>  <SCORE.INTRA>
-0.0261435

>  <SCORE.INTRA.DIHEDRAL>
4.44429

>  <SCORE.INTRA.DIHEDRAL.0>
3.94806

>  <SCORE.INTRA.POLAR>
0

>  <SCORE.INTRA.POLAR.0>
0

>  <SCORE.INTRA.REPUL>
0

>  <SCORE.INTRA.REPUL.0>
0

>  <SCORE.INTRA.SOLV>
-0.141357

>  <SCORE.INTRA.SOLV.lig_0>
-70.9803

>  <SCORE.INTRA.VDW>
-2.17761

>  <SCORE.INTRA.VDW.0>
-0.709409

>  <SCORE.INTRA.norm>
-0.00104574

>  <SCORE.RESTR>
0.00368907

>  <SCORE.RESTR.CAVITY>
0.00368907

>  <SCORE.RESTR.norm>
0.000147563

>  <SCORE.SYSTEM>
0

>  <SCORE.SYSTEM.CONST>
0

>  <SCORE.SYSTEM.DIHEDRAL>
0

>  <SCORE.SYSTEM.SOLV>
0

>  <SCORE.SYSTEM.norm>
0

>  <SCORE.heavy>
25

>  <SCORE.norm>
-0.609877

>  <RMSD>
7.501

$$$$
ligand
 OpenBabel11021811503D
libRbt.so/2013.1/901 2013/11/27
 25 27  0  0  0  0  0  0  0  0999 V2000
   -0.8050  -21.7035   25.7294 N   0  0  0  0  0  0  0  0  0  0  0  0
    0.1832  -20.6846   25.9049 C   0  0  0  0  0  0  0  0  0  0  0  0
    0.0799  -19.8605   26.8051 O   0  0  0  0  0  0  0  0  0  0  0  0
   11.2282  -22.3588   25.9099 N   0  0  0  0  0  0  0  0  0  0  0  0
    9.5260  -22.9872   24.3374 N   0  0  0  0  0  0  0  0  0  0  0  0
    9.8530  -22.4916   25.5532 C   0  0  0  0  0  0  0  0  0  0  0  0
    8.8883  -22.1254   26.4497 N   0  0  0  0  0  0  0  0  0  0  0  0
    7.5648  -22.2348   26.1685 C   0  0  0  0  0  0  0  0  0  0  0  0
    7.1817  -22.7356   24.9012 C   0  0  0  0  0  0  0  0  0  0  0  0
    6.6410  -21.8387   27.1069 O   0  0  0  0  0  0  0  0  0  0  0  0
    4.7612  -23.4005   25.3457 C   0  0  0  0  0  0  0  0  0  0  0  0
    5.8074  -22.9316   24.4692 N   0  0  0  0  0  0  0  0  0  0  0  0
    4.1990  -22.6812   26.1644 O   0  0  0  0  0  0  0  0  0  0  0  0
    5.5832  -22.7354   23.1007 C   0  0  2  0  0  0  0  0  0  0  0  0
    6.4983  -23.6836   22.2840 C   0  0  0  0  0  0  0  0  0  0  0  0
    8.2088  -23.1299   23.9867 C   0  0  0  0  0  0  0  0  0  0  0  0
    7.8529  -23.6504   22.6638 N   0  0  0  0  0  0  0  0  0  0  0  0
    5.8362  -21.2923   22.7139 C   0  0  0  0  0  0  0  0  0  0  0  0
    4.6864  -20.4800   22.4271 N   0  0  0  0  0  0  0  0  0  0  0  0
    1.3521  -20.6536   24.9823 C   0  0  0  0  0  0  0  0  0  0  0  0
    1.3786  -21.4392   23.8381 C   0  0  0  0  0  0  0  0  0  0  0  0
    2.4837  -21.3869   22.9972 C   0  0  0  0  0  0  0  0  0  0  0  0
    3.5515  -20.5422   23.2937 C   0  0  0  0  0  0  0  0  0  0  0  0
    3.5159  -19.7528   24.4299 C   0  0  0  0  0  0  0  0  0  0  0  0
    2.4158  -19.8132   25.2769 C   0  0  0  0  0  0  0  0  0  0  0  0
  1  2  1  0  0  0  0
  2  3  2  0  0  0  0
  2 20  1  0  0  0  0
  4  6  1  0  0  0  0
  5  6  2  0  0  0  0
  5 16  1  0  0  0  0
  6  7  1  0  0  0  0
  7  8  1  0  0  0  0
  8  9  1  0  0  0  0
  8 10  2  0  0  0  0
  9 12  1  0  0  0  0
  9 16  2  0  0  0  0
 11 13  1  0  0  0  0
 11 12  1  0  0  0  0
 12 14  1  0  0  0  0
 14 15  1  0  0  0  0
 14 18  1  6  0  0  0
 15 17  1  0  0  0  0
 16 17  1  0  0  0  0
 18 19  1  0  0  0  0
 19 23  1  0  0  0  0
 20 21  2  0  0  0  0
 20 25  1  0  0  0  0
 21 22  1  0  0  0  0
 22 23  2  0  0  0  0
 23 24  1  0  0  0  0
 24 25  2  0  0  0  0
M  END
>  <CHROM.1>
78.10068206,-106.78134031,44.65928389,-94.98318498,11.01748747,5.16371137
-21.88783624,24.71470874,-3.06632570,0.24054087,-1.71572962

>  <Name>
ligand

>  <RI>
0

>  <Rbt.Current_Directory>
/home/itssahil/PROJECTS/Mol_Feturizer/New_Systems/rnas/4LVV

>  <Rbt.Executable>
rbdock ($Id: //depot/dev/client3/rdock/2013.1/src/exe/rbdock.cxx#4 $)

>  <Rbt.Library>
libRbt.so (2013.1, Build901 2013/11/27)

>  <Rbt.Parameter_File>
/export/apps/rDock/src/rDock_2013.1_src/data/scripts/dock_solv.prm

>  <Rbt.Receptor>
prm/pocket_docking_3.prm

>  <SCORE>
-14.3939

>  <SCORE.INTER>
-14.3877

>  <SCORE.INTER.CONST>
1

>  <SCORE.INTER.POLAR>
0

>  <SCORE.INTER.ROT>
5

>  <SCORE.INTER.SOLV>
15.352

>  <SCORE.INTER.VDW>
-21.6425

>  <SCORE.INTER.norm>
-0.575508

>  <SCORE.INTRA>
-0.0061538

>  <SCORE.INTRA.DIHEDRAL>
4.25679

>  <SCORE.INTRA.DIHEDRAL.0>
3.94806

>  <SCORE.INTRA.POLAR>
0

>  <SCORE.INTRA.POLAR.0>
0

>  <SCORE.INTRA.REPUL>
0

>  <SCORE.INTRA.REPUL.0>
0

>  <SCORE.INTRA.SOLV>
-0.0881373

>  <SCORE.INTRA.SOLV.lig_0>
-70.9803

>  <SCORE.INTRA.VDW>
-2.09048

>  <SCORE.INTRA.VDW.0>
-0.709409

>  <SCORE.INTRA.norm>
-0.000246152

>  <SCORE.RESTR>
0

>  <SCORE.RESTR.CAVITY>
0

>  <SCORE.RESTR.norm>
0

>  <SCORE.SYSTEM>
0

>  <SCORE.SYSTEM.CONST>
0

>  <SCORE.SYSTEM.DIHEDRAL>
0

>  <SCORE.SYSTEM.SOLV>
0

>  <SCORE.SYSTEM.norm>
0

>  <SCORE.heavy>
25

>  <SCORE.norm>
-0.575754

>  <RMSD>
7.502

$$$$
ligand
 OpenBabel11021811503D
libRbt.so/2013.1/901 2013/11/27
 25 27  0  0  0  0  0  0  0  0999 V2000
   -0.0585  -19.9449   26.6607 N   0  0  0  0  0  0  0  0  0  0  0  0
    0.1814  -20.9419   25.6637 C   0  0  0  0  0  0  0  0  0  0  0  0
   -0.6039  -21.8678   25.5024 O   0  0  0  0  0  0  0  0  0  0  0  0
   11.3492  -22.6006   25.8273 N   0  0  0  0  0  0  0  0  0  0  0  0
    9.6191  -23.1279   24.2481 N   0  0  0  0  0  0  0  0  0  0  0  0
    9.9685  -22.6780   25.4754 C   0  0  0  0  0  0  0  0  0  0  0  0
    9.0210  -22.3060   26.3877 N   0  0  0  0  0  0  0  0  0  0  0  0
    7.6933  -22.3638   26.1115 C   0  0  0  0  0  0  0  0  0  0  0  0
    7.2873  -22.8156   24.8330 C   0  0  0  0  0  0  0  0  0  0  0  0
    6.7878  -21.9644   27.0663 O   0  0  0  0  0  0  0  0  0  0  0  0
    4.8485  -23.4131   25.2732 C   0  0  0  0  0  0  0  0  0  0  0  0
    5.9052  -22.9540   24.4039 N   0  0  0  0  0  0  0  0  0  0  0  0
    4.2213  -22.6680   26.0184 O   0  0  0  0  0  0  0  0  0  0  0  0
    5.6805  -22.7119   23.0428 C   0  0  2  0  0  0  0  0  0  0  0  0
    6.5597  -23.6660   22.1942 C   0  0  0  0  0  0  0  0  0  0  0  0
    8.2962  -23.2173   23.9015 C   0  0  0  0  0  0  0  0  0  0  0  0
    7.9166  -23.6881   22.5666 N   0  0  0  0  0  0  0  0  0  0  0  0
    5.9790  -21.2674   22.6954 C   0  0  0  0  0  0  0  0  0  0  0  0
    4.8546  -20.4058   22.4558 N   0  0  0  0  0  0  0  0  0  0  0  0
    1.3973  -20.8248   24.8113 C   0  0  0  0  0  0  0  0  0  0  0  0
    1.5508  -21.6090   23.6763 C   0  0  0  0  0  0  0  0  0  0  0  0
    2.6966  -21.4753   22.9016 C   0  0  0  0  0  0  0  0  0  0  0  0
    3.6783  -20.5515   23.2545 C   0  0  0  0  0  0  0  0  0  0  0  0
    3.5160  -19.7642   24.3811 C   0  0  0  0  0  0  0  0  0  0  0  0
    2.3753  -19.9055   25.1623 C   0  0  0  0  0  0  0  0  0  0  0  0
  1  2  1  0  0  0  0
  2  3  2  0  0  0  0
  2 20  1  0  0  0  0
  4  6  1  0  0  0  0
  5  6  2  0  0  0  0
  5 16  1  0  0  0  0
  6  7  1  0  0  0  0
  7  8  1  0  0  0  0
  8  9  1  0  0  0  0
  8 10  2  0  0  0  0
  9 12  1  0  0  0  0
  9 16  2  0  0  0  0
 11 13  1  0  0  0  0
 11 12  1  0  0  0  0
 12 14  1  0  0  0  0
 14 15  1  0  0  0  0
 14 18  1  6  0  0  0
 15 17  1  0  0  0  0
 16 17  1  0  0  0  0
 18 19  1  0  0  0  0
 19 23  1  0  0  0  0
 20 21  2  0  0  0  0
 20 25  1  0  0  0  0
 21 22  1  0  0  0  0
 22 23  2  0  0  0  0
 23 24  1  0  0  0  0
 24 25  2  0  0  0  0
M  END
>  <CHROM.1>
85.81142563,-105.97972158,38.10315164,-86.04888001,-167.81908638,5.24918452
-21.98282383,24.61519210,-3.09464102,0.23839299,-1.66685193

>  <Name>
ligand

>  <RI>
0

>  <Rbt.Current_Directory>
/home/itssahil/PROJECTS/Mol_Feturizer/New_Systems/rnas/4LVV

>  <Rbt.Executable>
rbdock ($Id: //depot/dev/client3/rdock/2013.1/src/exe/rbdock.cxx#4 $)

>  <Rbt.Library>
libRbt.so (2013.1, Build901 2013/11/27)

>  <Rbt.Parameter_File>
/export/apps/rDock/src/rDock_2013.1_src/data/scripts/dock_solv.prm

>  <Rbt.Receptor>
prm/pocket_docking_5.prm

>  <SCORE>
-14.4265

>  <SCORE.INTER>
-14.528

>  <SCORE.INTER.CONST>
1

>  <SCORE.INTER.POLAR>
0

>  <SCORE.INTER.ROT>
5

>  <SCORE.INTER.SOLV>
15.0159

>  <SCORE.INTER.VDW>
-21.6239

>  <SCORE.INTER.norm>
-0.581119

>  <SCORE.INTRA>
0.101522

>  <SCORE.INTRA.DIHEDRAL>
4.41802

>  <SCORE.INTRA.DIHEDRAL.0>
3.94806

>  <SCORE.INTRA.POLAR>
0

>  <SCORE.INTRA.POLAR.0>
0

>  <SCORE.INTRA.REPUL>
0

>  <SCORE.INTRA.REPUL.0>
0

>  <SCORE.INTRA.SOLV>
0.0160093

>  <SCORE.INTRA.SOLV.lig_0>
-70.9803

>  <SCORE.INTRA.VDW>
-2.11549

>  <SCORE.INTRA.VDW.0>
-0.709409

>  <SCORE.INTRA.norm>
0.00406088

>  <SCORE.RESTR>
0

>  <SCORE.RESTR.CAVITY>
0

>  <SCORE.RESTR.norm>
0

>  <SCORE.SYSTEM>
0

>  <SCORE.SYSTEM.CONST>
0

>  <SCORE.SYSTEM.DIHEDRAL>
0

>  <SCORE.SYSTEM.SOLV>
0

>  <SCORE.SYSTEM.norm>
0

>  <SCORE.heavy>
25

>  <SCORE.norm>
-0.577058

>  <RMSD>
7.503

$$$$
ligand
 OpenBabel11021811503D
libRbt.so/2013.1/901 2013/11/27
 25 27  0  0  0  0  0  0  0  0999 V2000
    0.0052  -21.6035   27.0859 N   0  0  0  0  0  0  0  0  0  0  0  0
   -0.0990  -21.2073   25.7157 C   0  0  0  0  0  0  0  0  0  0  0  0
   -1.1914  -21.1309   25.1673 O   0  0  0  0  0  0  0  0  0  0  0  0
   11.3014  -21.5181   24.5341 N   0  0  0  0  0  0  0  0  0  0  0  0
    9.3923  -22.3161   23.3160 N   0  0  0  0  0  0  0  0  0  0  0  0
    9.8936  -21.7233   24.4242 C   0  0  0  0  0  0  0  0  0  0  0  0
    9.0754  -21.3268   25.4448 N   0  0  0  0  0  0  0  0  0  0  0  0
    7.7300  -21.5014   25.3989 C   0  0  0  0  0  0  0  0  0  0  0  0
    7.1651  -22.1051   24.2500 C   0  0  0  0  0  0  0  0  0  0  0  0
    6.9577  -21.0706   26.4519 O   0  0  0  0  0  0  0  0  0  0  0  0
    4.8851  -22.8188   25.1392 C   0  0  0  0  0  0  0  0  0  0  0  0
    5.7487  -22.3786   24.0699 N   0  0  0  0  0  0  0  0  0  0  0  0
    4.7356  -23.9985   25.4386 O   0  0  0  0  0  0  0  0  0  0  0  0
    5.2914  -22.2894   22.7491 C   0  0  2  0  0  0  0  0  0  0  0  0
    6.1008  -23.2620   21.8532 C   0  0  0  0  0  0  0  0  0  0  0  0
    8.0430  -22.5288   23.2028 C   0  0  0  0  0  0  0  0  0  0  0  0
    7.4967  -23.1551   21.9959 N   0  0  0  0  0  0  0  0  0  0  0  0
    5.4103  -20.8700   22.2318 C   0  0  0  0  0  0  0  0  0  0  0  0
    4.6833  -19.8524   22.9390 N   0  0  0  0  0  0  0  0  0  0  0  0
    1.1461  -20.8716   24.9701 C   0  0  0  0  0  0  0  0  0  0  0  0
    1.3453  -21.3255   23.6735 C   0  0  0  0  0  0  0  0  0  0  0  0
    2.5175  -20.9943   23.0048 C   0  0  0  0  0  0  0  0  0  0  0  0
    3.4800  -20.2014   23.6265 C   0  0  0  0  0  0  0  0  0  0  0  0
    3.2722  -19.7423   24.9155 C   0  0  0  0  0  0  0  0  0  0  0  0
    2.1050  -20.0826   25.5887 C   0  0  0  0  0  0  0  0  0  0  0  0
  1  2  1  0  0  0  0
  2  3  2  0  0  0  0
  2 20  1  0  0  0  0
  4  6  1  0  0  0  0
  5  6  2  0  0  0  0
  5 16  1  0  0  0  0
  6  7  1  0  0  0  0
  7  8  1  0  0  0  0
  8  9  1  0  0  0  0
  8 10  2  0  0  0  0
  9 12  1  0  0  0  0
  9 16  2  0  0  0  0
 11 13  1  0  0  0  0
 11 12  1  0  0  0  0
 12 14  1  0  0  0  0
 14 15  1  0  0  0  0
 14 18  1  6  0  0  0
 15 17  1  0  0  0  0
 16 17  1  0  0  0  0
 18 19  1  0  0  0  0
 19 23  1  0  0  0  0
 20 21  2  0  0  0  0
 20 25  1  0  0  0  0
 21 22  1  0  0  0  0
 22 23  2  0  0  0  0
 23 24  1  0  0  0  0
 24 25  2  0  0  0  0
M  END
>  <CHROM.1>
-87.49143263,-59.97796863,-28.46059104,-46.15373102,136.62722338,5.08531316
-21.63301850,24.30728960,-2.98653776,0.09578706,-1.72849078

>  <Name>
ligand

>  <RI>
0

>  <Rbt.Current_Directory>
/home/itssahil/PROJECTS/Mol_Feturizer/New_Systems/rnas/4LVV

>  <Rbt.Executable>
rbdock ($Id: //depot/dev/client3/rdock/2013.1/src/exe/rbdock.cxx#4 $)

>  <Rbt.Library>
libRbt.so (2013.1, Build901 2013/11/27)

>  <Rbt.Parameter_File>
/export/apps/rDock/src/rDock_2013.1_src/data/scripts/dock_solv.prm

>  <Rbt.Receptor>
prm/pocket_docking_4.prm

>  <SCORE>
-13.3026

>  <SCORE.INTER>
-11.6262

>  <SCORE.INTER.CONST>
1

>  <SCORE.INTER.POLAR>
0

>  <SCORE.INTER.ROT>
5

>  <SCORE.INTER.SOLV>
14.2305

>  <SCORE.INTER.VDW>
-19.4277

>  <SCORE.INTER.norm>
-0.465049

>  <SCORE.INTRA>
-1.6764

>  <SCORE.INTRA.DIHEDRAL>
-0.228421

>  <SCORE.INTRA.DIHEDRAL.0>
3.94806

>  <SCORE.INTRA.POLAR>
0

>  <SCORE.INTRA.POLAR.0>
0

>  <SCORE.INTRA.REPUL>
0

>  <SCORE.INTRA.REPUL.0>
0

>  <SCORE.INTRA.SOLV>
0.156678

>  <SCORE.INTRA.SOLV.lig_0>
-70.9803

>  <SCORE.INTRA.VDW>
-1.64053

>  <SCORE.INTRA.VDW.0>
-0.709409

>  <SCORE.INTRA.norm>
-0.0670559

>  <SCORE.RESTR>
0

>  <SCORE.RESTR.CAVITY>
0

>  <SCORE.RESTR.norm>
0

>  <SCORE.SYSTEM>
0

>  <SCORE.SYSTEM.CONST>
0

>  <SCORE.SYSTEM.DIHEDRAL>
0

>  <SCORE.SYSTEM.SOLV>
0

>  <SCORE.SYSTEM.norm>
0

>  <SCORE.heavy>
25

>  <SCORE.norm>
-0.532105

>  <RMSD>
7.508

$$$$
ligand
 OpenBabel11021811503D
libRbt.so/2013.1/901 2013/11/27
 25 27  0  0  0  0  0  0  0  0999 V2000
   -0.7786  -21.7378   25.7380 N   0  0  0  0  0  0  0  0  0  0  0  0
    0.1614  -20.6742   25.9131 C   0  0  0  0  0  0  0  0  0  0  0  0
   -0.0009  -19.8328   26.7882 O   0  0  0  0  0  0  0  0  0  0  0  0
   11.2581  -22.2313   25.9828 N   0  0  0  0  0  0  0  0  0  0  0  0
    9.5653  -22.9159   24.4237 N   0  0  0  0  0  0  0  0  0  0  0  0
    9.8850  -22.3951   25.6309 C   0  0  0  0  0  0  0  0  0  0  0  0
    8.9151  -22.0326   26.5233 N   0  0  0  0  0  0  0  0  0  0  0  0
    7.5935  -22.1708   26.2463 C   0  0  0  0  0  0  0  0  0  0  0  0
    7.2176  -22.6986   24.9879 C   0  0  0  0  0  0  0  0  0  0  0  0
    6.6640  -21.7769   27.1801 O   0  0  0  0  0  0  0  0  0  0  0  0
    4.8105  -23.4008   25.4475 C   0  0  0  0  0  0  0  0  0  0  0  0
    5.8465  -22.9267   24.5617 N   0  0  0  0  0  0  0  0  0  0  0  0
    4.2410  -22.6806   26.2603 O   0  0  0  0  0  0  0  0  0  0  0  0
    5.6165  -22.7565   23.1906 C   0  0  2  0  0  0  0  0  0  0  0  0
    6.5477  -23.7005   22.3873 C   0  0  0  0  0  0  0  0  0  0  0  0
    8.2503  -23.0884   24.0778 C   0  0  0  0  0  0  0  0  0  0  0  0
    7.9020  -23.6363   22.7639 N   0  0  0  0  0  0  0  0  0  0  0  0
    5.8422  -21.3152   22.7805 C   0  0  0  0  0  0  0  0  0  0  0  0
    4.6794  -20.5384   22.4511 N   0  0  0  0  0  0  0  0  0  0  0  0
    1.3534  -20.6174   25.0216 C   0  0  0  0  0  0  0  0  0  0  0  0
    2.4636  -19.8572   25.3629 C   0  0  0  0  0  0  0  0  0  0  0  0
    3.5601  -19.8258   24.5099 C   0  0  0  0  0  0  0  0  0  0  0  0
    3.5503  -20.5623   23.3270 C   0  0  0  0  0  0  0  0  0  0  0  0
    2.4454  -21.3272   22.9962 C   0  0  0  0  0  0  0  0  0  0  0  0
    1.3442  -21.3501   23.8436 C   0  0  0  0  0  0  0  0  0  0  0  0
  1  2  1  0  0  0  0
  2  3  2  0  0  0  0
  2 20  1  0  0  0  0
  4  6  1  0  0  0  0
  5  6  2  0  0  0  0
  5 16  1  0  0  0  0
  6  7  1  0  0  0  0
  7  8  1  0  0  0  0
  8  9  1  0  0  0  0
  8 10  2  0  0  0  0
  9 12  1  0  0  0  0
  9 16  2  0  0  0  0
 11 13  1  0  0  0  0
 11 12  1  0  0  0  0
 12 14  1  0  0  0  0
 14 15  1  0  0  0  0
 14 18  1  6  0  0  0
 15 17  1  0  0  0  0
 16 17  1  0  0  0  0
 18 19  1  0  0  0  0
 19 23  1  0  0  0  0
 20 21  2  0  0  0  0
 20 25  1  0  0  0  0
 21 22  1  0  0  0  0
 22 23  2  0  0  0  0
 23 24  1  0  0  0  0
 24 25  2  0  0  0  0
M  END
>  <CHROM.1>
77.73306623,-108.27812273,47.66248560,77.53241980,-162.13488003,5.18211305
-21.86614517,24.77727277,-3.07291485,0.23223926,-1.73198137

>  <Name>
ligand

>  <RI>
0

>  <Rbt.Current_Directory>
/home/itssahil/PROJECTS/Mol_Feturizer/New_Systems/rnas/4LVV

>  <Rbt.Executable>
rbdock ($Id: //depot/dev/client3/rdock/2013.1/src/exe/rbdock.cxx#4 $)

>  <Rbt.Library>
libRbt.so (2013.1, Build901 2013/11/27)

>  <Rbt.Parameter_File>
/export/apps/rDock/src/rDock_2013.1_src/data/scripts/dock_solv.prm

>  <Rbt.Receptor>
prm/pocket_docking_4.prm

>  <SCORE>
-14.3176

>  <SCORE.INTER>
-14.3502

>  <SCORE.INTER.CONST>
1

>  <SCORE.INTER.POLAR>
0

>  <SCORE.INTER.ROT>
5

>  <SCORE.INTER.SOLV>
15.4188

>  <SCORE.INTER.VDW>
-21.6397

>  <SCORE.INTER.norm>
-0.574008

>  <SCORE.INTRA>
0.032569

>  <SCORE.INTRA.DIHEDRAL>
4.34851

>  <SCORE.INTRA.DIHEDRAL.0>
3.94806

>  <SCORE.INTRA.POLAR>
0

>  <SCORE.INTRA.POLAR.0>
0

>  <SCORE.INTRA.REPUL>
0

>  <SCORE.INTRA.REPUL.0>
0

>  <SCORE.INTRA.SOLV>
-0.117357

>  <SCORE.INTRA.SOLV.lig_0>
-70.9803

>  <SCORE.INTRA.VDW>
-2.08301

>  <SCORE.INTRA.VDW.0>
-0.709409

>  <SCORE.INTRA.norm>
0.00130276

>  <SCORE.RESTR>
0

>  <SCORE.RESTR.CAVITY>
0

>  <SCORE.RESTR.norm>
0

>  <SCORE.SYSTEM>
0

>  <SCORE.SYSTEM.CONST>
0

>  <SCORE.SYSTEM.DIHEDRAL>
0

>  <SCORE.SYSTEM.SOLV>
0

>  <SCORE.SYSTEM.norm>
0

>  <SCORE.heavy>
25

>  <SCORE.norm>
-0.572705

>  <RMSD>
7.510

$$$$
ligand
 OpenBabel11021811503D
libRbt.so/2013.1/901 2013/11/27
 25 27  0  0  0  0  0  0  0  0999 V2000
   -0.8410  -21.7779   27.3026 N   0  0  0  0  0  0  0  0  0  0  0  0
   -0.7276  -21.1977   26.0004 C   0  0  0  0  0  0  0  0  0  0  0  0
   -1.7273  -20.9152   25.3515 O   0  0  0  0  0  0  0  0  0  0  0  0
   10.8090  -20.8489   26.5607 N   0  0  0  0  0  0  0  0  0  0  0  0
    9.1709  -22.0051   25.2396 N   0  0  0  0  0  0  0  0  0  0  0  0
    9.4546  -21.2155   26.3012 C   0  0  0  0  0  0  0  0  0  0  0  0
    8.4670  -20.7714   27.1353 N   0  0  0  0  0  0  0  0  0  0  0  0
    7.1624  -21.0925   26.9419 C   0  0  0  0  0  0  0  0  0  0  0  0
    6.8227  -21.9050   25.8338 C   0  0  0  0  0  0  0  0  0  0  0  0
    6.2123  -20.6053   27.8086 O   0  0  0  0  0  0  0  0  0  0  0  0
    4.5086  -22.7274   26.5169 C   0  0  0  0  0  0  0  0  0  0  0  0
    5.4758  -22.3495   25.5147 N   0  0  0  0  0  0  0  0  0  0  0  0
    4.7862  -22.8499   27.7051 O   0  0  0  0  0  0  0  0  0  0  0  0
    5.2074  -22.4919   24.1475 C   0  0  2  0  0  0  0  0  0  0  0  0
    6.2180  -23.4872   23.5215 C   0  0  0  0  0  0  0  0  0  0  0  0
    7.8754  -22.3732   24.9856 C   0  0  0  0  0  0  0  0  0  0  0  0
    7.5644  -23.2141   23.8264 N   0  0  0  0  0  0  0  0  0  0  0  0
    5.2768  -21.1528   23.4417 C   0  0  0  0  0  0  0  0  0  0  0  0
    4.4782  -20.0867   23.9802 N   0  0  0  0  0  0  0  0  0  0  0  0
    0.6307  -20.9263   25.4526 C   0  0  0  0  0  0  0  0  0  0  0  0
    1.0150  -21.4292   24.2172 C   0  0  0  0  0  0  0  0  0  0  0  0
    2.2891  -21.1574   23.7337 C   0  0  0  0  0  0  0  0  0  0  0  0
    3.1697  -20.3748   24.4778 C   0  0  0  0  0  0  0  0  0  0  0  0
    2.7783  -19.8666   25.7041 C   0  0  0  0  0  0  0  0  0  0  0  0
    1.5081  -20.1475   26.1930 C   0  0  0  0  0  0  0  0  0  0  0  0
  1  2  1  0  0  0  0
  2  3  2  0  0  0  0
  2 20  1  0  0  0  0
  4  6  1  0  0  0  0
  5  6  2  0  0  0  0
  5 16  1  0  0  0  0
  6  7  1  0  0  0  0
  7  8  1  0  0  0  0
  8  9  1  0  0  0  0
  8 10  2  0  0  0  0
  9 12  1  0  0  0  0
  9 16  2  0  0  0  0
 11 13  1  0  0  0  0
 11 12  1  0  0  0  0
 12 14  1  0  0  0  0
 14 15  1  0  0  0  0
 14 18  1  6  0  0  0
 15 17  1  0  0  0  0
 16 17  1  0  0  0  0
 18 19  1  0  0  0  0
 19 23  1  0  0  0  0
 20 21  2  0  0  0  0
 20 25  1  0  0  0  0
 21 22  1  0  0  0  0
 22 23  2  0  0  0  0
 23 24  1  0  0  0  0
 24 25  2  0  0  0  0
M  END
>  <CHROM.1>
-8.50480485,-53.29976844,-38.72992507,-46.94825717,125.63199495,4.73151411
-21.50296679,25.55041538,3.12973912,0.08102664,-1.80997755

>  <Name>
ligand

>  <RI>
0

>  <Rbt.Current_Directory>
/home/itssahil/PROJECTS/Mol_Feturizer/New_Systems/rnas/4LVV

>  <Rbt.Executable>
rbdock ($Id: //depot/dev/client3/rdock/2013.1/src/exe/rbdock.cxx#4 $)

>  <Rbt.Library>
libRbt.so (2013.1, Build901 2013/11/27)

>  <Rbt.Parameter_File>
/export/apps/rDock/src/rDock_2013.1_src/data/scripts/dock_solv.prm

>  <Rbt.Receptor>
prm/pocket_docking_4.prm

>  <SCORE>
-14.9804

>  <SCORE.INTER>
-13.6457

>  <SCORE.INTER.CONST>
1

>  <SCORE.INTER.POLAR>
0

>  <SCORE.INTER.ROT>
5

>  <SCORE.INTER.SOLV>
15.9939

>  <SCORE.INTER.VDW>
-21.3618

>  <SCORE.INTER.norm>
-0.545829

>  <SCORE.INTRA>
-1.44564

>  <SCORE.INTRA.DIHEDRAL>
-0.107881

>  <SCORE.INTRA.DIHEDRAL.0>
3.94806

>  <SCORE.INTRA.POLAR>
0

>  <SCORE.INTRA.POLAR.0>
0

>  <SCORE.INTRA.REPUL>
0

>  <SCORE.INTRA.REPUL.0>
0

>  <SCORE.INTRA.SOLV>
0.542686

>  <SCORE.INTRA.SOLV.lig_0>
-70.9803

>  <SCORE.INTRA.VDW>
-1.66304

>  <SCORE.INTRA.VDW.0>
-0.709409

>  <SCORE.INTRA.norm>
-0.0578256

>  <SCORE.RESTR>
0.110936

>  <SCORE.RESTR.CAVITY>
0.110936

>  <SCORE.RESTR.norm>
0.00443746

>  <SCORE.SYSTEM>
0

>  <SCORE.SYSTEM.CONST>
0

>  <SCORE.SYSTEM.DIHEDRAL>
0

>  <SCORE.SYSTEM.SOLV>
0

>  <SCORE.SYSTEM.norm>
0

>  <SCORE.heavy>
25

>  <SCORE.norm>
-0.599217

>  <RMSD>
7.510

$$$$
ligand
 OpenBabel11021811503D
libRbt.so/2013.1/901 2013/11/27
 25 27  0  0  0  0  0  0  0  0999 V2000
   -0.5860  -21.7418   25.5578 N   0  0  0  0  0  0  0  0  0  0  0  0
    0.4087  -20.7371   25.7734 C   0  0  0  0  0  0  0  0  0  0  0  0
    0.3033  -19.9396   26.6970 O   0  0  0  0  0  0  0  0  0  0  0  0
   11.4763  -22.7118   25.6164 N   0  0  0  0  0  0  0  0  0  0  0  0
    9.6969  -23.2444   24.0948 N   0  0  0  0  0  0  0  0  0  0  0  0
   10.0860  -22.7686   25.3002 C   0  0  0  0  0  0  0  0  0  0  0  0
    9.1695  -22.3509   26.2243 N   0  0  0  0  0  0  0  0  0  0  0  0
    7.8344  -22.3872   25.9820 C   0  0  0  0  0  0  0  0  0  0  0  0
    7.3874  -22.8650   24.7268 C   0  0  0  0  0  0  0  0  0  0  0  0
    6.9615  -21.9419   26.9467 O   0  0  0  0  0  0  0  0  0  0  0  0
    4.9481  -23.3965   25.2423 C   0  0  0  0  0  0  0  0  0  0  0  0
    5.9925  -22.9849   24.3353 N   0  0  0  0  0  0  0  0  0  0  0  0
    3.8958  -22.7816   25.3776 O   0  0  0  0  0  0  0  0  0  0  0  0
    5.7394  -22.7754   22.9737 C   0  0  2  0  0  0  0  0  0  0  0  0
    6.5769  -23.7716   22.1312 C   0  0  0  0  0  0  0  0  0  0  0  0
    8.3642  -23.3142   23.7828 C   0  0  0  0  0  0  0  0  0  0  0  0
    7.9418  -23.8131   22.4712 N   0  0  0  0  0  0  0  0  0  0  0  0
    6.0598  -21.3480   22.5788 C   0  0  0  0  0  0  0  0  0  0  0  0
    4.9484  -20.4673   22.3478 N   0  0  0  0  0  0  0  0  0  0  0  0
    1.5869  -20.6883   24.8633 C   0  0  0  0  0  0  0  0  0  0  0  0
    1.6090  -21.4222   23.6853 C   0  0  0  0  0  0  0  0  0  0  0  0
    2.7229  -21.3544   22.8573 C   0  0  0  0  0  0  0  0  0  0  0  0
    3.8043  -20.5454   23.2008 C   0  0  0  0  0  0  0  0  0  0  0  0
    3.7732  -19.8071   24.3710 C   0  0  0  0  0  0  0  0  0  0  0  0
    2.6640  -19.8833   25.2048 C   0  0  0  0  0  0  0  0  0  0  0  0
  1  2  1  0  0  0  0
  2  3  2  0  0  0  0
  2 20  1  0  0  0  0
  4  6  1  0  0  0  0
  5  6  2  0  0  0  0
  5 16  1  0  0  0  0
  6  7  1  0  0  0  0
  7  8  1  0  0  0  0
  8  9  1  0  0  0  0
  8 10  2  0  0  0  0
  9 12  1  0  0  0  0
  9 16  2  0  0  0  0
 11 13  1  0  0  0  0
 11 12  1  0  0  0  0
 12 14  1  0  0  0  0
 14 15  1  0  0  0  0
 14 18  1  6  0  0  0
 15 17  1  0  0  0  0
 16 17  1  0  0  0  0
 18 19  1  0  0  0  0
 19 23  1  0  0  0  0
 20 21  2  0  0  0  0
 20 25  1  0  0  0  0
 21 22  1  0  0  0  0
 22 23  2  0  0  0  0
 23 24  1  0  0  0  0
 24 25  2  0  0  0  0
M  END
>  <CHROM.1>
130.24807229,-105.72690248,39.41219383,-92.76454538,12.08850337,5.35507801
-21.98687012,24.52922149,-3.05352229,0.25630414,-1.72498133

>  <Name>
ligand

>  <RI>
0

>  <Rbt.Current_Directory>
/home/itssahil/PROJECTS/Mol_Feturizer/New_Systems/rnas/4LVV

>  <Rbt.Executable>
rbdock ($Id: //depot/dev/client3/rdock/2013.1/src/exe/rbdock.cxx#4 $)

>  <Rbt.Library>
libRbt.so (2013.1, Build901 2013/11/27)

>  <Rbt.Parameter_File>
/export/apps/rDock/src/rDock_2013.1_src/data/scripts/dock_solv.prm

>  <Rbt.Receptor>
prm/pocket_docking_3.prm

>  <SCORE>
-13.8755

>  <SCORE.INTER>
-13.8879

>  <SCORE.INTER.CONST>
1

>  <SCORE.INTER.POLAR>
0

>  <SCORE.INTER.ROT>
5

>  <SCORE.INTER.SOLV>
15.0165

>  <SCORE.INTER.VDW>
-21.1975

>  <SCORE.INTER.norm>
-0.555518

>  <SCORE.INTRA>
0.0124553

>  <SCORE.INTRA.DIHEDRAL>
4.10831

>  <SCORE.INTRA.DIHEDRAL.0>
3.94806

>  <SCORE.INTRA.POLAR>
0

>  <SCORE.INTRA.POLAR.0>
0

>  <SCORE.INTRA.REPUL>
0

>  <SCORE.INTRA.REPUL.0>
0

>  <SCORE.INTRA.SOLV>
0.387539

>  <SCORE.INTRA.SOLV.lig_0>
-70.9803

>  <SCORE.INTRA.VDW>
-2.23547

>  <SCORE.INTRA.VDW.0>
-0.709409

>  <SCORE.INTRA.norm>
0.000498211

>  <SCORE.RESTR>
0

>  <SCORE.RESTR.CAVITY>
0

>  <SCORE.RESTR.norm>
0

>  <SCORE.SYSTEM>
0

>  <SCORE.SYSTEM.CONST>
0

>  <SCORE.SYSTEM.DIHEDRAL>
0

>  <SCORE.SYSTEM.SOLV>
0

>  <SCORE.SYSTEM.norm>
0

>  <SCORE.heavy>
25

>  <SCORE.norm>
-0.55502

>  <RMSD>
7.523

$$$$
ligand
 OpenBabel11021811503D
libRbt.so/2013.1/901 2013/11/27
 25 27  0  0  0  0  0  0  0  0999 V2000
    4.7324  -22.8385   29.7416 N   0  0  0  0  0  0  0  0  0  0  0  0
    5.3594  -21.9427   28.8197 C   0  0  0  0  0  0  0  0  0  0  0  0
    5.7864  -20.8573   29.1935 O   0  0  0  0  0  0  0  0  0  0  0  0
   11.5477  -20.0181   21.1561 N   0  0  0  0  0  0  0  0  0  0  0  0
    9.2705  -20.4957   20.5633 N   0  0  0  0  0  0  0  0  0  0  0  0
   10.4535  -20.9286   21.0571 C   0  0  0  0  0  0  0  0  0  0  0  0
   10.6214  -22.2260   21.4533 N   0  0  0  0  0  0  0  0  0  0  0  0
    9.6190  -23.1380   21.3769 C   0  0  0  0  0  0  0  0  0  0  0  0
    8.3614  -22.7208   20.8790 C   0  0  0  0  0  0  0  0  0  0  0  0
    9.8451  -24.4260   21.8022 O   0  0  0  0  0  0  0  0  0  0  0  0
    7.3012  -24.9603   20.2798 C   0  0  0  0  0  0  0  0  0  0  0  0
    7.2059  -23.5880   20.7164 N   0  0  0  0  0  0  0  0  0  0  0  0
    7.6471  -25.2820   19.1481 O   0  0  0  0  0  0  0  0  0  0  0  0
    5.9663  -22.9657   20.9105 C   0  0  2  0  0  0  0  0  0  0  0  0
    5.8280  -21.7693   19.9342 C   0  0  0  0  0  0  0  0  0  0  0  0
    8.2149  -21.3629   20.4529 C   0  0  0  0  0  0  0  0  0  0  0  0
    6.9279  -20.8915   19.9343 N   0  0  0  0  0  0  0  0  0  0  0  0
    5.8155  -22.4992   22.3443 C   0  0  0  0  0  0  0  0  0  0  0  0
    5.9848  -23.4856   23.3751 N   0  0  0  0  0  0  0  0  0  0  0  0
    5.4998  -22.3610   27.3971 C   0  0  0  0  0  0  0  0  0  0  0  0
    4.4466  -22.9646   26.7239 C   0  0  0  0  0  0  0  0  0  0  0  0
    4.6092  -23.3425   25.3966 C   0  0  0  0  0  0  0  0  0  0  0  0
    5.8165  -23.1053   24.7424 C   0  0  0  0  0  0  0  0  0  0  0  0
    6.8602  -22.4934   25.4145 C   0  0  0  0  0  0  0  0  0  0  0  0
    6.7016  -22.1255   26.7452 C   0  0  0  0  0  0  0  0  0  0  0  0
  1  2  1  0  0  0  0
  2  3  2  0  0  0  0
  2 20  1  0  0  0  0
  4  6  1  0  0  0  0
  5  6  2  0  0  0  0
  5 16  1  0  0  0  0
  6  7  1  0  0  0  0
  7  8  1  0  0  0  0
  8  9  1  0  0  0  0
  8 10  2  0  0  0  0
  9 12  1  0  0  0  0
  9 16  2  0  0  0  0
 11 13  1  0  0  0  0
 11 12  1  0  0  0  0
 12 14  1  0  0  0  0
 14 15  1  0  0  0  0
 14 18  1  1  0  0  0
 15 17  1  0  0  0  0
 16 17  1  0  0  0  0
 18 19  1  0  0  0  0
 19 23  1  0  0  0  0
 20 21  2  0  0  0  0
 20 25  1  0  0  0  0
 21 22  1  0  0  0  0
 22 23  2  0  0  0  0
 23 24  1  0  0  0  0
 24 25  2  0  0  0  0
M  END
>  <CHROM.1>
-67.77889065,-55.40584930,-178.28785999,97.92839742,44.15756664,7.25079299
-22.53525456,23.10835264,-2.08041652,-0.57028491,-1.89427560

>  <Name>
ligand

>  <RI>
0

>  <Rbt.Current_Directory>
/home/itssahil/PROJECTS/Mol_Feturizer/New_Systems/rnas/4LVV

>  <Rbt.Executable>
rbdock ($Id: //depot/dev/client3/rdock/2013.1/src/exe/rbdock.cxx#4 $)

>  <Rbt.Library>
libRbt.so (2013.1, Build901 2013/11/27)

>  <Rbt.Parameter_File>
/export/apps/rDock/src/rDock_2013.1_src/data/scripts/dock_solv.prm

>  <Rbt.Receptor>
prm/pocket_docking_7.prm

>  <SCORE>
-10.0505

>  <SCORE.INTER>
-8.44211

>  <SCORE.INTER.CONST>
1

>  <SCORE.INTER.POLAR>
0

>  <SCORE.INTER.ROT>
5

>  <SCORE.INTER.SOLV>
12.7123

>  <SCORE.INTER.VDW>
-16.7988

>  <SCORE.INTER.norm>
-0.337685

>  <SCORE.INTRA>
-1.6084

>  <SCORE.INTRA.DIHEDRAL>
-0.718327

>  <SCORE.INTRA.DIHEDRAL.0>
3.94806

>  <SCORE.INTRA.POLAR>
0

>  <SCORE.INTRA.POLAR.0>
0

>  <SCORE.INTRA.REPUL>
0

>  <SCORE.INTRA.REPUL.0>
0

>  <SCORE.INTRA.SOLV>
0.0159081

>  <SCORE.INTRA.SOLV.lig_0>
-70.9803

>  <SCORE.INTRA.VDW>
-1.25719

>  <SCORE.INTRA.VDW.0>
-0.709409

>  <SCORE.INTRA.norm>
-0.0643359

>  <SCORE.RESTR>
0

>  <SCORE.RESTR.CAVITY>
0

>  <SCORE.RESTR.norm>
0

>  <SCORE.SYSTEM>
0

>  <SCORE.SYSTEM.CONST>
0

>  <SCORE.SYSTEM.DIHEDRAL>
0

>  <SCORE.SYSTEM.SOLV>
0

>  <SCORE.SYSTEM.norm>
0

>  <SCORE.heavy>
25

>  <SCORE.norm>
-0.402021

>  <RMSD>
7.525

$$$$
ligand
 OpenBabel11021811503D
libRbt.so/2013.1/901 2013/11/27
 25 27  0  0  0  0  0  0  0  0999 V2000
   -0.3695  -21.9095   25.5076 N   0  0  0  0  0  0  0  0  0  0  0  0
    0.2795  -20.6797   25.8419 C   0  0  0  0  0  0  0  0  0  0  0  0
   -0.2898  -19.8365   26.5239 O   0  0  0  0  0  0  0  0  0  0  0  0
   11.6969  -23.2507   25.8113 N   0  0  0  0  0  0  0  0  0  0  0  0
    9.7325  -23.4403   24.4437 N   0  0  0  0  0  0  0  0  0  0  0  0
   10.2910  -23.0923   25.6260 C   0  0  0  0  0  0  0  0  0  0  0  0
    9.5297  -22.6011   26.6496 N   0  0  0  0  0  0  0  0  0  0  0  0
    8.1877  -22.4344   26.5334 C   0  0  0  0  0  0  0  0  0  0  0  0
    7.5675  -22.7735   25.3070 C   0  0  0  0  0  0  0  0  0  0  0  0
    7.4770  -21.9244   27.5945 O   0  0  0  0  0  0  0  0  0  0  0  0
    5.1314  -22.9821   26.0280 C   0  0  0  0  0  0  0  0  0  0  0  0
    6.1412  -22.6726   25.0445 N   0  0  0  0  0  0  0  0  0  0  0  0
    4.8685  -22.2475   26.9741 O   0  0  0  0  0  0  0  0  0  0  0  0
    5.8032  -22.3539   23.7231 C   0  0  2  0  0  0  0  0  0  0  0  0
    6.4092  -23.4102   22.7636 C   0  0  0  0  0  0  0  0  0  0  0  0
    8.3817  -23.3032   24.2566 C   0  0  0  0  0  0  0  0  0  0  0  0
    7.7778  -23.6635   22.9709 N   0  0  0  0  0  0  0  0  0  0  0  0
    6.2930  -20.9665   23.3606 C   0  0  0  0  0  0  0  0  0  0  0  0
    5.5714  -19.8528   23.9113 N   0  0  0  0  0  0  0  0  0  0  0  0
    1.6697  -20.4489   25.3595 C   0  0  0  0  0  0  0  0  0  0  0  0
    2.6465  -19.9506   26.2107 C   0  0  0  0  0  0  0  0  0  0  0  0
    3.9343  -19.7472   25.7301 C   0  0  0  0  0  0  0  0  0  0  0  0
    4.2460  -20.0535   24.4069 C   0  0  0  0  0  0  0  0  0  0  0  0
    3.2715  -20.5601   23.5649 C   0  0  0  0  0  0  0  0  0  0  0  0
    1.9807  -20.7532   24.0421 C   0  0  0  0  0  0  0  0  0  0  0  0
  1  2  1  0  0  0  0
  2  3  2  0  0  0  0
  2 20  1  0  0  0  0
  4  6  1  0  0  0  0
  5  6  2  0  0  0  0
  5 16  1  0  0  0  0
  6  7  1  0  0  0  0
  7  8  1  0  0  0  0
  8  9  1  0  0  0  0
  8 10  2  0  0  0  0
  9 12  1  0  0  0  0
  9 16  2  0  0  0  0
 11 13  1  0  0  0  0
 11 12  1  0  0  0  0
 12 14  1  0  0  0  0
 14 15  1  0  0  0  0
 14 18  1  6  0  0  0
 15 17  1  0  0  0  0
 16 17  1  0  0  0  0
 18 19  1  0  0  0  0
 19 23  1  0  0  0  0
 20 21  2  0  0  0  0
 20 25  1  0  0  0  0
 21 22  1  0  0  0  0
 22 23  2  0  0  0  0
 23 24  1  0  0  0  0
 24 25  2  0  0  0  0
M  END
>  <CHROM.1>
74.44682842,-74.21628528,-18.83194346,122.02781547,-134.17964442,5.55141022
-21.82223961,25.16268688,-3.08311271,0.29571893,-1.66901765

>  <Name>
ligand

>  <RI>
0

>  <Rbt.Current_Directory>
/home/itssahil/PROJECTS/Mol_Feturizer/New_Systems/rnas/4LVV

>  <Rbt.Executable>
rbdock ($Id: //depot/dev/client3/rdock/2013.1/src/exe/rbdock.cxx#4 $)

>  <Rbt.Library>
libRbt.so (2013.1, Build901 2013/11/27)

>  <Rbt.Parameter_File>
/export/apps/rDock/src/rDock_2013.1_src/data/scripts/dock_solv.prm

>  <Rbt.Receptor>
prm/pocket_docking_2.prm

>  <SCORE>
-9.22362

>  <SCORE.INTER>
-8.91916

>  <SCORE.INTER.CONST>
1

>  <SCORE.INTER.POLAR>
0

>  <SCORE.INTER.ROT>
5

>  <SCORE.INTER.SOLV>
13.6741

>  <SCORE.INTER.VDW>
-17.4375

>  <SCORE.INTER.norm>
-0.356766

>  <SCORE.INTRA>
-0.960728

>  <SCORE.INTRA.DIHEDRAL>
1.04689

>  <SCORE.INTRA.DIHEDRAL.0>
3.94806

>  <SCORE.INTRA.POLAR>
0

>  <SCORE.INTRA.POLAR.0>
0

>  <SCORE.INTRA.REPUL>
0

>  <SCORE.INTRA.REPUL.0>
0

>  <SCORE.INTRA.SOLV>
0.616997

>  <SCORE.INTRA.SOLV.lig_0>
-70.9803

>  <SCORE.INTRA.VDW>
-1.79267

>  <SCORE.INTRA.VDW.0>
-0.709409

>  <SCORE.INTRA.norm>
-0.0384291

>  <SCORE.RESTR>
0.656271

>  <SCORE.RESTR.CAVITY>
0.656271

>  <SCORE.RESTR.norm>
0.0262509

>  <SCORE.SYSTEM>
0

>  <SCORE.SYSTEM.CONST>
0

>  <SCORE.SYSTEM.DIHEDRAL>
0

>  <SCORE.SYSTEM.SOLV>
0

>  <SCORE.SYSTEM.norm>
0

>  <SCORE.heavy>
25

>  <SCORE.norm>
-0.368945

>  <RMSD>
7.534

$$$$
ligand
 OpenBabel11021811503D
libRbt.so/2013.1/901 2013/11/27
 25 27  0  0  0  0  0  0  0  0999 V2000
   -0.1588  -20.0936   26.5122 N   0  0  0  0  0  0  0  0  0  0  0  0
    0.3061  -21.0182   25.5250 C   0  0  0  0  0  0  0  0  0  0  0  0
   -0.3704  -21.9888   25.2082 O   0  0  0  0  0  0  0  0  0  0  0  0
   11.7850  -22.3130   25.0396 N   0  0  0  0  0  0  0  0  0  0  0  0
    9.8302  -23.0212   23.8385 N   0  0  0  0  0  0  0  0  0  0  0  0
   10.3662  -22.3776   24.9012 C   0  0  0  0  0  0  0  0  0  0  0  0
    9.5717  -21.7970   25.8499 N   0  0  0  0  0  0  0  0  0  0  0  0
    8.2169  -21.8316   25.7743 C   0  0  0  0  0  0  0  0  0  0  0  0
    7.6174  -22.4832   24.6699 C   0  0  0  0  0  0  0  0  0  0  0  0
    7.4709  -21.2187   26.7536 O   0  0  0  0  0  0  0  0  0  0  0  0
    5.2525  -22.8590   25.5441 C   0  0  0  0  0  0  0  0  0  0  0  0
    6.1843  -22.6215   24.4680 N   0  0  0  0  0  0  0  0  0  0  0  0
    4.3654  -23.7039   25.4895 O   0  0  0  0  0  0  0  0  0  0  0  0
    5.7716  -22.6161   23.1296 C   0  0  2  0  0  0  0  0  0  0  0  0
    6.4915  -23.7533   22.3602 C   0  0  0  0  0  0  0  0  0  0  0  0
    8.4689  -23.0997   23.6996 C   0  0  0  0  0  0  0  0  0  0  0  0
    7.8868  -23.7815   22.5403 N   0  0  0  0  0  0  0  0  0  0  0  0
    6.0568  -21.2759   22.4825 C   0  0  0  0  0  0  0  0  0  0  0  0
    5.3175  -20.1437   22.9681 N   0  0  0  0  0  0  0  0  0  0  0  0
    1.6231  -20.7702   24.8748 C   0  0  0  0  0  0  0  0  0  0  0  0
    2.6051  -20.0258   25.5140 C   0  0  0  0  0  0  0  0  0  0  0  0
    3.8236  -19.8131   24.8808 C   0  0  0  0  0  0  0  0  0  0  0  0
    4.0626  -20.3540   23.6191 C   0  0  0  0  0  0  0  0  0  0  0  0
    3.0844  -21.1045   22.9903 C   0  0  0  0  0  0  0  0  0  0  0  0
    1.8617  -21.3081   23.6185 C   0  0  0  0  0  0  0  0  0  0  0  0
  1  2  1  0  0  0  0
  2  3  2  0  0  0  0
  2 20  1  0  0  0  0
  4  6  1  0  0  0  0
  5  6  2  0  0  0  0
  5 16  1  0  0  0  0
  6  7  1  0  0  0  0
  7  8  1  0  0  0  0
  8  9  1  0  0  0  0
  8 10  2  0  0  0  0
  9 12  1  0  0  0  0
  9 16  2  0  0  0  0
 11 13  1  0  0  0  0
 11 12  1  0  0  0  0
 12 14  1  0  0  0  0
 14 15  1  0  0  0  0
 14 18  1  6  0  0  0
 15 17  1  0  0  0  0
 16 17  1  0  0  0  0
 18 19  1  0  0  0  0
 19 23  1  0  0  0  0
 20 21  2  0  0  0  0
 20 25  1  0  0  0  0
 21 22  1  0  0  0  0
 22 23  2  0  0  0  0
 23 24  1  0  0  0  0
 24 25  2  0  0  0  0
M  END
>  <CHROM.1>
-133.82625503,-66.58666470,-23.22605705,126.98127243,25.00287517,5.51948145
-21.85608071,24.51367742,-3.00795500,0.15635191,-1.95955373

>  <Name>
ligand

>  <RI>
0

>  <Rbt.Current_Directory>
/home/itssahil/PROJECTS/Mol_Feturizer/New_Systems/rnas/4LVV

>  <Rbt.Executable>
rbdock ($Id: //depot/dev/client3/rdock/2013.1/src/exe/rbdock.cxx#4 $)

>  <Rbt.Library>
libRbt.so (2013.1, Build901 2013/11/27)

>  <Rbt.Parameter_File>
/export/apps/rDock/src/rDock_2013.1_src/data/scripts/dock_solv.prm

>  <Rbt.Receptor>
prm/pocket_docking_3.prm

>  <SCORE>
-12.2943

>  <SCORE.INTER>
-10.9805

>  <SCORE.INTER.CONST>
1

>  <SCORE.INTER.POLAR>
0

>  <SCORE.INTER.ROT>
5

>  <SCORE.INTER.SOLV>
14.2234

>  <SCORE.INTER.VDW>
-18.9948

>  <SCORE.INTER.norm>
-0.439219

>  <SCORE.INTRA>
-1.31383

>  <SCORE.INTRA.DIHEDRAL>
0.370607

>  <SCORE.INTRA.DIHEDRAL.0>
3.94806

>  <SCORE.INTRA.POLAR>
0

>  <SCORE.INTRA.POLAR.0>
0

>  <SCORE.INTRA.REPUL>
0

>  <SCORE.INTRA.REPUL.0>
0

>  <SCORE.INTRA.SOLV>
0.0500878

>  <SCORE.INTRA.SOLV.lig_0>
-70.9803

>  <SCORE.INTRA.VDW>
-1.52418

>  <SCORE.INTRA.VDW.0>
-0.709409

>  <SCORE.INTRA.norm>
-0.0525533

>  <SCORE.RESTR>
0

>  <SCORE.RESTR.CAVITY>
0

>  <SCORE.RESTR.norm>
0

>  <SCORE.SYSTEM>
0

>  <SCORE.SYSTEM.CONST>
0

>  <SCORE.SYSTEM.DIHEDRAL>
0

>  <SCORE.SYSTEM.SOLV>
0

>  <SCORE.SYSTEM.norm>
0

>  <SCORE.heavy>
25

>  <SCORE.norm>
-0.491772

>  <RMSD>
7.539

$$$$
ligand
 OpenBabel11021811503D
libRbt.so/2013.1/901 2013/11/27
 25 27  0  0  0  0  0  0  0  0999 V2000
   -0.0487  -21.5653   27.0446 N   0  0  0  0  0  0  0  0  0  0  0  0
   -0.0382  -21.2089   25.6595 C   0  0  0  0  0  0  0  0  0  0  0  0
   -1.0830  -21.1300   25.0253 O   0  0  0  0  0  0  0  0  0  0  0  0
   11.5957  -21.9132   25.1486 N   0  0  0  0  0  0  0  0  0  0  0  0
    9.6629  -22.6793   23.9475 N   0  0  0  0  0  0  0  0  0  0  0  0
   10.1804  -22.0482   25.0268 C   0  0  0  0  0  0  0  0  0  0  0  0
    9.3710  -21.5467   26.0074 N   0  0  0  0  0  0  0  0  0  0  0  0
    8.0188  -21.6507   25.9486 C   0  0  0  0  0  0  0  0  0  0  0  0
    7.4378  -22.2917   24.8282 C   0  0  0  0  0  0  0  0  0  0  0  0
    7.2566  -21.1155   26.9603 O   0  0  0  0  0  0  0  0  0  0  0  0
    5.1097  -22.8255   25.7188 C   0  0  0  0  0  0  0  0  0  0  0  0
    6.0111  -22.4986   24.6403 N   0  0  0  0  0  0  0  0  0  0  0  0
    4.2898  -23.7353   25.6558 O   0  0  0  0  0  0  0  0  0  0  0  0
    5.5782  -22.4652   23.3087 C   0  0  2  0  0  0  0  0  0  0  0  0
    6.3453  -23.5329   22.4870 C   0  0  0  0  0  0  0  0  0  0  0  0
    8.3057  -22.8252   23.8238 C   0  0  0  0  0  0  0  0  0  0  0  0
    7.7428  -23.4932   22.6472 N   0  0  0  0  0  0  0  0  0  0  0  0
    5.7823  -21.0885   22.7094 C   0  0  0  0  0  0  0  0  0  0  0  0
    4.9711  -20.0219   23.2277 N   0  0  0  0  0  0  0  0  0  0  0  0
    1.2675  -20.9178   25.0045 C   0  0  0  0  0  0  0  0  0  0  0  0
    1.5611  -21.4209   23.7445 C   0  0  0  0  0  0  0  0  0  0  0  0
    2.7880  -21.1303   23.1602 C   0  0  0  0  0  0  0  0  0  0  0  0
    3.7114  -20.3291   23.8288 C   0  0  0  0  0  0  0  0  0  0  0  0
    3.4099  -19.8209   25.0803 C   0  0  0  0  0  0  0  0  0  0  0  0
    2.1875  -20.1204   25.6697 C   0  0  0  0  0  0  0  0  0  0  0  0
  1  2  1  0  0  0  0
  2  3  2  0  0  0  0
  2 20  1  0  0  0  0
  4  6  1  0  0  0  0
  5  6  2  0  0  0  0
  5 16  1  0  0  0  0
  6  7  1  0  0  0  0
  7  8  1  0  0  0  0
  8  9  1  0  0  0  0
  8 10  2  0  0  0  0
  9 12  1  0  0  0  0
  9 16  2  0  0  0  0
 11 13  1  0  0  0  0
 11 12  1  0  0  0  0
 12 14  1  0  0  0  0
 14 15  1  0  0  0  0
 14 18  1  6  0  0  0
 15 17  1  0  0  0  0
 16 17  1  0  0  0  0
 18 19  1  0  0  0  0
 19 23  1  0  0  0  0
 20 21  2  0  0  0  0
 20 25  1  0  0  0  0
 21 22  1  0  0  0  0
 22 23  2  0  0  0  0
 23 24  1  0  0  0  0
 24 25  2  0  0  0  0
M  END
>  <CHROM.1>
-131.98690244,-67.89083624,-24.95638899,-50.96900164,136.22807404,5.27784889
-21.76949231,24.67437602,-3.05303800,0.12396925,-1.79320827

>  <Name>
ligand

>  <RI>
0

>  <Rbt.Current_Directory>
/home/itssahil/PROJECTS/Mol_Feturizer/New_Systems/rnas/4LVV

>  <Rbt.Executable>
rbdock ($Id: //depot/dev/client3/rdock/2013.1/src/exe/rbdock.cxx#4 $)

>  <Rbt.Library>
libRbt.so (2013.1, Build901 2013/11/27)

>  <Rbt.Parameter_File>
/export/apps/rDock/src/rDock_2013.1_src/data/scripts/dock_solv.prm

>  <Rbt.Receptor>
prm/pocket_docking_3.prm

>  <SCORE>
-13.1984

>  <SCORE.INTER>
-11.7161

>  <SCORE.INTER.CONST>
1

>  <SCORE.INTER.POLAR>
0

>  <SCORE.INTER.ROT>
5

>  <SCORE.INTER.SOLV>
14.5913

>  <SCORE.INTER.VDW>
-19.6078

>  <SCORE.INTER.norm>
-0.468642

>  <SCORE.INTRA>
-1.48231

>  <SCORE.INTRA.DIHEDRAL>
0.378084

>  <SCORE.INTRA.DIHEDRAL.0>
3.94806

>  <SCORE.INTRA.POLAR>
0

>  <SCORE.INTRA.POLAR.0>
0

>  <SCORE.INTRA.REPUL>
0

>  <SCORE.INTRA.REPUL.0>
0

>  <SCORE.INTRA.SOLV>
-0.0155497

>  <SCORE.INTRA.SOLV.lig_0>
-70.9803

>  <SCORE.INTRA.VDW>
-1.66358

>  <SCORE.INTRA.VDW.0>
-0.709409

>  <SCORE.INTRA.norm>
-0.0592923

>  <SCORE.RESTR>
0

>  <SCORE.RESTR.CAVITY>
0

>  <SCORE.RESTR.norm>
0

>  <SCORE.SYSTEM>
0

>  <SCORE.SYSTEM.CONST>
0

>  <SCORE.SYSTEM.DIHEDRAL>
0

>  <SCORE.SYSTEM.SOLV>
0

>  <SCORE.SYSTEM.norm>
0

>  <SCORE.heavy>
25

>  <SCORE.norm>
-0.527935

>  <RMSD>
7.544

$$$$
ligand
 OpenBabel11021811503D
libRbt.so/2013.1/901 2013/11/27
 25 27  0  0  0  0  0  0  0  0999 V2000
   -1.9077  -20.9330   25.4581 N   0  0  0  0  0  0  0  0  0  0  0  0
   -0.7452  -21.2250   26.2382 C   0  0  0  0  0  0  0  0  0  0  0  0
   -0.8458  -21.7539   27.3383 O   0  0  0  0  0  0  0  0  0  0  0  0
   10.8006  -21.0436   26.6645 N   0  0  0  0  0  0  0  0  0  0  0  0
    9.0760  -22.1326   25.3975 N   0  0  0  0  0  0  0  0  0  0  0  0
    9.4226  -21.3326   26.4323 C   0  0  0  0  0  0  0  0  0  0  0  0
    8.4760  -20.8048   27.2652 N   0  0  0  0  0  0  0  0  0  0  0  0
    7.1515  -21.0495   27.0972 C   0  0  0  0  0  0  0  0  0  0  0  0
    6.7470  -21.8703   26.0172 C   0  0  0  0  0  0  0  0  0  0  0  0
    6.2456  -20.4801   27.9609 O   0  0  0  0  0  0  0  0  0  0  0  0
    4.3963  -22.5279   26.7521 C   0  0  0  0  0  0  0  0  0  0  0  0
    5.3708  -22.2391   25.7276 N   0  0  0  0  0  0  0  0  0  0  0  0
    4.6999  -22.8667   27.8909 O   0  0  0  0  0  0  0  0  0  0  0  0
    5.0751  -22.4030   24.3685 C   0  0  2  0  0  0  0  0  0  0  0  0
    6.0135  -23.4763   23.7592 C   0  0  0  0  0  0  0  0  0  0  0  0
    7.7568  -22.4266   25.1702 C   0  0  0  0  0  0  0  0  0  0  0  0
    7.3783  -23.2789   24.0396 N   0  0  0  0  0  0  0  0  0  0  0  0
    5.2171  -21.0911   23.6234 C   0  0  0  0  0  0  0  0  0  0  0  0
    4.3602  -20.0117   24.0292 N   0  0  0  0  0  0  0  0  0  0  0  0
    0.5947  -20.8895   25.6806 C   0  0  0  0  0  0  0  0  0  0  0  0
    1.5142  -20.1614   26.4230 C   0  0  0  0  0  0  0  0  0  0  0  0
    2.7562  -19.8655   25.8745 C   0  0  0  0  0  0  0  0  0  0  0  0
    3.0809  -20.3076   24.5936 C   0  0  0  0  0  0  0  0  0  0  0  0
    2.1649  -21.0424   23.8613 C   0  0  0  0  0  0  0  0  0  0  0  0
    0.9186  -21.3290   24.4052 C   0  0  0  0  0  0  0  0  0  0  0  0
  1  2  1  0  0  0  0
  2  3  2  0  0  0  0
  2 20  1  0  0  0  0
  4  6  1  0  0  0  0
  5  6  2  0  0  0  0
  5 16  1  0  0  0  0
  6  7  1  0  0  0  0
  7  8  1  0  0  0  0
  8  9  1  0  0  0  0
  8 10  2  0  0  0  0
  9 12  1  0  0  0  0
  9 16  2  0  0  0  0
 11 13  1  0  0  0  0
 11 12  1  0  0  0  0
 12 14  1  0  0  0  0
 14 15  1  0  0  0  0
 14 18  1  6  0  0  0
 15 17  1  0  0  0  0
 16 17  1  0  0  0  0
 18 19  1  0  0  0  0
 19 23  1  0  0  0  0
 20 21  2  0  0  0  0
 20 25  1  0  0  0  0
 21 22  1  0  0  0  0
 22 23  2  0  0  0  0
 23 24  1  0  0  0  0
 24 25  2  0  0  0  0
M  END
>  <CHROM.1>
-21.84858463,-61.38652379,-28.73310316,121.16610782,129.25951141,4.66207594
-21.49076026,25.72748221,-3.12720126,-0.08578073,1.36760619

>  <Name>
ligand

>  <RI>
0

>  <Rbt.Current_Directory>
/home/itssahil/PROJECTS/Mol_Feturizer/New_Systems/rnas/4LVV

>  <Rbt.Executable>
rbdock ($Id: //depot/dev/client3/rdock/2013.1/src/exe/rbdock.cxx#4 $)

>  <Rbt.Library>
libRbt.so (2013.1, Build901 2013/11/27)

>  <Rbt.Parameter_File>
/export/apps/rDock/src/rDock_2013.1_src/data/scripts/dock_solv.prm

>  <Rbt.Receptor>
prm/pocket_docking_4.prm

>  <SCORE>
-14.2131

>  <SCORE.INTER>
-12.767

>  <SCORE.INTER.CONST>
1

>  <SCORE.INTER.POLAR>
0

>  <SCORE.INTER.ROT>
5

>  <SCORE.INTER.SOLV>
16.7995

>  <SCORE.INTER.VDW>
-21.0445

>  <SCORE.INTER.norm>
-0.510678

>  <SCORE.INTRA>
-1.56929

>  <SCORE.INTRA.DIHEDRAL>
0.103323

>  <SCORE.INTRA.DIHEDRAL.0>
3.94806

>  <SCORE.INTRA.POLAR>
0

>  <SCORE.INTRA.POLAR.0>
0

>  <SCORE.INTRA.REPUL>
0

>  <SCORE.INTRA.REPUL.0>
0

>  <SCORE.INTRA.SOLV>
0.364533

>  <SCORE.INTRA.SOLV.lig_0>
-70.9803

>  <SCORE.INTRA.VDW>
-1.80322

>  <SCORE.INTRA.VDW.0>
-0.709409

>  <SCORE.INTRA.norm>
-0.0627718

>  <SCORE.RESTR>
0.123119

>  <SCORE.RESTR.CAVITY>
0.123119

>  <SCORE.RESTR.norm>
0.00492475

>  <SCORE.SYSTEM>
0

>  <SCORE.SYSTEM.CONST>
0

>  <SCORE.SYSTEM.DIHEDRAL>
0

>  <SCORE.SYSTEM.SOLV>
0

>  <SCORE.SYSTEM.norm>
0

>  <SCORE.heavy>
25

>  <SCORE.norm>
-0.568525

>  <RMSD>
7.550

$$$$
ligand
 OpenBabel11021811503D
libRbt.so/2013.1/901 2013/11/27
 25 27  0  0  0  0  0  0  0  0999 V2000
    6.3576  -22.2727   29.6897 N   0  0  0  0  0  0  0  0  0  0  0  0
    5.3190  -22.0441   28.7335 C   0  0  0  0  0  0  0  0  0  0  0  0
    4.2556  -21.5397   29.0725 O   0  0  0  0  0  0  0  0  0  0  0  0
   11.4067  -19.7530   20.8133 N   0  0  0  0  0  0  0  0  0  0  0  0
    9.1455  -20.3879   20.3141 N   0  0  0  0  0  0  0  0  0  0  0  0
   10.3711  -20.7337   20.7716 C   0  0  0  0  0  0  0  0  0  0  0  0
   10.6369  -22.0092   21.1851 N   0  0  0  0  0  0  0  0  0  0  0  0
    9.6936  -22.9850   21.1626 C   0  0  0  0  0  0  0  0  0  0  0  0
    8.3946  -22.6597   20.7041 C   0  0  0  0  0  0  0  0  0  0  0  0
   10.0179  -24.2467   21.6029 O   0  0  0  0  0  0  0  0  0  0  0  0
    7.4611  -24.9745   20.1859 C   0  0  0  0  0  0  0  0  0  0  0  0
    7.2928  -23.6025   20.6004 N   0  0  0  0  0  0  0  0  0  0  0  0
    7.7374  -25.2992   19.0360 O   0  0  0  0  0  0  0  0  0  0  0  0
    6.0231  -23.0570   20.8288 C   0  0  2  0  0  0  0  0  0  0  0  0
    5.7726  -21.8925   19.8365 C   0  0  0  0  0  0  0  0  0  0  0  0
    8.1452  -21.3232   20.2588 C   0  0  0  0  0  0  0  0  0  0  0  0
    6.8126  -20.9461   19.7797 N   0  0  0  0  0  0  0  0  0  0  0  0
    5.8937  -22.5715   22.2585 C   0  0  0  0  0  0  0  0  0  0  0  0
    6.1562  -23.5255   23.3002 N   0  0  0  0  0  0  0  0  0  0  0  0
    5.5600  -22.4152   27.3112 C   0  0  0  0  0  0  0  0  0  0  0  0
    6.7571  -22.0977   26.6844 C   0  0  0  0  0  0  0  0  0  0  0  0
    6.9514  -22.4587   25.3566 C   0  0  0  0  0  0  0  0  0  0  0  0
    5.9568  -23.1459   24.6636 C   0  0  0  0  0  0  0  0  0  0  0  0
    4.7691  -23.4697   25.2960 C   0  0  0  0  0  0  0  0  0  0  0  0
    4.5701  -23.0991   26.6205 C   0  0  0  0  0  0  0  0  0  0  0  0
  1  2  1  0  0  0  0
  2  3  2  0  0  0  0
  2 20  1  0  0  0  0
  4  6  1  0  0  0  0
  5  6  2  0  0  0  0
  5 16  1  0  0  0  0
  6  7  1  0  0  0  0
  7  8  1  0  0  0  0
  8  9  1  0  0  0  0
  8 10  2  0  0  0  0
  9 12  1  0  0  0  0
  9 16  2  0  0  0  0
 11 13  1  0  0  0  0
 11 12  1  0  0  0  0
 12 14  1  0  0  0  0
 14 15  1  0  0  0  0
 14 18  1  1  0  0  0
 15 17  1  0  0  0  0
 16 17  1  0  0  0  0
 18 19  1  0  0  0  0
 19 23  1  0  0  0  0
 20 21  2  0  0  0  0
 20 25  1  0  0  0  0
 21 22  1  0  0  0  0
 22 23  2  0  0  0  0
 23 24  1  0  0  0  0
 24 25  2  0  0  0  0
M  END
>  <CHROM.1>
-70.60330066,-55.74791483,-175.61587775,-83.57127522,-44.66180032,7.28331216
-22.52672484,22.96790104,-2.08099185,-0.58233088,-1.87953046

>  <Name>
ligand

>  <RI>
0

>  <Rbt.Current_Directory>
/home/itssahil/PROJECTS/Mol_Feturizer/New_Systems/rnas/4LVV

>  <Rbt.Executable>
rbdock ($Id: //depot/dev/client3/rdock/2013.1/src/exe/rbdock.cxx#4 $)

>  <Rbt.Library>
libRbt.so (2013.1, Build901 2013/11/27)

>  <Rbt.Parameter_File>
/export/apps/rDock/src/rDock_2013.1_src/data/scripts/dock_solv.prm

>  <Rbt.Receptor>
prm/pocket_docking_7.prm

>  <SCORE>
-10.0643

>  <SCORE.INTER>
-8.4839

>  <SCORE.INTER.CONST>
1

>  <SCORE.INTER.POLAR>
0

>  <SCORE.INTER.ROT>
5

>  <SCORE.INTER.SOLV>
11.6418

>  <SCORE.INTER.VDW>
-16.4699

>  <SCORE.INTER.norm>
-0.339356

>  <SCORE.INTRA>
-1.58036

>  <SCORE.INTRA.DIHEDRAL>
-0.690966

>  <SCORE.INTRA.DIHEDRAL.0>
3.94806

>  <SCORE.INTRA.POLAR>
0

>  <SCORE.INTRA.POLAR.0>
0

>  <SCORE.INTRA.REPUL>
0

>  <SCORE.INTRA.REPUL.0>
0

>  <SCORE.INTRA.SOLV>
-0.00111024

>  <SCORE.INTRA.SOLV.lig_0>
-70.9803

>  <SCORE.INTRA.VDW>
-1.23433

>  <SCORE.INTRA.VDW.0>
-0.709409

>  <SCORE.INTRA.norm>
-0.0632145

>  <SCORE.RESTR>
0

>  <SCORE.RESTR.CAVITY>
0

>  <SCORE.RESTR.norm>
0

>  <SCORE.SYSTEM>
0

>  <SCORE.SYSTEM.CONST>
0

>  <SCORE.SYSTEM.DIHEDRAL>
0

>  <SCORE.SYSTEM.SOLV>
0

>  <SCORE.SYSTEM.norm>
0

>  <SCORE.heavy>
25

>  <SCORE.norm>
-0.402571

>  <RMSD>
7.550

$$$$
ligand
 OpenBabel11021811503D
libRbt.so/2013.1/901 2013/11/27
 25 27  0  0  0  0  0  0  0  0999 V2000
   -0.8087  -21.7574   27.3091 N   0  0  0  0  0  0  0  0  0  0  0  0
   -0.7638  -21.1949   25.9949 C   0  0  0  0  0  0  0  0  0  0  0  0
   -1.7963  -20.9315   25.3909 O   0  0  0  0  0  0  0  0  0  0  0  0
   10.9265  -19.9092   25.8537 N   0  0  0  0  0  0  0  0  0  0  0  0
    9.2777  -21.3995   24.9450 N   0  0  0  0  0  0  0  0  0  0  0  0
    9.5853  -20.3928   25.7952 C   0  0  0  0  0  0  0  0  0  0  0  0
    8.6353  -19.8380   26.6064 N   0  0  0  0  0  0  0  0  0  0  0  0
    7.3455  -20.2607   26.5987 C   0  0  0  0  0  0  0  0  0  0  0  0
    6.9803  -21.3025   25.7128 C   0  0  0  0  0  0  0  0  0  0  0  0
    6.4323  -19.6551   27.4296 O   0  0  0  0  0  0  0  0  0  0  0  0
    4.7881  -22.0863   26.7512 C   0  0  0  0  0  0  0  0  0  0  0  0
    5.6475  -21.8742   25.6114 N   0  0  0  0  0  0  0  0  0  0  0  0
    4.3986  -23.1953   27.1009 O   0  0  0  0  0  0  0  0  0  0  0  0
    5.2866  -22.3116   24.3307 C   0  0  2  0  0  0  0  0  0  0  0  0
    6.3138  -23.3603   23.8321 C   0  0  0  0  0  0  0  0  0  0  0  0
    7.9956  -21.8804   24.8870 C   0  0  0  0  0  0  0  0  0  0  0  0
    7.6570  -22.9590   23.9545 N   0  0  0  0  0  0  0  0  0  0  0  0
    5.2081  -21.1465   23.3649 C   0  0  0  0  0  0  0  0  0  0  0  0
    4.3288  -20.0651   23.7136 N   0  0  0  0  0  0  0  0  0  0  0  0
    0.5638  -20.9184   25.3788 C   0  0  0  0  0  0  0  0  0  0  0  0
    0.8817  -21.4085   24.1196 C   0  0  0  0  0  0  0  0  0  0  0  0
    2.1286  -21.1321   23.5722 C   0  0  0  0  0  0  0  0  0  0  0  0
    3.0483  -20.3578   24.2768 C   0  0  0  0  0  0  0  0  0  0  0  0
    2.7228  -19.8623   25.5274 C   0  0  0  0  0  0  0  0  0  0  0  0
    1.4800  -20.1478   26.0799 C   0  0  0  0  0  0  0  0  0  0  0  0
  1  2  1  0  0  0  0
  2  3  2  0  0  0  0
  2 20  1  0  0  0  0
  4  6  1  0  0  0  0
  5  6  2  0  0  0  0
  5 16  1  0  0  0  0
  6  7  1  0  0  0  0
  7  8  1  0  0  0  0
  8  9  1  0  0  0  0
  8 10  2  0  0  0  0
  9 12  1  0  0  0  0
  9 16  2  0  0  0  0
 11 13  1  0  0  0  0
 11 12  1  0  0  0  0
 12 14  1  0  0  0  0
 14 15  1  0  0  0  0
 14 18  1  6  0  0  0
 15 17  1  0  0  0  0
 16 17  1  0  0  0  0
 18 19  1  0  0  0  0
 19 23  1  0  0  0  0
 20 21  2  0  0  0  0
 20 25  1  0  0  0  0
 21 22  1  0  0  0  0
 22 23  2  0  0  0  0
 23 24  1  0  0  0  0
 24 25  2  0  0  0  0
M  END
>  <CHROM.1>
-117.82855519,-56.29780053,-41.03200864,-59.21424955,127.20103846,4.75847734
-21.19653562,25.39774761,3.13661152,-0.01247560,-2.06503251

>  <Name>
ligand

>  <RI>
0

>  <Rbt.Current_Directory>
/home/itssahil/PROJECTS/Mol_Feturizer/New_Systems/rnas/4LVV

>  <Rbt.Executable>
rbdock ($Id: //depot/dev/client3/rdock/2013.1/src/exe/rbdock.cxx#4 $)

>  <Rbt.Library>
libRbt.so (2013.1, Build901 2013/11/27)

>  <Rbt.Parameter_File>
/export/apps/rDock/src/rDock_2013.1_src/data/scripts/dock_solv.prm

>  <Rbt.Receptor>
prm/pocket_docking_6.prm

>  <SCORE>
-13.7853

>  <SCORE.INTER>
-11.8837

>  <SCORE.INTER.CONST>
1

>  <SCORE.INTER.POLAR>
0

>  <SCORE.INTER.ROT>
5

>  <SCORE.INTER.SOLV>
15.2881

>  <SCORE.INTER.VDW>
-19.9518

>  <SCORE.INTER.norm>
-0.475348

>  <SCORE.INTRA>
-2.01805

>  <SCORE.INTRA.DIHEDRAL>
-0.370906

>  <SCORE.INTRA.DIHEDRAL.0>
3.94806

>  <SCORE.INTRA.POLAR>
0

>  <SCORE.INTRA.POLAR.0>
0

>  <SCORE.INTRA.REPUL>
0

>  <SCORE.INTRA.REPUL.0>
0

>  <SCORE.INTRA.SOLV>
0.138265

>  <SCORE.INTRA.SOLV.lig_0>
-70.9803

>  <SCORE.INTRA.VDW>
-1.90173

>  <SCORE.INTRA.VDW.0>
-0.709409

>  <SCORE.INTRA.norm>
-0.080722

>  <SCORE.RESTR>
0.116463

>  <SCORE.RESTR.CAVITY>
0.116463

>  <SCORE.RESTR.norm>
0.00465854

>  <SCORE.SYSTEM>
0

>  <SCORE.SYSTEM.CONST>
0

>  <SCORE.SYSTEM.DIHEDRAL>
0

>  <SCORE.SYSTEM.SOLV>
0

>  <SCORE.SYSTEM.norm>
0

>  <SCORE.heavy>
25

>  <SCORE.norm>
-0.551412

>  <RMSD>
7.559

$$$$
ligand
 OpenBabel11021811503D
libRbt.so/2013.1/901 2013/11/27
 25 27  0  0  0  0  0  0  0  0999 V2000
    5.8356  -20.8036   29.1221 N   0  0  0  0  0  0  0  0  0  0  0  0
    5.3261  -22.0502   28.6407 C   0  0  0  0  0  0  0  0  0  0  0  0
    4.7009  -22.7991   29.3812 O   0  0  0  0  0  0  0  0  0  0  0  0
   11.5584  -19.7970   21.0030 N   0  0  0  0  0  0  0  0  0  0  0  0
    9.3061  -20.3702   20.3997 N   0  0  0  0  0  0  0  0  0  0  0  0
   10.5043  -20.7530   20.8984 C   0  0  0  0  0  0  0  0  0  0  0  0
   10.7254  -22.0425   21.2941 N   0  0  0  0  0  0  0  0  0  0  0  0
    9.7629  -22.9962   21.2124 C   0  0  0  0  0  0  0  0  0  0  0  0
    8.4909  -22.6322   20.7093 C   0  0  0  0  0  0  0  0  0  0  0  0
   10.0416  -24.2739   21.6376 O   0  0  0  0  0  0  0  0  0  0  0  0
    7.5294  -24.9140   20.1034 C   0  0  0  0  0  0  0  0  0  0  0  0
    7.3741  -23.5475   20.5408 N   0  0  0  0  0  0  0  0  0  0  0  0
    6.7425  -25.8069   20.3991 O   0  0  0  0  0  0  0  0  0  0  0  0
    6.1083  -22.9785   20.7300 C   0  0  2  0  0  0  0  0  0  0  0  0
    5.9236  -21.7880   19.7541 C   0  0  0  0  0  0  0  0  0  0  0  0
    8.2888  -21.2813   20.2838 C   0  0  0  0  0  0  0  0  0  0  0  0
    6.9852  -20.8643   19.7599 N   0  0  0  0  0  0  0  0  0  0  0  0
    5.9315  -22.5204   22.1635 C   0  0  0  0  0  0  0  0  0  0  0  0
    6.1145  -23.5057   23.1931 N   0  0  0  0  0  0  0  0  0  0  0  0
    5.5548  -22.4151   27.2147 C   0  0  0  0  0  0  0  0  0  0  0  0
    6.7571  -22.1198   26.5870 C   0  0  0  0  0  0  0  0  0  0  0  0
    6.9395  -22.4742   25.2558 C   0  0  0  0  0  0  0  0  0  0  0  0
    5.9276  -23.1328   24.5601 C   0  0  0  0  0  0  0  0  0  0  0  0
    4.7346  -23.4346   25.1933 C   0  0  0  0  0  0  0  0  0  0  0  0
    4.5476  -23.0705   26.5213 C   0  0  0  0  0  0  0  0  0  0  0  0
  1  2  1  0  0  0  0
  2  3  2  0  0  0  0
  2 20  1  0  0  0  0
  4  6  1  0  0  0  0
  5  6  2  0  0  0  0
  5 16  1  0  0  0  0
  6  7  1  0  0  0  0
  7  8  1  0  0  0  0
  8  9  1  0  0  0  0
  8 10  2  0  0  0  0
  9 12  1  0  0  0  0
  9 16  2  0  0  0  0
 11 13  1  0  0  0  0
 11 12  1  0  0  0  0
 12 14  1  0  0  0  0
 14 15  1  0  0  0  0
 14 18  1  1  0  0  0
 15 17  1  0  0  0  0
 16 17  1  0  0  0  0
 18 19  1  0  0  0  0
 19 23  1  0  0  0  0
 20 21  2  0  0  0  0
 20 25  1  0  0  0  0
 21 22  1  0  0  0  0
 22 23  2  0  0  0  0
 23 24  1  0  0  0  0
 24 25  2  0  0  0  0
M  END
>  <CHROM.1>
152.94250539,-56.49075256,-178.50497071,-80.69764105,38.46526930,7.28851298
-22.53228178,23.00196195,-2.14207149,-0.64877757,-1.92805595

>  <Name>
ligand

>  <RI>
0

>  <Rbt.Current_Directory>
/home/itssahil/PROJECTS/Mol_Feturizer/New_Systems/rnas/4LVV

>  <Rbt.Executable>
rbdock ($Id: //depot/dev/client3/rdock/2013.1/src/exe/rbdock.cxx#4 $)

>  <Rbt.Library>
libRbt.so (2013.1, Build901 2013/11/27)

>  <Rbt.Parameter_File>
/export/apps/rDock/src/rDock_2013.1_src/data/scripts/dock_solv.prm

>  <Rbt.Receptor>
prm/pocket_docking_8.prm

>  <SCORE>
-9.73272

>  <SCORE.INTER>
-8.45851

>  <SCORE.INTER.CONST>
1

>  <SCORE.INTER.POLAR>
0

>  <SCORE.INTER.ROT>
5

>  <SCORE.INTER.SOLV>
12.357

>  <SCORE.INTER.VDW>
-16.6914

>  <SCORE.INTER.norm>
-0.33834

>  <SCORE.INTRA>
-1.2742

>  <SCORE.INTRA.DIHEDRAL>
-0.829903

>  <SCORE.INTRA.DIHEDRAL.0>
3.94806

>  <SCORE.INTRA.POLAR>
0

>  <SCORE.INTRA.POLAR.0>
0

>  <SCORE.INTRA.REPUL>
0

>  <SCORE.INTRA.REPUL.0>
0

>  <SCORE.INTRA.SOLV>
0.352567

>  <SCORE.INTRA.SOLV.lig_0>
-70.9803

>  <SCORE.INTRA.VDW>
-1.03554

>  <SCORE.INTRA.VDW.0>
-0.709409

>  <SCORE.INTRA.norm>
-0.0509681

>  <SCORE.RESTR>
0

>  <SCORE.RESTR.CAVITY>
0

>  <SCORE.RESTR.norm>
0

>  <SCORE.SYSTEM>
0

>  <SCORE.SYSTEM.CONST>
0

>  <SCORE.SYSTEM.DIHEDRAL>
0

>  <SCORE.SYSTEM.SOLV>
0

>  <SCORE.SYSTEM.norm>
0

>  <SCORE.heavy>
25

>  <SCORE.norm>
-0.389309

>  <RMSD>
7.560

$$$$
ligand
 OpenBabel11021811503D
libRbt.so/2013.1/901 2013/11/27
 25 27  0  0  0  0  0  0  0  0999 V2000
   -0.4132  -20.0225   26.7099 N   0  0  0  0  0  0  0  0  0  0  0  0
    0.1104  -20.9060   25.7147 C   0  0  0  0  0  0  0  0  0  0  0  0
   -0.5720  -21.8189   25.2662 O   0  0  0  0  0  0  0  0  0  0  0  0
   11.7877  -22.7180   25.8267 N   0  0  0  0  0  0  0  0  0  0  0  0
    9.8397  -23.1604   24.4945 N   0  0  0  0  0  0  0  0  0  0  0  0
   10.3719  -22.6989   25.6498 C   0  0  0  0  0  0  0  0  0  0  0  0
    9.5758  -22.2241   26.6544 N   0  0  0  0  0  0  0  0  0  0  0  0
    8.2233  -22.1872   26.5452 C   0  0  0  0  0  0  0  0  0  0  0  0
    7.6286  -22.6478   25.3462 C   0  0  0  0  0  0  0  0  0  0  0  0
    7.4762  -21.6869   27.5857 O   0  0  0  0  0  0  0  0  0  0  0  0
    5.2268  -23.0382   26.1061 C   0  0  0  0  0  0  0  0  0  0  0  0
    6.1972  -22.6920   25.0955 N   0  0  0  0  0  0  0  0  0  0  0  0
    4.7142  -22.2133   26.8549 O   0  0  0  0  0  0  0  0  0  0  0  0
    5.8224  -22.4781   23.7630 C   0  0  2  0  0  0  0  0  0  0  0  0
    6.5162  -23.5255   22.8546 C   0  0  0  0  0  0  0  0  0  0  0  0
    8.4808  -23.1576   24.3163 C   0  0  0  0  0  0  0  0  0  0  0  0
    7.9037  -23.6411   23.0590 N   0  0  0  0  0  0  0  0  0  0  0  0
    6.1804  -21.0736   23.3207 C   0  0  0  0  0  0  0  0  0  0  0  0
    5.4286  -19.9938   23.8979 N   0  0  0  0  0  0  0  0  0  0  0  0
    1.4978  -20.6857   25.2193 C   0  0  0  0  0  0  0  0  0  0  0  0
    1.8958  -21.1621   23.9777 C   0  0  0  0  0  0  0  0  0  0  0  0
    3.1970  -20.9393   23.5440 C   0  0  0  0  0  0  0  0  0  0  0  0
    4.0918  -20.2315   24.3441 C   0  0  0  0  0  0  0  0  0  0  0  0
    3.6872  -19.7491   25.5765 C   0  0  0  0  0  0  0  0  0  0  0  0
    2.3893  -19.9814   26.0154 C   0  0  0  0  0  0  0  0  0  0  0  0
  1  2  1  0  0  0  0
  2  3  2  0  0  0  0
  2 20  1  0  0  0  0
  4  6  1  0  0  0  0
  5  6  2  0  0  0  0
  5 16  1  0  0  0  0
  6  7  1  0  0  0  0
  7  8  1  0  0  0  0
  8  9  1  0  0  0  0
  8 10  2  0  0  0  0
  9 12  1  0  0  0  0
  9 16  2  0  0  0  0
 11 13  1  0  0  0  0
 11 12  1  0  0  0  0
 12 14  1  0  0  0  0
 14 15  1  0  0  0  0
 14 18  1  6  0  0  0
 15 17  1  0  0  0  0
 16 17  1  0  0  0  0
 18 19  1  0  0  0  0
 19 23  1  0  0  0  0
 20 21  2  0  0  0  0
 20 25  1  0  0  0  0
 21 22  1  0  0  0  0
 22 23  2  0  0  0  0
 23 24  1  0  0  0  0
 24 25  2  0  0  0  0
M  END
>  <CHROM.1>
88.81868121,-69.62104966,-27.32848623,-45.81019439,-156.98917194,5.51319822
-21.81726966,25.13925699,-3.07722326,0.22854454,-1.78769585

>  <Name>
ligand

>  <RI>
0

>  <Rbt.Current_Directory>
/home/itssahil/PROJECTS/Mol_Feturizer/New_Systems/rnas/4LVV

>  <Rbt.Executable>
rbdock ($Id: //depot/dev/client3/rdock/2013.1/src/exe/rbdock.cxx#4 $)

>  <Rbt.Library>
libRbt.so (2013.1, Build901 2013/11/27)

>  <Rbt.Parameter_File>
/export/apps/rDock/src/rDock_2013.1_src/data/scripts/dock_solv.prm

>  <Rbt.Receptor>
prm/pocket_docking_2.prm

>  <SCORE>
-10.8449

>  <SCORE.INTER>
-10.274

>  <SCORE.INTER.CONST>
1

>  <SCORE.INTER.POLAR>
0

>  <SCORE.INTER.ROT>
5

>  <SCORE.INTER.SOLV>
13.7293

>  <SCORE.INTER.VDW>
-18.3591

>  <SCORE.INTER.norm>
-0.410959

>  <SCORE.INTRA>
-1.02927

>  <SCORE.INTRA.DIHEDRAL>
0.501555

>  <SCORE.INTRA.DIHEDRAL.0>
3.94806

>  <SCORE.INTRA.POLAR>
0

>  <SCORE.INTRA.POLAR.0>
0

>  <SCORE.INTRA.REPUL>
0

>  <SCORE.INTRA.REPUL.0>
0

>  <SCORE.INTRA.SOLV>
0.730951

>  <SCORE.INTRA.SOLV.lig_0>
-70.9803

>  <SCORE.INTRA.VDW>
-1.64552

>  <SCORE.INTRA.VDW.0>
-0.709409

>  <SCORE.INTRA.norm>
-0.0411707

>  <SCORE.RESTR>
0.458391

>  <SCORE.RESTR.CAVITY>
0.458391

>  <SCORE.RESTR.norm>
0.0183357

>  <SCORE.SYSTEM>
0

>  <SCORE.SYSTEM.CONST>
0

>  <SCORE.SYSTEM.DIHEDRAL>
0

>  <SCORE.SYSTEM.SOLV>
0

>  <SCORE.SYSTEM.norm>
0

>  <SCORE.heavy>
25

>  <SCORE.norm>
-0.433794

>  <RMSD>
7.562

$$$$
ligand
 OpenBabel11021811503D
libRbt.so/2013.1/901 2013/11/27
 25 27  0  0  0  0  0  0  0  0999 V2000
   -0.1582  -21.5869   27.0864 N   0  0  0  0  0  0  0  0  0  0  0  0
   -0.0922  -21.2299   25.7031 C   0  0  0  0  0  0  0  0  0  0  0  0
   -1.1104  -21.1551   25.0264 O   0  0  0  0  0  0  0  0  0  0  0  0
   11.6040  -21.6952   24.9447 N   0  0  0  0  0  0  0  0  0  0  0  0
    9.6778  -22.5895   23.8242 N   0  0  0  0  0  0  0  0  0  0  0  0
   10.1950  -21.9090   24.8731 C   0  0  0  0  0  0  0  0  0  0  0  0
    9.3917  -21.4316   25.8708 N   0  0  0  0  0  0  0  0  0  0  0  0
    8.0461  -21.6097   25.8595 C   0  0  0  0  0  0  0  0  0  0  0  0
    7.4648  -22.3043   24.7718 C   0  0  0  0  0  0  0  0  0  0  0  0
    7.2892  -21.0955   26.8859 O   0  0  0  0  0  0  0  0  0  0  0  0
    5.1996  -22.9445   25.7503 C   0  0  0  0  0  0  0  0  0  0  0  0
    6.0462  -22.5919   24.6360 N   0  0  0  0  0  0  0  0  0  0  0  0
    4.2778  -23.7487   25.6647 O   0  0  0  0  0  0  0  0  0  0  0  0
    5.5689  -22.6097   23.3193 C   0  0  2  0  0  0  0  0  0  0  0  0
    6.3660  -23.6513   22.4928 C   0  0  0  0  0  0  0  0  0  0  0  0
    8.3274  -22.8110   23.7491 C   0  0  0  0  0  0  0  0  0  0  0  0
    7.7637  -23.5329   22.6051 N   0  0  0  0  0  0  0  0  0  0  0  0
    5.6777  -21.2368   22.6874 C   0  0  0  0  0  0  0  0  0  0  0  0
    4.9716  -20.1627   23.3291 N   0  0  0  0  0  0  0  0  0  0  0  0
    1.2381  -20.9329   25.1023 C   0  0  0  0  0  0  0  0  0  0  0  0
    2.2049  -20.2397   25.8175 C   0  0  0  0  0  0  0  0  0  0  0  0
    3.4364  -19.9793   25.2289 C   0  0  0  0  0  0  0  0  0  0  0  0
    3.7033  -20.4221   23.9349 C   0  0  0  0  0  0  0  0  0  0  0  0
    2.7401  -21.1222   23.2297 C   0  0  0  0  0  0  0  0  0  0  0  0
    1.5044  -21.3732   23.8139 C   0  0  0  0  0  0  0  0  0  0  0  0
  1  2  1  0  0  0  0
  2  3  2  0  0  0  0
  2 20  1  0  0  0  0
  4  6  1  0  0  0  0
  5  6  2  0  0  0  0
  5 16  1  0  0  0  0
  6  7  1  0  0  0  0
  7  8  1  0  0  0  0
  8  9  1  0  0  0  0
  8 10  2  0  0  0  0
  9 12  1  0  0  0  0
  9 16  2  0  0  0  0
 11 13  1  0  0  0  0
 11 12  1  0  0  0  0
 12 14  1  0  0  0  0
 14 15  1  0  0  0  0
 14 18  1  6  0  0  0
 15 17  1  0  0  0  0
 16 17  1  0  0  0  0
 18 19  1  0  0  0  0
 19 23  1  0  0  0  0
 20 21  2  0  0  0  0
 20 25  1  0  0  0  0
 21 22  1  0  0  0  0
 22 23  2  0  0  0  0
 23 24  1  0  0  0  0
 24 25  2  0  0  0  0
M  END
>  <CHROM.1>
-144.47413100,-59.33677369,-35.95587077,131.54328754,-38.48673566,5.27480124
-21.79298722,24.66804204,-3.02505494,0.09539727,-1.88070297

>  <Name>
ligand

>  <RI>
0

>  <Rbt.Current_Directory>
/home/itssahil/PROJECTS/Mol_Feturizer/New_Systems/rnas/4LVV

>  <Rbt.Executable>
rbdock ($Id: //depot/dev/client3/rdock/2013.1/src/exe/rbdock.cxx#4 $)

>  <Rbt.Library>
libRbt.so (2013.1, Build901 2013/11/27)

>  <Rbt.Parameter_File>
/export/apps/rDock/src/rDock_2013.1_src/data/scripts/dock_solv.prm

>  <Rbt.Receptor>
prm/pocket_docking_4.prm

>  <SCORE>
-13.1412

>  <SCORE.INTER>
-11.5588

>  <SCORE.INTER.CONST>
1

>  <SCORE.INTER.POLAR>
0

>  <SCORE.INTER.ROT>
5

>  <SCORE.INTER.SOLV>
15.015

>  <SCORE.INTER.VDW>
-19.6442

>  <SCORE.INTER.norm>
-0.462351

>  <SCORE.INTRA>
-1.58246

>  <SCORE.INTRA.DIHEDRAL>
-0.0827344

>  <SCORE.INTRA.DIHEDRAL.0>
3.94806

>  <SCORE.INTRA.POLAR>
0

>  <SCORE.INTRA.POLAR.0>
0

>  <SCORE.INTRA.REPUL>
0

>  <SCORE.INTRA.REPUL.0>
0

>  <SCORE.INTRA.SOLV>
0.11664

>  <SCORE.INTRA.SOLV.lig_0>
-70.9803

>  <SCORE.INTRA.VDW>
-1.59941

>  <SCORE.INTRA.VDW.0>
-0.709409

>  <SCORE.INTRA.norm>
-0.0632984

>  <SCORE.RESTR>
0

>  <SCORE.RESTR.CAVITY>
0

>  <SCORE.RESTR.norm>
0

>  <SCORE.SYSTEM>
0

>  <SCORE.SYSTEM.CONST>
0

>  <SCORE.SYSTEM.DIHEDRAL>
0

>  <SCORE.SYSTEM.SOLV>
0

>  <SCORE.SYSTEM.norm>
0

>  <SCORE.heavy>
25

>  <SCORE.norm>
-0.525649

>  <RMSD>
7.566

$$$$
ligand
 OpenBabel11021811503D
libRbt.so/2013.1/901 2013/11/27
 25 27  0  0  0  0  0  0  0  0999 V2000
   -0.1560  -21.5675   27.0498 N   0  0  0  0  0  0  0  0  0  0  0  0
   -0.0885  -21.2484   25.6573 C   0  0  0  0  0  0  0  0  0  0  0  0
   -1.1083  -21.1637   24.9842 O   0  0  0  0  0  0  0  0  0  0  0  0
   11.6637  -21.7074   24.9225 N   0  0  0  0  0  0  0  0  0  0  0  0
    9.7487  -22.6036   23.7846 N   0  0  0  0  0  0  0  0  0  0  0  0
   10.2579  -21.9409   24.8487 C   0  0  0  0  0  0  0  0  0  0  0  0
    9.4499  -21.5003   25.8593 N   0  0  0  0  0  0  0  0  0  0  0  0
    8.1072  -21.6987   25.8466 C   0  0  0  0  0  0  0  0  0  0  0  0
    7.5338  -22.3755   24.7435 C   0  0  0  0  0  0  0  0  0  0  0  0
    7.3450  -21.2213   26.8868 O   0  0  0  0  0  0  0  0  0  0  0  0
    5.2811  -23.0740   25.7109 C   0  0  0  0  0  0  0  0  0  0  0  0
    6.1195  -22.6814   24.6037 N   0  0  0  0  0  0  0  0  0  0  0  0
    4.1869  -23.6086   25.5675 O   0  0  0  0  0  0  0  0  0  0  0  0
    5.6393  -22.6746   23.2880 C   0  0  2  0  0  0  0  0  0  0  0  0
    6.4502  -23.6834   22.4346 C   0  0  0  0  0  0  0  0  0  0  0  0
    8.4016  -22.8439   23.7069 C   0  0  0  0  0  0  0  0  0  0  0  0
    7.8462  -23.5463   22.5468 N   0  0  0  0  0  0  0  0  0  0  0  0
    5.7256  -21.2851   22.6894 C   0  0  0  0  0  0  0  0  0  0  0  0
    5.0273  -20.2326   23.3742 N   0  0  0  0  0  0  0  0  0  0  0  0
    1.2457  -21.0031   25.0421 C   0  0  0  0  0  0  0  0  0  0  0  0
    1.5888  -21.5825   23.8283 C   0  0  0  0  0  0  0  0  0  0  0  0
    2.8412  -21.3333   23.2804 C   0  0  0  0  0  0  0  0  0  0  0  0
    3.7412  -20.4974   23.9385 C   0  0  0  0  0  0  0  0  0  0  0  0
    3.3907  -19.9134   25.1432 C   0  0  0  0  0  0  0  0  0  0  0  0
    2.1424  -20.1713   25.6969 C   0  0  0  0  0  0  0  0  0  0  0  0
  1  2  1  0  0  0  0
  2  3  2  0  0  0  0
  2 20  1  0  0  0  0
  4  6  1  0  0  0  0
  5  6  2  0  0  0  0
  5 16  1  0  0  0  0
  6  7  1  0  0  0  0
  7  8  1  0  0  0  0
  8  9  1  0  0  0  0
  8 10  2  0  0  0  0
  9 12  1  0  0  0  0
  9 16  2  0  0  0  0
 11 13  1  0  0  0  0
 11 12  1  0  0  0  0
 12 14  1  0  0  0  0
 14 15  1  0  0  0  0
 14 18  1  6  0  0  0
 15 17  1  0  0  0  0
 16 17  1  0  0  0  0
 18 19  1  0  0  0  0
 19 23  1  0  0  0  0
 20 21  2  0  0  0  0
 20 25  1  0  0  0  0
 21 22  1  0  0  0  0
 22 23  2  0  0  0  0
 23 24  1  0  0  0  0
 24 25  2  0  0  0  0
M  END
>  <CHROM.1>
-163.47489213,-58.07973660,-39.32767841,-37.27401320,134.03197169,5.31606544
-21.83885565,24.63695317,-3.02210320,0.09259396,-1.91000290

>  <Name>
ligand

>  <RI>
0

>  <Rbt.Current_Directory>
/home/itssahil/PROJECTS/Mol_Feturizer/New_Systems/rnas/4LVV

>  <Rbt.Executable>
rbdock ($Id: //depot/dev/client3/rdock/2013.1/src/exe/rbdock.cxx#4 $)

>  <Rbt.Library>
libRbt.so (2013.1, Build901 2013/11/27)

>  <Rbt.Parameter_File>
/export/apps/rDock/src/rDock_2013.1_src/data/scripts/dock_solv.prm

>  <Rbt.Receptor>
prm/pocket_docking_3.prm

>  <SCORE>
-13.5821

>  <SCORE.INTER>
-12.0987

>  <SCORE.INTER.CONST>
1

>  <SCORE.INTER.POLAR>
0

>  <SCORE.INTER.ROT>
5

>  <SCORE.INTER.SOLV>
14.8334

>  <SCORE.INTER.VDW>
-19.9436

>  <SCORE.INTER.norm>
-0.483948

>  <SCORE.INTRA>
-1.48342

>  <SCORE.INTRA.DIHEDRAL>
-0.266875

>  <SCORE.INTRA.DIHEDRAL.0>
3.94806

>  <SCORE.INTRA.POLAR>
0

>  <SCORE.INTRA.POLAR.0>
0

>  <SCORE.INTRA.REPUL>
0

>  <SCORE.INTRA.REPUL.0>
0

>  <SCORE.INTRA.SOLV>
0.343782

>  <SCORE.INTRA.SOLV.lig_0>
-70.9803

>  <SCORE.INTRA.VDW>
-1.52187

>  <SCORE.INTRA.VDW.0>
-0.709409

>  <SCORE.INTRA.norm>
-0.0593367

>  <SCORE.RESTR>
0

>  <SCORE.RESTR.CAVITY>
0

>  <SCORE.RESTR.norm>
0

>  <SCORE.SYSTEM>
0

>  <SCORE.SYSTEM.CONST>
0

>  <SCORE.SYSTEM.DIHEDRAL>
0

>  <SCORE.SYSTEM.SOLV>
0

>  <SCORE.SYSTEM.norm>
0

>  <SCORE.heavy>
25

>  <SCORE.norm>
-0.543285

>  <RMSD>
7.590

$$$$
ligand
 OpenBabel11021811503D
libRbt.so/2013.1/901 2013/11/27
 25 27  0  0  0  0  0  0  0  0999 V2000
    6.4304  -22.2096   29.5999 N   0  0  0  0  0  0  0  0  0  0  0  0
    5.3465  -22.0166   28.6869 C   0  0  0  0  0  0  0  0  0  0  0  0
    4.2980  -21.5044   29.0589 O   0  0  0  0  0  0  0  0  0  0  0  0
   11.5775  -19.9416   20.9126 N   0  0  0  0  0  0  0  0  0  0  0  0
    9.3039  -20.4852   20.3645 N   0  0  0  0  0  0  0  0  0  0  0  0
   10.5068  -20.8821   20.8401 C   0  0  0  0  0  0  0  0  0  0  0  0
   10.7169  -22.1713   21.2429 N   0  0  0  0  0  0  0  0  0  0  0  0
    9.7383  -23.1106   21.1913 C   0  0  0  0  0  0  0  0  0  0  0  0
    8.4611  -22.7314   20.7131 C   0  0  0  0  0  0  0  0  0  0  0  0
   10.0068  -24.3886   21.6221 O   0  0  0  0  0  0  0  0  0  0  0  0
    7.4515  -25.0033   20.1499 C   0  0  0  0  0  0  0  0  0  0  0  0
    7.3269  -23.6307   20.5779 N   0  0  0  0  0  0  0  0  0  0  0  0
    7.6808  -25.3262   18.9893 O   0  0  0  0  0  0  0  0  0  0  0  0
    6.0745  -23.0405   20.7897 C   0  0  2  0  0  0  0  0  0  0  0  0
    5.8865  -21.8561   19.8072 C   0  0  0  0  0  0  0  0  0  0  0  0
    8.2704  -21.3814   20.2796 C   0  0  0  0  0  0  0  0  0  0  0  0
    6.9620  -20.9489   19.7809 N   0  0  0  0  0  0  0  0  0  0  0  0
    5.9367  -22.5668   22.2225 C   0  0  0  0  0  0  0  0  0  0  0  0
    6.0998  -23.5514   23.2561 N   0  0  0  0  0  0  0  0  0  0  0  0
    5.5218  -22.4347   27.2680 C   0  0  0  0  0  0  0  0  0  0  0  0
    4.5245  -23.1339   26.6022 C   0  0  0  0  0  0  0  0  0  0  0  0
    4.7184  -23.5089   25.2783 C   0  0  0  0  0  0  0  0  0  0  0  0
    5.9000  -23.1741   24.6201 C   0  0  0  0  0  0  0  0  0  0  0  0
    6.8871  -22.4675   25.2848 C   0  0  0  0  0  0  0  0  0  0  0  0
    6.6981  -22.1020   26.6121 C   0  0  0  0  0  0  0  0  0  0  0  0
  1  2  1  0  0  0  0
  2  3  2  0  0  0  0
  2 20  1  0  0  0  0
  4  6  1  0  0  0  0
  5  6  2  0  0  0  0
  5 16  1  0  0  0  0
  6  7  1  0  0  0  0
  7  8  1  0  0  0  0
  8  9  1  0  0  0  0
  8 10  2  0  0  0  0
  9 12  1  0  0  0  0
  9 16  2  0  0  0  0
 11 13  1  0  0  0  0
 11 12  1  0  0  0  0
 12 14  1  0  0  0  0
 14 15  1  0  0  0  0
 14 18  1  1  0  0  0
 15 17  1  0  0  0  0
 16 17  1  0  0  0  0
 18 19  1  0  0  0  0
 19 23  1  0  0  0  0
 20 21  2  0  0  0  0
 20 25  1  0  0  0  0
 21 22  1  0  0  0  0
 22 23  2  0  0  0  0
 23 24  1  0  0  0  0
 24 25  2  0  0  0  0
M  END
>  <CHROM.1>
-73.80662722,-57.76317040,-176.24926801,102.32164398,135.40083289,7.31896914
-22.56896310,22.95561106,-2.08236133,-0.54657670,-1.87848231

>  <Name>
ligand

>  <RI>
0

>  <Rbt.Current_Directory>
/home/itssahil/PROJECTS/Mol_Feturizer/New_Systems/rnas/4LVV

>  <Rbt.Executable>
rbdock ($Id: //depot/dev/client3/rdock/2013.1/src/exe/rbdock.cxx#4 $)

>  <Rbt.Library>
libRbt.so (2013.1, Build901 2013/11/27)

>  <Rbt.Parameter_File>
/export/apps/rDock/src/rDock_2013.1_src/data/scripts/dock_solv.prm

>  <Rbt.Receptor>
prm/pocket_docking_7.prm

>  <SCORE>
-10.0998

>  <SCORE.INTER>
-8.45292

>  <SCORE.INTER.CONST>
1

>  <SCORE.INTER.POLAR>
0

>  <SCORE.INTER.ROT>
5

>  <SCORE.INTER.SOLV>
11.5927

>  <SCORE.INTER.VDW>
-16.4329

>  <SCORE.INTER.norm>
-0.338117

>  <SCORE.INTRA>
-1.64692

>  <SCORE.INTRA.DIHEDRAL>
-0.805182

>  <SCORE.INTRA.DIHEDRAL.0>
3.94806

>  <SCORE.INTRA.POLAR>
0

>  <SCORE.INTRA.POLAR.0>
0

>  <SCORE.INTRA.REPUL>
0

>  <SCORE.INTRA.REPUL.0>
0

>  <SCORE.INTRA.SOLV>
-0.0492696

>  <SCORE.INTRA.SOLV.lig_0>
-70.9803

>  <SCORE.INTRA.VDW>
-1.21969

>  <SCORE.INTRA.VDW.0>
-0.709409

>  <SCORE.INTRA.norm>
-0.0658768

>  <SCORE.RESTR>
0

>  <SCORE.RESTR.CAVITY>
0

>  <SCORE.RESTR.norm>
0

>  <SCORE.SYSTEM>
0

>  <SCORE.SYSTEM.CONST>
0

>  <SCORE.SYSTEM.DIHEDRAL>
0

>  <SCORE.SYSTEM.SOLV>
0

>  <SCORE.SYSTEM.norm>
0

>  <SCORE.heavy>
25

>  <SCORE.norm>
-0.403993

>  <RMSD>
7.594

$$$$
ligand
 OpenBabel11021811503D
libRbt.so/2013.1/901 2013/11/27
 25 27  0  0  0  0  0  0  0  0999 V2000
   -1.6881  -20.8889   25.3609 N   0  0  0  0  0  0  0  0  0  0  0  0
   -0.5335  -21.2339   26.1311 C   0  0  0  0  0  0  0  0  0  0  0  0
   -0.6466  -21.8190   27.2011 O   0  0  0  0  0  0  0  0  0  0  0  0
   11.2118  -21.5728   24.5724 N   0  0  0  0  0  0  0  0  0  0  0  0
    9.2348  -22.1799   23.3525 N   0  0  0  0  0  0  0  0  0  0  0  0
    9.8087  -21.8280   24.5262 C   0  0  0  0  0  0  0  0  0  0  0  0
    9.0689  -21.7227   25.6708 N   0  0  0  0  0  0  0  0  0  0  0  0
    7.7324  -21.9592   25.6890 C   0  0  0  0  0  0  0  0  0  0  0  0
    7.0920  -22.3160   24.4781 C   0  0  0  0  0  0  0  0  0  0  0  0
    7.0398  -21.8253   26.8694 O   0  0  0  0  0  0  0  0  0  0  0  0
    4.9280  -23.3436   25.3495 C   0  0  0  0  0  0  0  0  0  0  0  0
    5.6767  -22.6221   24.3487 N   0  0  0  0  0  0  0  0  0  0  0  0
    4.3968  -22.8000   26.3118 O   0  0  0  0  0  0  0  0  0  0  0  0
    5.1020  -22.2600   23.1238 C   0  0  2  0  0  0  0  0  0  0  0  0
    5.8660  -22.9542   21.9671 C   0  0  0  0  0  0  0  0  0  0  0  0
    7.8900  -22.4382   23.2969 C   0  0  0  0  0  0  0  0  0  0  0  0
    7.2639  -22.8027   22.0230 N   0  0  0  0  0  0  0  0  0  0  0  0
    5.1206  -20.7556   22.9429 C   0  0  0  0  0  0  0  0  0  0  0  0
    4.5981  -19.9602   24.0192 N   0  0  0  0  0  0  0  0  0  0  0  0
    0.8132  -20.8836   25.5997 C   0  0  0  0  0  0  0  0  0  0  0  0
    1.7322  -20.1977   26.3819 C   0  0  0  0  0  0  0  0  0  0  0  0
    2.9806  -19.8865   25.8570 C   0  0  0  0  0  0  0  0  0  0  0  0
    3.3122  -20.2718   24.5596 C   0  0  0  0  0  0  0  0  0  0  0  0
    2.3965  -20.9649   23.7873 C   0  0  0  0  0  0  0  0  0  0  0  0
    1.1439  -21.2666   24.3079 C   0  0  0  0  0  0  0  0  0  0  0  0
  1  2  1  0  0  0  0
  2  3  2  0  0  0  0
  2 20  1  0  0  0  0
  4  6  1  0  0  0  0
  5  6  2  0  0  0  0
  5 16  1  0  0  0  0
  6  7  1  0  0  0  0
  7  8  1  0  0  0  0
  8  9  1  0  0  0  0
  8 10  2  0  0  0  0
  9 12  1  0  0  0  0
  9 16  2  0  0  0  0
 11 13  1  0  0  0  0
 11 12  1  0  0  0  0
 12 14  1  0  0  0  0
 14 15  1  0  0  0  0
 14 18  1  6  0  0  0
 15 17  1  0  0  0  0
 16 17  1  0  0  0  0
 18 19  1  0  0  0  0
 19 23  1  0  0  0  0
 20 21  2  0  0  0  0
 20 25  1  0  0  0  0
 21 22  1  0  0  0  0
 22 23  2  0  0  0  0
 23 24  1  0  0  0  0
 24 25  2  0  0  0  0
M  END
>  <CHROM.1>
86.58333410,-50.85960453,-50.28762858,156.43699222,128.82720436,4.89287491
-21.66574868,24.73412346,2.95237420,-0.10930531,1.49625122

>  <Name>
ligand

>  <RI>
0

>  <Rbt.Current_Directory>
/home/itssahil/PROJECTS/Mol_Feturizer/New_Systems/rnas/4LVV

>  <Rbt.Executable>
rbdock ($Id: //depot/dev/client3/rdock/2013.1/src/exe/rbdock.cxx#4 $)

>  <Rbt.Library>
libRbt.so (2013.1, Build901 2013/11/27)

>  <Rbt.Parameter_File>
/export/apps/rDock/src/rDock_2013.1_src/data/scripts/dock_solv.prm

>  <Rbt.Receptor>
prm/pocket_docking_5.prm

>  <SCORE>
-14.413

>  <SCORE.INTER>
-13.3582

>  <SCORE.INTER.CONST>
1

>  <SCORE.INTER.POLAR>
0

>  <SCORE.INTER.ROT>
5

>  <SCORE.INTER.SOLV>
14.1096

>  <SCORE.INTER.VDW>
-20.542

>  <SCORE.INTER.norm>
-0.534329

>  <SCORE.INTRA>
-1.13452

>  <SCORE.INTRA.DIHEDRAL>
-0.164679

>  <SCORE.INTRA.DIHEDRAL.0>
3.94806

>  <SCORE.INTRA.POLAR>
0

>  <SCORE.INTRA.POLAR.0>
0

>  <SCORE.INTRA.REPUL>
0

>  <SCORE.INTRA.REPUL.0>
0

>  <SCORE.INTRA.SOLV>
1.05315

>  <SCORE.INTRA.SOLV.lig_0>
-70.9803

>  <SCORE.INTRA.VDW>
-1.57876

>  <SCORE.INTRA.VDW.0>
-0.709409

>  <SCORE.INTRA.norm>
-0.0453809

>  <SCORE.RESTR>
0.0797787

>  <SCORE.RESTR.CAVITY>
0.0797787

>  <SCORE.RESTR.norm>
0.00319115

>  <SCORE.SYSTEM>
0

>  <SCORE.SYSTEM.CONST>
0

>  <SCORE.SYSTEM.DIHEDRAL>
0

>  <SCORE.SYSTEM.SOLV>
0

>  <SCORE.SYSTEM.norm>
0

>  <SCORE.heavy>
25

>  <SCORE.norm>
-0.576518

>  <RMSD>
7.612

$$$$
ligand
 OpenBabel11021811503D
libRbt.so/2013.1/901 2013/11/27
 25 27  0  0  0  0  0  0  0  0999 V2000
    6.2820  -22.2533   29.8433 N   0  0  0  0  0  0  0  0  0  0  0  0
    5.2578  -21.9669   28.8871 C   0  0  0  0  0  0  0  0  0  0  0  0
    4.2340  -21.3840   29.2218 O   0  0  0  0  0  0  0  0  0  0  0  0
   11.7087  -20.3655   20.7722 N   0  0  0  0  0  0  0  0  0  0  0  0
    9.3710  -20.7241   20.3577 N   0  0  0  0  0  0  0  0  0  0  0  0
   10.5616  -21.2143   20.7736 C   0  0  0  0  0  0  0  0  0  0  0  0
   10.6866  -22.5117   21.1853 N   0  0  0  0  0  0  0  0  0  0  0  0
    9.6324  -23.3667   21.2025 C   0  0  0  0  0  0  0  0  0  0  0  0
    8.3663  -22.8880   20.7884 C   0  0  0  0  0  0  0  0  0  0  0  0
    9.8181  -24.6575   21.6389 O   0  0  0  0  0  0  0  0  0  0  0  0
    7.1428  -25.0744   20.3183 C   0  0  0  0  0  0  0  0  0  0  0  0
    7.1560  -23.6912   20.7299 N   0  0  0  0  0  0  0  0  0  0  0  0
    7.8105  -25.5026   19.3830 O   0  0  0  0  0  0  0  0  0  0  0  0
    5.9703  -22.9962   20.9999 C   0  0  2  0  0  0  0  0  0  0  0  0
    5.8264  -21.8119   20.0098 C   0  0  0  0  0  0  0  0  0  0  0  0
    8.2639  -21.5320   20.3439 C   0  0  0  0  0  0  0  0  0  0  0  0
    6.9700  -20.9979   19.9101 N   0  0  0  0  0  0  0  0  0  0  0  0
    5.9520  -22.4959   22.4301 C   0  0  0  0  0  0  0  0  0  0  0  0
    6.1417  -23.4715   23.4676 N   0  0  0  0  0  0  0  0  0  0  0  0
    5.4661  -22.3755   27.4699 C   0  0  0  0  0  0  0  0  0  0  0  0
    4.4525  -22.9921   26.7492 C   0  0  0  0  0  0  0  0  0  0  0  0
    4.6782  -23.3604   25.4285 C   0  0  0  0  0  0  0  0  0  0  0  0
    5.9086  -23.1010   24.8281 C   0  0  0  0  0  0  0  0  0  0  0  0
    6.9126  -22.4764   25.5474 C   0  0  0  0  0  0  0  0  0  0  0  0
    6.6910  -22.1179   26.8716 C   0  0  0  0  0  0  0  0  0  0  0  0
  1  2  1  0  0  0  0
  2  3  2  0  0  0  0
  2 20  1  0  0  0  0
  4  6  1  0  0  0  0
  5  6  2  0  0  0  0
  5 16  1  0  0  0  0
  6  7  1  0  0  0  0
  7  8  1  0  0  0  0
  8  9  1  0  0  0  0
  8 10  2  0  0  0  0
  9 12  1  0  0  0  0
  9 16  2  0  0  0  0
 11 13  1  0  0  0  0
 11 12  1  0  0  0  0
 12 14  1  0  0  0  0
 14 15  1  0  0  0  0
 14 18  1  1  0  0  0
 15 17  1  0  0  0  0
 16 17  1  0  0  0  0
 18 19  1  0  0  0  0
 19 23  1  0  0  0  0
 20 21  2  0  0  0  0
 20 25  1  0  0  0  0
 21 22  1  0  0  0  0
 22 23  2  0  0  0  0
 23 24  1  0  0  0  0
 24 25  2  0  0  0  0
M  END
>  <CHROM.1>
-40.78426833,-55.44320572,-169.41598671,95.58130631,135.22822436,7.27607923
-22.64236810,23.09258108,-2.07233228,-0.49203359,-1.87740455

>  <Name>
ligand

>  <RI>
0

>  <Rbt.Current_Directory>
/home/itssahil/PROJECTS/Mol_Feturizer/New_Systems/rnas/4LVV

>  <Rbt.Executable>
rbdock ($Id: //depot/dev/client3/rdock/2013.1/src/exe/rbdock.cxx#4 $)

>  <Rbt.Library>
libRbt.so (2013.1, Build901 2013/11/27)

>  <Rbt.Parameter_File>
/export/apps/rDock/src/rDock_2013.1_src/data/scripts/dock_solv.prm

>  <Rbt.Receptor>
prm/pocket_docking_8.prm

>  <SCORE>
-10.124

>  <SCORE.INTER>
-8.73656

>  <SCORE.INTER.CONST>
1

>  <SCORE.INTER.POLAR>
0

>  <SCORE.INTER.ROT>
5

>  <SCORE.INTER.SOLV>
11.7557

>  <SCORE.INTER.VDW>
-16.6763

>  <SCORE.INTER.norm>
-0.349462

>  <SCORE.INTRA>
-1.38745

>  <SCORE.INTRA.DIHEDRAL>
-0.417989

>  <SCORE.INTRA.DIHEDRAL.0>
3.94806

>  <SCORE.INTRA.POLAR>
0

>  <SCORE.INTRA.POLAR.0>
0

>  <SCORE.INTRA.REPUL>
0

>  <SCORE.INTRA.REPUL.0>
0

>  <SCORE.INTRA.SOLV>
0.126377

>  <SCORE.INTRA.SOLV.lig_0>
-70.9803

>  <SCORE.INTRA.VDW>
-1.24164

>  <SCORE.INTRA.VDW.0>
-0.709409

>  <SCORE.INTRA.norm>
-0.055498

>  <SCORE.RESTR>
0

>  <SCORE.RESTR.CAVITY>
0

>  <SCORE.RESTR.norm>
0

>  <SCORE.SYSTEM>
0

>  <SCORE.SYSTEM.CONST>
0

>  <SCORE.SYSTEM.DIHEDRAL>
0

>  <SCORE.SYSTEM.SOLV>
0

>  <SCORE.SYSTEM.norm>
0

>  <SCORE.heavy>
25

>  <SCORE.norm>
-0.40496

>  <RMSD>
7.613

$$$$
ligand
 OpenBabel11021811503D
libRbt.so/2013.1/901 2013/11/27
 25 27  0  0  0  0  0  0  0  0999 V2000
   -1.8576  -20.9313   25.4122 N   0  0  0  0  0  0  0  0  0  0  0  0
   -0.7549  -21.2093   26.2795 C   0  0  0  0  0  0  0  0  0  0  0  0
   -0.9128  -21.8627   27.3034 O   0  0  0  0  0  0  0  0  0  0  0  0
    9.0862  -24.5950   21.9084 N   0  0  0  0  0  0  0  0  0  0  0  0
    7.1559  -23.9207   23.1673 N   0  0  0  0  0  0  0  0  0  0  0  0
    8.4979  -23.8859   22.9981 C   0  0  0  0  0  0  0  0  0  0  0  0
    9.3008  -23.1916   23.8593 N   0  0  0  0  0  0  0  0  0  0  0  0
    8.7986  -22.5039   24.9163 C   0  0  0  0  0  0  0  0  0  0  0  0
    7.3978  -22.5037   25.1194 C   0  0  0  0  0  0  0  0  0  0  0  0
    9.6561  -21.8142   25.7410 O   0  0  0  0  0  0  0  0  0  0  0  0
    7.2537  -21.7755   27.5581 C   0  0  0  0  0  0  0  0  0  0  0  0
    6.7204  -21.8352   26.2184 N   0  0  0  0  0  0  0  0  0  0  0  0
    6.6689  -22.2327   28.5342 O   0  0  0  0  0  0  0  0  0  0  0  0
    5.4471  -21.3374   25.9142 C   0  0  2  0  0  0  0  0  0  0  0  0
    4.5460  -22.4927   25.4073 C   0  0  0  0  0  0  0  0  0  0  0  0
    6.5794  -23.2529   24.2161 C   0  0  0  0  0  0  0  0  0  0  0  0
    5.1246  -23.2753   24.3909 N   0  0  0  0  0  0  0  0  0  0  0  0
    5.5319  -20.2373   24.8755 C   0  0  0  0  0  0  0  0  0  0  0  0
    4.4097  -19.3460   24.7726 N   0  0  0  0  0  0  0  0  0  0  0  0
    0.5956  -20.7039   25.9061 C   0  0  0  0  0  0  0  0  0  0  0  0
    1.3157  -19.8890   26.7688 C   0  0  0  0  0  0  0  0  0  0  0  0
    2.5735  -19.4347   26.3912 C   0  0  0  0  0  0  0  0  0  0  0  0
    3.1132  -19.8051   25.1611 C   0  0  0  0  0  0  0  0  0  0  0  0
    2.3960  -20.6266   24.3089 C   0  0  0  0  0  0  0  0  0  0  0  0
    1.1334  -21.0721   24.6814 C   0  0  0  0  0  0  0  0  0  0  0  0
  1  2  1  0  0  0  0
  2  3  2  0  0  0  0
  2 20  1  0  0  0  0
  4  6  1  0  0  0  0
  5  6  2  0  0  0  0
  5 16  1  0  0  0  0
  6  7  1  0  0  0  0
  7  8  1  0  0  0  0
  8  9  1  0  0  0  0
  8 10  2  0  0  0  0
  9 12  1  0  0  0  0
  9 16  2  0  0  0  0
 11 13  1  0  0  0  0
 11 12  1  0  0  0  0
 12 14  1  0  0  0  0
 14 15  1  0  0  0  0
 14 18  1  6  0  0  0
 15 17  1  0  0  0  0
 16 17  1  0  0  0  0
 18 19  1  0  0  0  0
 19 23  1  0  0  0  0
 20 21  2  0  0  0  0
 20 25  1  0  0  0  0
 21 22  1  0  0  0  0
 22 23  2  0  0  0  0
 23 24  1  0  0  0  0
 24 25  2  0  0  0  0
M  END
>  <CHROM.1>
-120.22055055,-160.45306309,-26.66595161,102.00710314,123.53733840,4.86174980
-21.78060232,25.31254044,2.84694342,-0.15051139,1.07728978

>  <Name>
ligand

>  <RI>
0

>  <Rbt.Current_Directory>
/home/itssahil/PROJECTS/Mol_Feturizer/New_Systems/rnas/4LVV

>  <Rbt.Executable>
rbdock ($Id: //depot/dev/client3/rdock/2013.1/src/exe/rbdock.cxx#4 $)

>  <Rbt.Library>
libRbt.so (2013.1, Build901 2013/11/27)

>  <Rbt.Parameter_File>
/export/apps/rDock/src/rDock_2013.1_src/data/scripts/dock_solv.prm

>  <Rbt.Receptor>
prm/pocket_docking_3.prm

>  <SCORE>
-13.1087

>  <SCORE.INTER>
-12.8918

>  <SCORE.INTER.CONST>
1

>  <SCORE.INTER.POLAR>
0

>  <SCORE.INTER.ROT>
5

>  <SCORE.INTER.SOLV>
19.403

>  <SCORE.INTER.VDW>
-21.9955

>  <SCORE.INTER.norm>
-0.515672

>  <SCORE.INTRA>
-0.351468

>  <SCORE.INTRA.DIHEDRAL>
1.30509

>  <SCORE.INTRA.DIHEDRAL.0>
3.94806

>  <SCORE.INTRA.POLAR>
0

>  <SCORE.INTRA.POLAR.0>
0

>  <SCORE.INTRA.REPUL>
0

>  <SCORE.INTRA.REPUL.0>
0

>  <SCORE.INTRA.SOLV>
-0.460878

>  <SCORE.INTRA.SOLV.lig_0>
-70.9803

>  <SCORE.INTRA.VDW>
-0.773573

>  <SCORE.INTRA.VDW.0>
-0.709409

>  <SCORE.INTRA.norm>
-0.0140587

>  <SCORE.RESTR>
0.134595

>  <SCORE.RESTR.CAVITY>
0.134595

>  <SCORE.RESTR.norm>
0.0053838

>  <SCORE.SYSTEM>
0

>  <SCORE.SYSTEM.CONST>
0

>  <SCORE.SYSTEM.DIHEDRAL>
0

>  <SCORE.SYSTEM.SOLV>
0

>  <SCORE.SYSTEM.norm>
0

>  <SCORE.heavy>
25

>  <SCORE.norm>
-0.524347

>  <RMSD>
7.724

$$$$
ligand
 OpenBabel11021811503D
libRbt.so/2013.1/901 2013/11/27
 25 27  0  0  0  0  0  0  0  0999 V2000
   -1.7347  -20.8940   25.4385 N   0  0  0  0  0  0  0  0  0  0  0  0
   -0.5841  -21.1707   26.2417 C   0  0  0  0  0  0  0  0  0  0  0  0
   -0.6937  -21.7564   27.3118 O   0  0  0  0  0  0  0  0  0  0  0  0
   11.3978  -21.5249   23.8276 N   0  0  0  0  0  0  0  0  0  0  0  0
    9.2152  -22.0483   22.9746 N   0  0  0  0  0  0  0  0  0  0  0  0
    9.9981  -21.7173   24.0274 C   0  0  0  0  0  0  0  0  0  0  0  0
    9.4726  -21.5742   25.2811 N   0  0  0  0  0  0  0  0  0  0  0  0
    8.1504  -21.7506   25.5325 C   0  0  0  0  0  0  0  0  0  0  0  0
    7.2955  -22.0836   24.4547 C   0  0  0  0  0  0  0  0  0  0  0  0
    7.6789  -21.5808   26.8130 O   0  0  0  0  0  0  0  0  0  0  0  0
    5.2724  -23.0097   25.6987 C   0  0  0  0  0  0  0  0  0  0  0  0
    5.8672  -22.3267   24.5752 N   0  0  0  0  0  0  0  0  0  0  0  0
    4.2349  -23.6584   25.6171 O   0  0  0  0  0  0  0  0  0  0  0  0
    5.1056  -21.9445   23.4636 C   0  0  2  0  0  0  0  0  0  0  0  0
    5.6271  -22.6772   22.2008 C   0  0  0  0  0  0  0  0  0  0  0  0
    7.8711  -22.2465   23.1551 C   0  0  0  0  0  0  0  0  0  0  0  0
    7.0189  -22.5881   22.0128 N   0  0  0  0  0  0  0  0  0  0  0  0
    5.1577  -20.4433   23.2642 C   0  0  0  0  0  0  0  0  0  0  0  0
    4.5274  -19.6276   24.2649 N   0  0  0  0  0  0  0  0  0  0  0  0
    0.7551  -20.7484   25.7448 C   0  0  0  0  0  0  0  0  0  0  0  0
    1.5835  -19.9482   26.5195 C   0  0  0  0  0  0  0  0  0  0  0  0
    2.8274  -19.5722   26.0275 C   0  0  0  0  0  0  0  0  0  0  0  0
    3.2454  -20.0060   24.7710 C   0  0  0  0  0  0  0  0  0  0  0  0
    2.4204  -20.8126   24.0067 C   0  0  0  0  0  0  0  0  0  0  0  0
    1.1718  -21.1797   24.4937 C   0  0  0  0  0  0  0  0  0  0  0  0
  1  2  1  0  0  0  0
  2  3  2  0  0  0  0
  2 20  1  0  0  0  0
  4  6  1  0  0  0  0
  5  6  2  0  0  0  0
  5 16  1  0  0  0  0
  6  7  1  0  0  0  0
  7  8  1  0  0  0  0
  8  9  1  0  0  0  0
  8 10  2  0  0  0  0
  9 12  1  0  0  0  0
  9 16  2  0  0  0  0
 11 13  1  0  0  0  0
 11 12  1  0  0  0  0
 12 14  1  0  0  0  0
 14 15  1  0  0  0  0
 14 18  1  6  0  0  0
 15 17  1  0  0  0  0
 16 17  1  0  0  0  0
 18 19  1  0  0  0  0
 19 23  1  0  0  0  0
 20 21  2  0  0  0  0
 20 25  1  0  0  0  0
 21 22  1  0  0  0  0
 22 23  2  0  0  0  0
 23 24  1  0  0  0  0
 24 25  2  0  0  0  0
M  END
>  <CHROM.1>
-151.31128579,-67.25856195,-43.48832859,156.30874522,125.31843706,4.94960170
-21.51959564,24.72679885,2.92413697,-0.09565958,1.49651672

>  <Name>
ligand

>  <RI>
0

>  <Rbt.Current_Directory>
/home/itssahil/PROJECTS/Mol_Feturizer/New_Systems/rnas/4LVV

>  <Rbt.Executable>
rbdock ($Id: //depot/dev/client3/rdock/2013.1/src/exe/rbdock.cxx#4 $)

>  <Rbt.Library>
libRbt.so (2013.1, Build901 2013/11/27)

>  <Rbt.Parameter_File>
/export/apps/rDock/src/rDock_2013.1_src/data/scripts/dock_solv.prm

>  <Rbt.Receptor>
prm/pocket_docking_3.prm

>  <SCORE>
-12.4664

>  <SCORE.INTER>
-11.9451

>  <SCORE.INTER.CONST>
1

>  <SCORE.INTER.POLAR>
0

>  <SCORE.INTER.ROT>
5

>  <SCORE.INTER.SOLV>
13.9392

>  <SCORE.INTER.VDW>
-19.5431

>  <SCORE.INTER.norm>
-0.477803

>  <SCORE.INTRA>
-0.729474

>  <SCORE.INTRA.DIHEDRAL>
-0.136877

>  <SCORE.INTRA.DIHEDRAL.0>
3.94806

>  <SCORE.INTRA.POLAR>
0

>  <SCORE.INTRA.POLAR.0>
0

>  <SCORE.INTRA.REPUL>
0

>  <SCORE.INTRA.REPUL.0>
0

>  <SCORE.INTRA.SOLV>
-0.0307486

>  <SCORE.INTRA.SOLV.lig_0>
-70.9803

>  <SCORE.INTRA.VDW>
-0.645661

>  <SCORE.INTRA.VDW.0>
-0.709409

>  <SCORE.INTRA.norm>
-0.029179

>  <SCORE.RESTR>
0.208138

>  <SCORE.RESTR.CAVITY>
0.208138

>  <SCORE.RESTR.norm>
0.00832554

>  <SCORE.SYSTEM>
0

>  <SCORE.SYSTEM.CONST>
0

>  <SCORE.SYSTEM.DIHEDRAL>
0

>  <SCORE.SYSTEM.SOLV>
0

>  <SCORE.SYSTEM.norm>
0

>  <SCORE.heavy>
25

>  <SCORE.norm>
-0.498657

>  <RMSD>
7.727

$$$$
ligand
 OpenBabel11021811503D
libRbt.so/2013.1/901 2013/11/27
 25 27  0  0  0  0  0  0  0  0999 V2000
   -0.8036  -21.7029   27.3234 N   0  0  0  0  0  0  0  0  0  0  0  0
   -0.6347  -21.1213   26.0278 C   0  0  0  0  0  0  0  0  0  0  0  0
   -1.5979  -20.9352   25.2945 O   0  0  0  0  0  0  0  0  0  0  0  0
   11.6676  -21.8812   24.6529 N   0  0  0  0  0  0  0  0  0  0  0  0
    9.4452  -22.4166   23.9182 N   0  0  0  0  0  0  0  0  0  0  0  0
   10.2610  -21.9390   24.8863 C   0  0  0  0  0  0  0  0  0  0  0  0
    9.7619  -21.5204   26.0880 N   0  0  0  0  0  0  0  0  0  0  0  0
    8.4344  -21.5576   26.3689 C   0  0  0  0  0  0  0  0  0  0  0  0
    7.5462  -22.0373   25.3767 C   0  0  0  0  0  0  0  0  0  0  0  0
    7.9910  -21.1113   27.5917 O   0  0  0  0  0  0  0  0  0  0  0  0
    5.4837  -22.5691   26.7774 C   0  0  0  0  0  0  0  0  0  0  0  0
    6.1069  -22.1582   25.5422 N   0  0  0  0  0  0  0  0  0  0  0  0
    4.2827  -22.4509   26.9949 O   0  0  0  0  0  0  0  0  0  0  0  0
    5.3573  -21.9507   24.3774 C   0  0  2  0  0  0  0  0  0  0  0  0
    5.8146  -22.9477   23.2818 C   0  0  0  0  0  0  0  0  0  0  0  0
    8.0935  -22.4874   24.1338 C   0  0  0  0  0  0  0  0  0  0  0  0
    7.2067  -22.9883   23.0801 N   0  0  0  0  0  0  0  0  0  0  0  0
    5.5032  -20.5237   23.8890 C   0  0  0  0  0  0  0  0  0  0  0  0
    4.6009  -19.5488   24.4363 N   0  0  0  0  0  0  0  0  0  0  0  0
    0.7344  -20.7288   25.5915 C   0  0  0  0  0  0  0  0  0  0  0  0
    1.2486  -21.1647   24.3781 C   0  0  0  0  0  0  0  0  0  0  0  0
    2.5291  -20.7802   23.9995 C   0  0  0  0  0  0  0  0  0  0  0  0
    3.2864  -19.9525   24.8260 C   0  0  0  0  0  0  0  0  0  0  0  0
    2.7654  -19.5117   26.0300 C   0  0  0  0  0  0  0  0  0  0  0  0
    1.4891  -19.9051   26.4141 C   0  0  0  0  0  0  0  0  0  0  0  0
  1  2  1  0  0  0  0
  2  3  2  0  0  0  0
  2 20  1  0  0  0  0
  4  6  1  0  0  0  0
  5  6  2  0  0  0  0
  5 16  1  0  0  0  0
  6  7  1  0  0  0  0
  7  8  1  0  0  0  0
  8  9  1  0  0  0  0
  8 10  2  0  0  0  0
  9 12  1  0  0  0  0
  9 16  2  0  0  0  0
 11 13  1  0  0  0  0
 11 12  1  0  0  0  0
 12 14  1  0  0  0  0
 14 15  1  0  0  0  0
 14 18  1  6  0  0  0
 15 17  1  0  0  0  0
 16 17  1  0  0  0  0
 18 19  1  0  0  0  0
 19 23  1  0  0  0  0
 20 21  2  0  0  0  0
 20 25  1  0  0  0  0
 21 22  1  0  0  0  0
 22 23  2  0  0  0  0
 23 24  1  0  0  0  0
 24 25  2  0  0  0  0
M  END
>  <CHROM.1>
166.90654907,-87.07606116,-30.92872619,-44.59684865,127.78194609,5.09469769
-21.46293395,25.27676716,-3.04788491,0.12009682,-1.66798295

>  <Name>
ligand

>  <RI>
0

>  <Rbt.Current_Directory>
/home/itssahil/PROJECTS/Mol_Feturizer/New_Systems/rnas/4LVV

>  <Rbt.Executable>
rbdock ($Id: //depot/dev/client3/rdock/2013.1/src/exe/rbdock.cxx#4 $)

>  <Rbt.Library>
libRbt.so (2013.1, Build901 2013/11/27)

>  <Rbt.Parameter_File>
/export/apps/rDock/src/rDock_2013.1_src/data/scripts/dock_solv.prm

>  <Rbt.Receptor>
prm/pocket_docking_2.prm

>  <SCORE>
-10.412

>  <SCORE.INTER>
-10.4008

>  <SCORE.INTER.CONST>
1

>  <SCORE.INTER.POLAR>
0

>  <SCORE.INTER.ROT>
5

>  <SCORE.INTER.SOLV>
13.7606

>  <SCORE.INTER.VDW>
-18.4541

>  <SCORE.INTER.norm>
-0.416032

>  <SCORE.INTRA>
-0.17352

>  <SCORE.INTRA.DIHEDRAL>
1.97039

>  <SCORE.INTRA.DIHEDRAL.0>
3.94806

>  <SCORE.INTRA.POLAR>
0

>  <SCORE.INTRA.POLAR.0>
0

>  <SCORE.INTRA.REPUL>
0

>  <SCORE.INTRA.REPUL.0>
0

>  <SCORE.INTRA.SOLV>
-0.00678968

>  <SCORE.INTRA.SOLV.lig_0>
-70.9803

>  <SCORE.INTRA.VDW>
-1.15532

>  <SCORE.INTRA.VDW.0>
-0.709409

>  <SCORE.INTRA.norm>
-0.00694081

>  <SCORE.RESTR>
0.162305

>  <SCORE.RESTR.CAVITY>
0.162305

>  <SCORE.RESTR.norm>
0.00649221

>  <SCORE.SYSTEM>
0

>  <SCORE.SYSTEM.CONST>
0

>  <SCORE.SYSTEM.DIHEDRAL>
0

>  <SCORE.SYSTEM.SOLV>
0

>  <SCORE.SYSTEM.norm>
0

>  <SCORE.heavy>
25

>  <SCORE.norm>
-0.416481

>  <RMSD>
7.750

$$$$
ligand
 OpenBabel11021811503D
libRbt.so/2013.1/901 2013/11/27
 25 27  0  0  0  0  0  0  0  0999 V2000
   -0.7270  -21.6577   27.3433 N   0  0  0  0  0  0  0  0  0  0  0  0
   -0.6890  -21.1051   26.0247 C   0  0  0  0  0  0  0  0  0  0  0  0
   -1.7194  -20.9491   25.3812 O   0  0  0  0  0  0  0  0  0  0  0  0
   10.7666  -23.3011   22.2799 N   0  0  0  0  0  0  0  0  0  0  0  0
    8.4163  -23.2124   22.7632 N   0  0  0  0  0  0  0  0  0  0  0  0
    9.6871  -22.9422   23.1413 C   0  0  0  0  0  0  0  0  0  0  0  0
    9.9551  -22.3404   24.3390 N   0  0  0  0  0  0  0  0  0  0  0  0
    8.9700  -21.9821   25.2014 C   0  0  0  0  0  0  0  0  0  0  0  0
    7.6260  -22.2349   24.8361 C   0  0  0  0  0  0  0  0  0  0  0  0
    9.3015  -21.3688   26.3867 O   0  0  0  0  0  0  0  0  0  0  0  0
    6.4637  -22.0850   27.0999 C   0  0  0  0  0  0  0  0  0  0  0  0
    6.4712  -21.9303   25.6651 N   0  0  0  0  0  0  0  0  0  0  0  0
    5.4913  -22.4929   27.7258 O   0  0  0  0  0  0  0  0  0  0  0  0
    5.3142  -21.5736   24.9609 C   0  0  2  0  0  0  0  0  0  0  0  0
    4.9325  -22.7117   23.9799 C   0  0  0  0  0  0  0  0  0  0  0  0
    7.3712  -22.8826   23.5862 C   0  0  0  0  0  0  0  0  0  0  0  0
    5.9933  -23.1590   23.1706 N   0  0  0  0  0  0  0  0  0  0  0  0
    5.5192  -20.2736   24.2097 C   0  0  0  0  0  0  0  0  0  0  0  0
    4.3468  -19.4999   23.9080 N   0  0  0  0  0  0  0  0  0  0  0  0
    0.6271  -20.7057   25.4527 C   0  0  0  0  0  0  0  0  0  0  0  0
    1.0666  -21.2262   24.2433 C   0  0  0  0  0  0  0  0  0  0  0  0
    2.2990  -20.8328   23.7362 C   0  0  0  0  0  0  0  0  0  0  0  0
    3.0821  -19.9126   24.4304 C   0  0  0  0  0  0  0  0  0  0  0  0
    2.6349  -19.3883   25.6306 C   0  0  0  0  0  0  0  0  0  0  0  0
    1.4074  -19.7899   26.1435 C   0  0  0  0  0  0  0  0  0  0  0  0
  1  2  1  0  0  0  0
  2  3  2  0  0  0  0
  2 20  1  0  0  0  0
  4  6  1  0  0  0  0
  5  6  2  0  0  0  0
  5 16  1  0  0  0  0
  6  7  1  0  0  0  0
  7  8  1  0  0  0  0
  8  9  1  0  0  0  0
  8 10  2  0  0  0  0
  9 12  1  0  0  0  0
  9 16  2  0  0  0  0
 11 13  1  0  0  0  0
 11 12  1  0  0  0  0
 12 14  1  0  0  0  0
 14 15  1  0  0  0  0
 14 18  1  6  0  0  0
 15 17  1  0  0  0  0
 16 17  1  0  0  0  0
 18 19  1  0  0  0  0
 19 23  1  0  0  0  0
 20 21  2  0  0  0  0
 20 25  1  0  0  0  0
 21 22  1  0  0  0  0
 22 23  2  0  0  0  0
 23 24  1  0  0  0  0
 24 25  2  0  0  0  0
M  END
>  <CHROM.1>
-141.95241943,-155.11596030,5.96440160,-86.93403802,123.91917754,5.03656393
-21.60911711,24.90117497,-2.95344301,0.18813102,-1.65290620

>  <Name>
ligand

>  <RI>
0

>  <Rbt.Current_Directory>
/home/itssahil/PROJECTS/Mol_Feturizer/New_Systems/rnas/4LVV

>  <Rbt.Executable>
rbdock ($Id: //depot/dev/client3/rdock/2013.1/src/exe/rbdock.cxx#4 $)

>  <Rbt.Library>
libRbt.so (2013.1, Build901 2013/11/27)

>  <Rbt.Parameter_File>
/export/apps/rDock/src/rDock_2013.1_src/data/scripts/dock_solv.prm

>  <Rbt.Receptor>
prm/pocket_docking_2.prm

>  <SCORE>
-10.0203

>  <SCORE.INTER>
-10.355

>  <SCORE.INTER.CONST>
1

>  <SCORE.INTER.POLAR>
0

>  <SCORE.INTER.ROT>
5

>  <SCORE.INTER.SOLV>
15.3191

>  <SCORE.INTER.VDW>
-18.9431

>  <SCORE.INTER.norm>
-0.414202

>  <SCORE.INTRA>
0.181358

>  <SCORE.INTRA.DIHEDRAL>
2.58464

>  <SCORE.INTRA.DIHEDRAL.0>
3.94806

>  <SCORE.INTRA.POLAR>
0

>  <SCORE.INTRA.POLAR.0>
0

>  <SCORE.INTRA.REPUL>
0

>  <SCORE.INTRA.REPUL.0>
0

>  <SCORE.INTRA.SOLV>
-0.588098

>  <SCORE.INTRA.SOLV.lig_0>
-70.9803

>  <SCORE.INTRA.VDW>
-0.816914

>  <SCORE.INTRA.VDW.0>
-0.709409

>  <SCORE.INTRA.norm>
0.00725433

>  <SCORE.RESTR>
0.153428

>  <SCORE.RESTR.CAVITY>
0.153428

>  <SCORE.RESTR.norm>
0.00613713

>  <SCORE.SYSTEM>
0

>  <SCORE.SYSTEM.CONST>
0

>  <SCORE.SYSTEM.DIHEDRAL>
0

>  <SCORE.SYSTEM.SOLV>
0

>  <SCORE.SYSTEM.norm>
0

>  <SCORE.heavy>
25

>  <SCORE.norm>
-0.40081

>  <RMSD>
7.809

$$$$
ligand
 OpenBabel11021811503D
libRbt.so/2013.1/901 2013/11/27
 25 27  0  0  0  0  0  0  0  0999 V2000
   -1.8873  -20.9023   25.5741 N   0  0  0  0  0  0  0  0  0  0  0  0
   -0.6709  -21.1129   26.2962 C   0  0  0  0  0  0  0  0  0  0  0  0
   -0.6791  -21.6660   27.3889 O   0  0  0  0  0  0  0  0  0  0  0  0
   11.5234  -21.9903   24.2987 N   0  0  0  0  0  0  0  0  0  0  0  0
    9.2164  -22.3705   23.7525 N   0  0  0  0  0  0  0  0  0  0  0  0
   10.1420  -21.9720   24.6555 C   0  0  0  0  0  0  0  0  0  0  0  0
    9.7769  -21.5620   25.9073 N   0  0  0  0  0  0  0  0  0  0  0  0
    8.4795  -21.5293   26.3048 C   0  0  0  0  0  0  0  0  0  0  0  0
    7.4797  -21.9249   25.3842 C   0  0  0  0  0  0  0  0  0  0  0  0
    8.1735  -21.0956   27.5734 O   0  0  0  0  0  0  0  0  0  0  0  0
    5.5194  -22.3769   26.9498 C   0  0  0  0  0  0  0  0  0  0  0  0
    6.0558  -21.9656   25.6747 N   0  0  0  0  0  0  0  0  0  0  0  0
    4.4621  -22.9868   27.0679 O   0  0  0  0  0  0  0  0  0  0  0  0
    5.2211  -21.6784   24.5873 C   0  0  2  0  0  0  0  0  0  0  0  0
    5.5182  -22.6664   23.4301 C   0  0  0  0  0  0  0  0  0  0  0  0
    7.8871  -22.3680   24.0863 C   0  0  0  0  0  0  0  0  0  0  0  0
    6.8821  -22.7828   23.1037 N   0  0  0  0  0  0  0  0  0  0  0  0
    5.4111  -20.2480   24.1244 C   0  0  0  0  0  0  0  0  0  0  0  0
    4.2248  -19.4698   23.8985 N   0  0  0  0  0  0  0  0  0  0  0  0
    0.6114  -20.6622   25.6868 C   0  0  0  0  0  0  0  0  0  0  0  0
    1.4124  -19.7239   26.3230 C   0  0  0  0  0  0  0  0  0  0  0  0
    2.6033  -19.3248   25.7286 C   0  0  0  0  0  0  0  0  0  0  0  0
    2.9968  -19.8722   24.5091 C   0  0  0  0  0  0  0  0  0  0  0  0
    2.2001  -20.8154   23.8837 C   0  0  0  0  0  0  0  0  0  0  0  0
    1.0036  -21.2066   24.4725 C   0  0  0  0  0  0  0  0  0  0  0  0
  1  2  1  0  0  0  0
  2  3  2  0  0  0  0
  2 20  1  0  0  0  0
  4  6  1  0  0  0  0
  5  6  2  0  0  0  0
  5 16  1  0  0  0  0
  6  7  1  0  0  0  0
  7  8  1  0  0  0  0
  8  9  1  0  0  0  0
  8 10  2  0  0  0  0
  9 12  1  0  0  0  0
  9 16  2  0  0  0  0
 11 13  1  0  0  0  0
 11 12  1  0  0  0  0
 12 14  1  0  0  0  0
 14 15  1  0  0  0  0
 14 18  1  6  0  0  0
 15 17  1  0  0  0  0
 16 17  1  0  0  0  0
 18 19  1  0  0  0  0
 19 23  1  0  0  0  0
 20 21  2  0  0  0  0
 20 25  1  0  0  0  0
 21 22  1  0  0  0  0
 22 23  2  0  0  0  0
 23 24  1  0  0  0  0
 24 25  2  0  0  0  0
M  END
>  <CHROM.1>
-145.60249725,-132.60013498,20.41525564,94.62524193,119.95010110,4.98586714
-21.40724354,25.26724935,3.06532552,-0.14148264,1.71701930

>  <Name>
ligand

>  <RI>
0

>  <Rbt.Current_Directory>
/home/itssahil/PROJECTS/Mol_Feturizer/New_Systems/rnas/4LVV

>  <Rbt.Executable>
rbdock ($Id: //depot/dev/client3/rdock/2013.1/src/exe/rbdock.cxx#4 $)

>  <Rbt.Library>
libRbt.so (2013.1, Build901 2013/11/27)

>  <Rbt.Parameter_File>
/export/apps/rDock/src/rDock_2013.1_src/data/scripts/dock_solv.prm

>  <Rbt.Receptor>
prm/pocket_docking_2.prm

>  <SCORE>
-9.85655

>  <SCORE.INTER>
-10.9209

>  <SCORE.INTER.CONST>
1

>  <SCORE.INTER.POLAR>
0

>  <SCORE.INTER.ROT>
5

>  <SCORE.INTER.SOLV>
14.4194

>  <SCORE.INTER.VDW>
-19.0204

>  <SCORE.INTER.norm>
-0.436835

>  <SCORE.INTRA>
1.03095

>  <SCORE.INTRA.DIHEDRAL>
5.08312

>  <SCORE.INTRA.DIHEDRAL.0>
3.94806

>  <SCORE.INTRA.POLAR>
0

>  <SCORE.INTRA.POLAR.0>
0

>  <SCORE.INTRA.REPUL>
0

>  <SCORE.INTRA.REPUL.0>
0

>  <SCORE.INTRA.SOLV>
-0.728701

>  <SCORE.INTRA.SOLV.lig_0>
-70.9803

>  <SCORE.INTRA.VDW>
-1.14626

>  <SCORE.INTRA.VDW.0>
-0.709409

>  <SCORE.INTRA.norm>
0.0412378

>  <SCORE.RESTR>
0.0333659

>  <SCORE.RESTR.CAVITY>
0.0333659

>  <SCORE.RESTR.norm>
0.00133464

>  <SCORE.SYSTEM>
0

>  <SCORE.SYSTEM.CONST>
0

>  <SCORE.SYSTEM.DIHEDRAL>
0

>  <SCORE.SYSTEM.SOLV>
0

>  <SCORE.SYSTEM.norm>
0

>  <SCORE.heavy>
25

>  <SCORE.norm>
-0.394262

>  <RMSD>
7.814

$$$$
ligand
 OpenBabel11021811503D
libRbt.so/2013.1/901 2013/11/27
 25 27  0  0  0  0  0  0  0  0999 V2000
   -0.2701  -21.6647   25.0479 N   0  0  0  0  0  0  0  0  0  0  0  0
    0.9802  -21.0734   25.4119 C   0  0  0  0  0  0  0  0  0  0  0  0
    1.0902  -20.4292   26.4478 O   0  0  0  0  0  0  0  0  0  0  0  0
    9.6704  -20.0991   24.5082 N   0  0  0  0  0  0  0  0  0  0  0  0
    8.5693  -20.3261   22.3866 N   0  0  0  0  0  0  0  0  0  0  0  0
    9.1158  -20.9136   23.4762 C   0  0  0  0  0  0  0  0  0  0  0  0
    9.1548  -22.2742   23.6004 N   0  0  0  0  0  0  0  0  0  0  0  0
    8.6487  -23.0993   22.6487 C   0  0  0  0  0  0  0  0  0  0  0  0
    8.0553  -22.5231   21.5000 C   0  0  0  0  0  0  0  0  0  0  0  0
    8.7065  -24.4604   22.8360 O   0  0  0  0  0  0  0  0  0  0  0  0
    8.0782  -24.4995   19.8901 C   0  0  0  0  0  0  0  0  0  0  0  0
    7.4958  -23.2775   20.3903 N   0  0  0  0  0  0  0  0  0  0  0  0
    7.4884  -25.5746   19.8936 O   0  0  0  0  0  0  0  0  0  0  0  0
    6.3994  -22.6767   19.7588 C   0  0  2  0  0  0  0  0  0  0  0  0
    6.8024  -21.2698   19.2472 C   0  0  0  0  0  0  0  0  0  0  0  0
    8.0429  -21.0973   21.3833 C   0  0  0  0  0  0  0  0  0  0  0  0
    7.4352  -20.4625   20.2105 N   0  0  0  0  0  0  0  0  0  0  0  0
    5.2195  -22.5783   20.7045 C   0  0  0  0  0  0  0  0  0  0  0  0
    5.4033  -21.8074   21.9028 N   0  0  0  0  0  0  0  0  0  0  0  0
    2.1536  -21.2696   24.5157 C   0  0  0  0  0  0  0  0  0  0  0  0
    3.3412  -21.7994   25.0012 C   0  0  0  0  0  0  0  0  0  0  0  0
    4.4174  -21.9708   24.1391 C   0  0  0  0  0  0  0  0  0  0  0  0
    4.3010  -21.6254   22.7941 C   0  0  0  0  0  0  0  0  0  0  0  0
    3.1115  -21.1075   22.3123 C   0  0  0  0  0  0  0  0  0  0  0  0
    2.0385  -20.9256   23.1766 C   0  0  0  0  0  0  0  0  0  0  0  0
  1  2  1  0  0  0  0
  2  3  2  0  0  0  0
  2 20  1  0  0  0  0
  4  6  1  0  0  0  0
  5  6  2  0  0  0  0
  5 16  1  0  0  0  0
  6  7  1  0  0  0  0
  7  8  1  0  0  0  0
  8  9  1  0  0  0  0
  8 10  2  0  0  0  0
  9 12  1  0  0  0  0
  9 16  2  0  0  0  0
 11 13  1  0  0  0  0
 11 12  1  0  0  0  0
 12 14  1  0  0  0  0
 14 15  1  0  0  0  0
 14 18  1  1  0  0  0
 15 17  1  0  0  0  0
 16 17  1  0  0  0  0
 18 19  1  0  0  0  0
 19 23  1  0  0  0  0
 20 21  2  0  0  0  0
 20 25  1  0  0  0  0
 21 22  1  0  0  0  0
 22 23  2  0  0  0  0
 23 24  1  0  0  0  0
 24 25  2  0  0  0  0
M  END
>  <CHROM.1>
118.84885192,60.60306313,176.77594559,125.33358268,-125.05549049,5.87405333
-22.00212730,22.49337449,2.61927248,0.06407326,1.04476197

>  <Name>
ligand

>  <RI>
0

>  <Rbt.Current_Directory>
/home/itssahil/PROJECTS/Mol_Feturizer/New_Systems/rnas/4LVV

>  <Rbt.Executable>
rbdock ($Id: //depot/dev/client3/rdock/2013.1/src/exe/rbdock.cxx#4 $)

>  <Rbt.Library>
libRbt.so (2013.1, Build901 2013/11/27)

>  <Rbt.Parameter_File>
/export/apps/rDock/src/rDock_2013.1_src/data/scripts/dock_solv.prm

>  <Rbt.Receptor>
prm/pocket_docking_6.prm

>  <SCORE>
-8.23514

>  <SCORE.INTER>
-7.98911

>  <SCORE.INTER.CONST>
1

>  <SCORE.INTER.POLAR>
0

>  <SCORE.INTER.ROT>
5

>  <SCORE.INTER.SOLV>
13.0435

>  <SCORE.INTER.VDW>
-16.6072

>  <SCORE.INTER.norm>
-0.319564

>  <SCORE.INTRA>
-0.24603

>  <SCORE.INTRA.DIHEDRAL>
-0.637642

>  <SCORE.INTRA.DIHEDRAL.0>
3.94806

>  <SCORE.INTRA.POLAR>
0

>  <SCORE.INTRA.POLAR.0>
0

>  <SCORE.INTRA.REPUL>
0

>  <SCORE.INTRA.REPUL.0>
0

>  <SCORE.INTRA.SOLV>
2.31228

>  <SCORE.INTRA.SOLV.lig_0>
-70.9803

>  <SCORE.INTRA.VDW>
-1.08335

>  <SCORE.INTRA.VDW.0>
-0.709409

>  <SCORE.INTRA.norm>
-0.00984119

>  <SCORE.RESTR>
0

>  <SCORE.RESTR.CAVITY>
0

>  <SCORE.RESTR.norm>
0

>  <SCORE.SYSTEM>
0

>  <SCORE.SYSTEM.CONST>
0

>  <SCORE.SYSTEM.DIHEDRAL>
0

>  <SCORE.SYSTEM.SOLV>
0

>  <SCORE.SYSTEM.norm>
0

>  <SCORE.heavy>
25

>  <SCORE.norm>
-0.329405

>  <RMSD>
7.826

$$$$
ligand
 OpenBabel11021811503D
libRbt.so/2013.1/901 2013/11/27
 25 27  0  0  0  0  0  0  0  0999 V2000
   -1.8124  -20.9188   25.5434 N   0  0  0  0  0  0  0  0  0  0  0  0
   -0.6023  -21.1296   26.2758 C   0  0  0  0  0  0  0  0  0  0  0  0
   -0.6210  -21.6742   27.3728 O   0  0  0  0  0  0  0  0  0  0  0  0
   10.9015  -23.1384   22.3731 N   0  0  0  0  0  0  0  0  0  0  0  0
    8.5404  -23.1344   22.8095 N   0  0  0  0  0  0  0  0  0  0  0  0
    9.7922  -22.8117   23.2091 C   0  0  0  0  0  0  0  0  0  0  0  0
   10.0133  -22.1873   24.4048 N   0  0  0  0  0  0  0  0  0  0  0  0
    8.9984  -21.8576   25.2437 C   0  0  0  0  0  0  0  0  0  0  0  0
    7.6725  -22.1654   24.8552 C   0  0  0  0  0  0  0  0  0  0  0  0
    9.2828  -21.2193   26.4280 O   0  0  0  0  0  0  0  0  0  0  0  0
    6.4606  -22.0357   27.0941 C   0  0  0  0  0  0  0  0  0  0  0  0
    6.4908  -21.8962   25.6580 N   0  0  0  0  0  0  0  0  0  0  0  0
    5.5020  -22.4976   27.7036 O   0  0  0  0  0  0  0  0  0  0  0  0
    5.3353  -21.5916   24.9274 C   0  0  2  0  0  0  0  0  0  0  0  0
    5.0166  -22.7540   23.9524 C   0  0  0  0  0  0  0  0  0  0  0  0
    7.4673  -22.8359   23.6082 C   0  0  0  0  0  0  0  0  0  0  0  0
    6.1095  -23.1691   23.1691 N   0  0  0  0  0  0  0  0  0  0  0  0
    5.5056  -20.2929   24.1654 C   0  0  0  0  0  0  0  0  0  0  0  0
    4.3182  -19.5285   23.9006 N   0  0  0  0  0  0  0  0  0  0  0  0
    0.6865  -20.6898   25.6722 C   0  0  0  0  0  0  0  0  0  0  0  0
    1.4894  -19.7534   26.3089 C   0  0  0  0  0  0  0  0  0  0  0  0
    2.6864  -19.3646   25.7199 C   0  0  0  0  0  0  0  0  0  0  0  0
    3.0840  -19.9204   24.5055 C   0  0  0  0  0  0  0  0  0  0  0  0
    2.2854  -20.8616   23.8798 C   0  0  0  0  0  0  0  0  0  0  0  0
    1.0829  -21.2425   24.4630 C   0  0  0  0  0  0  0  0  0  0  0  0
  1  2  1  0  0  0  0
  2  3  2  0  0  0  0
  2 20  1  0  0  0  0
  4  6  1  0  0  0  0
  5  6  2  0  0  0  0
  5 16  1  0  0  0  0
  6  7  1  0  0  0  0
  7  8  1  0  0  0  0
  8  9  1  0  0  0  0
  8 10  2  0  0  0  0
  9 12  1  0  0  0  0
  9 16  2  0  0  0  0
 11 13  1  0  0  0  0
 11 12  1  0  0  0  0
 12 14  1  0  0  0  0
 14 15  1  0  0  0  0
 14 18  1  6  0  0  0
 15 17  1  0  0  0  0
 16 17  1  0  0  0  0
 18 19  1  0  0  0  0
 19 23  1  0  0  0  0
 20 21  2  0  0  0  0
 20 25  1  0  0  0  0
 21 22  1  0  0  0  0
 22 23  2  0  0  0  0
 23 24  1  0  0  0  0
 24 25  2  0  0  0  0
M  END
>  <CHROM.1>
-140.49427906,-151.56106117,8.21343602,93.01740629,120.14344273,5.08498623
-21.57745150,24.97284720,2.93610450,-0.17485571,1.49545679

>  <Name>
ligand

>  <RI>
0

>  <Rbt.Current_Directory>
/home/itssahil/PROJECTS/Mol_Feturizer/New_Systems/rnas/4LVV

>  <Rbt.Executable>
rbdock ($Id: //depot/dev/client3/rdock/2013.1/src/exe/rbdock.cxx#4 $)

>  <Rbt.Library>
libRbt.so (2013.1, Build901 2013/11/27)

>  <Rbt.Parameter_File>
/export/apps/rDock/src/rDock_2013.1_src/data/scripts/dock_solv.prm

>  <Rbt.Receptor>
prm/pocket_docking_2.prm

>  <SCORE>
-9.97732

>  <SCORE.INTER>
-10.4166

>  <SCORE.INTER.CONST>
1

>  <SCORE.INTER.POLAR>
0

>  <SCORE.INTER.ROT>
5

>  <SCORE.INTER.SOLV>
15.183

>  <SCORE.INTER.VDW>
-18.9387

>  <SCORE.INTER.norm>
-0.416663

>  <SCORE.INTRA>
0.302499

>  <SCORE.INTRA.DIHEDRAL>
3.0376

>  <SCORE.INTRA.DIHEDRAL.0>
3.94806

>  <SCORE.INTRA.POLAR>
0

>  <SCORE.INTRA.POLAR.0>
0

>  <SCORE.INTRA.REPUL>
0

>  <SCORE.INTRA.REPUL.0>
0

>  <SCORE.INTRA.SOLV>
-0.62536

>  <SCORE.INTRA.SOLV.lig_0>
-70.9803

>  <SCORE.INTRA.VDW>
-0.903619

>  <SCORE.INTRA.VDW.0>
-0.709409

>  <SCORE.INTRA.norm>
0.0121

>  <SCORE.RESTR>
0.136747

>  <SCORE.RESTR.CAVITY>
0.136747

>  <SCORE.RESTR.norm>
0.00546987

>  <SCORE.SYSTEM>
0

>  <SCORE.SYSTEM.CONST>
0

>  <SCORE.SYSTEM.DIHEDRAL>
0

>  <SCORE.SYSTEM.SOLV>
0

>  <SCORE.SYSTEM.norm>
0

>  <SCORE.heavy>
25

>  <SCORE.norm>
-0.399093

>  <RMSD>
7.836

$$$$
ligand
 OpenBabel11021811503D
libRbt.so/2013.1/901 2013/11/27
 25 27  0  0  0  0  0  0  0  0999 V2000
   -0.9022  -21.9092   27.1879 N   0  0  0  0  0  0  0  0  0  0  0  0
   -0.6431  -21.1481   26.0051 C   0  0  0  0  0  0  0  0  0  0  0  0
   -1.5515  -20.8545   25.2379 O   0  0  0  0  0  0  0  0  0  0  0  0
   10.3106  -23.9806   21.9973 N   0  0  0  0  0  0  0  0  0  0  0  0
    8.1678  -23.7454   23.0547 N   0  0  0  0  0  0  0  0  0  0  0  0
    9.4888  -23.4531   23.0377 C   0  0  0  0  0  0  0  0  0  0  0  0
   10.0514  -22.6693   24.0060 N   0  0  0  0  0  0  0  0  0  0  0  0
    9.3210  -22.1450   25.0228 C   0  0  0  0  0  0  0  0  0  0  0  0
    7.9325  -22.4158   25.0681 C   0  0  0  0  0  0  0  0  0  0  0  0
    9.9416  -21.3537   25.9608 O   0  0  0  0  0  0  0  0  0  0  0  0
    7.4012  -21.8599   27.4985 C   0  0  0  0  0  0  0  0  0  0  0  0
    7.0303  -21.9451   26.1064 N   0  0  0  0  0  0  0  0  0  0  0  0
    8.1032  -20.9626   27.9523 O   0  0  0  0  0  0  0  0  0  0  0  0
    5.7239  -21.6766   25.6788 C   0  0  2  0  0  0  0  0  0  0  0  0
    5.1165  -22.9499   25.0360 C   0  0  0  0  0  0  0  0  0  0  0  0
    7.3695  -23.2539   24.0545 C   0  0  0  0  0  0  0  0  0  0  0  0
    5.9354  -23.5554   24.0648 N   0  0  0  0  0  0  0  0  0  0  0  0
    5.7045  -20.5253   24.6937 C   0  0  0  0  0  0  0  0  0  0  0  0
    4.6957  -19.5198   24.8815 N   0  0  0  0  0  0  0  0  0  0  0  0
    0.7517  -20.7030   25.7308 C   0  0  0  0  0  0  0  0  0  0  0  0
    1.4159  -19.8570   26.6082 C   0  0  0  0  0  0  0  0  0  0  0  0
    2.7170  -19.4605   26.3240 C   0  0  0  0  0  0  0  0  0  0  0  0
    3.3548  -19.9193   25.1731 C   0  0  0  0  0  0  0  0  0  0  0  0
    2.6923  -20.7712   24.3067 C   0  0  0  0  0  0  0  0  0  0  0  0
    1.3871  -21.1591   24.5850 C   0  0  0  0  0  0  0  0  0  0  0  0
  1  2  1  0  0  0  0
  2  3  2  0  0  0  0
  2 20  1  0  0  0  0
  4  6  1  0  0  0  0
  5  6  2  0  0  0  0
  5 16  1  0  0  0  0
  6  7  1  0  0  0  0
  7  8  1  0  0  0  0
  8  9  1  0  0  0  0
  8 10  2  0  0  0  0
  9 12  1  0  0  0  0
  9 16  2  0  0  0  0
 11 13  1  0  0  0  0
 11 12  1  0  0  0  0
 12 14  1  0  0  0  0
 14 15  1  0  0  0  0
 14 18  1  6  0  0  0
 15 17  1  0  0  0  0
 16 17  1  0  0  0  0
 18 19  1  0  0  0  0
 19 23  1  0  0  0  0
 20 21  2  0  0  0  0
 20 25  1  0  0  0  0
 21 22  1  0  0  0  0
 22 23  2  0  0  0  0
 23 24  1  0  0  0  0
 24 25  2  0  0  0  0
M  END
>  <CHROM.1>
77.26576838,-134.88538908,-44.20591382,123.21759747,-61.50004015,5.33600600
-21.68528601,25.19704276,2.89028113,-0.09768327,0.99179228

>  <Name>
ligand

>  <RI>
0

>  <Rbt.Current_Directory>
/home/itssahil/PROJECTS/Mol_Feturizer/New_Systems/rnas/4LVV

>  <Rbt.Executable>
rbdock ($Id: //depot/dev/client3/rdock/2013.1/src/exe/rbdock.cxx#4 $)

>  <Rbt.Library>
libRbt.so (2013.1, Build901 2013/11/27)

>  <Rbt.Parameter_File>
/export/apps/rDock/src/rDock_2013.1_src/data/scripts/dock_solv.prm

>  <Rbt.Receptor>
prm/pocket_docking_2.prm

>  <SCORE>
-9.6149

>  <SCORE.INTER>
-10.8088

>  <SCORE.INTER.CONST>
1

>  <SCORE.INTER.POLAR>
0

>  <SCORE.INTER.ROT>
5

>  <SCORE.INTER.SOLV>
16.0866

>  <SCORE.INTER.VDW>
-19.5014

>  <SCORE.INTER.norm>
-0.432352

>  <SCORE.INTRA>
0.65349

>  <SCORE.INTRA.DIHEDRAL>
4.12961

>  <SCORE.INTRA.DIHEDRAL.0>
3.94806

>  <SCORE.INTRA.POLAR>
0

>  <SCORE.INTRA.POLAR.0>
0

>  <SCORE.INTRA.REPUL>
0

>  <SCORE.INTRA.REPUL.0>
0

>  <SCORE.INTRA.SOLV>
-0.438875

>  <SCORE.INTRA.SOLV.lig_0>
-70.9803

>  <SCORE.INTRA.VDW>
-1.19188

>  <SCORE.INTRA.VDW.0>
-0.709409

>  <SCORE.INTRA.norm>
0.0261396

>  <SCORE.RESTR>
0.540416

>  <SCORE.RESTR.CAVITY>
0.540416

>  <SCORE.RESTR.norm>
0.0216167

>  <SCORE.SYSTEM>
0

>  <SCORE.SYSTEM.CONST>
0

>  <SCORE.SYSTEM.DIHEDRAL>
0

>  <SCORE.SYSTEM.SOLV>
0

>  <SCORE.SYSTEM.norm>
0

>  <SCORE.heavy>
25

>  <SCORE.norm>
-0.384596

>  <RMSD>
7.841

$$$$
ligand
 OpenBabel11021811503D
libRbt.so/2013.1/901 2013/11/27
 25 27  0  0  0  0  0  0  0  0999 V2000
   -1.8745  -20.8364   25.6091 N   0  0  0  0  0  0  0  0  0  0  0  0
   -0.6503  -21.1128   26.2949 C   0  0  0  0  0  0  0  0  0  0  0  0
   -0.6559  -21.6647   27.3883 O   0  0  0  0  0  0  0  0  0  0  0  0
   10.8581  -23.0740   22.3022 N   0  0  0  0  0  0  0  0  0  0  0  0
    8.5027  -23.0866   22.7682 N   0  0  0  0  0  0  0  0  0  0  0  0
    9.7587  -22.7698   23.1594 C   0  0  0  0  0  0  0  0  0  0  0  0
    9.9932  -22.1725   24.3663 N   0  0  0  0  0  0  0  0  0  0  0  0
    8.9881  -21.8651   25.2253 C   0  0  0  0  0  0  0  0  0  0  0  0
    7.6582  -22.1676   24.8465 C   0  0  0  0  0  0  0  0  0  0  0  0
    9.2858  -21.2536   26.4204 O   0  0  0  0  0  0  0  0  0  0  0  0
    6.4743  -22.0931   27.1028 C   0  0  0  0  0  0  0  0  0  0  0  0
    6.4860  -21.9204   25.6701 N   0  0  0  0  0  0  0  0  0  0  0  0
    5.4991  -22.5060   27.7211 O   0  0  0  0  0  0  0  0  0  0  0  0
    5.3206  -21.6022   24.9613 C   0  0  2  0  0  0  0  0  0  0  0  0
    4.9926  -22.7427   23.9636 C   0  0  0  0  0  0  0  0  0  0  0  0
    7.4390  -22.8097   23.5869 C   0  0  0  0  0  0  0  0  0  0  0  0
    6.0766  -23.1365   23.1573 N   0  0  0  0  0  0  0  0  0  0  0  0
    5.4780  -20.2858   24.2275 C   0  0  0  0  0  0  0  0  0  0  0  0
    4.2749  -19.5788   23.8855 N   0  0  0  0  0  0  0  0  0  0  0  0
    0.6358  -20.7323   25.6468 C   0  0  0  0  0  0  0  0  0  0  0  0
    1.0062  -21.2751   24.4241 C   0  0  0  0  0  0  0  0  0  0  0  0
    2.2122  -20.8990   23.8453 C   0  0  0  0  0  0  0  0  0  0  0  0
    3.0374  -19.9738   24.4815 C   0  0  0  0  0  0  0  0  0  0  0  0
    2.6589  -19.4272   25.6953 C   0  0  0  0  0  0  0  0  0  0  0  0
    1.4581  -19.8115   26.2798 C   0  0  0  0  0  0  0  0  0  0  0  0
  1  2  1  0  0  0  0
  2  3  2  0  0  0  0
  2 20  1  0  0  0  0
  4  6  1  0  0  0  0
  5  6  2  0  0  0  0
  5 16  1  0  0  0  0
  6  7  1  0  0  0  0
  7  8  1  0  0  0  0
  8  9  1  0  0  0  0
  8 10  2  0  0  0  0
  9 12  1  0  0  0  0
  9 16  2  0  0  0  0
 11 13  1  0  0  0  0
 11 12  1  0  0  0  0
 12 14  1  0  0  0  0
 14 15  1  0  0  0  0
 14 18  1  6  0  0  0
 15 17  1  0  0  0  0
 16 17  1  0  0  0  0
 18 19  1  0  0  0  0
 19 23  1  0  0  0  0
 20 21  2  0  0  0  0
 20 25  1  0  0  0  0
 21 22  1  0  0  0  0
 22 23  2  0  0  0  0
 23 24  1  0  0  0  0
 24 25  2  0  0  0  0
M  END
>  <CHROM.1>
-144.45177769,-157.19029566,13.29984053,-92.29752879,-60.92249566,5.05501071
-21.58168456,24.96542607,2.93831039,-0.17561657,1.51840041

>  <Name>
ligand

>  <RI>
0

>  <Rbt.Current_Directory>
/home/itssahil/PROJECTS/Mol_Feturizer/New_Systems/rnas/4LVV

>  <Rbt.Executable>
rbdock ($Id: //depot/dev/client3/rdock/2013.1/src/exe/rbdock.cxx#4 $)

>  <Rbt.Library>
libRbt.so (2013.1, Build901 2013/11/27)

>  <Rbt.Parameter_File>
/export/apps/rDock/src/rDock_2013.1_src/data/scripts/dock_solv.prm

>  <Rbt.Receptor>
prm/pocket_docking_2.prm

>  <SCORE>
-10.1845

>  <SCORE.INTER>
-10.2729

>  <SCORE.INTER.CONST>
1

>  <SCORE.INTER.POLAR>
0

>  <SCORE.INTER.ROT>
5

>  <SCORE.INTER.SOLV>
15.2724

>  <SCORE.INTER.VDW>
-18.8727

>  <SCORE.INTER.norm>
-0.410915

>  <SCORE.INTRA>
-0.0830406

>  <SCORE.INTRA.DIHEDRAL>
2.20864

>  <SCORE.INTRA.DIHEDRAL.0>
3.94806

>  <SCORE.INTRA.POLAR>
0

>  <SCORE.INTRA.POLAR.0>
0

>  <SCORE.INTRA.REPUL>
0

>  <SCORE.INTRA.REPUL.0>
0

>  <SCORE.INTRA.SOLV>
-0.568848

>  <SCORE.INTRA.SOLV.lig_0>
-70.9803

>  <SCORE.INTRA.VDW>
-0.902937

>  <SCORE.INTRA.VDW.0>
-0.709409

>  <SCORE.INTRA.norm>
-0.00332162

>  <SCORE.RESTR>
0.17145

>  <SCORE.RESTR.CAVITY>
0.17145

>  <SCORE.RESTR.norm>
0.00685801

>  <SCORE.SYSTEM>
0

>  <SCORE.SYSTEM.CONST>
0

>  <SCORE.SYSTEM.DIHEDRAL>
0

>  <SCORE.SYSTEM.SOLV>
0

>  <SCORE.SYSTEM.norm>
0

>  <SCORE.heavy>
25

>  <SCORE.norm>
-0.407379

>  <RMSD>
7.847

$$$$
ligand
 OpenBabel11021811503D
libRbt.so/2013.1/901 2013/11/27
 25 27  0  0  0  0  0  0  0  0999 V2000
   -0.8863  -21.8307   27.3145 N   0  0  0  0  0  0  0  0  0  0  0  0
   -0.7222  -21.1249   26.0815 C   0  0  0  0  0  0  0  0  0  0  0  0
   -1.6660  -20.9753   25.3152 O   0  0  0  0  0  0  0  0  0  0  0  0
   10.2471  -22.7324   27.9495 N   0  0  0  0  0  0  0  0  0  0  0  0
    7.9693  -21.9733   27.9764 N   0  0  0  0  0  0  0  0  0  0  0  0
    9.2884  -21.6756   27.9297 C   0  0  0  0  0  0  0  0  0  0  0  0
    9.7187  -20.3794   27.8744 N   0  0  0  0  0  0  0  0  0  0  0  0
    8.8537  -19.3334   27.8591 C   0  0  0  0  0  0  0  0  0  0  0  0
    7.4647  -19.6036   27.8922 C   0  0  0  0  0  0  0  0  0  0  0  0
    9.3468  -18.0515   27.7905 O   0  0  0  0  0  0  0  0  0  0  0  0
    6.5408  -17.3444   28.6277 C   0  0  0  0  0  0  0  0  0  0  0  0
    6.4237  -18.5888   27.9061 N   0  0  0  0  0  0  0  0  0  0  0  0
    6.3812  -16.2473   28.1037 O   0  0  0  0  0  0  0  0  0  0  0  0
    5.2382  -18.9474   27.2522 C   0  0  2  0  0  0  0  0  0  0  0  0
    4.6714  -20.2461   27.8811 C   0  0  0  0  0  0  0  0  0  0  0  0
    7.0386  -20.9672   27.9689 C   0  0  0  0  0  0  0  0  0  0  0  0
    5.6091  -21.2884   28.0020 N   0  0  0  0  0  0  0  0  0  0  0  0
    5.4773  -19.1384   25.7680 C   0  0  0  0  0  0  0  0  0  0  0  0
    4.3717  -18.8791   24.8880 N   0  0  0  0  0  0  0  0  0  0  0  0
    0.6156  -20.5586   25.7525 C   0  0  0  0  0  0  0  0  0  0  0  0
    1.3576  -21.0535   24.6889 C   0  0  0  0  0  0  0  0  0  0  0  0
    2.6020  -20.5029   24.4074 C   0  0  0  0  0  0  0  0  0  0  0  0
    3.0956  -19.4529   25.1793 C   0  0  0  0  0  0  0  0  0  0  0  0
    2.3474  -18.9557   26.2321 C   0  0  0  0  0  0  0  0  0  0  0  0
    1.1078  -19.5134   26.5208 C   0  0  0  0  0  0  0  0  0  0  0  0
  1  2  1  0  0  0  0
  2  3  2  0  0  0  0
  2 20  1  0  0  0  0
  4  6  1  0  0  0  0
  5  6  2  0  0  0  0
  5 16  1  0  0  0  0
  6  7  1  0  0  0  0
  7  8  1  0  0  0  0
  8  9  1  0  0  0  0
  8 10  2  0  0  0  0
  9 12  1  0  0  0  0
  9 16  2  0  0  0  0
 11 13  1  0  0  0  0
 11 12  1  0  0  0  0
 12 14  1  0  0  0  0
 14 15  1  0  0  0  0
 14 18  1  6  0  0  0
 15 17  1  0  0  0  0
 16 17  1  0  0  0  0
 18 19  1  0  0  0  0
 19 23  1  0  0  0  0
 20 21  2  0  0  0  0
 20 25  1  0  0  0  0
 21 22  1  0  0  0  0
 22 23  2  0  0  0  0
 23 24  1  0  0  0  0
 24 25  2  0  0  0  0
M  END
>  <CHROM.1>
126.20974775,-151.20238502,-48.60528680,-107.65662606,113.40987136,4.95995859
-19.93151642,26.96217430,-3.05973752,-0.25414157,0.01213440

>  <Name>
ligand

>  <RI>
0

>  <Rbt.Current_Directory>
/home/itssahil/PROJECTS/Mol_Feturizer/New_Systems/rnas/4LVV

>  <Rbt.Executable>
rbdock ($Id: //depot/dev/client3/rdock/2013.1/src/exe/rbdock.cxx#4 $)

>  <Rbt.Library>
libRbt.so (2013.1, Build901 2013/11/27)

>  <Rbt.Parameter_File>
/export/apps/rDock/src/rDock_2013.1_src/data/scripts/dock_solv.prm

>  <Rbt.Receptor>
prm/pocket_docking_7.prm

>  <SCORE>
-9.5548

>  <SCORE.INTER>
-9.29083

>  <SCORE.INTER.CONST>
1

>  <SCORE.INTER.POLAR>
0

>  <SCORE.INTER.ROT>
5

>  <SCORE.INTER.SOLV>
15.1711

>  <SCORE.INTER.VDW>
-18.1843

>  <SCORE.INTER.norm>
-0.371633

>  <SCORE.INTRA>
-0.396181

>  <SCORE.INTRA.DIHEDRAL>
1.8735

>  <SCORE.INTRA.DIHEDRAL.0>
3.94806

>  <SCORE.INTRA.POLAR>
0

>  <SCORE.INTRA.POLAR.0>
0

>  <SCORE.INTRA.REPUL>
0

>  <SCORE.INTRA.REPUL.0>
0

>  <SCORE.INTRA.SOLV>
-0.493468

>  <SCORE.INTRA.SOLV.lig_0>
-70.9803

>  <SCORE.INTRA.VDW>
-1.0862

>  <SCORE.INTRA.VDW.0>
-0.709409

>  <SCORE.INTRA.norm>
-0.0158472

>  <SCORE.RESTR>
0.132204

>  <SCORE.RESTR.CAVITY>
0.132204

>  <SCORE.RESTR.norm>
0.00528817

>  <SCORE.SYSTEM>
0

>  <SCORE.SYSTEM.CONST>
0

>  <SCORE.SYSTEM.DIHEDRAL>
0

>  <SCORE.SYSTEM.SOLV>
0

>  <SCORE.SYSTEM.norm>
0

>  <SCORE.heavy>
25

>  <SCORE.norm>
-0.382192

>  <RMSD>
7.860

$$$$
ligand
 OpenBabel11021811503D
libRbt.so/2013.1/901 2013/11/27
 25 27  0  0  0  0  0  0  0  0999 V2000
    6.8254  -22.2430   29.4983 N   0  0  0  0  0  0  0  0  0  0  0  0
    5.6014  -22.0640   28.7807 C   0  0  0  0  0  0  0  0  0  0  0  0
    4.5778  -21.7268   29.3628 O   0  0  0  0  0  0  0  0  0  0  0  0
   11.8426  -20.4102   20.6424 N   0  0  0  0  0  0  0  0  0  0  0  0
    9.5323  -21.0271   20.4251 N   0  0  0  0  0  0  0  0  0  0  0  0
   10.8173  -21.4024   20.6221 C   0  0  0  0  0  0  0  0  0  0  0  0
   11.1513  -22.7170   20.7919 N   0  0  0  0  0  0  0  0  0  0  0  0
   10.2202  -23.7046   20.7762 C   0  0  0  0  0  0  0  0  0  0  0  0
    8.8626  -23.3515   20.5870 C   0  0  0  0  0  0  0  0  0  0  0  0
   10.6163  -25.0079   20.9647 O   0  0  0  0  0  0  0  0  0  0  0  0
    7.8645  -25.5899   19.8859 C   0  0  0  0  0  0  0  0  0  0  0  0
    7.7618  -24.2988   20.5226 N   0  0  0  0  0  0  0  0  0  0  0  0
    7.1087  -26.5230   20.1347 O   0  0  0  0  0  0  0  0  0  0  0  0
    6.5448  -23.8282   21.0317 C   0  0  2  0  0  0  0  0  0  0  0  0
    6.1316  -22.5378   20.2781 C   0  0  0  0  0  0  0  0  0  0  0  0
    8.5394  -21.9714   20.3927 C   0  0  0  0  0  0  0  0  0  0  0  0
    7.1451  -21.5650   20.1966 N   0  0  0  0  0  0  0  0  0  0  0  0
    6.6495  -23.5619   22.5198 C   0  0  0  0  0  0  0  0  0  0  0  0
    5.5121  -22.9600   23.1588 N   0  0  0  0  0  0  0  0  0  0  0  0
    5.5969  -22.2787   27.3067 C   0  0  0  0  0  0  0  0  0  0  0  0
    6.5840  -21.7259   26.5025 C   0  0  0  0  0  0  0  0  0  0  0  0
    6.5521  -21.9454   25.1308 C   0  0  0  0  0  0  0  0  0  0  0  0
    5.5438  -22.7256   24.5683 C   0  0  0  0  0  0  0  0  0  0  0  0
    4.5678  -23.2836   25.3755 C   0  0  0  0  0  0  0  0  0  0  0  0
    4.5931  -23.0550   26.7460 C   0  0  0  0  0  0  0  0  0  0  0  0
  1  2  1  0  0  0  0
  2  3  2  0  0  0  0
  2 20  1  0  0  0  0
  4  6  1  0  0  0  0
  5  6  2  0  0  0  0
  5 16  1  0  0  0  0
  6  7  1  0  0  0  0
  7  8  1  0  0  0  0
  8  9  1  0  0  0  0
  8 10  2  0  0  0  0
  9 12  1  0  0  0  0
  9 16  2  0  0  0  0
 11 13  1  0  0  0  0
 11 12  1  0  0  0  0
 12 14  1  0  0  0  0
 14 15  1  0  0  0  0
 14 18  1  1  0  0  0
 15 17  1  0  0  0  0
 16 17  1  0  0  0  0
 18 19  1  0  0  0  0
 19 23  1  0  0  0  0
 20 21  2  0  0  0  0
 20 25  1  0  0  0  0
 21 22  1  0  0  0  0
 22 23  2  0  0  0  0
 23 24  1  0  0  0  0
 24 25  2  0  0  0  0
M  END
>  <CHROM.1>
159.00521757,174.54458917,178.08927755,57.27861471,-46.75352691,7.49977443
-22.90914803,22.98213306,-2.14919683,-0.57369727,-2.03881177

>  <Name>
ligand

>  <RI>
0

>  <Rbt.Current_Directory>
/home/itssahil/PROJECTS/Mol_Feturizer/New_Systems/rnas/4LVV

>  <Rbt.Executable>
rbdock ($Id: //depot/dev/client3/rdock/2013.1/src/exe/rbdock.cxx#4 $)

>  <Rbt.Library>
libRbt.so (2013.1, Build901 2013/11/27)

>  <Rbt.Parameter_File>
/export/apps/rDock/src/rDock_2013.1_src/data/scripts/dock_solv.prm

>  <Rbt.Receptor>
prm/pocket_docking_8.prm

>  <SCORE>
-8.04849

>  <SCORE.INTER>
-7.20976

>  <SCORE.INTER.CONST>
1

>  <SCORE.INTER.POLAR>
0

>  <SCORE.INTER.ROT>
5

>  <SCORE.INTER.SOLV>
11.6846

>  <SCORE.INTER.VDW>
-15.6347

>  <SCORE.INTER.norm>
-0.28839

>  <SCORE.INTRA>
-0.838731

>  <SCORE.INTRA.DIHEDRAL>
-0.72206

>  <SCORE.INTRA.DIHEDRAL.0>
3.94806

>  <SCORE.INTRA.POLAR>
0

>  <SCORE.INTRA.POLAR.0>
0

>  <SCORE.INTRA.REPUL>
0

>  <SCORE.INTRA.REPUL.0>
0

>  <SCORE.INTRA.SOLV>
-0.0934468

>  <SCORE.INTRA.SOLV.lig_0>
-70.9803

>  <SCORE.INTRA.VDW>
-0.430978

>  <SCORE.INTRA.VDW.0>
-0.709409

>  <SCORE.INTRA.norm>
-0.0335492

>  <SCORE.RESTR>
0

>  <SCORE.RESTR.CAVITY>
0

>  <SCORE.RESTR.norm>
0

>  <SCORE.SYSTEM>
0

>  <SCORE.SYSTEM.CONST>
0

>  <SCORE.SYSTEM.DIHEDRAL>
0

>  <SCORE.SYSTEM.SOLV>
0

>  <SCORE.SYSTEM.norm>
0

>  <SCORE.heavy>
25

>  <SCORE.norm>
-0.321939

>  <RMSD>
7.896

$$$$
ligand
 OpenBabel11021811503D
libRbt.so/2013.1/901 2013/11/27
 25 27  0  0  0  0  0  0  0  0999 V2000
    0.3169  -19.6588   26.7370 N   0  0  0  0  0  0  0  0  0  0  0  0
    0.2439  -20.7432   25.8073 C   0  0  0  0  0  0  0  0  0  0  0  0
   -0.8078  -21.3451   25.6287 O   0  0  0  0  0  0  0  0  0  0  0  0
   11.3791  -20.0962   22.3942 N   0  0  0  0  0  0  0  0  0  0  0  0
    9.4039  -20.3545   21.0537 N   0  0  0  0  0  0  0  0  0  0  0  0
   10.2239  -20.8421   22.0133 C   0  0  0  0  0  0  0  0  0  0  0  0
    9.9700  -22.0420   22.6169 N   0  0  0  0  0  0  0  0  0  0  0  0
    8.8905  -22.7978   22.2915 C   0  0  0  0  0  0  0  0  0  0  0  0
    8.0004  -22.3156   21.3021 C   0  0  0  0  0  0  0  0  0  0  0  0
    8.6817  -23.9909   22.9425 O   0  0  0  0  0  0  0  0  0  0  0  0
    6.7739  -24.4554   20.6579 C   0  0  0  0  0  0  0  0  0  0  0  0
    6.8203  -23.0238   20.8339 N   0  0  0  0  0  0  0  0  0  0  0  0
    7.4275  -25.0485   19.8065 O   0  0  0  0  0  0  0  0  0  0  0  0
    5.7488  -22.2045   20.4566 C   0  0  2  0  0  0  0  0  0  0  0  0
    6.2104  -21.2249   19.3472 C   0  0  0  0  0  0  0  0  0  0  0  0
    8.2969  -21.0663   20.6711 C   0  0  0  0  0  0  0  0  0  0  0  0
    7.3984  -20.5316   19.6442 N   0  0  0  0  0  0  0  0  0  0  0  0
    5.2094  -21.4390   21.6480 C   0  0  0  0  0  0  0  0  0  0  0  0
    4.8620  -22.2028   22.8143 N   0  0  0  0  0  0  0  0  0  0  0  0
    1.4679  -21.1176   25.0455 C   0  0  0  0  0  0  0  0  0  0  0  0
    2.6976  -21.2257   25.6801 C   0  0  0  0  0  0  0  0  0  0  0  0
    3.8207  -21.5777   24.9413 C   0  0  0  0  0  0  0  0  0  0  0  0
    3.7105  -21.8330   23.5759 C   0  0  0  0  0  0  0  0  0  0  0  0
    2.4803  -21.7344   22.9496 C   0  0  0  0  0  0  0  0  0  0  0  0
    1.3590  -21.3716   23.6860 C   0  0  0  0  0  0  0  0  0  0  0  0
  1  2  1  0  0  0  0
  2  3  2  0  0  0  0
  2 20  1  0  0  0  0
  4  6  1  0  0  0  0
  5  6  2  0  0  0  0
  5 16  1  0  0  0  0
  6  7  1  0  0  0  0
  7  8  1  0  0  0  0
  8  9  1  0  0  0  0
  8 10  2  0  0  0  0
  9 12  1  0  0  0  0
  9 16  2  0  0  0  0
 11 13  1  0  0  0  0
 11 12  1  0  0  0  0
 12 14  1  0  0  0  0
 14 15  1  0  0  0  0
 14 18  1  1  0  0  0
 15 17  1  0  0  0  0
 16 17  1  0  0  0  0
 18 19  1  0  0  0  0
 19 23  1  0  0  0  0
 20 21  2  0  0  0  0
 20 25  1  0  0  0  0
 21 22  1  0  0  0  0
 22 23  2  0  0  0  0
 23 24  1  0  0  0  0
 24 25  2  0  0  0  0
M  END
>  <CHROM.1>
-66.97660419,-52.45441983,-142.20221924,-124.98129755,45.14048154,5.67764662
-21.81591238,22.53424783,-2.69645189,-0.20169805,-2.21534352

>  <Name>
ligand

>  <RI>
0

>  <Rbt.Current_Directory>
/home/itssahil/PROJECTS/Mol_Feturizer/New_Systems/rnas/4LVV

>  <Rbt.Executable>
rbdock ($Id: //depot/dev/client3/rdock/2013.1/src/exe/rbdock.cxx#4 $)

>  <Rbt.Library>
libRbt.so (2013.1, Build901 2013/11/27)

>  <Rbt.Parameter_File>
/export/apps/rDock/src/rDock_2013.1_src/data/scripts/dock_solv.prm

>  <Rbt.Receptor>
prm/pocket_docking_8.prm

>  <SCORE>
-10.8225

>  <SCORE.INTER>
-9.99902

>  <SCORE.INTER.CONST>
1

>  <SCORE.INTER.POLAR>
0

>  <SCORE.INTER.ROT>
5

>  <SCORE.INTER.SOLV>
15.2602

>  <SCORE.INTER.VDW>
-18.6861

>  <SCORE.INTER.norm>
-0.399961

>  <SCORE.INTRA>
-0.823522

>  <SCORE.INTRA.DIHEDRAL>
0.254716

>  <SCORE.INTRA.DIHEDRAL.0>
3.94806

>  <SCORE.INTRA.POLAR>
0

>  <SCORE.INTRA.POLAR.0>
0

>  <SCORE.INTRA.REPUL>
0

>  <SCORE.INTRA.REPUL.0>
0

>  <SCORE.INTRA.SOLV>
0.0986814

>  <SCORE.INTRA.SOLV.lig_0>
-70.9803

>  <SCORE.INTRA.VDW>
-1.00022

>  <SCORE.INTRA.VDW.0>
-0.709409

>  <SCORE.INTRA.norm>
-0.0329409

>  <SCORE.RESTR>
0

>  <SCORE.RESTR.CAVITY>
0

>  <SCORE.RESTR.norm>
0

>  <SCORE.SYSTEM>
0

>  <SCORE.SYSTEM.CONST>
0

>  <SCORE.SYSTEM.DIHEDRAL>
0

>  <SCORE.SYSTEM.SOLV>
0

>  <SCORE.SYSTEM.norm>
0

>  <SCORE.heavy>
25

>  <SCORE.norm>
-0.432902

>  <RMSD>
8.215

$$$$
ligand
 OpenBabel11021811503D
libRbt.so/2013.1/901 2013/11/27
 25 27  0  0  0  0  0  0  0  0999 V2000
    1.6596  -20.1035   25.8461 N   0  0  0  0  0  0  0  0  0  0  0  0
    1.5272  -21.0555   24.7871 C   0  0  0  0  0  0  0  0  0  0  0  0
    0.4223  -21.4438   24.4286 O   0  0  0  0  0  0  0  0  0  0  0  0
   11.3596  -19.8103   26.1839 N   0  0  0  0  0  0  0  0  0  0  0  0
   10.4707  -20.6847   24.1319 N   0  0  0  0  0  0  0  0  0  0  0  0
   10.9094  -20.9088   25.3922 C   0  0  0  0  0  0  0  0  0  0  0  0
   10.9382  -22.1708   25.9163 N   0  0  0  0  0  0  0  0  0  0  0  0
   10.5284  -23.2542   25.2086 C   0  0  0  0  0  0  0  0  0  0  0  0
   10.0489  -23.0598   23.8911 C   0  0  0  0  0  0  0  0  0  0  0  0
   10.5698  -24.4976   25.7945 O   0  0  0  0  0  0  0  0  0  0  0  0
   10.2315  -25.4207   22.9471 C   0  0  0  0  0  0  0  0  0  0  0  0
    9.6013  -24.1238   23.0073 N   0  0  0  0  0  0  0  0  0  0  0  0
   11.2669  -25.6355   22.3261 O   0  0  0  0  0  0  0  0  0  0  0  0
    8.5707  -23.7688   22.1277 C   0  0  2  0  0  0  0  0  0  0  0  0
    9.0195  -22.5631   21.2625 C   0  0  0  0  0  0  0  0  0  0  0  0
   10.0457  -21.7324   23.3573 C   0  0  0  0  0  0  0  0  0  0  0  0
    9.5542  -21.4894   21.9983 N   0  0  0  0  0  0  0  0  0  0  0  0
    7.3041  -23.4323   22.8885 C   0  0  0  0  0  0  0  0  0  0  0  0
    6.1894  -22.9476   22.1225 N   0  0  0  0  0  0  0  0  0  0  0  0
    2.7588  -21.5549   24.1144 C   0  0  0  0  0  0  0  0  0  0  0  0
    3.7428  -22.2214   24.8316 C   0  0  0  0  0  0  0  0  0  0  0  0
    4.8797  -22.6757   24.1744 C   0  0  0  0  0  0  0  0  0  0  0  0
    5.0249  -22.4750   22.8031 C   0  0  0  0  0  0  0  0  0  0  0  0
    4.0363  -21.8193   22.0903 C   0  0  0  0  0  0  0  0  0  0  0  0
    2.9042  -21.3551   22.7492 C   0  0  0  0  0  0  0  0  0  0  0  0
  1  2  1  0  0  0  0
  2  3  2  0  0  0  0
  2 20  1  0  0  0  0
  4  6  1  0  0  0  0
  5  6  2  0  0  0  0
  5 16  1  0  0  0  0
  6  7  1  0  0  0  0
  7  8  1  0  0  0  0
  8  9  1  0  0  0  0
  8 10  2  0  0  0  0
  9 12  1  0  0  0  0
  9 16  2  0  0  0  0
 11 13  1  0  0  0  0
 11 12  1  0  0  0  0
 12 14  1  0  0  0  0
 14 15  1  0  0  0  0
 14 18  1  1  0  0  0
 15 17  1  0  0  0  0
 16 17  1  0  0  0  0
 18 19  1  0  0  0  0
 19 23  1  0  0  0  0
 20 21  2  0  0  0  0
 20 25  1  0  0  0  0
 21 22  1  0  0  0  0
 22 23  2  0  0  0  0
 23 24  1  0  0  0  0
 24 25  2  0  0  0  0
M  END
>  <CHROM.1>
-79.78035810,175.24458343,-173.04700872,-10.17750368,60.03164973,7.42659205
-22.45662497,23.77596509,-2.99416082,0.13104108,-2.31686660

>  <Name>
ligand

>  <RI>
0

>  <Rbt.Current_Directory>
/home/itssahil/PROJECTS/Mol_Feturizer/New_Systems/rnas/4LVV

>  <Rbt.Executable>
rbdock ($Id: //depot/dev/client3/rdock/2013.1/src/exe/rbdock.cxx#4 $)

>  <Rbt.Library>
libRbt.so (2013.1, Build901 2013/11/27)

>  <Rbt.Parameter_File>
/export/apps/rDock/src/rDock_2013.1_src/data/scripts/dock_solv.prm

>  <Rbt.Receptor>
prm/pocket_docking_5.prm

>  <SCORE>
-6.36339

>  <SCORE.INTER>
-5.91524

>  <SCORE.INTER.CONST>
1

>  <SCORE.INTER.POLAR>
0

>  <SCORE.INTER.ROT>
5

>  <SCORE.INTER.SOLV>
10.0812

>  <SCORE.INTER.VDW>
-14.2372

>  <SCORE.INTER.norm>
-0.236609

>  <SCORE.INTRA>
-0.448156

>  <SCORE.INTRA.DIHEDRAL>
-0.726648

>  <SCORE.INTRA.DIHEDRAL.0>
3.94806

>  <SCORE.INTRA.POLAR>
0

>  <SCORE.INTRA.POLAR.0>
0

>  <SCORE.INTRA.REPUL>
0

>  <SCORE.INTRA.REPUL.0>
0

>  <SCORE.INTRA.SOLV>
-0.149386

>  <SCORE.INTRA.SOLV.lig_0>
-70.9803

>  <SCORE.INTRA.VDW>
-0.0101385

>  <SCORE.INTRA.VDW.0>
-0.709409

>  <SCORE.INTRA.norm>
-0.0179262

>  <SCORE.RESTR>
0

>  <SCORE.RESTR.CAVITY>
0

>  <SCORE.RESTR.norm>
0

>  <SCORE.SYSTEM>
0

>  <SCORE.SYSTEM.CONST>
0

>  <SCORE.SYSTEM.DIHEDRAL>
0

>  <SCORE.SYSTEM.SOLV>
0

>  <SCORE.SYSTEM.norm>
0

>  <SCORE.heavy>
25

>  <SCORE.norm>
-0.254536

>  <RMSD>
8.222

$$$$
ligand
 OpenBabel11021811503D
libRbt.so/2013.1/901 2013/11/27
 25 27  0  0  0  0  0  0  0  0999 V2000
    0.8106  -21.5699   24.4199 N   0  0  0  0  0  0  0  0  0  0  0  0
    2.1157  -21.1737   24.8500 C   0  0  0  0  0  0  0  0  0  0  0  0
    2.2568  -20.3739   25.7669 O   0  0  0  0  0  0  0  0  0  0  0  0
   11.0617  -22.3975   25.2281 N   0  0  0  0  0  0  0  0  0  0  0  0
    9.9680  -22.3282   23.0917 N   0  0  0  0  0  0  0  0  0  0  0  0
   10.4815  -23.0616   24.1062 C   0  0  0  0  0  0  0  0  0  0  0  0
   10.4632  -24.4279   24.0701 N   0  0  0  0  0  0  0  0  0  0  0  0
    9.9304  -25.1138   23.0270 C   0  0  0  0  0  0  0  0  0  0  0  0
    9.3701  -24.3828   21.9522 C   0  0  0  0  0  0  0  0  0  0  0  0
    9.9304  -26.4887   23.0535 O   0  0  0  0  0  0  0  0  0  0  0  0
    9.3231  -26.1563   20.1217 C   0  0  0  0  0  0  0  0  0  0  0  0
    8.7881  -24.9778   20.7603 N   0  0  0  0  0  0  0  0  0  0  0  0
    8.6187  -27.0306   19.6284 O   0  0  0  0  0  0  0  0  0  0  0  0
    7.7223  -24.2617   20.2008 C   0  0  2  0  0  0  0  0  0  0  0  0
    8.1870  -22.8228   19.8587 C   0  0  0  0  0  0  0  0  0  0  0  0
    9.4176  -22.9538   22.0035 C   0  0  0  0  0  0  0  0  0  0  0  0
    8.8455  -22.1611   20.9117 N   0  0  0  0  0  0  0  0  0  0  0  0
    6.5404  -24.2252   21.1485 C   0  0  0  0  0  0  0  0  0  0  0  0
    6.6936  -23.4638   22.3572 N   0  0  0  0  0  0  0  0  0  0  0  0
    3.3035  -21.7652   24.1734 C   0  0  0  0  0  0  0  0  0  0  0  0
    3.5761  -21.4890   22.8406 C   0  0  0  0  0  0  0  0  0  0  0  0
    4.6928  -22.0559   22.2385 C   0  0  0  0  0  0  0  0  0  0  0  0
    5.5399  -22.8851   22.9710 C   0  0  0  0  0  0  0  0  0  0  0  0
    5.2700  -23.1490   24.3025 C   0  0  0  0  0  0  0  0  0  0  0  0
    4.1471  -22.5911   24.9019 C   0  0  0  0  0  0  0  0  0  0  0  0
  1  2  1  0  0  0  0
  2  3  2  0  0  0  0
  2 20  1  0  0  0  0
  4  6  1  0  0  0  0
  5  6  2  0  0  0  0
  5 16  1  0  0  0  0
  6  7  1  0  0  0  0
  7  8  1  0  0  0  0
  8  9  1  0  0  0  0
  8 10  2  0  0  0  0
  9 12  1  0  0  0  0
  9 16  2  0  0  0  0
 11 13  1  0  0  0  0
 11 12  1  0  0  0  0
 12 14  1  0  0  0  0
 14 15  1  0  0  0  0
 14 18  1  1  0  0  0
 15 17  1  0  0  0  0
 16 17  1  0  0  0  0
 18 19  1  0  0  0  0
 19 23  1  0  0  0  0
 20 21  2  0  0  0  0
 20 25  1  0  0  0  0
 21 22  1  0  0  0  0
 22 23  2  0  0  0  0
 23 24  1  0  0  0  0
 24 25  2  0  0  0  0
M  END
>  <CHROM.1>
141.99329148,68.23004585,151.92459907,-54.23745235,66.35639692,7.13804238
-23.38913813,22.68352041,2.63102883,-0.20760301,1.02521525

>  <Name>
ligand

>  <RI>
0

>  <Rbt.Current_Directory>
/home/itssahil/PROJECTS/Mol_Feturizer/New_Systems/rnas/4LVV

>  <Rbt.Executable>
rbdock ($Id: //depot/dev/client3/rdock/2013.1/src/exe/rbdock.cxx#4 $)

>  <Rbt.Library>
libRbt.so (2013.1, Build901 2013/11/27)

>  <Rbt.Parameter_File>
/export/apps/rDock/src/rDock_2013.1_src/data/scripts/dock_solv.prm

>  <Rbt.Receptor>
prm/pocket_docking_7.prm

>  <SCORE>
-7.76424

>  <SCORE.INTER>
-7.81385

>  <SCORE.INTER.CONST>
1

>  <SCORE.INTER.POLAR>
0

>  <SCORE.INTER.ROT>
5

>  <SCORE.INTER.SOLV>
11.7363

>  <SCORE.INTER.VDW>
-16.0547

>  <SCORE.INTER.norm>
-0.312554

>  <SCORE.INTRA>
0.0496084

>  <SCORE.INTRA.DIHEDRAL>
-0.0383754

>  <SCORE.INTRA.DIHEDRAL.0>
3.94806

>  <SCORE.INTRA.POLAR>
0

>  <SCORE.INTRA.POLAR.0>
0

>  <SCORE.INTRA.REPUL>
0

>  <SCORE.INTRA.REPUL.0>
0

>  <SCORE.INTRA.SOLV>
2.21174

>  <SCORE.INTRA.SOLV.lig_0>
-70.9803

>  <SCORE.INTRA.VDW>
-1.03708

>  <SCORE.INTRA.VDW.0>
-0.709409

>  <SCORE.INTRA.norm>
0.00198434

>  <SCORE.RESTR>
0

>  <SCORE.RESTR.CAVITY>
0

>  <SCORE.RESTR.norm>
0

>  <SCORE.SYSTEM>
0

>  <SCORE.SYSTEM.CONST>
0

>  <SCORE.SYSTEM.DIHEDRAL>
0

>  <SCORE.SYSTEM.SOLV>
0

>  <SCORE.SYSTEM.norm>
0

>  <SCORE.heavy>
25

>  <SCORE.norm>
-0.31057

>  <RMSD>
8.345

$$$$
ligand
 OpenBabel11021811503D
libRbt.so/2013.1/901 2013/11/27
 25 27  0  0  0  0  0  0  0  0999 V2000
    1.3341  -21.8950   24.0281 N   0  0  0  0  0  0  0  0  0  0  0  0
    2.5290  -21.4852   24.6985 C   0  0  0  0  0  0  0  0  0  0  0  0
    2.4931  -20.6327   25.5772 O   0  0  0  0  0  0  0  0  0  0  0  0
   12.4967  -26.0977   27.8646 N   0  0  0  0  0  0  0  0  0  0  0  0
   12.0678  -24.5445   26.0845 N   0  0  0  0  0  0  0  0  0  0  0  0
   11.9435  -25.7957   26.5844 C   0  0  0  0  0  0  0  0  0  0  0  0
   11.3059  -26.7781   25.8796 N   0  0  0  0  0  0  0  0  0  0  0  0
   10.7657  -26.5512   24.6552 C   0  0  0  0  0  0  0  0  0  0  0  0
   10.8622  -25.2512   24.1035 C   0  0  0  0  0  0  0  0  0  0  0  0
   10.1259  -27.5769   23.9998 O   0  0  0  0  0  0  0  0  0  0  0  0
   10.4139  -25.7273   21.6396 C   0  0  0  0  0  0  0  0  0  0  0  0
   10.3549  -24.8665   22.7965 N   0  0  0  0  0  0  0  0  0  0  0  0
    9.4832  -26.4443   21.2885 O   0  0  0  0  0  0  0  0  0  0  0  0
    9.8952  -23.5467   22.7047 C   0  0  2  0  0  0  0  0  0  0  0  0
   11.0343  -22.5720   23.0996 C   0  0  0  0  0  0  0  0  0  0  0  0
   11.5504  -24.2443   24.8513 C   0  0  0  0  0  0  0  0  0  0  0  0
   11.6691  -22.8853   24.3158 N   0  0  0  0  0  0  0  0  0  0  0  0
    8.6850  -23.3340   23.5915 C   0  0  0  0  0  0  0  0  0  0  0  0
    7.4435  -23.9100   23.1544 N   0  0  0  0  0  0  0  0  0  0  0  0
    3.8189  -22.1273   24.3206 C   0  0  0  0  0  0  0  0  0  0  0  0
    4.4729  -22.9832   25.1961 C   0  0  0  0  0  0  0  0  0  0  0  0
    5.6744  -23.5670   24.8132 C   0  0  0  0  0  0  0  0  0  0  0  0
    6.2119  -23.3053   23.5546 C   0  0  0  0  0  0  0  0  0  0  0  0
    5.5508  -22.4597   22.6809 C   0  0  0  0  0  0  0  0  0  0  0  0
    4.3549  -21.8669   23.0678 C   0  0  0  0  0  0  0  0  0  0  0  0
  1  2  1  0  0  0  0
  2  3  2  0  0  0  0
  2 20  1  0  0  0  0
  4  6  1  0  0  0  0
  5  6  2  0  0  0  0
  5 16  1  0  0  0  0
  6  7  1  0  0  0  0
  7  8  1  0  0  0  0
  8  9  1  0  0  0  0
  8 10  2  0  0  0  0
  9 12  1  0  0  0  0
  9 16  2  0  0  0  0
 11 13  1  0  0  0  0
 11 12  1  0  0  0  0
 12 14  1  0  0  0  0
 14 15  1  0  0  0  0
 14 18  1  1  0  0  0
 15 17  1  0  0  0  0
 16 17  1  0  0  0  0
 18 19  1  0  0  0  0
 19 23  1  0  0  0  0
 20 21  2  0  0  0  0
 20 25  1  0  0  0  0
 21 22  1  0  0  0  0
 22 23  2  0  0  0  0
 23 24  1  0  0  0  0
 24 25  2  0  0  0  0
M  END
>  <CHROM.1>
95.52141555,-73.48490147,-152.47799459,-81.28372646,-110.67406336,8.31962891
-24.06214854,24.16098550,-3.13624778,0.42980328,-1.70256145

>  <Name>
ligand

>  <RI>
0

>  <Rbt.Current_Directory>
/home/itssahil/PROJECTS/Mol_Feturizer/New_Systems/rnas/4LVV

>  <Rbt.Executable>
rbdock ($Id: //depot/dev/client3/rdock/2013.1/src/exe/rbdock.cxx#4 $)

>  <Rbt.Library>
libRbt.so (2013.1, Build901 2013/11/27)

>  <Rbt.Parameter_File>
/export/apps/rDock/src/rDock_2013.1_src/data/scripts/dock_solv.prm

>  <Rbt.Receptor>
prm/pocket_docking_5.prm

>  <SCORE>
-8.04433

>  <SCORE.INTER>
-7.17273

>  <SCORE.INTER.CONST>
1

>  <SCORE.INTER.POLAR>
0

>  <SCORE.INTER.ROT>
5

>  <SCORE.INTER.SOLV>
12.398

>  <SCORE.INTER.VDW>
-15.8478

>  <SCORE.INTER.norm>
-0.286909

>  <SCORE.INTRA>
-0.871598

>  <SCORE.INTRA.DIHEDRAL>
0.609851

>  <SCORE.INTRA.DIHEDRAL.0>
3.94806

>  <SCORE.INTRA.POLAR>
0

>  <SCORE.INTRA.POLAR.0>
0

>  <SCORE.INTRA.REPUL>
0

>  <SCORE.INTRA.REPUL.0>
0

>  <SCORE.INTRA.SOLV>
0.219916

>  <SCORE.INTRA.SOLV.lig_0>
-70.9803

>  <SCORE.INTRA.VDW>
-1.28648

>  <SCORE.INTRA.VDW.0>
-0.709409

>  <SCORE.INTRA.norm>
-0.0348639

>  <SCORE.RESTR>
0

>  <SCORE.RESTR.CAVITY>
0

>  <SCORE.RESTR.norm>
0

>  <SCORE.SYSTEM>
0

>  <SCORE.SYSTEM.CONST>
0

>  <SCORE.SYSTEM.DIHEDRAL>
0

>  <SCORE.SYSTEM.SOLV>
0

>  <SCORE.SYSTEM.norm>
0

>  <SCORE.heavy>
25

>  <SCORE.norm>
-0.321773

>  <RMSD>
9.009

$$$$
ligand
 OpenBabel11021811503D
libRbt.so/2013.1/901 2013/11/27
 25 27  0  0  0  0  0  0  0  0999 V2000
   -1.6234  -28.9896   26.1420 N   0  0  0  0  0  0  0  0  0  0  0  0
   -2.6659  -29.9620   26.2568 C   0  0  0  0  0  0  0  0  0  0  0  0
   -2.8314  -30.8083   25.3871 O   0  0  0  0  0  0  0  0  0  0  0  0
   -9.1474  -25.9856   36.5298 N   0  0  0  0  0  0  0  0  0  0  0  0
   -8.8611  -26.5567   34.2153 N   0  0  0  0  0  0  0  0  0  0  0  0
   -8.3367  -26.0558   35.3576 C   0  0  0  0  0  0  0  0  0  0  0  0
   -7.0467  -25.6065   35.4053 N   0  0  0  0  0  0  0  0  0  0  0  0
   -6.2308  -25.6427   34.3211 C   0  0  0  0  0  0  0  0  0  0  0  0
   -6.7376  -26.1729   33.1105 C   0  0  0  0  0  0  0  0  0  0  0  0
   -4.9383  -25.1870   34.4342 O   0  0  0  0  0  0  0  0  0  0  0  0
   -5.0733  -25.2304   31.4251 C   0  0  0  0  0  0  0  0  0  0  0  0
   -5.9918  -26.2529   31.8651 N   0  0  0  0  0  0  0  0  0  0  0  0
   -5.1118  -24.7301   30.3062 O   0  0  0  0  0  0  0  0  0  0  0  0
   -6.3068  -27.3518   31.0558 C   0  0  2  0  0  0  0  0  0  0  0  0
   -7.8214  -27.3352   30.7251 C   0  0  0  0  0  0  0  0  0  0  0  0
   -8.0963  -26.6196   33.0796 C   0  0  0  0  0  0  0  0  0  0  0  0
   -8.6573  -27.1777   31.8461 N   0  0  0  0  0  0  0  0  0  0  0  0
   -5.9280  -28.6507   31.7383 C   0  0  0  0  0  0  0  0  0  0  0  0
   -5.9182  -29.8373   30.9283 N   0  0  0  0  0  0  0  0  0  0  0  0
   -3.5381  -29.9382   27.4641 C   0  0  0  0  0  0  0  0  0  0  0  0
   -4.7839  -30.5504   27.4560 C   0  0  0  0  0  0  0  0  0  0  0  0
   -5.5734  -30.5111   28.5989 C   0  0  0  0  0  0  0  0  0  0  0  0
   -5.1122  -29.8730   29.7486 C   0  0  0  0  0  0  0  0  0  0  0  0
   -3.8649  -29.2733   29.7553 C   0  0  0  0  0  0  0  0  0  0  0  0
   -3.0798  -29.3028   28.6091 C   0  0  0  0  0  0  0  0  0  0  0  0
  1  2  1  0  0  0  0
  2  3  2  0  0  0  0
  2 20  1  0  0  0  0
  4  6  1  0  0  0  0
  5  6  2  0  0  0  0
  5 16  1  0  0  0  0
  6  7  1  0  0  0  0
  7  8  1  0  0  0  0
  8  9  1  0  0  0  0
  8 10  2  0  0  0  0
  9 12  1  0  0  0  0
  9 16  2  0  0  0  0
 11 13  1  0  0  0  0
 11 12  1  0  0  0  0
 12 14  1  0  0  0  0
 14 15  1  0  0  0  0
 14 18  1  1  0  0  0
 15 17  1  0  0  0  0
 16 17  1  0  0  0  0
 18 19  1  0  0  0  0
 19 23  1  0  0  0  0
 20 21  2  0  0  0  0
 20 25  1  0  0  0  0
 21 22  1  0  0  0  0
 22 23  2  0  0  0  0
 23 24  1  0  0  0  0
 24 25  2  0  0  0  0
M  END
>  <CHROM.1>
-129.26047330,-166.84092845,56.12202507,-142.08362453,159.91599115,-5.73373970
-27.67790412,31.05808247,-0.97898243,0.61682822,0.69982289

>  <Name>
ligand

>  <RI>
0

>  <Rbt.Current_Directory>
/home/itssahil/PROJECTS/Mol_Feturizer/New_Systems/rnas/4LVV

>  <Rbt.Executable>
rbdock ($Id: //depot/dev/client3/rdock/2013.1/src/exe/rbdock.cxx#4 $)

>  <Rbt.Library>
libRbt.so (2013.1, Build901 2013/11/27)

>  <Rbt.Parameter_File>
/export/apps/rDock/src/rDock_2013.1_src/data/scripts/dock_solv.prm

>  <Rbt.Receptor>
prm/blind_docking_80.prm

>  <SCORE>
-21.6803

>  <SCORE.INTER>
-21.0423

>  <SCORE.INTER.CONST>
1

>  <SCORE.INTER.POLAR>
0

>  <SCORE.INTER.ROT>
5

>  <SCORE.INTER.SOLV>
15.7938

>  <SCORE.INTER.VDW>
-26.2261

>  <SCORE.INTER.norm>
-0.841693

>  <SCORE.INTRA>
-0.638001

>  <SCORE.INTRA.DIHEDRAL>
-0.000654298

>  <SCORE.INTRA.DIHEDRAL.0>
3.94806

>  <SCORE.INTRA.POLAR>
0

>  <SCORE.INTRA.POLAR.0>
0

>  <SCORE.INTRA.REPUL>
0

>  <SCORE.INTRA.REPUL.0>
0

>  <SCORE.INTRA.SOLV>
-0.463154

>  <SCORE.INTRA.SOLV.lig_0>
-70.9803

>  <SCORE.INTRA.VDW>
-0.406097

>  <SCORE.INTRA.VDW.0>
-0.709409

>  <SCORE.INTRA.norm>
-0.02552

>  <SCORE.RESTR>
0

>  <SCORE.RESTR.CAVITY>
0

>  <SCORE.RESTR.norm>
0

>  <SCORE.SYSTEM>
0

>  <SCORE.SYSTEM.CONST>
0

>  <SCORE.SYSTEM.DIHEDRAL>
0

>  <SCORE.SYSTEM.SOLV>
0

>  <SCORE.SYSTEM.norm>
0

>  <SCORE.heavy>
25

>  <SCORE.norm>
-0.867213

>  <RMSD>
14.458

$$$$
ligand
 OpenBabel11021811503D
libRbt.so/2013.1/901 2013/11/27
 25 27  0  0  0  0  0  0  0  0999 V2000
   -3.1103  -31.4687   25.0172 N   0  0  0  0  0  0  0  0  0  0  0  0
   -2.5246  -30.6767   26.0541 C   0  0  0  0  0  0  0  0  0  0  0  0
   -1.3579  -30.3114   25.9798 O   0  0  0  0  0  0  0  0  0  0  0  0
  -10.2712  -27.2074   35.6210 N   0  0  0  0  0  0  0  0  0  0  0  0
   -9.9057  -27.1516   33.2486 N   0  0  0  0  0  0  0  0  0  0  0  0
   -9.4064  -27.0288   34.5002 C   0  0  0  0  0  0  0  0  0  0  0  0
   -8.0899  -26.7264   34.7091 N   0  0  0  0  0  0  0  0  0  0  0  0
   -7.2220  -26.5395   33.6823 C   0  0  0  0  0  0  0  0  0  0  0  0
   -7.7023  -26.6735   32.3576 C   0  0  0  0  0  0  0  0  0  0  0  0
   -5.9060  -26.2490   33.9560 O   0  0  0  0  0  0  0  0  0  0  0  0
   -5.8816  -25.4613   31.0485 C   0  0  0  0  0  0  0  0  0  0  0  0
   -6.8989  -26.4786   31.1617 N   0  0  0  0  0  0  0  0  0  0  0  0
   -5.7277  -24.5708   31.8775 O   0  0  0  0  0  0  0  0  0  0  0  0
   -7.2541  -27.2836   30.0720 C   0  0  2  0  0  0  0  0  0  0  0  0
   -8.7428  -27.0426   29.7125 C   0  0  0  0  0  0  0  0  0  0  0  0
   -9.0880  -26.9718   32.1634 C   0  0  0  0  0  0  0  0  0  0  0  0
   -9.6232  -27.1214   30.8074 N   0  0  0  0  0  0  0  0  0  0  0  0
   -7.0145  -28.7475   30.3820 C   0  0  0  0  0  0  0  0  0  0  0  0
   -5.6515  -29.1634   30.5650 N   0  0  0  0  0  0  0  0  0  0  0  0
   -3.3654  -30.2882   27.2207 C   0  0  0  0  0  0  0  0  0  0  0  0
   -4.6993  -30.6649   27.2953 C   0  0  0  0  0  0  0  0  0  0  0  0
   -5.4567  -30.2873   28.3975 C   0  0  0  0  0  0  0  0  0  0  0  0
   -4.8777  -29.5470   29.4263 C   0  0  0  0  0  0  0  0  0  0  0  0
   -3.5445  -29.1829   29.3525 C   0  0  0  0  0  0  0  0  0  0  0  0
   -2.7897  -29.5509   28.2452 C   0  0  0  0  0  0  0  0  0  0  0  0
  1  2  1  0  0  0  0
  2  3  2  0  0  0  0
  2 20  1  0  0  0  0
  4  6  1  0  0  0  0
  5  6  2  0  0  0  0
  5 16  1  0  0  0  0
  6  7  1  0  0  0  0
  7  8  1  0  0  0  0
  8  9  1  0  0  0  0
  8 10  2  0  0  0  0
  9 12  1  0  0  0  0
  9 16  2  0  0  0  0
 11 13  1  0  0  0  0
 11 12  1  0  0  0  0
 12 14  1  0  0  0  0
 14 15  1  0  0  0  0
 14 18  1  1  0  0  0
 15 17  1  0  0  0  0
 16 17  1  0  0  0  0
 18 19  1  0  0  0  0
 19 23  1  0  0  0  0
 20 21  2  0  0  0  0
 20 25  1  0  0  0  0
 21 22  1  0  0  0  0
 22 23  2  0  0  0  0
 23 24  1  0  0  0  0
 24 25  2  0  0  0  0
M  END
>  <CHROM.1>
-9.76746782,-66.21065817,-86.94844003,-39.26892132,-1.09978630,-6.25531497
-28.02910975,30.55873317,0.92997895,-0.24225509,-2.26567689

>  <Name>
ligand

>  <RI>
0

>  <Rbt.Current_Directory>
/home/itssahil/PROJECTS/Mol_Feturizer/New_Systems/rnas/4LVV

>  <Rbt.Executable>
rbdock ($Id: //depot/dev/client3/rdock/2013.1/src/exe/rbdock.cxx#4 $)

>  <Rbt.Library>
libRbt.so (2013.1, Build901 2013/11/27)

>  <Rbt.Parameter_File>
/export/apps/rDock/src/rDock_2013.1_src/data/scripts/dock_solv.prm

>  <Rbt.Receptor>
prm/blind_docking_100.prm

>  <SCORE>
-17.301

>  <SCORE.INTER>
-16.866

>  <SCORE.INTER.CONST>
1

>  <SCORE.INTER.POLAR>
0

>  <SCORE.INTER.ROT>
5

>  <SCORE.INTER.SOLV>
17.6253

>  <SCORE.INTER.VDW>
-24.0524

>  <SCORE.INTER.norm>
-0.674638

>  <SCORE.INTRA>
-0.435017

>  <SCORE.INTRA.DIHEDRAL>
0.0502332

>  <SCORE.INTRA.DIHEDRAL.0>
3.94806

>  <SCORE.INTRA.POLAR>
0

>  <SCORE.INTRA.POLAR.0>
0

>  <SCORE.INTRA.REPUL>
0

>  <SCORE.INTRA.REPUL.0>
0

>  <SCORE.INTRA.SOLV>
0.0919601

>  <SCORE.INTRA.SOLV.lig_0>
-70.9803

>  <SCORE.INTRA.VDW>
-0.506113

>  <SCORE.INTRA.VDW.0>
-0.709409

>  <SCORE.INTRA.norm>
-0.0174007

>  <SCORE.RESTR>
0

>  <SCORE.RESTR.CAVITY>
0

>  <SCORE.RESTR.norm>
0

>  <SCORE.SYSTEM>
0

>  <SCORE.SYSTEM.CONST>
0

>  <SCORE.SYSTEM.DIHEDRAL>
0

>  <SCORE.SYSTEM.SOLV>
0

>  <SCORE.SYSTEM.norm>
0

>  <SCORE.heavy>
25

>  <SCORE.norm>
-0.692039

>  <RMSD>
14.707

$$$$
ligand
 OpenBabel11021811503D
libRbt.so/2013.1/901 2013/11/27
 25 27  0  0  0  0  0  0  0  0999 V2000
   -2.6690  -30.8141   25.5243 N   0  0  0  0  0  0  0  0  0  0  0  0
   -3.9692  -31.0330   26.0784 C   0  0  0  0  0  0  0  0  0  0  0  0
   -4.8254  -31.6392   25.4462 O   0  0  0  0  0  0  0  0  0  0  0  0
   -8.0227  -25.8621   37.0995 N   0  0  0  0  0  0  0  0  0  0  0  0
   -8.3448  -26.2225   34.7476 N   0  0  0  0  0  0  0  0  0  0  0  0
   -7.5044  -25.9531   35.7732 C   0  0  0  0  0  0  0  0  0  0  0  0
   -6.1687  -25.7564   35.5591 N   0  0  0  0  0  0  0  0  0  0  0  0
   -5.6202  -25.8245   34.3194 C   0  0  0  0  0  0  0  0  0  0  0  0
   -6.4640  -26.1185   33.2216 C   0  0  0  0  0  0  0  0  0  0  0  0
   -4.2674  -25.6291   34.1688 O   0  0  0  0  0  0  0  0  0  0  0  0
   -5.0297  -25.3215   31.2707 C   0  0  0  0  0  0  0  0  0  0  0  0
   -6.0249  -26.1992   31.8380 N   0  0  0  0  0  0  0  0  0  0  0  0
   -5.1595  -24.7756   30.1803 O   0  0  0  0  0  0  0  0  0  0  0  0
   -6.7173  -27.1274   31.0501 C   0  0  2  0  0  0  0  0  0  0  0  0
   -8.2319  -26.7971   31.0699 C   0  0  0  0  0  0  0  0  0  0  0  0
   -7.8614  -26.3019   33.4676 C   0  0  0  0  0  0  0  0  0  0  0  0
   -8.7673  -26.6106   32.3579 N   0  0  0  0  0  0  0  0  0  0  0  0
   -6.4769  -28.5398   31.5438 C   0  0  0  0  0  0  0  0  0  0  0  0
   -5.1803  -29.1076   31.2978 N   0  0  0  0  0  0  0  0  0  0  0  0
   -4.2593  -30.5248   27.4482 C   0  0  0  0  0  0  0  0  0  0  0  0
   -3.2903  -29.8510   28.1789 C   0  0  0  0  0  0  0  0  0  0  0  0
   -3.5927  -29.3886   29.4539 C   0  0  0  0  0  0  0  0  0  0  0  0
   -4.8634  -29.5885   29.9898 C   0  0  0  0  0  0  0  0  0  0  0  0
   -5.8295  -30.2515   29.2533 C   0  0  0  0  0  0  0  0  0  0  0  0
   -5.5240  -30.7239   27.9825 C   0  0  0  0  0  0  0  0  0  0  0  0
  1  2  1  0  0  0  0
  2  3  2  0  0  0  0
  2 20  1  0  0  0  0
  4  6  1  0  0  0  0
  5  6  2  0  0  0  0
  5 16  1  0  0  0  0
  6  7  1  0  0  0  0
  7  8  1  0  0  0  0
  8  9  1  0  0  0  0
  8 10  2  0  0  0  0
  9 12  1  0  0  0  0
  9 16  2  0  0  0  0
 11 13  1  0  0  0  0
 11 12  1  0  0  0  0
 12 14  1  0  0  0  0
 14 15  1  0  0  0  0
 14 18  1  1  0  0  0
 15 17  1  0  0  0  0
 16 17  1  0  0  0  0
 18 19  1  0  0  0  0
 19 23  1  0  0  0  0
 20 21  2  0  0  0  0
 20 25  1  0  0  0  0
 21 22  1  0  0  0  0
 22 23  2  0  0  0  0
 23 24  1  0  0  0  0
 24 25  2  0  0  0  0
M  END
>  <CHROM.1>
-134.36477048,-72.49563819,-77.15259072,140.98256811,-0.02110067,-5.79456383
-27.77567544,31.15524947,-1.23053013,0.41682754,0.86813453

>  <Name>
ligand

>  <RI>
0

>  <Rbt.Current_Directory>
/home/itssahil/PROJECTS/Mol_Feturizer/New_Systems/rnas/4LVV

>  <Rbt.Executable>
rbdock ($Id: //depot/dev/client3/rdock/2013.1/src/exe/rbdock.cxx#4 $)

>  <Rbt.Library>
libRbt.so (2013.1, Build901 2013/11/27)

>  <Rbt.Parameter_File>
/export/apps/rDock/src/rDock_2013.1_src/data/scripts/dock_solv.prm

>  <Rbt.Receptor>
prm/blind_docking_80.prm

>  <SCORE>
-22.2188

>  <SCORE.INTER>
-21.6721

>  <SCORE.INTER.CONST>
1

>  <SCORE.INTER.POLAR>
0

>  <SCORE.INTER.ROT>
5

>  <SCORE.INTER.SOLV>
21.0145

>  <SCORE.INTER.VDW>
-28.3862

>  <SCORE.INTER.norm>
-0.866883

>  <SCORE.INTRA>
-0.562513

>  <SCORE.INTRA.DIHEDRAL>
0.2064

>  <SCORE.INTRA.DIHEDRAL.0>
3.94806

>  <SCORE.INTRA.POLAR>
0

>  <SCORE.INTRA.POLAR.0>
0

>  <SCORE.INTRA.REPUL>
0

>  <SCORE.INTRA.REPUL.0>
0

>  <SCORE.INTRA.SOLV>
-0.296452

>  <SCORE.INTRA.SOLV.lig_0>
-70.9803

>  <SCORE.INTRA.VDW>
-0.517487

>  <SCORE.INTRA.VDW.0>
-0.709409

>  <SCORE.INTRA.norm>
-0.0225005

>  <SCORE.RESTR>
0.0158339

>  <SCORE.RESTR.CAVITY>
0.0158339

>  <SCORE.RESTR.norm>
0.000633354

>  <SCORE.SYSTEM>
0

>  <SCORE.SYSTEM.CONST>
0

>  <SCORE.SYSTEM.DIHEDRAL>
0

>  <SCORE.SYSTEM.SOLV>
0

>  <SCORE.SYSTEM.norm>
0

>  <SCORE.heavy>
25

>  <SCORE.norm>
-0.888751

>  <RMSD>
14.743

$$$$
ligand
 OpenBabel11021811503D
libRbt.so/2013.1/901 2013/11/27
 25 27  0  0  0  0  0  0  0  0999 V2000
   -1.1925  -29.3698   26.2109 N   0  0  0  0  0  0  0  0  0  0  0  0
   -2.4190  -30.1051   26.1959 C   0  0  0  0  0  0  0  0  0  0  0  0
   -2.7209  -30.7998   25.2335 O   0  0  0  0  0  0  0  0  0  0  0  0
  -10.4347  -27.5384   35.8560 N   0  0  0  0  0  0  0  0  0  0  0  0
   -9.6666  -27.6938   33.5864 N   0  0  0  0  0  0  0  0  0  0  0  0
   -9.4680  -27.2463   34.8478 C   0  0  0  0  0  0  0  0  0  0  0  0
   -8.3623  -26.5104   35.1706 N   0  0  0  0  0  0  0  0  0  0  0  0
   -7.4128  -26.1967   34.2528 C   0  0  0  0  0  0  0  0  0  0  0  0
   -7.5767  -26.6586   32.9248 C   0  0  0  0  0  0  0  0  0  0  0  0
   -6.3161  -25.4633   34.6406 O   0  0  0  0  0  0  0  0  0  0  0  0
   -5.9839  -25.1163   31.6667 C   0  0  0  0  0  0  0  0  0  0  0  0
   -6.6585  -26.3813   31.8323 N   0  0  0  0  0  0  0  0  0  0  0  0
   -6.4597  -24.0485   32.0372 O   0  0  0  0  0  0  0  0  0  0  0  0
   -6.5509  -27.3993   30.8763 C   0  0  2  0  0  0  0  0  0  0  0  0
   -7.9502  -27.7022   30.2815 C   0  0  0  0  0  0  0  0  0  0  0  0
   -8.7511  -27.4109   32.6064 C   0  0  0  0  0  0  0  0  0  0  0  0
   -8.9560  -27.9094   31.2436 N   0  0  0  0  0  0  0  0  0  0  0  0
   -5.9524  -28.6508   31.4860 C   0  0  0  0  0  0  0  0  0  0  0  0
   -5.9318  -29.8320   30.6683 N   0  0  0  0  0  0  0  0  0  0  0  0
   -3.3171  -30.0248   27.3816 C   0  0  0  0  0  0  0  0  0  0  0  0
   -2.9185  -29.3630   28.5347 C   0  0  0  0  0  0  0  0  0  0  0  0
   -3.7800  -29.3052   29.6235 C   0  0  0  0  0  0  0  0  0  0  0  0
   -5.0400  -29.8961   29.5533 C   0  0  0  0  0  0  0  0  0  0  0  0
   -5.4373  -30.5456   28.3976 C   0  0  0  0  0  0  0  0  0  0  0  0
   -4.5716  -30.6132   27.3125 C   0  0  0  0  0  0  0  0  0  0  0  0
  1  2  1  0  0  0  0
  2  3  2  0  0  0  0
  2 20  1  0  0  0  0
  4  6  1  0  0  0  0
  5  6  2  0  0  0  0
  5 16  1  0  0  0  0
  6  7  1  0  0  0  0
  7  8  1  0  0  0  0
  8  9  1  0  0  0  0
  8 10  2  0  0  0  0
  9 12  1  0  0  0  0
  9 16  2  0  0  0  0
 11 13  1  0  0  0  0
 11 12  1  0  0  0  0
 12 14  1  0  0  0  0
 14 15  1  0  0  0  0
 14 18  1  1  0  0  0
 15 17  1  0  0  0  0
 16 17  1  0  0  0  0
 18 19  1  0  0  0  0
 19 23  1  0  0  0  0
 20 21  2  0  0  0  0
 20 25  1  0  0  0  0
 21 22  1  0  0  0  0
 22 23  2  0  0  0  0
 23 24  1  0  0  0  0
 24 25  2  0  0  0  0
M  END
>  <CHROM.1>
-29.96687532,172.57359682,70.92359279,35.51503472,-6.47768423,-6.17621115
-27.99832949,30.94160285,-0.81245908,0.61021290,0.61075229

>  <Name>
ligand

>  <RI>
0

>  <Rbt.Current_Directory>
/home/itssahil/PROJECTS/Mol_Feturizer/New_Systems/rnas/4LVV

>  <Rbt.Executable>
rbdock ($Id: //depot/dev/client3/rdock/2013.1/src/exe/rbdock.cxx#4 $)

>  <Rbt.Library>
libRbt.so (2013.1, Build901 2013/11/27)

>  <Rbt.Parameter_File>
/export/apps/rDock/src/rDock_2013.1_src/data/scripts/dock_solv.prm

>  <Rbt.Receptor>
prm/blind_docking_100.prm

>  <SCORE>
-20.457

>  <SCORE.INTER>
-19.9982

>  <SCORE.INTER.CONST>
1

>  <SCORE.INTER.POLAR>
0

>  <SCORE.INTER.ROT>
5

>  <SCORE.INTER.SOLV>
12.8689

>  <SCORE.INTER.VDW>
-24.5551

>  <SCORE.INTER.norm>
-0.799927

>  <SCORE.INTRA>
-0.458827

>  <SCORE.INTRA.DIHEDRAL>
-0.224711

>  <SCORE.INTRA.DIHEDRAL.0>
3.94806

>  <SCORE.INTRA.POLAR>
0

>  <SCORE.INTRA.POLAR.0>
0

>  <SCORE.INTRA.REPUL>
0

>  <SCORE.INTRA.REPUL.0>
0

>  <SCORE.INTRA.SOLV>
0.122217

>  <SCORE.INTRA.SOLV.lig_0>
-70.9803

>  <SCORE.INTRA.VDW>
-0.40758

>  <SCORE.INTRA.VDW.0>
-0.709409

>  <SCORE.INTRA.norm>
-0.0183531

>  <SCORE.RESTR>
0

>  <SCORE.RESTR.CAVITY>
0

>  <SCORE.RESTR.norm>
0

>  <SCORE.SYSTEM>
0

>  <SCORE.SYSTEM.CONST>
0

>  <SCORE.SYSTEM.DIHEDRAL>
0

>  <SCORE.SYSTEM.SOLV>
0

>  <SCORE.SYSTEM.norm>
0

>  <SCORE.heavy>
25

>  <SCORE.norm>
-0.81828

>  <RMSD>
14.768

$$$$
ligand
 OpenBabel11021811503D
libRbt.so/2013.1/901 2013/11/27
 25 27  0  0  0  0  0  0  0  0999 V2000
   -2.8422  -30.7982   25.5650 N   0  0  0  0  0  0  0  0  0  0  0  0
   -4.1402  -30.9921   26.1333 C   0  0  0  0  0  0  0  0  0  0  0  0
   -5.0218  -31.5610   25.5014 O   0  0  0  0  0  0  0  0  0  0  0  0
   -7.6220  -25.8312   37.3251 N   0  0  0  0  0  0  0  0  0  0  0  0
   -8.0884  -26.1686   34.9940 N   0  0  0  0  0  0  0  0  0  0  0  0
   -7.1821  -25.9378   35.9718 C   0  0  0  0  0  0  0  0  0  0  0  0
   -5.8534  -25.7950   35.6843 N   0  0  0  0  0  0  0  0  0  0  0  0
   -5.3777  -25.8804   34.4158 C   0  0  0  0  0  0  0  0  0  0  0  0
   -6.2924  -26.1352   33.3660 C   0  0  0  0  0  0  0  0  0  0  0  0
   -4.0285  -25.7398   34.1907 O   0  0  0  0  0  0  0  0  0  0  0  0
   -4.9370  -25.3895   31.3400 C   0  0  0  0  0  0  0  0  0  0  0  0
   -5.9344  -26.2281   31.9601 N   0  0  0  0  0  0  0  0  0  0  0  0
   -5.1563  -24.7119   30.3417 O   0  0  0  0  0  0  0  0  0  0  0  0
   -6.7069  -27.1241   31.2102 C   0  0  2  0  0  0  0  0  0  0  0  0
   -8.2032  -26.7322   31.3147 C   0  0  0  0  0  0  0  0  0  0  0  0
   -7.6803  -26.2624   33.6890 C   0  0  0  0  0  0  0  0  0  0  0  0
   -8.6583  -26.5293   32.6307 N   0  0  0  0  0  0  0  0  0  0  0  0
   -6.4976  -28.5471   31.6872 C   0  0  0  0  0  0  0  0  0  0  0  0
   -5.2230  -29.1497   31.4105 N   0  0  0  0  0  0  0  0  0  0  0  0
   -4.3968  -30.5043   27.5171 C   0  0  0  0  0  0  0  0  0  0  0  0
   -3.4326  -29.7854   28.2101 C   0  0  0  0  0  0  0  0  0  0  0  0
   -3.7032  -29.3435   29.4995 C   0  0  0  0  0  0  0  0  0  0  0  0
   -4.9383  -29.6091   30.0875 C   0  0  0  0  0  0  0  0  0  0  0  0
   -5.9005  -30.3171   29.3886 C   0  0  0  0  0  0  0  0  0  0  0  0
   -5.6262  -30.7687   28.1033 C   0  0  0  0  0  0  0  0  0  0  0  0
  1  2  1  0  0  0  0
  2  3  2  0  0  0  0
  2 20  1  0  0  0  0
  4  6  1  0  0  0  0
  5  6  2  0  0  0  0
  5 16  1  0  0  0  0
  6  7  1  0  0  0  0
  7  8  1  0  0  0  0
  8  9  1  0  0  0  0
  8 10  2  0  0  0  0
  9 12  1  0  0  0  0
  9 16  2  0  0  0  0
 11 13  1  0  0  0  0
 11 12  1  0  0  0  0
 12 14  1  0  0  0  0
 14 15  1  0  0  0  0
 14 18  1  1  0  0  0
 15 17  1  0  0  0  0
 16 17  1  0  0  0  0
 18 19  1  0  0  0  0
 19 23  1  0  0  0  0
 20 21  2  0  0  0  0
 20 25  1  0  0  0  0
 21 22  1  0  0  0  0
 22 23  2  0  0  0  0
 23 24  1  0  0  0  0
 24 25  2  0  0  0  0
M  END
>  <CHROM.1>
-125.63023735,-70.31818921,-76.19157755,135.87728982,4.82983068,-5.74365226
-27.77060176,31.28413965,-1.27648949,0.42416230,0.89471123

>  <Name>
ligand

>  <RI>
0

>  <Rbt.Current_Directory>
/home/itssahil/PROJECTS/Mol_Feturizer/New_Systems/rnas/4LVV

>  <Rbt.Executable>
rbdock ($Id: //depot/dev/client3/rdock/2013.1/src/exe/rbdock.cxx#4 $)

>  <Rbt.Library>
libRbt.so (2013.1, Build901 2013/11/27)

>  <Rbt.Parameter_File>
/export/apps/rDock/src/rDock_2013.1_src/data/scripts/dock_solv.prm

>  <Rbt.Receptor>
prm/blind_docking_100.prm

>  <SCORE>
-22.4986

>  <SCORE.INTER>
-21.69

>  <SCORE.INTER.CONST>
1

>  <SCORE.INTER.POLAR>
0

>  <SCORE.INTER.ROT>
5

>  <SCORE.INTER.SOLV>
21.3318

>  <SCORE.INTER.VDW>
-28.5039

>  <SCORE.INTER.norm>
-0.867599

>  <SCORE.INTRA>
-0.817428

>  <SCORE.INTRA.DIHEDRAL>
-0.0509927

>  <SCORE.INTRA.DIHEDRAL.0>
3.94806

>  <SCORE.INTRA.POLAR>
0

>  <SCORE.INTRA.POLAR.0>
0

>  <SCORE.INTRA.REPUL>
0

>  <SCORE.INTRA.REPUL.0>
0

>  <SCORE.INTRA.SOLV>
-0.266461

>  <SCORE.INTRA.SOLV.lig_0>
-70.9803

>  <SCORE.INTRA.VDW>
-0.658701

>  <SCORE.INTRA.VDW.0>
-0.709409

>  <SCORE.INTRA.norm>
-0.0326971

>  <SCORE.RESTR>
0.0088232

>  <SCORE.RESTR.CAVITY>
0.0088232

>  <SCORE.RESTR.norm>
0.000352928

>  <SCORE.SYSTEM>
0

>  <SCORE.SYSTEM.CONST>
0

>  <SCORE.SYSTEM.DIHEDRAL>
0

>  <SCORE.SYSTEM.SOLV>
0

>  <SCORE.SYSTEM.norm>
0

>  <SCORE.heavy>
25

>  <SCORE.norm>
-0.899943

>  <RMSD>
14.802

$$$$
ligand
 OpenBabel11021811503D
libRbt.so/2013.1/901 2013/11/27
 25 27  0  0  0  0  0  0  0  0999 V2000
   -5.7523  -30.8494   27.8107 N   0  0  0  0  0  0  0  0  0  0  0  0
   -6.0081  -30.6394   29.2020 C   0  0  0  0  0  0  0  0  0  0  0  0
   -6.1435  -31.5887   29.9640 O   0  0  0  0  0  0  0  0  0  0  0  0
   -4.9321  -19.3935   35.3567 N   0  0  0  0  0  0  0  0  0  0  0  0
   -4.5388  -21.7541   35.1615 N   0  0  0  0  0  0  0  0  0  0  0  0
   -5.3947  -20.7108   35.0620 C   0  0  0  0  0  0  0  0  0  0  0  0
   -6.6976  -20.8985   34.6939 N   0  0  0  0  0  0  0  0  0  0  0  0
   -7.1952  -22.1285   34.4076 C   0  0  0  0  0  0  0  0  0  0  0  0
   -6.3278  -23.2443   34.4861 C   0  0  0  0  0  0  0  0  0  0  0  0
   -8.5120  -22.2524   34.0312 O   0  0  0  0  0  0  0  0  0  0  0  0
   -8.0023  -25.1612   34.6261 C   0  0  0  0  0  0  0  0  0  0  0  0
   -6.7234  -24.6202   34.2333 N   0  0  0  0  0  0  0  0  0  0  0  0
   -8.5439  -24.8959   35.6939 O   0  0  0  0  0  0  0  0  0  0  0  0
   -5.7276  -25.4290   33.6711 C   0  0  2  0  0  0  0  0  0  0  0  0
   -4.4815  -25.4341   34.5935 C   0  0  0  0  0  0  0  0  0  0  0  0
   -4.9733  -23.0257   34.8917 C   0  0  0  0  0  0  0  0  0  0  0  0
   -4.0433  -24.1546   34.9822 N   0  0  0  0  0  0  0  0  0  0  0  0
   -5.3577  -24.9436   32.2841 C   0  0  0  0  0  0  0  0  0  0  0  0
   -6.2316  -25.3148   31.2058 N   0  0  0  0  0  0  0  0  0  0  0  0
   -6.0902  -29.2426   29.7127 C   0  0  0  0  0  0  0  0  0  0  0  0
   -7.2615  -28.5073   29.5933 C   0  0  0  0  0  0  0  0  0  0  0  0
   -7.3060  -27.2067   30.0807 C   0  0  0  0  0  0  0  0  0  0  0  0
   -6.1870  -26.6495   30.6964 C   0  0  0  0  0  0  0  0  0  0  0  0
   -5.0248  -27.3902   30.8228 C   0  0  0  0  0  0  0  0  0  0  0  0
   -4.9764  -28.6870   30.3256 C   0  0  0  0  0  0  0  0  0  0  0  0
  1  2  1  0  0  0  0
  2  3  2  0  0  0  0
  2 20  1  0  0  0  0
  4  6  1  0  0  0  0
  5  6  2  0  0  0  0
  5 16  1  0  0  0  0
  6  7  1  0  0  0  0
  7  8  1  0  0  0  0
  8  9  1  0  0  0  0
  8 10  2  0  0  0  0
  9 12  1  0  0  0  0
  9 16  2  0  0  0  0
 11 13  1  0  0  0  0
 11 12  1  0  0  0  0
 12 14  1  0  0  0  0
 14 15  1  0  0  0  0
 14 18  1  6  0  0  0
 15 17  1  0  0  0  0
 16 17  1  0  0  0  0
 18 19  1  0  0  0  0
 19 23  1  0  0  0  0
 20 21  2  0  0  0  0
 20 25  1  0  0  0  0
 21 22  1  0  0  0  0
 22 23  2  0  0  0  0
 23 24  1  0  0  0  0
 24 25  2  0  0  0  0
M  END
>  <CHROM.1>
-39.98032042,-80.01493545,-75.94178921,153.94357390,82.19675436,-6.12967442
-25.33004866,32.77296547,-1.57250963,0.14233963,0.61195403

>  <Name>
ligand

>  <RI>
0

>  <Rbt.Current_Directory>
/home/itssahil/PROJECTS/Mol_Feturizer/New_Systems/rnas/4LVV

>  <Rbt.Executable>
rbdock ($Id: //depot/dev/client3/rdock/2013.1/src/exe/rbdock.cxx#4 $)

>  <Rbt.Library>
libRbt.so (2013.1, Build901 2013/11/27)

>  <Rbt.Parameter_File>
/export/apps/rDock/src/rDock_2013.1_src/data/scripts/dock_solv.prm

>  <Rbt.Receptor>
prm/blind_docking_80.prm

>  <SCORE>
-18.0466

>  <SCORE.INTER>
-17.6725

>  <SCORE.INTER.CONST>
1

>  <SCORE.INTER.POLAR>
0

>  <SCORE.INTER.ROT>
5

>  <SCORE.INTER.SOLV>
18.9819

>  <SCORE.INTER.VDW>
-25.0423

>  <SCORE.INTER.norm>
-0.706898

>  <SCORE.INTRA>
-0.374125

>  <SCORE.INTRA.DIHEDRAL>
0.975022

>  <SCORE.INTRA.DIHEDRAL.0>
3.94806

>  <SCORE.INTRA.POLAR>
0

>  <SCORE.INTRA.POLAR.0>
0

>  <SCORE.INTRA.REPUL>
0

>  <SCORE.INTRA.REPUL.0>
0

>  <SCORE.INTRA.SOLV>
-0.228112

>  <SCORE.INTRA.SOLV.lig_0>
-70.9803

>  <SCORE.INTRA.VDW>
-0.74758

>  <SCORE.INTRA.VDW.0>
-0.709409

>  <SCORE.INTRA.norm>
-0.014965

>  <SCORE.RESTR>
0

>  <SCORE.RESTR.CAVITY>
0

>  <SCORE.RESTR.norm>
0

>  <SCORE.SYSTEM>
0

>  <SCORE.SYSTEM.CONST>
0

>  <SCORE.SYSTEM.DIHEDRAL>
0

>  <SCORE.SYSTEM.SOLV>
0

>  <SCORE.SYSTEM.norm>
0

>  <SCORE.heavy>
25

>  <SCORE.norm>
-0.721863

>  <RMSD>
15.271

$$$$
ligand
 OpenBabel11021811503D
libRbt.so/2013.1/901 2013/11/27
 25 27  0  0  0  0  0  0  0  0999 V2000
   -5.8787  -31.5451   30.3044 N   0  0  0  0  0  0  0  0  0  0  0  0
   -5.9479  -30.4813   29.3510 C   0  0  0  0  0  0  0  0  0  0  0  0
   -5.9933  -30.7185   28.1503 O   0  0  0  0  0  0  0  0  0  0  0  0
   -5.0527  -20.0560   36.3660 N   0  0  0  0  0  0  0  0  0  0  0  0
   -4.7347  -22.2406   35.4217 N   0  0  0  0  0  0  0  0  0  0  0  0
   -5.5660  -21.3298   35.9786 C   0  0  0  0  0  0  0  0  0  0  0  0
   -6.8872  -21.6127   36.1858 N   0  0  0  0  0  0  0  0  0  0  0  0
   -7.4300  -22.8088   35.8433 C   0  0  0  0  0  0  0  0  0  0  0  0
   -6.5962  -23.7835   35.2447 C   0  0  0  0  0  0  0  0  0  0  0  0
   -8.7688  -23.0302   36.0657 O   0  0  0  0  0  0  0  0  0  0  0  0
   -7.9705  -25.8991   35.6107 C   0  0  0  0  0  0  0  0  0  0  0  0
   -7.0294  -25.1136   34.8490 N   0  0  0  0  0  0  0  0  0  0  0  0
   -9.1153  -26.1258   35.2340 O   0  0  0  0  0  0  0  0  0  0  0  0
   -6.3841  -25.6354   33.7207 C   0  0  2  0  0  0  0  0  0  0  0  0
   -4.8537  -25.6665   33.9665 C   0  0  0  0  0  0  0  0  0  0  0  0
   -5.2129  -23.4716   35.0551 C   0  0  0  0  0  0  0  0  0  0  0  0
   -4.3177  -24.4529   34.4361 N   0  0  0  0  0  0  0  0  0  0  0  0
   -6.7058  -24.8154   32.4877 C   0  0  0  0  0  0  0  0  0  0  0  0
   -5.9815  -25.1270   31.2867 N   0  0  0  0  0  0  0  0  0  0  0  0
   -5.9813  -29.0767   29.8458 C   0  0  0  0  0  0  0  0  0  0  0  0
   -7.1543  -28.3353   29.8090 C   0  0  0  0  0  0  0  0  0  0  0  0
   -7.1526  -27.0276   30.2790 C   0  0  0  0  0  0  0  0  0  0  0  0
   -5.9851  -26.4691   30.7954 C   0  0  0  0  0  0  0  0  0  0  0  0
   -4.8206  -27.2158   30.8399 C   0  0  0  0  0  0  0  0  0  0  0  0
   -4.8192  -28.5199   30.3597 C   0  0  0  0  0  0  0  0  0  0  0  0
  1  2  1  0  0  0  0
  2  3  2  0  0  0  0
  2 20  1  0  0  0  0
  4  6  1  0  0  0  0
  5  6  2  0  0  0  0
  5 16  1  0  0  0  0
  6  7  1  0  0  0  0
  7  8  1  0  0  0  0
  8  9  1  0  0  0  0
  8 10  2  0  0  0  0
  9 12  1  0  0  0  0
  9 16  2  0  0  0  0
 11 13  1  0  0  0  0
 11 12  1  0  0  0  0
 12 14  1  0  0  0  0
 14 15  1  0  0  0  0
 14 18  1  6  0  0  0
 15 17  1  0  0  0  0
 16 17  1  0  0  0  0
 18 19  1  0  0  0  0
 19 23  1  0  0  0  0
 20 21  2  0  0  0  0
 20 25  1  0  0  0  0
 21 22  1  0  0  0  0
 22 23  2  0  0  0  0
 23 24  1  0  0  0  0
 24 25  2  0  0  0  0
M  END
>  <CHROM.1>
109.25208373,172.26950108,54.45529539,68.67540276,-106.10862318,-6.29655306
-25.60026567,33.16274342,1.52203392,-0.52997214,-2.44883251

>  <Name>
ligand

>  <RI>
0

>  <Rbt.Current_Directory>
/home/itssahil/PROJECTS/Mol_Feturizer/New_Systems/rnas/4LVV

>  <Rbt.Executable>
rbdock ($Id: //depot/dev/client3/rdock/2013.1/src/exe/rbdock.cxx#4 $)

>  <Rbt.Library>
libRbt.so (2013.1, Build901 2013/11/27)

>  <Rbt.Parameter_File>
/export/apps/rDock/src/rDock_2013.1_src/data/scripts/dock_solv.prm

>  <Rbt.Receptor>
prm/blind_docking_100.prm

>  <SCORE>
-14.8679

>  <SCORE.INTER>
-13.5406

>  <SCORE.INTER.CONST>
1

>  <SCORE.INTER.POLAR>
0

>  <SCORE.INTER.ROT>
5

>  <SCORE.INTER.SOLV>
14.5905

>  <SCORE.INTER.VDW>
-20.8239

>  <SCORE.INTER.norm>
-0.541623

>  <SCORE.INTRA>
-1.32729

>  <SCORE.INTRA.DIHEDRAL>
-0.367566

>  <SCORE.INTRA.DIHEDRAL.0>
3.94806

>  <SCORE.INTRA.POLAR>
0

>  <SCORE.INTRA.POLAR.0>
0

>  <SCORE.INTRA.REPUL>
0

>  <SCORE.INTRA.REPUL.0>
0

>  <SCORE.INTRA.SOLV>
0.0929488

>  <SCORE.INTRA.SOLV.lig_0>
-70.9803

>  <SCORE.INTRA.VDW>
-1.18998

>  <SCORE.INTRA.VDW.0>
-0.709409

>  <SCORE.INTRA.norm>
-0.0530916

>  <SCORE.RESTR>
0

>  <SCORE.RESTR.CAVITY>
0

>  <SCORE.RESTR.norm>
0

>  <SCORE.SYSTEM>
0

>  <SCORE.SYSTEM.CONST>
0

>  <SCORE.SYSTEM.DIHEDRAL>
0

>  <SCORE.SYSTEM.SOLV>
0

>  <SCORE.SYSTEM.norm>
0

>  <SCORE.heavy>
25

>  <SCORE.norm>
-0.594715

>  <RMSD>
15.595

$$$$
ligand
 OpenBabel11021811503D
libRbt.so/2013.1/901 2013/11/27
 25 27  0  0  0  0  0  0  0  0999 V2000
   -4.9412  -22.0887   36.8486 N   0  0  0  0  0  0  0  0  0  0  0  0
   -4.0706  -22.5649   35.8187 C   0  0  0  0  0  0  0  0  0  0  0  0
   -2.9022  -22.2009   35.7685 O   0  0  0  0  0  0  0  0  0  0  0  0
  -11.1129  -26.8840   33.7438 N   0  0  0  0  0  0  0  0  0  0  0  0
   -8.9485  -27.8640   33.3971 N   0  0  0  0  0  0  0  0  0  0  0  0
  -10.0569  -27.2903   32.8744 C   0  0  0  0  0  0  0  0  0  0  0  0
  -10.1867  -27.1028   31.5267 N   0  0  0  0  0  0  0  0  0  0  0  0
   -9.2184  -27.4745   30.6511 C   0  0  0  0  0  0  0  0  0  0  0  0
   -8.0369  -28.0653   31.1598 C   0  0  0  0  0  0  0  0  0  0  0  0
   -9.4017  -27.2487   29.3070 O   0  0  0  0  0  0  0  0  0  0  0  0
   -7.1043  -29.1824   29.0668 C   0  0  0  0  0  0  0  0  0  0  0  0
   -6.9286  -28.5349   30.3445 N   0  0  0  0  0  0  0  0  0  0  0  0
   -6.1787  -29.6762   28.4318 O   0  0  0  0  0  0  0  0  0  0  0  0
   -5.6650  -28.4131   30.9363 C   0  0  2  0  0  0  0  0  0  0  0  0
   -5.6472  -29.1796   32.2838 C   0  0  0  0  0  0  0  0  0  0  0  0
   -7.9317  -28.2686   32.5720 C   0  0  0  0  0  0  0  0  0  0  0  0
   -6.7232  -28.8744   33.1379 N   0  0  0  0  0  0  0  0  0  0  0  0
   -5.3079  -26.9562   31.1510 C   0  0  0  0  0  0  0  0  0  0  0  0
   -6.1982  -26.1771   31.9662 N   0  0  0  0  0  0  0  0  0  0  0  0
   -4.6062  -23.5271   34.8157 C   0  0  0  0  0  0  0  0  0  0  0  0
   -4.1158  -24.8233   34.7381 C   0  0  0  0  0  0  0  0  0  0  0  0
   -4.6372  -25.6970   33.7917 C   0  0  0  0  0  0  0  0  0  0  0  0
   -5.6541  -25.2789   32.9357 C   0  0  0  0  0  0  0  0  0  0  0  0
   -6.1474  -23.9888   33.0239 C   0  0  0  0  0  0  0  0  0  0  0  0
   -5.6184  -23.1113   33.9628 C   0  0  0  0  0  0  0  0  0  0  0  0
  1  2  1  0  0  0  0
  2  3  2  0  0  0  0
  2 20  1  0  0  0  0
  4  6  1  0  0  0  0
  5  6  2  0  0  0  0
  5 16  1  0  0  0  0
  6  7  1  0  0  0  0
  7  8  1  0  0  0  0
  8  9  1  0  0  0  0
  8 10  2  0  0  0  0
  9 12  1  0  0  0  0
  9 16  2  0  0  0  0
 11 13  1  0  0  0  0
 11 12  1  0  0  0  0
 12 14  1  0  0  0  0
 14 15  1  0  0  0  0
 14 18  1  1  0  0  0
 15 17  1  0  0  0  0
 16 17  1  0  0  0  0
 18 19  1  0  0  0  0
 19 23  1  0  0  0  0
 20 21  2  0  0  0  0
 20 25  1  0  0  0  0
 21 22  1  0  0  0  0
 22 23  2  0  0  0  0
 23 24  1  0  0  0  0
 24 25  2  0  0  0  0
M  END
>  <CHROM.1>
-173.77615132,58.51302550,136.92642950,-46.87475267,-115.10196401,-6.70813907
-26.47558155,32.50119408,1.08541036,0.12706517,0.79430708

>  <Name>
ligand

>  <RI>
0

>  <Rbt.Current_Directory>
/home/itssahil/PROJECTS/Mol_Feturizer/New_Systems/rnas/4LVV

>  <Rbt.Executable>
rbdock ($Id: //depot/dev/client3/rdock/2013.1/src/exe/rbdock.cxx#4 $)

>  <Rbt.Library>
libRbt.so (2013.1, Build901 2013/11/27)

>  <Rbt.Parameter_File>
/export/apps/rDock/src/rDock_2013.1_src/data/scripts/dock_solv.prm

>  <Rbt.Receptor>
prm/blind_docking_100.prm

>  <SCORE>
-15.2647

>  <SCORE.INTER>
-15.6294

>  <SCORE.INTER.CONST>
1

>  <SCORE.INTER.POLAR>
0

>  <SCORE.INTER.ROT>
5

>  <SCORE.INTER.SOLV>
14.6322

>  <SCORE.INTER.VDW>
-22.2303

>  <SCORE.INTER.norm>
-0.625174

>  <SCORE.INTRA>
0.351761

>  <SCORE.INTRA.DIHEDRAL>
0.320453

>  <SCORE.INTRA.DIHEDRAL.0>
3.94806

>  <SCORE.INTRA.POLAR>
0

>  <SCORE.INTRA.POLAR.0>
0

>  <SCORE.INTRA.REPUL>
0

>  <SCORE.INTRA.REPUL.0>
0

>  <SCORE.INTRA.SOLV>
2.33784

>  <SCORE.INTRA.SOLV.lig_0>
-70.9803

>  <SCORE.INTRA.VDW>
-0.977389

>  <SCORE.INTRA.VDW.0>
-0.709409

>  <SCORE.INTRA.norm>
0.0140704

>  <SCORE.RESTR>
0.0129012

>  <SCORE.RESTR.CAVITY>
0.0129012

>  <SCORE.RESTR.norm>
0.000516047

>  <SCORE.SYSTEM>
0

>  <SCORE.SYSTEM.CONST>
0

>  <SCORE.SYSTEM.DIHEDRAL>
0

>  <SCORE.SYSTEM.SOLV>
0

>  <SCORE.SYSTEM.norm>
0

>  <SCORE.heavy>
25

>  <SCORE.norm>
-0.610588

>  <RMSD>
15.715

$$$$
ligand
 OpenBabel11021811503D
libRbt.so/2013.1/901 2013/11/27
 25 27  0  0  0  0  0  0  0  0999 V2000
   -2.9717  -22.0686   35.7116 N   0  0  0  0  0  0  0  0  0  0  0  0
   -4.2823  -22.6256   35.8433 C   0  0  0  0  0  0  0  0  0  0  0  0
   -4.9977  -22.3261   36.7913 O   0  0  0  0  0  0  0  0  0  0  0  0
  -11.1041  -26.6937   33.7209 N   0  0  0  0  0  0  0  0  0  0  0  0
   -8.9756  -27.7527   33.3842 N   0  0  0  0  0  0  0  0  0  0  0  0
  -10.0654  -27.1498   32.8553 C   0  0  0  0  0  0  0  0  0  0  0  0
  -10.1930  -26.9793   31.5051 N   0  0  0  0  0  0  0  0  0  0  0  0
   -9.2408  -27.3979   30.6331 C   0  0  0  0  0  0  0  0  0  0  0  0
   -8.0786  -28.0206   31.1480 C   0  0  0  0  0  0  0  0  0  0  0  0
   -9.4205  -27.1873   29.2861 O   0  0  0  0  0  0  0  0  0  0  0  0
   -7.1913  -29.2021   29.0707 C   0  0  0  0  0  0  0  0  0  0  0  0
   -6.9895  -28.5407   30.3375 N   0  0  0  0  0  0  0  0  0  0  0  0
   -6.2695  -29.6094   28.3720 O   0  0  0  0  0  0  0  0  0  0  0  0
   -5.7206  -28.4530   30.9238 C   0  0  2  0  0  0  0  0  0  0  0  0
   -5.7248  -29.1980   32.2834 C   0  0  0  0  0  0  0  0  0  0  0  0
   -7.9758  -28.2049   32.5630 C   0  0  0  0  0  0  0  0  0  0  0  0
   -6.7870  -28.8427   33.1354 N   0  0  0  0  0  0  0  0  0  0  0  0
   -5.3132  -27.0059   31.1143 C   0  0  0  0  0  0  0  0  0  0  0  0
   -6.2293  -26.1556   31.8227 N   0  0  0  0  0  0  0  0  0  0  0  0
   -4.7700  -23.5655   34.7957 C   0  0  0  0  0  0  0  0  0  0  0  0
   -4.2223  -24.8343   34.6650 C   0  0  0  0  0  0  0  0  0  0  0  0
   -4.7000  -25.6878   33.6779 C   0  0  0  0  0  0  0  0  0  0  0  0
   -5.7303  -25.2776   32.8341 C   0  0  0  0  0  0  0  0  0  0  0  0
   -6.2806  -24.0156   32.9752 C   0  0  0  0  0  0  0  0  0  0  0  0
   -5.7955  -23.1577   33.9550 C   0  0  0  0  0  0  0  0  0  0  0  0
  1  2  1  0  0  0  0
  2  3  2  0  0  0  0
  2 20  1  0  0  0  0
  4  6  1  0  0  0  0
  5  6  2  0  0  0  0
  5 16  1  0  0  0  0
  6  7  1  0  0  0  0
  7  8  1  0  0  0  0
  8  9  1  0  0  0  0
  8 10  2  0  0  0  0
  9 12  1  0  0  0  0
  9 16  2  0  0  0  0
 11 13  1  0  0  0  0
 11 12  1  0  0  0  0
 12 14  1  0  0  0  0
 14 15  1  0  0  0  0
 14 18  1  1  0  0  0
 15 17  1  0  0  0  0
 16 17  1  0  0  0  0
 18 19  1  0  0  0  0
 19 23  1  0  0  0  0
 20 21  2  0  0  0  0
 20 25  1  0  0  0  0
 21 22  1  0  0  0  0
 22 23  2  0  0  0  0
 23 24  1  0  0  0  0
 24 25  2  0  0  0  0
M  END
>  <CHROM.1>
178.05053889,53.35789711,134.73643050,-37.72547728,69.65933980,-6.78590839
-26.45449574,32.47356852,-1.10869185,-0.10841329,-2.34698772

>  <Name>
ligand

>  <RI>
0

>  <Rbt.Current_Directory>
/home/itssahil/PROJECTS/Mol_Feturizer/New_Systems/rnas/4LVV

>  <Rbt.Executable>
rbdock ($Id: //depot/dev/client3/rdock/2013.1/src/exe/rbdock.cxx#4 $)

>  <Rbt.Library>
libRbt.so (2013.1, Build901 2013/11/27)

>  <Rbt.Parameter_File>
/export/apps/rDock/src/rDock_2013.1_src/data/scripts/dock_solv.prm

>  <Rbt.Receptor>
prm/blind_docking_80.prm

>  <SCORE>
-15.0319

>  <SCORE.INTER>
-15.5708

>  <SCORE.INTER.CONST>
1

>  <SCORE.INTER.POLAR>
0

>  <SCORE.INTER.ROT>
5

>  <SCORE.INTER.SOLV>
15.6346

>  <SCORE.INTER.VDW>
-22.5254

>  <SCORE.INTER.norm>
-0.622833

>  <SCORE.INTRA>
0.534839

>  <SCORE.INTRA.DIHEDRAL>
0.464994

>  <SCORE.INTRA.DIHEDRAL.0>
3.94806

>  <SCORE.INTRA.POLAR>
0

>  <SCORE.INTRA.POLAR.0>
0

>  <SCORE.INTRA.REPUL>
0

>  <SCORE.INTRA.REPUL.0>
0

>  <SCORE.INTRA.SOLV>
2.42379

>  <SCORE.INTRA.SOLV.lig_0>
-70.9803

>  <SCORE.INTRA.VDW>
-0.909551

>  <SCORE.INTRA.VDW.0>
-0.709409

>  <SCORE.INTRA.norm>
0.0213936

>  <SCORE.RESTR>
0.00408391

>  <SCORE.RESTR.CAVITY>
0.00408391

>  <SCORE.RESTR.norm>
0.000163356

>  <SCORE.SYSTEM>
0

>  <SCORE.SYSTEM.CONST>
0

>  <SCORE.SYSTEM.DIHEDRAL>
0

>  <SCORE.SYSTEM.SOLV>
0

>  <SCORE.SYSTEM.norm>
0

>  <SCORE.heavy>
25

>  <SCORE.norm>
-0.601276

>  <RMSD>
15.744

$$$$
ligand
 OpenBabel11021811503D
libRbt.so/2013.1/901 2013/11/27
 25 27  0  0  0  0  0  0  0  0999 V2000
   -4.5011  -30.4327   28.7830 N   0  0  0  0  0  0  0  0  0  0  0  0
   -5.4756  -30.5644   29.8214 C   0  0  0  0  0  0  0  0  0  0  0  0
   -5.9364  -31.6613   30.1122 O   0  0  0  0  0  0  0  0  0  0  0  0
   -5.2349  -19.3515   35.8975 N   0  0  0  0  0  0  0  0  0  0  0  0
   -4.5978  -21.6228   35.4495 N   0  0  0  0  0  0  0  0  0  0  0  0
   -5.5545  -20.7399   35.8187 C   0  0  0  0  0  0  0  0  0  0  0  0
   -6.8192  -21.1566   36.1273 N   0  0  0  0  0  0  0  0  0  0  0  0
   -7.1794  -22.4643   36.0761 C   0  0  0  0  0  0  0  0  0  0  0  0
   -6.2109  -23.4177   35.6804 C   0  0  0  0  0  0  0  0  0  0  0  0
   -8.4707  -22.8208   36.3866 O   0  0  0  0  0  0  0  0  0  0  0  0
   -7.2572  -25.5732   36.5508 C   0  0  0  0  0  0  0  0  0  0  0  0
   -6.4429  -24.8508   35.6032 N   0  0  0  0  0  0  0  0  0  0  0  0
   -7.4840  -25.1690   37.6861 O   0  0  0  0  0  0  0  0  0  0  0  0
   -5.7279  -25.5132   34.5973 C   0  0  2  0  0  0  0  0  0  0  0  0
   -4.2096  -25.2678   34.7926 C   0  0  0  0  0  0  0  0  0  0  0  0
   -4.8889  -22.9603   35.3803 C   0  0  0  0  0  0  0  0  0  0  0  0
   -3.8588  -23.9158   34.9640 N   0  0  0  0  0  0  0  0  0  0  0  0
   -6.1678  -25.0447   33.2250 C   0  0  0  0  0  0  0  0  0  0  0  0
   -7.1426  -25.8480   32.5403 N   0  0  0  0  0  0  0  0  0  0  0  0
   -5.9087  -29.3436   30.5567 C   0  0  0  0  0  0  0  0  0  0  0  0
   -5.7355  -29.2391   31.9300 C   0  0  0  0  0  0  0  0  0  0  0  0
   -6.1496  -28.0865   32.5865 C   0  0  0  0  0  0  0  0  0  0  0  0
   -6.7226  -27.0380   31.8695 C   0  0  0  0  0  0  0  0  0  0  0  0
   -6.8834  -27.1424   30.4989 C   0  0  0  0  0  0  0  0  0  0  0  0
   -6.4796  -28.2994   29.8436 C   0  0  0  0  0  0  0  0  0  0  0  0
  1  2  1  0  0  0  0
  2  3  2  0  0  0  0
  2 20  1  0  0  0  0
  4  6  1  0  0  0  0
  5  6  2  0  0  0  0
  5 16  1  0  0  0  0
  6  7  1  0  0  0  0
  7  8  1  0  0  0  0
  8  9  1  0  0  0  0
  8 10  2  0  0  0  0
  9 12  1  0  0  0  0
  9 16  2  0  0  0  0
 11 13  1  0  0  0  0
 11 12  1  0  0  0  0
 12 14  1  0  0  0  0
 14 15  1  0  0  0  0
 14 18  1  6  0  0  0
 15 17  1  0  0  0  0
 16 17  1  0  0  0  0
 18 19  1  0  0  0  0
 19 23  1  0  0  0  0
 20 21  2  0  0  0  0
 20 25  1  0  0  0  0
 21 22  1  0  0  0  0
 22 23  2  0  0  0  0
 23 24  1  0  0  0  0
 24 25  2  0  0  0  0
M  END
>  <CHROM.1>
-22.87783400,-96.77231652,-79.53755820,62.14749263,-120.27718745,-6.06062225
-25.46709936,33.79137608,-1.51503797,0.85700927,0.61082543

>  <Name>
ligand

>  <RI>
0

>  <Rbt.Current_Directory>
/home/itssahil/PROJECTS/Mol_Feturizer/New_Systems/rnas/4LVV

>  <Rbt.Executable>
rbdock ($Id: //depot/dev/client3/rdock/2013.1/src/exe/rbdock.cxx#4 $)

>  <Rbt.Library>
libRbt.so (2013.1, Build901 2013/11/27)

>  <Rbt.Parameter_File>
/export/apps/rDock/src/rDock_2013.1_src/data/scripts/dock_solv.prm

>  <Rbt.Receptor>
prm/blind_docking_100.prm

>  <SCORE>
-14.3991

>  <SCORE.INTER>
-14.6149

>  <SCORE.INTER.CONST>
1

>  <SCORE.INTER.POLAR>
0

>  <SCORE.INTER.ROT>
5

>  <SCORE.INTER.SOLV>
14.8867

>  <SCORE.INTER.VDW>
-21.6388

>  <SCORE.INTER.norm>
-0.584596

>  <SCORE.INTRA>
0.215779

>  <SCORE.INTRA.DIHEDRAL>
3.29853

>  <SCORE.INTRA.DIHEDRAL.0>
3.94806

>  <SCORE.INTRA.POLAR>
0

>  <SCORE.INTRA.POLAR.0>
0

>  <SCORE.INTRA.REPUL>
0

>  <SCORE.INTRA.REPUL.0>
0

>  <SCORE.INTRA.SOLV>
-0.34498

>  <SCORE.INTRA.SOLV.lig_0>
-70.9803

>  <SCORE.INTRA.VDW>
-1.26099

>  <SCORE.INTRA.VDW.0>
-0.709409

>  <SCORE.INTRA.norm>
0.00863116

>  <SCORE.RESTR>
0

>  <SCORE.RESTR.CAVITY>
0

>  <SCORE.RESTR.norm>
0

>  <SCORE.SYSTEM>
0

>  <SCORE.SYSTEM.CONST>
0

>  <SCORE.SYSTEM.DIHEDRAL>
0

>  <SCORE.SYSTEM.SOLV>
0

>  <SCORE.SYSTEM.norm>
0

>  <SCORE.heavy>
25

>  <SCORE.norm>
-0.575965

>  <RMSD>
15.756

$$$$
ligand
 OpenBabel11021811503D
libRbt.so/2013.1/901 2013/11/27
 25 27  0  0  0  0  0  0  0  0999 V2000
   -9.3161  -28.2234   29.7486 N   0  0  0  0  0  0  0  0  0  0  0  0
   -7.9195  -28.5304   29.7761 C   0  0  0  0  0  0  0  0  0  0  0  0
   -7.4615  -29.4268   29.0784 O   0  0  0  0  0  0  0  0  0  0  0  0
   -5.9456  -19.4556   35.5919 N   0  0  0  0  0  0  0  0  0  0  0  0
   -6.0215  -21.7658   36.2419 N   0  0  0  0  0  0  0  0  0  0  0  0
   -6.2063  -20.8250   35.2871 C   0  0  0  0  0  0  0  0  0  0  0  0
   -6.6483  -21.1628   34.0386 N   0  0  0  0  0  0  0  0  0  0  0  0
   -6.9183  -22.4474   33.6931 C   0  0  0  0  0  0  0  0  0  0  0  0
   -6.7238  -23.4630   34.6597 C   0  0  0  0  0  0  0  0  0  0  0  0
   -7.3489  -22.7264   32.4173 O   0  0  0  0  0  0  0  0  0  0  0  0
   -8.1122  -25.3578   33.6694 C   0  0  0  0  0  0  0  0  0  0  0  0
   -6.9936  -24.8750   34.4430 N   0  0  0  0  0  0  0  0  0  0  0  0
   -9.2521  -25.4363   34.1148 O   0  0  0  0  0  0  0  0  0  0  0  0
   -6.1470  -25.7523   35.1325 C   0  0  2  0  0  0  0  0  0  0  0  0
   -6.2259  -25.4614   36.6532 C   0  0  0  0  0  0  0  0  0  0  0  0
   -6.2786  -23.0833   35.9652 C   0  0  0  0  0  0  0  0  0  0  0  0
   -6.0626  -24.1056   36.9928 N   0  0  0  0  0  0  0  0  0  0  0  0
   -4.7193  -25.6216   34.6417 C   0  0  0  0  0  0  0  0  0  0  0  0
   -4.5207  -25.5315   33.2216 N   0  0  0  0  0  0  0  0  0  0  0  0
   -7.0266  -27.7274   30.6574 C   0  0  0  0  0  0  0  0  0  0  0  0
   -6.6582  -26.4345   30.3116 C   0  0  0  0  0  0  0  0  0  0  0  0
   -5.8245  -25.7113   31.1559 C   0  0  0  0  0  0  0  0  0  0  0  0
   -5.3721  -26.2752   32.3472 C   0  0  0  0  0  0  0  0  0  0  0  0
   -5.7508  -27.5606   32.6929 C   0  0  0  0  0  0  0  0  0  0  0  0
   -6.5756  -28.2883   31.8435 C   0  0  0  0  0  0  0  0  0  0  0  0
  1  2  1  0  0  0  0
  2  3  2  0  0  0  0
  2 20  1  0  0  0  0
  4  6  1  0  0  0  0
  5  6  2  0  0  0  0
  5 16  1  0  0  0  0
  6  7  1  0  0  0  0
  7  8  1  0  0  0  0
  8  9  1  0  0  0  0
  8 10  2  0  0  0  0
  9 12  1  0  0  0  0
  9 16  2  0  0  0  0
 11 13  1  0  0  0  0
 11 12  1  0  0  0  0
 12 14  1  0  0  0  0
 14 15  1  0  0  0  0
 14 18  1  6  0  0  0
 15 17  1  0  0  0  0
 16 17  1  0  0  0  0
 18 19  1  0  0  0  0
 19 23  1  0  0  0  0
 20 21  2  0  0  0  0
 20 25  1  0  0  0  0
 21 22  1  0  0  0  0
 22 23  2  0  0  0  0
 23 24  1  0  0  0  0
 24 25  2  0  0  0  0
M  END
>  <CHROM.1>
-80.15611913,-43.38175060,-35.57096505,140.19608483,-75.15672764,-6.67811402
-24.99178209,33.39541847,1.91467895,1.14487310,-2.75810647

>  <Name>
ligand

>  <RI>
0

>  <Rbt.Current_Directory>
/home/itssahil/PROJECTS/Mol_Feturizer/New_Systems/rnas/4LVV

>  <Rbt.Executable>
rbdock ($Id: //depot/dev/client3/rdock/2013.1/src/exe/rbdock.cxx#4 $)

>  <Rbt.Library>
libRbt.so (2013.1, Build901 2013/11/27)

>  <Rbt.Parameter_File>
/export/apps/rDock/src/rDock_2013.1_src/data/scripts/dock_solv.prm

>  <Rbt.Receptor>
prm/blind_docking_80.prm

>  <SCORE>
-12.9419

>  <SCORE.INTER>
-11.7398

>  <SCORE.INTER.CONST>
1

>  <SCORE.INTER.POLAR>
0

>  <SCORE.INTER.ROT>
5

>  <SCORE.INTER.SOLV>
14.1454

>  <SCORE.INTER.VDW>
-19.475

>  <SCORE.INTER.norm>
-0.469591

>  <SCORE.INTRA>
-1.25945

>  <SCORE.INTRA.DIHEDRAL>
0.509348

>  <SCORE.INTRA.DIHEDRAL.0>
3.94806

>  <SCORE.INTRA.POLAR>
0

>  <SCORE.INTRA.POLAR.0>
0

>  <SCORE.INTRA.REPUL>
0

>  <SCORE.INTRA.REPUL.0>
0

>  <SCORE.INTRA.SOLV>
0.738549

>  <SCORE.INTRA.SOLV.lig_0>
-70.9803

>  <SCORE.INTRA.VDW>
-1.8834

>  <SCORE.INTRA.VDW.0>
-0.709409

>  <SCORE.INTRA.norm>
-0.050378

>  <SCORE.RESTR>
0.0572825

>  <SCORE.RESTR.CAVITY>
0.0572825

>  <SCORE.RESTR.norm>
0.0022913

>  <SCORE.SYSTEM>
0

>  <SCORE.SYSTEM.CONST>
0

>  <SCORE.SYSTEM.DIHEDRAL>
0

>  <SCORE.SYSTEM.SOLV>
0

>  <SCORE.SYSTEM.norm>
0

>  <SCORE.heavy>
25

>  <SCORE.norm>
-0.517678

>  <RMSD>
15.919

$$$$
ligand
 OpenBabel11021811503D
libRbt.so/2013.1/901 2013/11/27
 25 27  0  0  0  0  0  0  0  0999 V2000
   -4.4847  -29.3186   29.5955 N   0  0  0  0  0  0  0  0  0  0  0  0
   -5.6960  -28.6726   29.9964 C   0  0  0  0  0  0  0  0  0  0  0  0
   -6.7573  -28.9330   29.4432 O   0  0  0  0  0  0  0  0  0  0  0  0
   -6.9816  -19.8394   39.0748 N   0  0  0  0  0  0  0  0  0  0  0  0
   -7.9943  -21.6377   37.8476 N   0  0  0  0  0  0  0  0  0  0  0  0
   -7.1412  -20.5877   37.8703 C   0  0  0  0  0  0  0  0  0  0  0  0
   -6.4373  -20.2250   36.7561 N   0  0  0  0  0  0  0  0  0  0  0  0
   -6.5527  -20.8952   35.5814 C   0  0  0  0  0  0  0  0  0  0  0  0
   -7.4245  -22.0087   35.5207 C   0  0  0  0  0  0  0  0  0  0  0  0
   -5.8091  -20.4901   34.4979 O   0  0  0  0  0  0  0  0  0  0  0  0
   -7.7517  -22.2414   33.0033 C   0  0  0  0  0  0  0  0  0  0  0  0
   -7.6688  -22.8052   34.3292 N   0  0  0  0  0  0  0  0  0  0  0  0
   -7.2769  -22.7852   32.0119 O   0  0  0  0  0  0  0  0  0  0  0  0
   -7.9289  -24.1609   34.5661 C   0  0  2  0  0  0  0  0  0  0  0  0
   -9.1503  -24.2972   35.5112 C   0  0  0  0  0  0  0  0  0  0  0  0
   -8.1648  -22.3579   36.6940 C   0  0  0  0  0  0  0  0  0  0  0  0
   -9.0753  -23.5059   36.6725 N   0  0  0  0  0  0  0  0  0  0  0  0
   -6.7172  -24.8462   35.1647 C   0  0  0  0  0  0  0  0  0  0  0  0
   -5.5582  -24.9775   34.3258 N   0  0  0  0  0  0  0  0  0  0  0  0
   -5.6473  -27.6877   31.1128 C   0  0  0  0  0  0  0  0  0  0  0  0
   -5.3258  -26.3581   30.8773 C   0  0  0  0  0  0  0  0  0  0  0  0
   -5.2897  -25.4638   31.9403 C   0  0  0  0  0  0  0  0  0  0  0  0
   -5.5868  -25.8961   33.2312 C   0  0  0  0  0  0  0  0  0  0  0  0
   -5.9174  -27.2205   33.4596 C   0  0  0  0  0  0  0  0  0  0  0  0
   -5.9427  -28.1174   32.3984 C   0  0  0  0  0  0  0  0  0  0  0  0
  1  2  1  0  0  0  0
  2  3  2  0  0  0  0
  2 20  1  0  0  0  0
  4  6  1  0  0  0  0
  5  6  2  0  0  0  0
  5 16  1  0  0  0  0
  6  7  1  0  0  0  0
  7  8  1  0  0  0  0
  8  9  1  0  0  0  0
  8 10  2  0  0  0  0
  9 12  1  0  0  0  0
  9 16  2  0  0  0  0
 11 13  1  0  0  0  0
 11 12  1  0  0  0  0
 12 14  1  0  0  0  0
 14 15  1  0  0  0  0
 14 18  1  1  0  0  0
 15 17  1  0  0  0  0
 16 17  1  0  0  0  0
 18 19  1  0  0  0  0
 19 23  1  0  0  0  0
 20 21  2  0  0  0  0
 20 25  1  0  0  0  0
 21 22  1  0  0  0  0
 22 23  2  0  0  0  0
 23 24  1  0  0  0  0
 24 25  2  0  0  0  0
M  END
>  <CHROM.1>
140.52387001,-67.19914345,-71.11815107,125.50994353,85.55976114,-6.75784573
-24.15723942,34.05640955,-1.17721181,1.07926864,0.38030204

>  <Name>
ligand

>  <RI>
0

>  <Rbt.Current_Directory>
/home/itssahil/PROJECTS/Mol_Feturizer/New_Systems/rnas/4LVV

>  <Rbt.Executable>
rbdock ($Id: //depot/dev/client3/rdock/2013.1/src/exe/rbdock.cxx#4 $)

>  <Rbt.Library>
libRbt.so (2013.1, Build901 2013/11/27)

>  <Rbt.Parameter_File>
/export/apps/rDock/src/rDock_2013.1_src/data/scripts/dock_solv.prm

>  <Rbt.Receptor>
prm/blind_docking_100.prm

>  <SCORE>
-12.5493

>  <SCORE.INTER>
-10.9244

>  <SCORE.INTER.CONST>
1

>  <SCORE.INTER.POLAR>
0

>  <SCORE.INTER.ROT>
5

>  <SCORE.INTER.SOLV>
11.7419

>  <SCORE.INTER.VDW>
-18.1303

>  <SCORE.INTER.norm>
-0.436978

>  <SCORE.INTRA>
-1.62487

>  <SCORE.INTRA.DIHEDRAL>
-0.515552

>  <SCORE.INTRA.DIHEDRAL.0>
3.94806

>  <SCORE.INTRA.POLAR>
0

>  <SCORE.INTRA.POLAR.0>
0

>  <SCORE.INTRA.REPUL>
0

>  <SCORE.INTRA.REPUL.0>
0

>  <SCORE.INTRA.SOLV>
0.359573

>  <SCORE.INTRA.SOLV.lig_0>
-70.9803

>  <SCORE.INTRA.VDW>
-1.54688

>  <SCORE.INTRA.VDW.0>
-0.709409

>  <SCORE.INTRA.norm>
-0.0649949

>  <SCORE.RESTR>
0

>  <SCORE.RESTR.CAVITY>
0

>  <SCORE.RESTR.norm>
0

>  <SCORE.SYSTEM>
0

>  <SCORE.SYSTEM.CONST>
0

>  <SCORE.SYSTEM.DIHEDRAL>
0

>  <SCORE.SYSTEM.SOLV>
0

>  <SCORE.SYSTEM.norm>
0

>  <SCORE.heavy>
25

>  <SCORE.norm>
-0.501973

>  <RMSD>
15.926

$$$$
ligand
 OpenBabel11021811503D
libRbt.so/2013.1/901 2013/11/27
 25 27  0  0  0  0  0  0  0  0999 V2000
   -6.9368  -29.3858   29.0496 N   0  0  0  0  0  0  0  0  0  0  0  0
   -7.6094  -28.3867   29.8209 C   0  0  0  0  0  0  0  0  0  0  0  0
   -8.8073  -28.1805   29.6702 O   0  0  0  0  0  0  0  0  0  0  0  0
   -5.9627  -19.4597   36.5484 N   0  0  0  0  0  0  0  0  0  0  0  0
   -6.1010  -21.8221   36.9548 N   0  0  0  0  0  0  0  0  0  0  0  0
   -6.2444  -20.7842   36.0986 C   0  0  0  0  0  0  0  0  0  0  0  0
   -6.6644  -20.9819   34.8129 N   0  0  0  0  0  0  0  0  0  0  0  0
   -6.9527  -22.2177   34.3312 C   0  0  0  0  0  0  0  0  0  0  0  0
   -6.8015  -23.3314   35.1917 C   0  0  0  0  0  0  0  0  0  0  0  0
   -7.3594  -22.3544   33.0247 O   0  0  0  0  0  0  0  0  0  0  0  0
   -8.2053  -25.0823   33.9826 C   0  0  0  0  0  0  0  0  0  0  0  0
   -7.0951  -24.7072   34.8250 N   0  0  0  0  0  0  0  0  0  0  0  0
   -9.3345  -25.2898   34.4135 O   0  0  0  0  0  0  0  0  0  0  0  0
   -6.2828  -25.6697   35.4378 C   0  0  2  0  0  0  0  0  0  0  0  0
   -6.3907  -25.5347   36.9784 C   0  0  0  0  0  0  0  0  0  0  0  0
   -6.3787  -23.0980   36.5384 C   0  0  0  0  0  0  0  0  0  0  0  0
   -6.2074  -24.2250   37.4594 N   0  0  0  0  0  0  0  0  0  0  0  0
   -4.8418  -25.5218   34.9929 C   0  0  0  0  0  0  0  0  0  0  0  0
   -4.6050  -25.3514   33.5861 N   0  0  0  0  0  0  0  0  0  0  0  0
   -6.8294  -27.6112   30.8253 C   0  0  0  0  0  0  0  0  0  0  0  0
   -6.4967  -28.1664   32.0532 C   0  0  0  0  0  0  0  0  0  0  0  0
   -5.7673  -27.4170   32.9683 C   0  0  0  0  0  0  0  0  0  0  0  0
   -5.3619  -26.1223   32.6504 C   0  0  0  0  0  0  0  0  0  0  0  0
   -5.6867  -25.5769   31.4206 C   0  0  0  0  0  0  0  0  0  0  0  0
   -6.4256  -26.3220   30.5096 C   0  0  0  0  0  0  0  0  0  0  0  0
  1  2  1  0  0  0  0
  2  3  2  0  0  0  0
  2 20  1  0  0  0  0
  4  6  1  0  0  0  0
  5  6  2  0  0  0  0
  5 16  1  0  0  0  0
  6  7  1  0  0  0  0
  7  8  1  0  0  0  0
  8  9  1  0  0  0  0
  8 10  2  0  0  0  0
  9 12  1  0  0  0  0
  9 16  2  0  0  0  0
 11 13  1  0  0  0  0
 11 12  1  0  0  0  0
 12 14  1  0  0  0  0
 14 15  1  0  0  0  0
 14 18  1  6  0  0  0
 15 17  1  0  0  0  0
 16 17  1  0  0  0  0
 18 19  1  0  0  0  0
 19 23  1  0  0  0  0
 20 21  2  0  0  0  0
 20 25  1  0  0  0  0
 21 22  1  0  0  0  0
 22 23  2  0  0  0  0
 23 24  1  0  0  0  0
 24 25  2  0  0  0  0
M  END
>  <CHROM.1>
-86.49799374,-46.11865154,-40.82635752,-33.18771241,-77.53953539,-6.66191000
-24.87799069,33.79004759,1.83293127,1.21837630,-2.63282390

>  <Name>
ligand

>  <RI>
0

>  <Rbt.Current_Directory>
/home/itssahil/PROJECTS/Mol_Feturizer/New_Systems/rnas/4LVV

>  <Rbt.Executable>
rbdock ($Id: //depot/dev/client3/rdock/2013.1/src/exe/rbdock.cxx#4 $)

>  <Rbt.Library>
libRbt.so (2013.1, Build901 2013/11/27)

>  <Rbt.Parameter_File>
/export/apps/rDock/src/rDock_2013.1_src/data/scripts/dock_solv.prm

>  <Rbt.Receptor>
prm/blind_docking_100.prm

>  <SCORE>
-14.2155

>  <SCORE.INTER>
-12.7871

>  <SCORE.INTER.CONST>
1

>  <SCORE.INTER.POLAR>
0

>  <SCORE.INTER.ROT>
5

>  <SCORE.INTER.SOLV>
10.9098

>  <SCORE.INTER.VDW>
-19.0947

>  <SCORE.INTER.norm>
-0.511483

>  <SCORE.INTRA>
-1.4284

>  <SCORE.INTRA.DIHEDRAL>
0.0700872

>  <SCORE.INTRA.DIHEDRAL.0>
3.94806

>  <SCORE.INTRA.POLAR>
0

>  <SCORE.INTRA.POLAR.0>
0

>  <SCORE.INTRA.REPUL>
0

>  <SCORE.INTRA.REPUL.0>
0

>  <SCORE.INTRA.SOLV>
0.511951

>  <SCORE.INTRA.SOLV.lig_0>
-70.9803

>  <SCORE.INTRA.VDW>
-1.71942

>  <SCORE.INTRA.VDW.0>
-0.709409

>  <SCORE.INTRA.norm>
-0.0571359

>  <SCORE.RESTR>
0

>  <SCORE.RESTR.CAVITY>
0

>  <SCORE.RESTR.norm>
0

>  <SCORE.SYSTEM>
0

>  <SCORE.SYSTEM.CONST>
0

>  <SCORE.SYSTEM.DIHEDRAL>
0

>  <SCORE.SYSTEM.SOLV>
0

>  <SCORE.SYSTEM.norm>
0

>  <SCORE.heavy>
25

>  <SCORE.norm>
-0.568619

>  <RMSD>
16.064

$$$$
ligand
 OpenBabel11021811503D
libRbt.so/2013.1/901 2013/11/27
 25 27  0  0  0  0  0  0  0  0999 V2000
   -5.1482  -22.3247   36.8965 N   0  0  0  0  0  0  0  0  0  0  0  0
   -5.9868  -23.3843   36.4282 C   0  0  0  0  0  0  0  0  0  0  0  0
   -6.9494  -23.7586   37.0866 O   0  0  0  0  0  0  0  0  0  0  0  0
  -12.0948  -27.4069   31.9606 N   0  0  0  0  0  0  0  0  0  0  0  0
   -9.7623  -27.7909   32.3815 N   0  0  0  0  0  0  0  0  0  0  0  0
  -10.7813  -27.7131   31.4947 C   0  0  0  0  0  0  0  0  0  0  0  0
  -10.5759  -27.9328   30.1613 N   0  0  0  0  0  0  0  0  0  0  0  0
   -9.3503  -28.2335   29.6612 C   0  0  0  0  0  0  0  0  0  0  0  0
   -8.2553  -28.3102   30.5549 C   0  0  0  0  0  0  0  0  0  0  0  0
   -9.2040  -28.4321   28.3084 O   0  0  0  0  0  0  0  0  0  0  0  0
   -6.5756  -29.6299   29.1637 C   0  0  0  0  0  0  0  0  0  0  0  0
   -6.8941  -28.6456   30.1699 N   0  0  0  0  0  0  0  0  0  0  0  0
   -6.2210  -30.7729   29.4315 O   0  0  0  0  0  0  0  0  0  0  0  0
   -5.8939  -28.0201   30.9249 C   0  0  2  0  0  0  0  0  0  0  0  0
   -6.0832  -28.3659   32.4243 C   0  0  0  0  0  0  0  0  0  0  0  0
   -8.4980  -28.0949   31.9483 C   0  0  0  0  0  0  0  0  0  0  0  0
   -7.3900  -28.1627   32.9051 N   0  0  0  0  0  0  0  0  0  0  0  0
   -5.9224  -26.5190   30.7200 C   0  0  0  0  0  0  0  0  0  0  0  0
   -4.8949  -25.7502   31.3660 N   0  0  0  0  0  0  0  0  0  0  0  0
   -5.6785  -24.0148   35.1144 C   0  0  0  0  0  0  0  0  0  0  0  0
   -4.7202  -25.0136   35.0101 C   0  0  0  0  0  0  0  0  0  0  0  0
   -4.4564  -25.5823   33.7699 C   0  0  0  0  0  0  0  0  0  0  0  0
   -5.1581  -25.1621   32.6417 C   0  0  0  0  0  0  0  0  0  0  0  0
   -6.1203  -24.1736   32.7526 C   0  0  0  0  0  0  0  0  0  0  0  0
   -6.3765  -23.5968   33.9907 C   0  0  0  0  0  0  0  0  0  0  0  0
  1  2  1  0  0  0  0
  2  3  2  0  0  0  0
  2 20  1  0  0  0  0
  4  6  1  0  0  0  0
  5  6  2  0  0  0  0
  5 16  1  0  0  0  0
  6  7  1  0  0  0  0
  7  8  1  0  0  0  0
  8  9  1  0  0  0  0
  8 10  2  0  0  0  0
  9 12  1  0  0  0  0
  9 16  2  0  0  0  0
 11 13  1  0  0  0  0
 11 12  1  0  0  0  0
 12 14  1  0  0  0  0
 14 15  1  0  0  0  0
 14 18  1  1  0  0  0
 15 17  1  0  0  0  0
 16 17  1  0  0  0  0
 18 19  1  0  0  0  0
 19 23  1  0  0  0  0
 20 21  2  0  0  0  0
 20 25  1  0  0  0  0
 21 22  1  0  0  0  0
 22 23  2  0  0  0  0
 23 24  1  0  0  0  0
 24 25  2  0  0  0  0
M  END
>  <CHROM.1>
-100.51696914,-176.06937802,-94.96255855,114.76744274,82.79715105,-7.18879532
-26.74610992,32.23329041,1.19544072,0.05954251,0.85937794

>  <Name>
ligand

>  <RI>
0

>  <Rbt.Current_Directory>
/home/itssahil/PROJECTS/Mol_Feturizer/New_Systems/rnas/4LVV

>  <Rbt.Executable>
rbdock ($Id: //depot/dev/client3/rdock/2013.1/src/exe/rbdock.cxx#4 $)

>  <Rbt.Library>
libRbt.so (2013.1, Build901 2013/11/27)

>  <Rbt.Parameter_File>
/export/apps/rDock/src/rDock_2013.1_src/data/scripts/dock_solv.prm

>  <Rbt.Receptor>
prm/blind_docking_80.prm

>  <SCORE>
-16.5918

>  <SCORE.INTER>
-14.9759

>  <SCORE.INTER.CONST>
1

>  <SCORE.INTER.POLAR>
0

>  <SCORE.INTER.ROT>
5

>  <SCORE.INTER.SOLV>
13.7693

>  <SCORE.INTER.VDW>
-21.507

>  <SCORE.INTER.norm>
-0.599034

>  <SCORE.INTRA>
-1.61592

>  <SCORE.INTRA.DIHEDRAL>
0.018929

>  <SCORE.INTRA.DIHEDRAL.0>
3.94806

>  <SCORE.INTRA.POLAR>
0

>  <SCORE.INTRA.POLAR.0>
0

>  <SCORE.INTRA.REPUL>
0

>  <SCORE.INTRA.REPUL.0>
0

>  <SCORE.INTRA.SOLV>
-0.233517

>  <SCORE.INTRA.SOLV.lig_0>
-70.9803

>  <SCORE.INTRA.VDW>
-1.50862

>  <SCORE.INTRA.VDW.0>
-0.709409

>  <SCORE.INTRA.norm>
-0.0646366

>  <SCORE.RESTR>
0

>  <SCORE.RESTR.CAVITY>
0

>  <SCORE.RESTR.norm>
0

>  <SCORE.SYSTEM>
0

>  <SCORE.SYSTEM.CONST>
0

>  <SCORE.SYSTEM.DIHEDRAL>
0

>  <SCORE.SYSTEM.SOLV>
0

>  <SCORE.SYSTEM.norm>
0

>  <SCORE.heavy>
25

>  <SCORE.norm>
-0.663671

>  <RMSD>
16.134

$$$$
ligand
 OpenBabel11021811503D
libRbt.so/2013.1/901 2013/11/27
 25 27  0  0  0  0  0  0  0  0999 V2000
   -5.4630  -21.9328   36.7045 N   0  0  0  0  0  0  0  0  0  0  0  0
   -6.1975  -23.0978   36.3192 C   0  0  0  0  0  0  0  0  0  0  0  0
   -7.0554  -23.5692   37.0554 O   0  0  0  0  0  0  0  0  0  0  0  0
  -12.0998  -27.6495   31.8501 N   0  0  0  0  0  0  0  0  0  0  0  0
   -9.7549  -27.8484   32.3268 N   0  0  0  0  0  0  0  0  0  0  0  0
  -10.7588  -27.8796   31.4201 C   0  0  0  0  0  0  0  0  0  0  0  0
  -10.5115  -28.1379   30.1008 N   0  0  0  0  0  0  0  0  0  0  0  0
   -9.2579  -28.3702   29.6350 C   0  0  0  0  0  0  0  0  0  0  0  0
   -8.1784  -28.3321   30.5498 C   0  0  0  0  0  0  0  0  0  0  0  0
   -9.0707  -28.6124   28.2944 O   0  0  0  0  0  0  0  0  0  0  0  0
   -6.3819  -29.5835   29.2441 C   0  0  0  0  0  0  0  0  0  0  0  0
   -6.7894  -28.5845   30.2026 N   0  0  0  0  0  0  0  0  0  0  0  0
   -6.0210  -30.7114   29.5626 O   0  0  0  0  0  0  0  0  0  0  0  0
   -5.8514  -27.8591   30.9480 C   0  0  2  0  0  0  0  0  0  0  0  0
   -6.0460  -28.1565   32.4570 C   0  0  0  0  0  0  0  0  0  0  0  0
   -8.4638  -28.0785   31.9286 C   0  0  0  0  0  0  0  0  0  0  0  0
   -7.3734  -28.0280   32.9063 N   0  0  0  0  0  0  0  0  0  0  0  0
   -5.9820  -26.3734   30.6800 C   0  0  0  0  0  0  0  0  0  0  0  0
   -5.0154  -25.5090   31.2987 N   0  0  0  0  0  0  0  0  0  0  0  0
   -5.9123  -23.7196   34.9960 C   0  0  0  0  0  0  0  0  0  0  0  0
   -6.6772  -23.4059   33.8809 C   0  0  0  0  0  0  0  0  0  0  0  0
   -6.3850  -24.0026   32.6605 C   0  0  0  0  0  0  0  0  0  0  0  0
   -5.3237  -24.8992   32.5540 C   0  0  0  0  0  0  0  0  0  0  0  0
   -4.5571  -25.2007   33.6662 C   0  0  0  0  0  0  0  0  0  0  0  0
   -4.8560  -24.6127   34.8893 C   0  0  0  0  0  0  0  0  0  0  0  0
  1  2  1  0  0  0  0
  2  3  2  0  0  0  0
  2 20  1  0  0  0  0
  4  6  1  0  0  0  0
  5  6  2  0  0  0  0
  5 16  1  0  0  0  0
  6  7  1  0  0  0  0
  7  8  1  0  0  0  0
  8  9  1  0  0  0  0
  8 10  2  0  0  0  0
  9 12  1  0  0  0  0
  9 16  2  0  0  0  0
 11 13  1  0  0  0  0
 11 12  1  0  0  0  0
 12 14  1  0  0  0  0
 14 15  1  0  0  0  0
 14 18  1  1  0  0  0
 15 17  1  0  0  0  0
 16 17  1  0  0  0  0
 18 19  1  0  0  0  0
 19 23  1  0  0  0  0
 20 21  2  0  0  0  0
 20 25  1  0  0  0  0
 21 22  1  0  0  0  0
 22 23  2  0  0  0  0
 23 24  1  0  0  0  0
 24 25  2  0  0  0  0
M  END
>  <CHROM.1>
-96.45503447,-175.38213175,-94.30808329,-63.10992473,-95.20398038,-7.22214942
-26.64536683,32.19119434,1.23386234,0.10354652,0.82640538

>  <Name>
ligand

>  <RI>
0

>  <Rbt.Current_Directory>
/home/itssahil/PROJECTS/Mol_Feturizer/New_Systems/rnas/4LVV

>  <Rbt.Executable>
rbdock ($Id: //depot/dev/client3/rdock/2013.1/src/exe/rbdock.cxx#4 $)

>  <Rbt.Library>
libRbt.so (2013.1, Build901 2013/11/27)

>  <Rbt.Parameter_File>
/export/apps/rDock/src/rDock_2013.1_src/data/scripts/dock_solv.prm

>  <Rbt.Receptor>
prm/blind_docking_80.prm

>  <SCORE>
-16.5556

>  <SCORE.INTER>
-14.8931

>  <SCORE.INTER.CONST>
1

>  <SCORE.INTER.POLAR>
0

>  <SCORE.INTER.ROT>
5

>  <SCORE.INTER.SOLV>
12.1923

>  <SCORE.INTER.VDW>
-20.9261

>  <SCORE.INTER.norm>
-0.595723

>  <SCORE.INTRA>
-1.66251

>  <SCORE.INTRA.DIHEDRAL>
-0.0489294

>  <SCORE.INTRA.DIHEDRAL.0>
3.94806

>  <SCORE.INTRA.POLAR>
0

>  <SCORE.INTRA.POLAR.0>
0

>  <SCORE.INTRA.REPUL>
0

>  <SCORE.INTRA.REPUL.0>
0

>  <SCORE.INTRA.SOLV>
-0.243401

>  <SCORE.INTRA.SOLV.lig_0>
-70.9803

>  <SCORE.INTRA.VDW>
-1.51635

>  <SCORE.INTRA.VDW.0>
-0.709409

>  <SCORE.INTRA.norm>
-0.0665004

>  <SCORE.RESTR>
0

>  <SCORE.RESTR.CAVITY>
0

>  <SCORE.RESTR.norm>
0

>  <SCORE.SYSTEM>
0

>  <SCORE.SYSTEM.CONST>
0

>  <SCORE.SYSTEM.DIHEDRAL>
0

>  <SCORE.SYSTEM.SOLV>
0

>  <SCORE.SYSTEM.norm>
0

>  <SCORE.heavy>
25

>  <SCORE.norm>
-0.662223

>  <RMSD>
16.147

$$$$
ligand
 OpenBabel11021811503D
libRbt.so/2013.1/901 2013/11/27
 25 27  0  0  0  0  0  0  0  0999 V2000
   -5.3803  -22.2762   37.0076 N   0  0  0  0  0  0  0  0  0  0  0  0
   -6.2899  -23.2011   36.4057 C   0  0  0  0  0  0  0  0  0  0  0  0
   -7.3363  -23.5044   36.9653 O   0  0  0  0  0  0  0  0  0  0  0  0
  -12.1041  -27.7631   31.7161 N   0  0  0  0  0  0  0  0  0  0  0  0
   -9.7662  -27.8641   32.2537 N   0  0  0  0  0  0  0  0  0  0  0  0
  -10.7450  -27.9500   31.3235 C   0  0  0  0  0  0  0  0  0  0  0  0
  -10.4551  -28.2228   30.0159 N   0  0  0  0  0  0  0  0  0  0  0  0
   -9.1823  -28.4159   29.5854 C   0  0  0  0  0  0  0  0  0  0  0  0
   -8.1284  -28.3201   30.5255 C   0  0  0  0  0  0  0  0  0  0  0  0
   -8.9525  -28.6754   28.2547 O   0  0  0  0  0  0  0  0  0  0  0  0
   -6.2540  -29.5262   29.2885 C   0  0  0  0  0  0  0  0  0  0  0  0
   -6.7226  -28.5260   30.2174 N   0  0  0  0  0  0  0  0  0  0  0  0
   -6.3280  -30.7309   29.5057 O   0  0  0  0  0  0  0  0  0  0  0  0
   -5.8315  -27.7519   30.9713 C   0  0  2  0  0  0  0  0  0  0  0  0
   -6.0527  -28.0288   32.4806 C   0  0  0  0  0  0  0  0  0  0  0  0
   -8.4578  -28.0522   31.8917 C   0  0  0  0  0  0  0  0  0  0  0  0
   -7.3949  -27.9426   32.8947 N   0  0  0  0  0  0  0  0  0  0  0  0
   -6.0109  -26.2774   30.6716 C   0  0  0  0  0  0  0  0  0  0  0  0
   -5.0810  -25.3675   31.2811 N   0  0  0  0  0  0  0  0  0  0  0  0
   -5.9499  -23.7775   35.0749 C   0  0  0  0  0  0  0  0  0  0  0  0
   -4.9052  -24.6807   34.9348 C   0  0  0  0  0  0  0  0  0  0  0  0
   -4.6138  -25.2010   33.6797 C   0  0  0  0  0  0  0  0  0  0  0  0
   -5.3730  -24.8285   32.5722 C   0  0  0  0  0  0  0  0  0  0  0  0
   -6.4204  -23.9359   32.7186 C   0  0  0  0  0  0  0  0  0  0  0  0
   -6.7051  -23.4068   33.9717 C   0  0  0  0  0  0  0  0  0  0  0  0
  1  2  1  0  0  0  0
  2  3  2  0  0  0  0
  2 20  1  0  0  0  0
  4  6  1  0  0  0  0
  5  6  2  0  0  0  0
  5 16  1  0  0  0  0
  6  7  1  0  0  0  0
  7  8  1  0  0  0  0
  8  9  1  0  0  0  0
  8 10  2  0  0  0  0
  9 12  1  0  0  0  0
  9 16  2  0  0  0  0
 11 13  1  0  0  0  0
 11 12  1  0  0  0  0
 12 14  1  0  0  0  0
 14 15  1  0  0  0  0
 14 18  1  1  0  0  0
 15 17  1  0  0  0  0
 16 17  1  0  0  0  0
 18 19  1  0  0  0  0
 19 23  1  0  0  0  0
 20 21  2  0  0  0  0
 20 25  1  0  0  0  0
 21 22  1  0  0  0  0
 22 23  2  0  0  0  0
 23 24  1  0  0  0  0
 24 25  2  0  0  0  0
M  END
>  <CHROM.1>
-68.45628727,-174.47764946,-89.20386890,111.26570060,69.57263595,-7.24301509
-26.64781133,32.19214387,1.23930278,0.12316144,0.84823637

>  <Name>
ligand

>  <RI>
0

>  <Rbt.Current_Directory>
/home/itssahil/PROJECTS/Mol_Feturizer/New_Systems/rnas/4LVV

>  <Rbt.Executable>
rbdock ($Id: //depot/dev/client3/rdock/2013.1/src/exe/rbdock.cxx#4 $)

>  <Rbt.Library>
libRbt.so (2013.1, Build901 2013/11/27)

>  <Rbt.Parameter_File>
/export/apps/rDock/src/rDock_2013.1_src/data/scripts/dock_solv.prm

>  <Rbt.Receptor>
prm/blind_docking_80.prm

>  <SCORE>
-16.3086

>  <SCORE.INTER>
-14.6168

>  <SCORE.INTER.CONST>
1

>  <SCORE.INTER.POLAR>
0

>  <SCORE.INTER.ROT>
5

>  <SCORE.INTER.SOLV>
12.3057

>  <SCORE.INTER.VDW>
-20.7798

>  <SCORE.INTER.norm>
-0.584673

>  <SCORE.INTRA>
-1.6959

>  <SCORE.INTRA.DIHEDRAL>
-0.0822772

>  <SCORE.INTRA.DIHEDRAL.0>
3.94806

>  <SCORE.INTRA.POLAR>
0

>  <SCORE.INTRA.POLAR.0>
0

>  <SCORE.INTRA.REPUL>
0

>  <SCORE.INTRA.REPUL.0>
0

>  <SCORE.INTRA.SOLV>
-0.171276

>  <SCORE.INTRA.SOLV.lig_0>
-70.9803

>  <SCORE.INTRA.VDW>
-1.56912

>  <SCORE.INTRA.VDW.0>
-0.709409

>  <SCORE.INTRA.norm>
-0.0678359

>  <SCORE.RESTR>
0.00413111

>  <SCORE.RESTR.CAVITY>
0.00413111

>  <SCORE.RESTR.norm>
0.000165244

>  <SCORE.SYSTEM>
0

>  <SCORE.SYSTEM.CONST>
0

>  <SCORE.SYSTEM.DIHEDRAL>
0

>  <SCORE.SYSTEM.SOLV>
0

>  <SCORE.SYSTEM.norm>
0

>  <SCORE.heavy>
25

>  <SCORE.norm>
-0.652343

>  <RMSD>
16.172

$$$$
ligand
 OpenBabel11021811503D
libRbt.so/2013.1/901 2013/11/27
 25 27  0  0  0  0  0  0  0  0999 V2000
   -7.5948  -23.0521   36.7900 N   0  0  0  0  0  0  0  0  0  0  0  0
   -6.2759  -22.9270   36.2514 C   0  0  0  0  0  0  0  0  0  0  0  0
   -5.4154  -22.2880   36.8443 O   0  0  0  0  0  0  0  0  0  0  0  0
  -12.0985  -27.5069   31.9513 N   0  0  0  0  0  0  0  0  0  0  0  0
   -9.7538  -27.7788   32.3913 N   0  0  0  0  0  0  0  0  0  0  0  0
  -10.7702  -27.7650   31.4983 C   0  0  0  0  0  0  0  0  0  0  0  0
  -10.5478  -28.0043   30.1710 N   0  0  0  0  0  0  0  0  0  0  0  0
   -9.3074  -28.2616   29.6834 C   0  0  0  0  0  0  0  0  0  0  0  0
   -8.2151  -28.2707   30.5837 C   0  0  0  0  0  0  0  0  0  0  0  0
   -9.1450  -28.4828   28.3360 O   0  0  0  0  0  0  0  0  0  0  0  0
   -6.4714  -29.5451   29.2295 C   0  0  0  0  0  0  0  0  0  0  0  0
   -6.8384  -28.5541   30.2124 N   0  0  0  0  0  0  0  0  0  0  0  0
   -6.1751  -30.6994   29.5185 O   0  0  0  0  0  0  0  0  0  0  0  0
   -5.8709  -27.8691   30.9583 C   0  0  2  0  0  0  0  0  0  0  0  0
   -6.0533  -28.1903   32.4640 C   0  0  0  0  0  0  0  0  0  0  0  0
   -8.4750  -28.0362   31.9708 C   0  0  0  0  0  0  0  0  0  0  0  0
   -7.3705  -28.0344   32.9340 N   0  0  0  0  0  0  0  0  0  0  0  0
   -5.9641  -26.3754   30.7204 C   0  0  0  0  0  0  0  0  0  0  0  0
   -4.9828  -25.5473   31.3649 N   0  0  0  0  0  0  0  0  0  0  0  0
   -5.9612  -23.6035   34.9622 C   0  0  0  0  0  0  0  0  0  0  0  0
   -6.6865  -23.3209   33.8129 C   0  0  0  0  0  0  0  0  0  0  0  0
   -6.3675  -23.9684   32.6255 C   0  0  0  0  0  0  0  0  0  0  0  0
   -5.3187  -24.8851   32.5861 C   0  0  0  0  0  0  0  0  0  0  0  0
   -4.5914  -25.1556   33.7320 C   0  0  0  0  0  0  0  0  0  0  0  0
   -4.9173  -24.5165   34.9222 C   0  0  0  0  0  0  0  0  0  0  0  0
  1  2  1  0  0  0  0
  2  3  2  0  0  0  0
  2 20  1  0  0  0  0
  4  6  1  0  0  0  0
  5  6  2  0  0  0  0
  5 16  1  0  0  0  0
  6  7  1  0  0  0  0
  7  8  1  0  0  0  0
  8  9  1  0  0  0  0
  8 10  2  0  0  0  0
  9 12  1  0  0  0  0
  9 16  2  0  0  0  0
 11 13  1  0  0  0  0
 11 12  1  0  0  0  0
 12 14  1  0  0  0  0
 14 15  1  0  0  0  0
 14 18  1  1  0  0  0
 15 17  1  0  0  0  0
 16 17  1  0  0  0  0
 18 19  1  0  0  0  0
 19 23  1  0  0  0  0
 20 21  2  0  0  0  0
 20 25  1  0  0  0  0
 21 22  1  0  0  0  0
 22 23  2  0  0  0  0
 23 24  1  0  0  0  0
 24 25  2  0  0  0  0
M  END
>  <CHROM.1>
-94.25747269,-176.66301118,-98.43305452,-60.52999137,57.92084165,-7.26152444
-26.57844191,32.20523027,1.24204090,0.08326486,0.80973035

>  <Name>
ligand

>  <RI>
0

>  <Rbt.Current_Directory>
/home/itssahil/PROJECTS/Mol_Feturizer/New_Systems/rnas/4LVV

>  <Rbt.Executable>
rbdock ($Id: //depot/dev/client3/rdock/2013.1/src/exe/rbdock.cxx#4 $)

>  <Rbt.Library>
libRbt.so (2013.1, Build901 2013/11/27)

>  <Rbt.Parameter_File>
/export/apps/rDock/src/rDock_2013.1_src/data/scripts/dock_solv.prm

>  <Rbt.Receptor>
prm/blind_docking_80.prm

>  <SCORE>
-16.4601

>  <SCORE.INTER>
-14.9802

>  <SCORE.INTER.CONST>
1

>  <SCORE.INTER.POLAR>
0

>  <SCORE.INTER.ROT>
5

>  <SCORE.INTER.SOLV>
12.3452

>  <SCORE.INTER.VDW>
-21.0352

>  <SCORE.INTER.norm>
-0.599206

>  <SCORE.INTRA>
-1.47993

>  <SCORE.INTRA.DIHEDRAL>
0.0497395

>  <SCORE.INTRA.DIHEDRAL.0>
3.94806

>  <SCORE.INTRA.POLAR>
0

>  <SCORE.INTRA.POLAR.0>
0

>  <SCORE.INTRA.REPUL>
0

>  <SCORE.INTRA.REPUL.0>
0

>  <SCORE.INTRA.SOLV>
-0.225983

>  <SCORE.INTRA.SOLV.lig_0>
-70.9803

>  <SCORE.INTRA.VDW>
-1.39181

>  <SCORE.INTRA.VDW.0>
-0.709409

>  <SCORE.INTRA.norm>
-0.0591974

>  <SCORE.RESTR>
0

>  <SCORE.RESTR.CAVITY>
0

>  <SCORE.RESTR.norm>
0

>  <SCORE.SYSTEM>
0

>  <SCORE.SYSTEM.CONST>
0

>  <SCORE.SYSTEM.DIHEDRAL>
0

>  <SCORE.SYSTEM.SOLV>
0

>  <SCORE.SYSTEM.norm>
0

>  <SCORE.heavy>
25

>  <SCORE.norm>
-0.658403

>  <RMSD>
16.179

$$$$
ligand
 OpenBabel11021811503D
libRbt.so/2013.1/901 2013/11/27
 25 27  0  0  0  0  0  0  0  0999 V2000
   -7.2524  -22.2346   36.6634 N   0  0  0  0  0  0  0  0  0  0  0  0
   -6.9000  -21.8335   35.3367 C   0  0  0  0  0  0  0  0  0  0  0  0
   -7.0211  -20.6674   34.9821 O   0  0  0  0  0  0  0  0  0  0  0  0
  -12.0089  -27.5472   32.2319 N   0  0  0  0  0  0  0  0  0  0  0  0
   -9.6604  -27.9295   32.5536 N   0  0  0  0  0  0  0  0  0  0  0  0
  -10.7063  -27.7969   31.7055 C   0  0  0  0  0  0  0  0  0  0  0  0
  -10.5382  -27.9082   30.3535 N   0  0  0  0  0  0  0  0  0  0  0  0
   -9.3246  -28.1510   29.7961 C   0  0  0  0  0  0  0  0  0  0  0  0
   -8.2025  -28.2819   30.6490 C   0  0  0  0  0  0  0  0  0  0  0  0
   -9.2165  -28.2405   28.4282 O   0  0  0  0  0  0  0  0  0  0  0  0
   -6.5494  -29.4639   29.1099 C   0  0  0  0  0  0  0  0  0  0  0  0
   -6.8495  -28.5664   30.1995 N   0  0  0  0  0  0  0  0  0  0  0  0
   -6.3835  -30.6696   29.2599 O   0  0  0  0  0  0  0  0  0  0  0  0
   -5.8347  -27.9879   30.9724 C   0  0  2  0  0  0  0  0  0  0  0  0
   -5.9749  -28.4531   32.4447 C   0  0  0  0  0  0  0  0  0  0  0  0
   -8.4060  -28.1803   32.0614 C   0  0  0  0  0  0  0  0  0  0  0  0
   -7.2692  -28.3071   32.9775 N   0  0  0  0  0  0  0  0  0  0  0  0
   -5.8875  -26.4758   30.8876 C   0  0  0  0  0  0  0  0  0  0  0  0
   -4.9458  -25.7419   31.6868 N   0  0  0  0  0  0  0  0  0  0  0  0
   -6.3656  -22.8578   34.3965 C   0  0  0  0  0  0  0  0  0  0  0  0
   -5.2445  -23.6088   34.7221 C   0  0  0  0  0  0  0  0  0  0  0  0
   -4.7713  -24.5572   33.8235 C   0  0  0  0  0  0  0  0  0  0  0  0
   -5.4252  -24.7619   32.6101 C   0  0  0  0  0  0  0  0  0  0  0  0
   -6.5489  -24.0183   32.2945 C   0  0  0  0  0  0  0  0  0  0  0  0
   -7.0159  -23.0619   33.1881 C   0  0  0  0  0  0  0  0  0  0  0  0
  1  2  1  0  0  0  0
  2  3  2  0  0  0  0
  2 20  1  0  0  0  0
  4  6  1  0  0  0  0
  5  6  2  0  0  0  0
  5 16  1  0  0  0  0
  6  7  1  0  0  0  0
  7  8  1  0  0  0  0
  8  9  1  0  0  0  0
  8 10  2  0  0  0  0
  9 12  1  0  0  0  0
  9 16  2  0  0  0  0
 11 13  1  0  0  0  0
 11 12  1  0  0  0  0
 12 14  1  0  0  0  0
 14 15  1  0  0  0  0
 14 18  1  1  0  0  0
 15 17  1  0  0  0  0
 16 17  1  0  0  0  0
 18 19  1  0  0  0  0
 19 23  1  0  0  0  0
 20 21  2  0  0  0  0
 20 25  1  0  0  0  0
 21 22  1  0  0  0  0
 22 23  2  0  0  0  0
 23 24  1  0  0  0  0
 24 25  2  0  0  0  0
M  END
>  <CHROM.1>
-88.38218889,176.90029248,-124.22501072,145.42298385,-56.28744305,-7.39255232
-26.36408605,32.07166520,1.33959105,0.07731341,0.64703386

>  <Name>
ligand

>  <RI>
0

>  <Rbt.Current_Directory>
/home/itssahil/PROJECTS/Mol_Feturizer/New_Systems/rnas/4LVV

>  <Rbt.Executable>
rbdock ($Id: //depot/dev/client3/rdock/2013.1/src/exe/rbdock.cxx#4 $)

>  <Rbt.Library>
libRbt.so (2013.1, Build901 2013/11/27)

>  <Rbt.Parameter_File>
/export/apps/rDock/src/rDock_2013.1_src/data/scripts/dock_solv.prm

>  <Rbt.Receptor>
prm/blind_docking_80.prm

>  <SCORE>
-16.353

>  <SCORE.INTER>
-15.8052

>  <SCORE.INTER.CONST>
1

>  <SCORE.INTER.POLAR>
0

>  <SCORE.INTER.ROT>
5

>  <SCORE.INTER.SOLV>
12.9999

>  <SCORE.INTER.VDW>
-21.8035

>  <SCORE.INTER.norm>
-0.632209

>  <SCORE.INTRA>
-0.54774

>  <SCORE.INTRA.DIHEDRAL>
0.370242

>  <SCORE.INTRA.DIHEDRAL.0>
3.94806

>  <SCORE.INTRA.POLAR>
0

>  <SCORE.INTRA.POLAR.0>
0

>  <SCORE.INTRA.REPUL>
0

>  <SCORE.INTRA.REPUL.0>
0

>  <SCORE.INTRA.SOLV>
-0.19483

>  <SCORE.INTRA.SOLV.lig_0>
-70.9803

>  <SCORE.INTRA.VDW>
-0.635446

>  <SCORE.INTRA.VDW.0>
-0.709409

>  <SCORE.INTRA.norm>
-0.0219096

>  <SCORE.RESTR>
0

>  <SCORE.RESTR.CAVITY>
0

>  <SCORE.RESTR.norm>
0

>  <SCORE.SYSTEM>
0

>  <SCORE.SYSTEM.CONST>
0

>  <SCORE.SYSTEM.DIHEDRAL>
0

>  <SCORE.SYSTEM.SOLV>
0

>  <SCORE.SYSTEM.norm>
0

>  <SCORE.heavy>
25

>  <SCORE.norm>
-0.654118

>  <RMSD>
16.211

$$$$
ligand
 OpenBabel11021811503D
libRbt.so/2013.1/901 2013/11/27
 25 27  0  0  0  0  0  0  0  0999 V2000
   -6.8448  -20.9154   35.9048 N   0  0  0  0  0  0  0  0  0  0  0  0
   -7.0597  -22.3291   35.8795 C   0  0  0  0  0  0  0  0  0  0  0  0
   -7.6461  -22.8898   36.7970 O   0  0  0  0  0  0  0  0  0  0  0  0
  -12.0916  -27.7385   31.6422 N   0  0  0  0  0  0  0  0  0  0  0  0
   -9.7714  -27.8263   32.2538 N   0  0  0  0  0  0  0  0  0  0  0  0
  -10.7204  -27.9253   31.2944 C   0  0  0  0  0  0  0  0  0  0  0  0
  -10.3888  -28.2112   29.9995 N   0  0  0  0  0  0  0  0  0  0  0  0
   -9.1027  -28.4048   29.6112 C   0  0  0  0  0  0  0  0  0  0  0  0
   -8.0790  -28.2957   30.5827 C   0  0  0  0  0  0  0  0  0  0  0  0
   -8.8305  -28.6779   28.2912 O   0  0  0  0  0  0  0  0  0  0  0  0
   -6.1633  -29.5090   29.4181 C   0  0  0  0  0  0  0  0  0  0  0  0
   -6.6637  -28.5004   30.3209 N   0  0  0  0  0  0  0  0  0  0  0  0
   -6.7107  -30.5941   29.2542 O   0  0  0  0  0  0  0  0  0  0  0  0
   -5.7988  -27.7155   31.0940 C   0  0  2  0  0  0  0  0  0  0  0  0
   -6.0664  -27.9769   32.5985 C   0  0  0  0  0  0  0  0  0  0  0  0
   -8.4517  -28.0142   31.9350 C   0  0  0  0  0  0  0  0  0  0  0  0
   -7.4211  -27.8904   32.9694 N   0  0  0  0  0  0  0  0  0  0  0  0
   -5.9728  -26.2448   30.7729 C   0  0  0  0  0  0  0  0  0  0  0  0
   -5.1042  -25.3201   31.4471 N   0  0  0  0  0  0  0  0  0  0  0  0
   -6.5718  -23.1072   34.7067 C   0  0  0  0  0  0  0  0  0  0  0  0
   -7.2447  -23.0655   33.4933 C   0  0  0  0  0  0  0  0  0  0  0  0
   -6.7634  -23.8023   32.4180 C   0  0  0  0  0  0  0  0  0  0  0  0
   -5.6064  -24.5671   32.5532 C   0  0  0  0  0  0  0  0  0  0  0  0
   -4.9330  -24.5971   33.7618 C   0  0  0  0  0  0  0  0  0  0  0  0
   -5.4202  -23.8691   34.8407 C   0  0  0  0  0  0  0  0  0  0  0  0
  1  2  1  0  0  0  0
  2  3  2  0  0  0  0
  2 20  1  0  0  0  0
  4  6  1  0  0  0  0
  5  6  2  0  0  0  0
  5 16  1  0  0  0  0
  6  7  1  0  0  0  0
  7  8  1  0  0  0  0
  8  9  1  0  0  0  0
  8 10  2  0  0  0  0
  9 12  1  0  0  0  0
  9 16  2  0  0  0  0
 11 13  1  0  0  0  0
 11 12  1  0  0  0  0
 12 14  1  0  0  0  0
 14 15  1  0  0  0  0
 14 18  1  1  0  0  0
 15 17  1  0  0  0  0
 16 17  1  0  0  0  0
 18 19  1  0  0  0  0
 19 23  1  0  0  0  0
 20 21  2  0  0  0  0
 20 25  1  0  0  0  0
 21 22  1  0  0  0  0
 22 23  2  0  0  0  0
 23 24  1  0  0  0  0
 24 25  2  0  0  0  0
M  END
>  <CHROM.1>
-33.12495278,-177.18783559,-102.23847223,-53.99960652,-75.48018720,-7.43703176
-26.40391671,32.09961664,1.34910409,0.11957288,0.72763646

>  <Name>
ligand

>  <RI>
0

>  <Rbt.Current_Directory>
/home/itssahil/PROJECTS/Mol_Feturizer/New_Systems/rnas/4LVV

>  <Rbt.Executable>
rbdock ($Id: //depot/dev/client3/rdock/2013.1/src/exe/rbdock.cxx#4 $)

>  <Rbt.Library>
libRbt.so (2013.1, Build901 2013/11/27)

>  <Rbt.Parameter_File>
/export/apps/rDock/src/rDock_2013.1_src/data/scripts/dock_solv.prm

>  <Rbt.Receptor>
prm/blind_docking_80.prm

>  <SCORE>
-15.8502

>  <SCORE.INTER>
-14.6269

>  <SCORE.INTER.CONST>
1

>  <SCORE.INTER.POLAR>
0

>  <SCORE.INTER.ROT>
5

>  <SCORE.INTER.SOLV>
11.7452

>  <SCORE.INTER.VDW>
-20.5997

>  <SCORE.INTER.norm>
-0.585076

>  <SCORE.INTRA>
-1.22326

>  <SCORE.INTRA.DIHEDRAL>
0.435103

>  <SCORE.INTRA.DIHEDRAL.0>
3.94806

>  <SCORE.INTRA.POLAR>
0

>  <SCORE.INTRA.POLAR.0>
0

>  <SCORE.INTRA.REPUL>
0

>  <SCORE.INTRA.REPUL.0>
0

>  <SCORE.INTRA.SOLV>
-0.0255846

>  <SCORE.INTRA.SOLV.lig_0>
-70.9803

>  <SCORE.INTRA.VDW>
-1.42802

>  <SCORE.INTRA.VDW.0>
-0.709409

>  <SCORE.INTRA.norm>
-0.0489305

>  <SCORE.RESTR>
0

>  <SCORE.RESTR.CAVITY>
0

>  <SCORE.RESTR.norm>
0

>  <SCORE.SYSTEM>
0

>  <SCORE.SYSTEM.CONST>
0

>  <SCORE.SYSTEM.DIHEDRAL>
0

>  <SCORE.SYSTEM.SOLV>
0

>  <SCORE.SYSTEM.norm>
0

>  <SCORE.heavy>
25

>  <SCORE.norm>
-0.634007

>  <RMSD>
16.290

$$$$
ligand
 OpenBabel11021811503D
libRbt.so/2013.1/901 2013/11/27
 25 27  0  0  0  0  0  0  0  0999 V2000
  -10.6880  -29.3812   29.0671 N   0  0  0  0  0  0  0  0  0  0  0  0
  -10.6108  -28.6081   30.2678 C   0  0  0  0  0  0  0  0  0  0  0  0
  -11.5812  -28.5016   31.0075 O   0  0  0  0  0  0  0  0  0  0  0  0
   -3.2731  -19.5854   34.9738 N   0  0  0  0  0  0  0  0  0  0  0  0
   -3.6627  -21.9546   34.9916 N   0  0  0  0  0  0  0  0  0  0  0  0
   -4.1549  -20.7013   34.8584 C   0  0  0  0  0  0  0  0  0  0  0  0
   -5.4844  -20.4855   34.6253 N   0  0  0  0  0  0  0  0  0  0  0  0
   -6.3710  -21.5071   34.5122 C   0  0  0  0  0  0  0  0  0  0  0  0
   -5.8929  -22.8340   34.6312 C   0  0  0  0  0  0  0  0  0  0  0  0
   -7.6945  -21.2272   34.2655 O   0  0  0  0  0  0  0  0  0  0  0  0
   -8.0551  -24.0953   35.1131 C   0  0  0  0  0  0  0  0  0  0  0  0
   -6.7251  -24.0238   34.5576 N   0  0  0  0  0  0  0  0  0  0  0  0
   -9.0605  -24.2535   34.4291 O   0  0  0  0  0  0  0  0  0  0  0  0
   -6.1035  -25.1477   33.9988 C   0  0  2  0  0  0  0  0  0  0  0  0
   -4.8243  -25.4879   34.8060 C   0  0  0  0  0  0  0  0  0  0  0  0
   -4.5009  -23.0345   34.8937 C   0  0  0  0  0  0  0  0  0  0  0  0
   -3.9665  -24.3932   35.0206 N   0  0  0  0  0  0  0  0  0  0  0  0
   -5.7620  -24.9069   32.5422 C   0  0  0  0  0  0  0  0  0  0  0  0
   -5.7213  -26.0559   31.6806 N   0  0  0  0  0  0  0  0  0  0  0  0
   -9.3212  -27.9473   30.6129 C   0  0  0  0  0  0  0  0  0  0  0  0
   -8.3650  -27.6969   29.6384 C   0  0  0  0  0  0  0  0  0  0  0  0
   -7.1723  -27.0779   29.9926 C   0  0  0  0  0  0  0  0  0  0  0  0
   -6.9436  -26.6997   31.3141 C   0  0  0  0  0  0  0  0  0  0  0  0
   -7.9045  -26.9417   32.2803 C   0  0  0  0  0  0  0  0  0  0  0  0
   -9.0927  -27.5707   31.9285 C   0  0  0  0  0  0  0  0  0  0  0  0
  1  2  1  0  0  0  0
  2  3  2  0  0  0  0
  2 20  1  0  0  0  0
  4  6  1  0  0  0  0
  5  6  2  0  0  0  0
  5 16  1  0  0  0  0
  6  7  1  0  0  0  0
  7  8  1  0  0  0  0
  8  9  1  0  0  0  0
  8 10  2  0  0  0  0
  9 12  1  0  0  0  0
  9 16  2  0  0  0  0
 11 13  1  0  0  0  0
 11 12  1  0  0  0  0
 12 14  1  0  0  0  0
 14 15  1  0  0  0  0
 14 18  1  6  0  0  0
 15 17  1  0  0  0  0
 16 17  1  0  0  0  0
 18 19  1  0  0  0  0
 19 23  1  0  0  0  0
 20 21  2  0  0  0  0
 20 25  1  0  0  0  0
 21 22  1  0  0  0  0
 22 23  2  0  0  0  0
 23 24  1  0  0  0  0
 24 25  2  0  0  0  0
M  END
>  <CHROM.1>
115.64632321,-151.54299024,71.91139864,135.17251759,21.05573672,-6.93952647
-24.75464153,33.09217598,2.12160814,0.00462212,-2.55081561

>  <Name>
ligand

>  <RI>
0

>  <Rbt.Current_Directory>
/home/itssahil/PROJECTS/Mol_Feturizer/New_Systems/rnas/4LVV

>  <Rbt.Executable>
rbdock ($Id: //depot/dev/client3/rdock/2013.1/src/exe/rbdock.cxx#4 $)

>  <Rbt.Library>
libRbt.so (2013.1, Build901 2013/11/27)

>  <Rbt.Parameter_File>
/export/apps/rDock/src/rDock_2013.1_src/data/scripts/dock_solv.prm

>  <Rbt.Receptor>
prm/blind_docking_100.prm

>  <SCORE>
-11.8759

>  <SCORE.INTER>
-11.9091

>  <SCORE.INTER.CONST>
1

>  <SCORE.INTER.POLAR>
0

>  <SCORE.INTER.ROT>
5

>  <SCORE.INTER.SOLV>
15.6197

>  <SCORE.INTER.VDW>
-20.0793

>  <SCORE.INTER.norm>
-0.476363

>  <SCORE.INTRA>
0.0331384

>  <SCORE.INTRA.DIHEDRAL>
1.89161

>  <SCORE.INTRA.DIHEDRAL.0>
3.94806

>  <SCORE.INTRA.POLAR>
0

>  <SCORE.INTRA.POLAR.0>
0

>  <SCORE.INTRA.REPUL>
0

>  <SCORE.INTRA.REPUL.0>
0

>  <SCORE.INTRA.SOLV>
-0.41463

>  <SCORE.INTRA.SOLV.lig_0>
-70.9803

>  <SCORE.INTRA.VDW>
-0.705354

>  <SCORE.INTRA.VDW.0>
-0.709409

>  <SCORE.INTRA.norm>
0.00132553

>  <SCORE.RESTR>
0

>  <SCORE.RESTR.CAVITY>
0

>  <SCORE.RESTR.norm>
0

>  <SCORE.SYSTEM>
0

>  <SCORE.SYSTEM.CONST>
0

>  <SCORE.SYSTEM.DIHEDRAL>
0

>  <SCORE.SYSTEM.SOLV>
0

>  <SCORE.SYSTEM.norm>
0

>  <SCORE.heavy>
25

>  <SCORE.norm>
-0.475038

>  <RMSD>
16.336

$$$$
ligand
 OpenBabel11021811503D
libRbt.so/2013.1/901 2013/11/27
 25 27  0  0  0  0  0  0  0  0999 V2000
   -0.7709   -8.3280   28.6339 N   0  0  0  0  0  0  0  0  0  0  0  0
   -1.3753   -7.0370   28.5191 C   0  0  0  0  0  0  0  0  0  0  0  0
   -0.8519   -6.0531   29.0272 O   0  0  0  0  0  0  0  0  0  0  0  0
   -4.2334   -7.2525   18.4609 N   0  0  0  0  0  0  0  0  0  0  0  0
   -5.6500   -6.4377   20.2201 N   0  0  0  0  0  0  0  0  0  0  0  0
   -5.1492   -7.4880   19.5296 C   0  0  0  0  0  0  0  0  0  0  0  0
   -5.5136   -8.7704   19.8315 N   0  0  0  0  0  0  0  0  0  0  0  0
   -6.3849   -9.0549   20.8327 C   0  0  0  0  0  0  0  0  0  0  0  0
   -6.9202   -7.9842   21.5882 C   0  0  0  0  0  0  0  0  0  0  0  0
   -6.7038  -10.3662   21.0969 O   0  0  0  0  0  0  0  0  0  0  0  0
   -8.9518   -9.0986   22.6508 C   0  0  0  0  0  0  0  0  0  0  0  0
   -7.8797   -8.1327   22.6703 N   0  0  0  0  0  0  0  0  0  0  0  0
   -9.6502   -9.3062   21.6644 O   0  0  0  0  0  0  0  0  0  0  0  0
   -7.7603   -7.1919   23.7010 C   0  0  2  0  0  0  0  0  0  0  0  0
   -7.8917   -5.7622   23.1161 C   0  0  0  0  0  0  0  0  0  0  0  0
   -6.5388   -6.6496   21.2417 C   0  0  0  0  0  0  0  0  0  0  0  0
   -7.0688   -5.5143   22.0018 N   0  0  0  0  0  0  0  0  0  0  0  0
   -6.4378   -7.3487   24.4240 C   0  0  0  0  0  0  0  0  0  0  0  0
   -6.1886   -6.4683   25.5316 N   0  0  0  0  0  0  0  0  0  0  0  0
   -2.6467   -6.9065   27.7541 C   0  0  0  0  0  0  0  0  0  0  0  0
   -3.8358   -7.4187   28.2544 C   0  0  0  0  0  0  0  0  0  0  0  0
   -5.0052   -7.2799   27.5167 C   0  0  0  0  0  0  0  0  0  0  0  0
   -4.9864   -6.6198   26.2896 C   0  0  0  0  0  0  0  0  0  0  0  0
   -3.8004   -6.1012   25.7998 C   0  0  0  0  0  0  0  0  0  0  0  0
   -2.6287   -6.2497   26.5322 C   0  0  0  0  0  0  0  0  0  0  0  0
  1  2  1  0  0  0  0
  2  3  2  0  0  0  0
  2 20  1  0  0  0  0
  4  6  1  0  0  0  0
  5  6  2  0  0  0  0
  5 16  1  0  0  0  0
  6  7  1  0  0  0  0
  7  8  1  0  0  0  0
  8  9  1  0  0  0  0
  8 10  2  0  0  0  0
  9 12  1  0  0  0  0
  9 16  2  0  0  0  0
 11 13  1  0  0  0  0
 11 12  1  0  0  0  0
 12 14  1  0  0  0  0
 14 15  1  0  0  0  0
 14 18  1  6  0  0  0
 15 17  1  0  0  0  0
 16 17  1  0  0  0  0
 18 19  1  0  0  0  0
 19 23  1  0  0  0  0
 20 21  2  0  0  0  0
 20 25  1  0  0  0  0
 21 22  1  0  0  0  0
 22 23  2  0  0  0  0
 23 24  1  0  0  0  0
 24 25  2  0  0  0  0
M  END
>  <CHROM.1>
-43.72228857,-178.52973366,176.84975481,-100.61139892,70.81052296,-5.45271513
-7.42978002,23.80969986,-0.99135199,-0.14968818,-1.63893508

>  <Name>
ligand

>  <RI>
0

>  <Rbt.Current_Directory>
/home/itssahil/PROJECTS/Mol_Feturizer/New_Systems/rnas/4LVV

>  <Rbt.Executable>
rbdock ($Id: //depot/dev/client3/rdock/2013.1/src/exe/rbdock.cxx#4 $)

>  <Rbt.Library>
libRbt.so (2013.1, Build901 2013/11/27)

>  <Rbt.Parameter_File>
/export/apps/rDock/src/rDock_2013.1_src/data/scripts/dock_solv.prm

>  <Rbt.Receptor>
prm/blind_docking_40.prm

>  <SCORE>
-11.0064

>  <SCORE.INTER>
-9.65196

>  <SCORE.INTER.CONST>
1

>  <SCORE.INTER.POLAR>
0

>  <SCORE.INTER.ROT>
5

>  <SCORE.INTER.SOLV>
12.8406

>  <SCORE.INTER.VDW>
-17.6482

>  <SCORE.INTER.norm>
-0.386078

>  <SCORE.INTRA>
-1.35515

>  <SCORE.INTRA.DIHEDRAL>
-0.548883

>  <SCORE.INTRA.DIHEDRAL.0>
3.94806

>  <SCORE.INTRA.POLAR>
0

>  <SCORE.INTRA.POLAR.0>
0

>  <SCORE.INTRA.REPUL>
0

>  <SCORE.INTRA.REPUL.0>
0

>  <SCORE.INTRA.SOLV>
-0.129301

>  <SCORE.INTRA.SOLV.lig_0>
-70.9803

>  <SCORE.INTRA.VDW>
-1.01605

>  <SCORE.INTRA.VDW.0>
-0.709409

>  <SCORE.INTRA.norm>
-0.0542059

>  <SCORE.RESTR>
0.000656435

>  <SCORE.RESTR.CAVITY>
0.000656435

>  <SCORE.RESTR.norm>
2.62574e-05

>  <SCORE.SYSTEM>
0

>  <SCORE.SYSTEM.CONST>
0

>  <SCORE.SYSTEM.DIHEDRAL>
0

>  <SCORE.SYSTEM.SOLV>
0

>  <SCORE.SYSTEM.norm>
0

>  <SCORE.heavy>
25

>  <SCORE.norm>
-0.440258

>  <RMSD>
18.252

$$$$
ligand
 OpenBabel11021811503D
libRbt.so/2013.1/901 2013/11/27
 25 27  0  0  0  0  0  0  0  0999 V2000
   -9.0589  -16.4210   26.0254 N   0  0  0  0  0  0  0  0  0  0  0  0
   -8.5012  -15.1366   26.3160 C   0  0  0  0  0  0  0  0  0  0  0  0
   -7.8057  -14.9662   27.3097 O   0  0  0  0  0  0  0  0  0  0  0  0
   -6.3113   -4.9477   26.1206 N   0  0  0  0  0  0  0  0  0  0  0  0
   -7.9186   -5.9732   24.6611 N   0  0  0  0  0  0  0  0  0  0  0  0
   -6.6259   -5.6893   24.9428 C   0  0  0  0  0  0  0  0  0  0  0  0
   -5.6171   -6.0918   24.1130 N   0  0  0  0  0  0  0  0  0  0  0  0
   -5.8563   -6.7941   22.9763 C   0  0  0  0  0  0  0  0  0  0  0  0
   -7.1946   -7.1236   22.6537 C   0  0  0  0  0  0  0  0  0  0  0  0
   -4.7985   -7.1816   22.1877 O   0  0  0  0  0  0  0  0  0  0  0  0
   -6.9840   -7.6647   20.1715 C   0  0  0  0  0  0  0  0  0  0  0  0
   -7.6049   -7.8472   21.4614 N   0  0  0  0  0  0  0  0  0  0  0  0
   -6.3485   -6.6605   19.8687 O   0  0  0  0  0  0  0  0  0  0  0  0
   -8.7290   -8.6669   21.6236 C   0  0  2  0  0  0  0  0  0  0  0  0
   -9.9249   -7.8148   22.1211 C   0  0  0  0  0  0  0  0  0  0  0  0
   -8.2351   -6.6754   23.5274 C   0  0  0  0  0  0  0  0  0  0  0  0
   -9.6331   -6.9987   23.2297 N   0  0  0  0  0  0  0  0  0  0  0  0
   -8.4401   -9.7925   22.5961 C   0  0  0  0  0  0  0  0  0  0  0  0
   -9.4192  -10.8392   22.6958 N   0  0  0  0  0  0  0  0  0  0  0  0
   -8.7674  -14.0108   25.3777 C   0  0  0  0  0  0  0  0  0  0  0  0
   -9.9192  -13.2446   25.4916 C   0  0  0  0  0  0  0  0  0  0  0  0
  -10.1379  -12.2006   24.6009 C   0  0  0  0  0  0  0  0  0  0  0  0
   -9.2014  -11.9170   23.6088 C   0  0  0  0  0  0  0  0  0  0  0  0
   -8.0493  -12.6769   23.5058 C   0  0  0  0  0  0  0  0  0  0  0  0
   -7.8356  -13.7280   24.3894 C   0  0  0  0  0  0  0  0  0  0  0  0
  1  2  1  0  0  0  0
  2  3  2  0  0  0  0
  2 20  1  0  0  0  0
  4  6  1  0  0  0  0
  5  6  2  0  0  0  0
  5 16  1  0  0  0  0
  6  7  1  0  0  0  0
  7  8  1  0  0  0  0
  8  9  1  0  0  0  0
  8 10  2  0  0  0  0
  9 12  1  0  0  0  0
  9 16  2  0  0  0  0
 11 13  1  0  0  0  0
 11 12  1  0  0  0  0
 12 14  1  0  0  0  0
 14 15  1  0  0  0  0
 14 18  1  1  0  0  0
 15 17  1  0  0  0  0
 16 17  1  0  0  0  0
 18 19  1  0  0  0  0
 19 23  1  0  0  0  0
 20 21  2  0  0  0  0
 20 25  1  0  0  0  0
 21 22  1  0  0  0  0
 22 23  2  0  0  0  0
 23 24  1  0  0  0  0
 24 25  2  0  0  0  0
M  END
>  <CHROM.1>
-21.39624816,-169.96868869,-179.34050496,122.84835538,85.55427004,-7.90833287
-9.56583933,23.61650449,-2.19502381,-1.18203828,-0.93198256

>  <Name>
ligand

>  <RI>
0

>  <Rbt.Current_Directory>
/home/itssahil/PROJECTS/Mol_Feturizer/New_Systems/rnas/4LVV

>  <Rbt.Executable>
rbdock ($Id: //depot/dev/client3/rdock/2013.1/src/exe/rbdock.cxx#4 $)

>  <Rbt.Library>
libRbt.so (2013.1, Build901 2013/11/27)

>  <Rbt.Parameter_File>
/export/apps/rDock/src/rDock_2013.1_src/data/scripts/dock_solv.prm

>  <Rbt.Receptor>
prm/blind_docking_60.prm

>  <SCORE>
-11.6937

>  <SCORE.INTER>
-10.706

>  <SCORE.INTER.CONST>
1

>  <SCORE.INTER.POLAR>
0

>  <SCORE.INTER.ROT>
5

>  <SCORE.INTER.SOLV>
16.0854

>  <SCORE.INTER.VDW>
-19.4325

>  <SCORE.INTER.norm>
-0.428241

>  <SCORE.INTRA>
-0.987704

>  <SCORE.INTRA.DIHEDRAL>
-0.145169

>  <SCORE.INTRA.DIHEDRAL.0>
3.94806

>  <SCORE.INTRA.POLAR>
0

>  <SCORE.INTRA.POLAR.0>
0

>  <SCORE.INTRA.REPUL>
0

>  <SCORE.INTRA.REPUL.0>
0

>  <SCORE.INTRA.SOLV>
-0.189333

>  <SCORE.INTRA.SOLV.lig_0>
-70.9803

>  <SCORE.INTRA.VDW>
-0.820453

>  <SCORE.INTRA.VDW.0>
-0.709409

>  <SCORE.INTRA.norm>
-0.0395082

>  <SCORE.RESTR>
0

>  <SCORE.RESTR.CAVITY>
0

>  <SCORE.RESTR.norm>
0

>  <SCORE.SYSTEM>
0

>  <SCORE.SYSTEM.CONST>
0

>  <SCORE.SYSTEM.DIHEDRAL>
0

>  <SCORE.SYSTEM.SOLV>
0

>  <SCORE.SYSTEM.norm>
0

>  <SCORE.heavy>
25

>  <SCORE.norm>
-0.467749

>  <RMSD>
18.508

$$$$
ligand
 OpenBabel11021811503D
libRbt.so/2013.1/901 2013/11/27
 25 27  0  0  0  0  0  0  0  0999 V2000
   -3.5737   -5.7872   17.8555 N   0  0  0  0  0  0  0  0  0  0  0  0
   -3.3614   -5.2001   19.1421 C   0  0  0  0  0  0  0  0  0  0  0  0
   -2.5221   -4.3220   19.2990 O   0  0  0  0  0  0  0  0  0  0  0  0
   -7.5519  -12.9227   19.2949 N   0  0  0  0  0  0  0  0  0  0  0  0
   -8.0471  -10.6696   19.9610 N   0  0  0  0  0  0  0  0  0  0  0  0
   -8.0272  -11.9884   20.2631 C   0  0  0  0  0  0  0  0  0  0  0  0
   -8.4643  -12.4420   21.4762 N   0  0  0  0  0  0  0  0  0  0  0  0
   -8.9325  -11.6013   22.4335 C   0  0  0  0  0  0  0  0  0  0  0  0
   -8.9561  -10.2124   22.1614 C   0  0  0  0  0  0  0  0  0  0  0  0
   -9.3471  -12.1163   23.6392 O   0  0  0  0  0  0  0  0  0  0  0  0
  -10.6002   -9.3921   23.9284 C   0  0  0  0  0  0  0  0  0  0  0  0
   -9.4514   -9.1975   23.0769 N   0  0  0  0  0  0  0  0  0  0  0  0
  -11.7535   -9.3834   23.5118 O   0  0  0  0  0  0  0  0  0  0  0  0
   -8.7971   -7.9614   23.0010 C   0  0  2  0  0  0  0  0  0  0  0  0
   -8.8929   -7.4118   21.5545 C   0  0  0  0  0  0  0  0  0  0  0  0
   -8.5113   -9.7630   20.8780 C   0  0  0  0  0  0  0  0  0  0  0  0
   -8.5174   -8.3327   20.5589 N   0  0  0  0  0  0  0  0  0  0  0  0
   -7.3476   -8.0914   23.4231 C   0  0  0  0  0  0  0  0  0  0  0  0
   -6.5841   -6.8786   23.5254 N   0  0  0  0  0  0  0  0  0  0  0  0
   -4.1929   -5.6641   20.2876 C   0  0  0  0  0  0  0  0  0  0  0  0
   -3.9061   -6.8548   20.9408 C   0  0  0  0  0  0  0  0  0  0  0  0
   -4.7006   -7.2595   22.0066 C   0  0  0  0  0  0  0  0  0  0  0  0
   -5.7695   -6.4693   22.4247 C   0  0  0  0  0  0  0  0  0  0  0  0
   -6.0451   -5.2776   21.7771 C   0  0  0  0  0  0  0  0  0  0  0  0
   -5.2575   -4.8780   20.7042 C   0  0  0  0  0  0  0  0  0  0  0  0
  1  2  1  0  0  0  0
  2  3  2  0  0  0  0
  2 20  1  0  0  0  0
  4  6  1  0  0  0  0
  5  6  2  0  0  0  0
  5 16  1  0  0  0  0
  6  7  1  0  0  0  0
  7  8  1  0  0  0  0
  8  9  1  0  0  0  0
  8 10  2  0  0  0  0
  9 12  1  0  0  0  0
  9 16  2  0  0  0  0
 11 13  1  0  0  0  0
 11 12  1  0  0  0  0
 12 14  1  0  0  0  0
 14 15  1  0  0  0  0
 14 18  1  6  0  0  0
 15 17  1  0  0  0  0
 16 17  1  0  0  0  0
 18 19  1  0  0  0  0
 19 23  1  0  0  0  0
 20 21  2  0  0  0  0
 20 25  1  0  0  0  0
 21 22  1  0  0  0  0
 22 23  2  0  0  0  0
 23 24  1  0  0  0  0
 24 25  2  0  0  0  0
M  END
>  <CHROM.1>
-74.34971078,-173.90111125,-96.13204672,-63.10318787,78.86569772,-7.23940869
-8.45154250,21.51256730,-0.45115607,-0.71172722,-2.61673230

>  <Name>
ligand

>  <RI>
0

>  <Rbt.Current_Directory>
/home/itssahil/PROJECTS/Mol_Feturizer/New_Systems/rnas/4LVV

>  <Rbt.Executable>
rbdock ($Id: //depot/dev/client3/rdock/2013.1/src/exe/rbdock.cxx#4 $)

>  <Rbt.Library>
libRbt.so (2013.1, Build901 2013/11/27)

>  <Rbt.Parameter_File>
/export/apps/rDock/src/rDock_2013.1_src/data/scripts/dock_solv.prm

>  <Rbt.Receptor>
prm/blind_docking_60.prm

>  <SCORE>
-10.1061

>  <SCORE.INTER>
-8.50613

>  <SCORE.INTER.CONST>
1

>  <SCORE.INTER.POLAR>
0

>  <SCORE.INTER.ROT>
5

>  <SCORE.INTER.SOLV>
13.4274

>  <SCORE.INTER.VDW>
-17.0799

>  <SCORE.INTER.norm>
-0.340245

>  <SCORE.INTRA>
-1.59999

>  <SCORE.INTRA.DIHEDRAL>
0.130271

>  <SCORE.INTRA.DIHEDRAL.0>
3.94806

>  <SCORE.INTRA.POLAR>
0

>  <SCORE.INTRA.POLAR.0>
0

>  <SCORE.INTRA.REPUL>
0

>  <SCORE.INTRA.REPUL.0>
0

>  <SCORE.INTRA.SOLV>
-0.241621

>  <SCORE.INTRA.SOLV.lig_0>
-70.9803

>  <SCORE.INTRA.VDW>
-1.54431

>  <SCORE.INTRA.VDW.0>
-0.709409

>  <SCORE.INTRA.norm>
-0.0639996

>  <SCORE.RESTR>
0

>  <SCORE.RESTR.CAVITY>
0

>  <SCORE.RESTR.norm>
0

>  <SCORE.SYSTEM>
0

>  <SCORE.SYSTEM.CONST>
0

>  <SCORE.SYSTEM.DIHEDRAL>
0

>  <SCORE.SYSTEM.SOLV>
0

>  <SCORE.SYSTEM.norm>
0

>  <SCORE.heavy>
25

>  <SCORE.norm>
-0.404245

>  <RMSD>
18.784

$$$$
ligand
 OpenBabel11021811503D
libRbt.so/2013.1/901 2013/11/27
 25 27  0  0  0  0  0  0  0  0999 V2000
   -3.5472   -8.0496   31.0328 N   0  0  0  0  0  0  0  0  0  0  0  0
   -4.6477   -7.1816   30.7481 C   0  0  0  0  0  0  0  0  0  0  0  0
   -5.3587   -6.7555   31.6498 O   0  0  0  0  0  0  0  0  0  0  0  0
   -7.4873  -11.9090   21.6469 N   0  0  0  0  0  0  0  0  0  0  0  0
   -6.6303   -9.6705   21.7892 N   0  0  0  0  0  0  0  0  0  0  0  0
   -7.6721  -10.5225   21.9292 C   0  0  0  0  0  0  0  0  0  0  0  0
   -8.9014  -10.0760   22.3265 N   0  0  0  0  0  0  0  0  0  0  0  0
   -9.1381   -8.7683   22.6028 C   0  0  0  0  0  0  0  0  0  0  0  0
   -8.0700   -7.8473   22.4822 C   0  0  0  0  0  0  0  0  0  0  0  0
  -10.3933   -8.3815   23.0100 O   0  0  0  0  0  0  0  0  0  0  0  0
   -9.3365   -5.6390   22.3496 C   0  0  0  0  0  0  0  0  0  0  0  0
   -8.1789   -6.4172   22.7198 N   0  0  0  0  0  0  0  0  0  0  0  0
   -9.3290   -4.8158   21.4406 O   0  0  0  0  0  0  0  0  0  0  0  0
   -7.0275   -5.8143   23.2419 C   0  0  2  0  0  0  0  0  0  0  0  0
   -5.8315   -6.0676   22.2885 C   0  0  0  0  0  0  0  0  0  0  0  0
   -6.7974   -8.3348   22.0466 C   0  0  0  0  0  0  0  0  0  0  0  0
   -5.6658   -7.4134   21.9121 N   0  0  0  0  0  0  0  0  0  0  0  0
   -6.7216   -6.3453   24.6278 C   0  0  0  0  0  0  0  0  0  0  0  0
   -5.5924   -5.7785   25.3117 N   0  0  0  0  0  0  0  0  0  0  0  0
   -4.9043   -6.7901   29.3341 C   0  0  0  0  0  0  0  0  0  0  0  0
   -5.1808   -5.4720   28.9980 C   0  0  0  0  0  0  0  0  0  0  0  0
   -5.4149   -5.1389   27.6694 C   0  0  0  0  0  0  0  0  0  0  0  0
   -5.3597   -6.1187   26.6802 C   0  0  0  0  0  0  0  0  0  0  0  0
   -5.0731   -7.4297   27.0187 C   0  0  0  0  0  0  0  0  0  0  0  0
   -4.8499   -7.7652   28.3487 C   0  0  0  0  0  0  0  0  0  0  0  0
  1  2  1  0  0  0  0
  2  3  2  0  0  0  0
  2 20  1  0  0  0  0
  4  6  1  0  0  0  0
  5  6  2  0  0  0  0
  5 16  1  0  0  0  0
  6  7  1  0  0  0  0
  7  8  1  0  0  0  0
  8  9  1  0  0  0  0
  8 10  2  0  0  0  0
  9 12  1  0  0  0  0
  9 16  2  0  0  0  0
 11 13  1  0  0  0  0
 11 12  1  0  0  0  0
 12 14  1  0  0  0  0
 14 15  1  0  0  0  0
 14 18  1  1  0  0  0
 15 17  1  0  0  0  0
 16 17  1  0  0  0  0
 18 19  1  0  0  0  0
 19 23  1  0  0  0  0
 20 21  2  0  0  0  0
 20 25  1  0  0  0  0
 21 22  1  0  0  0  0
 22 23  2  0  0  0  0
 23 24  1  0  0  0  0
 24 25  2  0  0  0  0
M  END
>  <CHROM.1>
-109.92591551,-177.70386982,172.16149267,-116.57538006,-134.86410050,-6.75198913
-7.37028897,24.85900565,-0.33495542,1.13459003,-2.95484395

>  <Name>
ligand

>  <RI>
0

>  <Rbt.Current_Directory>
/home/itssahil/PROJECTS/Mol_Feturizer/New_Systems/rnas/4LVV

>  <Rbt.Executable>
rbdock ($Id: //depot/dev/client3/rdock/2013.1/src/exe/rbdock.cxx#4 $)

>  <Rbt.Library>
libRbt.so (2013.1, Build901 2013/11/27)

>  <Rbt.Parameter_File>
/export/apps/rDock/src/rDock_2013.1_src/data/scripts/dock_solv.prm

>  <Rbt.Receptor>
prm/blind_docking_80.prm

>  <SCORE>
-11.7719

>  <SCORE.INTER>
-10.6187

>  <SCORE.INTER.CONST>
1

>  <SCORE.INTER.POLAR>
0

>  <SCORE.INTER.ROT>
5

>  <SCORE.INTER.SOLV>
16.2289

>  <SCORE.INTER.VDW>
-19.4221

>  <SCORE.INTER.norm>
-0.424746

>  <SCORE.INTRA>
-1.15328

>  <SCORE.INTRA.DIHEDRAL>
-0.661544

>  <SCORE.INTRA.DIHEDRAL.0>
3.94806

>  <SCORE.INTRA.POLAR>
0

>  <SCORE.INTRA.POLAR.0>
0

>  <SCORE.INTRA.REPUL>
0

>  <SCORE.INTRA.REPUL.0>
0

>  <SCORE.INTRA.SOLV>
-0.309249

>  <SCORE.INTRA.SOLV.lig_0>
-70.9803

>  <SCORE.INTRA.VDW>
-0.667887

>  <SCORE.INTRA.VDW.0>
-0.709409

>  <SCORE.INTRA.norm>
-0.0461313

>  <SCORE.RESTR>
0

>  <SCORE.RESTR.CAVITY>
0

>  <SCORE.RESTR.norm>
0

>  <SCORE.SYSTEM>
0

>  <SCORE.SYSTEM.CONST>
0

>  <SCORE.SYSTEM.DIHEDRAL>
0

>  <SCORE.SYSTEM.SOLV>
0

>  <SCORE.SYSTEM.norm>
0

>  <SCORE.heavy>
25

>  <SCORE.norm>
-0.470878

>  <RMSD>
18.984

$$$$
ligand
 OpenBabel11021811503D
libRbt.so/2013.1/901 2013/11/27
 25 27  0  0  0  0  0  0  0  0999 V2000
   -5.5186   -6.6214   30.4253 N   0  0  0  0  0  0  0  0  0  0  0  0
   -4.6500   -6.7088   29.2925 C   0  0  0  0  0  0  0  0  0  0  0  0
   -3.4858   -7.0666   29.4222 O   0  0  0  0  0  0  0  0  0  0  0  0
   -7.3941  -12.1297   21.8616 N   0  0  0  0  0  0  0  0  0  0  0  0
   -6.5836   -9.9757   21.1770 N   0  0  0  0  0  0  0  0  0  0  0  0
   -7.5292  -10.7102   21.8072 C   0  0  0  0  0  0  0  0  0  0  0  0
   -8.6171  -10.1165   22.3837 N   0  0  0  0  0  0  0  0  0  0  0  0
   -8.8019   -8.7720   22.3583 C   0  0  0  0  0  0  0  0  0  0  0  0
   -7.8274   -7.9672   21.7209 C   0  0  0  0  0  0  0  0  0  0  0  0
   -9.9107   -8.2320   22.9666 O   0  0  0  0  0  0  0  0  0  0  0  0
   -9.1350   -5.8102   21.3517 C   0  0  0  0  0  0  0  0  0  0  0  0
   -7.9024   -6.5209   21.5936 N   0  0  0  0  0  0  0  0  0  0  0  0
   -9.4359   -4.7722   21.9311 O   0  0  0  0  0  0  0  0  0  0  0  0
   -6.6678   -5.8598   21.6141 C   0  0  2  0  0  0  0  0  0  0  0  0
   -5.7657   -6.4101   20.4797 C   0  0  0  0  0  0  0  0  0  0  0  0
   -6.7071   -8.6124   21.1083 C   0  0  0  0  0  0  0  0  0  0  0  0
   -5.6752   -7.8139   20.4412 N   0  0  0  0  0  0  0  0  0  0  0  0
   -5.9889   -6.0266   22.9586 C   0  0  0  0  0  0  0  0  0  0  0  0
   -6.6795   -5.5132   24.1091 N   0  0  0  0  0  0  0  0  0  0  0  0
   -5.1919   -6.3728   27.9463 C   0  0  0  0  0  0  0  0  0  0  0  0
   -5.6883   -5.1056   27.6733 C   0  0  0  0  0  0  0  0  0  0  0  0
   -6.1862   -4.8236   26.4070 C   0  0  0  0  0  0  0  0  0  0  0  0
   -6.1753   -5.8020   25.4148 C   0  0  0  0  0  0  0  0  0  0  0  0
   -5.6696   -7.0608   25.6886 C   0  0  0  0  0  0  0  0  0  0  0  0
   -5.1817   -7.3465   26.9581 C   0  0  0  0  0  0  0  0  0  0  0  0
  1  2  1  0  0  0  0
  2  3  2  0  0  0  0
  2 20  1  0  0  0  0
  4  6  1  0  0  0  0
  5  6  2  0  0  0  0
  5 16  1  0  0  0  0
  6  7  1  0  0  0  0
  7  8  1  0  0  0  0
  8  9  1  0  0  0  0
  8 10  2  0  0  0  0
  9 12  1  0  0  0  0
  9 16  2  0  0  0  0
 11 13  1  0  0  0  0
 11 12  1  0  0  0  0
 12 14  1  0  0  0  0
 14 15  1  0  0  0  0
 14 18  1  1  0  0  0
 15 17  1  0  0  0  0
 16 17  1  0  0  0  0
 18 19  1  0  0  0  0
 19 23  1  0  0  0  0
 20 21  2  0  0  0  0
 20 25  1  0  0  0  0
 21 22  1  0  0  0  0
 22 23  2  0  0  0  0
 23 24  1  0  0  0  0
 24 25  2  0  0  0  0
M  END
>  <CHROM.1>
137.15956262,-60.81997164,171.58075013,140.10851264,61.02698475,-6.77751495
-7.28454332,23.90818638,-0.44188441,1.17262450,-2.93824850

>  <Name>
ligand

>  <RI>
0

>  <Rbt.Current_Directory>
/home/itssahil/PROJECTS/Mol_Feturizer/New_Systems/rnas/4LVV

>  <Rbt.Executable>
rbdock ($Id: //depot/dev/client3/rdock/2013.1/src/exe/rbdock.cxx#4 $)

>  <Rbt.Library>
libRbt.so (2013.1, Build901 2013/11/27)

>  <Rbt.Parameter_File>
/export/apps/rDock/src/rDock_2013.1_src/data/scripts/dock_solv.prm

>  <Rbt.Receptor>
prm/blind_docking_80.prm

>  <SCORE>
-10.7039

>  <SCORE.INTER>
-9.71232

>  <SCORE.INTER.CONST>
1

>  <SCORE.INTER.POLAR>
0

>  <SCORE.INTER.ROT>
5

>  <SCORE.INTER.SOLV>
15.0188

>  <SCORE.INTER.VDW>
-18.4145

>  <SCORE.INTER.norm>
-0.388493

>  <SCORE.INTRA>
-0.991604

>  <SCORE.INTRA.DIHEDRAL>
-0.741758

>  <SCORE.INTRA.DIHEDRAL.0>
3.94806

>  <SCORE.INTRA.POLAR>
0

>  <SCORE.INTRA.POLAR.0>
0

>  <SCORE.INTRA.REPUL>
0

>  <SCORE.INTRA.REPUL.0>
0

>  <SCORE.INTRA.SOLV>
0.358669

>  <SCORE.INTRA.SOLV.lig_0>
-70.9803

>  <SCORE.INTRA.VDW>
-0.80006

>  <SCORE.INTRA.VDW.0>
-0.709409

>  <SCORE.INTRA.norm>
-0.0396642

>  <SCORE.RESTR>
0

>  <SCORE.RESTR.CAVITY>
0

>  <SCORE.RESTR.norm>
0

>  <SCORE.SYSTEM>
0

>  <SCORE.SYSTEM.CONST>
0

>  <SCORE.SYSTEM.DIHEDRAL>
0

>  <SCORE.SYSTEM.SOLV>
0

>  <SCORE.SYSTEM.norm>
0

>  <SCORE.heavy>
25

>  <SCORE.norm>
-0.428157

>  <RMSD>
19.081

$$$$
ligand
 OpenBabel11021811503D
libRbt.so/2013.1/901 2013/11/27
 25 27  0  0  0  0  0  0  0  0999 V2000
   -2.6866   -3.0941   28.1268 N   0  0  0  0  0  0  0  0  0  0  0  0
   -2.8736   -4.4954   27.9106 C   0  0  0  0  0  0  0  0  0  0  0  0
   -2.1202   -5.3140   28.4228 O   0  0  0  0  0  0  0  0  0  0  0  0
   -5.5428   -7.9454   17.8912 N   0  0  0  0  0  0  0  0  0  0  0  0
   -7.0851   -7.3341   19.6270 N   0  0  0  0  0  0  0  0  0  0  0  0
   -6.2269   -8.2423   19.1078 C   0  0  0  0  0  0  0  0  0  0  0  0
   -6.0119   -9.4437   19.7233 N   0  0  0  0  0  0  0  0  0  0  0  0
   -6.6385   -9.7835   20.8785 C   0  0  0  0  0  0  0  0  0  0  0  0
   -7.5333   -8.8545   21.4613 C   0  0  0  0  0  0  0  0  0  0  0  0
   -6.3719  -11.0022   21.4570 O   0  0  0  0  0  0  0  0  0  0  0  0
   -8.8672  -10.3670   23.0206 C   0  0  0  0  0  0  0  0  0  0  0  0
   -8.2927   -9.0880   22.6789 N   0  0  0  0  0  0  0  0  0  0  0  0
   -9.0929  -11.2438   22.1935 O   0  0  0  0  0  0  0  0  0  0  0  0
   -8.5257   -7.9485   23.4592 C   0  0  2  0  0  0  0  0  0  0  0  0
   -9.2658   -6.8819   22.6117 C   0  0  0  0  0  0  0  0  0  0  0  0
   -7.7566   -7.6114   20.7891 C   0  0  0  0  0  0  0  0  0  0  0  0
   -8.6733   -6.6219   21.3620 N   0  0  0  0  0  0  0  0  0  0  0  0
   -7.2248   -7.3879   23.9975 C   0  0  0  0  0  0  0  0  0  0  0  0
   -7.2977   -6.1574   24.7355 N   0  0  0  0  0  0  0  0  0  0  0  0
   -4.0138   -4.9438   27.0635 C   0  0  0  0  0  0  0  0  0  0  0  0
   -3.8493   -5.9487   26.1200 C   0  0  0  0  0  0  0  0  0  0  0  0
   -4.9331   -6.3450   25.3459 C   0  0  0  0  0  0  0  0  0  0  0  0
   -6.1790   -5.7470   25.5246 C   0  0  0  0  0  0  0  0  0  0  0  0
   -6.3407   -4.7530   26.4739 C   0  0  0  0  0  0  0  0  0  0  0  0
   -5.2544   -4.3487   27.2405 C   0  0  0  0  0  0  0  0  0  0  0  0
  1  2  1  0  0  0  0
  2  3  2  0  0  0  0
  2 20  1  0  0  0  0
  4  6  1  0  0  0  0
  5  6  2  0  0  0  0
  5 16  1  0  0  0  0
  6  7  1  0  0  0  0
  7  8  1  0  0  0  0
  8  9  1  0  0  0  0
  8 10  2  0  0  0  0
  9 12  1  0  0  0  0
  9 16  2  0  0  0  0
 11 13  1  0  0  0  0
 11 12  1  0  0  0  0
 12 14  1  0  0  0  0
 14 15  1  0  0  0  0
 14 18  1  6  0  0  0
 15 17  1  0  0  0  0
 16 17  1  0  0  0  0
 18 19  1  0  0  0  0
 19 23  1  0  0  0  0
 20 21  2  0  0  0  0
 20 25  1  0  0  0  0
 21 22  1  0  0  0  0
 22 23  2  0  0  0  0
 23 24  1  0  0  0  0
 24 25  2  0  0  0  0
M  END
>  <CHROM.1>
-20.82260124,175.47288488,165.43633027,14.95883162,136.92198217,-6.38071336
-7.32022973,23.44144214,-1.07460362,-0.49332198,-1.90472186

>  <Name>
ligand

>  <RI>
0

>  <Rbt.Current_Directory>
/home/itssahil/PROJECTS/Mol_Feturizer/New_Systems/rnas/4LVV

>  <Rbt.Executable>
rbdock ($Id: //depot/dev/client3/rdock/2013.1/src/exe/rbdock.cxx#4 $)

>  <Rbt.Library>
libRbt.so (2013.1, Build901 2013/11/27)

>  <Rbt.Parameter_File>
/export/apps/rDock/src/rDock_2013.1_src/data/scripts/dock_solv.prm

>  <Rbt.Receptor>
prm/blind_docking_80.prm

>  <SCORE>
-11.6578

>  <SCORE.INTER>
-11.6029

>  <SCORE.INTER.CONST>
1

>  <SCORE.INTER.POLAR>
0

>  <SCORE.INTER.ROT>
5

>  <SCORE.INTER.SOLV>
10.7372

>  <SCORE.INTER.VDW>
-18.2477

>  <SCORE.INTER.norm>
-0.464117

>  <SCORE.INTRA>
-0.0548351

>  <SCORE.INTRA.DIHEDRAL>
-0.315108

>  <SCORE.INTRA.DIHEDRAL.0>
3.94806

>  <SCORE.INTRA.POLAR>
0

>  <SCORE.INTRA.POLAR.0>
0

>  <SCORE.INTRA.REPUL>
0

>  <SCORE.INTRA.REPUL.0>
0

>  <SCORE.INTRA.SOLV>
0.0787736

>  <SCORE.INTRA.SOLV.lig_0>
-70.9803

>  <SCORE.INTRA.VDW>
0.0633321

>  <SCORE.INTRA.VDW.0>
-0.709409

>  <SCORE.INTRA.norm>
-0.00219341

>  <SCORE.RESTR>
0

>  <SCORE.RESTR.CAVITY>
0

>  <SCORE.RESTR.norm>
0

>  <SCORE.SYSTEM>
0

>  <SCORE.SYSTEM.CONST>
0

>  <SCORE.SYSTEM.DIHEDRAL>
0

>  <SCORE.SYSTEM.SOLV>
0

>  <SCORE.SYSTEM.norm>
0

>  <SCORE.heavy>
25

>  <SCORE.norm>
-0.46631

>  <RMSD>
19.086

$$$$
ligand
 OpenBabel11021811503D
libRbt.so/2013.1/901 2013/11/27
 25 27  0  0  0  0  0  0  0  0999 V2000
   -7.4555  -12.7925   18.2194 N   0  0  0  0  0  0  0  0  0  0  0  0
   -7.8005  -12.8764   19.6048 C   0  0  0  0  0  0  0  0  0  0  0  0
   -8.3487  -13.8751   20.0542 O   0  0  0  0  0  0  0  0  0  0  0  0
   -3.7963   -6.3054   19.0682 N   0  0  0  0  0  0  0  0  0  0  0  0
   -4.8909   -5.8775   21.1621 N   0  0  0  0  0  0  0  0  0  0  0  0
   -4.9651   -6.3231   19.8866 C   0  0  0  0  0  0  0  0  0  0  0  0
   -6.1430   -6.7804   19.3654 N   0  0  0  0  0  0  0  0  0  0  0  0
   -7.2878   -6.8152   20.0940 C   0  0  0  0  0  0  0  0  0  0  0  0
   -7.2484   -6.3709   21.4374 C   0  0  0  0  0  0  0  0  0  0  0  0
   -8.4395   -7.2975   19.5179 O   0  0  0  0  0  0  0  0  0  0  0  0
   -9.7229   -5.9623   21.8938 C   0  0  0  0  0  0  0  0  0  0  0  0
   -8.3959   -6.3265   22.3289 N   0  0  0  0  0  0  0  0  0  0  0  0
  -10.7354   -6.5432   22.2697 O   0  0  0  0  0  0  0  0  0  0  0  0
   -8.1061   -6.5593   23.6793 C   0  0  2  0  0  0  0  0  0  0  0  0
   -7.0581   -5.5278   24.1703 C   0  0  0  0  0  0  0  0  0  0  0  0
   -6.0087   -5.8791   21.9551 C   0  0  0  0  0  0  0  0  0  0  0  0
   -5.9262   -5.4130   23.3421 N   0  0  0  0  0  0  0  0  0  0  0  0
   -7.5963   -7.9713   23.8859 C   0  0  0  0  0  0  0  0  0  0  0  0
   -6.5948   -8.4463   22.9718 N   0  0  0  0  0  0  0  0  0  0  0  0
   -7.4649  -11.7320   20.4973 C   0  0  0  0  0  0  0  0  0  0  0  0
   -6.2857  -11.7206   21.2296 C   0  0  0  0  0  0  0  0  0  0  0  0
   -6.0015  -10.6377   22.0526 C   0  0  0  0  0  0  0  0  0  0  0  0
   -6.8876   -9.5652   22.1322 C   0  0  0  0  0  0  0  0  0  0  0  0
   -8.0569   -9.5762   21.3920 C   0  0  0  0  0  0  0  0  0  0  0  0
   -8.3468  -10.6641   20.5773 C   0  0  0  0  0  0  0  0  0  0  0  0
  1  2  1  0  0  0  0
  2  3  2  0  0  0  0
  2 20  1  0  0  0  0
  4  6  1  0  0  0  0
  5  6  2  0  0  0  0
  5 16  1  0  0  0  0
  6  7  1  0  0  0  0
  7  8  1  0  0  0  0
  8  9  1  0  0  0  0
  8 10  2  0  0  0  0
  9 12  1  0  0  0  0
  9 16  2  0  0  0  0
 11 13  1  0  0  0  0
 11 12  1  0  0  0  0
 12 14  1  0  0  0  0
 14 15  1  0  0  0  0
 14 18  1  6  0  0  0
 15 17  1  0  0  0  0
 16 17  1  0  0  0  0
 18 19  1  0  0  0  0
 19 23  1  0  0  0  0
 20 21  2  0  0  0  0
 20 25  1  0  0  0  0
 21 22  1  0  0  0  0
 22 23  2  0  0  0  0
 23 24  1  0  0  0  0
 24 25  2  0  0  0  0
M  END
>  <CHROM.1>
138.60771861,46.12600606,-117.41306971,-130.28311399,-94.45855658,-7.23159512
-8.27086791,21.31371551,-1.68198908,0.63995942,0.39508737

>  <Name>
ligand

>  <RI>
0

>  <Rbt.Current_Directory>
/home/itssahil/PROJECTS/Mol_Feturizer/New_Systems/rnas/4LVV

>  <Rbt.Executable>
rbdock ($Id: //depot/dev/client3/rdock/2013.1/src/exe/rbdock.cxx#4 $)

>  <Rbt.Library>
libRbt.so (2013.1, Build901 2013/11/27)

>  <Rbt.Parameter_File>
/export/apps/rDock/src/rDock_2013.1_src/data/scripts/dock_solv.prm

>  <Rbt.Receptor>
prm/blind_docking_40.prm

>  <SCORE>
-11.0056

>  <SCORE.INTER>
-10.7168

>  <SCORE.INTER.CONST>
1

>  <SCORE.INTER.POLAR>
0

>  <SCORE.INTER.ROT>
5

>  <SCORE.INTER.SOLV>
15.9747

>  <SCORE.INTER.VDW>
-19.4028

>  <SCORE.INTER.norm>
-0.428673

>  <SCORE.INTRA>
-0.288809

>  <SCORE.INTRA.DIHEDRAL>
1.01264

>  <SCORE.INTRA.DIHEDRAL.0>
3.94806

>  <SCORE.INTRA.POLAR>
0

>  <SCORE.INTRA.POLAR.0>
0

>  <SCORE.INTRA.REPUL>
0

>  <SCORE.INTRA.REPUL.0>
0

>  <SCORE.INTRA.SOLV>
2.71091

>  <SCORE.INTRA.SOLV.lig_0>
-70.9803

>  <SCORE.INTRA.VDW>
-2.15059

>  <SCORE.INTRA.VDW.0>
-0.709409

>  <SCORE.INTRA.norm>
-0.0115524

>  <SCORE.RESTR>
0

>  <SCORE.RESTR.CAVITY>
0

>  <SCORE.RESTR.norm>
0

>  <SCORE.SYSTEM>
0

>  <SCORE.SYSTEM.CONST>
0

>  <SCORE.SYSTEM.DIHEDRAL>
0

>  <SCORE.SYSTEM.SOLV>
0

>  <SCORE.SYSTEM.norm>
0

>  <SCORE.heavy>
25

>  <SCORE.norm>
-0.440226

>  <RMSD>
19.111

$$$$
ligand
 OpenBabel11021811503D
libRbt.so/2013.1/901 2013/11/27
 25 27  0  0  0  0  0  0  0  0999 V2000
   -1.7658   -5.0735   15.5439 N   0  0  0  0  0  0  0  0  0  0  0  0
   -3.1572   -5.1698   15.8604 C   0  0  0  0  0  0  0  0  0  0  0  0
   -4.0089   -4.8270   15.0498 O   0  0  0  0  0  0  0  0  0  0  0  0
   -9.5052  -12.8304   19.7376 N   0  0  0  0  0  0  0  0  0  0  0  0
   -8.5272  -10.7051   19.1977 N   0  0  0  0  0  0  0  0  0  0  0  0
   -9.2191  -11.4728   20.0709 C   0  0  0  0  0  0  0  0  0  0  0  0
   -9.6577  -10.9671   21.2627 N   0  0  0  0  0  0  0  0  0  0  0  0
   -9.4208   -9.6823   21.6309 C   0  0  0  0  0  0  0  0  0  0  0  0
   -8.6876   -8.8506   20.7509 C   0  0  0  0  0  0  0  0  0  0  0  0
   -9.8773   -9.2345   22.8483 O   0  0  0  0  0  0  0  0  0  0  0  0
   -9.2983   -6.5388   21.6346 C   0  0  0  0  0  0  0  0  0  0  0  0
   -8.3794   -7.4515   20.9979 N   0  0  0  0  0  0  0  0  0  0  0  0
  -10.3133   -6.1191   21.0893 O   0  0  0  0  0  0  0  0  0  0  0  0
   -7.1566   -7.0130   20.4742 C   0  0  2  0  0  0  0  0  0  0  0  0
   -7.1280   -7.2632   18.9444 C   0  0  0  0  0  0  0  0  0  0  0  0
   -8.2552   -9.3965   19.5011 C   0  0  0  0  0  0  0  0  0  0  0  0
   -7.4910   -8.5685   18.5641 N   0  0  0  0  0  0  0  0  0  0  0  0
   -5.9971   -7.7187   21.1479 C   0  0  0  0  0  0  0  0  0  0  0  0
   -4.6916   -7.1442   20.9754 N   0  0  0  0  0  0  0  0  0  0  0  0
   -3.5538   -5.7120   17.1899 C   0  0  0  0  0  0  0  0  0  0  0  0
   -3.2855   -7.0305   17.5312 C   0  0  0  0  0  0  0  0  0  0  0  0
   -3.6677   -7.5056   18.7799 C   0  0  0  0  0  0  0  0  0  0  0  0
   -4.3039   -6.6610   19.6874 C   0  0  0  0  0  0  0  0  0  0  0  0
   -4.5596   -5.3443   19.3466 C   0  0  0  0  0  0  0  0  0  0  0  0
   -4.1875   -4.8718   18.0938 C   0  0  0  0  0  0  0  0  0  0  0  0
  1  2  1  0  0  0  0
  2  3  2  0  0  0  0
  2 20  1  0  0  0  0
  4  6  1  0  0  0  0
  5  6  2  0  0  0  0
  5 16  1  0  0  0  0
  6  7  1  0  0  0  0
  7  8  1  0  0  0  0
  8  9  1  0  0  0  0
  8 10  2  0  0  0  0
  9 12  1  0  0  0  0
  9 16  2  0  0  0  0
 11 13  1  0  0  0  0
 11 12  1  0  0  0  0
 12 14  1  0  0  0  0
 14 15  1  0  0  0  0
 14 18  1  1  0  0  0
 15 17  1  0  0  0  0
 16 17  1  0  0  0  0
 18 19  1  0  0  0  0
 19 23  1  0  0  0  0
 20 21  2  0  0  0  0
 20 25  1  0  0  0  0
 21 22  1  0  0  0  0
 22 23  2  0  0  0  0
 23 24  1  0  0  0  0
 24 25  2  0  0  0  0
M  END
>  <CHROM.1>
-71.51441139,-164.39204175,-42.32191888,-90.22087631,-65.09740212,-6.73254479
-7.72985939,19.46970191,-0.23679239,-0.74645145,-2.67915421

>  <Name>
ligand

>  <RI>
0

>  <Rbt.Current_Directory>
/home/itssahil/PROJECTS/Mol_Feturizer/New_Systems/rnas/4LVV

>  <Rbt.Executable>
rbdock ($Id: //depot/dev/client3/rdock/2013.1/src/exe/rbdock.cxx#4 $)

>  <Rbt.Library>
libRbt.so (2013.1, Build901 2013/11/27)

>  <Rbt.Parameter_File>
/export/apps/rDock/src/rDock_2013.1_src/data/scripts/dock_solv.prm

>  <Rbt.Receptor>
prm/blind_docking_100.prm

>  <SCORE>
-7.44234

>  <SCORE.INTER>
-6.20518

>  <SCORE.INTER.CONST>
1

>  <SCORE.INTER.POLAR>
0

>  <SCORE.INTER.ROT>
5

>  <SCORE.INTER.SOLV>
10.6784

>  <SCORE.INTER.VDW>
-14.6296

>  <SCORE.INTER.norm>
-0.248207

>  <SCORE.INTRA>
-1.23716

>  <SCORE.INTRA.DIHEDRAL>
0.271041

>  <SCORE.INTRA.DIHEDRAL.0>
3.94806

>  <SCORE.INTRA.POLAR>
0

>  <SCORE.INTRA.POLAR.0>
0

>  <SCORE.INTRA.REPUL>
0

>  <SCORE.INTRA.REPUL.0>
0

>  <SCORE.INTRA.SOLV>
-0.369803

>  <SCORE.INTRA.SOLV.lig_0>
-70.9803

>  <SCORE.INTRA.VDW>
-1.18778

>  <SCORE.INTRA.VDW.0>
-0.709409

>  <SCORE.INTRA.norm>
-0.0494863

>  <SCORE.RESTR>
0

>  <SCORE.RESTR.CAVITY>
0

>  <SCORE.RESTR.norm>
0

>  <SCORE.SYSTEM>
0

>  <SCORE.SYSTEM.CONST>
0

>  <SCORE.SYSTEM.DIHEDRAL>
0

>  <SCORE.SYSTEM.SOLV>
0

>  <SCORE.SYSTEM.norm>
0

>  <SCORE.heavy>
25

>  <SCORE.norm>
-0.297694

>  <RMSD>
19.232

$$$$
ligand
 OpenBabel11021811503D
libRbt.so/2013.1/901 2013/11/27
 25 27  0  0  0  0  0  0  0  0999 V2000
   -2.1325   -4.7472   28.4290 N   0  0  0  0  0  0  0  0  0  0  0  0
   -3.3935   -4.0885   28.2824 C   0  0  0  0  0  0  0  0  0  0  0  0
   -3.6488   -3.0753   28.9215 O   0  0  0  0  0  0  0  0  0  0  0  0
  -10.7981  -12.3883   24.5938 N   0  0  0  0  0  0  0  0  0  0  0  0
   -9.0353  -11.2286   23.4480 N   0  0  0  0  0  0  0  0  0  0  0  0
  -10.2518  -11.1924   24.0393 C   0  0  0  0  0  0  0  0  0  0  0  0
  -10.9709  -10.0318   24.1055 N   0  0  0  0  0  0  0  0  0  0  0  0
  -10.5053   -8.8655   23.5904 C   0  0  0  0  0  0  0  0  0  0  0  0
   -9.2301   -8.8586   22.9761 C   0  0  0  0  0  0  0  0  0  0  0  0
  -11.2699   -7.7276   23.6984 O   0  0  0  0  0  0  0  0  0  0  0  0
   -9.3545   -6.7120   21.6069 C   0  0  0  0  0  0  0  0  0  0  0  0
   -8.6136   -7.6947   22.3606 N   0  0  0  0  0  0  0  0  0  0  0  0
   -9.2918   -6.6155   20.3860 O   0  0  0  0  0  0  0  0  0  0  0  0
   -7.2172   -7.6438   22.4566 C   0  0  2  0  0  0  0  0  0  0  0  0
   -6.6068   -8.9201   21.8225 C   0  0  0  0  0  0  0  0  0  0  0  0
   -8.5041  -10.0892   22.9019 C   0  0  0  0  0  0  0  0  0  0  0  0
   -7.1793  -10.1229   22.2763 N   0  0  0  0  0  0  0  0  0  0  0  0
   -6.7803   -7.5093   23.9013 C   0  0  0  0  0  0  0  0  0  0  0  0
   -7.1147   -6.2854   24.5753 N   0  0  0  0  0  0  0  0  0  0  0  0
   -4.3869   -4.6478   27.3237 C   0  0  0  0  0  0  0  0  0  0  0  0
   -5.6367   -4.0637   27.1700 C   0  0  0  0  0  0  0  0  0  0  0  0
   -6.5408   -4.6091   26.2665 C   0  0  0  0  0  0  0  0  0  0  0  0
   -6.1903   -5.7263   25.5110 C   0  0  0  0  0  0  0  0  0  0  0  0
   -4.9391   -6.2987   25.6599 C   0  0  0  0  0  0  0  0  0  0  0  0
   -4.0388   -5.7602   26.5714 C   0  0  0  0  0  0  0  0  0  0  0  0
  1  2  1  0  0  0  0
  2  3  2  0  0  0  0
  2 20  1  0  0  0  0
  4  6  1  0  0  0  0
  5  6  2  0  0  0  0
  5 16  1  0  0  0  0
  6  7  1  0  0  0  0
  7  8  1  0  0  0  0
  8  9  1  0  0  0  0
  8 10  2  0  0  0  0
  9 12  1  0  0  0  0
  9 16  2  0  0  0  0
 11 13  1  0  0  0  0
 11 12  1  0  0  0  0
 12 14  1  0  0  0  0
 14 15  1  0  0  0  0
 14 18  1  1  0  0  0
 15 17  1  0  0  0  0
 16 17  1  0  0  0  0
 18 19  1  0  0  0  0
 19 23  1  0  0  0  0
 20 21  2  0  0  0  0
 20 25  1  0  0  0  0
 21 22  1  0  0  0  0
 22 23  2  0  0  0  0
 23 24  1  0  0  0  0
 24 25  2  0  0  0  0
M  END
>  <CHROM.1>
-107.11504977,-66.53864677,-143.29695964,-174.13770483,178.40642199,-7.40167104
-7.40976998,24.45382605,-0.01955298,0.88943839,2.32346448

>  <Name>
ligand

>  <RI>
0

>  <Rbt.Current_Directory>
/home/itssahil/PROJECTS/Mol_Feturizer/New_Systems/rnas/4LVV

>  <Rbt.Executable>
rbdock ($Id: //depot/dev/client3/rdock/2013.1/src/exe/rbdock.cxx#4 $)

>  <Rbt.Library>
libRbt.so (2013.1, Build901 2013/11/27)

>  <Rbt.Parameter_File>
/export/apps/rDock/src/rDock_2013.1_src/data/scripts/dock_solv.prm

>  <Rbt.Receptor>
prm/blind_docking_60.prm

>  <SCORE>
-10.9326

>  <SCORE.INTER>
-11.1204

>  <SCORE.INTER.CONST>
1

>  <SCORE.INTER.POLAR>
0

>  <SCORE.INTER.ROT>
5

>  <SCORE.INTER.SOLV>
12.3129

>  <SCORE.INTER.VDW>
-18.4513

>  <SCORE.INTER.norm>
-0.444818

>  <SCORE.INTRA>
0.187808

>  <SCORE.INTRA.DIHEDRAL>
0.177138

>  <SCORE.INTRA.DIHEDRAL.0>
3.94806

>  <SCORE.INTRA.POLAR>
0

>  <SCORE.INTRA.POLAR.0>
0

>  <SCORE.INTRA.REPUL>
0

>  <SCORE.INTRA.REPUL.0>
0

>  <SCORE.INTRA.SOLV>
-0.219736

>  <SCORE.INTRA.SOLV.lig_0>
-70.9803

>  <SCORE.INTRA.VDW>
0.209107

>  <SCORE.INTRA.VDW.0>
-0.709409

>  <SCORE.INTRA.norm>
0.0075123

>  <SCORE.RESTR>
0

>  <SCORE.RESTR.CAVITY>
0

>  <SCORE.RESTR.norm>
0

>  <SCORE.SYSTEM>
0

>  <SCORE.SYSTEM.CONST>
0

>  <SCORE.SYSTEM.DIHEDRAL>
0

>  <SCORE.SYSTEM.SOLV>
0

>  <SCORE.SYSTEM.norm>
0

>  <SCORE.heavy>
25

>  <SCORE.norm>
-0.437305

>  <RMSD>
19.237

$$$$
ligand
 OpenBabel11021811503D
libRbt.so/2013.1/901 2013/11/27
 25 27  0  0  0  0  0  0  0  0999 V2000
   -4.6900   -5.7664   31.2158 N   0  0  0  0  0  0  0  0  0  0  0  0
   -4.8845   -6.8656   30.3217 C   0  0  0  0  0  0  0  0  0  0  0  0
   -4.8552   -8.0192   30.7320 O   0  0  0  0  0  0  0  0  0  0  0  0
   -9.8718  -11.7368   23.6245 N   0  0  0  0  0  0  0  0  0  0  0  0
   -8.2857  -10.0442   23.0043 N   0  0  0  0  0  0  0  0  0  0  0  0
   -9.5588  -10.3789   23.3176 C   0  0  0  0  0  0  0  0  0  0  0  0
  -10.5522   -9.4402   23.3351 N   0  0  0  0  0  0  0  0  0  0  0  0
  -10.3154   -8.1352   23.0462 C   0  0  0  0  0  0  0  0  0  0  0  0
   -8.9935   -7.7421   22.7274 C   0  0  0  0  0  0  0  0  0  0  0  0
  -11.3539   -7.2350   23.0923 O   0  0  0  0  0  0  0  0  0  0  0  0
   -9.4090   -5.5076   21.5730 C   0  0  0  0  0  0  0  0  0  0  0  0
   -8.5943   -6.3897   22.3735 N   0  0  0  0  0  0  0  0  0  0  0  0
   -9.6697   -4.3545   21.8990 O   0  0  0  0  0  0  0  0  0  0  0  0
   -7.3018   -6.0294   22.7753 C   0  0  2  0  0  0  0  0  0  0  0  0
   -6.2753   -7.0221   22.1716 C   0  0  0  0  0  0  0  0  0  0  0  0
   -7.9740   -8.7454   22.6970 C   0  0  0  0  0  0  0  0  0  0  0  0
   -6.5925   -8.3780   22.3743 N   0  0  0  0  0  0  0  0  0  0  0  0
   -7.1928   -6.0088   24.2866 C   0  0  0  0  0  0  0  0  0  0  0  0
   -5.9089   -5.6884   24.8462 N   0  0  0  0  0  0  0  0  0  0  0  0
   -5.1409   -6.5815   28.8821 C   0  0  0  0  0  0  0  0  0  0  0  0
   -5.0115   -7.5781   27.9245 C   0  0  0  0  0  0  0  0  0  0  0  0
   -5.2587   -7.2811   26.5898 C   0  0  0  0  0  0  0  0  0  0  0  0
   -5.6463   -5.9956   26.2171 C   0  0  0  0  0  0  0  0  0  0  0  0
   -5.7845   -5.0080   27.1768 C   0  0  0  0  0  0  0  0  0  0  0  0
   -5.5266   -5.3018   28.5103 C   0  0  0  0  0  0  0  0  0  0  0  0
  1  2  1  0  0  0  0
  2  3  2  0  0  0  0
  2 20  1  0  0  0  0
  4  6  1  0  0  0  0
  5  6  2  0  0  0  0
  5 16  1  0  0  0  0
  6  7  1  0  0  0  0
  7  8  1  0  0  0  0
  8  9  1  0  0  0  0
  8 10  2  0  0  0  0
  9 12  1  0  0  0  0
  9 16  2  0  0  0  0
 11 13  1  0  0  0  0
 11 12  1  0  0  0  0
 12 14  1  0  0  0  0
 14 15  1  0  0  0  0
 14 18  1  1  0  0  0
 15 17  1  0  0  0  0
 16 17  1  0  0  0  0
 18 19  1  0  0  0  0
 19 23  1  0  0  0  0
 20 21  2  0  0  0  0
 20 25  1  0  0  0  0
 21 22  1  0  0  0  0
 22 23  2  0  0  0  0
 23 24  1  0  0  0  0
 24 25  2  0  0  0  0
M  END
>  <CHROM.1>
130.16804169,178.42723698,-163.40354359,82.29930871,164.05594758,-7.45128052
-7.24075449,24.92415698,0.31051734,0.97749995,2.57298016

>  <Name>
ligand

>  <RI>
0

>  <Rbt.Current_Directory>
/home/itssahil/PROJECTS/Mol_Feturizer/New_Systems/rnas/4LVV

>  <Rbt.Executable>
rbdock ($Id: //depot/dev/client3/rdock/2013.1/src/exe/rbdock.cxx#4 $)

>  <Rbt.Library>
libRbt.so (2013.1, Build901 2013/11/27)

>  <Rbt.Parameter_File>
/export/apps/rDock/src/rDock_2013.1_src/data/scripts/dock_solv.prm

>  <Rbt.Receptor>
prm/blind_docking_80.prm

>  <SCORE>
-12.4652

>  <SCORE.INTER>
-11.4628

>  <SCORE.INTER.CONST>
1

>  <SCORE.INTER.POLAR>
0

>  <SCORE.INTER.ROT>
5

>  <SCORE.INTER.SOLV>
14.453

>  <SCORE.INTER.VDW>
-19.3928

>  <SCORE.INTER.norm>
-0.45851

>  <SCORE.INTRA>
-1.00244

>  <SCORE.INTRA.DIHEDRAL>
-0.556117

>  <SCORE.INTRA.DIHEDRAL.0>
3.94806

>  <SCORE.INTRA.POLAR>
0

>  <SCORE.INTRA.POLAR.0>
0

>  <SCORE.INTRA.REPUL>
0

>  <SCORE.INTRA.REPUL.0>
0

>  <SCORE.INTRA.SOLV>
-0.0983262

>  <SCORE.INTRA.SOLV.lig_0>
-70.9803

>  <SCORE.INTRA.VDW>
-0.675223

>  <SCORE.INTRA.VDW.0>
-0.709409

>  <SCORE.INTRA.norm>
-0.0400978

>  <SCORE.RESTR>
0

>  <SCORE.RESTR.CAVITY>
0

>  <SCORE.RESTR.norm>
0

>  <SCORE.SYSTEM>
0

>  <SCORE.SYSTEM.CONST>
0

>  <SCORE.SYSTEM.DIHEDRAL>
0

>  <SCORE.SYSTEM.SOLV>
0

>  <SCORE.SYSTEM.norm>
0

>  <SCORE.heavy>
25

>  <SCORE.norm>
-0.498608

>  <RMSD>
19.383

$$$$
ligand
 OpenBabel11021811503D
libRbt.so/2013.1/901 2013/11/27
 25 27  0  0  0  0  0  0  0  0999 V2000
   -2.5934   -3.9944   28.4355 N   0  0  0  0  0  0  0  0  0  0  0  0
   -2.7163   -5.1509   27.6033 C   0  0  0  0  0  0  0  0  0  0  0  0
   -1.8176   -5.9813   27.5484 O   0  0  0  0  0  0  0  0  0  0  0  0
   -6.0050   -8.2380   17.9001 N   0  0  0  0  0  0  0  0  0  0  0  0
   -7.4007   -7.1620   19.5310 N   0  0  0  0  0  0  0  0  0  0  0  0
   -6.8001   -8.2891   19.0839 C   0  0  0  0  0  0  0  0  0  0  0  0
   -6.9504   -9.4781   19.7413 N   0  0  0  0  0  0  0  0  0  0  0  0
   -7.6991   -9.5886   20.8681 C   0  0  0  0  0  0  0  0  0  0  0  0
   -8.3322   -8.4289   21.3761 C   0  0  0  0  0  0  0  0  0  0  0  0
   -7.8028  -10.8097   21.4919 O   0  0  0  0  0  0  0  0  0  0  0  0
  -10.0997   -9.4589   22.8971 C   0  0  0  0  0  0  0  0  0  0  0  0
   -9.1823   -8.3986   22.5550 N   0  0  0  0  0  0  0  0  0  0  0  0
  -11.2381   -9.5326   22.4472 O   0  0  0  0  0  0  0  0  0  0  0  0
   -9.1313   -7.2083   23.2915 C   0  0  2  0  0  0  0  0  0  0  0  0
   -9.5115   -6.0157   22.3769 C   0  0  0  0  0  0  0  0  0  0  0  0
   -8.1759   -7.1999   20.6606 C   0  0  0  0  0  0  0  0  0  0  0  0
   -8.8130   -5.9766   21.1558 N   0  0  0  0  0  0  0  0  0  0  0  0
   -7.7532   -7.0009   23.8867 C   0  0  0  0  0  0  0  0  0  0  0  0
   -7.5491   -5.8116   24.6666 N   0  0  0  0  0  0  0  0  0  0  0  0
   -3.9667   -5.3373   26.8155 C   0  0  0  0  0  0  0  0  0  0  0  0
   -4.0125   -6.2257   25.7499 C   0  0  0  0  0  0  0  0  0  0  0  0
   -5.1947   -6.3773   25.0354 C   0  0  0  0  0  0  0  0  0  0  0  0
   -6.3294   -5.6525   25.3944 C   0  0  0  0  0  0  0  0  0  0  0  0
   -6.2819   -4.7760   26.4643 C   0  0  0  0  0  0  0  0  0  0  0  0
   -5.0967   -4.6158   27.1721 C   0  0  0  0  0  0  0  0  0  0  0  0
  1  2  1  0  0  0  0
  2  3  2  0  0  0  0
  2 20  1  0  0  0  0
  4  6  1  0  0  0  0
  5  6  2  0  0  0  0
  5 16  1  0  0  0  0
  6  7  1  0  0  0  0
  7  8  1  0  0  0  0
  8  9  1  0  0  0  0
  8 10  2  0  0  0  0
  9 12  1  0  0  0  0
  9 16  2  0  0  0  0
 11 13  1  0  0  0  0
 11 12  1  0  0  0  0
 12 14  1  0  0  0  0
 14 15  1  0  0  0  0
 14 18  1  6  0  0  0
 15 17  1  0  0  0  0
 16 17  1  0  0  0  0
 18 19  1  0  0  0  0
 19 23  1  0  0  0  0
 20 21  2  0  0  0  0
 20 25  1  0  0  0  0
 21 22  1  0  0  0  0
 22 23  2  0  0  0  0
 23 24  1  0  0  0  0
 24 25  2  0  0  0  0
M  END
>  <CHROM.1>
-85.39381240,179.69683973,171.80680371,20.92479657,163.17739234,-6.87637578
-7.13521057,23.31933425,-0.98662516,-0.15594328,-1.96583786

>  <Name>
ligand

>  <RI>
0

>  <Rbt.Current_Directory>
/home/itssahil/PROJECTS/Mol_Feturizer/New_Systems/rnas/4LVV

>  <Rbt.Executable>
rbdock ($Id: //depot/dev/client3/rdock/2013.1/src/exe/rbdock.cxx#4 $)

>  <Rbt.Library>
libRbt.so (2013.1, Build901 2013/11/27)

>  <Rbt.Parameter_File>
/export/apps/rDock/src/rDock_2013.1_src/data/scripts/dock_solv.prm

>  <Rbt.Receptor>
prm/blind_docking_60.prm

>  <SCORE>
-11.5681

>  <SCORE.INTER>
-11.1533

>  <SCORE.INTER.CONST>
1

>  <SCORE.INTER.POLAR>
0

>  <SCORE.INTER.ROT>
5

>  <SCORE.INTER.SOLV>
11.2107

>  <SCORE.INTER.VDW>
-18.1058

>  <SCORE.INTER.norm>
-0.446132

>  <SCORE.INTRA>
-0.414753

>  <SCORE.INTRA.DIHEDRAL>
-0.819155

>  <SCORE.INTRA.DIHEDRAL.0>
3.94806

>  <SCORE.INTRA.POLAR>
0

>  <SCORE.INTRA.POLAR.0>
0

>  <SCORE.INTRA.REPUL>
0

>  <SCORE.INTRA.REPUL.0>
0

>  <SCORE.INTRA.SOLV>
-0.231415

>  <SCORE.INTRA.SOLV.lig_0>
-70.9803

>  <SCORE.INTRA.VDW>
0.110532

>  <SCORE.INTRA.VDW.0>
-0.709409

>  <SCORE.INTRA.norm>
-0.0165901

>  <SCORE.RESTR>
0

>  <SCORE.RESTR.CAVITY>
0

>  <SCORE.RESTR.norm>
0

>  <SCORE.SYSTEM>
0

>  <SCORE.SYSTEM.CONST>
0

>  <SCORE.SYSTEM.DIHEDRAL>
0

>  <SCORE.SYSTEM.SOLV>
0

>  <SCORE.SYSTEM.norm>
0

>  <SCORE.heavy>
25

>  <SCORE.norm>
-0.462722

>  <RMSD>
19.409

$$$$
ligand
 OpenBabel11021811503D
libRbt.so/2013.1/901 2013/11/27
 25 27  0  0  0  0  0  0  0  0999 V2000
   -2.9317   -2.7272   28.1118 N   0  0  0  0  0  0  0  0  0  0  0  0
   -3.0724   -4.1447   27.9846 C   0  0  0  0  0  0  0  0  0  0  0  0
   -2.3093   -4.9046   28.5680 O   0  0  0  0  0  0  0  0  0  0  0  0
  -11.7452  -11.7901   24.8548 N   0  0  0  0  0  0  0  0  0  0  0  0
   -9.7825  -10.9561   23.7513 N   0  0  0  0  0  0  0  0  0  0  0  0
  -11.0100  -10.7170   24.2680 C   0  0  0  0  0  0  0  0  0  0  0  0
  -11.5621   -9.4673   24.2283 N   0  0  0  0  0  0  0  0  0  0  0  0
  -10.9128   -8.4101   23.6778 C   0  0  0  0  0  0  0  0  0  0  0  0
   -9.6200   -8.6160   23.1392 C   0  0  0  0  0  0  0  0  0  0  0  0
  -11.5152   -7.1739   23.6783 O   0  0  0  0  0  0  0  0  0  0  0  0
   -9.3744   -6.5624   21.6490 C   0  0  0  0  0  0  0  0  0  0  0  0
   -8.8169   -7.5880   22.4975 N   0  0  0  0  0  0  0  0  0  0  0  0
   -9.7647   -5.4798   22.0726 O   0  0  0  0  0  0  0  0  0  0  0  0
   -7.4336   -7.7225   22.6716 C   0  0  2  0  0  0  0  0  0  0  0  0
   -6.9768   -9.1074   22.1454 C   0  0  0  0  0  0  0  0  0  0  0  0
   -9.0705   -9.9364   23.1752 C   0  0  0  0  0  0  0  0  0  0  0  0
   -7.7338  -10.1899   22.6306 N   0  0  0  0  0  0  0  0  0  0  0  0
   -7.0550   -7.5589   24.1297 C   0  0  0  0  0  0  0  0  0  0  0  0
   -7.2229   -6.2541   24.7073 N   0  0  0  0  0  0  0  0  0  0  0  0
   -4.1767   -4.6824   27.1419 C   0  0  0  0  0  0  0  0  0  0  0  0
   -5.4497   -4.1318   27.1981 C   0  0  0  0  0  0  0  0  0  0  0  0
   -6.4581   -4.6558   26.3985 C   0  0  0  0  0  0  0  0  0  0  0  0
   -6.1901   -5.7177   25.5369 C   0  0  0  0  0  0  0  0  0  0  0  0
   -4.9167   -6.2563   25.4764 C   0  0  0  0  0  0  0  0  0  0  0  0
   -3.9106   -5.7398   26.2841 C   0  0  0  0  0  0  0  0  0  0  0  0
  1  2  1  0  0  0  0
  2  3  2  0  0  0  0
  2 20  1  0  0  0  0
  4  6  1  0  0  0  0
  5  6  2  0  0  0  0
  5 16  1  0  0  0  0
  6  7  1  0  0  0  0
  7  8  1  0  0  0  0
  8  9  1  0  0  0  0
  8 10  2  0  0  0  0
  9 12  1  0  0  0  0
  9 16  2  0  0  0  0
 11 13  1  0  0  0  0
 11 12  1  0  0  0  0
 12 14  1  0  0  0  0
 14 15  1  0  0  0  0
 14 18  1  1  0  0  0
 15 17  1  0  0  0  0
 16 17  1  0  0  0  0
 18 19  1  0  0  0  0
 19 23  1  0  0  0  0
 20 21  2  0  0  0  0
 20 25  1  0  0  0  0
 21 22  1  0  0  0  0
 22 23  2  0  0  0  0
 23 24  1  0  0  0  0
 24 25  2  0  0  0  0
M  END
>  <CHROM.1>
89.64640310,-67.76041442,-135.80339658,-162.01839686,-42.59908602,-7.61649294
-7.23206180,24.59154137,0.38548581,-0.69050099,-0.32192412

>  <Name>
ligand

>  <RI>
0

>  <Rbt.Current_Directory>
/home/itssahil/PROJECTS/Mol_Feturizer/New_Systems/rnas/4LVV

>  <Rbt.Executable>
rbdock ($Id: //depot/dev/client3/rdock/2013.1/src/exe/rbdock.cxx#4 $)

>  <Rbt.Library>
libRbt.so (2013.1, Build901 2013/11/27)

>  <Rbt.Parameter_File>
/export/apps/rDock/src/rDock_2013.1_src/data/scripts/dock_solv.prm

>  <Rbt.Receptor>
prm/blind_docking_100.prm

>  <SCORE>
-11.9753

>  <SCORE.INTER>
-12.1715

>  <SCORE.INTER.CONST>
1

>  <SCORE.INTER.POLAR>
0

>  <SCORE.INTER.ROT>
5

>  <SCORE.INTER.SOLV>
10.9675

>  <SCORE.INTER.VDW>
-18.7035

>  <SCORE.INTER.norm>
-0.486862

>  <SCORE.INTRA>
0.196242

>  <SCORE.INTRA.DIHEDRAL>
0.708739

>  <SCORE.INTRA.DIHEDRAL.0>
3.94806

>  <SCORE.INTRA.POLAR>
0

>  <SCORE.INTRA.POLAR.0>
0

>  <SCORE.INTRA.REPUL>
0

>  <SCORE.INTRA.REPUL.0>
0

>  <SCORE.INTRA.SOLV>
0.333725

>  <SCORE.INTRA.SOLV.lig_0>
-70.9803

>  <SCORE.INTRA.VDW>
-0.32499

>  <SCORE.INTRA.VDW.0>
-0.709409

>  <SCORE.INTRA.norm>
0.00784969

>  <SCORE.RESTR>
0

>  <SCORE.RESTR.CAVITY>
0

>  <SCORE.RESTR.norm>
0

>  <SCORE.SYSTEM>
0

>  <SCORE.SYSTEM.CONST>
0

>  <SCORE.SYSTEM.DIHEDRAL>
0

>  <SCORE.SYSTEM.SOLV>
0

>  <SCORE.SYSTEM.norm>
0

>  <SCORE.heavy>
25

>  <SCORE.norm>
-0.479012

>  <RMSD>
19.423

$$$$
ligand
 OpenBabel11021811503D
libRbt.so/2013.1/901 2013/11/27
 25 27  0  0  0  0  0  0  0  0999 V2000
   -3.8322   -7.8288   30.6653 N   0  0  0  0  0  0  0  0  0  0  0  0
   -4.9043   -6.9304   30.3672 C   0  0  0  0  0  0  0  0  0  0  0  0
   -5.5786   -6.4404   31.2646 O   0  0  0  0  0  0  0  0  0  0  0  0
  -10.8066  -11.2031   24.2331 N   0  0  0  0  0  0  0  0  0  0  0  0
   -8.9433   -9.8866   23.4846 N   0  0  0  0  0  0  0  0  0  0  0  0
  -10.2602   -9.9631   23.7858 C   0  0  0  0  0  0  0  0  0  0  0  0
  -11.0783   -8.8754   23.6592 N   0  0  0  0  0  0  0  0  0  0  0  0
  -10.6163   -7.6723   23.2329 C   0  0  0  0  0  0  0  0  0  0  0  0
   -9.2412   -7.5475   22.9214 C   0  0  0  0  0  0  0  0  0  0  0  0
  -11.4859   -6.6114   23.1372 O   0  0  0  0  0  0  0  0  0  0  0  0
   -9.2473   -5.4276   21.5056 C   0  0  0  0  0  0  0  0  0  0  0  0
   -8.6100   -6.3330   22.4313 N   0  0  0  0  0  0  0  0  0  0  0  0
   -9.7932   -4.3862   21.8538 O   0  0  0  0  0  0  0  0  0  0  0  0
   -7.2823   -6.1501   22.8379 C   0  0  2  0  0  0  0  0  0  0  0  0
   -6.4305   -7.3655   22.3900 C   0  0  0  0  0  0  0  0  0  0  0  0
   -8.4083   -8.7043   23.0437 C   0  0  0  0  0  0  0  0  0  0  0  0
   -6.9788   -8.6152   22.7335 N   0  0  0  0  0  0  0  0  0  0  0  0
   -7.1981   -5.9692   24.3401 C   0  0  0  0  0  0  0  0  0  0  0  0
   -5.8995   -5.7075   24.8963 N   0  0  0  0  0  0  0  0  0  0  0  0
   -5.1764   -6.5868   28.9436 C   0  0  0  0  0  0  0  0  0  0  0  0
   -5.5640   -5.3042   28.5811 C   0  0  0  0  0  0  0  0  0  0  0  0
   -5.8096   -5.0154   27.2442 C   0  0  0  0  0  0  0  0  0  0  0  0
   -5.6552   -6.0029   26.2732 C   0  0  0  0  0  0  0  0  0  0  0  0
   -5.2582   -7.2775   26.6382 C   0  0  0  0  0  0  0  0  0  0  0  0
   -5.0233   -7.5696   27.9764 C   0  0  0  0  0  0  0  0  0  0  0  0
  1  2  1  0  0  0  0
  2  3  2  0  0  0  0
  2 20  1  0  0  0  0
  4  6  1  0  0  0  0
  5  6  2  0  0  0  0
  5 16  1  0  0  0  0
  6  7  1  0  0  0  0
  7  8  1  0  0  0  0
  8  9  1  0  0  0  0
  8 10  2  0  0  0  0
  9 12  1  0  0  0  0
  9 16  2  0  0  0  0
 11 13  1  0  0  0  0
 11 12  1  0  0  0  0
 12 14  1  0  0  0  0
 14 15  1  0  0  0  0
 14 18  1  1  0  0  0
 15 17  1  0  0  0  0
 16 17  1  0  0  0  0
 18 19  1  0  0  0  0
 19 23  1  0  0  0  0
 20 21  2  0  0  0  0
 20 25  1  0  0  0  0
 21 22  1  0  0  0  0
 22 23  2  0  0  0  0
 23 24  1  0  0  0  0
 24 25  2  0  0  0  0
M  END
>  <CHROM.1>
99.89755254,-177.13735254,-157.42935203,-93.88880120,-142.53899684,-7.63262665
-7.15549144,25.07420889,0.51573623,0.84652180,2.35022713

>  <Name>
ligand

>  <RI>
0

>  <Rbt.Current_Directory>
/home/itssahil/PROJECTS/Mol_Feturizer/New_Systems/rnas/4LVV

>  <Rbt.Executable>
rbdock ($Id: //depot/dev/client3/rdock/2013.1/src/exe/rbdock.cxx#4 $)

>  <Rbt.Library>
libRbt.so (2013.1, Build901 2013/11/27)

>  <Rbt.Parameter_File>
/export/apps/rDock/src/rDock_2013.1_src/data/scripts/dock_solv.prm

>  <Rbt.Receptor>
prm/blind_docking_100.prm

>  <SCORE>
-13.1483

>  <SCORE.INTER>
-12.0552

>  <SCORE.INTER.CONST>
1

>  <SCORE.INTER.POLAR>
0

>  <SCORE.INTER.ROT>
5

>  <SCORE.INTER.SOLV>
15.6583

>  <SCORE.INTER.VDW>
-20.1896

>  <SCORE.INTER.norm>
-0.482207

>  <SCORE.INTRA>
-1.09308

>  <SCORE.INTRA.DIHEDRAL>
-0.104205

>  <SCORE.INTRA.DIHEDRAL.0>
3.94806

>  <SCORE.INTRA.POLAR>
0

>  <SCORE.INTRA.POLAR.0>
0

>  <SCORE.INTRA.REPUL>
0

>  <SCORE.INTRA.REPUL.0>
0

>  <SCORE.INTRA.SOLV>
-0.0856065

>  <SCORE.INTRA.SOLV.lig_0>
-70.9803

>  <SCORE.INTRA.VDW>
-0.998174

>  <SCORE.INTRA.VDW.0>
-0.709409

>  <SCORE.INTRA.norm>
-0.0437232

>  <SCORE.RESTR>
0

>  <SCORE.RESTR.CAVITY>
0

>  <SCORE.RESTR.norm>
0

>  <SCORE.SYSTEM>
0

>  <SCORE.SYSTEM.CONST>
0

>  <SCORE.SYSTEM.DIHEDRAL>
0

>  <SCORE.SYSTEM.SOLV>
0

>  <SCORE.SYSTEM.norm>
0

>  <SCORE.heavy>
25

>  <SCORE.norm>
-0.52593

>  <RMSD>
19.504

$$$$
ligand
 OpenBabel11021811503D
libRbt.so/2013.1/901 2013/11/27
 25 27  0  0  0  0  0  0  0  0999 V2000
   -4.7069   -5.7211   31.2486 N   0  0  0  0  0  0  0  0  0  0  0  0
   -4.7939   -6.8213   30.3391 C   0  0  0  0  0  0  0  0  0  0  0  0
   -4.6563   -7.9726   30.7339 O   0  0  0  0  0  0  0  0  0  0  0  0
  -10.7546  -11.2451   24.2504 N   0  0  0  0  0  0  0  0  0  0  0  0
   -8.9190   -9.9014   23.4820 N   0  0  0  0  0  0  0  0  0  0  0  0
  -10.2296   -9.9952   23.8049 C   0  0  0  0  0  0  0  0  0  0  0  0
  -11.0617   -8.9156   23.7020 N   0  0  0  0  0  0  0  0  0  0  0  0
  -10.6203   -7.7038   23.2786 C   0  0  0  0  0  0  0  0  0  0  0  0
   -9.2522   -7.5610   22.9448 C   0  0  0  0  0  0  0  0  0  0  0  0
  -11.5030   -6.6518   23.2072 O   0  0  0  0  0  0  0  0  0  0  0  0
   -9.3059   -5.4290   21.5483 C   0  0  0  0  0  0  0  0  0  0  0  0
   -8.6429   -6.3353   22.4549 N   0  0  0  0  0  0  0  0  0  0  0  0
   -9.8562   -4.3962   21.9149 O   0  0  0  0  0  0  0  0  0  0  0  0
   -7.3105   -6.1411   22.8404 C   0  0  2  0  0  0  0  0  0  0  0  0
   -6.4532   -7.3430   22.3672 C   0  0  0  0  0  0  0  0  0  0  0  0
   -8.4047   -8.7094   23.0425 C   0  0  0  0  0  0  0  0  0  0  0  0
   -6.9818   -8.6017   22.7088 N   0  0  0  0  0  0  0  0  0  0  0  0
   -7.2025   -5.9725   24.3425 C   0  0  0  0  0  0  0  0  0  0  0  0
   -5.9038   -5.6668   24.8754 N   0  0  0  0  0  0  0  0  0  0  0  0
   -5.0726   -6.5432   28.9025 C   0  0  0  0  0  0  0  0  0  0  0  0
   -4.9474   -7.5409   27.9456 C   0  0  0  0  0  0  0  0  0  0  0  0
   -5.2156   -7.2494   26.6136 C   0  0  0  0  0  0  0  0  0  0  0  0
   -5.6197   -5.9683   26.2433 C   0  0  0  0  0  0  0  0  0  0  0  0
   -5.7535   -4.9796   27.2025 C   0  0  0  0  0  0  0  0  0  0  0  0
   -5.4747   -5.2678   28.5331 C   0  0  0  0  0  0  0  0  0  0  0  0
  1  2  1  0  0  0  0
  2  3  2  0  0  0  0
  2 20  1  0  0  0  0
  4  6  1  0  0  0  0
  5  6  2  0  0  0  0
  5 16  1  0  0  0  0
  6  7  1  0  0  0  0
  7  8  1  0  0  0  0
  8  9  1  0  0  0  0
  8 10  2  0  0  0  0
  9 12  1  0  0  0  0
  9 16  2  0  0  0  0
 11 13  1  0  0  0  0
 11 12  1  0  0  0  0
 12 14  1  0  0  0  0
 14 15  1  0  0  0  0
 14 18  1  1  0  0  0
 15 17  1  0  0  0  0
 16 17  1  0  0  0  0
 18 19  1  0  0  0  0
 19 23  1  0  0  0  0
 20 21  2  0  0  0  0
 20 25  1  0  0  0  0
 21 22  1  0  0  0  0
 22 23  2  0  0  0  0
 23 24  1  0  0  0  0
 24 25  2  0  0  0  0
M  END
>  <CHROM.1>
99.96061374,-175.56802652,-157.34735449,83.69298305,169.16745504,-7.61224431
-7.13524745,25.07641071,0.45812621,0.86028693,2.39329612

>  <Name>
ligand

>  <RI>
0

>  <Rbt.Current_Directory>
/home/itssahil/PROJECTS/Mol_Feturizer/New_Systems/rnas/4LVV

>  <Rbt.Executable>
rbdock ($Id: //depot/dev/client3/rdock/2013.1/src/exe/rbdock.cxx#4 $)

>  <Rbt.Library>
libRbt.so (2013.1, Build901 2013/11/27)

>  <Rbt.Parameter_File>
/export/apps/rDock/src/rDock_2013.1_src/data/scripts/dock_solv.prm

>  <Rbt.Receptor>
prm/blind_docking_60.prm

>  <SCORE>
-13.2289

>  <SCORE.INTER>
-12.2914

>  <SCORE.INTER.CONST>
1

>  <SCORE.INTER.POLAR>
0

>  <SCORE.INTER.ROT>
5

>  <SCORE.INTER.SOLV>
14.9457

>  <SCORE.INTER.VDW>
-20.1095

>  <SCORE.INTER.norm>
-0.491657

>  <SCORE.INTRA>
-0.941167

>  <SCORE.INTRA.DIHEDRAL>
-0.107111

>  <SCORE.INTRA.DIHEDRAL.0>
3.94806

>  <SCORE.INTRA.POLAR>
0

>  <SCORE.INTRA.POLAR.0>
0

>  <SCORE.INTRA.REPUL>
0

>  <SCORE.INTRA.REPUL.0>
0

>  <SCORE.INTRA.SOLV>
-0.108233

>  <SCORE.INTRA.SOLV.lig_0>
-70.9803

>  <SCORE.INTRA.VDW>
-0.833495

>  <SCORE.INTRA.VDW.0>
-0.709409

>  <SCORE.INTRA.norm>
-0.0376467

>  <SCORE.RESTR>
0.00375152

>  <SCORE.RESTR.CAVITY>
0.00375152

>  <SCORE.RESTR.norm>
0.000150061

>  <SCORE.SYSTEM>
0

>  <SCORE.SYSTEM.CONST>
0

>  <SCORE.SYSTEM.DIHEDRAL>
0

>  <SCORE.SYSTEM.SOLV>
0

>  <SCORE.SYSTEM.norm>
0

>  <SCORE.heavy>
25

>  <SCORE.norm>
-0.529154

>  <RMSD>
19.511

$$$$
ligand
 OpenBabel11021811503D
libRbt.so/2013.1/901 2013/11/27
 25 27  0  0  0  0  0  0  0  0999 V2000
   -4.3604   -2.4041   28.0276 N   0  0  0  0  0  0  0  0  0  0  0  0
   -5.0328   -3.6395   28.2864 C   0  0  0  0  0  0  0  0  0  0  0  0
   -5.3430   -3.9564   29.4281 O   0  0  0  0  0  0  0  0  0  0  0  0
  -11.0501  -12.8002   25.3779 N   0  0  0  0  0  0  0  0  0  0  0  0
   -9.5152  -11.6354   23.9452 N   0  0  0  0  0  0  0  0  0  0  0  0
  -10.6513  -11.6213   24.6800 C   0  0  0  0  0  0  0  0  0  0  0  0
  -11.4290  -10.4998   24.7568 N   0  0  0  0  0  0  0  0  0  0  0  0
  -11.1035   -9.3517   24.1100 C   0  0  0  0  0  0  0  0  0  0  0  0
   -9.9147   -9.3216   23.3422 C   0  0  0  0  0  0  0  0  0  0  0  0
  -11.9198   -8.2523   24.2354 O   0  0  0  0  0  0  0  0  0  0  0  0
  -10.3387   -7.2934   21.8572 C   0  0  0  0  0  0  0  0  0  0  0  0
   -9.4517   -8.1752   22.5773 N   0  0  0  0  0  0  0  0  0  0  0  0
  -10.0284   -6.1546   21.5246 O   0  0  0  0  0  0  0  0  0  0  0  0
   -8.0600   -8.0414   22.4945 C   0  0  2  0  0  0  0  0  0  0  0  0
   -7.4511   -9.3266   21.8771 C   0  0  0  0  0  0  0  0  0  0  0  0
   -9.1267  -10.5130   23.2614 C   0  0  0  0  0  0  0  0  0  0  0  0
   -7.8876  -10.5213   22.4790 N   0  0  0  0  0  0  0  0  0  0  0  0
   -7.4614   -7.7757   23.8610 C   0  0  0  0  0  0  0  0  0  0  0  0
   -6.2070   -7.0763   23.9016 N   0  0  0  0  0  0  0  0  0  0  0  0
   -5.3655   -4.5284   27.1384 C   0  0  0  0  0  0  0  0  0  0  0  0
   -6.5181   -4.3273   26.3914 C   0  0  0  0  0  0  0  0  0  0  0  0
   -6.7996   -5.1737   25.3259 C   0  0  0  0  0  0  0  0  0  0  0  0
   -5.9246   -6.2086   25.0016 C   0  0  0  0  0  0  0  0  0  0  0  0
   -4.7712   -6.3985   25.7426 C   0  0  0  0  0  0  0  0  0  0  0  0
   -4.4950   -5.5591   26.8152 C   0  0  0  0  0  0  0  0  0  0  0  0
  1  2  1  0  0  0  0
  2  3  2  0  0  0  0
  2 20  1  0  0  0  0
  4  6  1  0  0  0  0
  5  6  2  0  0  0  0
  5 16  1  0  0  0  0
  6  7  1  0  0  0  0
  7  8  1  0  0  0  0
  8  9  1  0  0  0  0
  8 10  2  0  0  0  0
  9 12  1  0  0  0  0
  9 16  2  0  0  0  0
 11 13  1  0  0  0  0
 11 12  1  0  0  0  0
 12 14  1  0  0  0  0
 14 15  1  0  0  0  0
 14 18  1  1  0  0  0
 15 17  1  0  0  0  0
 16 17  1  0  0  0  0
 18 19  1  0  0  0  0
 19 23  1  0  0  0  0
 20 21  2  0  0  0  0
 20 25  1  0  0  0  0
 21 22  1  0  0  0  0
 22 23  2  0  0  0  0
 23 24  1  0  0  0  0
 24 25  2  0  0  0  0
M  END
>  <CHROM.1>
159.47294164,-154.39847896,147.61988344,-55.31844352,-83.95394584,-8.07793808
-7.63726639,24.61775376,0.14863302,0.94178732,1.96150745

>  <Name>
ligand

>  <RI>
0

>  <Rbt.Current_Directory>
/home/itssahil/PROJECTS/Mol_Feturizer/New_Systems/rnas/4LVV

>  <Rbt.Executable>
rbdock ($Id: //depot/dev/client3/rdock/2013.1/src/exe/rbdock.cxx#4 $)

>  <Rbt.Library>
libRbt.so (2013.1, Build901 2013/11/27)

>  <Rbt.Parameter_File>
/export/apps/rDock/src/rDock_2013.1_src/data/scripts/dock_solv.prm

>  <Rbt.Receptor>
prm/blind_docking_60.prm

>  <SCORE>
-11.9979

>  <SCORE.INTER>
-11.9723

>  <SCORE.INTER.CONST>
1

>  <SCORE.INTER.POLAR>
0

>  <SCORE.INTER.ROT>
5

>  <SCORE.INTER.SOLV>
11.7718

>  <SCORE.INTER.VDW>
-18.8388

>  <SCORE.INTER.norm>
-0.478893

>  <SCORE.INTRA>
-0.0255992

>  <SCORE.INTRA.DIHEDRAL>
1.84525

>  <SCORE.INTRA.DIHEDRAL.0>
3.94806

>  <SCORE.INTRA.POLAR>
0

>  <SCORE.INTRA.POLAR.0>
0

>  <SCORE.INTRA.REPUL>
0

>  <SCORE.INTRA.REPUL.0>
0

>  <SCORE.INTRA.SOLV>
-0.569861

>  <SCORE.INTRA.SOLV.lig_0>
-70.9803

>  <SCORE.INTRA.VDW>
-0.663292

>  <SCORE.INTRA.VDW.0>
-0.709409

>  <SCORE.INTRA.norm>
-0.00102397

>  <SCORE.RESTR>
0

>  <SCORE.RESTR.CAVITY>
0

>  <SCORE.RESTR.norm>
0

>  <SCORE.SYSTEM>
0

>  <SCORE.SYSTEM.CONST>
0

>  <SCORE.SYSTEM.DIHEDRAL>
0

>  <SCORE.SYSTEM.SOLV>
0

>  <SCORE.SYSTEM.norm>
0

>  <SCORE.heavy>
25

>  <SCORE.norm>
-0.479917

>  <RMSD>
19.557

$$$$
ligand
 OpenBabel11021811503D
libRbt.so/2013.1/901 2013/11/27
 25 27  0  0  0  0  0  0  0  0999 V2000
   -3.8434   -6.7680   30.8825 N   0  0  0  0  0  0  0  0  0  0  0  0
   -5.1185   -6.4324   30.3285 C   0  0  0  0  0  0  0  0  0  0  0  0
   -6.0804   -6.2180   31.0558 O   0  0  0  0  0  0  0  0  0  0  0  0
   -7.9678  -11.1688   20.0182 N   0  0  0  0  0  0  0  0  0  0  0  0
   -7.1299   -8.9833   20.5537 N   0  0  0  0  0  0  0  0  0  0  0  0
   -8.1330   -9.8885   20.6262 C   0  0  0  0  0  0  0  0  0  0  0  0
   -9.3059   -9.5938   21.2632 N   0  0  0  0  0  0  0  0  0  0  0  0
   -9.5223   -8.3911   21.8541 C   0  0  0  0  0  0  0  0  0  0  0  0
   -8.4916   -7.4218   21.8125 C   0  0  0  0  0  0  0  0  0  0  0  0
  -10.7188   -8.1578   22.4904 O   0  0  0  0  0  0  0  0  0  0  0  0
   -9.7943   -5.2947   22.3388 C   0  0  0  0  0  0  0  0  0  0  0  0
   -8.5879   -6.0858   22.3778 N   0  0  0  0  0  0  0  0  0  0  0  0
  -10.6494   -5.4173   21.4684 O   0  0  0  0  0  0  0  0  0  0  0  0
   -7.3866   -5.5653   22.8754 C   0  0  2  0  0  0  0  0  0  0  0  0
   -6.3217   -5.5501   21.7487 C   0  0  0  0  0  0  0  0  0  0  0  0
   -7.2801   -7.7461   21.1241 C   0  0  0  0  0  0  0  0  0  0  0  0
   -6.1882   -6.7707   21.0613 N   0  0  0  0  0  0  0  0  0  0  0  0
   -6.8955   -6.3768   24.0572 C   0  0  0  0  0  0  0  0  0  0  0  0
   -5.6747   -5.9496   24.6828 N   0  0  0  0  0  0  0  0  0  0  0  0
   -5.2525   -6.3309   28.8485 C   0  0  0  0  0  0  0  0  0  0  0  0
   -5.0687   -7.4426   28.0378 C   0  0  0  0  0  0  0  0  0  0  0  0
   -5.2016   -7.3150   26.6605 C   0  0  0  0  0  0  0  0  0  0  0  0
   -5.5297   -6.0829   26.0984 C   0  0  0  0  0  0  0  0  0  0  0  0
   -5.7225   -4.9797   26.9115 C   0  0  0  0  0  0  0  0  0  0  0  0
   -5.5788   -5.1044   28.2881 C   0  0  0  0  0  0  0  0  0  0  0  0
  1  2  1  0  0  0  0
  2  3  2  0  0  0  0
  2 20  1  0  0  0  0
  4  6  1  0  0  0  0
  5  6  2  0  0  0  0
  5 16  1  0  0  0  0
  6  7  1  0  0  0  0
  7  8  1  0  0  0  0
  8  9  1  0  0  0  0
  8 10  2  0  0  0  0
  9 12  1  0  0  0  0
  9 16  2  0  0  0  0
 11 13  1  0  0  0  0
 11 12  1  0  0  0  0
 12 14  1  0  0  0  0
 14 15  1  0  0  0  0
 14 18  1  1  0  0  0
 15 17  1  0  0  0  0
 16 17  1  0  0  0  0
 18 19  1  0  0  0  0
 19 23  1  0  0  0  0
 20 21  2  0  0  0  0
 20 25  1  0  0  0  0
 21 22  1  0  0  0  0
 22 23  2  0  0  0  0
 23 24  1  0  0  0  0
 24 25  2  0  0  0  0
M  END
>  <CHROM.1>
-27.29124436,-179.36753983,144.52947731,79.66201037,64.23487609,-7.17678082
-6.99749204,24.23547780,-0.82711862,0.95808512,-2.43436376

>  <Name>
ligand

>  <RI>
0

>  <Rbt.Current_Directory>
/home/itssahil/PROJECTS/Mol_Feturizer/New_Systems/rnas/4LVV

>  <Rbt.Executable>
rbdock ($Id: //depot/dev/client3/rdock/2013.1/src/exe/rbdock.cxx#4 $)

>  <Rbt.Library>
libRbt.so (2013.1, Build901 2013/11/27)

>  <Rbt.Parameter_File>
/export/apps/rDock/src/rDock_2013.1_src/data/scripts/dock_solv.prm

>  <Rbt.Receptor>
prm/blind_docking_80.prm

>  <SCORE>
-11.981

>  <SCORE.INTER>
-11.1051

>  <SCORE.INTER.CONST>
1

>  <SCORE.INTER.POLAR>
0

>  <SCORE.INTER.ROT>
5

>  <SCORE.INTER.SOLV>
11.7028

>  <SCORE.INTER.VDW>
-18.2377

>  <SCORE.INTER.norm>
-0.444205

>  <SCORE.INTRA>
-0.875873

>  <SCORE.INTRA.DIHEDRAL>
0.249283

>  <SCORE.INTRA.DIHEDRAL.0>
3.94806

>  <SCORE.INTRA.POLAR>
0

>  <SCORE.INTRA.POLAR.0>
0

>  <SCORE.INTRA.REPUL>
0

>  <SCORE.INTRA.REPUL.0>
0

>  <SCORE.INTRA.SOLV>
-0.0456872

>  <SCORE.INTRA.SOLV.lig_0>
-70.9803

>  <SCORE.INTRA.VDW>
-0.977671

>  <SCORE.INTRA.VDW.0>
-0.709409

>  <SCORE.INTRA.norm>
-0.0350349

>  <SCORE.RESTR>
0

>  <SCORE.RESTR.CAVITY>
0

>  <SCORE.RESTR.norm>
0

>  <SCORE.SYSTEM>
0

>  <SCORE.SYSTEM.CONST>
0

>  <SCORE.SYSTEM.DIHEDRAL>
0

>  <SCORE.SYSTEM.SOLV>
0

>  <SCORE.SYSTEM.norm>
0

>  <SCORE.heavy>
25

>  <SCORE.norm>
-0.47924

>  <RMSD>
19.561

$$$$
ligand
 OpenBabel11021811503D
libRbt.so/2013.1/901 2013/11/27
 25 27  0  0  0  0  0  0  0  0999 V2000
   -4.2487   -4.9226   29.6024 N   0  0  0  0  0  0  0  0  0  0  0  0
   -3.9629   -4.4862   28.2708 C   0  0  0  0  0  0  0  0  0  0  0  0
   -3.0244   -3.7317   28.0470 O   0  0  0  0  0  0  0  0  0  0  0  0
  -12.1672  -11.3689   25.7245 N   0  0  0  0  0  0  0  0  0  0  0  0
  -10.3074  -10.9003   24.2799 N   0  0  0  0  0  0  0  0  0  0  0  0
  -11.4466  -10.4773   24.8748 C   0  0  0  0  0  0  0  0  0  0  0  0
  -11.9247   -9.2135   24.6676 N   0  0  0  0  0  0  0  0  0  0  0  0
  -11.2857   -8.3242   23.8656 C   0  0  0  0  0  0  0  0  0  0  0  0
  -10.0825   -8.7238   23.2362 C   0  0  0  0  0  0  0  0  0  0  0  0
  -11.8094   -7.0628   23.7057 O   0  0  0  0  0  0  0  0  0  0  0  0
   -9.8989   -6.9886   21.3778 C   0  0  0  0  0  0  0  0  0  0  0  0
   -9.3040   -7.8914   22.3336 N   0  0  0  0  0  0  0  0  0  0  0  0
   -9.3108   -6.0161   20.9170 O   0  0  0  0  0  0  0  0  0  0  0  0
   -7.9202   -8.1036   22.3776 C   0  0  2  0  0  0  0  0  0  0  0  0
   -7.6134   -9.5912   22.0669 C   0  0  0  0  0  0  0  0  0  0  0  0
   -9.6117  -10.0573   23.4530 C   0  0  0  0  0  0  0  0  0  0  0  0
   -8.3685  -10.5082   22.8215 N   0  0  0  0  0  0  0  0  0  0  0  0
   -7.3581   -7.7185   23.7311 C   0  0  0  0  0  0  0  0  0  0  0  0
   -7.3121   -6.3176   24.0465 N   0  0  0  0  0  0  0  0  0  0  0  0
   -4.8181   -4.9801   27.1558 C   0  0  0  0  0  0  0  0  0  0  0  0
   -4.4112   -6.0436   26.3620 C   0  0  0  0  0  0  0  0  0  0  0  0
   -5.2324   -6.4812   25.3301 C   0  0  0  0  0  0  0  0  0  0  0  0
   -6.4614   -5.8652   25.1021 C   0  0  0  0  0  0  0  0  0  0  0  0
   -6.8677   -4.8121   25.9029 C   0  0  0  0  0  0  0  0  0  0  0  0
   -6.0417   -4.3670   26.9280 C   0  0  0  0  0  0  0  0  0  0  0  0
  1  2  1  0  0  0  0
  2  3  2  0  0  0  0
  2 20  1  0  0  0  0
  4  6  1  0  0  0  0
  5  6  2  0  0  0  0
  5 16  1  0  0  0  0
  6  7  1  0  0  0  0
  7  8  1  0  0  0  0
  8  9  1  0  0  0  0
  8 10  2  0  0  0  0
  9 12  1  0  0  0  0
  9 16  2  0  0  0  0
 11 13  1  0  0  0  0
 11 12  1  0  0  0  0
 12 14  1  0  0  0  0
 14 15  1  0  0  0  0
 14 18  1  1  0  0  0
 15 17  1  0  0  0  0
 16 17  1  0  0  0  0
 18 19  1  0  0  0  0
 19 23  1  0  0  0  0
 20 21  2  0  0  0  0
 20 25  1  0  0  0  0
 21 22  1  0  0  0  0
 22 23  2  0  0  0  0
 23 24  1  0  0  0  0
 24 25  2  0  0  0  0
M  END
>  <CHROM.1>
156.94417404,-70.95319999,-161.92109387,35.17713502,-98.41112113,-8.08092792
-7.40446113,24.58986382,0.32178115,0.72955281,1.83474597

>  <Name>
ligand

>  <RI>
0

>  <Rbt.Current_Directory>
/home/itssahil/PROJECTS/Mol_Feturizer/New_Systems/rnas/4LVV

>  <Rbt.Executable>
rbdock ($Id: //depot/dev/client3/rdock/2013.1/src/exe/rbdock.cxx#4 $)

>  <Rbt.Library>
libRbt.so (2013.1, Build901 2013/11/27)

>  <Rbt.Parameter_File>
/export/apps/rDock/src/rDock_2013.1_src/data/scripts/dock_solv.prm

>  <Rbt.Receptor>
prm/blind_docking_100.prm

>  <SCORE>
-12.5716

>  <SCORE.INTER>
-11.9629

>  <SCORE.INTER.CONST>
1

>  <SCORE.INTER.POLAR>
0

>  <SCORE.INTER.ROT>
5

>  <SCORE.INTER.SOLV>
11.8043

>  <SCORE.INTER.VDW>
-18.8434

>  <SCORE.INTER.norm>
-0.478517

>  <SCORE.INTRA>
-0.608666

>  <SCORE.INTRA.DIHEDRAL>
-0.207182

>  <SCORE.INTRA.DIHEDRAL.0>
3.94806

>  <SCORE.INTRA.POLAR>
0

>  <SCORE.INTRA.POLAR.0>
0

>  <SCORE.INTRA.REPUL>
0

>  <SCORE.INTRA.REPUL.0>
0

>  <SCORE.INTRA.SOLV>
0.105583

>  <SCORE.INTRA.SOLV.lig_0>
-70.9803

>  <SCORE.INTRA.VDW>
-0.557867

>  <SCORE.INTRA.VDW.0>
-0.709409

>  <SCORE.INTRA.norm>
-0.0243466

>  <SCORE.RESTR>
0

>  <SCORE.RESTR.CAVITY>
0

>  <SCORE.RESTR.norm>
0

>  <SCORE.SYSTEM>
0

>  <SCORE.SYSTEM.CONST>
0

>  <SCORE.SYSTEM.DIHEDRAL>
0

>  <SCORE.SYSTEM.SOLV>
0

>  <SCORE.SYSTEM.norm>
0

>  <SCORE.heavy>
25

>  <SCORE.norm>
-0.502864

>  <RMSD>
19.602

$$$$
ligand
 OpenBabel11021811503D
libRbt.so/2013.1/901 2013/11/27
 25 27  0  0  0  0  0  0  0  0999 V2000
   -1.7165   -5.7113   26.8450 N   0  0  0  0  0  0  0  0  0  0  0  0
   -2.9549   -5.6528   27.5579 C   0  0  0  0  0  0  0  0  0  0  0  0
   -2.9716   -5.6148   28.7820 O   0  0  0  0  0  0  0  0  0  0  0  0
   -6.4473   -8.4087   17.8969 N   0  0  0  0  0  0  0  0  0  0  0  0
   -7.7061   -7.0919   19.4611 N   0  0  0  0  0  0  0  0  0  0  0  0
   -7.2738   -8.3083   19.0558 C   0  0  0  0  0  0  0  0  0  0  0  0
   -7.6237   -9.4437   19.7316 N   0  0  0  0  0  0  0  0  0  0  0  0
   -8.4118   -9.4105   20.8363 C   0  0  0  0  0  0  0  0  0  0  0  0
   -8.8730   -8.1554   21.3008 C   0  0  0  0  0  0  0  0  0  0  0  0
   -8.7198  -10.5857   21.4806 O   0  0  0  0  0  0  0  0  0  0  0  0
  -10.8200   -8.8648   22.7855 C   0  0  0  0  0  0  0  0  0  0  0  0
   -9.7411   -7.9663   22.4515 N   0  0  0  0  0  0  0  0  0  0  0  0
  -11.0088   -9.2950   23.9182 O   0  0  0  0  0  0  0  0  0  0  0  0
   -9.5282   -6.7803   23.1654 C   0  0  2  0  0  0  0  0  0  0  0  0
   -9.6944   -5.5662   22.2156 C   0  0  0  0  0  0  0  0  0  0  0  0
   -8.5093   -6.9828   20.5663 C   0  0  0  0  0  0  0  0  0  0  0  0
   -8.9642   -5.6646   21.0167 N   0  0  0  0  0  0  0  0  0  0  0  0
   -8.1520   -6.7719   23.7996 C   0  0  0  0  0  0  0  0  0  0  0  0
   -7.7711   -5.5899   24.5220 N   0  0  0  0  0  0  0  0  0  0  0  0
   -4.2268   -5.6212   26.7833 C   0  0  0  0  0  0  0  0  0  0  0  0
   -5.2486   -4.7461   27.1253 C   0  0  0  0  0  0  0  0  0  0  0  0
   -6.4227   -4.7406   26.3821 C   0  0  0  0  0  0  0  0  0  0  0  0
   -6.5680   -5.5982   25.2934 C   0  0  0  0  0  0  0  0  0  0  0  0
   -5.5423   -6.4614   24.9496 C   0  0  0  0  0  0  0  0  0  0  0  0
   -4.3723   -6.4750   25.6995 C   0  0  0  0  0  0  0  0  0  0  0  0
  1  2  1  0  0  0  0
  2  3  2  0  0  0  0
  2 20  1  0  0  0  0
  4  6  1  0  0  0  0
  5  6  2  0  0  0  0
  5 16  1  0  0  0  0
  6  7  1  0  0  0  0
  7  8  1  0  0  0  0
  8  9  1  0  0  0  0
  8 10  2  0  0  0  0
  9 12  1  0  0  0  0
  9 16  2  0  0  0  0
 11 13  1  0  0  0  0
 11 12  1  0  0  0  0
 12 14  1  0  0  0  0
 14 15  1  0  0  0  0
 14 18  1  6  0  0  0
 15 17  1  0  0  0  0
 16 17  1  0  0  0  0
 18 19  1  0  0  0  0
 19 23  1  0  0  0  0
 20 21  2  0  0  0  0
 20 25  1  0  0  0  0
 21 22  1  0  0  0  0
 22 23  2  0  0  0  0
 23 24  1  0  0  0  0
 24 25  2  0  0  0  0
M  END
>  <CHROM.1>
133.00089204,177.56028625,171.32823294,-154.54727714,-135.76891101,-7.23400612
-7.07790573,23.31768426,-0.95731445,-0.13774015,-1.89338898

>  <Name>
ligand

>  <RI>
0

>  <Rbt.Current_Directory>
/home/itssahil/PROJECTS/Mol_Feturizer/New_Systems/rnas/4LVV

>  <Rbt.Executable>
rbdock ($Id: //depot/dev/client3/rdock/2013.1/src/exe/rbdock.cxx#4 $)

>  <Rbt.Library>
libRbt.so (2013.1, Build901 2013/11/27)

>  <Rbt.Parameter_File>
/export/apps/rDock/src/rDock_2013.1_src/data/scripts/dock_solv.prm

>  <Rbt.Receptor>
prm/blind_docking_100.prm

>  <SCORE>
-12.2708

>  <SCORE.INTER>
-11.9528

>  <SCORE.INTER.CONST>
1

>  <SCORE.INTER.POLAR>
0

>  <SCORE.INTER.ROT>
5

>  <SCORE.INTER.SOLV>
13.8215

>  <SCORE.INTER.VDW>
-19.509

>  <SCORE.INTER.norm>
-0.478113

>  <SCORE.INTRA>
-0.32109

>  <SCORE.INTRA.DIHEDRAL>
-0.675446

>  <SCORE.INTRA.DIHEDRAL.0>
3.94806

>  <SCORE.INTRA.POLAR>
0

>  <SCORE.INTRA.POLAR.0>
0

>  <SCORE.INTRA.REPUL>
0

>  <SCORE.INTRA.REPUL.0>
0

>  <SCORE.INTRA.SOLV>
-0.095087

>  <SCORE.INTRA.SOLV.lig_0>
-70.9803

>  <SCORE.INTRA.VDW>
0.064176

>  <SCORE.INTRA.VDW.0>
-0.709409

>  <SCORE.INTRA.norm>
-0.0128436

>  <SCORE.RESTR>
0.00308035

>  <SCORE.RESTR.CAVITY>
0.00308035

>  <SCORE.RESTR.norm>
0.000123214

>  <SCORE.SYSTEM>
0

>  <SCORE.SYSTEM.CONST>
0

>  <SCORE.SYSTEM.DIHEDRAL>
0

>  <SCORE.SYSTEM.SOLV>
0

>  <SCORE.SYSTEM.norm>
0

>  <SCORE.heavy>
25

>  <SCORE.norm>
-0.490834

>  <RMSD>
19.622

$$$$
ligand
 OpenBabel11021811503D
libRbt.so/2013.1/901 2013/11/27
 25 27  0  0  0  0  0  0  0  0999 V2000
   -4.9410   -3.4474   29.4291 N   0  0  0  0  0  0  0  0  0  0  0  0
   -5.6519   -4.6586   29.1588 C   0  0  0  0  0  0  0  0  0  0  0  0
   -6.0902   -5.3449   30.0736 O   0  0  0  0  0  0  0  0  0  0  0  0
  -11.5964  -11.1019   24.9271 N   0  0  0  0  0  0  0  0  0  0  0  0
   -9.6219  -10.6542   23.6363 N   0  0  0  0  0  0  0  0  0  0  0  0
  -10.7925  -10.2133   24.1523 C   0  0  0  0  0  0  0  0  0  0  0  0
  -11.2230   -8.9343   23.9354 N   0  0  0  0  0  0  0  0  0  0  0  0
  -10.5040   -8.0468   23.2019 C   0  0  0  0  0  0  0  0  0  0  0  0
   -9.2666   -8.4653   22.6568 C   0  0  0  0  0  0  0  0  0  0  0  0
  -10.9838   -6.7698   23.0286 O   0  0  0  0  0  0  0  0  0  0  0  0
   -8.9013   -6.7014   20.8530 C   0  0  0  0  0  0  0  0  0  0  0  0
   -8.4022   -7.6365   21.8324 N   0  0  0  0  0  0  0  0  0  0  0  0
   -8.6688   -6.7985   19.6529 O   0  0  0  0  0  0  0  0  0  0  0  0
   -7.0313   -7.8845   21.9761 C   0  0  2  0  0  0  0  0  0  0  0  0
   -6.7376   -9.3735   21.6593 C   0  0  0  0  0  0  0  0  0  0  0  0
   -8.8456   -9.8141   22.8813 C   0  0  0  0  0  0  0  0  0  0  0  0
   -7.5693  -10.2847   22.3362 N   0  0  0  0  0  0  0  0  0  0  0  0
   -6.5642   -7.5388   23.3756 C   0  0  0  0  0  0  0  0  0  0  0  0
   -6.5571   -6.1488   23.7388 N   0  0  0  0  0  0  0  0  0  0  0  0
   -5.8654   -5.0631   27.7412 C   0  0  0  0  0  0  0  0  0  0  0  0
   -5.1171   -6.0833   27.1702 C   0  0  0  0  0  0  0  0  0  0  0  0
   -5.3411   -6.4375   25.8453 C   0  0  0  0  0  0  0  0  0  0  0  0
   -6.3187   -5.7820   25.0994 C   0  0  0  0  0  0  0  0  0  0  0  0
   -7.0696   -4.7726   25.6762 C   0  0  0  0  0  0  0  0  0  0  0  0
   -6.8383   -4.4106   26.9978 C   0  0  0  0  0  0  0  0  0  0  0  0
  1  2  1  0  0  0  0
  2  3  2  0  0  0  0
  2 20  1  0  0  0  0
  4  6  1  0  0  0  0
  5  6  2  0  0  0  0
  5 16  1  0  0  0  0
  6  7  1  0  0  0  0
  7  8  1  0  0  0  0
  8  9  1  0  0  0  0
  8 10  2  0  0  0  0
  9 12  1  0  0  0  0
  9 16  2  0  0  0  0
 11 13  1  0  0  0  0
 11 12  1  0  0  0  0
 12 14  1  0  0  0  0
 14 15  1  0  0  0  0
 14 18  1  1  0  0  0
 15 17  1  0  0  0  0
 16 17  1  0  0  0  0
 18 19  1  0  0  0  0
 19 23  1  0  0  0  0
 20 21  2  0  0  0  0
 20 25  1  0  0  0  0
 21 22  1  0  0  0  0
 22 23  2  0  0  0  0
 23 24  1  0  0  0  0
 24 25  2  0  0  0  0
M  END
>  <CHROM.1>
-117.41998796,-68.64984554,170.76263889,41.39757165,104.24859884,-7.90430209
-7.31413845,24.37466045,0.87629573,0.75674285,1.47859756

>  <Name>
ligand

>  <RI>
0

>  <Rbt.Current_Directory>
/home/itssahil/PROJECTS/Mol_Feturizer/New_Systems/rnas/4LVV

>  <Rbt.Executable>
rbdock ($Id: //depot/dev/client3/rdock/2013.1/src/exe/rbdock.cxx#4 $)

>  <Rbt.Library>
libRbt.so (2013.1, Build901 2013/11/27)

>  <Rbt.Parameter_File>
/export/apps/rDock/src/rDock_2013.1_src/data/scripts/dock_solv.prm

>  <Rbt.Receptor>
prm/blind_docking_60.prm

>  <SCORE>
-11.7674

>  <SCORE.INTER>
-10.6976

>  <SCORE.INTER.CONST>
1

>  <SCORE.INTER.POLAR>
0

>  <SCORE.INTER.ROT>
5

>  <SCORE.INTER.SOLV>
11.7827

>  <SCORE.INTER.VDW>
-17.9926

>  <SCORE.INTER.norm>
-0.427903

>  <SCORE.INTRA>
-1.06983

>  <SCORE.INTRA.DIHEDRAL>
-0.335935

>  <SCORE.INTRA.DIHEDRAL.0>
3.94806

>  <SCORE.INTRA.POLAR>
0

>  <SCORE.INTRA.POLAR.0>
0

>  <SCORE.INTRA.REPUL>
0

>  <SCORE.INTRA.REPUL.0>
0

>  <SCORE.INTRA.SOLV>
-0.272588

>  <SCORE.INTRA.SOLV.lig_0>
-70.9803

>  <SCORE.INTRA.VDW>
-0.765564

>  <SCORE.INTRA.VDW.0>
-0.709409

>  <SCORE.INTRA.norm>
-0.042793

>  <SCORE.RESTR>
0

>  <SCORE.RESTR.CAVITY>
0

>  <SCORE.RESTR.norm>
0

>  <SCORE.SYSTEM>
0

>  <SCORE.SYSTEM.CONST>
0

>  <SCORE.SYSTEM.DIHEDRAL>
0

>  <SCORE.SYSTEM.SOLV>
0

>  <SCORE.SYSTEM.norm>
0

>  <SCORE.heavy>
25

>  <SCORE.norm>
-0.470696

>  <RMSD>
19.695

$$$$
ligand
 OpenBabel11021811503D
libRbt.so/2013.1/901 2013/11/27
 25 27  0  0  0  0  0  0  0  0999 V2000
   -8.2172   -8.5382   20.3511 N   0  0  0  0  0  0  0  0  0  0  0  0
   -6.8920   -8.5376   20.8889 C   0  0  0  0  0  0  0  0  0  0  0  0
   -5.9633   -9.0374   20.2663 O   0  0  0  0  0  0  0  0  0  0  0  0
   -6.3398   -1.6815   31.0350 N   0  0  0  0  0  0  0  0  0  0  0  0
   -4.7880   -3.1160   29.8950 N   0  0  0  0  0  0  0  0  0  0  0  0
   -6.0227   -2.9272   30.4156 C   0  0  0  0  0  0  0  0  0  0  0  0
   -6.9680   -3.9133   30.3673 N   0  0  0  0  0  0  0  0  0  0  0  0
   -6.7218   -5.1200   29.7966 C   0  0  0  0  0  0  0  0  0  0  0  0
   -5.4465   -5.3517   29.2278 C   0  0  0  0  0  0  0  0  0  0  0  0
   -7.7173   -6.0682   29.7678 O   0  0  0  0  0  0  0  0  0  0  0  0
   -5.4186   -7.8976   29.1017 C   0  0  0  0  0  0  0  0  0  0  0  0
   -5.0310   -6.5986   28.6065 N   0  0  0  0  0  0  0  0  0  0  0  0
   -5.2351   -8.2564   30.2598 O   0  0  0  0  0  0  0  0  0  0  0  0
   -4.1292   -6.4591   27.5438 C   0  0  2  0  0  0  0  0  0  0  0  0
   -2.8658   -5.7044   28.0314 C   0  0  0  0  0  0  0  0  0  0  0  0
   -4.4672   -4.3117   29.3070 C   0  0  0  0  0  0  0  0  0  0  0  0
   -3.1361   -4.5117   28.7275 N   0  0  0  0  0  0  0  0  0  0  0  0
   -4.7710   -5.7237   26.3847 C   0  0  0  0  0  0  0  0  0  0  0  0
   -6.0876   -6.1433   25.9915 N   0  0  0  0  0  0  0  0  0  0  0  0
   -6.6573   -7.9015   22.2152 C   0  0  0  0  0  0  0  0  0  0  0  0
   -5.6403   -6.9733   22.3911 C   0  0  0  0  0  0  0  0  0  0  0  0
   -5.4478   -6.3973   23.6409 C   0  0  0  0  0  0  0  0  0  0  0  0
   -6.2779   -6.7394   24.7066 C   0  0  0  0  0  0  0  0  0  0  0  0
   -7.2973   -7.6574   24.5238 C   0  0  0  0  0  0  0  0  0  0  0  0
   -7.4832   -8.2419   23.2768 C   0  0  0  0  0  0  0  0  0  0  0  0
  1  2  1  0  0  0  0
  2  3  2  0  0  0  0
  2 20  1  0  0  0  0
  4  6  1  0  0  0  0
  5  6  2  0  0  0  0
  5 16  1  0  0  0  0
  6  7  1  0  0  0  0
  7  8  1  0  0  0  0
  8  9  1  0  0  0  0
  8 10  2  0  0  0  0
  9 12  1  0  0  0  0
  9 16  2  0  0  0  0
 11 13  1  0  0  0  0
 11 12  1  0  0  0  0
 12 14  1  0  0  0  0
 14 15  1  0  0  0  0
 14 18  1  6  0  0  0
 15 17  1  0  0  0  0
 16 17  1  0  0  0  0
 18 19  1  0  0  0  0
 19 23  1  0  0  0  0
 20 21  2  0  0  0  0
 20 25  1  0  0  0  0
 21 22  1  0  0  0  0
 22 23  2  0  0  0  0
 23 24  1  0  0  0  0
 24 25  2  0  0  0  0
M  END
>  <CHROM.1>
-54.12189965,-46.39177988,-114.22682915,-29.25772075,-129.62317239,-5.78740929
-6.16594177,26.74577344,1.74932570,0.71224095,-2.11249118

>  <Name>
ligand

>  <RI>
0

>  <Rbt.Current_Directory>
/home/itssahil/PROJECTS/Mol_Feturizer/New_Systems/rnas/4LVV

>  <Rbt.Executable>
rbdock ($Id: //depot/dev/client3/rdock/2013.1/src/exe/rbdock.cxx#4 $)

>  <Rbt.Library>
libRbt.so (2013.1, Build901 2013/11/27)

>  <Rbt.Parameter_File>
/export/apps/rDock/src/rDock_2013.1_src/data/scripts/dock_solv.prm

>  <Rbt.Receptor>
prm/blind_docking_60.prm

>  <SCORE>
-9.34946

>  <SCORE.INTER>
-9.33184

>  <SCORE.INTER.CONST>
1

>  <SCORE.INTER.POLAR>
0

>  <SCORE.INTER.ROT>
5

>  <SCORE.INTER.SOLV>
9.91663

>  <SCORE.INTER.VDW>
-16.4601

>  <SCORE.INTER.norm>
-0.373274

>  <SCORE.INTRA>
-0.0176199

>  <SCORE.INTRA.DIHEDRAL>
1.17021

>  <SCORE.INTRA.DIHEDRAL.0>
3.94806

>  <SCORE.INTRA.POLAR>
0

>  <SCORE.INTRA.POLAR.0>
0

>  <SCORE.INTRA.REPUL>
0

>  <SCORE.INTRA.REPUL.0>
0

>  <SCORE.INTRA.SOLV>
0.336348

>  <SCORE.INTRA.SOLV.lig_0>
-70.9803

>  <SCORE.INTRA.VDW>
-0.7709

>  <SCORE.INTRA.VDW.0>
-0.709409

>  <SCORE.INTRA.norm>
-0.000704795

>  <SCORE.RESTR>
0

>  <SCORE.RESTR.CAVITY>
0

>  <SCORE.RESTR.norm>
0

>  <SCORE.SYSTEM>
0

>  <SCORE.SYSTEM.CONST>
0

>  <SCORE.SYSTEM.DIHEDRAL>
0

>  <SCORE.SYSTEM.SOLV>
0

>  <SCORE.SYSTEM.norm>
0

>  <SCORE.heavy>
25

>  <SCORE.norm>
-0.373979

>  <RMSD>
19.699

$$$$
ligand
 OpenBabel11021811503D
libRbt.so/2013.1/901 2013/11/27
 25 27  0  0  0  0  0  0  0  0999 V2000
   -4.5178   -6.2656   31.3342 N   0  0  0  0  0  0  0  0  0  0  0  0
   -5.6930   -6.0449   30.5496 C   0  0  0  0  0  0  0  0  0  0  0  0
   -6.7428   -5.6995   31.0777 O   0  0  0  0  0  0  0  0  0  0  0  0
   -5.7804   -8.0760   17.9318 N   0  0  0  0  0  0  0  0  0  0  0  0
   -5.9227   -6.6882   19.8860 N   0  0  0  0  0  0  0  0  0  0  0  0
   -6.4261   -7.7053   19.1491 C   0  0  0  0  0  0  0  0  0  0  0  0
   -7.5485   -8.3771   19.5456 N   0  0  0  0  0  0  0  0  0  0  0  0
   -8.2081   -8.0650   20.6902 C   0  0  0  0  0  0  0  0  0  0  0  0
   -7.7048   -7.0162   21.4965 C   0  0  0  0  0  0  0  0  0  0  0  0
   -9.3253   -8.7852   21.0425 O   0  0  0  0  0  0  0  0  0  0  0  0
   -9.7441   -6.4718   22.9259 C   0  0  0  0  0  0  0  0  0  0  0  0
   -8.3164   -6.5551   22.7322 N   0  0  0  0  0  0  0  0  0  0  0  0
  -10.4368   -7.4355   23.2346 O   0  0  0  0  0  0  0  0  0  0  0  0
   -7.4177   -6.0883   23.6997 C   0  0  2  0  0  0  0  0  0  0  0  0
   -6.5702   -4.9336   23.1063 C   0  0  0  0  0  0  0  0  0  0  0  0
   -6.5397   -6.3152   21.0517 C   0  0  0  0  0  0  0  0  0  0  0  0
   -5.9860   -5.2253   21.8598 N   0  0  0  0  0  0  0  0  0  0  0  0
   -6.5200   -7.2078   24.1868 C   0  0  0  0  0  0  0  0  0  0  0  0
   -5.3440   -6.8315   24.9215 N   0  0  0  0  0  0  0  0  0  0  0  0
   -5.6135   -6.2261   29.0733 C   0  0  0  0  0  0  0  0  0  0  0  0
   -5.8319   -5.1604   28.2111 C   0  0  0  0  0  0  0  0  0  0  0  0
   -5.7496   -5.3621   26.8387 C   0  0  0  0  0  0  0  0  0  0  0  0
   -5.4371   -6.6221   26.3322 C   0  0  0  0  0  0  0  0  0  0  0  0
   -5.2096   -7.6792   27.1960 C   0  0  0  0  0  0  0  0  0  0  0  0
   -5.3028   -7.4804   28.5682 C   0  0  0  0  0  0  0  0  0  0  0  0
  1  2  1  0  0  0  0
  2  3  2  0  0  0  0
  2 20  1  0  0  0  0
  4  6  1  0  0  0  0
  5  6  2  0  0  0  0
  5 16  1  0  0  0  0
  6  7  1  0  0  0  0
  7  8  1  0  0  0  0
  8  9  1  0  0  0  0
  8 10  2  0  0  0  0
  9 12  1  0  0  0  0
  9 16  2  0  0  0  0
 11 13  1  0  0  0  0
 11 12  1  0  0  0  0
 12 14  1  0  0  0  0
 14 15  1  0  0  0  0
 14 18  1  6  0  0  0
 15 17  1  0  0  0  0
 16 17  1  0  0  0  0
 18 19  1  0  0  0  0
 19 23  1  0  0  0  0
 20 21  2  0  0  0  0
 20 25  1  0  0  0  0
 21 22  1  0  0  0  0
 22 23  2  0  0  0  0
 23 24  1  0  0  0  0
 24 25  2  0  0  0  0
M  END
>  <CHROM.1>
81.95917111,165.01054629,86.09937695,-89.34659602,-116.99564035,-6.78852438
-6.74709652,24.20918573,-1.37521061,-0.17274623,-1.67476004

>  <Name>
ligand

>  <RI>
0

>  <Rbt.Current_Directory>
/home/itssahil/PROJECTS/Mol_Feturizer/New_Systems/rnas/4LVV

>  <Rbt.Executable>
rbdock ($Id: //depot/dev/client3/rdock/2013.1/src/exe/rbdock.cxx#4 $)

>  <Rbt.Library>
libRbt.so (2013.1, Build901 2013/11/27)

>  <Rbt.Parameter_File>
/export/apps/rDock/src/rDock_2013.1_src/data/scripts/dock_solv.prm

>  <Rbt.Receptor>
prm/blind_docking_40.prm

>  <SCORE>
-9.1044

>  <SCORE.INTER>
-8.52528

>  <SCORE.INTER.CONST>
1

>  <SCORE.INTER.POLAR>
0

>  <SCORE.INTER.ROT>
5

>  <SCORE.INTER.SOLV>
17.6954

>  <SCORE.INTER.VDW>
-18.5153

>  <SCORE.INTER.norm>
-0.341011

>  <SCORE.INTRA>
-0.579122

>  <SCORE.INTRA.DIHEDRAL>
0.691618

>  <SCORE.INTRA.DIHEDRAL.0>
3.94806

>  <SCORE.INTRA.POLAR>
0

>  <SCORE.INTRA.POLAR.0>
0

>  <SCORE.INTRA.REPUL>
0

>  <SCORE.INTRA.REPUL.0>
0

>  <SCORE.INTRA.SOLV>
0.313241

>  <SCORE.INTRA.SOLV.lig_0>
-70.9803

>  <SCORE.INTRA.VDW>
-1.08155

>  <SCORE.INTRA.VDW.0>
-0.709409

>  <SCORE.INTRA.norm>
-0.0231649

>  <SCORE.RESTR>
0

>  <SCORE.RESTR.CAVITY>
0

>  <SCORE.RESTR.norm>
0

>  <SCORE.SYSTEM>
0

>  <SCORE.SYSTEM.CONST>
0

>  <SCORE.SYSTEM.DIHEDRAL>
0

>  <SCORE.SYSTEM.SOLV>
0

>  <SCORE.SYSTEM.norm>
0

>  <SCORE.heavy>
25

>  <SCORE.norm>
-0.364176

>  <RMSD>
19.712

$$$$
ligand
 OpenBabel11021811503D
libRbt.so/2013.1/901 2013/11/27
 25 27  0  0  0  0  0  0  0  0999 V2000
   -4.8302   -7.0131   28.9767 N   0  0  0  0  0  0  0  0  0  0  0  0
   -4.4175   -6.0497   28.0037 C   0  0  0  0  0  0  0  0  0  0  0  0
   -3.3973   -5.3921   28.1671 O   0  0  0  0  0  0  0  0  0  0  0  0
   -9.9773  -12.0281   23.1714 N   0  0  0  0  0  0  0  0  0  0  0  0
   -9.0517  -10.3320   21.7460 N   0  0  0  0  0  0  0  0  0  0  0  0
   -9.8795  -10.6642   22.7634 C   0  0  0  0  0  0  0  0  0  0  0  0
  -10.6315   -9.7170   23.4004 N   0  0  0  0  0  0  0  0  0  0  0  0
  -10.5846   -8.4060   23.0520 C   0  0  0  0  0  0  0  0  0  0  0  0
   -9.7199   -8.0157   22.0015 C   0  0  0  0  0  0  0  0  0  0  0  0
  -11.3561   -7.4977   23.7383 O   0  0  0  0  0  0  0  0  0  0  0  0
  -10.6922   -5.7421   21.3821 C   0  0  0  0  0  0  0  0  0  0  0  0
   -9.5825   -6.6567   21.5037 N   0  0  0  0  0  0  0  0  0  0  0  0
  -11.8644   -6.0985   21.4344 O   0  0  0  0  0  0  0  0  0  0  0  0
   -8.3034   -6.3216   21.0419 C   0  0  2  0  0  0  0  0  0  0  0  0
   -7.8833   -7.3046   19.9189 C   0  0  0  0  0  0  0  0  0  0  0  0
   -8.9568   -9.0272   21.3373 C   0  0  0  0  0  0  0  0  0  0  0  0
   -8.0478   -8.6631   20.2470 N   0  0  0  0  0  0  0  0  0  0  0  0
   -7.2966   -6.3496   22.1740 C   0  0  0  0  0  0  0  0  0  0  0  0
   -7.5095   -5.4362   23.2624 N   0  0  0  0  0  0  0  0  0  0  0  0
   -5.2430   -5.8717   26.7766 C   0  0  0  0  0  0  0  0  0  0  0  0
   -6.1754   -4.8474   26.6867 C   0  0  0  0  0  0  0  0  0  0  0  0
   -6.9293   -4.7077   25.5278 C   0  0  0  0  0  0  0  0  0  0  0  0
   -6.7414   -5.5816   24.4588 C   0  0  0  0  0  0  0  0  0  0  0  0
   -5.8029   -6.5948   24.5490 C   0  0  0  0  0  0  0  0  0  0  0  0
   -5.0566   -6.7416   25.7120 C   0  0  0  0  0  0  0  0  0  0  0  0
  1  2  1  0  0  0  0
  2  3  2  0  0  0  0
  2 20  1  0  0  0  0
  4  6  1  0  0  0  0
  5  6  2  0  0  0  0
  5 16  1  0  0  0  0
  6  7  1  0  0  0  0
  7  8  1  0  0  0  0
  8  9  1  0  0  0  0
  8 10  2  0  0  0  0
  9 12  1  0  0  0  0
  9 16  2  0  0  0  0
 11 13  1  0  0  0  0
 11 12  1  0  0  0  0
 12 14  1  0  0  0  0
 14 15  1  0  0  0  0
 14 18  1  1  0  0  0
 15 17  1  0  0  0  0
 16 17  1  0  0  0  0
 18 19  1  0  0  0  0
 19 23  1  0  0  0  0
 20 21  2  0  0  0  0
 20 25  1  0  0  0  0
 21 22  1  0  0  0  0
 22 23  2  0  0  0  0
 23 24  1  0  0  0  0
 24 25  2  0  0  0  0
M  END
>  <CHROM.1>
-14.72064906,-61.62396048,168.78453825,179.96708737,97.65435805,-8.06282745
-7.24753014,23.59826476,0.02371579,0.87063006,2.66874176

>  <Name>
ligand

>  <RI>
0

>  <Rbt.Current_Directory>
/home/itssahil/PROJECTS/Mol_Feturizer/New_Systems/rnas/4LVV

>  <Rbt.Executable>
rbdock ($Id: //depot/dev/client3/rdock/2013.1/src/exe/rbdock.cxx#4 $)

>  <Rbt.Library>
libRbt.so (2013.1, Build901 2013/11/27)

>  <Rbt.Parameter_File>
/export/apps/rDock/src/rDock_2013.1_src/data/scripts/dock_solv.prm

>  <Rbt.Receptor>
prm/blind_docking_80.prm

>  <SCORE>
-11.9093

>  <SCORE.INTER>
-11.7151

>  <SCORE.INTER.CONST>
1

>  <SCORE.INTER.POLAR>
0

>  <SCORE.INTER.ROT>
5

>  <SCORE.INTER.SOLV>
12.0865

>  <SCORE.INTER.VDW>
-18.7722

>  <SCORE.INTER.norm>
-0.468604

>  <SCORE.INTRA>
-0.332528

>  <SCORE.INTRA.DIHEDRAL>
-0.42432

>  <SCORE.INTRA.DIHEDRAL.0>
3.94806

>  <SCORE.INTRA.POLAR>
0

>  <SCORE.INTRA.POLAR.0>
0

>  <SCORE.INTRA.REPUL>
0

>  <SCORE.INTRA.REPUL.0>
0

>  <SCORE.INTRA.SOLV>
0.116607

>  <SCORE.INTRA.SOLV.lig_0>
-70.9803

>  <SCORE.INTRA.VDW>
-0.178671

>  <SCORE.INTRA.VDW.0>
-0.709409

>  <SCORE.INTRA.norm>
-0.0133011

>  <SCORE.RESTR>
0.138321

>  <SCORE.RESTR.CAVITY>
0.138321

>  <SCORE.RESTR.norm>
0.00553286

>  <SCORE.SYSTEM>
0

>  <SCORE.SYSTEM.CONST>
0

>  <SCORE.SYSTEM.DIHEDRAL>
0

>  <SCORE.SYSTEM.SOLV>
0

>  <SCORE.SYSTEM.norm>
0

>  <SCORE.heavy>
25

>  <SCORE.norm>
-0.476372

>  <RMSD>
19.762

$$$$
ligand
 OpenBabel11021811503D
libRbt.so/2013.1/901 2013/11/27
 25 27  0  0  0  0  0  0  0  0999 V2000
   -8.3296   -7.3399   20.4049 N   0  0  0  0  0  0  0  0  0  0  0  0
   -8.8765   -6.8197   21.6196 C   0  0  0  0  0  0  0  0  0  0  0  0
  -10.0717   -6.5682   21.7110 O   0  0  0  0  0  0  0  0  0  0  0  0
   -8.4803   -4.4661   30.0618 N   0  0  0  0  0  0  0  0  0  0  0  0
   -6.3449   -4.2585   28.9837 N   0  0  0  0  0  0  0  0  0  0  0  0
   -7.2526   -5.0392   29.6141 C   0  0  0  0  0  0  0  0  0  0  0  0
   -7.0093   -6.3655   29.8384 N   0  0  0  0  0  0  0  0  0  0  0  0
   -5.8576   -6.9638   29.4409 C   0  0  0  0  0  0  0  0  0  0  0  0
   -4.8885   -6.1842   28.7651 C   0  0  0  0  0  0  0  0  0  0  0  0
   -5.6754   -8.3049   29.6845 O   0  0  0  0  0  0  0  0  0  0  0  0
   -2.8098   -7.6335   29.0424 C   0  0  0  0  0  0  0  0  0  0  0  0
   -3.6020   -6.6797   28.3038 N   0  0  0  0  0  0  0  0  0  0  0  0
   -1.7060   -7.3716   29.5080 O   0  0  0  0  0  0  0  0  0  0  0  0
   -3.1234   -6.0826   27.1307 C   0  0  2  0  0  0  0  0  0  0  0  0
   -3.0186   -4.5493   27.3347 C   0  0  0  0  0  0  0  0  0  0  0  0
   -5.1573   -4.7943   28.5584 C   0  0  0  0  0  0  0  0  0  0  0  0
   -4.1804   -3.9541   27.8602 N   0  0  0  0  0  0  0  0  0  0  0  0
   -4.0270   -6.4000   25.9564 C   0  0  0  0  0  0  0  0  0  0  0  0
   -5.3749   -5.9059   26.0150 N   0  0  0  0  0  0  0  0  0  0  0  0
   -7.9680   -6.6048   22.7803 C   0  0  0  0  0  0  0  0  0  0  0  0
   -7.6620   -7.6438   23.6484 C   0  0  0  0  0  0  0  0  0  0  0  0
   -6.8103   -7.4110   24.7214 C   0  0  0  0  0  0  0  0  0  0  0  0
   -6.2573   -6.1471   24.9169 C   0  0  0  0  0  0  0  0  0  0  0  0
   -6.5568   -5.1169   24.0426 C   0  0  0  0  0  0  0  0  0  0  0  0
   -7.4173   -5.3466   22.9757 C   0  0  0  0  0  0  0  0  0  0  0  0
  1  2  1  0  0  0  0
  2  3  2  0  0  0  0
  2 20  1  0  0  0  0
  4  6  1  0  0  0  0
  5  6  2  0  0  0  0
  5 16  1  0  0  0  0
  6  7  1  0  0  0  0
  7  8  1  0  0  0  0
  8  9  1  0  0  0  0
  8 10  2  0  0  0  0
  9 12  1  0  0  0  0
  9 16  2  0  0  0  0
 11 13  1  0  0  0  0
 11 12  1  0  0  0  0
 12 14  1  0  0  0  0
 14 15  1  0  0  0  0
 14 18  1  6  0  0  0
 15 17  1  0  0  0  0
 16 17  1  0  0  0  0
 18 19  1  0  0  0  0
 19 23  1  0  0  0  0
 20 21  2  0  0  0  0
 20 25  1  0  0  0  0
 21 22  1  0  0  0  0
 22 23  2  0  0  0  0
 23 24  1  0  0  0  0
 24 25  2  0  0  0  0
M  END
>  <CHROM.1>
-115.65707531,63.55850355,178.33962211,75.11987793,-84.46945500,-5.88781980
-6.17883554,26.58668329,-2.10130825,-0.19743667,1.38905137

>  <Name>
ligand

>  <RI>
0

>  <Rbt.Current_Directory>
/home/itssahil/PROJECTS/Mol_Feturizer/New_Systems/rnas/4LVV

>  <Rbt.Executable>
rbdock ($Id: //depot/dev/client3/rdock/2013.1/src/exe/rbdock.cxx#4 $)

>  <Rbt.Library>
libRbt.so (2013.1, Build901 2013/11/27)

>  <Rbt.Parameter_File>
/export/apps/rDock/src/rDock_2013.1_src/data/scripts/dock_solv.prm

>  <Rbt.Receptor>
prm/blind_docking_60.prm

>  <SCORE>
-12.9597

>  <SCORE.INTER>
-12.3974

>  <SCORE.INTER.CONST>
1

>  <SCORE.INTER.POLAR>
0

>  <SCORE.INTER.ROT>
5

>  <SCORE.INTER.SOLV>
15.6903

>  <SCORE.INTER.VDW>
-20.4284

>  <SCORE.INTER.norm>
-0.495897

>  <SCORE.INTRA>
-0.562246

>  <SCORE.INTRA.DIHEDRAL>
-0.68327

>  <SCORE.INTRA.DIHEDRAL.0>
3.94806

>  <SCORE.INTRA.POLAR>
0

>  <SCORE.INTRA.POLAR.0>
0

>  <SCORE.INTRA.REPUL>
0

>  <SCORE.INTRA.REPUL.0>
0

>  <SCORE.INTRA.SOLV>
2.12316

>  <SCORE.INTRA.SOLV.lig_0>
-70.9803

>  <SCORE.INTRA.VDW>
-1.28219

>  <SCORE.INTRA.VDW.0>
-0.709409

>  <SCORE.INTRA.norm>
-0.0224898

>  <SCORE.RESTR>
0

>  <SCORE.RESTR.CAVITY>
0

>  <SCORE.RESTR.norm>
0

>  <SCORE.SYSTEM>
0

>  <SCORE.SYSTEM.CONST>
0

>  <SCORE.SYSTEM.DIHEDRAL>
0

>  <SCORE.SYSTEM.SOLV>
0

>  <SCORE.SYSTEM.norm>
0

>  <SCORE.heavy>
25

>  <SCORE.norm>
-0.518387

>  <RMSD>
19.800

$$$$
ligand
 OpenBabel11021811503D
libRbt.so/2013.1/901 2013/11/27
 25 27  0  0  0  0  0  0  0  0999 V2000
   -8.8810   -6.5868   20.5477 N   0  0  0  0  0  0  0  0  0  0  0  0
   -8.8438   -5.7593   21.7136 C   0  0  0  0  0  0  0  0  0  0  0  0
   -9.5840   -4.7889   21.8166 O   0  0  0  0  0  0  0  0  0  0  0  0
    1.0890   -5.8533   29.0959 N   0  0  0  0  0  0  0  0  0  0  0  0
   -1.0922   -6.8507   28.9844 N   0  0  0  0  0  0  0  0  0  0  0  0
   -0.3331   -5.7363   29.0967 C   0  0  0  0  0  0  0  0  0  0  0  0
   -0.9054   -4.5012   29.2214 N   0  0  0  0  0  0  0  0  0  0  0  0
   -2.2518   -4.3292   29.2345 C   0  0  0  0  0  0  0  0  0  0  0  0
   -3.0807   -5.4692   29.1050 C   0  0  0  0  0  0  0  0  0  0  0  0
   -2.7684   -3.0601   29.3506 O   0  0  0  0  0  0  0  0  0  0  0  0
   -5.2974   -4.5689   29.9847 C   0  0  0  0  0  0  0  0  0  0  0  0
   -4.5341   -5.4431   29.1268 N   0  0  0  0  0  0  0  0  0  0  0  0
   -5.8189   -4.9421   31.0300 O   0  0  0  0  0  0  0  0  0  0  0  0
   -5.1559   -6.4106   28.3275 C   0  0  2  0  0  0  0  0  0  0  0  0
   -4.6801   -7.8222   28.7571 C   0  0  0  0  0  0  0  0  0  0  0  0
   -2.4593   -6.7532   28.9947 C   0  0  0  0  0  0  0  0  0  0  0  0
   -3.2829   -7.9573   28.8559 N   0  0  0  0  0  0  0  0  0  0  0  0
   -4.8549   -6.1738   26.8613 C   0  0  0  0  0  0  0  0  0  0  0  0
   -5.2934   -7.1782   25.9323 N   0  0  0  0  0  0  0  0  0  0  0  0
   -7.8990   -6.1091   22.8107 C   0  0  0  0  0  0  0  0  0  0  0  0
   -6.9171   -5.2164   23.2180 C   0  0  0  0  0  0  0  0  0  0  0  0
   -6.0516   -5.5726   24.2451 C   0  0  0  0  0  0  0  0  0  0  0  0
   -6.1769   -6.8116   24.8704 C   0  0  0  0  0  0  0  0  0  0  0  0
   -7.1643   -7.6939   24.4681 C   0  0  0  0  0  0  0  0  0  0  0  0
   -8.0230   -7.3426   23.4335 C   0  0  0  0  0  0  0  0  0  0  0  0
  1  2  1  0  0  0  0
  2  3  2  0  0  0  0
  2 20  1  0  0  0  0
  4  6  1  0  0  0  0
  5  6  2  0  0  0  0
  5 16  1  0  0  0  0
  6  7  1  0  0  0  0
  7  8  1  0  0  0  0
  8  9  1  0  0  0  0
  8 10  2  0  0  0  0
  9 12  1  0  0  0  0
  9 16  2  0  0  0  0
 11 13  1  0  0  0  0
 11 12  1  0  0  0  0
 12 14  1  0  0  0  0
 14 15  1  0  0  0  0
 14 18  1  6  0  0  0
 15 17  1  0  0  0  0
 16 17  1  0  0  0  0
 18 19  1  0  0  0  0
 19 23  1  0  0  0  0
 20 21  2  0  0  0  0
 20 25  1  0  0  0  0
 21 22  1  0  0  0  0
 22 23  2  0  0  0  0
 23 24  1  0  0  0  0
 24 25  2  0  0  0  0
M  END
>  <CHROM.1>
-100.89384155,172.78446652,122.14881740,36.22856558,120.56552899,-4.79412388
-5.91797054,26.84948221,-2.32188613,-0.24091029,1.26400581

>  <Name>
ligand

>  <RI>
0

>  <Rbt.Current_Directory>
/home/itssahil/PROJECTS/Mol_Feturizer/New_Systems/rnas/4LVV

>  <Rbt.Executable>
rbdock ($Id: //depot/dev/client3/rdock/2013.1/src/exe/rbdock.cxx#4 $)

>  <Rbt.Library>
libRbt.so (2013.1, Build901 2013/11/27)

>  <Rbt.Parameter_File>
/export/apps/rDock/src/rDock_2013.1_src/data/scripts/dock_solv.prm

>  <Rbt.Receptor>
prm/blind_docking_40.prm

>  <SCORE>
-9.19894

>  <SCORE.INTER>
-9.03044

>  <SCORE.INTER.CONST>
1

>  <SCORE.INTER.POLAR>
0

>  <SCORE.INTER.ROT>
5

>  <SCORE.INTER.SOLV>
18.0566

>  <SCORE.INTER.VDW>
-18.9725

>  <SCORE.INTER.norm>
-0.361218

>  <SCORE.INTRA>
-0.168501

>  <SCORE.INTRA.DIHEDRAL>
0.566179

>  <SCORE.INTRA.DIHEDRAL.0>
3.94806

>  <SCORE.INTRA.POLAR>
0

>  <SCORE.INTRA.POLAR.0>
0

>  <SCORE.INTRA.REPUL>
0

>  <SCORE.INTRA.REPUL.0>
0

>  <SCORE.INTRA.SOLV>
-0.13607

>  <SCORE.INTRA.SOLV.lig_0>
-70.9803

>  <SCORE.INTRA.VDW>
-0.383555

>  <SCORE.INTRA.VDW.0>
-0.709409

>  <SCORE.INTRA.norm>
-0.00674002

>  <SCORE.RESTR>
0

>  <SCORE.RESTR.CAVITY>
0

>  <SCORE.RESTR.norm>
0

>  <SCORE.SYSTEM>
0

>  <SCORE.SYSTEM.CONST>
0

>  <SCORE.SYSTEM.DIHEDRAL>
0

>  <SCORE.SYSTEM.SOLV>
0

>  <SCORE.SYSTEM.norm>
0

>  <SCORE.heavy>
25

>  <SCORE.norm>
-0.367958

>  <RMSD>
19.808

$$$$
ligand
 OpenBabel11021811503D
libRbt.so/2013.1/901 2013/11/27
 25 27  0  0  0  0  0  0  0  0999 V2000
   -4.8326   -3.8493   29.9748 N   0  0  0  0  0  0  0  0  0  0  0  0
   -5.3472   -5.1251   29.5839 C   0  0  0  0  0  0  0  0  0  0  0  0
   -5.5832   -5.9881   30.4203 O   0  0  0  0  0  0  0  0  0  0  0  0
   -7.4785   -9.5294   17.7538 N   0  0  0  0  0  0  0  0  0  0  0  0
   -7.9364   -7.8791   19.4367 N   0  0  0  0  0  0  0  0  0  0  0  0
   -7.9149   -9.1805   19.0668 C   0  0  0  0  0  0  0  0  0  0  0  0
   -8.3138  -10.1659   19.9259 N   0  0  0  0  0  0  0  0  0  0  0  0
   -8.7442   -9.8938   21.1842 C   0  0  0  0  0  0  0  0  0  0  0  0
   -8.7679   -8.5454   21.6142 C   0  0  0  0  0  0  0  0  0  0  0  0
   -9.1213  -10.9293   22.0067 O   0  0  0  0  0  0  0  0  0  0  0  0
  -10.3464   -8.6928   23.6105 C   0  0  0  0  0  0  0  0  0  0  0  0
   -9.2256   -8.1008   22.9205 N   0  0  0  0  0  0  0  0  0  0  0  0
  -11.4600   -8.8047   23.1093 O   0  0  0  0  0  0  0  0  0  0  0  0
   -8.5664   -6.9735   23.4269 C   0  0  2  0  0  0  0  0  0  0  0  0
   -8.7072   -5.7973   22.4268 C   0  0  0  0  0  0  0  0  0  0  0  0
   -8.3636   -7.5298   20.6912 C   0  0  0  0  0  0  0  0  0  0  0  0
   -8.3713   -6.1224   21.0994 N   0  0  0  0  0  0  0  0  0  0  0  0
   -7.1043   -7.2752   23.6871 C   0  0  0  0  0  0  0  0  0  0  0  0
   -6.2649   -6.1715   24.0631 N   0  0  0  0  0  0  0  0  0  0  0  0
   -5.6079   -5.3808   28.1398 C   0  0  0  0  0  0  0  0  0  0  0  0
   -6.4346   -4.5421   27.4050 C   0  0  0  0  0  0  0  0  0  0  0  0
   -6.6571   -4.8074   26.0593 C   0  0  0  0  0  0  0  0  0  0  0  0
   -6.0444   -5.8999   25.4489 C   0  0  0  0  0  0  0  0  0  0  0  0
   -5.2124   -6.7272   26.1829 C   0  0  0  0  0  0  0  0  0  0  0  0
   -4.9985   -6.4685   27.5315 C   0  0  0  0  0  0  0  0  0  0  0  0
  1  2  1  0  0  0  0
  2  3  2  0  0  0  0
  2 20  1  0  0  0  0
  4  6  1  0  0  0  0
  5  6  2  0  0  0  0
  5 16  1  0  0  0  0
  6  7  1  0  0  0  0
  7  8  1  0  0  0  0
  8  9  1  0  0  0  0
  8 10  2  0  0  0  0
  9 12  1  0  0  0  0
  9 16  2  0  0  0  0
 11 13  1  0  0  0  0
 11 12  1  0  0  0  0
 12 14  1  0  0  0  0
 14 15  1  0  0  0  0
 14 18  1  6  0  0  0
 15 17  1  0  0  0  0
 16 17  1  0  0  0  0
 18 19  1  0  0  0  0
 19 23  1  0  0  0  0
 20 21  2  0  0  0  0
 20 25  1  0  0  0  0
 21 22  1  0  0  0  0
 22 23  2  0  0  0  0
 23 24  1  0  0  0  0
 24 25  2  0  0  0  0
M  END
>  <CHROM.1>
-54.18817528,173.02758316,94.00846156,-106.39372652,-55.38843957,-7.56531342
-7.27183071,23.83358142,-1.13188789,-0.66907080,-1.71980427

>  <Name>
ligand

>  <RI>
0

>  <Rbt.Current_Directory>
/home/itssahil/PROJECTS/Mol_Feturizer/New_Systems/rnas/4LVV

>  <Rbt.Executable>
rbdock ($Id: //depot/dev/client3/rdock/2013.1/src/exe/rbdock.cxx#4 $)

>  <Rbt.Library>
libRbt.so (2013.1, Build901 2013/11/27)

>  <Rbt.Parameter_File>
/export/apps/rDock/src/rDock_2013.1_src/data/scripts/dock_solv.prm

>  <Rbt.Receptor>
prm/blind_docking_60.prm

>  <SCORE>
-10.2486

>  <SCORE.INTER>
-9.52527

>  <SCORE.INTER.CONST>
1

>  <SCORE.INTER.POLAR>
0

>  <SCORE.INTER.ROT>
5

>  <SCORE.INTER.SOLV>
11.6726

>  <SCORE.INTER.VDW>
-17.1744

>  <SCORE.INTER.norm>
-0.381011

>  <SCORE.INTRA>
-0.905127

>  <SCORE.INTRA.DIHEDRAL>
0.239604

>  <SCORE.INTRA.DIHEDRAL.0>
3.94806

>  <SCORE.INTRA.POLAR>
0

>  <SCORE.INTRA.POLAR.0>
0

>  <SCORE.INTRA.REPUL>
0

>  <SCORE.INTRA.REPUL.0>
0

>  <SCORE.INTRA.SOLV>
-0.0045727

>  <SCORE.INTRA.SOLV.lig_0>
-70.9803

>  <SCORE.INTRA.VDW>
-1.02264

>  <SCORE.INTRA.VDW.0>
-0.709409

>  <SCORE.INTRA.norm>
-0.0362051

>  <SCORE.RESTR>
0.18175

>  <SCORE.RESTR.CAVITY>
0.18175

>  <SCORE.RESTR.norm>
0.00726999

>  <SCORE.SYSTEM>
0

>  <SCORE.SYSTEM.CONST>
0

>  <SCORE.SYSTEM.DIHEDRAL>
0

>  <SCORE.SYSTEM.SOLV>
0

>  <SCORE.SYSTEM.norm>
0

>  <SCORE.heavy>
25

>  <SCORE.norm>
-0.409946

>  <RMSD>
19.811

$$$$
ligand
 OpenBabel11021811503D
libRbt.so/2013.1/901 2013/11/27
 25 27  0  0  0  0  0  0  0  0999 V2000
   -4.1760   -3.9184   29.3898 N   0  0  0  0  0  0  0  0  0  0  0  0
   -4.0114   -3.7773   27.9762 C   0  0  0  0  0  0  0  0  0  0  0  0
   -3.1540   -3.0330   27.5169 O   0  0  0  0  0  0  0  0  0  0  0  0
   -5.7690   -8.1368   17.8989 N   0  0  0  0  0  0  0  0  0  0  0  0
   -7.4958   -7.1924   19.2742 N   0  0  0  0  0  0  0  0  0  0  0  0
   -6.5699   -8.1596   19.0797 C   0  0  0  0  0  0  0  0  0  0  0  0
   -6.3955   -9.1642   19.9901 N   0  0  0  0  0  0  0  0  0  0  0  0
   -7.1319   -9.2410   21.1278 C   0  0  0  0  0  0  0  0  0  0  0  0
   -8.1014   -8.2397   21.3750 C   0  0  0  0  0  0  0  0  0  0  0  0
   -6.9021  -10.2690   22.0118 O   0  0  0  0  0  0  0  0  0  0  0  0
   -9.5591   -9.3866   23.1237 C   0  0  0  0  0  0  0  0  0  0  0  0
   -8.9784   -8.2043   22.5339 N   0  0  0  0  0  0  0  0  0  0  0  0
  -10.3675   -9.3491   24.0451 O   0  0  0  0  0  0  0  0  0  0  0  0
   -9.3148   -6.9211   22.9832 C   0  0  2  0  0  0  0  0  0  0  0  0
   -9.9843   -6.1274   21.8319 C   0  0  0  0  0  0  0  0  0  0  0  0
   -8.2789   -7.2089   20.3989 C   0  0  0  0  0  0  0  0  0  0  0  0
   -9.2704   -6.1525   20.6194 N   0  0  0  0  0  0  0  0  0  0  0  0
   -8.0888   -6.1879   23.4887 C   0  0  0  0  0  0  0  0  0  0  0  0
   -7.2930   -6.8516   24.4839 N   0  0  0  0  0  0  0  0  0  0  0  0
   -4.8916   -4.5664   27.0700 C   0  0  0  0  0  0  0  0  0  0  0  0
   -6.1710   -4.1274   26.7581 C   0  0  0  0  0  0  0  0  0  0  0  0
   -6.9671   -4.8862   25.9088 C   0  0  0  0  0  0  0  0  0  0  0  0
   -6.4798   -6.0725   25.3639 C   0  0  0  0  0  0  0  0  0  0  0  0
   -5.1996   -6.5007   25.6692 C   0  0  0  0  0  0  0  0  0  0  0  0
   -4.4072   -5.7478   26.5273 C   0  0  0  0  0  0  0  0  0  0  0  0
  1  2  1  0  0  0  0
  2  3  2  0  0  0  0
  2 20  1  0  0  0  0
  4  6  1  0  0  0  0
  5  6  2  0  0  0  0
  5 16  1  0  0  0  0
  6  7  1  0  0  0  0
  7  8  1  0  0  0  0
  8  9  1  0  0  0  0
  8 10  2  0  0  0  0
  9 12  1  0  0  0  0
  9 16  2  0  0  0  0
 11 13  1  0  0  0  0
 11 12  1  0  0  0  0
 12 14  1  0  0  0  0
 14 15  1  0  0  0  0
 14 18  1  6  0  0  0
 15 17  1  0  0  0  0
 16 17  1  0  0  0  0
 18 19  1  0  0  0  0
 19 23  1  0  0  0  0
 20 21  2  0  0  0  0
 20 25  1  0  0  0  0
 21 22  1  0  0  0  0
 22 23  2  0  0  0  0
 23 24  1  0  0  0  0
 24 25  2  0  0  0  0
M  END
>  <CHROM.1>
-175.02867928,-53.36333212,-155.52339404,41.42198400,82.35823319,-7.04098663
-6.82644358,23.42307573,1.14338218,0.38763150,1.21440462

>  <Name>
ligand

>  <RI>
0

>  <Rbt.Current_Directory>
/home/itssahil/PROJECTS/Mol_Feturizer/New_Systems/rnas/4LVV

>  <Rbt.Executable>
rbdock ($Id: //depot/dev/client3/rdock/2013.1/src/exe/rbdock.cxx#4 $)

>  <Rbt.Library>
libRbt.so (2013.1, Build901 2013/11/27)

>  <Rbt.Parameter_File>
/export/apps/rDock/src/rDock_2013.1_src/data/scripts/dock_solv.prm

>  <Rbt.Receptor>
prm/blind_docking_100.prm

>  <SCORE>
-11.7062

>  <SCORE.INTER>
-11.1607

>  <SCORE.INTER.CONST>
1

>  <SCORE.INTER.POLAR>
0

>  <SCORE.INTER.ROT>
5

>  <SCORE.INTER.SOLV>
13.9651

>  <SCORE.INTER.VDW>
-19.0289

>  <SCORE.INTER.norm>
-0.446429

>  <SCORE.INTRA>
-0.546573

>  <SCORE.INTRA.DIHEDRAL>
-0.0528239

>  <SCORE.INTRA.DIHEDRAL.0>
3.94806

>  <SCORE.INTRA.POLAR>
0

>  <SCORE.INTRA.POLAR.0>
0

>  <SCORE.INTRA.REPUL>
0

>  <SCORE.INTRA.REPUL.0>
0

>  <SCORE.INTRA.SOLV>
0.202748

>  <SCORE.INTRA.SOLV.lig_0>
-70.9803

>  <SCORE.INTRA.VDW>
-0.621535

>  <SCORE.INTRA.VDW.0>
-0.709409

>  <SCORE.INTRA.norm>
-0.0218629

>  <SCORE.RESTR>
0.00110536

>  <SCORE.RESTR.CAVITY>
0.00110536

>  <SCORE.RESTR.norm>
4.42145e-05

>  <SCORE.SYSTEM>
0

>  <SCORE.SYSTEM.CONST>
0

>  <SCORE.SYSTEM.DIHEDRAL>
0

>  <SCORE.SYSTEM.SOLV>
0

>  <SCORE.SYSTEM.norm>
0

>  <SCORE.heavy>
25

>  <SCORE.norm>
-0.468248

>  <RMSD>
19.815

$$$$
ligand
 OpenBabel11021811503D
libRbt.so/2013.1/901 2013/11/27
 25 27  0  0  0  0  0  0  0  0999 V2000
   -4.7496   -6.9739   29.0421 N   0  0  0  0  0  0  0  0  0  0  0  0
   -4.3607   -6.1982   27.9052 C   0  0  0  0  0  0  0  0  0  0  0  0
   -3.2664   -5.6494   27.8662 O   0  0  0  0  0  0  0  0  0  0  0  0
   -9.7567  -12.2396   22.5322 N   0  0  0  0  0  0  0  0  0  0  0  0
   -9.0650  -10.2739   21.3394 N   0  0  0  0  0  0  0  0  0  0  0  0
   -9.8089  -10.8290   22.3240 C   0  0  0  0  0  0  0  0  0  0  0  0
  -10.6176  -10.0626   23.1160 N   0  0  0  0  0  0  0  0  0  0  0  0
  -10.7125   -8.7175   22.9607 C   0  0  0  0  0  0  0  0  0  0  0  0
   -9.9390   -8.0969   21.9507 C   0  0  0  0  0  0  0  0  0  0  0  0
  -11.5344   -7.9985   23.7964 O   0  0  0  0  0  0  0  0  0  0  0  0
  -11.1522   -5.8689   21.7004 C   0  0  0  0  0  0  0  0  0  0  0  0
   -9.9556   -6.6742   21.6516 N   0  0  0  0  0  0  0  0  0  0  0  0
  -11.1357   -4.6497   21.8317 O   0  0  0  0  0  0  0  0  0  0  0  0
   -8.7373   -6.1493   21.2022 C   0  0  2  0  0  0  0  0  0  0  0  0
   -8.2780   -6.9157   19.9353 C   0  0  0  0  0  0  0  0  0  0  0  0
   -9.1145   -8.9216   21.1220 C   0  0  0  0  0  0  0  0  0  0  0  0
   -8.2964   -8.3166   20.0674 N   0  0  0  0  0  0  0  0  0  0  0  0
   -7.6807   -6.2350   22.2851 C   0  0  0  0  0  0  0  0  0  0  0  0
   -8.0072   -5.6693   23.5647 N   0  0  0  0  0  0  0  0  0  0  0  0
   -5.3051   -6.0834   26.7591 C   0  0  0  0  0  0  0  0  0  0  0  0
   -5.5299   -7.1580   25.9097 C   0  0  0  0  0  0  0  0  0  0  0  0
   -6.4178   -7.0189   24.8499 C   0  0  0  0  0  0  0  0  0  0  0  0
   -7.0874   -5.8135   24.6491 C   0  0  0  0  0  0  0  0  0  0  0  0
   -6.8682   -4.7482   25.5050 C   0  0  0  0  0  0  0  0  0  0  0  0
   -5.9719   -4.8834   26.5584 C   0  0  0  0  0  0  0  0  0  0  0  0
  1  2  1  0  0  0  0
  2  3  2  0  0  0  0
  2 20  1  0  0  0  0
  4  6  1  0  0  0  0
  5  6  2  0  0  0  0
  5 16  1  0  0  0  0
  6  7  1  0  0  0  0
  7  8  1  0  0  0  0
  8  9  1  0  0  0  0
  8 10  2  0  0  0  0
  9 12  1  0  0  0  0
  9 16  2  0  0  0  0
 11 13  1  0  0  0  0
 11 12  1  0  0  0  0
 12 14  1  0  0  0  0
 14 15  1  0  0  0  0
 14 18  1  1  0  0  0
 15 17  1  0  0  0  0
 16 17  1  0  0  0  0
 18 19  1  0  0  0  0
 19 23  1  0  0  0  0
 20 21  2  0  0  0  0
 20 25  1  0  0  0  0
 21 22  1  0  0  0  0
 22 23  2  0  0  0  0
 23 24  1  0  0  0  0
 24 25  2  0  0  0  0
M  END
>  <CHROM.1>
158.35269486,-53.21914914,175.26102348,-40.79965449,-72.62009441,-8.19155947
-7.27775817,23.57540062,-0.20053289,0.85780944,2.98279011

>  <Name>
ligand

>  <RI>
0

>  <Rbt.Current_Directory>
/home/itssahil/PROJECTS/Mol_Feturizer/New_Systems/rnas/4LVV

>  <Rbt.Executable>
rbdock ($Id: //depot/dev/client3/rdock/2013.1/src/exe/rbdock.cxx#4 $)

>  <Rbt.Library>
libRbt.so (2013.1, Build901 2013/11/27)

>  <Rbt.Parameter_File>
/export/apps/rDock/src/rDock_2013.1_src/data/scripts/dock_solv.prm

>  <Rbt.Receptor>
prm/blind_docking_100.prm

>  <SCORE>
-13.4559

>  <SCORE.INTER>
-12.4991

>  <SCORE.INTER.CONST>
1

>  <SCORE.INTER.POLAR>
0

>  <SCORE.INTER.ROT>
5

>  <SCORE.INTER.SOLV>
12.7144

>  <SCORE.INTER.VDW>
-19.5042

>  <SCORE.INTER.norm>
-0.499964

>  <SCORE.INTRA>
-0.956848

>  <SCORE.INTRA.DIHEDRAL>
-0.681579

>  <SCORE.INTRA.DIHEDRAL.0>
3.94806

>  <SCORE.INTRA.POLAR>
0

>  <SCORE.INTRA.POLAR.0>
0

>  <SCORE.INTRA.REPUL>
0

>  <SCORE.INTRA.REPUL.0>
0

>  <SCORE.INTRA.SOLV>
0.392153

>  <SCORE.INTRA.SOLV.lig_0>
-70.9803

>  <SCORE.INTRA.VDW>
-0.812135

>  <SCORE.INTRA.VDW.0>
-0.709409

>  <SCORE.INTRA.norm>
-0.0382739

>  <SCORE.RESTR>
0

>  <SCORE.RESTR.CAVITY>
0

>  <SCORE.RESTR.norm>
0

>  <SCORE.SYSTEM>
0

>  <SCORE.SYSTEM.CONST>
0

>  <SCORE.SYSTEM.DIHEDRAL>
0

>  <SCORE.SYSTEM.SOLV>
0

>  <SCORE.SYSTEM.norm>
0

>  <SCORE.heavy>
25

>  <SCORE.norm>
-0.538238

>  <RMSD>
19.817

$$$$
ligand
 OpenBabel11021811503D
libRbt.so/2013.1/901 2013/11/27
 25 27  0  0  0  0  0  0  0  0999 V2000
   -8.3105   -7.8633   20.5639 N   0  0  0  0  0  0  0  0  0  0  0  0
   -8.7399   -6.9117   21.5413 C   0  0  0  0  0  0  0  0  0  0  0  0
   -9.8208   -6.3462   21.4321 O   0  0  0  0  0  0  0  0  0  0  0  0
   -8.5255   -4.2843   29.9797 N   0  0  0  0  0  0  0  0  0  0  0  0
   -6.4031   -4.0907   28.8739 N   0  0  0  0  0  0  0  0  0  0  0  0
   -7.2805   -4.8490   29.5709 C   0  0  0  0  0  0  0  0  0  0  0  0
   -6.9904   -6.1438   29.8991 N   0  0  0  0  0  0  0  0  0  0  0  0
   -5.8202   -6.7323   29.5428 C   0  0  0  0  0  0  0  0  0  0  0  0
   -4.8816   -5.9766   28.8002 C   0  0  0  0  0  0  0  0  0  0  0  0
   -5.5905   -8.0425   29.8917 O   0  0  0  0  0  0  0  0  0  0  0  0
   -2.7527   -7.3269   29.1783 C   0  0  0  0  0  0  0  0  0  0  0  0
   -3.5805   -6.4632   28.3711 N   0  0  0  0  0  0  0  0  0  0  0  0
   -2.7333   -8.5466   29.0532 O   0  0  0  0  0  0  0  0  0  0  0  0
   -3.1278   -5.9460   27.1508 C   0  0  2  0  0  0  0  0  0  0  0  0
   -3.0754   -4.3986   27.2306 C   0  0  0  0  0  0  0  0  0  0  0  0
   -5.1993   -4.6179   28.4846 C   0  0  0  0  0  0  0  0  0  0  0  0
   -4.2551   -3.8034   27.7148 N   0  0  0  0  0  0  0  0  0  0  0  0
   -4.0246   -6.3874   26.0118 C   0  0  0  0  0  0  0  0  0  0  0  0
   -5.3877   -5.9343   26.0384 N   0  0  0  0  0  0  0  0  0  0  0  0
   -7.8550   -6.6322   22.7065 C   0  0  0  0  0  0  0  0  0  0  0  0
   -7.3024   -5.3731   22.8966 C   0  0  0  0  0  0  0  0  0  0  0  0
   -6.4815   -5.1444   23.9941 C   0  0  0  0  0  0  0  0  0  0  0  0
   -6.2254   -6.1680   24.9043 C   0  0  0  0  0  0  0  0  0  0  0  0
   -6.7872   -7.4188   24.7164 C   0  0  0  0  0  0  0  0  0  0  0  0
   -7.5993   -7.6510   23.6128 C   0  0  0  0  0  0  0  0  0  0  0  0
  1  2  1  0  0  0  0
  2  3  2  0  0  0  0
  2 20  1  0  0  0  0
  4  6  1  0  0  0  0
  5  6  2  0  0  0  0
  5 16  1  0  0  0  0
  6  7  1  0  0  0  0
  7  8  1  0  0  0  0
  8  9  1  0  0  0  0
  8 10  2  0  0  0  0
  9 12  1  0  0  0  0
  9 16  2  0  0  0  0
 11 13  1  0  0  0  0
 11 12  1  0  0  0  0
 12 14  1  0  0  0  0
 14 15  1  0  0  0  0
 14 18  1  6  0  0  0
 15 17  1  0  0  0  0
 16 17  1  0  0  0  0
 18 19  1  0  0  0  0
 19 23  1  0  0  0  0
 20 21  2  0  0  0  0
 20 25  1  0  0  0  0
 21 22  1  0  0  0  0
 22 23  2  0  0  0  0
 23 24  1  0  0  0  0
 24 25  2  0  0  0  0
M  END
>  <CHROM.1>
96.30674041,63.69394443,171.60862663,-101.20650806,116.06794404,-5.90741771
-6.14911972,26.55345812,-2.07364928,-0.35314355,1.29609100

>  <Name>
ligand

>  <RI>
0

>  <Rbt.Current_Directory>
/home/itssahil/PROJECTS/Mol_Feturizer/New_Systems/rnas/4LVV

>  <Rbt.Executable>
rbdock ($Id: //depot/dev/client3/rdock/2013.1/src/exe/rbdock.cxx#4 $)

>  <Rbt.Library>
libRbt.so (2013.1, Build901 2013/11/27)

>  <Rbt.Parameter_File>
/export/apps/rDock/src/rDock_2013.1_src/data/scripts/dock_solv.prm

>  <Rbt.Receptor>
prm/blind_docking_60.prm

>  <SCORE>
-12.8419

>  <SCORE.INTER>
-12.4553

>  <SCORE.INTER.CONST>
1

>  <SCORE.INTER.POLAR>
0

>  <SCORE.INTER.ROT>
5

>  <SCORE.INTER.SOLV>
14.7948

>  <SCORE.INTER.VDW>
-20.1685

>  <SCORE.INTER.norm>
-0.498213

>  <SCORE.INTRA>
-0.386615

>  <SCORE.INTRA.DIHEDRAL>
-0.410226

>  <SCORE.INTRA.DIHEDRAL.0>
3.94806

>  <SCORE.INTRA.POLAR>
0

>  <SCORE.INTRA.POLAR.0>
0

>  <SCORE.INTRA.REPUL>
0

>  <SCORE.INTRA.REPUL.0>
0

>  <SCORE.INTRA.SOLV>
2.36916

>  <SCORE.INTRA.SOLV.lig_0>
-70.9803

>  <SCORE.INTRA.VDW>
-1.36608

>  <SCORE.INTRA.VDW.0>
-0.709409

>  <SCORE.INTRA.norm>
-0.0154646

>  <SCORE.RESTR>
0

>  <SCORE.RESTR.CAVITY>
0

>  <SCORE.RESTR.norm>
0

>  <SCORE.SYSTEM>
0

>  <SCORE.SYSTEM.CONST>
0

>  <SCORE.SYSTEM.DIHEDRAL>
0

>  <SCORE.SYSTEM.SOLV>
0

>  <SCORE.SYSTEM.norm>
0

>  <SCORE.heavy>
25

>  <SCORE.norm>
-0.513677

>  <RMSD>
19.817

$$$$
ligand
 OpenBabel11021811503D
libRbt.so/2013.1/901 2013/11/27
 25 27  0  0  0  0  0  0  0  0999 V2000
   -6.8337   -4.6717   29.3913 N   0  0  0  0  0  0  0  0  0  0  0  0
   -6.1210   -4.1162   28.2827 C   0  0  0  0  0  0  0  0  0  0  0  0
   -5.5115   -3.0599   28.3960 O   0  0  0  0  0  0  0  0  0  0  0  0
   -8.0298  -11.4166   17.8453 N   0  0  0  0  0  0  0  0  0  0  0  0
   -8.0418   -9.3363   19.0442 N   0  0  0  0  0  0  0  0  0  0  0  0
   -8.3591  -10.6510   19.0036 C   0  0  0  0  0  0  0  0  0  0  0  0
   -8.9988  -11.2561   20.0491 N   0  0  0  0  0  0  0  0  0  0  0  0
   -9.3423  -10.5775   21.1734 C   0  0  0  0  0  0  0  0  0  0  0  0
   -9.0149   -9.2032   21.2606 C   0  0  0  0  0  0  0  0  0  0  0  0
   -9.9740  -11.2440   22.1969 O   0  0  0  0  0  0  0  0  0  0  0  0
  -10.5750   -8.4428   23.1278 C   0  0  0  0  0  0  0  0  0  0  0  0
   -9.3399   -8.3444   22.3877 N   0  0  0  0  0  0  0  0  0  0  0  0
  -11.5836   -7.8087   22.8374 O   0  0  0  0  0  0  0  0  0  0  0  0
   -8.4102   -7.3292   22.6462 C   0  0  2  0  0  0  0  0  0  0  0  0
   -8.2424   -6.4456   21.3834 C   0  0  0  0  0  0  0  0  0  0  0  0
   -8.3622   -8.5873   20.1463 C   0  0  0  0  0  0  0  0  0  0  0  0
   -8.0040   -7.1673   20.1991 N   0  0  0  0  0  0  0  0  0  0  0  0
   -7.0760   -7.9134   23.0648 C   0  0  0  0  0  0  0  0  0  0  0  0
   -6.0209   -6.9861   23.3664 N   0  0  0  0  0  0  0  0  0  0  0  0
   -6.1187   -4.8553   26.9895 C   0  0  0  0  0  0  0  0  0  0  0  0
   -6.9933   -4.5091   25.9686 C   0  0  0  0  0  0  0  0  0  0  0  0
   -6.9655   -5.2178   24.7737 C   0  0  0  0  0  0  0  0  0  0  0  0
   -6.0575   -6.2599   24.5969 C   0  0  0  0  0  0  0  0  0  0  0  0
   -5.1802   -6.5945   25.6136 C   0  0  0  0  0  0  0  0  0  0  0  0
   -5.2152   -5.8932   26.8128 C   0  0  0  0  0  0  0  0  0  0  0  0
  1  2  1  0  0  0  0
  2  3  2  0  0  0  0
  2 20  1  0  0  0  0
  4  6  1  0  0  0  0
  5  6  2  0  0  0  0
  5 16  1  0  0  0  0
  6  7  1  0  0  0  0
  7  8  1  0  0  0  0
  8  9  1  0  0  0  0
  8 10  2  0  0  0  0
  9 12  1  0  0  0  0
  9 16  2  0  0  0  0
 11 13  1  0  0  0  0
 11 12  1  0  0  0  0
 12 14  1  0  0  0  0
 14 15  1  0  0  0  0
 14 18  1  6  0  0  0
 15 17  1  0  0  0  0
 16 17  1  0  0  0  0
 18 19  1  0  0  0  0
 19 23  1  0  0  0  0
 20 21  2  0  0  0  0
 20 25  1  0  0  0  0
 21 22  1  0  0  0  0
 22 23  2  0  0  0  0
 23 24  1  0  0  0  0
 24 25  2  0  0  0  0
M  END
>  <CHROM.1>
-90.45159522,-179.87526234,74.77405957,-73.22752771,98.08980040,-7.84220667
-7.55063256,23.19141741,1.24079979,0.38043111,1.05840276

>  <Name>
ligand

>  <RI>
0

>  <Rbt.Current_Directory>
/home/itssahil/PROJECTS/Mol_Feturizer/New_Systems/rnas/4LVV

>  <Rbt.Executable>
rbdock ($Id: //depot/dev/client3/rdock/2013.1/src/exe/rbdock.cxx#4 $)

>  <Rbt.Library>
libRbt.so (2013.1, Build901 2013/11/27)

>  <Rbt.Parameter_File>
/export/apps/rDock/src/rDock_2013.1_src/data/scripts/dock_solv.prm

>  <Rbt.Receptor>
prm/blind_docking_80.prm

>  <SCORE>
-12.0387

>  <SCORE.INTER>
-10.3464

>  <SCORE.INTER.CONST>
1

>  <SCORE.INTER.POLAR>
0

>  <SCORE.INTER.ROT>
5

>  <SCORE.INTER.SOLV>
9.81326

>  <SCORE.INTER.VDW>
-17.102

>  <SCORE.INTER.norm>
-0.413856

>  <SCORE.INTRA>
-1.6923

>  <SCORE.INTRA.DIHEDRAL>
-0.654551

>  <SCORE.INTRA.DIHEDRAL.0>
3.94806

>  <SCORE.INTRA.POLAR>
0

>  <SCORE.INTRA.POLAR.0>
0

>  <SCORE.INTRA.REPUL>
0

>  <SCORE.INTRA.REPUL.0>
0

>  <SCORE.INTRA.SOLV>
-0.243108

>  <SCORE.INTRA.SOLV.lig_0>
-70.9803

>  <SCORE.INTRA.VDW>
-1.24347

>  <SCORE.INTRA.VDW.0>
-0.709409

>  <SCORE.INTRA.norm>
-0.0676919

>  <SCORE.RESTR>
0

>  <SCORE.RESTR.CAVITY>
0

>  <SCORE.RESTR.norm>
0

>  <SCORE.SYSTEM>
0

>  <SCORE.SYSTEM.CONST>
0

>  <SCORE.SYSTEM.DIHEDRAL>
0

>  <SCORE.SYSTEM.SOLV>
0

>  <SCORE.SYSTEM.norm>
0

>  <SCORE.heavy>
25

>  <SCORE.norm>
-0.481548

>  <RMSD>
19.826

$$$$
ligand
 OpenBabel11021811503D
libRbt.so/2013.1/901 2013/11/27
 25 27  0  0  0  0  0  0  0  0999 V2000
   -3.3527   -4.6278   28.0301 N   0  0  0  0  0  0  0  0  0  0  0  0
   -4.1704   -5.7892   27.8632 C   0  0  0  0  0  0  0  0  0  0  0  0
   -4.0646   -6.7440   28.6230 O   0  0  0  0  0  0  0  0  0  0  0  0
   -9.7850  -12.2972   22.4215 N   0  0  0  0  0  0  0  0  0  0  0  0
   -9.0656  -10.3012   21.2974 N   0  0  0  0  0  0  0  0  0  0  0  0
   -9.8275  -10.8808   22.2536 C   0  0  0  0  0  0  0  0  0  0  0  0
  -10.6449  -10.1337   23.0549 N   0  0  0  0  0  0  0  0  0  0  0  0
  -10.7313   -8.7842   22.9373 C   0  0  0  0  0  0  0  0  0  0  0  0
   -9.9391   -8.1384   21.9580 C   0  0  0  0  0  0  0  0  0  0  0  0
  -11.5630   -8.0856   23.7807 O   0  0  0  0  0  0  0  0  0  0  0  0
  -11.1380   -5.8980   21.7537 C   0  0  0  0  0  0  0  0  0  0  0  0
   -9.9445   -6.7077   21.7002 N   0  0  0  0  0  0  0  0  0  0  0  0
  -12.2636   -6.3491   21.5713 O   0  0  0  0  0  0  0  0  0  0  0  0
   -8.7169   -6.1760   21.2853 C   0  0  2  0  0  0  0  0  0  0  0  0
   -8.2412   -6.9077   20.0040 C   0  0  0  0  0  0  0  0  0  0  0  0
   -9.1054   -8.9429   21.1186 C   0  0  0  0  0  0  0  0  0  0  0  0
   -8.2680   -8.3117   20.0949 N   0  0  0  0  0  0  0  0  0  0  0  0
   -7.6779   -6.2985   22.3816 C   0  0  0  0  0  0  0  0  0  0  0  0
   -8.0298   -5.7871   23.6773 N   0  0  0  0  0  0  0  0  0  0  0  0
   -5.1677   -5.8105   26.7570 C   0  0  0  0  0  0  0  0  0  0  0  0
   -5.2671   -6.9037   25.9073 C   0  0  0  0  0  0  0  0  0  0  0  0
   -6.2084   -6.8930   24.8853 C   0  0  0  0  0  0  0  0  0  0  0  0
   -7.0552   -5.7983   24.7226 C   0  0  0  0  0  0  0  0  0  0  0  0
   -6.9596   -4.7152   25.5789 C   0  0  0  0  0  0  0  0  0  0  0  0
   -6.0108   -4.7208   26.5942 C   0  0  0  0  0  0  0  0  0  0  0  0
  1  2  1  0  0  0  0
  2  3  2  0  0  0  0
  2 20  1  0  0  0  0
  4  6  1  0  0  0  0
  5  6  2  0  0  0  0
  5 16  1  0  0  0  0
  6  7  1  0  0  0  0
  7  8  1  0  0  0  0
  8  9  1  0  0  0  0
  8 10  2  0  0  0  0
  9 12  1  0  0  0  0
  9 16  2  0  0  0  0
 11 13  1  0  0  0  0
 11 12  1  0  0  0  0
 12 14  1  0  0  0  0
 14 15  1  0  0  0  0
 14 18  1  1  0  0  0
 15 17  1  0  0  0  0
 16 17  1  0  0  0  0
 18 19  1  0  0  0  0
 19 23  1  0  0  0  0
 20 21  2  0  0  0  0
 20 25  1  0  0  0  0
 21 22  1  0  0  0  0
 22 23  2  0  0  0  0
 23 24  1  0  0  0  0
 24 25  2  0  0  0  0
M  END
>  <CHROM.1>
-25.34130838,-52.27999076,-175.93402640,-40.60154311,132.15318780,-8.20101604
-7.29545588,23.57030080,0.29254713,-0.81704421,-0.11034544

>  <Name>
ligand

>  <RI>
0

>  <Rbt.Current_Directory>
/home/itssahil/PROJECTS/Mol_Feturizer/New_Systems/rnas/4LVV

>  <Rbt.Executable>
rbdock ($Id: //depot/dev/client3/rdock/2013.1/src/exe/rbdock.cxx#4 $)

>  <Rbt.Library>
libRbt.so (2013.1, Build901 2013/11/27)

>  <Rbt.Parameter_File>
/export/apps/rDock/src/rDock_2013.1_src/data/scripts/dock_solv.prm

>  <Rbt.Receptor>
prm/blind_docking_60.prm

>  <SCORE>
-12.854

>  <SCORE.INTER>
-11.9833

>  <SCORE.INTER.CONST>
1

>  <SCORE.INTER.POLAR>
0

>  <SCORE.INTER.ROT>
5

>  <SCORE.INTER.SOLV>
12.079

>  <SCORE.INTER.VDW>
-18.9485

>  <SCORE.INTER.norm>
-0.47933

>  <SCORE.INTRA>
-0.87072

>  <SCORE.INTRA.DIHEDRAL>
-0.313043

>  <SCORE.INTRA.DIHEDRAL.0>
3.94806

>  <SCORE.INTRA.POLAR>
0

>  <SCORE.INTRA.POLAR.0>
0

>  <SCORE.INTRA.REPUL>
0

>  <SCORE.INTRA.REPUL.0>
0

>  <SCORE.INTRA.SOLV>
0.271163

>  <SCORE.INTRA.SOLV.lig_0>
-70.9803

>  <SCORE.INTRA.VDW>
-0.84978

>  <SCORE.INTRA.VDW.0>
-0.709409

>  <SCORE.INTRA.norm>
-0.0348288

>  <SCORE.RESTR>
0

>  <SCORE.RESTR.CAVITY>
0

>  <SCORE.RESTR.norm>
0

>  <SCORE.SYSTEM>
0

>  <SCORE.SYSTEM.CONST>
0

>  <SCORE.SYSTEM.DIHEDRAL>
0

>  <SCORE.SYSTEM.SOLV>
0

>  <SCORE.SYSTEM.norm>
0

>  <SCORE.heavy>
25

>  <SCORE.norm>
-0.514159

>  <RMSD>
19.841

$$$$
ligand
 OpenBabel11021811503D
libRbt.so/2013.1/901 2013/11/27
 25 27  0  0  0  0  0  0  0  0999 V2000
  -11.1257   -9.1161   23.0552 N   0  0  0  0  0  0  0  0  0  0  0  0
   -9.7993   -9.0263   22.5282 C   0  0  0  0  0  0  0  0  0  0  0  0
   -9.4573   -9.7122   21.5728 O   0  0  0  0  0  0  0  0  0  0  0  0
   -2.1350   -2.6715   30.6343 N   0  0  0  0  0  0  0  0  0  0  0  0
   -2.4484   -4.0284   28.6783 N   0  0  0  0  0  0  0  0  0  0  0  0
   -2.8050   -3.7285   29.9486 C   0  0  0  0  0  0  0  0  0  0  0  0
   -3.7891   -4.4275   30.5899 N   0  0  0  0  0  0  0  0  0  0  0  0
   -4.4565   -5.4462   29.9906 C   0  0  0  0  0  0  0  0  0  0  0  0
   -4.1226   -5.7815   28.6566 C   0  0  0  0  0  0  0  0  0  0  0  0
   -5.4454   -6.1044   30.6833 O   0  0  0  0  0  0  0  0  0  0  0  0
   -5.1018   -8.1284   28.4788 C   0  0  0  0  0  0  0  0  0  0  0  0
   -4.7321   -6.8607   27.8966 N   0  0  0  0  0  0  0  0  0  0  0  0
   -6.1135   -8.2876   29.1533 O   0  0  0  0  0  0  0  0  0  0  0  0
   -4.8411   -6.6274   26.5199 C   0  0  2  0  0  0  0  0  0  0  0  0
   -3.4368   -6.3387   25.9299 C   0  0  0  0  0  0  0  0  0  0  0  0
   -3.0766   -5.0484   28.0124 C   0  0  0  0  0  0  0  0  0  0  0  0
   -2.7035   -5.3632   26.6306 N   0  0  0  0  0  0  0  0  0  0  0  0
   -5.7803   -5.4713   26.2413 C   0  0  0  0  0  0  0  0  0  0  0  0
   -6.2076   -5.2878   24.8819 N   0  0  0  0  0  0  0  0  0  0  0  0
   -8.8436   -8.0691   23.1520 C   0  0  0  0  0  0  0  0  0  0  0  0
   -7.5824   -8.4830   23.5580 C   0  0  0  0  0  0  0  0  0  0  0  0
   -6.7137   -7.5652   24.1359 C   0  0  0  0  0  0  0  0  0  0  0  0
   -7.1013   -6.2362   24.2949 C   0  0  0  0  0  0  0  0  0  0  0  0
   -8.3558   -5.8258   23.8788 C   0  0  0  0  0  0  0  0  0  0  0  0
   -9.2289   -6.7458   23.3109 C   0  0  0  0  0  0  0  0  0  0  0  0
  1  2  1  0  0  0  0
  2  3  2  0  0  0  0
  2 20  1  0  0  0  0
  4  6  1  0  0  0  0
  5  6  2  0  0  0  0
  5 16  1  0  0  0  0
  6  7  1  0  0  0  0
  7  8  1  0  0  0  0
  8  9  1  0  0  0  0
  8 10  2  0  0  0  0
  9 12  1  0  0  0  0
  9 16  2  0  0  0  0
 11 13  1  0  0  0  0
 11 12  1  0  0  0  0
 12 14  1  0  0  0  0
 14 15  1  0  0  0  0
 14 18  1  1  0  0  0
 15 17  1  0  0  0  0
 16 17  1  0  0  0  0
 18 19  1  0  0  0  0
 19 23  1  0  0  0  0
 20 21  2  0  0  0  0
 20 25  1  0  0  0  0
 21 22  1  0  0  0  0
 22 23  2  0  0  0  0
 23 24  1  0  0  0  0
 24 25  2  0  0  0  0
M  END
>  <CHROM.1>
77.99383184,-167.54385290,69.91941529,-62.74455159,128.58259317,-5.79160532
-6.43540615,26.56786378,2.54238301,-0.73887013,-1.29065198

>  <Name>
ligand

>  <RI>
0

>  <Rbt.Current_Directory>
/home/itssahil/PROJECTS/Mol_Feturizer/New_Systems/rnas/4LVV

>  <Rbt.Executable>
rbdock ($Id: //depot/dev/client3/rdock/2013.1/src/exe/rbdock.cxx#4 $)

>  <Rbt.Library>
libRbt.so (2013.1, Build901 2013/11/27)

>  <Rbt.Parameter_File>
/export/apps/rDock/src/rDock_2013.1_src/data/scripts/dock_solv.prm

>  <Rbt.Receptor>
prm/blind_docking_60.prm

>  <SCORE>
-10.6211

>  <SCORE.INTER>
-9.47832

>  <SCORE.INTER.CONST>
1

>  <SCORE.INTER.POLAR>
0

>  <SCORE.INTER.ROT>
5

>  <SCORE.INTER.SOLV>
17.4123

>  <SCORE.INTER.VDW>
-19.0563

>  <SCORE.INTER.norm>
-0.379133

>  <SCORE.INTRA>
-1.14281

>  <SCORE.INTRA.DIHEDRAL>
0.0448381

>  <SCORE.INTRA.DIHEDRAL.0>
3.94806

>  <SCORE.INTRA.POLAR>
0

>  <SCORE.INTRA.POLAR.0>
0

>  <SCORE.INTRA.REPUL>
0

>  <SCORE.INTRA.REPUL.0>
0

>  <SCORE.INTRA.SOLV>
-0.154216

>  <SCORE.INTRA.SOLV.lig_0>
-70.9803

>  <SCORE.INTRA.VDW>
-1.08812

>  <SCORE.INTRA.VDW.0>
-0.709409

>  <SCORE.INTRA.norm>
-0.0457122

>  <SCORE.RESTR>
0

>  <SCORE.RESTR.CAVITY>
0

>  <SCORE.RESTR.norm>
0

>  <SCORE.SYSTEM>
0

>  <SCORE.SYSTEM.CONST>
0

>  <SCORE.SYSTEM.DIHEDRAL>
0

>  <SCORE.SYSTEM.SOLV>
0

>  <SCORE.SYSTEM.norm>
0

>  <SCORE.heavy>
25

>  <SCORE.norm>
-0.424845

>  <RMSD>
19.850

$$$$
ligand
 OpenBabel11021811503D
libRbt.so/2013.1/901 2013/11/27
 25 27  0  0  0  0  0  0  0  0999 V2000
   -7.0177   -7.9720   20.2715 N   0  0  0  0  0  0  0  0  0  0  0  0
   -7.8609   -7.2230   21.1509 C   0  0  0  0  0  0  0  0  0  0  0  0
   -9.0090   -6.9424   20.8294 O   0  0  0  0  0  0  0  0  0  0  0  0
   -0.3743   -3.3640   30.0986 N   0  0  0  0  0  0  0  0  0  0  0  0
   -1.6295   -5.3488   29.5978 N   0  0  0  0  0  0  0  0  0  0  0  0
   -1.6182   -4.0213   29.8599 C   0  0  0  0  0  0  0  0  0  0  0  0
   -2.7789   -3.3012   29.9101 N   0  0  0  0  0  0  0  0  0  0  0  0
   -3.9913   -3.8733   29.6975 C   0  0  0  0  0  0  0  0  0  0  0  0
   -4.0444   -5.2575   29.4061 C   0  0  0  0  0  0  0  0  0  0  0  0
   -5.1232   -3.0941   29.7494 O   0  0  0  0  0  0  0  0  0  0  0  0
   -6.4884   -5.7743   29.9139 C   0  0  0  0  0  0  0  0  0  0  0  0
   -5.2677   -6.0100   29.1810 N   0  0  0  0  0  0  0  0  0  0  0  0
   -6.5278   -5.6648   31.1346 O   0  0  0  0  0  0  0  0  0  0  0  0
   -5.1538   -7.0663   28.2683 C   0  0  2  0  0  0  0  0  0  0  0  0
   -4.0508   -8.0463   28.7442 C   0  0  0  0  0  0  0  0  0  0  0  0
   -2.8183   -5.9941   29.3775 C   0  0  0  0  0  0  0  0  0  0  0  0
   -2.8310   -7.4283   29.0765 N   0  0  0  0  0  0  0  0  0  0  0  0
   -4.8384   -6.5479   26.8798 C   0  0  0  0  0  0  0  0  0  0  0  0
   -5.8272   -5.7166   26.2510 N   0  0  0  0  0  0  0  0  0  0  0  0
   -7.3229   -6.8040   22.4752 C   0  0  0  0  0  0  0  0  0  0  0  0
   -7.0598   -5.4686   22.7479 C   0  0  0  0  0  0  0  0  0  0  0  0
   -6.5590   -5.1101   23.9935 C   0  0  0  0  0  0  0  0  0  0  0  0
   -6.3349   -6.0826   24.9661 C   0  0  0  0  0  0  0  0  0  0  0  0
   -6.6089   -7.4114   24.6932 C   0  0  0  0  0  0  0  0  0  0  0  0
   -7.0993   -7.7717   23.4438 C   0  0  0  0  0  0  0  0  0  0  0  0
  1  2  1  0  0  0  0
  2  3  2  0  0  0  0
  2 20  1  0  0  0  0
  4  6  1  0  0  0  0
  5  6  2  0  0  0  0
  5 16  1  0  0  0  0
  6  7  1  0  0  0  0
  7  8  1  0  0  0  0
  8  9  1  0  0  0  0
  8 10  2  0  0  0  0
  9 12  1  0  0  0  0
  9 16  2  0  0  0  0
 11 13  1  0  0  0  0
 11 12  1  0  0  0  0
 12 14  1  0  0  0  0
 14 15  1  0  0  0  0
 14 18  1  6  0  0  0
 15 17  1  0  0  0  0
 16 17  1  0  0  0  0
 18 19  1  0  0  0  0
 19 23  1  0  0  0  0
 20 21  2  0  0  0  0
 20 25  1  0  0  0  0
 21 22  1  0  0  0  0
 22 23  2  0  0  0  0
 23 24  1  0  0  0  0
 24 25  2  0  0  0  0
M  END
>  <CHROM.1>
-47.41037663,-63.63344686,-124.45167461,-139.53577074,110.68737159,-5.13157095
-5.87542177,26.95378245,-2.08770428,0.32629224,1.48101858

>  <Name>
ligand

>  <RI>
0

>  <Rbt.Current_Directory>
/home/itssahil/PROJECTS/Mol_Feturizer/New_Systems/rnas/4LVV

>  <Rbt.Executable>
rbdock ($Id: //depot/dev/client3/rdock/2013.1/src/exe/rbdock.cxx#4 $)

>  <Rbt.Library>
libRbt.so (2013.1, Build901 2013/11/27)

>  <Rbt.Parameter_File>
/export/apps/rDock/src/rDock_2013.1_src/data/scripts/dock_solv.prm

>  <Rbt.Receptor>
prm/blind_docking_100.prm

>  <SCORE>
-10.0849

>  <SCORE.INTER>
-9.45892

>  <SCORE.INTER.CONST>
1

>  <SCORE.INTER.POLAR>
0

>  <SCORE.INTER.ROT>
5

>  <SCORE.INTER.SOLV>
13.119

>  <SCORE.INTER.VDW>
-17.6123

>  <SCORE.INTER.norm>
-0.378357

>  <SCORE.INTRA>
-0.625984

>  <SCORE.INTRA.DIHEDRAL>
0.633824

>  <SCORE.INTRA.DIHEDRAL.0>
3.94806

>  <SCORE.INTRA.POLAR>
0

>  <SCORE.INTRA.POLAR.0>
0

>  <SCORE.INTRA.REPUL>
0

>  <SCORE.INTRA.REPUL.0>
0

>  <SCORE.INTRA.SOLV>
-0.0310702

>  <SCORE.INTRA.SOLV.lig_0>
-70.9803

>  <SCORE.INTRA.VDW>
-0.927361

>  <SCORE.INTRA.VDW.0>
-0.709409

>  <SCORE.INTRA.norm>
-0.0250394

>  <SCORE.RESTR>
0

>  <SCORE.RESTR.CAVITY>
0

>  <SCORE.RESTR.norm>
0

>  <SCORE.SYSTEM>
0

>  <SCORE.SYSTEM.CONST>
0

>  <SCORE.SYSTEM.DIHEDRAL>
0

>  <SCORE.SYSTEM.SOLV>
0

>  <SCORE.SYSTEM.norm>
0

>  <SCORE.heavy>
25

>  <SCORE.norm>
-0.403396

>  <RMSD>
19.863

$$$$
ligand
 OpenBabel11021811503D
libRbt.so/2013.1/901 2013/11/27
 25 27  0  0  0  0  0  0  0  0999 V2000
   -6.0720   -4.0188   29.4528 N   0  0  0  0  0  0  0  0  0  0  0  0
   -5.4372   -3.7606   28.1975 C   0  0  0  0  0  0  0  0  0  0  0  0
   -4.6620   -2.8210   28.0694 O   0  0  0  0  0  0  0  0  0  0  0  0
   -3.0745   -5.3464   20.1907 N   0  0  0  0  0  0  0  0  0  0  0  0
   -5.3003   -5.3525   21.0913 N   0  0  0  0  0  0  0  0  0  0  0  0
   -4.2991   -6.0218   20.4746 C   0  0  0  0  0  0  0  0  0  0  0  0
   -4.4442   -7.3310   20.1097 N   0  0  0  0  0  0  0  0  0  0  0  0
   -5.5875   -8.0228   20.3482 C   0  0  0  0  0  0  0  0  0  0  0  0
   -6.6535   -7.3620   21.0044 C   0  0  0  0  0  0  0  0  0  0  0  0
   -5.6694   -9.3418   19.9683 O   0  0  0  0  0  0  0  0  0  0  0  0
   -8.6129   -8.8823   20.4145 C   0  0  0  0  0  0  0  0  0  0  0  0
   -7.9423   -7.9646   21.3038 N   0  0  0  0  0  0  0  0  0  0  0  0
   -9.0191   -9.9839   20.7685 O   0  0  0  0  0  0  0  0  0  0  0  0
   -8.5507   -7.5079   22.4798 C   0  0  2  0  0  0  0  0  0  0  0  0
   -8.7287   -5.9695   22.4080 C   0  0  0  0  0  0  0  0  0  0  0  0
   -6.4854   -5.9865   21.3599 C   0  0  0  0  0  0  0  0  0  0  0  0
   -7.5646   -5.2681   22.0432 N   0  0  0  0  0  0  0  0  0  0  0  0
   -7.7302   -7.8899   23.6951 C   0  0  0  0  0  0  0  0  0  0  0  0
   -6.4385   -7.2761   23.8324 N   0  0  0  0  0  0  0  0  0  0  0  0
   -5.7225   -4.6668   27.0503 C   0  0  0  0  0  0  0  0  0  0  0  0
   -6.7150   -4.3607   26.1294 C   0  0  0  0  0  0  0  0  0  0  0  0
   -6.9561   -5.2266   25.0697 C   0  0  0  0  0  0  0  0  0  0  0  0
   -6.1984   -6.3871   24.9254 C   0  0  0  0  0  0  0  0  0  0  0  0
   -5.2027   -6.6827   25.8401 C   0  0  0  0  0  0  0  0  0  0  0  0
   -4.9687   -5.8226   26.9062 C   0  0  0  0  0  0  0  0  0  0  0  0
  1  2  1  0  0  0  0
  2  3  2  0  0  0  0
  2 20  1  0  0  0  0
  4  6  1  0  0  0  0
  5  6  2  0  0  0  0
  5 16  1  0  0  0  0
  6  7  1  0  0  0  0
  7  8  1  0  0  0  0
  8  9  1  0  0  0  0
  8 10  2  0  0  0  0
  9 12  1  0  0  0  0
  9 16  2  0  0  0  0
 11 13  1  0  0  0  0
 11 12  1  0  0  0  0
 12 14  1  0  0  0  0
 14 15  1  0  0  0  0
 14 18  1  1  0  0  0
 15 17  1  0  0  0  0
 16 17  1  0  0  0  0
 18 19  1  0  0  0  0
 19 23  1  0  0  0  0
 20 21  2  0  0  0  0
 20 25  1  0  0  0  0
 21 22  1  0  0  0  0
 22 23  2  0  0  0  0
 23 24  1  0  0  0  0
 24 25  2  0  0  0  0
M  END
>  <CHROM.1>
127.41015963,66.37623404,114.70018017,-60.43807258,94.39238250,-6.34929575
-6.41973343,23.25637377,1.40086416,0.54110813,1.16957115

>  <Name>
ligand

>  <RI>
0

>  <Rbt.Current_Directory>
/home/itssahil/PROJECTS/Mol_Feturizer/New_Systems/rnas/4LVV

>  <Rbt.Executable>
rbdock ($Id: //depot/dev/client3/rdock/2013.1/src/exe/rbdock.cxx#4 $)

>  <Rbt.Library>
libRbt.so (2013.1, Build901 2013/11/27)

>  <Rbt.Parameter_File>
/export/apps/rDock/src/rDock_2013.1_src/data/scripts/dock_solv.prm

>  <Rbt.Receptor>
prm/blind_docking_80.prm

>  <SCORE>
-10.1195

>  <SCORE.INTER>
-10.0652

>  <SCORE.INTER.CONST>
1

>  <SCORE.INTER.POLAR>
0

>  <SCORE.INTER.ROT>
5

>  <SCORE.INTER.SOLV>
14.5522

>  <SCORE.INTER.VDW>
-18.4942

>  <SCORE.INTER.norm>
-0.402607

>  <SCORE.INTRA>
-0.054275

>  <SCORE.INTRA.DIHEDRAL>
0.622382

>  <SCORE.INTRA.DIHEDRAL.0>
3.94806

>  <SCORE.INTRA.POLAR>
0

>  <SCORE.INTRA.POLAR.0>
0

>  <SCORE.INTRA.REPUL>
0

>  <SCORE.INTRA.REPUL.0>
0

>  <SCORE.INTRA.SOLV>
2.77934

>  <SCORE.INTRA.SOLV.lig_0>
-70.9803

>  <SCORE.INTRA.VDW>
-1.75514

>  <SCORE.INTRA.VDW.0>
-0.709409

>  <SCORE.INTRA.norm>
-0.002171

>  <SCORE.RESTR>
0

>  <SCORE.RESTR.CAVITY>
0

>  <SCORE.RESTR.norm>
0

>  <SCORE.SYSTEM>
0

>  <SCORE.SYSTEM.CONST>
0

>  <SCORE.SYSTEM.DIHEDRAL>
0

>  <SCORE.SYSTEM.SOLV>
0

>  <SCORE.SYSTEM.norm>
0

>  <SCORE.heavy>
25

>  <SCORE.norm>
-0.404778

>  <RMSD>
19.875

$$$$
ligand
 OpenBabel11021811503D
libRbt.so/2013.1/901 2013/11/27
 25 27  0  0  0  0  0  0  0  0999 V2000
   -3.1721   -5.7197   28.0349 N   0  0  0  0  0  0  0  0  0  0  0  0
   -4.4463   -6.3679   27.9961 C   0  0  0  0  0  0  0  0  0  0  0  0
   -4.8077   -7.0941   28.9138 O   0  0  0  0  0  0  0  0  0  0  0  0
  -10.4316  -11.9028   23.1906 N   0  0  0  0  0  0  0  0  0  0  0  0
   -9.4747  -10.2044   21.7889 N   0  0  0  0  0  0  0  0  0  0  0  0
  -10.2911  -10.5329   22.8167 C   0  0  0  0  0  0  0  0  0  0  0  0
  -10.9915   -9.5760   23.4964 N   0  0  0  0  0  0  0  0  0  0  0  0
  -10.9024   -8.2585   23.1819 C   0  0  0  0  0  0  0  0  0  0  0  0
  -10.0477   -7.8724   22.1217 C   0  0  0  0  0  0  0  0  0  0  0  0
  -11.6226   -7.3411   23.9103 O   0  0  0  0  0  0  0  0  0  0  0  0
  -10.9462   -5.5477   21.5863 C   0  0  0  0  0  0  0  0  0  0  0  0
   -9.8698   -6.5064   21.6569 N   0  0  0  0  0  0  0  0  0  0  0  0
  -12.1171   -5.8652   21.4071 O   0  0  0  0  0  0  0  0  0  0  0  0
   -8.5897   -6.2072   21.1737 C   0  0  2  0  0  0  0  0  0  0  0  0
   -8.2335   -7.1741   20.0153 C   0  0  0  0  0  0  0  0  0  0  0  0
   -9.3393   -8.8934   21.4128 C   0  0  0  0  0  0  0  0  0  0  0  0
   -8.4423   -8.5340   20.3110 N   0  0  0  0  0  0  0  0  0  0  0  0
   -7.5590   -6.3041   22.2803 C   0  0  0  0  0  0  0  0  0  0  0  0
   -7.8077   -5.5456   23.4749 N   0  0  0  0  0  0  0  0  0  0  0  0
   -5.3358   -6.1302   26.8252 C   0  0  0  0  0  0  0  0  0  0  0  0
   -5.9929   -4.9182   26.6632 C   0  0  0  0  0  0  0  0  0  0  0  0
   -6.8152   -4.7276   25.5594 C   0  0  0  0  0  0  0  0  0  0  0  0
   -6.9688   -5.7410   24.6154 C   0  0  0  0  0  0  0  0  0  0  0  0
   -6.3032   -6.9438   24.7756 C   0  0  0  0  0  0  0  0  0  0  0  0
   -5.4895   -7.1388   25.8851 C   0  0  0  0  0  0  0  0  0  0  0  0
  1  2  1  0  0  0  0
  2  3  2  0  0  0  0
  2 20  1  0  0  0  0
  4  6  1  0  0  0  0
  5  6  2  0  0  0  0
  5 16  1  0  0  0  0
  6  7  1  0  0  0  0
  7  8  1  0  0  0  0
  8  9  1  0  0  0  0
  8 10  2  0  0  0  0
  9 12  1  0  0  0  0
  9 16  2  0  0  0  0
 11 13  1  0  0  0  0
 11 12  1  0  0  0  0
 12 14  1  0  0  0  0
 14 15  1  0  0  0  0
 14 18  1  1  0  0  0
 15 17  1  0  0  0  0
 16 17  1  0  0  0  0
 18 19  1  0  0  0  0
 19 23  1  0  0  0  0
 20 21  2  0  0  0  0
 20 25  1  0  0  0  0
 21 22  1  0  0  0  0
 22 23  2  0  0  0  0
 23 24  1  0  0  0  0
 24 25  2  0  0  0  0
M  END
>  <CHROM.1>
-28.74102066,-53.52172035,171.49459061,154.78207788,-73.15444806,-8.31402291
-7.24905814,23.68393075,0.05882998,0.82051165,2.68778276

>  <Name>
ligand

>  <RI>
0

>  <Rbt.Current_Directory>
/home/itssahil/PROJECTS/Mol_Feturizer/New_Systems/rnas/4LVV

>  <Rbt.Executable>
rbdock ($Id: //depot/dev/client3/rdock/2013.1/src/exe/rbdock.cxx#4 $)

>  <Rbt.Library>
libRbt.so (2013.1, Build901 2013/11/27)

>  <Rbt.Parameter_File>
/export/apps/rDock/src/rDock_2013.1_src/data/scripts/dock_solv.prm

>  <Rbt.Receptor>
prm/blind_docking_60.prm

>  <SCORE>
-13.2153

>  <SCORE.INTER>
-12.4953

>  <SCORE.INTER.CONST>
1

>  <SCORE.INTER.POLAR>
0

>  <SCORE.INTER.ROT>
5

>  <SCORE.INTER.SOLV>
11.8426

>  <SCORE.INTER.VDW>
-19.2111

>  <SCORE.INTER.norm>
-0.499811

>  <SCORE.INTRA>
-0.720064

>  <SCORE.INTRA.DIHEDRAL>
-0.328868

>  <SCORE.INTRA.DIHEDRAL.0>
3.94806

>  <SCORE.INTRA.POLAR>
0

>  <SCORE.INTRA.POLAR.0>
0

>  <SCORE.INTRA.REPUL>
0

>  <SCORE.INTRA.REPUL.0>
0

>  <SCORE.INTRA.SOLV>
0.215335

>  <SCORE.INTRA.SOLV.lig_0>
-70.9803

>  <SCORE.INTRA.VDW>
-0.663297

>  <SCORE.INTRA.VDW.0>
-0.709409

>  <SCORE.INTRA.norm>
-0.0288026

>  <SCORE.RESTR>
0

>  <SCORE.RESTR.CAVITY>
0

>  <SCORE.RESTR.norm>
0

>  <SCORE.SYSTEM>
0

>  <SCORE.SYSTEM.CONST>
0

>  <SCORE.SYSTEM.DIHEDRAL>
0

>  <SCORE.SYSTEM.SOLV>
0

>  <SCORE.SYSTEM.norm>
0

>  <SCORE.heavy>
25

>  <SCORE.norm>
-0.528614

>  <RMSD>
19.882

$$$$
ligand
 OpenBabel11021811503D
libRbt.so/2013.1/901 2013/11/27
 25 27  0  0  0  0  0  0  0  0999 V2000
   -6.4110   -7.4036   19.5733 N   0  0  0  0  0  0  0  0  0  0  0  0
   -7.4855   -7.1622   20.4858 C   0  0  0  0  0  0  0  0  0  0  0  0
   -8.6504   -7.2306   20.1137 O   0  0  0  0  0  0  0  0  0  0  0  0
   -4.9648   -2.3445   31.6911 N   0  0  0  0  0  0  0  0  0  0  0  0
   -3.8782   -3.7452   30.0716 N   0  0  0  0  0  0  0  0  0  0  0  0
   -4.9680   -3.4815   30.8289 C   0  0  0  0  0  0  0  0  0  0  0  0
   -6.0683   -4.2916   30.7899 N   0  0  0  0  0  0  0  0  0  0  0  0
   -6.1265   -5.3897   29.9941 C   0  0  0  0  0  0  0  0  0  0  0  0
   -5.0118   -5.6918   29.1757 C   0  0  0  0  0  0  0  0  0  0  0  0
   -7.2660   -6.1595   29.9892 O   0  0  0  0  0  0  0  0  0  0  0  0
   -5.4509   -8.1430   28.6306 C   0  0  0  0  0  0  0  0  0  0  0  0
   -4.9199   -6.8440   28.2939 N   0  0  0  0  0  0  0  0  0  0  0  0
   -5.8565   -8.4324   29.7511 O   0  0  0  0  0  0  0  0  0  0  0  0
   -4.1777   -6.6370   27.1243 C   0  0  2  0  0  0  0  0  0  0  0  0
   -2.7427   -6.1818   27.4944 C   0  0  0  0  0  0  0  0  0  0  0  0
   -3.8644   -4.8402   29.2475 C   0  0  0  0  0  0  0  0  0  0  0  0
   -2.6916   -5.1176   28.4138 N   0  0  0  0  0  0  0  0  0  0  0  0
   -4.8470   -5.6080   26.2357 C   0  0  0  0  0  0  0  0  0  0  0  0
   -6.2182   -5.8446   25.8779 N   0  0  0  0  0  0  0  0  0  0  0  0
   -7.1627   -6.8423   21.9044 C   0  0  0  0  0  0  0  0  0  0  0  0
   -7.1385   -7.8372   22.8720 C   0  0  0  0  0  0  0  0  0  0  0  0
   -6.8330   -7.5062   24.1866 C   0  0  0  0  0  0  0  0  0  0  0  0
   -6.5404   -6.1874   24.5283 C   0  0  0  0  0  0  0  0  0  0  0  0
   -6.5553   -5.2006   23.5580 C   0  0  0  0  0  0  0  0  0  0  0  0
   -6.8717   -5.5294   22.2453 C   0  0  0  0  0  0  0  0  0  0  0  0
  1  2  1  0  0  0  0
  2  3  2  0  0  0  0
  2 20  1  0  0  0  0
  4  6  1  0  0  0  0
  5  6  2  0  0  0  0
  5 16  1  0  0  0  0
  6  7  1  0  0  0  0
  7  8  1  0  0  0  0
  8  9  1  0  0  0  0
  8 10  2  0  0  0  0
  9 12  1  0  0  0  0
  9 16  2  0  0  0  0
 11 13  1  0  0  0  0
 11 12  1  0  0  0  0
 12 14  1  0  0  0  0
 14 15  1  0  0  0  0
 14 18  1  6  0  0  0
 15 17  1  0  0  0  0
 16 17  1  0  0  0  0
 18 19  1  0  0  0  0
 19 23  1  0  0  0  0
 20 21  2  0  0  0  0
 20 25  1  0  0  0  0
 21 22  1  0  0  0  0
 22 23  2  0  0  0  0
 23 24  1  0  0  0  0
 24 25  2  0  0  0  0
M  END
>  <CHROM.1>
-10.35938866,-54.38459565,-110.13986396,103.02745163,-94.84647895,-5.70556706
-6.00844186,26.59938918,-2.12816227,1.07414913,1.83727913

>  <Name>
ligand

>  <RI>
0

>  <Rbt.Current_Directory>
/home/itssahil/PROJECTS/Mol_Feturizer/New_Systems/rnas/4LVV

>  <Rbt.Executable>
rbdock ($Id: //depot/dev/client3/rdock/2013.1/src/exe/rbdock.cxx#4 $)

>  <Rbt.Library>
libRbt.so (2013.1, Build901 2013/11/27)

>  <Rbt.Parameter_File>
/export/apps/rDock/src/rDock_2013.1_src/data/scripts/dock_solv.prm

>  <Rbt.Receptor>
prm/blind_docking_60.prm

>  <SCORE>
-11.8684

>  <SCORE.INTER>
-11.0579

>  <SCORE.INTER.CONST>
1

>  <SCORE.INTER.POLAR>
0

>  <SCORE.INTER.ROT>
5

>  <SCORE.INTER.SOLV>
13.6858

>  <SCORE.INTER.VDW>
-18.8672

>  <SCORE.INTER.norm>
-0.442316

>  <SCORE.INTRA>
-0.810521

>  <SCORE.INTRA.DIHEDRAL>
0.623781

>  <SCORE.INTRA.DIHEDRAL.0>
3.94806

>  <SCORE.INTRA.POLAR>
0

>  <SCORE.INTRA.POLAR.0>
0

>  <SCORE.INTRA.REPUL>
0

>  <SCORE.INTRA.REPUL.0>
0

>  <SCORE.INTRA.SOLV>
0.263844

>  <SCORE.INTRA.SOLV.lig_0>
-70.9803

>  <SCORE.INTRA.VDW>
-1.25433

>  <SCORE.INTRA.VDW.0>
-0.709409

>  <SCORE.INTRA.norm>
-0.0324208

>  <SCORE.RESTR>
0

>  <SCORE.RESTR.CAVITY>
0

>  <SCORE.RESTR.norm>
0

>  <SCORE.SYSTEM>
0

>  <SCORE.SYSTEM.CONST>
0

>  <SCORE.SYSTEM.DIHEDRAL>
0

>  <SCORE.SYSTEM.SOLV>
0

>  <SCORE.SYSTEM.norm>
0

>  <SCORE.heavy>
25

>  <SCORE.norm>
-0.474737

>  <RMSD>
19.890

$$$$
ligand
 OpenBabel11021811503D
libRbt.so/2013.1/901 2013/11/27
 25 27  0  0  0  0  0  0  0  0999 V2000
   -4.6915   -7.1396   29.0040 N   0  0  0  0  0  0  0  0  0  0  0  0
   -4.3214   -6.2625   27.9368 C   0  0  0  0  0  0  0  0  0  0  0  0
   -3.2360   -5.6950   27.9404 O   0  0  0  0  0  0  0  0  0  0  0  0
  -10.3125  -11.9300   23.0838 N   0  0  0  0  0  0  0  0  0  0  0  0
   -9.4221  -10.1592   21.7284 N   0  0  0  0  0  0  0  0  0  0  0  0
  -10.2179  -10.5453   22.7524 C   0  0  0  0  0  0  0  0  0  0  0  0
  -10.9407   -9.6324   23.4684 N   0  0  0  0  0  0  0  0  0  0  0  0
  -10.8953   -8.3036   23.1952 C   0  0  0  0  0  0  0  0  0  0  0  0
  -10.0633   -7.8579   22.1404 C   0  0  0  0  0  0  0  0  0  0  0  0
  -11.6362   -7.4324   23.9588 O   0  0  0  0  0  0  0  0  0  0  0  0
  -11.0382   -5.5465   21.6872 C   0  0  0  0  0  0  0  0  0  0  0  0
   -9.9322   -6.4731   21.7177 N   0  0  0  0  0  0  0  0  0  0  0  0
  -10.9221   -4.3540   21.9485 O   0  0  0  0  0  0  0  0  0  0  0  0
   -8.6667   -6.1191   21.2329 C   0  0  2  0  0  0  0  0  0  0  0  0
   -8.2923   -7.0375   20.0413 C   0  0  0  0  0  0  0  0  0  0  0  0
   -9.3308   -8.8335   21.3931 C   0  0  0  0  0  0  0  0  0  0  0  0
   -8.4562   -8.4118   20.2954 N   0  0  0  0  0  0  0  0  0  0  0  0
   -7.6227   -6.2188   22.3267 C   0  0  0  0  0  0  0  0  0  0  0  0
   -7.9287   -5.5925   23.5830 N   0  0  0  0  0  0  0  0  0  0  0  0
   -5.2743   -6.0640   26.8092 C   0  0  0  0  0  0  0  0  0  0  0  0
   -5.9261   -4.8514   26.6314 C   0  0  0  0  0  0  0  0  0  0  0  0
   -6.8086   -4.6979   25.5691 C   0  0  0  0  0  0  0  0  0  0  0  0
   -7.0276   -5.7493   24.6813 C   0  0  0  0  0  0  0  0  0  0  0  0
   -6.3673   -6.9530   24.8564 C   0  0  0  0  0  0  0  0  0  0  0  0
   -5.4931   -7.1105   25.9251 C   0  0  0  0  0  0  0  0  0  0  0  0
  1  2  1  0  0  0  0
  2  3  2  0  0  0  0
  2 20  1  0  0  0  0
  4  6  1  0  0  0  0
  5  6  2  0  0  0  0
  5 16  1  0  0  0  0
  6  7  1  0  0  0  0
  7  8  1  0  0  0  0
  8  9  1  0  0  0  0
  8 10  2  0  0  0  0
  9 12  1  0  0  0  0
  9 16  2  0  0  0  0
 11 13  1  0  0  0  0
 11 12  1  0  0  0  0
 12 14  1  0  0  0  0
 14 15  1  0  0  0  0
 14 18  1  1  0  0  0
 15 17  1  0  0  0  0
 16 17  1  0  0  0  0
 18 19  1  0  0  0  0
 19 23  1  0  0  0  0
 20 21  2  0  0  0  0
 20 25  1  0  0  0  0
 21 22  1  0  0  0  0
 22 23  2  0  0  0  0
 23 24  1  0  0  0  0
 24 25  2  0  0  0  0
M  END
>  <CHROM.1>
144.92045061,-48.86245528,174.94897143,143.53047669,110.44162298,-8.24925539
-7.14695715,23.71543324,-0.05074473,0.82799191,2.82110620

>  <Name>
ligand

>  <RI>
0

>  <Rbt.Current_Directory>
/home/itssahil/PROJECTS/Mol_Feturizer/New_Systems/rnas/4LVV

>  <Rbt.Executable>
rbdock ($Id: //depot/dev/client3/rdock/2013.1/src/exe/rbdock.cxx#4 $)

>  <Rbt.Library>
libRbt.so (2013.1, Build901 2013/11/27)

>  <Rbt.Parameter_File>
/export/apps/rDock/src/rDock_2013.1_src/data/scripts/dock_solv.prm

>  <Rbt.Receptor>
prm/blind_docking_60.prm

>  <SCORE>
-13.3375

>  <SCORE.INTER>
-12.6859

>  <SCORE.INTER.CONST>
1

>  <SCORE.INTER.POLAR>
0

>  <SCORE.INTER.ROT>
5

>  <SCORE.INTER.SOLV>
12.2649

>  <SCORE.INTER.VDW>
-19.4789

>  <SCORE.INTER.norm>
-0.507435

>  <SCORE.INTRA>
-0.651608

>  <SCORE.INTRA.DIHEDRAL>
-0.362957

>  <SCORE.INTRA.DIHEDRAL.0>
3.94806

>  <SCORE.INTRA.POLAR>
0

>  <SCORE.INTRA.POLAR.0>
0

>  <SCORE.INTRA.REPUL>
0

>  <SCORE.INTRA.REPUL.0>
0

>  <SCORE.INTRA.SOLV>
0.59106

>  <SCORE.INTRA.SOLV.lig_0>
-70.9803

>  <SCORE.INTRA.VDW>
-0.765659

>  <SCORE.INTRA.VDW.0>
-0.709409

>  <SCORE.INTRA.norm>
-0.0260643

>  <SCORE.RESTR>
0

>  <SCORE.RESTR.CAVITY>
0

>  <SCORE.RESTR.norm>
0

>  <SCORE.SYSTEM>
0

>  <SCORE.SYSTEM.CONST>
0

>  <SCORE.SYSTEM.DIHEDRAL>
0

>  <SCORE.SYSTEM.SOLV>
0

>  <SCORE.SYSTEM.norm>
0

>  <SCORE.heavy>
25

>  <SCORE.norm>
-0.5335

>  <RMSD>
19.895

$$$$
ligand
 OpenBabel11021811503D
libRbt.so/2013.1/901 2013/11/27
 25 27  0  0  0  0  0  0  0  0999 V2000
   -7.2400   -5.9296   25.2090 N   0  0  0  0  0  0  0  0  0  0  0  0
   -6.8491   -6.8915   24.2256 C   0  0  0  0  0  0  0  0  0  0  0  0
   -7.1090   -8.0793   24.3735 O   0  0  0  0  0  0  0  0  0  0  0  0
   -0.8305   -3.4443   13.5460 N   0  0  0  0  0  0  0  0  0  0  0  0
   -2.1728   -5.1459   14.5794 N   0  0  0  0  0  0  0  0  0  0  0  0
   -1.1753   -4.2373   14.6810 C   0  0  0  0  0  0  0  0  0  0  0  0
   -0.4854   -4.0733   15.8496 N   0  0  0  0  0  0  0  0  0  0  0  0
   -0.7647   -4.8031   16.9595 C   0  0  0  0  0  0  0  0  0  0  0  0
   -1.8111   -5.7543   16.8981 C   0  0  0  0  0  0  0  0  0  0  0  0
   -0.0434   -4.5842   18.1097 O   0  0  0  0  0  0  0  0  0  0  0  0
   -1.2644   -7.2187   18.9118 C   0  0  0  0  0  0  0  0  0  0  0  0
   -2.2063   -6.6227   17.9950 N   0  0  0  0  0  0  0  0  0  0  0  0
   -1.5973   -7.9716   19.8207 O   0  0  0  0  0  0  0  0  0  0  0  0
   -3.5709   -6.9348   18.0413 C   0  0  2  0  0  0  0  0  0  0  0  0
   -3.9966   -7.5989   16.7066 C   0  0  0  0  0  0  0  0  0  0  0  0
   -2.5066   -5.9215   15.6591 C   0  0  0  0  0  0  0  0  0  0  0  0
   -3.5981   -6.8939   15.5558 N   0  0  0  0  0  0  0  0  0  0  0  0
   -4.3997   -5.6934   18.3029 C   0  0  0  0  0  0  0  0  0  0  0  0
   -4.1896   -5.0175   19.5532 N   0  0  0  0  0  0  0  0  0  0  0  0
   -6.1339   -6.4203   23.0069 C   0  0  0  0  0  0  0  0  0  0  0  0
   -5.1149   -7.1746   22.4416 C   0  0  0  0  0  0  0  0  0  0  0  0
   -4.4677   -6.7076   21.3041 C   0  0  0  0  0  0  0  0  0  0  0  0
   -4.8478   -5.4972   20.7276 C   0  0  0  0  0  0  0  0  0  0  0  0
   -5.8716   -4.7538   21.2886 C   0  0  0  0  0  0  0  0  0  0  0  0
   -6.5115   -5.2152   22.4326 C   0  0  0  0  0  0  0  0  0  0  0  0
  1  2  1  0  0  0  0
  2  3  2  0  0  0  0
  2 20  1  0  0  0  0
  4  6  1  0  0  0  0
  5  6  2  0  0  0  0
  5 16  1  0  0  0  0
  6  7  1  0  0  0  0
  7  8  1  0  0  0  0
  8  9  1  0  0  0  0
  8 10  2  0  0  0  0
  9 12  1  0  0  0  0
  9 16  2  0  0  0  0
 11 13  1  0  0  0  0
 11 12  1  0  0  0  0
 12 14  1  0  0  0  0
 14 15  1  0  0  0  0
 14 18  1  6  0  0  0
 15 17  1  0  0  0  0
 16 17  1  0  0  0  0
 18 19  1  0  0  0  0
 19 23  1  0  0  0  0
 20 21  2  0  0  0  0
 20 25  1  0  0  0  0
 21 22  1  0  0  0  0
 22 23  2  0  0  0  0
 23 24  1  0  0  0  0
 24 25  2  0  0  0  0
M  END
>  <CHROM.1>
-178.54071013,-62.75267100,-82.26691821,70.04923799,142.78712277,-3.49690643
-5.96935587,19.02030652,2.22123492,-0.51262037,2.12254531

>  <Name>
ligand

>  <RI>
0

>  <Rbt.Current_Directory>
/home/itssahil/PROJECTS/Mol_Feturizer/New_Systems/rnas/4LVV

>  <Rbt.Executable>
rbdock ($Id: //depot/dev/client3/rdock/2013.1/src/exe/rbdock.cxx#4 $)

>  <Rbt.Library>
libRbt.so (2013.1, Build901 2013/11/27)

>  <Rbt.Parameter_File>
/export/apps/rDock/src/rDock_2013.1_src/data/scripts/dock_solv.prm

>  <Rbt.Receptor>
prm/blind_docking_40.prm

>  <SCORE>
-9.85851

>  <SCORE.INTER>
-8.47126

>  <SCORE.INTER.CONST>
1

>  <SCORE.INTER.POLAR>
0

>  <SCORE.INTER.ROT>
5

>  <SCORE.INTER.SOLV>
18.2778

>  <SCORE.INTER.VDW>
-18.6734

>  <SCORE.INTER.norm>
-0.33885

>  <SCORE.INTRA>
-1.3874

>  <SCORE.INTRA.DIHEDRAL>
-0.336706

>  <SCORE.INTRA.DIHEDRAL.0>
3.94806

>  <SCORE.INTRA.POLAR>
0

>  <SCORE.INTRA.POLAR.0>
0

>  <SCORE.INTRA.REPUL>
0

>  <SCORE.INTRA.REPUL.0>
0

>  <SCORE.INTRA.SOLV>
0.149893

>  <SCORE.INTRA.SOLV.lig_0>
-70.9803

>  <SCORE.INTRA.VDW>
-1.29399

>  <SCORE.INTRA.VDW.0>
-0.709409

>  <SCORE.INTRA.norm>
-0.055496

>  <SCORE.RESTR>
0.000147091

>  <SCORE.RESTR.CAVITY>
0.000147091

>  <SCORE.RESTR.norm>
5.88362e-06

>  <SCORE.SYSTEM>
0

>  <SCORE.SYSTEM.CONST>
0

>  <SCORE.SYSTEM.DIHEDRAL>
0

>  <SCORE.SYSTEM.SOLV>
0

>  <SCORE.SYSTEM.norm>
0

>  <SCORE.heavy>
25

>  <SCORE.norm>
-0.394341

>  <RMSD>
19.931

$$$$
ligand
 OpenBabel11021811503D
libRbt.so/2013.1/901 2013/11/27
 25 27  0  0  0  0  0  0  0  0999 V2000
   -8.9867   -7.2117   20.6041 N   0  0  0  0  0  0  0  0  0  0  0  0
   -7.5956   -7.1615   20.9326 C   0  0  0  0  0  0  0  0  0  0  0  0
   -6.7427   -7.3712   20.0790 O   0  0  0  0  0  0  0  0  0  0  0  0
   -5.2034   -2.0667   31.8460 N   0  0  0  0  0  0  0  0  0  0  0  0
   -3.9612   -3.4132   30.2939 N   0  0  0  0  0  0  0  0  0  0  0  0
   -5.0840   -3.2283   31.0259 C   0  0  0  0  0  0  0  0  0  0  0  0
   -6.1018   -4.1404   31.0012 N   0  0  0  0  0  0  0  0  0  0  0  0
   -6.0418   -5.2663   30.2453 C   0  0  0  0  0  0  0  0  0  0  0  0
   -4.8896   -5.4892   29.4539 C   0  0  0  0  0  0  0  0  0  0  0  0
   -7.1030   -6.1408   30.2527 O   0  0  0  0  0  0  0  0  0  0  0  0
   -5.0850   -7.9886   28.9925 C   0  0  0  0  0  0  0  0  0  0  0  0
   -4.6738   -6.6575   28.6160 N   0  0  0  0  0  0  0  0  0  0  0  0
   -6.2546   -8.2985   29.1920 O   0  0  0  0  0  0  0  0  0  0  0  0
   -3.9345   -6.4217   27.4500 C   0  0  2  0  0  0  0  0  0  0  0  0
   -2.5556   -5.8191   27.8231 C   0  0  0  0  0  0  0  0  0  0  0  0
   -3.8296   -4.5301   29.5105 C   0  0  0  0  0  0  0  0  0  0  0  0
   -2.6215   -4.7234   28.7037 N   0  0  0  0  0  0  0  0  0  0  0  0
   -4.6828   -5.4929   26.5153 C   0  0  0  0  0  0  0  0  0  0  0  0
   -6.0587   -5.8058   26.2445 N   0  0  0  0  0  0  0  0  0  0  0  0
   -7.2009   -6.8320   22.3306 C   0  0  0  0  0  0  0  0  0  0  0  0
   -7.0808   -7.8269   23.2911 C   0  0  0  0  0  0  0  0  0  0  0  0
   -6.7099   -7.4868   24.5863 C   0  0  0  0  0  0  0  0  0  0  0  0
   -6.4479   -6.1583   24.9152 C   0  0  0  0  0  0  0  0  0  0  0  0
   -6.5585   -5.1712   23.9516 C   0  0  0  0  0  0  0  0  0  0  0  0
   -6.9402   -5.5095   22.6589 C   0  0  0  0  0  0  0  0  0  0  0  0
  1  2  1  0  0  0  0
  2  3  2  0  0  0  0
  2 20  1  0  0  0  0
  4  6  1  0  0  0  0
  5  6  2  0  0  0  0
  5 16  1  0  0  0  0
  6  7  1  0  0  0  0
  7  8  1  0  0  0  0
  8  9  1  0  0  0  0
  8 10  2  0  0  0  0
  9 12  1  0  0  0  0
  9 16  2  0  0  0  0
 11 13  1  0  0  0  0
 11 12  1  0  0  0  0
 12 14  1  0  0  0  0
 14 15  1  0  0  0  0
 14 18  1  6  0  0  0
 15 17  1  0  0  0  0
 16 17  1  0  0  0  0
 18 19  1  0  0  0  0
 19 23  1  0  0  0  0
 20 21  2  0  0  0  0
 20 25  1  0  0  0  0
 21 22  1  0  0  0  0
 22 23  2  0  0  0  0
 23 24  1  0  0  0  0
 24 25  2  0  0  0  0
M  END
>  <CHROM.1>
61.63024273,-48.84109489,-115.47245123,104.19126243,87.77729680,-5.68233114
-5.87041756,26.88595863,2.08655286,-0.98859218,-1.40510463

>  <Name>
ligand

>  <RI>
0

>  <Rbt.Current_Directory>
/home/itssahil/PROJECTS/Mol_Feturizer/New_Systems/rnas/4LVV

>  <Rbt.Executable>
rbdock ($Id: //depot/dev/client3/rdock/2013.1/src/exe/rbdock.cxx#4 $)

>  <Rbt.Library>
libRbt.so (2013.1, Build901 2013/11/27)

>  <Rbt.Parameter_File>
/export/apps/rDock/src/rDock_2013.1_src/data/scripts/dock_solv.prm

>  <Rbt.Receptor>
prm/blind_docking_60.prm

>  <SCORE>
-11.313

>  <SCORE.INTER>
-10.996

>  <SCORE.INTER.CONST>
1

>  <SCORE.INTER.POLAR>
0

>  <SCORE.INTER.ROT>
5

>  <SCORE.INTER.SOLV>
13.3079

>  <SCORE.INTER.VDW>
-18.6999

>  <SCORE.INTER.norm>
-0.439838

>  <SCORE.INTRA>
-0.317069

>  <SCORE.INTRA.DIHEDRAL>
0.952512

>  <SCORE.INTRA.DIHEDRAL.0>
3.94806

>  <SCORE.INTRA.POLAR>
0

>  <SCORE.INTRA.POLAR.0>
0

>  <SCORE.INTRA.REPUL>
0

>  <SCORE.INTRA.REPUL.0>
0

>  <SCORE.INTRA.SOLV>
0.716616

>  <SCORE.INTRA.SOLV.lig_0>
-70.9803

>  <SCORE.INTRA.VDW>
-1.15163

>  <SCORE.INTRA.VDW.0>
-0.709409

>  <SCORE.INTRA.norm>
-0.0126828

>  <SCORE.RESTR>
0

>  <SCORE.RESTR.CAVITY>
0

>  <SCORE.RESTR.norm>
0

>  <SCORE.SYSTEM>
0

>  <SCORE.SYSTEM.CONST>
0

>  <SCORE.SYSTEM.DIHEDRAL>
0

>  <SCORE.SYSTEM.SOLV>
0

>  <SCORE.SYSTEM.norm>
0

>  <SCORE.heavy>
25

>  <SCORE.norm>
-0.452521

>  <RMSD>
20.011

$$$$
ligand
 OpenBabel11021811503D
libRbt.so/2013.1/901 2013/11/27
 25 27  0  0  0  0  0  0  0  0999 V2000
   -8.4112   -7.2173   20.4034 N   0  0  0  0  0  0  0  0  0  0  0  0
   -7.1785   -7.5494   21.0481 C   0  0  0  0  0  0  0  0  0  0  0  0
   -6.3492   -8.2554   20.4879 O   0  0  0  0  0  0  0  0  0  0  0  0
   -5.5962   -1.9308   32.0508 N   0  0  0  0  0  0  0  0  0  0  0  0
   -4.2982   -3.2859   30.5526 N   0  0  0  0  0  0  0  0  0  0  0  0
   -5.4593   -3.0803   31.2164 C   0  0  0  0  0  0  0  0  0  0  0  0
   -6.4997   -3.9603   31.1094 N   0  0  0  0  0  0  0  0  0  0  0  0
   -6.4251   -5.0734   30.3361 C   0  0  0  0  0  0  0  0  0  0  0  0
   -5.2321   -5.3168   29.6141 C   0  0  0  0  0  0  0  0  0  0  0  0
   -7.5097   -5.9151   30.2591 O   0  0  0  0  0  0  0  0  0  0  0  0
   -5.4711   -7.8002   29.0908 C   0  0  0  0  0  0  0  0  0  0  0  0
   -4.9980   -6.4755   28.7679 N   0  0  0  0  0  0  0  0  0  0  0  0
   -5.7035   -8.6550   28.2428 O   0  0  0  0  0  0  0  0  0  0  0  0
   -4.1798   -6.2410   27.6556 C   0  0  2  0  0  0  0  0  0  0  0  0
   -2.8102   -5.6877   28.1266 C   0  0  0  0  0  0  0  0  0  0  0  0
   -4.1501   -4.3917   29.7565 C   0  0  0  0  0  0  0  0  0  0  0  0
   -2.8995   -4.6069   29.0234 N   0  0  0  0  0  0  0  0  0  0  0  0
   -4.8399   -5.2727   26.6949 C   0  0  0  0  0  0  0  0  0  0  0  0
   -6.1875   -5.5662   26.2923 N   0  0  0  0  0  0  0  0  0  0  0  0
   -6.9127   -7.0061   22.4093 C   0  0  0  0  0  0  0  0  0  0  0  0
   -6.7649   -5.6415   22.6162 C   0  0  0  0  0  0  0  0  0  0  0  0
   -6.5184   -5.1663   23.8985 C   0  0  0  0  0  0  0  0  0  0  0  0
   -6.4332   -6.0521   24.9708 C   0  0  0  0  0  0  0  0  0  0  0  0
   -6.5920   -7.4109   24.7613 C   0  0  0  0  0  0  0  0  0  0  0  0
   -6.8274   -7.8875   23.4773 C   0  0  0  0  0  0  0  0  0  0  0  0
  1  2  1  0  0  0  0
  2  3  2  0  0  0  0
  2 20  1  0  0  0  0
  4  6  1  0  0  0  0
  5  6  2  0  0  0  0
  5 16  1  0  0  0  0
  6  7  1  0  0  0  0
  7  8  1  0  0  0  0
  8  9  1  0  0  0  0
  8 10  2  0  0  0  0
  9 12  1  0  0  0  0
  9 16  2  0  0  0  0
 11 13  1  0  0  0  0
 11 12  1  0  0  0  0
 12 14  1  0  0  0  0
 14 15  1  0  0  0  0
 14 18  1  6  0  0  0
 15 17  1  0  0  0  0
 16 17  1  0  0  0  0
 18 19  1  0  0  0  0
 19 23  1  0  0  0  0
 20 21  2  0  0  0  0
 20 25  1  0  0  0  0
 21 22  1  0  0  0  0
 22 23  2  0  0  0  0
 23 24  1  0  0  0  0
 24 25  2  0  0  0  0
M  END
>  <CHROM.1>
153.70087153,-51.14142104,-106.52150806,-81.99906257,-65.12080968,-5.75773659
-5.84531175,26.97359911,2.34523082,1.28489232,-2.65900389

>  <Name>
ligand

>  <RI>
0

>  <Rbt.Current_Directory>
/home/itssahil/PROJECTS/Mol_Feturizer/New_Systems/rnas/4LVV

>  <Rbt.Executable>
rbdock ($Id: //depot/dev/client3/rdock/2013.1/src/exe/rbdock.cxx#4 $)

>  <Rbt.Library>
libRbt.so (2013.1, Build901 2013/11/27)

>  <Rbt.Parameter_File>
/export/apps/rDock/src/rDock_2013.1_src/data/scripts/dock_solv.prm

>  <Rbt.Receptor>
prm/blind_docking_40.prm

>  <SCORE>
-11.1976

>  <SCORE.INTER>
-10.261

>  <SCORE.INTER.CONST>
1

>  <SCORE.INTER.POLAR>
0

>  <SCORE.INTER.ROT>
5

>  <SCORE.INTER.SOLV>
13.325

>  <SCORE.INTER.VDW>
-18.2157

>  <SCORE.INTER.norm>
-0.41044

>  <SCORE.INTRA>
-0.936612

>  <SCORE.INTRA.DIHEDRAL>
0.478652

>  <SCORE.INTRA.DIHEDRAL.0>
3.94806

>  <SCORE.INTRA.POLAR>
0

>  <SCORE.INTRA.POLAR.0>
0

>  <SCORE.INTRA.REPUL>
0

>  <SCORE.INTRA.REPUL.0>
0

>  <SCORE.INTRA.SOLV>
0.500133

>  <SCORE.INTRA.SOLV.lig_0>
-70.9803

>  <SCORE.INTRA.VDW>
-1.426

>  <SCORE.INTRA.VDW.0>
-0.709409

>  <SCORE.INTRA.norm>
-0.0374645

>  <SCORE.RESTR>
0

>  <SCORE.RESTR.CAVITY>
0

>  <SCORE.RESTR.norm>
0

>  <SCORE.SYSTEM>
0

>  <SCORE.SYSTEM.CONST>
0

>  <SCORE.SYSTEM.DIHEDRAL>
0

>  <SCORE.SYSTEM.SOLV>
0

>  <SCORE.SYSTEM.norm>
0

>  <SCORE.heavy>
25

>  <SCORE.norm>
-0.447905

>  <RMSD>
20.025

$$$$
ligand
 OpenBabel11021811503D
libRbt.so/2013.1/901 2013/11/27
 25 27  0  0  0  0  0  0  0  0999 V2000
   -3.3767   -5.0617   28.6334 N   0  0  0  0  0  0  0  0  0  0  0  0
   -4.3035   -6.0894   28.2724 C   0  0  0  0  0  0  0  0  0  0  0  0
   -4.4169   -7.0989   28.9566 O   0  0  0  0  0  0  0  0  0  0  0  0
   -9.5002  -12.1897   21.3991 N   0  0  0  0  0  0  0  0  0  0  0  0
   -9.0331   -9.8633   21.0318 N   0  0  0  0  0  0  0  0  0  0  0  0
   -9.7999  -10.8118   21.6177 C   0  0  0  0  0  0  0  0  0  0  0  0
  -10.8629  -10.4727   22.4071 N   0  0  0  0  0  0  0  0  0  0  0  0
  -11.1993   -9.1795   22.6458 C   0  0  0  0  0  0  0  0  0  0  0  0
  -10.4129   -8.1572   22.0624 C   0  0  0  0  0  0  0  0  0  0  0  0
  -12.2728   -8.9009   23.4587 O   0  0  0  0  0  0  0  0  0  0  0  0
  -11.9914   -6.1629   22.2343 C   0  0  0  0  0  0  0  0  0  0  0  0
  -10.6658   -6.7330   22.2079 N   0  0  0  0  0  0  0  0  0  0  0  0
  -12.5686   -5.7597   21.2303 O   0  0  0  0  0  0  0  0  0  0  0  0
   -9.5213   -5.9258   22.2134 C   0  0  2  0  0  0  0  0  0  0  0  0
   -8.7188   -6.1547   20.9068 C   0  0  0  0  0  0  0  0  0  0  0  0
   -9.3168   -8.5364   21.2249 C   0  0  0  0  0  0  0  0  0  0  0  0
   -8.4770   -7.5078   20.6051 N   0  0  0  0  0  0  0  0  0  0  0  0
   -8.6583   -6.2215   23.4234 C   0  0  0  0  0  0  0  0  0  0  0  0
   -7.4564   -5.4491   23.5750 N   0  0  0  0  0  0  0  0  0  0  0  0
   -5.1429   -5.9023   27.0562 C   0  0  0  0  0  0  0  0  0  0  0  0
   -5.9851   -4.8059   26.9327 C   0  0  0  0  0  0  0  0  0  0  0  0
   -6.7548   -4.6598   25.7850 C   0  0  0  0  0  0  0  0  0  0  0  0
   -6.6720   -5.6003   24.7601 C   0  0  0  0  0  0  0  0  0  0  0  0
   -5.8228   -6.6862   24.8832 C   0  0  0  0  0  0  0  0  0  0  0  0
   -5.0612   -6.8385   26.0356 C   0  0  0  0  0  0  0  0  0  0  0  0
  1  2  1  0  0  0  0
  2  3  2  0  0  0  0
  2 20  1  0  0  0  0
  4  6  1  0  0  0  0
  5  6  2  0  0  0  0
  5 16  1  0  0  0  0
  6  7  1  0  0  0  0
  7  8  1  0  0  0  0
  8  9  1  0  0  0  0
  8 10  2  0  0  0  0
  9 12  1  0  0  0  0
  9 16  2  0  0  0  0
 11 13  1  0  0  0  0
 11 12  1  0  0  0  0
 12 14  1  0  0  0  0
 14 15  1  0  0  0  0
 14 18  1  1  0  0  0
 15 17  1  0  0  0  0
 16 17  1  0  0  0  0
 18 19  1  0  0  0  0
 19 23  1  0  0  0  0
 20 21  2  0  0  0  0
 20 25  1  0  0  0  0
 21 22  1  0  0  0  0
 22 23  2  0  0  0  0
 23 24  1  0  0  0  0
 24 25  2  0  0  0  0
M  END
>  <CHROM.1>
-91.79135997,-178.93681157,174.22629357,-100.95617740,-57.94994632,-8.40822852
-7.24844018,23.70052990,-0.41810393,0.73526693,-3.00920839

>  <Name>
ligand

>  <RI>
0

>  <Rbt.Current_Directory>
/home/itssahil/PROJECTS/Mol_Feturizer/New_Systems/rnas/4LVV

>  <Rbt.Executable>
rbdock ($Id: //depot/dev/client3/rdock/2013.1/src/exe/rbdock.cxx#4 $)

>  <Rbt.Library>
libRbt.so (2013.1, Build901 2013/11/27)

>  <Rbt.Parameter_File>
/export/apps/rDock/src/rDock_2013.1_src/data/scripts/dock_solv.prm

>  <Rbt.Receptor>
prm/blind_docking_100.prm

>  <SCORE>
-11.8879

>  <SCORE.INTER>
-10.4491

>  <SCORE.INTER.CONST>
1

>  <SCORE.INTER.POLAR>
0

>  <SCORE.INTER.ROT>
5

>  <SCORE.INTER.SOLV>
11.174

>  <SCORE.INTER.VDW>
-17.6241

>  <SCORE.INTER.norm>
-0.417964

>  <SCORE.INTRA>
-1.43884

>  <SCORE.INTRA.DIHEDRAL>
-0.814795

>  <SCORE.INTRA.DIHEDRAL.0>
3.94806

>  <SCORE.INTRA.POLAR>
0

>  <SCORE.INTRA.POLAR.0>
0

>  <SCORE.INTRA.REPUL>
0

>  <SCORE.INTRA.REPUL.0>
0

>  <SCORE.INTRA.SOLV>
-0.281095

>  <SCORE.INTRA.SOLV.lig_0>
-70.9803

>  <SCORE.INTRA.VDW>
-0.890892

>  <SCORE.INTRA.VDW.0>
-0.709409

>  <SCORE.INTRA.norm>
-0.0575535

>  <SCORE.RESTR>
0

>  <SCORE.RESTR.CAVITY>
0

>  <SCORE.RESTR.norm>
0

>  <SCORE.SYSTEM>
0

>  <SCORE.SYSTEM.CONST>
0

>  <SCORE.SYSTEM.DIHEDRAL>
0

>  <SCORE.SYSTEM.SOLV>
0

>  <SCORE.SYSTEM.norm>
0

>  <SCORE.heavy>
25

>  <SCORE.norm>
-0.475517

>  <RMSD>
20.031

$$$$
ligand
 OpenBabel11021811503D
libRbt.so/2013.1/901 2013/11/27
 25 27  0  0  0  0  0  0  0  0999 V2000
   -4.1502   -6.5886   28.8205 N   0  0  0  0  0  0  0  0  0  0  0  0
   -3.9717   -5.5957   27.8068 C   0  0  0  0  0  0  0  0  0  0  0  0
   -3.0618   -4.7794   27.8831 O   0  0  0  0  0  0  0  0  0  0  0  0
  -10.7247  -12.1908   24.1656 N   0  0  0  0  0  0  0  0  0  0  0  0
   -9.8453  -10.3860   22.8486 N   0  0  0  0  0  0  0  0  0  0  0  0
  -10.7628  -10.8298   23.7386 C   0  0  0  0  0  0  0  0  0  0  0  0
  -11.7318   -9.9992   24.2280 N   0  0  0  0  0  0  0  0  0  0  0  0
  -11.8211   -8.6974   23.8537 C   0  0  0  0  0  0  0  0  0  0  0  0
  -10.8708   -8.1910   22.9350 C   0  0  0  0  0  0  0  0  0  0  0  0
  -12.8110   -7.9079   24.3900 O   0  0  0  0  0  0  0  0  0  0  0  0
  -12.0534   -6.0880   22.1121 C   0  0  0  0  0  0  0  0  0  0  0  0
  -10.8556   -6.8296   22.4253 N   0  0  0  0  0  0  0  0  0  0  0  0
  -12.0545   -4.8859   21.8699 O   0  0  0  0  0  0  0  0  0  0  0  0
   -9.5824   -6.3135   22.1523 C   0  0  2  0  0  0  0  0  0  0  0  0
   -8.8584   -7.2311   21.1337 C   0  0  0  0  0  0  0  0  0  0  0  0
   -9.8775   -9.0839   22.4222 C   0  0  0  0  0  0  0  0  0  0  0  0
   -8.8741   -8.5971   21.4714 N   0  0  0  0  0  0  0  0  0  0  0  0
   -8.7676   -6.1871   23.4236 C   0  0  0  0  0  0  0  0  0  0  0  0
   -7.4624   -5.5976   23.3088 N   0  0  0  0  0  0  0  0  0  0  0  0
   -4.9036   -5.5823   26.6448 C   0  0  0  0  0  0  0  0  0  0  0  0
   -6.0240   -4.7630   26.6385 C   0  0  0  0  0  0  0  0  0  0  0  0
   -6.8734   -4.7731   25.5388 C   0  0  0  0  0  0  0  0  0  0  0  0
   -6.5952   -5.5902   24.4449 C   0  0  0  0  0  0  0  0  0  0  0  0
   -5.4711   -6.3975   24.4511 C   0  0  0  0  0  0  0  0  0  0  0  0
   -4.6274   -6.3959   25.5554 C   0  0  0  0  0  0  0  0  0  0  0  0
  1  2  1  0  0  0  0
  2  3  2  0  0  0  0
  2 20  1  0  0  0  0
  4  6  1  0  0  0  0
  5  6  2  0  0  0  0
  5 16  1  0  0  0  0
  6  7  1  0  0  0  0
  7  8  1  0  0  0  0
  8  9  1  0  0  0  0
  8 10  2  0  0  0  0
  9 12  1  0  0  0  0
  9 16  2  0  0  0  0
 11 13  1  0  0  0  0
 11 12  1  0  0  0  0
 12 14  1  0  0  0  0
 14 15  1  0  0  0  0
 14 18  1  1  0  0  0
 15 17  1  0  0  0  0
 16 17  1  0  0  0  0
 18 19  1  0  0  0  0
 19 23  1  0  0  0  0
 20 21  2  0  0  0  0
 20 25  1  0  0  0  0
 21 22  1  0  0  0  0
 22 23  2  0  0  0  0
 23 24  1  0  0  0  0
 24 25  2  0  0  0  0
M  END
>  <CHROM.1>
169.05084396,-176.51269286,-173.06778126,-70.48346569,94.96303328,-8.58716600
-7.17639600,24.13705509,-0.15785942,0.63212798,2.76127167

>  <Name>
ligand

>  <RI>
0

>  <Rbt.Current_Directory>
/home/itssahil/PROJECTS/Mol_Feturizer/New_Systems/rnas/4LVV

>  <Rbt.Executable>
rbdock ($Id: //depot/dev/client3/rdock/2013.1/src/exe/rbdock.cxx#4 $)

>  <Rbt.Library>
libRbt.so (2013.1, Build901 2013/11/27)

>  <Rbt.Parameter_File>
/export/apps/rDock/src/rDock_2013.1_src/data/scripts/dock_solv.prm

>  <Rbt.Receptor>
prm/blind_docking_60.prm

>  <SCORE>
-12.6552

>  <SCORE.INTER>
-11.4931

>  <SCORE.INTER.CONST>
1

>  <SCORE.INTER.POLAR>
0

>  <SCORE.INTER.ROT>
5

>  <SCORE.INTER.SOLV>
9.57618

>  <SCORE.INTER.VDW>
-17.7874

>  <SCORE.INTER.norm>
-0.459723

>  <SCORE.INTRA>
-1.16215

>  <SCORE.INTRA.DIHEDRAL>
-0.684537

>  <SCORE.INTRA.DIHEDRAL.0>
3.94806

>  <SCORE.INTRA.POLAR>
0

>  <SCORE.INTRA.POLAR.0>
0

>  <SCORE.INTRA.REPUL>
0

>  <SCORE.INTRA.REPUL.0>
0

>  <SCORE.INTRA.SOLV>
-0.277506

>  <SCORE.INTRA.SOLV.lig_0>
-70.9803

>  <SCORE.INTRA.VDW>
-0.681128

>  <SCORE.INTRA.VDW.0>
-0.709409

>  <SCORE.INTRA.norm>
-0.046486

>  <SCORE.RESTR>
0

>  <SCORE.RESTR.CAVITY>
0

>  <SCORE.RESTR.norm>
0

>  <SCORE.SYSTEM>
0

>  <SCORE.SYSTEM.CONST>
0

>  <SCORE.SYSTEM.DIHEDRAL>
0

>  <SCORE.SYSTEM.SOLV>
0

>  <SCORE.SYSTEM.norm>
0

>  <SCORE.heavy>
25

>  <SCORE.norm>
-0.506209

>  <RMSD>
20.060

$$$$
ligand
 OpenBabel11021811503D
libRbt.so/2013.1/901 2013/11/27
 25 27  0  0  0  0  0  0  0  0999 V2000
   -4.1790   -7.0081   28.8832 N   0  0  0  0  0  0  0  0  0  0  0  0
   -4.3286   -5.7522   28.2156 C   0  0  0  0  0  0  0  0  0  0  0  0
   -3.7977   -4.7409   28.6577 O   0  0  0  0  0  0  0  0  0  0  0  0
   -9.5036  -12.2224   21.4709 N   0  0  0  0  0  0  0  0  0  0  0  0
   -9.0732   -9.8962   21.0596 N   0  0  0  0  0  0  0  0  0  0  0  0
   -9.8142  -10.8450   21.6773 C   0  0  0  0  0  0  0  0  0  0  0  0
  -10.8618  -10.5069   22.4876 N   0  0  0  0  0  0  0  0  0  0  0  0
  -11.2076   -9.2143   22.7162 C   0  0  0  0  0  0  0  0  0  0  0  0
  -10.4478   -8.1916   22.0995 C   0  0  0  0  0  0  0  0  0  0  0  0
  -12.2644   -8.9365   23.5511 O   0  0  0  0  0  0  0  0  0  0  0  0
  -12.0452   -6.2133   22.2818 C   0  0  0  0  0  0  0  0  0  0  0  0
  -10.7140   -6.7684   22.2311 N   0  0  0  0  0  0  0  0  0  0  0  0
  -12.6830   -5.9065   21.2804 O   0  0  0  0  0  0  0  0  0  0  0  0
   -9.5793   -5.9480   22.1973 C   0  0  2  0  0  0  0  0  0  0  0  0
   -8.8062   -6.1864   20.8748 C   0  0  0  0  0  0  0  0  0  0  0  0
   -9.3679   -8.5701   21.2409 C   0  0  0  0  0  0  0  0  0  0  0  0
   -8.5556   -7.5408   20.5864 N   0  0  0  0  0  0  0  0  0  0  0  0
   -8.6839   -6.2164   23.3899 C   0  0  0  0  0  0  0  0  0  0  0  0
   -7.4533   -5.4786   23.4640 N   0  0  0  0  0  0  0  0  0  0  0  0
   -5.1291   -5.6987   26.9605 C   0  0  0  0  0  0  0  0  0  0  0  0
   -4.9401   -6.6352   25.9536 C   0  0  0  0  0  0  0  0  0  0  0  0
   -5.7035   -6.5583   24.7951 C   0  0  0  0  0  0  0  0  0  0  0  0
   -6.6609   -5.5561   24.6509 C   0  0  0  0  0  0  0  0  0  0  0  0
   -6.8532   -4.6310   25.6621 C   0  0  0  0  0  0  0  0  0  0  0  0
   -6.0822   -4.7009   26.8161 C   0  0  0  0  0  0  0  0  0  0  0  0
  1  2  1  0  0  0  0
  2  3  2  0  0  0  0
  2 20  1  0  0  0  0
  4  6  1  0  0  0  0
  5  6  2  0  0  0  0
  5 16  1  0  0  0  0
  6  7  1  0  0  0  0
  7  8  1  0  0  0  0
  8  9  1  0  0  0  0
  8 10  2  0  0  0  0
  9 12  1  0  0  0  0
  9 16  2  0  0  0  0
 11 13  1  0  0  0  0
 11 12  1  0  0  0  0
 12 14  1  0  0  0  0
 14 15  1  0  0  0  0
 14 18  1  1  0  0  0
 15 17  1  0  0  0  0
 16 17  1  0  0  0  0
 18 19  1  0  0  0  0
 19 23  1  0  0  0  0
 20 21  2  0  0  0  0
 20 25  1  0  0  0  0
 21 22  1  0  0  0  0
 22 23  2  0  0  0  0
 23 24  1  0  0  0  0
 24 25  2  0  0  0  0
M  END
>  <CHROM.1>
-87.22093880,177.85072955,171.55858378,88.22184964,-46.75561765,-8.43586794
-7.20527457,23.68762515,-0.46308158,0.71388607,-2.99366764

>  <Name>
ligand

>  <RI>
0

>  <Rbt.Current_Directory>
/home/itssahil/PROJECTS/Mol_Feturizer/New_Systems/rnas/4LVV

>  <Rbt.Executable>
rbdock ($Id: //depot/dev/client3/rdock/2013.1/src/exe/rbdock.cxx#4 $)

>  <Rbt.Library>
libRbt.so (2013.1, Build901 2013/11/27)

>  <Rbt.Parameter_File>
/export/apps/rDock/src/rDock_2013.1_src/data/scripts/dock_solv.prm

>  <Rbt.Receptor>
prm/blind_docking_60.prm

>  <SCORE>
-12.0039

>  <SCORE.INTER>
-10.6529

>  <SCORE.INTER.CONST>
1

>  <SCORE.INTER.POLAR>
0

>  <SCORE.INTER.ROT>
5

>  <SCORE.INTER.SOLV>
11.2086

>  <SCORE.INTER.VDW>
-17.7715

>  <SCORE.INTER.norm>
-0.426117

>  <SCORE.INTRA>
-1.35094

>  <SCORE.INTRA.DIHEDRAL>
-0.767834

>  <SCORE.INTRA.DIHEDRAL.0>
3.94806

>  <SCORE.INTRA.POLAR>
0

>  <SCORE.INTRA.POLAR.0>
0

>  <SCORE.INTRA.REPUL>
0

>  <SCORE.INTRA.REPUL.0>
0

>  <SCORE.INTRA.SOLV>
-0.212961

>  <SCORE.INTRA.SOLV.lig_0>
-70.9803

>  <SCORE.INTRA.VDW>
-0.860547

>  <SCORE.INTRA.VDW.0>
-0.709409

>  <SCORE.INTRA.norm>
-0.0540378

>  <SCORE.RESTR>
0

>  <SCORE.RESTR.CAVITY>
0

>  <SCORE.RESTR.norm>
0

>  <SCORE.SYSTEM>
0

>  <SCORE.SYSTEM.CONST>
0

>  <SCORE.SYSTEM.DIHEDRAL>
0

>  <SCORE.SYSTEM.SOLV>
0

>  <SCORE.SYSTEM.norm>
0

>  <SCORE.heavy>
25

>  <SCORE.norm>
-0.480154

>  <RMSD>
20.084

$$$$
ligand
 OpenBabel11021811503D
libRbt.so/2013.1/901 2013/11/27
 25 27  0  0  0  0  0  0  0  0999 V2000
   -9.2117   -6.3781   20.1530 N   0  0  0  0  0  0  0  0  0  0  0  0
   -7.9132   -6.8994   20.4484 C   0  0  0  0  0  0  0  0  0  0  0  0
   -7.2048   -7.3562   19.5597 O   0  0  0  0  0  0  0  0  0  0  0  0
   -5.8090   -1.3848   30.2411 N   0  0  0  0  0  0  0  0  0  0  0  0
   -4.3766   -2.9611   29.1324 N   0  0  0  0  0  0  0  0  0  0  0  0
   -5.5401   -2.7062   29.7745 C   0  0  0  0  0  0  0  0  0  0  0  0
   -6.4579   -3.6953   29.9928 N   0  0  0  0  0  0  0  0  0  0  0  0
   -6.2543   -4.9714   29.5774 C   0  0  0  0  0  0  0  0  0  0  0  0
   -5.0554   -5.2756   28.8891 C   0  0  0  0  0  0  0  0  0  0  0  0
   -7.2203   -5.9206   29.8158 O   0  0  0  0  0  0  0  0  0  0  0  0
   -4.9771   -7.8119   29.1334 C   0  0  0  0  0  0  0  0  0  0  0  0
   -4.6893   -6.5978   28.4081 N   0  0  0  0  0  0  0  0  0  0  0  0
   -6.0479   -8.4041   29.0525 O   0  0  0  0  0  0  0  0  0  0  0  0
   -3.9329   -6.6108   27.2294 C   0  0  2  0  0  0  0  0  0  0  0  0
   -2.6382   -5.7831   27.4347 C   0  0  0  0  0  0  0  0  0  0  0  0
   -4.1015   -4.2283   28.6889 C   0  0  0  0  0  0  0  0  0  0  0  0
   -2.8495   -4.5024   27.9782 N   0  0  0  0  0  0  0  0  0  0  0  0
   -4.7350   -6.0598   26.0677 C   0  0  0  0  0  0  0  0  0  0  0  0
   -6.0135   -6.6626   25.8104 N   0  0  0  0  0  0  0  0  0  0  0  0
   -7.4289   -6.8612   21.8565 C   0  0  0  0  0  0  0  0  0  0  0  0
   -7.5218   -7.9798   22.6732 C   0  0  0  0  0  0  0  0  0  0  0  0
   -7.0602   -7.9120   23.9821 C   0  0  0  0  0  0  0  0  0  0  0  0
   -6.4963   -6.7336   24.4671 C   0  0  0  0  0  0  0  0  0  0  0  0
   -6.3961   -5.6242   23.6458 C   0  0  0  0  0  0  0  0  0  0  0  0
   -6.8678   -5.6882   22.3402 C   0  0  0  0  0  0  0  0  0  0  0  0
  1  2  1  0  0  0  0
  2  3  2  0  0  0  0
  2 20  1  0  0  0  0
  4  6  1  0  0  0  0
  5  6  2  0  0  0  0
  5 16  1  0  0  0  0
  6  7  1  0  0  0  0
  7  8  1  0  0  0  0
  8  9  1  0  0  0  0
  8 10  2  0  0  0  0
  9 12  1  0  0  0  0
  9 16  2  0  0  0  0
 11 13  1  0  0  0  0
 11 12  1  0  0  0  0
 12 14  1  0  0  0  0
 14 15  1  0  0  0  0
 14 18  1  6  0  0  0
 15 17  1  0  0  0  0
 16 17  1  0  0  0  0
 18 19  1  0  0  0  0
 19 23  1  0  0  0  0
 20 21  2  0  0  0  0
 20 25  1  0  0  0  0
 21 22  1  0  0  0  0
 22 23  2  0  0  0  0
 23 24  1  0  0  0  0
 24 25  2  0  0  0  0
M  END
>  <CHROM.1>
85.15541047,-54.06209970,-147.98846734,134.74596980,98.20608273,-5.85829806
-5.81721393,26.32400300,2.52900626,1.21730656,-2.79536485

>  <Name>
ligand

>  <RI>
0

>  <Rbt.Current_Directory>
/home/itssahil/PROJECTS/Mol_Feturizer/New_Systems/rnas/4LVV

>  <Rbt.Executable>
rbdock ($Id: //depot/dev/client3/rdock/2013.1/src/exe/rbdock.cxx#4 $)

>  <Rbt.Library>
libRbt.so (2013.1, Build901 2013/11/27)

>  <Rbt.Parameter_File>
/export/apps/rDock/src/rDock_2013.1_src/data/scripts/dock_solv.prm

>  <Rbt.Receptor>
prm/blind_docking_80.prm

>  <SCORE>
-11.4258

>  <SCORE.INTER>
-10.867

>  <SCORE.INTER.CONST>
1

>  <SCORE.INTER.POLAR>
0

>  <SCORE.INTER.ROT>
5

>  <SCORE.INTER.SOLV>
15.8748

>  <SCORE.INTER.VDW>
-19.4696

>  <SCORE.INTER.norm>
-0.434679

>  <SCORE.INTRA>
-0.5588

>  <SCORE.INTRA.DIHEDRAL>
0.28291

>  <SCORE.INTRA.DIHEDRAL.0>
3.94806

>  <SCORE.INTRA.POLAR>
0

>  <SCORE.INTRA.POLAR.0>
0

>  <SCORE.INTRA.REPUL>
0

>  <SCORE.INTRA.REPUL.0>
0

>  <SCORE.INTRA.SOLV>
0.588013

>  <SCORE.INTRA.SOLV.lig_0>
-70.9803

>  <SCORE.INTRA.VDW>
-0.994261

>  <SCORE.INTRA.VDW.0>
-0.709409

>  <SCORE.INTRA.norm>
-0.022352

>  <SCORE.RESTR>
0

>  <SCORE.RESTR.CAVITY>
0

>  <SCORE.RESTR.norm>
0

>  <SCORE.SYSTEM>
0

>  <SCORE.SYSTEM.CONST>
0

>  <SCORE.SYSTEM.DIHEDRAL>
0

>  <SCORE.SYSTEM.SOLV>
0

>  <SCORE.SYSTEM.norm>
0

>  <SCORE.heavy>
25

>  <SCORE.norm>
-0.457031

>  <RMSD>
20.085

$$$$
ligand
 OpenBabel11021811503D
libRbt.so/2013.1/901 2013/11/27
 25 27  0  0  0  0  0  0  0  0999 V2000
   -4.7830   -6.9084   29.1645 N   0  0  0  0  0  0  0  0  0  0  0  0
   -4.5024   -5.8412   28.2547 C   0  0  0  0  0  0  0  0  0  0  0  0
   -3.6450   -5.0061   28.5145 O   0  0  0  0  0  0  0  0  0  0  0  0
  -10.0269  -12.3430   22.4866 N   0  0  0  0  0  0  0  0  0  0  0  0
   -9.2996  -10.1964   21.6938 N   0  0  0  0  0  0  0  0  0  0  0  0
  -10.2001  -10.9300   22.3880 C   0  0  0  0  0  0  0  0  0  0  0  0
  -11.2785  -10.3420   22.9878 N   0  0  0  0  0  0  0  0  0  0  0  0
  -11.4981   -9.0041   22.9227 C   0  0  0  0  0  0  0  0  0  0  0  0
  -10.5710   -8.1998   22.2177 C   0  0  0  0  0  0  0  0  0  0  0  0
  -12.5948   -8.4691   23.5569 O   0  0  0  0  0  0  0  0  0  0  0  0
  -11.9466   -6.0895   21.8272 C   0  0  0  0  0  0  0  0  0  0  0  0
  -10.6877   -6.7613   22.0427 N   0  0  0  0  0  0  0  0  0  0  0  0
  -12.3947   -5.2422   22.5921 O   0  0  0  0  0  0  0  0  0  0  0  0
   -9.4704   -6.0706   21.9890 C   0  0  2  0  0  0  0  0  0  0  0  0
   -8.6013   -6.6399   20.8383 C   0  0  0  0  0  0  0  0  0  0  0  0
   -9.4604   -8.8399   21.5824 C   0  0  0  0  0  0  0  0  0  0  0  0
   -8.4768   -8.0416   20.8455 N   0  0  0  0  0  0  0  0  0  0  0  0
   -8.7336   -6.1724   23.3093 C   0  0  0  0  0  0  0  0  0  0  0  0
   -7.4646   -5.5055   23.4040 N   0  0  0  0  0  0  0  0  0  0  0  0
   -5.2611   -5.7726   26.9747 C   0  0  0  0  0  0  0  0  0  0  0  0
   -5.0955   -6.7416   25.9948 C   0  0  0  0  0  0  0  0  0  0  0  0
   -5.8188   -6.6496   24.8118 C   0  0  0  0  0  0  0  0  0  0  0  0
   -6.7133   -5.5992   24.6163 C   0  0  0  0  0  0  0  0  0  0  0  0
   -6.8830   -4.6413   25.6006 C   0  0  0  0  0  0  0  0  0  0  0  0
   -6.1517   -4.7269   26.7792 C   0  0  0  0  0  0  0  0  0  0  0  0
  1  2  1  0  0  0  0
  2  3  2  0  0  0  0
  2 20  1  0  0  0  0
  4  6  1  0  0  0  0
  5  6  2  0  0  0  0
  5 16  1  0  0  0  0
  6  7  1  0  0  0  0
  7  8  1  0  0  0  0
  8  9  1  0  0  0  0
  8 10  2  0  0  0  0
  9 12  1  0  0  0  0
  9 16  2  0  0  0  0
 11 13  1  0  0  0  0
 11 12  1  0  0  0  0
 12 14  1  0  0  0  0
 14 15  1  0  0  0  0
 14 18  1  1  0  0  0
 15 17  1  0  0  0  0
 16 17  1  0  0  0  0
 18 19  1  0  0  0  0
 19 23  1  0  0  0  0
 20 21  2  0  0  0  0
 20 25  1  0  0  0  0
 21 22  1  0  0  0  0
 22 23  2  0  0  0  0
 23 24  1  0  0  0  0
 24 25  2  0  0  0  0
M  END
>  <CHROM.1>
118.85401548,-179.82600966,-178.41074161,88.37205436,-66.85432317,-8.54448484
-7.23030961,23.86327750,-0.36485294,0.72762878,3.13836208

>  <Name>
ligand

>  <RI>
0

>  <Rbt.Current_Directory>
/home/itssahil/PROJECTS/Mol_Feturizer/New_Systems/rnas/4LVV

>  <Rbt.Executable>
rbdock ($Id: //depot/dev/client3/rdock/2013.1/src/exe/rbdock.cxx#4 $)

>  <Rbt.Library>
libRbt.so (2013.1, Build901 2013/11/27)

>  <Rbt.Parameter_File>
/export/apps/rDock/src/rDock_2013.1_src/data/scripts/dock_solv.prm

>  <Rbt.Receptor>
prm/blind_docking_100.prm

>  <SCORE>
-12.1093

>  <SCORE.INTER>
-10.7897

>  <SCORE.INTER.CONST>
1

>  <SCORE.INTER.POLAR>
0

>  <SCORE.INTER.ROT>
5

>  <SCORE.INTER.SOLV>
9.64251

>  <SCORE.INTER.VDW>
-17.3406

>  <SCORE.INTER.norm>
-0.431588

>  <SCORE.INTRA>
-1.31959

>  <SCORE.INTRA.DIHEDRAL>
-0.668436

>  <SCORE.INTRA.DIHEDRAL.0>
3.94806

>  <SCORE.INTRA.POLAR>
0

>  <SCORE.INTRA.POLAR.0>
0

>  <SCORE.INTRA.REPUL>
0

>  <SCORE.INTRA.REPUL.0>
0

>  <SCORE.INTRA.SOLV>
-0.116143

>  <SCORE.INTRA.SOLV.lig_0>
-70.9803

>  <SCORE.INTRA.VDW>
-0.927305

>  <SCORE.INTRA.VDW.0>
-0.709409

>  <SCORE.INTRA.norm>
-0.0527838

>  <SCORE.RESTR>
0

>  <SCORE.RESTR.CAVITY>
0

>  <SCORE.RESTR.norm>
0

>  <SCORE.SYSTEM>
0

>  <SCORE.SYSTEM.CONST>
0

>  <SCORE.SYSTEM.DIHEDRAL>
0

>  <SCORE.SYSTEM.SOLV>
0

>  <SCORE.SYSTEM.norm>
0

>  <SCORE.heavy>
25

>  <SCORE.norm>
-0.484372

>  <RMSD>
20.093

$$$$
ligand
 OpenBabel11021811503D
libRbt.so/2013.1/901 2013/11/27
 25 27  0  0  0  0  0  0  0  0999 V2000
   -9.9633   -5.2530   22.1474 N   0  0  0  0  0  0  0  0  0  0  0  0
   -9.0254   -6.3261   22.0280 C   0  0  0  0  0  0  0  0  0  0  0  0
   -9.0882   -7.1111   21.0899 O   0  0  0  0  0  0  0  0  0  0  0  0
   -0.2492   -3.8558   30.7915 N   0  0  0  0  0  0  0  0  0  0  0  0
   -1.6666   -5.6012   29.9491 N   0  0  0  0  0  0  0  0  0  0  0  0
   -1.5448   -4.3555   30.4632 C   0  0  0  0  0  0  0  0  0  0  0  0
   -2.6426   -3.5714   30.6830 N   0  0  0  0  0  0  0  0  0  0  0  0
   -3.8998   -3.9954   30.3960 C   0  0  0  0  0  0  0  0  0  0  0  0
   -4.0682   -5.2876   29.8432 C   0  0  0  0  0  0  0  0  0  0  0  0
   -4.9640   -3.1561   30.6281 O   0  0  0  0  0  0  0  0  0  0  0  0
   -6.5404   -5.7029   30.3061 C   0  0  0  0  0  0  0  0  0  0  0  0
   -5.3510   -5.8846   29.5092 N   0  0  0  0  0  0  0  0  0  0  0  0
   -7.6609   -5.5847   29.8222 O   0  0  0  0  0  0  0  0  0  0  0  0
   -5.3333   -6.7478   28.4063 C   0  0  2  0  0  0  0  0  0  0  0  0
   -4.3082   -7.8843   28.6536 C   0  0  0  0  0  0  0  0  0  0  0  0
   -2.9063   -6.0971   29.6396 C   0  0  0  0  0  0  0  0  0  0  0  0
   -3.0386   -7.4394   29.0667 N   0  0  0  0  0  0  0  0  0  0  0  0
   -4.9922   -5.9941   27.1367 C   0  0  0  0  0  0  0  0  0  0  0  0
   -4.8978   -6.7608   25.9254 N   0  0  0  0  0  0  0  0  0  0  0  0
   -7.9577   -6.4624   23.0575 C   0  0  0  0  0  0  0  0  0  0  0  0
   -7.8231   -7.6307   23.7950 C   0  0  0  0  0  0  0  0  0  0  0  0
   -6.8160   -7.7267   24.7476 C   0  0  0  0  0  0  0  0  0  0  0  0
   -5.9396   -6.6628   24.9519 C   0  0  0  0  0  0  0  0  0  0  0  0
   -6.0710   -5.5040   24.2066 C   0  0  0  0  0  0  0  0  0  0  0  0
   -7.0849   -5.4035   23.2616 C   0  0  0  0  0  0  0  0  0  0  0  0
  1  2  1  0  0  0  0
  2  3  2  0  0  0  0
  2 20  1  0  0  0  0
  4  6  1  0  0  0  0
  5  6  2  0  0  0  0
  5 16  1  0  0  0  0
  6  7  1  0  0  0  0
  7  8  1  0  0  0  0
  8  9  1  0  0  0  0
  8 10  2  0  0  0  0
  9 12  1  0  0  0  0
  9 16  2  0  0  0  0
 11 13  1  0  0  0  0
 11 12  1  0  0  0  0
 12 14  1  0  0  0  0
 14 15  1  0  0  0  0
 14 18  1  6  0  0  0
 15 17  1  0  0  0  0
 16 17  1  0  0  0  0
 18 19  1  0  0  0  0
 19 23  1  0  0  0  0
 20 21  2  0  0  0  0
 20 25  1  0  0  0  0
 21 22  1  0  0  0  0
 22 23  2  0  0  0  0
 23 24  1  0  0  0  0
 24 25  2  0  0  0  0
M  END
>  <CHROM.1>
142.76815904,178.18728778,106.28006622,-108.76437176,122.44619911,-5.36171602
-5.82016197,27.29430627,2.19021276,0.20712884,-1.92895357

>  <Name>
ligand

>  <RI>
0

>  <Rbt.Current_Directory>
/home/itssahil/PROJECTS/Mol_Feturizer/New_Systems/rnas/4LVV

>  <Rbt.Executable>
rbdock ($Id: //depot/dev/client3/rdock/2013.1/src/exe/rbdock.cxx#4 $)

>  <Rbt.Library>
libRbt.so (2013.1, Build901 2013/11/27)

>  <Rbt.Parameter_File>
/export/apps/rDock/src/rDock_2013.1_src/data/scripts/dock_solv.prm

>  <Rbt.Receptor>
prm/blind_docking_40.prm

>  <SCORE>
-10.5255

>  <SCORE.INTER>
-9.78234

>  <SCORE.INTER.CONST>
1

>  <SCORE.INTER.POLAR>
0

>  <SCORE.INTER.ROT>
5

>  <SCORE.INTER.SOLV>
13.4383

>  <SCORE.INTER.VDW>
-17.9343

>  <SCORE.INTER.norm>
-0.391293

>  <SCORE.INTRA>
-0.743115

>  <SCORE.INTRA.DIHEDRAL>
0.228684

>  <SCORE.INTRA.DIHEDRAL.0>
3.94806

>  <SCORE.INTRA.POLAR>
0

>  <SCORE.INTRA.POLAR.0>
0

>  <SCORE.INTRA.REPUL>
0

>  <SCORE.INTRA.REPUL.0>
0

>  <SCORE.INTRA.SOLV>
-0.125274

>  <SCORE.INTRA.SOLV.lig_0>
-70.9803

>  <SCORE.INTRA.VDW>
-0.79482

>  <SCORE.INTRA.VDW.0>
-0.709409

>  <SCORE.INTRA.norm>
-0.0297246

>  <SCORE.RESTR>
0

>  <SCORE.RESTR.CAVITY>
0

>  <SCORE.RESTR.norm>
0

>  <SCORE.SYSTEM>
0

>  <SCORE.SYSTEM.CONST>
0

>  <SCORE.SYSTEM.DIHEDRAL>
0

>  <SCORE.SYSTEM.SOLV>
0

>  <SCORE.SYSTEM.norm>
0

>  <SCORE.heavy>
25

>  <SCORE.norm>
-0.421018

>  <RMSD>
20.120

$$$$
ligand
 OpenBabel11021811503D
libRbt.so/2013.1/901 2013/11/27
 25 27  0  0  0  0  0  0  0  0999 V2000
   -7.8020   -7.8770   19.5607 N   0  0  0  0  0  0  0  0  0  0  0  0
   -8.3527   -6.9715   20.5210 C   0  0  0  0  0  0  0  0  0  0  0  0
   -9.3223   -6.2770   20.2426 O   0  0  0  0  0  0  0  0  0  0  0  0
   -5.7892   -1.3027   29.9673 N   0  0  0  0  0  0  0  0  0  0  0  0
   -4.3719   -2.8884   28.8527 N   0  0  0  0  0  0  0  0  0  0  0  0
   -5.5103   -2.6349   29.5388 C   0  0  0  0  0  0  0  0  0  0  0  0
   -6.3929   -3.6351   29.8372 N   0  0  0  0  0  0  0  0  0  0  0  0
   -6.1778   -4.9215   29.4612 C   0  0  0  0  0  0  0  0  0  0  0  0
   -5.0050   -5.2252   28.7291 C   0  0  0  0  0  0  0  0  0  0  0  0
   -7.1086   -5.8821   29.7804 O   0  0  0  0  0  0  0  0  0  0  0  0
   -4.8543   -7.7477   29.0650 C   0  0  0  0  0  0  0  0  0  0  0  0
   -4.6296   -6.5566   28.2817 N   0  0  0  0  0  0  0  0  0  0  0  0
   -5.9406   -8.3128   29.1306 O   0  0  0  0  0  0  0  0  0  0  0  0
   -3.9285   -6.5983   27.0699 C   0  0  2  0  0  0  0  0  0  0  0  0
   -2.6460   -5.7345   27.1827 C   0  0  0  0  0  0  0  0  0  0  0  0
   -4.0870   -4.1654   28.4448 C   0  0  0  0  0  0  0  0  0  0  0  0
   -2.8629   -4.4387   27.6868 N   0  0  0  0  0  0  0  0  0  0  0  0
   -4.7964   -6.1110   25.9274 C   0  0  0  0  0  0  0  0  0  0  0  0
   -6.0501   -6.7828   25.7247 N   0  0  0  0  0  0  0  0  0  0  0  0
   -7.7355   -6.9002   21.8748 C   0  0  0  0  0  0  0  0  0  0  0  0
   -7.0183   -5.7806   22.2736 C   0  0  0  0  0  0  0  0  0  0  0  0
   -6.4555   -5.7448   23.5436 C   0  0  0  0  0  0  0  0  0  0  0  0
   -6.6210   -6.8194   24.4150 C   0  0  0  0  0  0  0  0  0  0  0  0
   -7.3460   -7.9290   24.0169 C   0  0  0  0  0  0  0  0  0  0  0  0
   -7.8996   -7.9699   22.7429 C   0  0  0  0  0  0  0  0  0  0  0  0
  1  2  1  0  0  0  0
  2  3  2  0  0  0  0
  2 20  1  0  0  0  0
  4  6  1  0  0  0  0
  5  6  2  0  0  0  0
  5 16  1  0  0  0  0
  6  7  1  0  0  0  0
  7  8  1  0  0  0  0
  8  9  1  0  0  0  0
  8 10  2  0  0  0  0
  9 12  1  0  0  0  0
  9 16  2  0  0  0  0
 11 13  1  0  0  0  0
 11 12  1  0  0  0  0
 12 14  1  0  0  0  0
 14 15  1  0  0  0  0
 14 18  1  6  0  0  0
 15 17  1  0  0  0  0
 16 17  1  0  0  0  0
 18 19  1  0  0  0  0
 19 23  1  0  0  0  0
 20 21  2  0  0  0  0
 20 25  1  0  0  0  0
 21 22  1  0  0  0  0
 22 23  2  0  0  0  0
 23 24  1  0  0  0  0
 24 25  2  0  0  0  0
M  END
>  <CHROM.1>
79.83755516,-56.16701783,-152.48965802,-33.94843179,110.01600516,-5.94029703
-5.81728936,26.22921076,-2.53064910,-1.15327681,0.33517709

>  <Name>
ligand

>  <RI>
0

>  <Rbt.Current_Directory>
/home/itssahil/PROJECTS/Mol_Feturizer/New_Systems/rnas/4LVV

>  <Rbt.Executable>
rbdock ($Id: //depot/dev/client3/rdock/2013.1/src/exe/rbdock.cxx#4 $)

>  <Rbt.Library>
libRbt.so (2013.1, Build901 2013/11/27)

>  <Rbt.Parameter_File>
/export/apps/rDock/src/rDock_2013.1_src/data/scripts/dock_solv.prm

>  <Rbt.Receptor>
prm/blind_docking_80.prm

>  <SCORE>
-11.8996

>  <SCORE.INTER>
-11.385

>  <SCORE.INTER.CONST>
1

>  <SCORE.INTER.POLAR>
0

>  <SCORE.INTER.ROT>
5

>  <SCORE.INTER.SOLV>
16.0999

>  <SCORE.INTER.VDW>
-19.89

>  <SCORE.INTER.norm>
-0.4554

>  <SCORE.INTRA>
-0.514632

>  <SCORE.INTRA.DIHEDRAL>
0.0290437

>  <SCORE.INTRA.DIHEDRAL.0>
3.94806

>  <SCORE.INTRA.POLAR>
0

>  <SCORE.INTRA.POLAR.0>
0

>  <SCORE.INTRA.REPUL>
0

>  <SCORE.INTRA.REPUL.0>
0

>  <SCORE.INTRA.SOLV>
0.528681

>  <SCORE.INTRA.SOLV.lig_0>
-70.9803

>  <SCORE.INTRA.VDW>
-0.793495

>  <SCORE.INTRA.VDW.0>
-0.709409

>  <SCORE.INTRA.norm>
-0.0205853

>  <SCORE.RESTR>
0

>  <SCORE.RESTR.CAVITY>
0

>  <SCORE.RESTR.norm>
0

>  <SCORE.SYSTEM>
0

>  <SCORE.SYSTEM.CONST>
0

>  <SCORE.SYSTEM.DIHEDRAL>
0

>  <SCORE.SYSTEM.SOLV>
0

>  <SCORE.SYSTEM.norm>
0

>  <SCORE.heavy>
25

>  <SCORE.norm>
-0.475985

>  <RMSD>
20.138

$$$$
ligand
 OpenBabel11021811503D
libRbt.so/2013.1/901 2013/11/27
 25 27  0  0  0  0  0  0  0  0999 V2000
   -3.4867   -5.1121   28.8518 N   0  0  0  0  0  0  0  0  0  0  0  0
   -4.5925   -5.9747   28.5716 C   0  0  0  0  0  0  0  0  0  0  0  0
   -5.0044   -6.7594   29.4170 O   0  0  0  0  0  0  0  0  0  0  0  0
  -10.5264  -12.0240   22.2425 N   0  0  0  0  0  0  0  0  0  0  0  0
   -9.5157   -9.9581   21.5526 N   0  0  0  0  0  0  0  0  0  0  0  0
  -10.5171  -10.5977   22.2000 C   0  0  0  0  0  0  0  0  0  0  0  0
  -11.5254   -9.9012   22.8053 N   0  0  0  0  0  0  0  0  0  0  0  0
  -11.5725   -8.5446   22.7925 C   0  0  0  0  0  0  0  0  0  0  0  0
  -10.5354   -7.8379   22.1377 C   0  0  0  0  0  0  0  0  0  0  0  0
  -12.6064   -7.8996   23.4297 O   0  0  0  0  0  0  0  0  0  0  0  0
  -11.6238   -5.5559   21.8123 C   0  0  0  0  0  0  0  0  0  0  0  0
  -10.4651   -6.3905   22.0210 N   0  0  0  0  0  0  0  0  0  0  0  0
  -11.6203   -4.3439   21.9990 O   0  0  0  0  0  0  0  0  0  0  0  0
   -9.1693   -5.8589   22.0171 C   0  0  2  0  0  0  0  0  0  0  0  0
   -8.3539   -6.4887   20.8587 C   0  0  0  0  0  0  0  0  0  0  0  0
   -9.5009   -8.5888   21.4953 C   0  0  0  0  0  0  0  0  0  0  0  0
   -8.4080   -7.8940   20.8093 N   0  0  0  0  0  0  0  0  0  0  0  0
   -8.4810   -6.1055   23.3444 C   0  0  0  0  0  0  0  0  0  0  0  0
   -7.1562   -5.5729   23.5039 N   0  0  0  0  0  0  0  0  0  0  0  0
   -5.2471   -5.8898   27.2363 C   0  0  0  0  0  0  0  0  0  0  0  0
   -5.0571   -6.8821   26.2845 C   0  0  0  0  0  0  0  0  0  0  0  0
   -5.6826   -6.7739   25.0484 C   0  0  0  0  0  0  0  0  0  0  0  0
   -6.5051   -5.6837   24.7713 C   0  0  0  0  0  0  0  0  0  0  0  0
   -6.7001   -4.7022   25.7274 C   0  0  0  0  0  0  0  0  0  0  0  0
   -6.0658   -4.8045   26.9596 C   0  0  0  0  0  0  0  0  0  0  0  0
  1  2  1  0  0  0  0
  2  3  2  0  0  0  0
  2 20  1  0  0  0  0
  4  6  1  0  0  0  0
  5  6  2  0  0  0  0
  5 16  1  0  0  0  0
  6  7  1  0  0  0  0
  7  8  1  0  0  0  0
  8  9  1  0  0  0  0
  8 10  2  0  0  0  0
  9 12  1  0  0  0  0
  9 16  2  0  0  0  0
 11 13  1  0  0  0  0
 11 12  1  0  0  0  0
 12 14  1  0  0  0  0
 14 15  1  0  0  0  0
 14 18  1  1  0  0  0
 15 17  1  0  0  0  0
 16 17  1  0  0  0  0
 18 19  1  0  0  0  0
 19 23  1  0  0  0  0
 20 21  2  0  0  0  0
 20 25  1  0  0  0  0
 21 22  1  0  0  0  0
 22 23  2  0  0  0  0
 23 24  1  0  0  0  0
 24 25  2  0  0  0  0
M  END
>  <CHROM.1>
163.70765623,-177.89037706,175.00520264,92.16978447,106.40880459,-8.48104044
-7.04369806,23.87857466,-0.21217976,0.79561543,3.00987084

>  <Name>
ligand

>  <RI>
0

>  <Rbt.Current_Directory>
/home/itssahil/PROJECTS/Mol_Feturizer/New_Systems/rnas/4LVV

>  <Rbt.Executable>
rbdock ($Id: //depot/dev/client3/rdock/2013.1/src/exe/rbdock.cxx#4 $)

>  <Rbt.Library>
libRbt.so (2013.1, Build901 2013/11/27)

>  <Rbt.Parameter_File>
/export/apps/rDock/src/rDock_2013.1_src/data/scripts/dock_solv.prm

>  <Rbt.Receptor>
prm/blind_docking_60.prm

>  <SCORE>
-12.2281

>  <SCORE.INTER>
-11.0078

>  <SCORE.INTER.CONST>
1

>  <SCORE.INTER.POLAR>
0

>  <SCORE.INTER.ROT>
5

>  <SCORE.INTER.SOLV>
9.32962

>  <SCORE.INTER.VDW>
-17.3817

>  <SCORE.INTER.norm>
-0.440313

>  <SCORE.INTRA>
-1.22032

>  <SCORE.INTRA.DIHEDRAL>
-0.773954

>  <SCORE.INTRA.DIHEDRAL.0>
3.94806

>  <SCORE.INTRA.POLAR>
0

>  <SCORE.INTRA.POLAR.0>
0

>  <SCORE.INTRA.REPUL>
0

>  <SCORE.INTRA.REPUL.0>
0

>  <SCORE.INTRA.SOLV>
-0.24317

>  <SCORE.INTRA.SOLV.lig_0>
-70.9803

>  <SCORE.INTRA.VDW>
-0.711756

>  <SCORE.INTRA.VDW.0>
-0.709409

>  <SCORE.INTRA.norm>
-0.0488127

>  <SCORE.RESTR>
0

>  <SCORE.RESTR.CAVITY>
0

>  <SCORE.RESTR.norm>
0

>  <SCORE.SYSTEM>
0

>  <SCORE.SYSTEM.CONST>
0

>  <SCORE.SYSTEM.DIHEDRAL>
0

>  <SCORE.SYSTEM.SOLV>
0

>  <SCORE.SYSTEM.norm>
0

>  <SCORE.heavy>
25

>  <SCORE.norm>
-0.489125

>  <RMSD>
20.156

$$$$
ligand
 OpenBabel11021811503D
libRbt.so/2013.1/901 2013/11/27
 25 27  0  0  0  0  0  0  0  0999 V2000
   -4.8161   -7.2124   29.2295 N   0  0  0  0  0  0  0  0  0  0  0  0
   -4.5524   -6.0662   28.4158 C   0  0  0  0  0  0  0  0  0  0  0  0
   -3.7464   -5.2162   28.7738 O   0  0  0  0  0  0  0  0  0  0  0  0
  -10.5850  -12.0273   22.2997 N   0  0  0  0  0  0  0  0  0  0  0  0
   -9.6251   -9.9470   21.5812 N   0  0  0  0  0  0  0  0  0  0  0  0
  -10.6031  -10.6014   22.2492 C   0  0  0  0  0  0  0  0  0  0  0  0
  -11.6139   -9.9202   22.8677 N   0  0  0  0  0  0  0  0  0  0  0  0
  -11.6865   -8.5649   22.8482 C   0  0  0  0  0  0  0  0  0  0  0  0
  -10.6741   -7.8428   22.1719 C   0  0  0  0  0  0  0  0  0  0  0  0
  -12.7213   -7.9355   23.4994 O   0  0  0  0  0  0  0  0  0  0  0  0
  -11.8104   -5.5834   21.8525 C   0  0  0  0  0  0  0  0  0  0  0  0
  -10.6329   -6.3951   22.0461 N   0  0  0  0  0  0  0  0  0  0  0  0
  -11.9806   -4.5043   22.4097 O   0  0  0  0  0  0  0  0  0  0  0  0
   -9.3475   -5.8395   22.0170 C   0  0  2  0  0  0  0  0  0  0  0  0
   -8.5402   -6.4607   20.8483 C   0  0  0  0  0  0  0  0  0  0  0  0
   -9.6368   -8.5781   21.5160 C   0  0  0  0  0  0  0  0  0  0  0  0
   -8.5689   -7.8671   20.8077 N   0  0  0  0  0  0  0  0  0  0  0  0
   -8.6322   -6.0655   23.3337 C   0  0  0  0  0  0  0  0  0  0  0  0
   -7.3301   -5.4766   23.4809 N   0  0  0  0  0  0  0  0  0  0  0  0
   -5.2641   -5.9324   27.1142 C   0  0  0  0  0  0  0  0  0  0  0  0
   -5.1466   -6.9078   26.1336 C   0  0  0  0  0  0  0  0  0  0  0  0
   -5.8240   -6.7538   24.9301 C   0  0  0  0  0  0  0  0  0  0  0  0
   -6.6257   -5.6346   24.7145 C   0  0  0  0  0  0  0  0  0  0  0  0
   -6.7483   -4.6700   25.6993 C   0  0  0  0  0  0  0  0  0  0  0  0
   -6.0622   -4.8182   26.8986 C   0  0  0  0  0  0  0  0  0  0  0  0
  1  2  1  0  0  0  0
  2  3  2  0  0  0  0
  2 20  1  0  0  0  0
  4  6  1  0  0  0  0
  5  6  2  0  0  0  0
  5 16  1  0  0  0  0
  6  7  1  0  0  0  0
  7  8  1  0  0  0  0
  8  9  1  0  0  0  0
  8 10  2  0  0  0  0
  9 12  1  0  0  0  0
  9 16  2  0  0  0  0
 11 13  1  0  0  0  0
 11 12  1  0  0  0  0
 12 14  1  0  0  0  0
 14 15  1  0  0  0  0
 14 18  1  1  0  0  0
 15 17  1  0  0  0  0
 16 17  1  0  0  0  0
 18 19  1  0  0  0  0
 19 23  1  0  0  0  0
 20 21  2  0  0  0  0
 20 25  1  0  0  0  0
 21 22  1  0  0  0  0
 22 23  2  0  0  0  0
 23 24  1  0  0  0  0
 24 25  2  0  0  0  0
M  END
>  <CHROM.1>
139.58354842,-176.24460095,178.60452104,86.97709973,-58.51395758,-8.59079862
-7.06357292,23.87446345,-0.24466962,0.75685791,3.06256630

>  <Name>
ligand

>  <RI>
0

>  <Rbt.Current_Directory>
/home/itssahil/PROJECTS/Mol_Feturizer/New_Systems/rnas/4LVV

>  <Rbt.Executable>
rbdock ($Id: //depot/dev/client3/rdock/2013.1/src/exe/rbdock.cxx#4 $)

>  <Rbt.Library>
libRbt.so (2013.1, Build901 2013/11/27)

>  <Rbt.Parameter_File>
/export/apps/rDock/src/rDock_2013.1_src/data/scripts/dock_solv.prm

>  <Rbt.Receptor>
prm/blind_docking_60.prm

>  <SCORE>
-12.347

>  <SCORE.INTER>
-11.0382

>  <SCORE.INTER.CONST>
1

>  <SCORE.INTER.POLAR>
0

>  <SCORE.INTER.ROT>
5

>  <SCORE.INTER.SOLV>
9.92143

>  <SCORE.INTER.VDW>
-17.5993

>  <SCORE.INTER.norm>
-0.441527

>  <SCORE.INTRA>
-1.30885

>  <SCORE.INTRA.DIHEDRAL>
-0.765292

>  <SCORE.INTRA.DIHEDRAL.0>
3.94806

>  <SCORE.INTRA.POLAR>
0

>  <SCORE.INTRA.POLAR.0>
0

>  <SCORE.INTRA.REPUL>
0

>  <SCORE.INTRA.REPUL.0>
0

>  <SCORE.INTRA.SOLV>
-0.225311

>  <SCORE.INTRA.SOLV.lig_0>
-70.9803

>  <SCORE.INTRA.VDW>
-0.813548

>  <SCORE.INTRA.VDW.0>
-0.709409

>  <SCORE.INTRA.norm>
-0.052354

>  <SCORE.RESTR>
0

>  <SCORE.RESTR.CAVITY>
0

>  <SCORE.RESTR.norm>
0

>  <SCORE.SYSTEM>
0

>  <SCORE.SYSTEM.CONST>
0

>  <SCORE.SYSTEM.DIHEDRAL>
0

>  <SCORE.SYSTEM.SOLV>
0

>  <SCORE.SYSTEM.norm>
0

>  <SCORE.heavy>
25

>  <SCORE.norm>
-0.493881

>  <RMSD>
20.204

$$$$
ligand
 OpenBabel11021811503D
libRbt.so/2013.1/901 2013/11/27
 25 27  0  0  0  0  0  0  0  0999 V2000
   -4.6453   -6.9994   29.0031 N   0  0  0  0  0  0  0  0  0  0  0  0
   -4.4164   -5.8962   28.1222 C   0  0  0  0  0  0  0  0  0  0  0  0
   -3.5618   -5.0571   28.3785 O   0  0  0  0  0  0  0  0  0  0  0  0
  -11.0585  -11.9711   23.6800 N   0  0  0  0  0  0  0  0  0  0  0  0
   -9.9919  -10.1698   22.5041 N   0  0  0  0  0  0  0  0  0  0  0  0
  -11.0040  -10.5987   23.2930 C   0  0  0  0  0  0  0  0  0  0  0  0
  -11.9809   -9.7420   23.7173 N   0  0  0  0  0  0  0  0  0  0  0  0
  -11.9847   -8.4281   23.3764 C   0  0  0  0  0  0  0  0  0  0  0  0
  -10.9348   -7.9372   22.5638 C   0  0  0  0  0  0  0  0  0  0  0  0
  -12.9883   -7.6128   23.8443 O   0  0  0  0  0  0  0  0  0  0  0  0
  -11.9539   -5.7656   21.7012 C   0  0  0  0  0  0  0  0  0  0  0  0
  -10.8198   -6.5643   22.0993 N   0  0  0  0  0  0  0  0  0  0  0  0
  -12.1268   -4.6111   22.0771 O   0  0  0  0  0  0  0  0  0  0  0  0
   -9.5078   -6.0945   21.9590 C   0  0  2  0  0  0  0  0  0  0  0  0
   -8.7293   -7.0137   20.9830 C   0  0  0  0  0  0  0  0  0  0  0  0
   -9.9340   -8.8564   22.1164 C   0  0  0  0  0  0  0  0  0  0  0  0
   -8.8292   -8.3865   21.2761 N   0  0  0  0  0  0  0  0  0  0  0  0
   -8.8091   -6.0362   23.3025 C   0  0  0  0  0  0  0  0  0  0  0  0
   -7.4472   -5.5788   23.3129 N   0  0  0  0  0  0  0  0  0  0  0  0
   -5.2257   -5.7945   26.8759 C   0  0  0  0  0  0  0  0  0  0  0  0
   -6.1413   -4.7658   26.7020 C   0  0  0  0  0  0  0  0  0  0  0  0
   -6.8804   -4.6985   25.5272 C   0  0  0  0  0  0  0  0  0  0  0  0
   -6.6943   -5.6493   24.5257 C   0  0  0  0  0  0  0  0  0  0  0  0
   -5.7726   -6.6670   24.6991 C   0  0  0  0  0  0  0  0  0  0  0  0
   -5.0412   -6.7410   25.8785 C   0  0  0  0  0  0  0  0  0  0  0  0
  1  2  1  0  0  0  0
  2  3  2  0  0  0  0
  2 20  1  0  0  0  0
  4  6  1  0  0  0  0
  5  6  2  0  0  0  0
  5 16  1  0  0  0  0
  6  7  1  0  0  0  0
  7  8  1  0  0  0  0
  8  9  1  0  0  0  0
  8 10  2  0  0  0  0
  9 12  1  0  0  0  0
  9 16  2  0  0  0  0
 11 13  1  0  0  0  0
 11 12  1  0  0  0  0
 12 14  1  0  0  0  0
 14 15  1  0  0  0  0
 14 18  1  1  0  0  0
 15 17  1  0  0  0  0
 16 17  1  0  0  0  0
 18 19  1  0  0  0  0
 19 23  1  0  0  0  0
 20 21  2  0  0  0  0
 20 25  1  0  0  0  0
 21 22  1  0  0  0  0
 22 23  2  0  0  0  0
 23 24  1  0  0  0  0
 24 25  2  0  0  0  0
M  END
>  <CHROM.1>
133.27165777,179.61023507,-172.87550565,-78.34240179,113.18529579,-8.74021661
-7.09688202,24.02528660,-0.09719180,0.68693124,2.79805790

>  <Name>
ligand

>  <RI>
0

>  <Rbt.Current_Directory>
/home/itssahil/PROJECTS/Mol_Feturizer/New_Systems/rnas/4LVV

>  <Rbt.Executable>
rbdock ($Id: //depot/dev/client3/rdock/2013.1/src/exe/rbdock.cxx#4 $)

>  <Rbt.Library>
libRbt.so (2013.1, Build901 2013/11/27)

>  <Rbt.Parameter_File>
/export/apps/rDock/src/rDock_2013.1_src/data/scripts/dock_solv.prm

>  <Rbt.Receptor>
prm/blind_docking_60.prm

>  <SCORE>
-12.8081

>  <SCORE.INTER>
-11.515

>  <SCORE.INTER.CONST>
1

>  <SCORE.INTER.POLAR>
0

>  <SCORE.INTER.ROT>
5

>  <SCORE.INTER.SOLV>
8.73693

>  <SCORE.INTER.VDW>
-17.5223

>  <SCORE.INTER.norm>
-0.460602

>  <SCORE.INTRA>
-1.29304

>  <SCORE.INTRA.DIHEDRAL>
-0.722291

>  <SCORE.INTRA.DIHEDRAL.0>
3.94806

>  <SCORE.INTRA.POLAR>
0

>  <SCORE.INTRA.POLAR.0>
0

>  <SCORE.INTRA.REPUL>
0

>  <SCORE.INTRA.REPUL.0>
0

>  <SCORE.INTRA.SOLV>
-0.140863

>  <SCORE.INTRA.SOLV.lig_0>
-70.9803

>  <SCORE.INTRA.VDW>
-0.861466

>  <SCORE.INTRA.VDW.0>
-0.709409

>  <SCORE.INTRA.norm>
-0.0517218

>  <SCORE.RESTR>
0

>  <SCORE.RESTR.CAVITY>
0

>  <SCORE.RESTR.norm>
0

>  <SCORE.SYSTEM>
0

>  <SCORE.SYSTEM.CONST>
0

>  <SCORE.SYSTEM.DIHEDRAL>
0

>  <SCORE.SYSTEM.SOLV>
0

>  <SCORE.SYSTEM.norm>
0

>  <SCORE.heavy>
25

>  <SCORE.norm>
-0.512324

>  <RMSD>
20.228

$$$$
ligand
 OpenBabel11021811503D
libRbt.so/2013.1/901 2013/11/27
 25 27  0  0  0  0  0  0  0  0999 V2000
   -8.1068   -7.5021   19.6243 N   0  0  0  0  0  0  0  0  0  0  0  0
   -8.6717   -6.7767   20.7197 C   0  0  0  0  0  0  0  0  0  0  0  0
   -9.7170   -6.1527   20.5850 O   0  0  0  0  0  0  0  0  0  0  0  0
   -5.8621   -1.0583   29.2248 N   0  0  0  0  0  0  0  0  0  0  0  0
   -4.4226   -2.8049   28.4232 N   0  0  0  0  0  0  0  0  0  0  0  0
   -5.5942   -2.4407   28.9938 C   0  0  0  0  0  0  0  0  0  0  0  0
   -6.5212   -3.3752   29.3623 N   0  0  0  0  0  0  0  0  0  0  0  0
   -6.3189   -4.7041   29.1730 C   0  0  0  0  0  0  0  0  0  0  0  0
   -5.1115   -5.1248   28.5657 C   0  0  0  0  0  0  0  0  0  0  0  0
   -7.2942   -5.5956   29.5536 O   0  0  0  0  0  0  0  0  0  0  0  0
   -5.0523   -7.5829   29.2385 C   0  0  0  0  0  0  0  0  0  0  0  0
   -4.7461   -6.5107   28.3222 N   0  0  0  0  0  0  0  0  0  0  0  0
   -4.4164   -7.7894   30.2665 O   0  0  0  0  0  0  0  0  0  0  0  0
   -3.9720   -6.7264   27.1751 C   0  0  2  0  0  0  0  0  0  0  0  0
   -2.6756   -5.8802   27.2576 C   0  0  0  0  0  0  0  0  0  0  0  0
   -4.1484   -4.1300   28.2058 C   0  0  0  0  0  0  0  0  0  0  0  0
   -2.8874   -4.5250   27.5721 N   0  0  0  0  0  0  0  0  0  0  0  0
   -4.7529   -6.3781   25.9240 C   0  0  0  0  0  0  0  0  0  0  0  0
   -6.0427   -6.9910   25.7654 N   0  0  0  0  0  0  0  0  0  0  0  0
   -7.9740   -6.8074   22.0354 C   0  0  0  0  0  0  0  0  0  0  0  0
   -7.4425   -5.6503   22.5880 C   0  0  0  0  0  0  0  0  0  0  0  0
   -6.7982   -5.7123   23.8177 C   0  0  0  0  0  0  0  0  0  0  0  0
   -6.6979   -6.9249   24.4969 C   0  0  0  0  0  0  0  0  0  0  0  0
   -7.2388   -8.0739   23.9470 C   0  0  0  0  0  0  0  0  0  0  0  0
   -7.8735   -8.0144   22.7121 C   0  0  0  0  0  0  0  0  0  0  0  0
  1  2  1  0  0  0  0
  2  3  2  0  0  0  0
  2 20  1  0  0  0  0
  4  6  1  0  0  0  0
  5  6  2  0  0  0  0
  5 16  1  0  0  0  0
  6  7  1  0  0  0  0
  7  8  1  0  0  0  0
  8  9  1  0  0  0  0
  8 10  2  0  0  0  0
  9 12  1  0  0  0  0
  9 16  2  0  0  0  0
 11 13  1  0  0  0  0
 11 12  1  0  0  0  0
 12 14  1  0  0  0  0
 14 15  1  0  0  0  0
 14 18  1  6  0  0  0
 15 17  1  0  0  0  0
 16 17  1  0  0  0  0
 18 19  1  0  0  0  0
 19 23  1  0  0  0  0
 20 21  2  0  0  0  0
 20 25  1  0  0  0  0
 21 22  1  0  0  0  0
 22 23  2  0  0  0  0
 23 24  1  0  0  0  0
 24 25  2  0  0  0  0
M  END
>  <CHROM.1>
-77.64508187,-52.85233052,-167.08490978,-48.27381339,115.96681552,-5.99328742
-5.73253466,26.22470670,-2.37043745,-1.00218083,0.55956404

>  <Name>
ligand

>  <RI>
0

>  <Rbt.Current_Directory>
/home/itssahil/PROJECTS/Mol_Feturizer/New_Systems/rnas/4LVV

>  <Rbt.Executable>
rbdock ($Id: //depot/dev/client3/rdock/2013.1/src/exe/rbdock.cxx#4 $)

>  <Rbt.Library>
libRbt.so (2013.1, Build901 2013/11/27)

>  <Rbt.Parameter_File>
/export/apps/rDock/src/rDock_2013.1_src/data/scripts/dock_solv.prm

>  <Rbt.Receptor>
prm/blind_docking_40.prm

>  <SCORE>
-11.3424

>  <SCORE.INTER>
-10.0973

>  <SCORE.INTER.CONST>
1

>  <SCORE.INTER.POLAR>
0

>  <SCORE.INTER.ROT>
5

>  <SCORE.INTER.SOLV>
16.225

>  <SCORE.INTER.VDW>
-19.0732

>  <SCORE.INTER.norm>
-0.403891

>  <SCORE.INTRA>
-1.24514

>  <SCORE.INTRA.DIHEDRAL>
-0.510333

>  <SCORE.INTRA.DIHEDRAL.0>
3.94806

>  <SCORE.INTRA.POLAR>
0

>  <SCORE.INTRA.POLAR.0>
0

>  <SCORE.INTRA.REPUL>
0

>  <SCORE.INTRA.REPUL.0>
0

>  <SCORE.INTRA.SOLV>
0.0475338

>  <SCORE.INTRA.SOLV.lig_0>
-70.9803

>  <SCORE.INTRA.VDW>
-1.01374

>  <SCORE.INTRA.VDW.0>
-0.709409

>  <SCORE.INTRA.norm>
-0.0498057

>  <SCORE.RESTR>
0

>  <SCORE.RESTR.CAVITY>
0

>  <SCORE.RESTR.norm>
0

>  <SCORE.SYSTEM>
0

>  <SCORE.SYSTEM.CONST>
0

>  <SCORE.SYSTEM.DIHEDRAL>
0

>  <SCORE.SYSTEM.SOLV>
0

>  <SCORE.SYSTEM.norm>
0

>  <SCORE.heavy>
25

>  <SCORE.norm>
-0.453696

>  <RMSD>
20.236

$$$$
ligand
 OpenBabel11021811503D
libRbt.so/2013.1/901 2013/11/27
 25 27  0  0  0  0  0  0  0  0999 V2000
   -8.3203   -7.1130   20.5330 N   0  0  0  0  0  0  0  0  0  0  0  0
   -7.0570   -7.3678   21.1532 C   0  0  0  0  0  0  0  0  0  0  0  0
   -6.1779   -7.9769   20.5563 O   0  0  0  0  0  0  0  0  0  0  0  0
   -6.6197   -1.6002   31.8175 N   0  0  0  0  0  0  0  0  0  0  0  0
   -5.0180   -2.9320   30.6233 N   0  0  0  0  0  0  0  0  0  0  0  0
   -6.2746   -2.7864   31.1034 C   0  0  0  0  0  0  0  0  0  0  0  0
   -7.2164   -3.7609   30.9250 N   0  0  0  0  0  0  0  0  0  0  0  0
   -6.9444   -4.9124   30.2598 C   0  0  0  0  0  0  0  0  0  0  0  0
   -5.6449   -5.0966   29.7297 C   0  0  0  0  0  0  0  0  0  0  0  0
   -7.9371   -5.8508   30.1019 O   0  0  0  0  0  0  0  0  0  0  0  0
   -5.6101   -7.6210   29.3769 C   0  0  0  0  0  0  0  0  0  0  0  0
   -5.2015   -6.2842   29.0180 N   0  0  0  0  0  0  0  0  0  0  0  0
   -5.7675   -8.5180   28.5556 O   0  0  0  0  0  0  0  0  0  0  0  0
   -4.2535   -6.0532   28.0132 C   0  0  2  0  0  0  0  0  0  0  0  0
   -3.0134   -5.3496   28.6220 C   0  0  0  0  0  0  0  0  0  0  0  0
   -4.6707   -4.0713   29.9452 C   0  0  0  0  0  0  0  0  0  0  0  0
   -3.3151   -4.2231   29.4096 N   0  0  0  0  0  0  0  0  0  0  0  0
   -4.8435   -5.2146   26.8974 C   0  0  0  0  0  0  0  0  0  0  0  0
   -6.1775   -5.5361   26.4718 N   0  0  0  0  0  0  0  0  0  0  0  0
   -6.8224   -6.8633   22.5349 C   0  0  0  0  0  0  0  0  0  0  0  0
   -6.7776   -5.5013   22.7988 C   0  0  0  0  0  0  0  0  0  0  0  0
   -6.5577   -5.0627   24.0989 C   0  0  0  0  0  0  0  0  0  0  0  0
   -6.3962   -5.9836   25.1322 C   0  0  0  0  0  0  0  0  0  0  0  0
   -6.4523   -7.3405   24.8660 C   0  0  0  0  0  0  0  0  0  0  0  0
   -6.6612   -7.7795   23.5641 C   0  0  0  0  0  0  0  0  0  0  0  0
  1  2  1  0  0  0  0
  2  3  2  0  0  0  0
  2 20  1  0  0  0  0
  4  6  1  0  0  0  0
  5  6  2  0  0  0  0
  5 16  1  0  0  0  0
  6  7  1  0  0  0  0
  7  8  1  0  0  0  0
  8  9  1  0  0  0  0
  8 10  2  0  0  0  0
  9 12  1  0  0  0  0
  9 16  2  0  0  0  0
 11 13  1  0  0  0  0
 11 12  1  0  0  0  0
 12 14  1  0  0  0  0
 14 15  1  0  0  0  0
 14 18  1  6  0  0  0
 15 17  1  0  0  0  0
 16 17  1  0  0  0  0
 18 19  1  0  0  0  0
 19 23  1  0  0  0  0
 20 21  2  0  0  0  0
 20 25  1  0  0  0  0
 21 22  1  0  0  0  0
 22 23  2  0  0  0  0
 23 24  1  0  0  0  0
 24 25  2  0  0  0  0
M  END
>  <CHROM.1>
146.86904611,-42.30564190,-117.07993055,-84.77711474,-65.56944298,-5.97932359
-5.65850040,27.10387383,1.82018266,1.01981258,-2.13007431

>  <Name>
ligand

>  <RI>
0

>  <Rbt.Current_Directory>
/home/itssahil/PROJECTS/Mol_Feturizer/New_Systems/rnas/4LVV

>  <Rbt.Executable>
rbdock ($Id: //depot/dev/client3/rdock/2013.1/src/exe/rbdock.cxx#4 $)

>  <Rbt.Library>
libRbt.so (2013.1, Build901 2013/11/27)

>  <Rbt.Parameter_File>
/export/apps/rDock/src/rDock_2013.1_src/data/scripts/dock_solv.prm

>  <Rbt.Receptor>
prm/blind_docking_60.prm

>  <SCORE>
-11.1948

>  <SCORE.INTER>
-10.8806

>  <SCORE.INTER.CONST>
1

>  <SCORE.INTER.POLAR>
0

>  <SCORE.INTER.ROT>
5

>  <SCORE.INTER.SOLV>
10.9041

>  <SCORE.INTER.VDW>
-17.8218

>  <SCORE.INTER.norm>
-0.435226

>  <SCORE.INTRA>
-0.314206

>  <SCORE.INTRA.DIHEDRAL>
1.39873

>  <SCORE.INTRA.DIHEDRAL.0>
3.94806

>  <SCORE.INTRA.POLAR>
0

>  <SCORE.INTRA.POLAR.0>
0

>  <SCORE.INTRA.REPUL>
0

>  <SCORE.INTRA.REPUL.0>
0

>  <SCORE.INTRA.SOLV>
0.793089

>  <SCORE.INTRA.SOLV.lig_0>
-70.9803

>  <SCORE.INTRA.VDW>
-1.41012

>  <SCORE.INTRA.VDW.0>
-0.709409

>  <SCORE.INTRA.norm>
-0.0125682

>  <SCORE.RESTR>
0

>  <SCORE.RESTR.CAVITY>
0

>  <SCORE.RESTR.norm>
0

>  <SCORE.SYSTEM>
0

>  <SCORE.SYSTEM.CONST>
0

>  <SCORE.SYSTEM.DIHEDRAL>
0

>  <SCORE.SYSTEM.SOLV>
0

>  <SCORE.SYSTEM.norm>
0

>  <SCORE.heavy>
25

>  <SCORE.norm>
-0.447794

>  <RMSD>
20.243

$$$$
ligand
 OpenBabel11021811503D
libRbt.so/2013.1/901 2013/11/27
 25 27  0  0  0  0  0  0  0  0999 V2000
   -4.1679   -6.7919   28.7457 N   0  0  0  0  0  0  0  0  0  0  0  0
   -4.1246   -5.6398   27.8994 C   0  0  0  0  0  0  0  0  0  0  0  0
   -3.3807   -4.7015   28.1568 O   0  0  0  0  0  0  0  0  0  0  0  0
  -11.3241  -11.7853   23.8263 N   0  0  0  0  0  0  0  0  0  0  0  0
  -10.2252  -10.0544   22.5767 N   0  0  0  0  0  0  0  0  0  0  0  0
  -11.2067  -10.4184   23.4340 C   0  0  0  0  0  0  0  0  0  0  0  0
  -12.0941   -9.5008   23.9227 N   0  0  0  0  0  0  0  0  0  0  0  0
  -12.0353   -8.1886   23.5805 C   0  0  0  0  0  0  0  0  0  0  0  0
  -11.0138   -7.7651   22.6968 C   0  0  0  0  0  0  0  0  0  0  0  0
  -12.9490   -7.3107   24.1146 O   0  0  0  0  0  0  0  0  0  0  0  0
  -11.9455   -5.5293   21.9023 C   0  0  0  0  0  0  0  0  0  0  0  0
  -10.8414   -6.4015   22.2231 N   0  0  0  0  0  0  0  0  0  0  0  0
  -12.8959   -5.8767   21.2096 O   0  0  0  0  0  0  0  0  0  0  0  0
   -9.5142   -6.0181   21.9923 C   0  0  2  0  0  0  0  0  0  0  0  0
   -8.8662   -6.9836   20.9669 C   0  0  0  0  0  0  0  0  0  0  0  0
  -10.1082   -8.7466   22.1836 C   0  0  0  0  0  0  0  0  0  0  0  0
   -9.0353   -8.3476   21.2686 N   0  0  0  0  0  0  0  0  0  0  0  0
   -8.7227   -6.0091   23.2845 C   0  0  0  0  0  0  0  0  0  0  0  0
   -7.3561   -5.5718   23.2123 N   0  0  0  0  0  0  0  0  0  0  0  0
   -4.9894   -5.6083   26.6870 C   0  0  0  0  0  0  0  0  0  0  0  0
   -6.1055   -4.7851   26.6283 C   0  0  0  0  0  0  0  0  0  0  0  0
   -6.8915   -4.7781   25.4824 C   0  0  0  0  0  0  0  0  0  0  0  0
   -6.5543   -5.5821   24.3954 C   0  0  0  0  0  0  0  0  0  0  0  0
   -5.4345   -6.3933   24.4545 C   0  0  0  0  0  0  0  0  0  0  0  0
   -4.6545   -6.4088   25.6045 C   0  0  0  0  0  0  0  0  0  0  0  0
  1  2  1  0  0  0  0
  2  3  2  0  0  0  0
  2 20  1  0  0  0  0
  4  6  1  0  0  0  0
  5  6  2  0  0  0  0
  5 16  1  0  0  0  0
  6  7  1  0  0  0  0
  7  8  1  0  0  0  0
  8  9  1  0  0  0  0
  8 10  2  0  0  0  0
  9 12  1  0  0  0  0
  9 16  2  0  0  0  0
 11 13  1  0  0  0  0
 11 12  1  0  0  0  0
 12 14  1  0  0  0  0
 14 15  1  0  0  0  0
 14 18  1  1  0  0  0
 15 17  1  0  0  0  0
 16 17  1  0  0  0  0
 18 19  1  0  0  0  0
 19 23  1  0  0  0  0
 20 21  2  0  0  0  0
 20 25  1  0  0  0  0
 21 22  1  0  0  0  0
 22 23  2  0  0  0  0
 23 24  1  0  0  0  0
 24 25  2  0  0  0  0
M  END
>  <CHROM.1>
-47.38302296,-177.09139809,-178.16250900,-62.98466094,107.90709546,-8.74713589
-7.00849575,23.97913484,-0.02187223,0.64262745,2.64510204

>  <Name>
ligand

>  <RI>
0

>  <Rbt.Current_Directory>
/home/itssahil/PROJECTS/Mol_Feturizer/New_Systems/rnas/4LVV

>  <Rbt.Executable>
rbdock ($Id: //depot/dev/client3/rdock/2013.1/src/exe/rbdock.cxx#4 $)

>  <Rbt.Library>
libRbt.so (2013.1, Build901 2013/11/27)

>  <Rbt.Parameter_File>
/export/apps/rDock/src/rDock_2013.1_src/data/scripts/dock_solv.prm

>  <Rbt.Receptor>
prm/blind_docking_60.prm

>  <SCORE>
-12.8136

>  <SCORE.INTER>
-11.4962

>  <SCORE.INTER.CONST>
1

>  <SCORE.INTER.POLAR>
0

>  <SCORE.INTER.ROT>
5

>  <SCORE.INTER.SOLV>
9.72616

>  <SCORE.INTER.VDW>
-17.8395

>  <SCORE.INTER.norm>
-0.459847

>  <SCORE.INTRA>
-1.31744

>  <SCORE.INTRA.DIHEDRAL>
-0.554628

>  <SCORE.INTRA.DIHEDRAL.0>
3.94806

>  <SCORE.INTRA.POLAR>
0

>  <SCORE.INTRA.POLAR.0>
0

>  <SCORE.INTRA.REPUL>
0

>  <SCORE.INTRA.REPUL.0>
0

>  <SCORE.INTRA.SOLV>
-0.169066

>  <SCORE.INTRA.SOLV.lig_0>
-70.9803

>  <SCORE.INTRA.VDW>
-0.955595

>  <SCORE.INTRA.VDW.0>
-0.709409

>  <SCORE.INTRA.norm>
-0.0526977

>  <SCORE.RESTR>
0

>  <SCORE.RESTR.CAVITY>
0

>  <SCORE.RESTR.norm>
0

>  <SCORE.SYSTEM>
0

>  <SCORE.SYSTEM.CONST>
0

>  <SCORE.SYSTEM.DIHEDRAL>
0

>  <SCORE.SYSTEM.SOLV>
0

>  <SCORE.SYSTEM.norm>
0

>  <SCORE.heavy>
25

>  <SCORE.norm>
-0.512544

>  <RMSD>
20.282

$$$$
ligand
 OpenBabel11021811503D
libRbt.so/2013.1/901 2013/11/27
 25 27  0  0  0  0  0  0  0  0999 V2000
   -6.4920   -8.6735   20.5981 N   0  0  0  0  0  0  0  0  0  0  0  0
   -7.3399   -7.6141   21.0500 C   0  0  0  0  0  0  0  0  0  0  0  0
   -8.2978   -7.2495   20.3795 O   0  0  0  0  0  0  0  0  0  0  0  0
   -1.6385   -7.1401   27.6870 N   0  0  0  0  0  0  0  0  0  0  0  0
   -3.7824   -6.2534   28.3054 N   0  0  0  0  0  0  0  0  0  0  0  0
   -2.5781   -6.0667   27.7175 C   0  0  0  0  0  0  0  0  0  0  0  0
   -2.2424   -4.8641   27.1613 N   0  0  0  0  0  0  0  0  0  0  0  0
   -3.0925   -3.8059   27.1658 C   0  0  0  0  0  0  0  0  0  0  0  0
   -4.3679   -3.9653   27.7587 C   0  0  0  0  0  0  0  0  0  0  0  0
   -2.7023   -2.6248   26.5795 O   0  0  0  0  0  0  0  0  0  0  0  0
   -5.0486   -1.5359   28.1235 C   0  0  0  0  0  0  0  0  0  0  0  0
   -5.3709   -2.9178   27.8599 N   0  0  0  0  0  0  0  0  0  0  0  0
   -5.4066   -0.6134   27.3992 O   0  0  0  0  0  0  0  0  0  0  0  0
   -6.6981   -3.3598   27.7905 C   0  0  2  0  0  0  0  0  0  0  0  0
   -6.9568   -4.4020   28.9088 C   0  0  0  0  0  0  0  0  0  0  0  0
   -4.6898   -5.2272   28.3510 C   0  0  0  0  0  0  0  0  0  0  0  0
   -6.0010   -5.4329   28.9722 N   0  0  0  0  0  0  0  0  0  0  0  0
   -6.9973   -3.9573   26.4304 C   0  0  0  0  0  0  0  0  0  0  0  0
   -6.1920   -5.0715   26.0132 N   0  0  0  0  0  0  0  0  0  0  0  0
   -7.0471   -6.9718   22.3616 C   0  0  0  0  0  0  0  0  0  0  0  0
   -6.9782   -7.7256   23.5252 C   0  0  0  0  0  0  0  0  0  0  0  0
   -6.7023   -7.0965   24.7331 C   0  0  0  0  0  0  0  0  0  0  0  0
   -6.4836   -5.7209   24.7739 C   0  0  0  0  0  0  0  0  0  0  0  0
   -6.5427   -4.9751   23.6095 C   0  0  0  0  0  0  0  0  0  0  0  0
   -6.8296   -5.6023   22.4030 C   0  0  0  0  0  0  0  0  0  0  0  0
  1  2  1  0  0  0  0
  2  3  2  0  0  0  0
  2 20  1  0  0  0  0
  4  6  1  0  0  0  0
  5  6  2  0  0  0  0
  5 16  1  0  0  0  0
  6  7  1  0  0  0  0
  7  8  1  0  0  0  0
  8  9  1  0  0  0  0
  8 10  2  0  0  0  0
  9 12  1  0  0  0  0
  9 16  2  0  0  0  0
 11 13  1  0  0  0  0
 11 12  1  0  0  0  0
 12 14  1  0  0  0  0
 14 15  1  0  0  0  0
 14 18  1  6  0  0  0
 15 17  1  0  0  0  0
 16 17  1  0  0  0  0
 18 19  1  0  0  0  0
 19 23  1  0  0  0  0
 20 21  2  0  0  0  0
 20 25  1  0  0  0  0
 21 22  1  0  0  0  0
 22 23  2  0  0  0  0
 23 24  1  0  0  0  0
 24 25  2  0  0  0  0
M  END
>  <CHROM.1>
125.07742788,58.53136288,176.39098809,-125.65216727,-56.59906162,-5.44021443
-5.08157948,25.86591353,-2.05837271,-0.65557620,0.72873252

>  <Name>
ligand

>  <RI>
0

>  <Rbt.Current_Directory>
/home/itssahil/PROJECTS/Mol_Feturizer/New_Systems/rnas/4LVV

>  <Rbt.Executable>
rbdock ($Id: //depot/dev/client3/rdock/2013.1/src/exe/rbdock.cxx#4 $)

>  <Rbt.Library>
libRbt.so (2013.1, Build901 2013/11/27)

>  <Rbt.Parameter_File>
/export/apps/rDock/src/rDock_2013.1_src/data/scripts/dock_solv.prm

>  <Rbt.Receptor>
prm/blind_docking_60.prm

>  <SCORE>
-11.5202

>  <SCORE.INTER>
-11.2757

>  <SCORE.INTER.CONST>
1

>  <SCORE.INTER.POLAR>
0

>  <SCORE.INTER.ROT>
5

>  <SCORE.INTER.SOLV>
9.97841

>  <SCORE.INTER.VDW>
-17.7766

>  <SCORE.INTER.norm>
-0.451027

>  <SCORE.INTRA>
-0.244485

>  <SCORE.INTRA.DIHEDRAL>
-0.690263

>  <SCORE.INTRA.DIHEDRAL.0>
3.94806

>  <SCORE.INTRA.POLAR>
0

>  <SCORE.INTRA.POLAR.0>
0

>  <SCORE.INTRA.REPUL>
0

>  <SCORE.INTRA.REPUL.0>
0

>  <SCORE.INTRA.SOLV>
2.3012

>  <SCORE.INTRA.SOLV.lig_0>
-70.9803

>  <SCORE.INTRA.VDW>
-1.04995

>  <SCORE.INTRA.VDW.0>
-0.709409

>  <SCORE.INTRA.norm>
-0.00977942

>  <SCORE.RESTR>
0

>  <SCORE.RESTR.CAVITY>
0

>  <SCORE.RESTR.norm>
0

>  <SCORE.SYSTEM>
0

>  <SCORE.SYSTEM.CONST>
0

>  <SCORE.SYSTEM.DIHEDRAL>
0

>  <SCORE.SYSTEM.SOLV>
0

>  <SCORE.SYSTEM.norm>
0

>  <SCORE.heavy>
25

>  <SCORE.norm>
-0.460807

>  <RMSD>
20.318

$$$$
ligand
 OpenBabel11021811503D
libRbt.so/2013.1/901 2013/11/27
 25 27  0  0  0  0  0  0  0  0999 V2000
   -1.1628   -7.4768   24.1726 N   0  0  0  0  0  0  0  0  0  0  0  0
   -1.1770   -7.0846   25.5479 C   0  0  0  0  0  0  0  0  0  0  0  0
   -0.1943   -7.2568   26.2584 O   0  0  0  0  0  0  0  0  0  0  0  0
   -1.6485   -3.3250   30.7790 N   0  0  0  0  0  0  0  0  0  0  0  0
   -3.9426   -2.9121   30.2031 N   0  0  0  0  0  0  0  0  0  0  0  0
   -2.6396   -2.9136   29.8385 C   0  0  0  0  0  0  0  0  0  0  0  0
   -2.2554   -2.5180   28.5878 N   0  0  0  0  0  0  0  0  0  0  0  0
   -3.1523   -2.1109   27.6538 C   0  0  0  0  0  0  0  0  0  0  0  0
   -4.5269   -2.1086   27.9917 C   0  0  0  0  0  0  0  0  0  0  0  0
   -2.7059   -1.7360   26.4084 O   0  0  0  0  0  0  0  0  0  0  0  0
   -5.4720   -0.5611   26.2000 C   0  0  0  0  0  0  0  0  0  0  0  0
   -5.5965   -1.6769   27.1067 N   0  0  0  0  0  0  0  0  0  0  0  0
   -5.4253   -0.6887   24.9812 O   0  0  0  0  0  0  0  0  0  0  0  0
   -6.8104   -2.3563   27.2695 C   0  0  2  0  0  0  0  0  0  0  0  0
   -7.2930   -2.2121   28.7357 C   0  0  0  0  0  0  0  0  0  0  0  0
   -4.9034   -2.5089   29.3126 C   0  0  0  0  0  0  0  0  0  0  0  0
   -6.3166   -2.5230   29.7002 N   0  0  0  0  0  0  0  0  0  0  0  0
   -6.6634   -3.8191   26.9019 C   0  0  0  0  0  0  0  0  0  0  0  0
   -5.8191   -4.6234   27.7411 N   0  0  0  0  0  0  0  0  0  0  0  0
   -2.4049   -6.4456   26.0982 C   0  0  0  0  0  0  0  0  0  0  0  0
   -3.6295   -6.5871   25.4603 C   0  0  0  0  0  0  0  0  0  0  0  0
   -4.7567   -5.9792   25.9996 C   0  0  0  0  0  0  0  0  0  0  0  0
   -4.6605   -5.2437   27.1793 C   0  0  0  0  0  0  0  0  0  0  0  0
   -3.4393   -5.1144   27.8176 C   0  0  0  0  0  0  0  0  0  0  0  0
   -2.3098   -5.7130   27.2725 C   0  0  0  0  0  0  0  0  0  0  0  0
  1  2  1  0  0  0  0
  2  3  2  0  0  0  0
  2 20  1  0  0  0  0
  4  6  1  0  0  0  0
  5  6  2  0  0  0  0
  5 16  1  0  0  0  0
  6  7  1  0  0  0  0
  7  8  1  0  0  0  0
  8  9  1  0  0  0  0
  8 10  2  0  0  0  0
  9 12  1  0  0  0  0
  9 16  2  0  0  0  0
 11 13  1  0  0  0  0
 11 12  1  0  0  0  0
 12 14  1  0  0  0  0
 14 15  1  0  0  0  0
 14 18  1  1  0  0  0
 15 17  1  0  0  0  0
 16 17  1  0  0  0  0
 18 19  1  0  0  0  0
 19 23  1  0  0  0  0
 20 21  2  0  0  0  0
 20 25  1  0  0  0  0
 21 22  1  0  0  0  0
 22 23  2  0  0  0  0
 23 24  1  0  0  0  0
 24 25  2  0  0  0  0
M  END
>  <CHROM.1>
110.56674824,66.46545251,-118.44849408,-49.60942403,19.66053557,-3.96247708
-3.75456352,27.38962948,0.73984775,0.61504161,-2.17566404

>  <Name>
ligand

>  <RI>
0

>  <Rbt.Current_Directory>
/home/itssahil/PROJECTS/Mol_Feturizer/New_Systems/rnas/4LVV

>  <Rbt.Executable>
rbdock ($Id: //depot/dev/client3/rdock/2013.1/src/exe/rbdock.cxx#4 $)

>  <Rbt.Library>
libRbt.so (2013.1, Build901 2013/11/27)

>  <Rbt.Parameter_File>
/export/apps/rDock/src/rDock_2013.1_src/data/scripts/dock_solv.prm

>  <Rbt.Receptor>
prm/blind_docking_40.prm

>  <SCORE>
-13.4386

>  <SCORE.INTER>
-12.6248

>  <SCORE.INTER.CONST>
1

>  <SCORE.INTER.POLAR>
0

>  <SCORE.INTER.ROT>
5

>  <SCORE.INTER.SOLV>
11.6255

>  <SCORE.INTER.VDW>
-19.225

>  <SCORE.INTER.norm>
-0.504992

>  <SCORE.INTRA>
-0.813808

>  <SCORE.INTRA.DIHEDRAL>
0.734615

>  <SCORE.INTRA.DIHEDRAL.0>
3.94806

>  <SCORE.INTRA.POLAR>
0

>  <SCORE.INTRA.POLAR.0>
0

>  <SCORE.INTRA.REPUL>
0

>  <SCORE.INTRA.REPUL.0>
0

>  <SCORE.INTRA.SOLV>
2.4811

>  <SCORE.INTRA.SOLV.lig_0>
-70.9803

>  <SCORE.INTRA.VDW>
-2.42166

>  <SCORE.INTRA.VDW.0>
-0.709409

>  <SCORE.INTRA.norm>
-0.0325523

>  <SCORE.RESTR>
0

>  <SCORE.RESTR.CAVITY>
0

>  <SCORE.RESTR.norm>
0

>  <SCORE.SYSTEM>
0

>  <SCORE.SYSTEM.CONST>
0

>  <SCORE.SYSTEM.DIHEDRAL>
0

>  <SCORE.SYSTEM.SOLV>
0

>  <SCORE.SYSTEM.norm>
0

>  <SCORE.heavy>
25

>  <SCORE.norm>
-0.537545

>  <RMSD>
20.319

$$$$
ligand
 OpenBabel11021811503D
libRbt.so/2013.1/901 2013/11/27
 25 27  0  0  0  0  0  0  0  0999 V2000
   -5.3795   -9.2265   21.5708 N   0  0  0  0  0  0  0  0  0  0  0  0
   -6.6145   -8.5321   21.7657 C   0  0  0  0  0  0  0  0  0  0  0  0
   -7.6333   -8.8925   21.1891 O   0  0  0  0  0  0  0  0  0  0  0  0
   -1.9877   -6.6919   29.5957 N   0  0  0  0  0  0  0  0  0  0  0  0
   -4.1519   -5.6529   29.6363 N   0  0  0  0  0  0  0  0  0  0  0  0
   -2.9075   -5.7158   29.1087 C   0  0  0  0  0  0  0  0  0  0  0  0
   -2.5131   -4.8534   28.1242 N   0  0  0  0  0  0  0  0  0  0  0  0
   -3.3421   -3.9010   27.6262 C   0  0  0  0  0  0  0  0  0  0  0  0
   -4.6573   -3.8120   28.1420 C   0  0  0  0  0  0  0  0  0  0  0  0
   -2.8917   -3.0701   26.6273 O   0  0  0  0  0  0  0  0  0  0  0  0
   -5.3165   -1.4617   27.4072 C   0  0  0  0  0  0  0  0  0  0  0  0
   -5.6455   -2.8304   27.7255 N   0  0  0  0  0  0  0  0  0  0  0  0
   -5.5587   -0.9487   26.3199 O   0  0  0  0  0  0  0  0  0  0  0  0
   -6.9728   -3.2763   27.7565 C   0  0  2  0  0  0  0  0  0  0  0  0
   -7.3254   -3.7564   29.1879 C   0  0  0  0  0  0  0  0  0  0  0  0
   -5.0413   -4.7128   29.1849 C   0  0  0  0  0  0  0  0  0  0  0  0
   -6.3951   -4.6545   29.7432 N   0  0  0  0  0  0  0  0  0  0  0  0
   -7.1905   -4.3925   26.7550 C   0  0  0  0  0  0  0  0  0  0  0  0
   -6.7523   -4.1575   25.4071 N   0  0  0  0  0  0  0  0  0  0  0  0
   -6.6442   -7.3706   22.6977 C   0  0  0  0  0  0  0  0  0  0  0  0
   -6.6464   -6.0690   22.2154 C   0  0  0  0  0  0  0  0  0  0  0  0
   -6.6752   -5.0071   23.1111 C   0  0  0  0  0  0  0  0  0  0  0  0
   -6.7148   -5.2472   24.4831 C   0  0  0  0  0  0  0  0  0  0  0  0
   -6.7233   -6.5468   24.9591 C   0  0  0  0  0  0  0  0  0  0  0  0
   -6.6832   -7.6090   24.0639 C   0  0  0  0  0  0  0  0  0  0  0  0
  1  2  1  0  0  0  0
  2  3  2  0  0  0  0
  2 20  1  0  0  0  0
  4  6  1  0  0  0  0
  5  6  2  0  0  0  0
  5 16  1  0  0  0  0
  6  7  1  0  0  0  0
  7  8  1  0  0  0  0
  8  9  1  0  0  0  0
  8 10  2  0  0  0  0
  9 12  1  0  0  0  0
  9 16  2  0  0  0  0
 11 13  1  0  0  0  0
 11 12  1  0  0  0  0
 12 14  1  0  0  0  0
 14 15  1  0  0  0  0
 14 18  1  6  0  0  0
 15 17  1  0  0  0  0
 16 17  1  0  0  0  0
 18 19  1  0  0  0  0
 19 23  1  0  0  0  0
 20 21  2  0  0  0  0
 20 25  1  0  0  0  0
 21 22  1  0  0  0  0
 22 23  2  0  0  0  0
 23 24  1  0  0  0  0
 24 25  2  0  0  0  0
M  END
>  <CHROM.1>
121.96250398,-50.93422698,169.05359200,161.41645278,102.44841795,-5.51676349
-5.07769251,26.20883657,-2.00004398,-0.83008228,0.68974387

>  <Name>
ligand

>  <RI>
0

>  <Rbt.Current_Directory>
/home/itssahil/PROJECTS/Mol_Feturizer/New_Systems/rnas/4LVV

>  <Rbt.Executable>
rbdock ($Id: //depot/dev/client3/rdock/2013.1/src/exe/rbdock.cxx#4 $)

>  <Rbt.Library>
libRbt.so (2013.1, Build901 2013/11/27)

>  <Rbt.Parameter_File>
/export/apps/rDock/src/rDock_2013.1_src/data/scripts/dock_solv.prm

>  <Rbt.Receptor>
prm/blind_docking_80.prm

>  <SCORE>
-8.61874

>  <SCORE.INTER>
-8.2219

>  <SCORE.INTER.CONST>
1

>  <SCORE.INTER.POLAR>
0

>  <SCORE.INTER.ROT>
5

>  <SCORE.INTER.SOLV>
10.8666

>  <SCORE.INTER.VDW>
-16.0368

>  <SCORE.INTER.norm>
-0.328876

>  <SCORE.INTRA>
-0.399251

>  <SCORE.INTRA.DIHEDRAL>
-0.267256

>  <SCORE.INTRA.DIHEDRAL.0>
3.94806

>  <SCORE.INTRA.POLAR>
0

>  <SCORE.INTRA.POLAR.0>
0

>  <SCORE.INTRA.REPUL>
0

>  <SCORE.INTRA.REPUL.0>
0

>  <SCORE.INTRA.SOLV>
0.622657

>  <SCORE.INTRA.SOLV.lig_0>
-70.9803

>  <SCORE.INTRA.VDW>
-0.576951

>  <SCORE.INTRA.VDW.0>
-0.709409

>  <SCORE.INTRA.norm>
-0.01597

>  <SCORE.RESTR>
0.00240291

>  <SCORE.RESTR.CAVITY>
0.00240291

>  <SCORE.RESTR.norm>
9.61163e-05

>  <SCORE.SYSTEM>
0

>  <SCORE.SYSTEM.CONST>
0

>  <SCORE.SYSTEM.DIHEDRAL>
0

>  <SCORE.SYSTEM.SOLV>
0

>  <SCORE.SYSTEM.norm>
0

>  <SCORE.heavy>
25

>  <SCORE.norm>
-0.34475

>  <RMSD>
20.328

$$$$
ligand
 OpenBabel11021811503D
libRbt.so/2013.1/901 2013/11/27
 25 27  0  0  0  0  0  0  0  0999 V2000
  -10.2179   -5.3216   21.7265 N   0  0  0  0  0  0  0  0  0  0  0  0
   -9.0495   -6.1172   21.5087 C   0  0  0  0  0  0  0  0  0  0  0  0
   -8.7735   -6.5311   20.3895 O   0  0  0  0  0  0  0  0  0  0  0  0
   -6.6224   -1.4863   29.8947 N   0  0  0  0  0  0  0  0  0  0  0  0
   -4.8869   -2.8663   28.9731 N   0  0  0  0  0  0  0  0  0  0  0  0
   -6.1001   -2.7726   29.5650 C   0  0  0  0  0  0  0  0  0  0  0  0
   -6.8295   -3.8899   29.8618 N   0  0  0  0  0  0  0  0  0  0  0  0
   -6.3815   -5.1392   29.5774 C   0  0  0  0  0  0  0  0  0  0  0  0
   -5.1229   -5.2789   28.9450 C   0  0  0  0  0  0  0  0  0  0  0  0
   -7.1664   -6.2244   29.8894 O   0  0  0  0  0  0  0  0  0  0  0  0
   -4.5924   -7.7230   29.4381 C   0  0  0  0  0  0  0  0  0  0  0  0
   -4.5044   -6.5493   28.6030 N   0  0  0  0  0  0  0  0  0  0  0  0
   -4.8332   -7.6752   30.6396 O   0  0  0  0  0  0  0  0  0  0  0  0
   -3.7157   -6.5315   27.4456 C   0  0  2  0  0  0  0  0  0  0  0  0
   -2.6020   -5.4631   27.5933 C   0  0  0  0  0  0  0  0  0  0  0  0
   -4.3693   -4.0964   28.6612 C   0  0  0  0  0  0  0  0  0  0  0  0
   -3.0631   -4.1988   28.0046 N   0  0  0  0  0  0  0  0  0  0  0  0
   -4.5617   -6.2487   26.2206 C   0  0  0  0  0  0  0  0  0  0  0  0
   -5.6109   -7.1829   25.9196 N   0  0  0  0  0  0  0  0  0  0  0  0
   -8.1627   -6.4200   22.6665 C   0  0  0  0  0  0  0  0  0  0  0  0
   -8.1141   -7.6949   23.2133 C   0  0  0  0  0  0  0  0  0  0  0  0
   -7.2757   -7.9453   24.2928 C   0  0  0  0  0  0  0  0  0  0  0  0
   -6.4801   -6.9271   24.8143 C   0  0  0  0  0  0  0  0  0  0  0  0
   -6.5240   -5.6602   24.2589 C   0  0  0  0  0  0  0  0  0  0  0  0
   -7.3705   -5.4066   23.1864 C   0  0  0  0  0  0  0  0  0  0  0  0
  1  2  1  0  0  0  0
  2  3  2  0  0  0  0
  2 20  1  0  0  0  0
  4  6  1  0  0  0  0
  5  6  2  0  0  0  0
  5 16  1  0  0  0  0
  6  7  1  0  0  0  0
  7  8  1  0  0  0  0
  8  9  1  0  0  0  0
  8 10  2  0  0  0  0
  9 12  1  0  0  0  0
  9 16  2  0  0  0  0
 11 13  1  0  0  0  0
 11 12  1  0  0  0  0
 12 14  1  0  0  0  0
 14 15  1  0  0  0  0
 14 18  1  6  0  0  0
 15 17  1  0  0  0  0
 16 17  1  0  0  0  0
 18 19  1  0  0  0  0
 19 23  1  0  0  0  0
 20 21  2  0  0  0  0
 20 25  1  0  0  0  0
 21 22  1  0  0  0  0
 22 23  2  0  0  0  0
 23 24  1  0  0  0  0
 24 25  2  0  0  0  0
M  END
>  <CHROM.1>
-22.10496859,-60.57741943,176.89475382,163.95023339,108.00016813,-6.09253542
-5.66473179,26.68786649,2.27378734,0.86344177,-2.34854473

>  <Name>
ligand

>  <RI>
0

>  <Rbt.Current_Directory>
/home/itssahil/PROJECTS/Mol_Feturizer/New_Systems/rnas/4LVV

>  <Rbt.Executable>
rbdock ($Id: //depot/dev/client3/rdock/2013.1/src/exe/rbdock.cxx#4 $)

>  <Rbt.Library>
libRbt.so (2013.1, Build901 2013/11/27)

>  <Rbt.Parameter_File>
/export/apps/rDock/src/rDock_2013.1_src/data/scripts/dock_solv.prm

>  <Rbt.Receptor>
prm/blind_docking_100.prm

>  <SCORE>
-12.0201

>  <SCORE.INTER>
-11.462

>  <SCORE.INTER.CONST>
1

>  <SCORE.INTER.POLAR>
0

>  <SCORE.INTER.ROT>
5

>  <SCORE.INTER.SOLV>
14.1432

>  <SCORE.INTER.VDW>
-19.2891

>  <SCORE.INTER.norm>
-0.458478

>  <SCORE.INTRA>
-0.558105

>  <SCORE.INTRA.DIHEDRAL>
-0.502598

>  <SCORE.INTRA.DIHEDRAL.0>
3.94806

>  <SCORE.INTRA.POLAR>
0

>  <SCORE.INTRA.POLAR.0>
0

>  <SCORE.INTRA.REPUL>
0

>  <SCORE.INTRA.REPUL.0>
0

>  <SCORE.INTRA.SOLV>
0.106736

>  <SCORE.INTRA.SOLV.lig_0>
-70.9803

>  <SCORE.INTRA.VDW>
-0.360174

>  <SCORE.INTRA.VDW.0>
-0.709409

>  <SCORE.INTRA.norm>
-0.0223242

>  <SCORE.RESTR>
0

>  <SCORE.RESTR.CAVITY>
0

>  <SCORE.RESTR.norm>
0

>  <SCORE.SYSTEM>
0

>  <SCORE.SYSTEM.CONST>
0

>  <SCORE.SYSTEM.DIHEDRAL>
0

>  <SCORE.SYSTEM.SOLV>
0

>  <SCORE.SYSTEM.norm>
0

>  <SCORE.heavy>
25

>  <SCORE.norm>
-0.480802

>  <RMSD>
20.371

$$$$
ligand
 OpenBabel11021811503D
libRbt.so/2013.1/901 2013/11/27
 25 27  0  0  0  0  0  0  0  0999 V2000
  -10.6297   -7.0635   21.8794 N   0  0  0  0  0  0  0  0  0  0  0  0
   -9.3155   -6.8379   21.3624 C   0  0  0  0  0  0  0  0  0  0  0  0
   -9.1073   -6.8468   20.1554 O   0  0  0  0  0  0  0  0  0  0  0  0
   -5.0342   -1.7463   31.3287 N   0  0  0  0  0  0  0  0  0  0  0  0
   -4.0781   -3.3440   29.8126 N   0  0  0  0  0  0  0  0  0  0  0  0
   -5.0768   -3.0066   30.6609 C   0  0  0  0  0  0  0  0  0  0  0  0
   -6.1207   -3.8568   30.8970 N   0  0  0  0  0  0  0  0  0  0  0  0
   -6.2116   -5.0703   30.2956 C   0  0  0  0  0  0  0  0  0  0  0  0
   -5.1937   -5.4544   29.3900 C   0  0  0  0  0  0  0  0  0  0  0  0
   -7.2924   -5.8769   30.5642 O   0  0  0  0  0  0  0  0  0  0  0  0
   -5.5458   -7.9774   29.2945 C   0  0  0  0  0  0  0  0  0  0  0  0
   -5.1437   -6.7289   28.6924 N   0  0  0  0  0  0  0  0  0  0  0  0
   -5.2986   -8.2711   30.4592 O   0  0  0  0  0  0  0  0  0  0  0  0
   -4.5709   -6.6829   27.4151 C   0  0  2  0  0  0  0  0  0  0  0  0
   -3.1314   -6.1155   27.5124 C   0  0  0  0  0  0  0  0  0  0  0  0
   -4.1016   -4.5560   29.1732 C   0  0  0  0  0  0  0  0  0  0  0  0
   -3.0297   -4.9158   28.2410 N   0  0  0  0  0  0  0  0  0  0  0  0
   -5.4105   -5.8390   26.4775 C   0  0  0  0  0  0  0  0  0  0  0  0
   -5.1007   -5.9118   25.0764 N   0  0  0  0  0  0  0  0  0  0  0  0
   -8.2047   -6.5740   22.3190 C   0  0  0  0  0  0  0  0  0  0  0  0
   -7.4955   -5.3815   22.2771 C   0  0  0  0  0  0  0  0  0  0  0  0
   -6.4651   -5.1655   23.1841 C   0  0  0  0  0  0  0  0  0  0  0  0
   -6.1547   -6.1337   24.1371 C   0  0  0  0  0  0  0  0  0  0  0  0
   -6.8717   -7.3166   24.1819 C   0  0  0  0  0  0  0  0  0  0  0  0
   -7.8949   -7.5376   23.2679 C   0  0  0  0  0  0  0  0  0  0  0  0
  1  2  1  0  0  0  0
  2  3  2  0  0  0  0
  2 20  1  0  0  0  0
  4  6  1  0  0  0  0
  5  6  2  0  0  0  0
  5 16  1  0  0  0  0
  6  7  1  0  0  0  0
  7  8  1  0  0  0  0
  8  9  1  0  0  0  0
  8 10  2  0  0  0  0
  9 12  1  0  0  0  0
  9 16  2  0  0  0  0
 11 13  1  0  0  0  0
 11 12  1  0  0  0  0
 12 14  1  0  0  0  0
 14 15  1  0  0  0  0
 14 18  1  6  0  0  0
 15 17  1  0  0  0  0
 16 17  1  0  0  0  0
 18 19  1  0  0  0  0
 19 23  1  0  0  0  0
 20 21  2  0  0  0  0
 20 25  1  0  0  0  0
 21 22  1  0  0  0  0
 22 23  2  0  0  0  0
 23 24  1  0  0  0  0
 24 25  2  0  0  0  0
M  END
>  <CHROM.1>
-39.61935370,-167.98259523,130.65862711,116.52822637,-119.36326355,-6.08849004
-5.79045008,26.80841578,2.79147711,-1.15300599,-0.61248627

>  <Name>
ligand

>  <RI>
0

>  <Rbt.Current_Directory>
/home/itssahil/PROJECTS/Mol_Feturizer/New_Systems/rnas/4LVV

>  <Rbt.Executable>
rbdock ($Id: //depot/dev/client3/rdock/2013.1/src/exe/rbdock.cxx#4 $)

>  <Rbt.Library>
libRbt.so (2013.1, Build901 2013/11/27)

>  <Rbt.Parameter_File>
/export/apps/rDock/src/rDock_2013.1_src/data/scripts/dock_solv.prm

>  <Rbt.Receptor>
prm/blind_docking_60.prm

>  <SCORE>
-11.8886

>  <SCORE.INTER>
-11.3014

>  <SCORE.INTER.CONST>
1

>  <SCORE.INTER.POLAR>
0

>  <SCORE.INTER.ROT>
5

>  <SCORE.INTER.SOLV>
16.4562

>  <SCORE.INTER.VDW>
-19.953

>  <SCORE.INTER.norm>
-0.452057

>  <SCORE.INTRA>
-0.587147

>  <SCORE.INTRA.DIHEDRAL>
1.06202

>  <SCORE.INTRA.DIHEDRAL.0>
3.94806

>  <SCORE.INTRA.POLAR>
0

>  <SCORE.INTRA.POLAR.0>
0

>  <SCORE.INTRA.REPUL>
0

>  <SCORE.INTRA.REPUL.0>
0

>  <SCORE.INTRA.SOLV>
-0.283005

>  <SCORE.INTRA.SOLV.lig_0>
-70.9803

>  <SCORE.INTRA.VDW>
-0.976654

>  <SCORE.INTRA.VDW.0>
-0.709409

>  <SCORE.INTRA.norm>
-0.0234859

>  <SCORE.RESTR>
0

>  <SCORE.RESTR.CAVITY>
0

>  <SCORE.RESTR.norm>
0

>  <SCORE.SYSTEM>
0

>  <SCORE.SYSTEM.CONST>
0

>  <SCORE.SYSTEM.DIHEDRAL>
0

>  <SCORE.SYSTEM.SOLV>
0

>  <SCORE.SYSTEM.norm>
0

>  <SCORE.heavy>
25

>  <SCORE.norm>
-0.475543

>  <RMSD>
20.385

$$$$
ligand
 OpenBabel11021811503D
libRbt.so/2013.1/901 2013/11/27
 25 27  0  0  0  0  0  0  0  0999 V2000
   -7.9161   -7.6859   19.5277 N   0  0  0  0  0  0  0  0  0  0  0  0
   -8.4613   -6.8719   20.5696 C   0  0  0  0  0  0  0  0  0  0  0  0
   -9.4675   -6.2004   20.3780 O   0  0  0  0  0  0  0  0  0  0  0  0
   -5.9001   -0.4756   27.7884 N   0  0  0  0  0  0  0  0  0  0  0  0
   -4.4491   -2.3734   27.5472 N   0  0  0  0  0  0  0  0  0  0  0  0
   -5.6617   -1.8790   27.8876 C   0  0  0  0  0  0  0  0  0  0  0  0
   -6.6592   -2.6997   28.3347 N   0  0  0  0  0  0  0  0  0  0  0  0
   -6.4887   -4.0409   28.4555 C   0  0  0  0  0  0  0  0  0  0  0  0
   -5.2386   -4.5990   28.0956 C   0  0  0  0  0  0  0  0  0  0  0  0
   -7.5338   -4.8163   28.8997 O   0  0  0  0  0  0  0  0  0  0  0  0
   -5.3492   -6.8563   29.2750 C   0  0  0  0  0  0  0  0  0  0  0  0
   -4.9022   -6.0098   28.1949 N   0  0  0  0  0  0  0  0  0  0  0  0
   -4.7223   -6.9990   30.3192 O   0  0  0  0  0  0  0  0  0  0  0  0
   -4.0147   -6.4772   27.2173 C   0  0  2  0  0  0  0  0  0  0  0  0
   -2.7037   -5.6514   27.2695 C   0  0  0  0  0  0  0  0  0  0  0  0
   -4.2039   -3.7181   27.6483 C   0  0  0  0  0  0  0  0  0  0  0  0
   -2.8966   -4.2574   27.2637 N   0  0  0  0  0  0  0  0  0  0  0  0
   -4.6382   -6.3944   25.8387 C   0  0  0  0  0  0  0  0  0  0  0  0
   -5.9549   -6.9472   25.6813 N   0  0  0  0  0  0  0  0  0  0  0  0
   -7.7923   -6.8684   21.9005 C   0  0  0  0  0  0  0  0  0  0  0  0
   -7.1158   -5.7450   22.3557 C   0  0  0  0  0  0  0  0  0  0  0  0
   -6.5028   -5.7735   23.6024 C   0  0  0  0  0  0  0  0  0  0  0  0
   -6.5777   -6.9170   24.3952 C   0  0  0  0  0  0  0  0  0  0  0  0
   -7.2624   -8.0309   23.9417 C   0  0  0  0  0  0  0  0  0  0  0  0
   -7.8662   -8.0067   22.6902 C   0  0  0  0  0  0  0  0  0  0  0  0
  1  2  1  0  0  0  0
  2  3  2  0  0  0  0
  2 20  1  0  0  0  0
  4  6  1  0  0  0  0
  5  6  2  0  0  0  0
  5 16  1  0  0  0  0
  6  7  1  0  0  0  0
  7  8  1  0  0  0  0
  8  9  1  0  0  0  0
  8 10  2  0  0  0  0
  9 12  1  0  0  0  0
  9 16  2  0  0  0  0
 11 13  1  0  0  0  0
 11 12  1  0  0  0  0
 12 14  1  0  0  0  0
 14 15  1  0  0  0  0
 14 18  1  6  0  0  0
 15 17  1  0  0  0  0
 16 17  1  0  0  0  0
 18 19  1  0  0  0  0
 19 23  1  0  0  0  0
 20 21  2  0  0  0  0
 20 25  1  0  0  0  0
 21 22  1  0  0  0  0
 22 23  2  0  0  0  0
 23 24  1  0  0  0  0
 24 25  2  0  0  0  0
M  END
>  <CHROM.1>
-89.10923823,-49.69053967,-178.83938666,-42.94664398,110.75682643,-5.99661113
-5.44395941,25.88591205,-2.44508483,-1.06465923,0.38754285

>  <Name>
ligand

>  <RI>
0

>  <Rbt.Current_Directory>
/home/itssahil/PROJECTS/Mol_Feturizer/New_Systems/rnas/4LVV

>  <Rbt.Executable>
rbdock ($Id: //depot/dev/client3/rdock/2013.1/src/exe/rbdock.cxx#4 $)

>  <Rbt.Library>
libRbt.so (2013.1, Build901 2013/11/27)

>  <Rbt.Parameter_File>
/export/apps/rDock/src/rDock_2013.1_src/data/scripts/dock_solv.prm

>  <Rbt.Receptor>
prm/blind_docking_60.prm

>  <SCORE>
-11.884

>  <SCORE.INTER>
-10.711

>  <SCORE.INTER.CONST>
1

>  <SCORE.INTER.POLAR>
0

>  <SCORE.INTER.ROT>
5

>  <SCORE.INTER.SOLV>
16.2798

>  <SCORE.INTER.VDW>
-19.5006

>  <SCORE.INTER.norm>
-0.42844

>  <SCORE.INTRA>
-1.173

>  <SCORE.INTRA.DIHEDRAL>
-0.461461

>  <SCORE.INTRA.DIHEDRAL.0>
3.94806

>  <SCORE.INTRA.POLAR>
0

>  <SCORE.INTRA.POLAR.0>
0

>  <SCORE.INTRA.REPUL>
0

>  <SCORE.INTRA.REPUL.0>
0

>  <SCORE.INTRA.SOLV>
0.10884

>  <SCORE.INTRA.SOLV.lig_0>
-70.9803

>  <SCORE.INTRA.VDW>
-0.996686

>  <SCORE.INTRA.VDW.0>
-0.709409

>  <SCORE.INTRA.norm>
-0.0469199

>  <SCORE.RESTR>
0

>  <SCORE.RESTR.CAVITY>
0

>  <SCORE.RESTR.norm>
0

>  <SCORE.SYSTEM>
0

>  <SCORE.SYSTEM.CONST>
0

>  <SCORE.SYSTEM.DIHEDRAL>
0

>  <SCORE.SYSTEM.SOLV>
0

>  <SCORE.SYSTEM.norm>
0

>  <SCORE.heavy>
25

>  <SCORE.norm>
-0.475359

>  <RMSD>
20.386

$$$$
ligand
 OpenBabel11021811503D
libRbt.so/2013.1/901 2013/11/27
 25 27  0  0  0  0  0  0  0  0999 V2000
   -7.8111   -4.1561   30.3597 N   0  0  0  0  0  0  0  0  0  0  0  0
   -6.7583   -3.9403   29.4161 C   0  0  0  0  0  0  0  0  0  0  0  0
   -5.7168   -3.3918   29.7544 O   0  0  0  0  0  0  0  0  0  0  0  0
  -11.5766  -11.5004   25.5260 N   0  0  0  0  0  0  0  0  0  0  0  0
   -9.7373  -10.7496   24.1775 N   0  0  0  0  0  0  0  0  0  0  0  0
  -10.9562  -10.5060   24.7122 C   0  0  0  0  0  0  0  0  0  0  0  0
  -11.6078   -9.3275   24.4777 N   0  0  0  0  0  0  0  0  0  0  0  0
  -11.0700   -8.3479   23.7072 C   0  0  0  0  0  0  0  0  0  0  0  0
   -9.7898   -8.5585   23.1413 C   0  0  0  0  0  0  0  0  0  0  0  0
  -11.7688   -7.1789   23.5176 O   0  0  0  0  0  0  0  0  0  0  0  0
   -9.7750   -6.8056   21.2905 C   0  0  0  0  0  0  0  0  0  0  0  0
   -9.1005   -7.6137   22.2778 N   0  0  0  0  0  0  0  0  0  0  0  0
   -9.3076   -5.7642   20.8425 O   0  0  0  0  0  0  0  0  0  0  0  0
   -7.7046   -7.6154   22.3931 C   0  0  2  0  0  0  0  0  0  0  0  0
   -7.1618   -9.0382   22.1023 C   0  0  0  0  0  0  0  0  0  0  0  0
   -9.1353   -9.8071   23.3852 C   0  0  0  0  0  0  0  0  0  0  0  0
   -7.8077  -10.0623   22.8194 N   0  0  0  0  0  0  0  0  0  0  0  0
   -7.2767   -7.1573   23.7727 C   0  0  0  0  0  0  0  0  0  0  0  0
   -7.3650   -5.7507   24.0522 N   0  0  0  0  0  0  0  0  0  0  0  0
   -6.9443   -4.4109   28.0151 C   0  0  0  0  0  0  0  0  0  0  0  0
   -8.1604   -4.2522   27.3649 C   0  0  0  0  0  0  0  0  0  0  0  0
   -8.3014   -4.7013   26.0575 C   0  0  0  0  0  0  0  0  0  0  0  0
   -7.2259   -5.2947   25.3996 C   0  0  0  0  0  0  0  0  0  0  0  0
   -6.0121   -5.4410   26.0482 C   0  0  0  0  0  0  0  0  0  0  0  0
   -5.8740   -5.0021   27.3595 C   0  0  0  0  0  0  0  0  0  0  0  0
  1  2  1  0  0  0  0
  2  3  2  0  0  0  0
  2 20  1  0  0  0  0
  4  6  1  0  0  0  0
  5  6  2  0  0  0  0
  5 16  1  0  0  0  0
  6  7  1  0  0  0  0
  7  8  1  0  0  0  0
  8  9  1  0  0  0  0
  8 10  2  0  0  0  0
  9 12  1  0  0  0  0
  9 16  2  0  0  0  0
 11 13  1  0  0  0  0
 11 12  1  0  0  0  0
 12 14  1  0  0  0  0
 14 15  1  0  0  0  0
 14 18  1  1  0  0  0
 15 17  1  0  0  0  0
 16 17  1  0  0  0  0
 18 19  1  0  0  0  0
 19 23  1  0  0  0  0
 20 21  2  0  0  0  0
 20 25  1  0  0  0  0
 21 22  1  0  0  0  0
 22 23  2  0  0  0  0
 23 24  1  0  0  0  0
 24 25  2  0  0  0  0
M  END
>  <CHROM.1>
158.13994521,-75.47440312,167.97265119,-114.20664893,41.21753756,-8.59034209
-7.06849012,24.81707988,0.86917845,0.90491354,1.41834193

>  <Name>
ligand

>  <RI>
0

>  <Rbt.Current_Directory>
/home/itssahil/PROJECTS/Mol_Feturizer/New_Systems/rnas/4LVV

>  <Rbt.Executable>
rbdock ($Id: //depot/dev/client3/rdock/2013.1/src/exe/rbdock.cxx#4 $)

>  <Rbt.Library>
libRbt.so (2013.1, Build901 2013/11/27)

>  <Rbt.Parameter_File>
/export/apps/rDock/src/rDock_2013.1_src/data/scripts/dock_solv.prm

>  <Rbt.Receptor>
prm/blind_docking_60.prm

>  <SCORE>
-9.13568

>  <SCORE.INTER>
-8.37852

>  <SCORE.INTER.CONST>
1

>  <SCORE.INTER.POLAR>
0

>  <SCORE.INTER.ROT>
5

>  <SCORE.INTER.SOLV>
15.1743

>  <SCORE.INTER.VDW>
-17.5771

>  <SCORE.INTER.norm>
-0.335141

>  <SCORE.INTRA>
-0.757163

>  <SCORE.INTRA.DIHEDRAL>
0.0550597

>  <SCORE.INTRA.DIHEDRAL.0>
3.94806

>  <SCORE.INTRA.POLAR>
0

>  <SCORE.INTRA.POLAR.0>
0

>  <SCORE.INTRA.REPUL>
0

>  <SCORE.INTRA.REPUL.0>
0

>  <SCORE.INTRA.SOLV>
0.0313245

>  <SCORE.INTRA.SOLV.lig_0>
-70.9803

>  <SCORE.INTRA.VDW>
-0.800355

>  <SCORE.INTRA.VDW.0>
-0.709409

>  <SCORE.INTRA.norm>
-0.0302865

>  <SCORE.RESTR>
0

>  <SCORE.RESTR.CAVITY>
0

>  <SCORE.RESTR.norm>
0

>  <SCORE.SYSTEM>
0

>  <SCORE.SYSTEM.CONST>
0

>  <SCORE.SYSTEM.DIHEDRAL>
0

>  <SCORE.SYSTEM.SOLV>
0

>  <SCORE.SYSTEM.norm>
0

>  <SCORE.heavy>
25

>  <SCORE.norm>
-0.365427

>  <RMSD>
20.392

$$$$
ligand
 OpenBabel11021811503D
libRbt.so/2013.1/901 2013/11/27
 25 27  0  0  0  0  0  0  0  0999 V2000
   -9.5901   -7.9229   21.5528 N   0  0  0  0  0  0  0  0  0  0  0  0
   -8.4375   -7.0781   21.4969 C   0  0  0  0  0  0  0  0  0  0  0  0
   -8.0568   -6.6079   20.4320 O   0  0  0  0  0  0  0  0  0  0  0  0
   -8.3609   -1.6462   28.2010 N   0  0  0  0  0  0  0  0  0  0  0  0
   -6.2689   -2.8211   28.1097 N   0  0  0  0  0  0  0  0  0  0  0  0
   -7.5761   -2.8098   28.4587 C   0  0  0  0  0  0  0  0  0  0  0  0
   -8.1554   -3.8902   29.0633 N   0  0  0  0  0  0  0  0  0  0  0  0
   -7.4577   -5.0215   29.3386 C   0  0  0  0  0  0  0  0  0  0  0  0
   -6.0906   -5.0783   28.9760 C   0  0  0  0  0  0  0  0  0  0  0  0
   -8.0988   -6.0803   29.9377 O   0  0  0  0  0  0  0  0  0  0  0  0
   -5.2750   -7.0066   30.4302 C   0  0  0  0  0  0  0  0  0  0  0  0
   -5.2132   -6.2095   29.2287 N   0  0  0  0  0  0  0  0  0  0  0  0
   -4.9902   -8.1990   30.4600 O   0  0  0  0  0  0  0  0  0  0  0  0
   -4.2177   -6.4138   28.2649 C   0  0  2  0  0  0  0  0  0  0  0  0
   -3.3510   -5.1349   28.1353 C   0  0  0  0  0  0  0  0  0  0  0  0
   -5.5015   -3.9285   28.3615 C   0  0  0  0  0  0  0  0  0  0  0  0
   -4.0899   -3.9489   27.9685 N   0  0  0  0  0  0  0  0  0  0  0  0
   -4.8288   -6.7771   26.9267 C   0  0  0  0  0  0  0  0  0  0  0  0
   -5.6569   -5.7876   26.2948 N   0  0  0  0  0  0  0  0  0  0  0  0
   -7.7163   -6.7653   22.7621 C   0  0  0  0  0  0  0  0  0  0  0  0
   -7.4171   -7.7644   23.6782 C   0  0  0  0  0  0  0  0  0  0  0  0
   -6.7424   -7.4401   24.8489 C   0  0  0  0  0  0  0  0  0  0  0  0
   -6.3577   -6.1236   25.0953 C   0  0  0  0  0  0  0  0  0  0  0  0
   -6.6488   -5.1327   24.1740 C   0  0  0  0  0  0  0  0  0  0  0  0
   -7.3332   -5.4548   23.0083 C   0  0  0  0  0  0  0  0  0  0  0  0
  1  2  1  0  0  0  0
  2  3  2  0  0  0  0
  2 20  1  0  0  0  0
  4  6  1  0  0  0  0
  5  6  2  0  0  0  0
  5 16  1  0  0  0  0
  6  7  1  0  0  0  0
  7  8  1  0  0  0  0
  8  9  1  0  0  0  0
  8 10  2  0  0  0  0
  9 12  1  0  0  0  0
  9 16  2  0  0  0  0
 11 13  1  0  0  0  0
 11 12  1  0  0  0  0
 12 14  1  0  0  0  0
 14 15  1  0  0  0  0
 14 18  1  6  0  0  0
 15 17  1  0  0  0  0
 16 17  1  0  0  0  0
 18 19  1  0  0  0  0
 19 23  1  0  0  0  0
 20 21  2  0  0  0  0
 20 25  1  0  0  0  0
 21 22  1  0  0  0  0
 22 23  2  0  0  0  0
 23 24  1  0  0  0  0
 24 25  2  0  0  0  0
M  END
>  <CHROM.1>
149.15266573,63.61236787,-174.17331692,28.40137150,45.79902464,-6.52082665
-5.66002623,26.68440324,-2.07534342,-0.94085268,0.92020626

>  <Name>
ligand

>  <RI>
0

>  <Rbt.Current_Directory>
/home/itssahil/PROJECTS/Mol_Feturizer/New_Systems/rnas/4LVV

>  <Rbt.Executable>
rbdock ($Id: //depot/dev/client3/rdock/2013.1/src/exe/rbdock.cxx#4 $)

>  <Rbt.Library>
libRbt.so (2013.1, Build901 2013/11/27)

>  <Rbt.Parameter_File>
/export/apps/rDock/src/rDock_2013.1_src/data/scripts/dock_solv.prm

>  <Rbt.Receptor>
prm/blind_docking_80.prm

>  <SCORE>
-11.5057

>  <SCORE.INTER>
-11.7544

>  <SCORE.INTER.CONST>
1

>  <SCORE.INTER.POLAR>
0

>  <SCORE.INTER.ROT>
5

>  <SCORE.INTER.SOLV>
11.858

>  <SCORE.INTER.VDW>
-18.7223

>  <SCORE.INTER.norm>
-0.470177

>  <SCORE.INTRA>
0.248673

>  <SCORE.INTRA.DIHEDRAL>
-0.792519

>  <SCORE.INTRA.DIHEDRAL.0>
3.94806

>  <SCORE.INTRA.POLAR>
0

>  <SCORE.INTRA.POLAR.0>
0

>  <SCORE.INTRA.REPUL>
0

>  <SCORE.INTRA.REPUL.0>
0

>  <SCORE.INTRA.SOLV>
2.2274

>  <SCORE.INTRA.SOLV.lig_0>
-70.9803

>  <SCORE.INTRA.VDW>
-0.46877

>  <SCORE.INTRA.VDW.0>
-0.709409

>  <SCORE.INTRA.norm>
0.00994692

>  <SCORE.RESTR>
0

>  <SCORE.RESTR.CAVITY>
0

>  <SCORE.RESTR.norm>
0

>  <SCORE.SYSTEM>
0

>  <SCORE.SYSTEM.CONST>
0

>  <SCORE.SYSTEM.DIHEDRAL>
0

>  <SCORE.SYSTEM.SOLV>
0

>  <SCORE.SYSTEM.norm>
0

>  <SCORE.heavy>
25

>  <SCORE.norm>
-0.46023

>  <RMSD>
20.446

$$$$
ligand
 OpenBabel11021811503D
libRbt.so/2013.1/901 2013/11/27
 25 27  0  0  0  0  0  0  0  0999 V2000
   -7.5571   -7.4543   20.0935 N   0  0  0  0  0  0  0  0  0  0  0  0
   -8.2669   -6.7094   21.0868 C   0  0  0  0  0  0  0  0  0  0  0  0
   -9.3750   -6.2452   20.8484 O   0  0  0  0  0  0  0  0  0  0  0  0
   -8.2199   -1.6808   28.3393 N   0  0  0  0  0  0  0  0  0  0  0  0
   -6.1859   -2.9218   28.0425 N   0  0  0  0  0  0  0  0  0  0  0  0
   -7.4509   -2.8691   28.5199 C   0  0  0  0  0  0  0  0  0  0  0  0
   -8.0012   -3.9311   29.1815 N   0  0  0  0  0  0  0  0  0  0  0  0
   -7.3159   -5.0844   29.3884 C   0  0  0  0  0  0  0  0  0  0  0  0
   -5.9942   -5.1844   28.8915 C   0  0  0  0  0  0  0  0  0  0  0  0
   -7.9276   -6.1229   30.0505 O   0  0  0  0  0  0  0  0  0  0  0  0
   -5.0996   -7.1393   30.2614 C   0  0  0  0  0  0  0  0  0  0  0  0
   -5.1324   -6.3434   29.0579 N   0  0  0  0  0  0  0  0  0  0  0  0
   -4.7652   -6.6919   31.3530 O   0  0  0  0  0  0  0  0  0  0  0  0
   -4.2449   -6.5782   28.0002 C   0  0  2  0  0  0  0  0  0  0  0  0
   -3.3552   -5.3275   27.7822 C   0  0  0  0  0  0  0  0  0  0  0  0
   -5.4330   -4.0533   28.2189 C   0  0  0  0  0  0  0  0  0  0  0  0
   -4.0688   -4.1184   27.6874 N   0  0  0  0  0  0  0  0  0  0  0  0
   -4.9976   -6.9204   26.7303 C   0  0  0  0  0  0  0  0  0  0  0  0
   -5.8403   -5.8988   26.1731 N   0  0  0  0  0  0  0  0  0  0  0  0
   -7.6410   -6.5221   22.4254 C   0  0  0  0  0  0  0  0  0  0  0  0
   -7.4990   -7.5891   23.3019 C   0  0  0  0  0  0  0  0  0  0  0  0
   -6.9100   -7.3816   24.5432 C   0  0  0  0  0  0  0  0  0  0  0  0
   -6.4535   -6.1144   24.9003 C   0  0  0  0  0  0  0  0  0  0  0  0
   -6.5876   -5.0558   24.0188 C   0  0  0  0  0  0  0  0  0  0  0  0
   -7.1866   -5.2606   22.7817 C   0  0  0  0  0  0  0  0  0  0  0  0
  1  2  1  0  0  0  0
  2  3  2  0  0  0  0
  2 20  1  0  0  0  0
  4  6  1  0  0  0  0
  5  6  2  0  0  0  0
  5 16  1  0  0  0  0
  6  7  1  0  0  0  0
  7  8  1  0  0  0  0
  8  9  1  0  0  0  0
  8 10  2  0  0  0  0
  9 12  1  0  0  0  0
  9 16  2  0  0  0  0
 11 13  1  0  0  0  0
 11 12  1  0  0  0  0
 12 14  1  0  0  0  0
 14 15  1  0  0  0  0
 14 18  1  6  0  0  0
 15 17  1  0  0  0  0
 16 17  1  0  0  0  0
 18 19  1  0  0  0  0
 19 23  1  0  0  0  0
 20 21  2  0  0  0  0
 20 25  1  0  0  0  0
 21 22  1  0  0  0  0
 22 23  2  0  0  0  0
 23 24  1  0  0  0  0
 24 25  2  0  0  0  0
M  END
>  <CHROM.1>
-62.09512504,64.33447662,173.02859005,36.70181659,-69.79372672,-6.44866130
-5.57572893,26.55817323,-1.96458904,-0.84270967,1.08688608

>  <Name>
ligand

>  <RI>
0

>  <Rbt.Current_Directory>
/home/itssahil/PROJECTS/Mol_Feturizer/New_Systems/rnas/4LVV

>  <Rbt.Executable>
rbdock ($Id: //depot/dev/client3/rdock/2013.1/src/exe/rbdock.cxx#4 $)

>  <Rbt.Library>
libRbt.so (2013.1, Build901 2013/11/27)

>  <Rbt.Parameter_File>
/export/apps/rDock/src/rDock_2013.1_src/data/scripts/dock_solv.prm

>  <Rbt.Receptor>
prm/blind_docking_60.prm

>  <SCORE>
-12.5408

>  <SCORE.INTER>
-12.3977

>  <SCORE.INTER.CONST>
1

>  <SCORE.INTER.POLAR>
0

>  <SCORE.INTER.ROT>
5

>  <SCORE.INTER.SOLV>
11.911

>  <SCORE.INTER.VDW>
-19.1688

>  <SCORE.INTER.norm>
-0.495908

>  <SCORE.INTRA>
-0.14313

>  <SCORE.INTRA.DIHEDRAL>
-0.633035

>  <SCORE.INTRA.DIHEDRAL.0>
3.94806

>  <SCORE.INTRA.POLAR>
0

>  <SCORE.INTRA.POLAR.0>
0

>  <SCORE.INTRA.REPUL>
0

>  <SCORE.INTRA.REPUL.0>
0

>  <SCORE.INTRA.SOLV>
2.21994

>  <SCORE.INTRA.SOLV.lig_0>
-70.9803

>  <SCORE.INTRA.VDW>
-0.936584

>  <SCORE.INTRA.VDW.0>
-0.709409

>  <SCORE.INTRA.norm>
-0.00572521

>  <SCORE.RESTR>
0

>  <SCORE.RESTR.CAVITY>
0

>  <SCORE.RESTR.norm>
0

>  <SCORE.SYSTEM>
0

>  <SCORE.SYSTEM.CONST>
0

>  <SCORE.SYSTEM.DIHEDRAL>
0

>  <SCORE.SYSTEM.SOLV>
0

>  <SCORE.SYSTEM.norm>
0

>  <SCORE.heavy>
25

>  <SCORE.norm>
-0.501633

>  <RMSD>
20.453

$$$$
ligand
 OpenBabel11021811503D
libRbt.so/2013.1/901 2013/11/27
 25 27  0  0  0  0  0  0  0  0999 V2000
   -8.7705   -6.5924   20.0701 N   0  0  0  0  0  0  0  0  0  0  0  0
   -9.0944   -6.0293   21.3441 C   0  0  0  0  0  0  0  0  0  0  0  0
  -10.0597   -5.2865   21.4732 O   0  0  0  0  0  0  0  0  0  0  0  0
   -6.6633   -1.3275   29.7328 N   0  0  0  0  0  0  0  0  0  0  0  0
   -4.9986   -2.8494   28.9095 N   0  0  0  0  0  0  0  0  0  0  0  0
   -6.2238   -2.6553   29.4497 C   0  0  0  0  0  0  0  0  0  0  0  0
   -7.0438   -3.7101   29.7386 N   0  0  0  0  0  0  0  0  0  0  0  0
   -6.6774   -4.9945   29.4970 C   0  0  0  0  0  0  0  0  0  0  0  0
   -5.4086   -5.2387   28.9190 C   0  0  0  0  0  0  0  0  0  0  0  0
   -7.5509   -6.0131   29.7981 O   0  0  0  0  0  0  0  0  0  0  0  0
   -5.0774   -7.7031   29.4809 C   0  0  0  0  0  0  0  0  0  0  0  0
   -4.8715   -6.5578   28.6272 N   0  0  0  0  0  0  0  0  0  0  0  0
   -6.0817   -8.4050   29.4315 O   0  0  0  0  0  0  0  0  0  0  0  0
   -4.0392   -6.6229   27.5026 C   0  0  2  0  0  0  0  0  0  0  0  0
   -2.8571   -5.6346   27.6744 C   0  0  0  0  0  0  0  0  0  0  0  0
   -4.5602   -4.1203   28.6429 C   0  0  0  0  0  0  0  0  0  0  0  0
   -3.2405   -4.3314   28.0418 N   0  0  0  0  0  0  0  0  0  0  0  0
   -4.8139   -6.3074   26.2391 C   0  0  0  0  0  0  0  0  0  0  0  0
   -5.7933   -7.2689   25.8143 N   0  0  0  0  0  0  0  0  0  0  0  0
   -8.2455   -6.3764   22.5178 C   0  0  0  0  0  0  0  0  0  0  0  0
   -8.3028   -7.6394   23.0908 C   0  0  0  0  0  0  0  0  0  0  0  0
   -7.4973   -7.9322   24.1846 C   0  0  0  0  0  0  0  0  0  0  0  0
   -6.6289   -6.9689   24.6942 C   0  0  0  0  0  0  0  0  0  0  0  0
   -6.5674   -5.7144   24.1130 C   0  0  0  0  0  0  0  0  0  0  0  0
   -7.3810   -5.4178   23.0260 C   0  0  0  0  0  0  0  0  0  0  0  0
  1  2  1  0  0  0  0
  2  3  2  0  0  0  0
  2 20  1  0  0  0  0
  4  6  1  0  0  0  0
  5  6  2  0  0  0  0
  5 16  1  0  0  0  0
  6  7  1  0  0  0  0
  7  8  1  0  0  0  0
  8  9  1  0  0  0  0
  8 10  2  0  0  0  0
  9 12  1  0  0  0  0
  9 16  2  0  0  0  0
 11 13  1  0  0  0  0
 11 12  1  0  0  0  0
 12 14  1  0  0  0  0
 14 15  1  0  0  0  0
 14 18  1  6  0  0  0
 15 17  1  0  0  0  0
 16 17  1  0  0  0  0
 18 19  1  0  0  0  0
 19 23  1  0  0  0  0
 20 21  2  0  0  0  0
 20 25  1  0  0  0  0
 21 22  1  0  0  0  0
 22 23  2  0  0  0  0
 23 24  1  0  0  0  0
 24 25  2  0  0  0  0
M  END
>  <CHROM.1>
83.82290840,-68.93812992,174.78872762,173.91078742,-72.32169640,-6.33122086
-5.67694057,26.55599179,2.34175695,0.97412100,-2.47221999

>  <Name>
ligand

>  <RI>
0

>  <Rbt.Current_Directory>
/home/itssahil/PROJECTS/Mol_Feturizer/New_Systems/rnas/4LVV

>  <Rbt.Executable>
rbdock ($Id: //depot/dev/client3/rdock/2013.1/src/exe/rbdock.cxx#4 $)

>  <Rbt.Library>
libRbt.so (2013.1, Build901 2013/11/27)

>  <Rbt.Parameter_File>
/export/apps/rDock/src/rDock_2013.1_src/data/scripts/dock_solv.prm

>  <Rbt.Receptor>
prm/blind_docking_40.prm

>  <SCORE>
-12.6097

>  <SCORE.INTER>
-12.3646

>  <SCORE.INTER.CONST>
1

>  <SCORE.INTER.POLAR>
0

>  <SCORE.INTER.ROT>
5

>  <SCORE.INTER.SOLV>
16.5025

>  <SCORE.INTER.VDW>
-20.6773

>  <SCORE.INTER.norm>
-0.494585

>  <SCORE.INTRA>
-0.245086

>  <SCORE.INTRA.DIHEDRAL>
-0.257711

>  <SCORE.INTRA.DIHEDRAL.0>
3.94806

>  <SCORE.INTRA.POLAR>
0

>  <SCORE.INTRA.POLAR.0>
0

>  <SCORE.INTRA.REPUL>
0

>  <SCORE.INTRA.REPUL.0>
0

>  <SCORE.INTRA.SOLV>
0.294101

>  <SCORE.INTRA.SOLV.lig_0>
-70.9803

>  <SCORE.INTRA.VDW>
-0.263281

>  <SCORE.INTRA.VDW.0>
-0.709409

>  <SCORE.INTRA.norm>
-0.00980345

>  <SCORE.RESTR>
0

>  <SCORE.RESTR.CAVITY>
0

>  <SCORE.RESTR.norm>
0

>  <SCORE.SYSTEM>
0

>  <SCORE.SYSTEM.CONST>
0

>  <SCORE.SYSTEM.DIHEDRAL>
0

>  <SCORE.SYSTEM.SOLV>
0

>  <SCORE.SYSTEM.norm>
0

>  <SCORE.heavy>
25

>  <SCORE.norm>
-0.504389

>  <RMSD>
20.470

$$$$
ligand
 OpenBabel11021811503D
libRbt.so/2013.1/901 2013/11/27
 25 27  0  0  0  0  0  0  0  0999 V2000
   -9.4222   -6.7929   20.7836 N   0  0  0  0  0  0  0  0  0  0  0  0
   -8.0349   -7.0326   21.0350 C   0  0  0  0  0  0  0  0  0  0  0  0
   -7.3121   -7.4997   20.1635 O   0  0  0  0  0  0  0  0  0  0  0  0
   -8.7715   -1.7567   28.1100 N   0  0  0  0  0  0  0  0  0  0  0  0
   -6.6227   -2.8135   27.9330 N   0  0  0  0  0  0  0  0  0  0  0  0
   -7.9059   -2.8634   28.3595 C   0  0  0  0  0  0  0  0  0  0  0  0
   -8.3843   -3.9515   29.0344 N   0  0  0  0  0  0  0  0  0  0  0  0
   -7.6063   -5.0302   29.3057 C   0  0  0  0  0  0  0  0  0  0  0  0
   -6.2617   -5.0228   28.8636 C   0  0  0  0  0  0  0  0  0  0  0  0
   -8.1480   -6.1004   29.9780 O   0  0  0  0  0  0  0  0  0  0  0  0
   -5.2507   -6.8456   30.3310 C   0  0  0  0  0  0  0  0  0  0  0  0
   -5.3058   -6.0921   29.1014 N   0  0  0  0  0  0  0  0  0  0  0  0
   -4.9185   -8.0250   30.3810 O   0  0  0  0  0  0  0  0  0  0  0  0
   -4.3578   -6.2755   28.0869 C   0  0  2  0  0  0  0  0  0  0  0  0
   -3.5770   -4.9552   27.8618 C   0  0  0  0  0  0  0  0  0  0  0  0
   -5.7781   -3.8652   28.1758 C   0  0  0  0  0  0  0  0  0  0  0  0
   -4.3929   -3.8202   27.6995 N   0  0  0  0  0  0  0  0  0  0  0  0
   -5.0232   -6.7230   26.8012 C   0  0  0  0  0  0  0  0  0  0  0  0
   -5.9423   -5.8059   26.1860 N   0  0  0  0  0  0  0  0  0  0  0  0
   -7.4789   -6.6873   22.3731 C   0  0  0  0  0  0  0  0  0  0  0  0
   -7.0919   -5.3879   22.6709 C   0  0  0  0  0  0  0  0  0  0  0  0
   -6.5777   -5.0981   23.9289 C   0  0  0  0  0  0  0  0  0  0  0  0
   -6.4636   -6.1019   24.8886 C   0  0  0  0  0  0  0  0  0  0  0  0
   -6.8609   -7.3937   24.5906 C   0  0  0  0  0  0  0  0  0  0  0  0
   -7.3648   -7.6863   23.3290 C   0  0  0  0  0  0  0  0  0  0  0  0
  1  2  1  0  0  0  0
  2  3  2  0  0  0  0
  2 20  1  0  0  0  0
  4  6  1  0  0  0  0
  5  6  2  0  0  0  0
  5 16  1  0  0  0  0
  6  7  1  0  0  0  0
  7  8  1  0  0  0  0
  8  9  1  0  0  0  0
  8 10  2  0  0  0  0
  9 12  1  0  0  0  0
  9 16  2  0  0  0  0
 11 13  1  0  0  0  0
 11 12  1  0  0  0  0
 12 14  1  0  0  0  0
 14 15  1  0  0  0  0
 14 18  1  6  0  0  0
 15 17  1  0  0  0  0
 16 17  1  0  0  0  0
 18 19  1  0  0  0  0
 19 23  1  0  0  0  0
 20 21  2  0  0  0  0
 20 25  1  0  0  0  0
 21 22  1  0  0  0  0
 22 23  2  0  0  0  0
 23 24  1  0  0  0  0
 24 25  2  0  0  0  0
M  END
>  <CHROM.1>
147.76138624,63.68301917,171.93897257,-138.04391133,-82.67912993,-6.57470489
-5.60785357,26.47921574,1.88744576,0.86935191,-2.03891593

>  <Name>
ligand

>  <RI>
0

>  <Rbt.Current_Directory>
/home/itssahil/PROJECTS/Mol_Feturizer/New_Systems/rnas/4LVV

>  <Rbt.Executable>
rbdock ($Id: //depot/dev/client3/rdock/2013.1/src/exe/rbdock.cxx#4 $)

>  <Rbt.Library>
libRbt.so (2013.1, Build901 2013/11/27)

>  <Rbt.Parameter_File>
/export/apps/rDock/src/rDock_2013.1_src/data/scripts/dock_solv.prm

>  <Rbt.Receptor>
prm/blind_docking_80.prm

>  <SCORE>
-12.539

>  <SCORE.INTER>
-12.5152

>  <SCORE.INTER.CONST>
1

>  <SCORE.INTER.POLAR>
0

>  <SCORE.INTER.ROT>
5

>  <SCORE.INTER.SOLV>
12.6794

>  <SCORE.INTER.VDW>
-19.5032

>  <SCORE.INTER.norm>
-0.500606

>  <SCORE.INTRA>
-0.0237941

>  <SCORE.INTRA.DIHEDRAL>
-0.774229

>  <SCORE.INTRA.DIHEDRAL.0>
3.94806

>  <SCORE.INTRA.POLAR>
0

>  <SCORE.INTRA.POLAR.0>
0

>  <SCORE.INTRA.REPUL>
0

>  <SCORE.INTRA.REPUL.0>
0

>  <SCORE.INTRA.SOLV>
2.22377

>  <SCORE.INTRA.SOLV.lig_0>
-70.9803

>  <SCORE.INTRA.VDW>
-0.748565

>  <SCORE.INTRA.VDW.0>
-0.709409

>  <SCORE.INTRA.norm>
-0.000951763

>  <SCORE.RESTR>
0

>  <SCORE.RESTR.CAVITY>
0

>  <SCORE.RESTR.norm>
0

>  <SCORE.SYSTEM>
0

>  <SCORE.SYSTEM.CONST>
0

>  <SCORE.SYSTEM.DIHEDRAL>
0

>  <SCORE.SYSTEM.SOLV>
0

>  <SCORE.SYSTEM.norm>
0

>  <SCORE.heavy>
25

>  <SCORE.norm>
-0.501558

>  <RMSD>
20.470

$$$$
ligand
 OpenBabel11021811503D
libRbt.so/2013.1/901 2013/11/27
 25 27  0  0  0  0  0  0  0  0999 V2000
   -9.2812   -6.5309   20.5315 N   0  0  0  0  0  0  0  0  0  0  0  0
   -7.9760   -6.9909   20.8922 C   0  0  0  0  0  0  0  0  0  0  0  0
   -7.2991   -7.6369   20.1019 O   0  0  0  0  0  0  0  0  0  0  0  0
   -8.8717   -1.8081   28.1230 N   0  0  0  0  0  0  0  0  0  0  0  0
   -6.7146   -2.8356   27.8859 N   0  0  0  0  0  0  0  0  0  0  0  0
   -7.9832   -2.9009   28.3520 C   0  0  0  0  0  0  0  0  0  0  0  0
   -8.4251   -3.9915   29.0474 N   0  0  0  0  0  0  0  0  0  0  0  0
   -7.6239   -5.0575   29.3007 C   0  0  0  0  0  0  0  0  0  0  0  0
   -6.2937   -5.0339   28.8173 C   0  0  0  0  0  0  0  0  0  0  0  0
   -8.1294   -6.1312   29.9954 O   0  0  0  0  0  0  0  0  0  0  0  0
   -5.2122   -6.8334   30.2632 C   0  0  0  0  0  0  0  0  0  0  0  0
   -5.3159   -6.0881   29.0317 N   0  0  0  0  0  0  0  0  0  0  0  0
   -5.0324   -8.0458   30.3008 O   0  0  0  0  0  0  0  0  0  0  0  0
   -4.3968   -6.2643   27.9895 C   0  0  2  0  0  0  0  0  0  0  0  0
   -3.6422   -4.9346   27.7330 C   0  0  0  0  0  0  0  0  0  0  0  0
   -5.8480   -3.8738   28.1085 C   0  0  0  0  0  0  0  0  0  0  0  0
   -4.4789   -3.8122   27.5895 N   0  0  0  0  0  0  0  0  0  0  0  0
   -5.0950   -6.7289   26.7274 C   0  0  0  0  0  0  0  0  0  0  0  0
   -5.9864   -5.7985   26.0919 N   0  0  0  0  0  0  0  0  0  0  0  0
   -7.4458   -6.6550   22.2431 C   0  0  0  0  0  0  0  0  0  0  0  0
   -7.0158   -5.3692   22.5410 C   0  0  0  0  0  0  0  0  0  0  0  0
   -6.5271   -5.0879   23.8110 C   0  0  0  0  0  0  0  0  0  0  0  0
   -6.4812   -6.0861   24.7822 C   0  0  0  0  0  0  0  0  0  0  0  0
   -6.9211   -7.3639   24.4838 C   0  0  0  0  0  0  0  0  0  0  0  0
   -7.3995   -7.6484   23.2104 C   0  0  0  0  0  0  0  0  0  0  0  0
  1  2  1  0  0  0  0
  2  3  2  0  0  0  0
  2 20  1  0  0  0  0
  4  6  1  0  0  0  0
  5  6  2  0  0  0  0
  5 16  1  0  0  0  0
  6  7  1  0  0  0  0
  7  8  1  0  0  0  0
  8  9  1  0  0  0  0
  8 10  2  0  0  0  0
  9 12  1  0  0  0  0
  9 16  2  0  0  0  0
 11 13  1  0  0  0  0
 11 12  1  0  0  0  0
 12 14  1  0  0  0  0
 14 15  1  0  0  0  0
 14 18  1  6  0  0  0
 15 17  1  0  0  0  0
 16 17  1  0  0  0  0
 18 19  1  0  0  0  0
 19 23  1  0  0  0  0
 20 21  2  0  0  0  0
 20 25  1  0  0  0  0
 21 22  1  0  0  0  0
 22 23  2  0  0  0  0
 23 24  1  0  0  0  0
 24 25  2  0  0  0  0
M  END
>  <CHROM.1>
137.98490842,67.24784347,168.77759171,-136.42367559,-73.92769364,-6.59734255
-5.60461352,26.39979795,1.85744343,0.87325014,-2.00748892

>  <Name>
ligand

>  <RI>
0

>  <Rbt.Current_Directory>
/home/itssahil/PROJECTS/Mol_Feturizer/New_Systems/rnas/4LVV

>  <Rbt.Executable>
rbdock ($Id: //depot/dev/client3/rdock/2013.1/src/exe/rbdock.cxx#4 $)

>  <Rbt.Library>
libRbt.so (2013.1, Build901 2013/11/27)

>  <Rbt.Parameter_File>
/export/apps/rDock/src/rDock_2013.1_src/data/scripts/dock_solv.prm

>  <Rbt.Receptor>
prm/blind_docking_40.prm

>  <SCORE>
-12.5769

>  <SCORE.INTER>
-12.5878

>  <SCORE.INTER.CONST>
1

>  <SCORE.INTER.POLAR>
0

>  <SCORE.INTER.ROT>
5

>  <SCORE.INTER.SOLV>
13.6855

>  <SCORE.INTER.VDW>
-19.887

>  <SCORE.INTER.norm>
-0.503512

>  <SCORE.INTRA>
0.0108958

>  <SCORE.INTRA.DIHEDRAL>
-0.538149

>  <SCORE.INTRA.DIHEDRAL.0>
3.94806

>  <SCORE.INTRA.POLAR>
0

>  <SCORE.INTRA.POLAR.0>
0

>  <SCORE.INTRA.REPUL>
0

>  <SCORE.INTRA.REPUL.0>
0

>  <SCORE.INTRA.SOLV>
2.21406

>  <SCORE.INTRA.SOLV.lig_0>
-70.9803

>  <SCORE.INTRA.VDW>
-0.82706

>  <SCORE.INTRA.VDW.0>
-0.709409

>  <SCORE.INTRA.norm>
0.000435832

>  <SCORE.RESTR>
0

>  <SCORE.RESTR.CAVITY>
0

>  <SCORE.RESTR.norm>
0

>  <SCORE.SYSTEM>
0

>  <SCORE.SYSTEM.CONST>
0

>  <SCORE.SYSTEM.DIHEDRAL>
0

>  <SCORE.SYSTEM.SOLV>
0

>  <SCORE.SYSTEM.norm>
0

>  <SCORE.heavy>
25

>  <SCORE.norm>
-0.503076

>  <RMSD>
20.476

$$$$
ligand
 OpenBabel11021811503D
libRbt.so/2013.1/901 2013/11/27
 25 27  0  0  0  0  0  0  0  0999 V2000
   -9.5271   -6.4055   20.8002 N   0  0  0  0  0  0  0  0  0  0  0  0
   -8.1548   -6.7450   21.0163 C   0  0  0  0  0  0  0  0  0  0  0  0
   -7.4661   -7.1811   20.1021 O   0  0  0  0  0  0  0  0  0  0  0  0
   -8.3819   -1.6926   28.2519 N   0  0  0  0  0  0  0  0  0  0  0  0
   -6.3115   -2.8785   27.9829 N   0  0  0  0  0  0  0  0  0  0  0  0
   -7.5805   -2.8562   28.4520 C   0  0  0  0  0  0  0  0  0  0  0  0
   -8.1046   -3.9254   29.1232 N   0  0  0  0  0  0  0  0  0  0  0  0
   -7.3881   -5.0560   29.3485 C   0  0  0  0  0  0  0  0  0  0  0  0
   -6.0609   -5.1243   28.8610 C   0  0  0  0  0  0  0  0  0  0  0  0
   -7.9742   -6.1034   30.0197 O   0  0  0  0  0  0  0  0  0  0  0  0
   -5.1199   -7.0360   30.2603 C   0  0  0  0  0  0  0  0  0  0  0  0
   -5.1676   -6.2560   29.0470 N   0  0  0  0  0  0  0  0  0  0  0  0
   -4.6294   -6.6221   31.3053 O   0  0  0  0  0  0  0  0  0  0  0  0
   -4.2669   -6.4783   27.9976 C   0  0  2  0  0  0  0  0  0  0  0  0
   -3.4118   -5.2054   27.7696 C   0  0  0  0  0  0  0  0  0  0  0  0
   -5.5278   -3.9859   28.1779 C   0  0  0  0  0  0  0  0  0  0  0  0
   -4.1590   -4.0184   27.6556 N   0  0  0  0  0  0  0  0  0  0  0  0
   -5.0013   -6.8573   26.7275 C   0  0  0  0  0  0  0  0  0  0  0  0
   -5.8887   -5.8763   26.1667 N   0  0  0  0  0  0  0  0  0  0  0  0
   -7.5713   -6.5423   22.3717 C   0  0  0  0  0  0  0  0  0  0  0  0
   -7.4673   -7.5968   23.2684 C   0  0  0  0  0  0  0  0  0  0  0  0
   -6.9174   -7.3751   24.5251 C   0  0  0  0  0  0  0  0  0  0  0  0
   -6.4619   -6.1063   24.8778 C   0  0  0  0  0  0  0  0  0  0  0  0
   -6.5578   -5.0604   23.9766 C   0  0  0  0  0  0  0  0  0  0  0  0
   -7.1179   -5.2793   22.7237 C   0  0  0  0  0  0  0  0  0  0  0  0
  1  2  1  0  0  0  0
  2  3  2  0  0  0  0
  2 20  1  0  0  0  0
  4  6  1  0  0  0  0
  5  6  2  0  0  0  0
  5 16  1  0  0  0  0
  6  7  1  0  0  0  0
  7  8  1  0  0  0  0
  8  9  1  0  0  0  0
  8 10  2  0  0  0  0
  9 12  1  0  0  0  0
  9 16  2  0  0  0  0
 11 13  1  0  0  0  0
 11 12  1  0  0  0  0
 12 14  1  0  0  0  0
 14 15  1  0  0  0  0
 14 18  1  6  0  0  0
 15 17  1  0  0  0  0
 16 17  1  0  0  0  0
 18 19  1  0  0  0  0
 19 23  1  0  0  0  0
 20 21  2  0  0  0  0
 20 25  1  0  0  0  0
 21 22  1  0  0  0  0
 22 23  2  0  0  0  0
 23 24  1  0  0  0  0
 24 25  2  0  0  0  0
M  END
>  <CHROM.1>
-72.69397580,63.17776063,171.38827780,40.86106837,97.84968534,-6.46594753
-5.54238369,26.51956684,1.92922141,0.81184928,-2.02601147

>  <Name>
ligand

>  <RI>
0

>  <Rbt.Current_Directory>
/home/itssahil/PROJECTS/Mol_Feturizer/New_Systems/rnas/4LVV

>  <Rbt.Executable>
rbdock ($Id: //depot/dev/client3/rdock/2013.1/src/exe/rbdock.cxx#4 $)

>  <Rbt.Library>
libRbt.so (2013.1, Build901 2013/11/27)

>  <Rbt.Parameter_File>
/export/apps/rDock/src/rDock_2013.1_src/data/scripts/dock_solv.prm

>  <Rbt.Receptor>
prm/blind_docking_40.prm

>  <SCORE>
-12.352

>  <SCORE.INTER>
-12.0888

>  <SCORE.INTER.CONST>
1

>  <SCORE.INTER.POLAR>
0

>  <SCORE.INTER.ROT>
5

>  <SCORE.INTER.SOLV>
12.8897

>  <SCORE.INTER.VDW>
-19.2891

>  <SCORE.INTER.norm>
-0.483552

>  <SCORE.INTRA>
-0.263193

>  <SCORE.INTRA.DIHEDRAL>
-0.682511

>  <SCORE.INTRA.DIHEDRAL.0>
3.94806

>  <SCORE.INTRA.POLAR>
0

>  <SCORE.INTRA.POLAR.0>
0

>  <SCORE.INTRA.REPUL>
0

>  <SCORE.INTRA.REPUL.0>
0

>  <SCORE.INTRA.SOLV>
2.18806

>  <SCORE.INTRA.SOLV.lig_0>
-70.9803

>  <SCORE.INTRA.VDW>
-1.01597

>  <SCORE.INTRA.VDW.0>
-0.709409

>  <SCORE.INTRA.norm>
-0.0105277

>  <SCORE.RESTR>
0

>  <SCORE.RESTR.CAVITY>
0

>  <SCORE.RESTR.norm>
0

>  <SCORE.SYSTEM>
0

>  <SCORE.SYSTEM.CONST>
0

>  <SCORE.SYSTEM.DIHEDRAL>
0

>  <SCORE.SYSTEM.SOLV>
0

>  <SCORE.SYSTEM.norm>
0

>  <SCORE.heavy>
25

>  <SCORE.norm>
-0.49408

>  <RMSD>
20.482

$$$$
ligand
 OpenBabel11021811503D
libRbt.so/2013.1/901 2013/11/27
 25 27  0  0  0  0  0  0  0  0999 V2000
   -9.4342   -6.2519   20.6704 N   0  0  0  0  0  0  0  0  0  0  0  0
   -8.0944   -6.6785   20.9318 C   0  0  0  0  0  0  0  0  0  0  0  0
   -7.4255   -7.2135   20.0562 O   0  0  0  0  0  0  0  0  0  0  0  0
   -8.4189   -1.7349   28.3469 N   0  0  0  0  0  0  0  0  0  0  0  0
   -6.3549   -2.9183   28.0232 N   0  0  0  0  0  0  0  0  0  0  0  0
   -7.6143   -2.9009   28.5177 C   0  0  0  0  0  0  0  0  0  0  0  0
   -8.1255   -3.9774   29.1871 N   0  0  0  0  0  0  0  0  0  0  0  0
   -7.4052   -5.1108   29.3853 C   0  0  0  0  0  0  0  0  0  0  0  0
   -6.0881   -5.1739   28.8707 C   0  0  0  0  0  0  0  0  0  0  0  0
   -7.9784   -6.1655   30.0561 O   0  0  0  0  0  0  0  0  0  0  0  0
   -5.1203   -7.1016   30.2292 C   0  0  0  0  0  0  0  0  0  0  0  0
   -5.1918   -6.3079   29.0260 N   0  0  0  0  0  0  0  0  0  0  0  0
   -5.0818   -6.6138   31.3537 O   0  0  0  0  0  0  0  0  0  0  0  0
   -4.3123   -6.5186   27.9565 C   0  0  2  0  0  0  0  0  0  0  0  0
   -3.4612   -5.2434   27.7259 C   0  0  0  0  0  0  0  0  0  0  0  0
   -5.5680   -4.0280   28.1900 C   0  0  0  0  0  0  0  0  0  0  0  0
   -4.2099   -4.0550   27.6402 N   0  0  0  0  0  0  0  0  0  0  0  0
   -5.0721   -6.8829   26.6970 C   0  0  0  0  0  0  0  0  0  0  0  0
   -5.9334   -5.8780   26.1381 N   0  0  0  0  0  0  0  0  0  0  0  0
   -7.5192   -6.4447   22.2857 C   0  0  0  0  0  0  0  0  0  0  0  0
   -7.0575   -5.1896   22.6574 C   0  0  0  0  0  0  0  0  0  0  0  0
   -6.5271   -5.0039   23.9283 C   0  0  0  0  0  0  0  0  0  0  0  0
   -6.4712   -6.0670   24.8274 C   0  0  0  0  0  0  0  0  0  0  0  0
   -6.9426   -7.3141   24.4561 C   0  0  0  0  0  0  0  0  0  0  0  0
   -7.4629   -7.5028   23.1813 C   0  0  0  0  0  0  0  0  0  0  0  0
  1  2  1  0  0  0  0
  2  3  2  0  0  0  0
  2 20  1  0  0  0  0
  4  6  1  0  0  0  0
  5  6  2  0  0  0  0
  5 16  1  0  0  0  0
  6  7  1  0  0  0  0
  7  8  1  0  0  0  0
  8  9  1  0  0  0  0
  8 10  2  0  0  0  0
  9 12  1  0  0  0  0
  9 16  2  0  0  0  0
 11 13  1  0  0  0  0
 11 12  1  0  0  0  0
 12 14  1  0  0  0  0
 14 15  1  0  0  0  0
 14 18  1  6  0  0  0
 15 17  1  0  0  0  0
 16 17  1  0  0  0  0
 18 19  1  0  0  0  0
 19 23  1  0  0  0  0
 20 21  2  0  0  0  0
 20 25  1  0  0  0  0
 21 22  1  0  0  0  0
 22 23  2  0  0  0  0
 23 24  1  0  0  0  0
 24 25  2  0  0  0  0
M  END
>  <CHROM.1>
-45.18867645,65.35908999,168.12061427,-138.23371823,-78.00443139,-6.49616202
-5.54520638,26.50234205,1.89605106,0.82919950,-1.99066882

>  <Name>
ligand

>  <RI>
0

>  <Rbt.Current_Directory>
/home/itssahil/PROJECTS/Mol_Feturizer/New_Systems/rnas/4LVV

>  <Rbt.Executable>
rbdock ($Id: //depot/dev/client3/rdock/2013.1/src/exe/rbdock.cxx#4 $)

>  <Rbt.Library>
libRbt.so (2013.1, Build901 2013/11/27)

>  <Rbt.Parameter_File>
/export/apps/rDock/src/rDock_2013.1_src/data/scripts/dock_solv.prm

>  <Rbt.Receptor>
prm/blind_docking_40.prm

>  <SCORE>
-12.3222

>  <SCORE.INTER>
-12.2621

>  <SCORE.INTER.CONST>
1

>  <SCORE.INTER.POLAR>
0

>  <SCORE.INTER.ROT>
5

>  <SCORE.INTER.SOLV>
13.5141

>  <SCORE.INTER.VDW>
-19.6128

>  <SCORE.INTER.norm>
-0.490485

>  <SCORE.INTRA>
-0.0600294

>  <SCORE.INTRA.DIHEDRAL>
-0.398337

>  <SCORE.INTRA.DIHEDRAL.0>
3.94806

>  <SCORE.INTRA.POLAR>
0

>  <SCORE.INTRA.POLAR.0>
0

>  <SCORE.INTRA.REPUL>
0

>  <SCORE.INTRA.REPUL.0>
0

>  <SCORE.INTRA.SOLV>
2.28042

>  <SCORE.INTRA.SOLV.lig_0>
-70.9803

>  <SCORE.INTRA.VDW>
-1.00107

>  <SCORE.INTRA.VDW.0>
-0.709409

>  <SCORE.INTRA.norm>
-0.00240118

>  <SCORE.RESTR>
0

>  <SCORE.RESTR.CAVITY>
0

>  <SCORE.RESTR.norm>
0

>  <SCORE.SYSTEM>
0

>  <SCORE.SYSTEM.CONST>
0

>  <SCORE.SYSTEM.DIHEDRAL>
0

>  <SCORE.SYSTEM.SOLV>
0

>  <SCORE.SYSTEM.norm>
0

>  <SCORE.heavy>
25

>  <SCORE.norm>
-0.492886

>  <RMSD>
20.493

$$$$
ligand
 OpenBabel11021811503D
libRbt.so/2013.1/901 2013/11/27
 25 27  0  0  0  0  0  0  0  0999 V2000
   -7.5925   -7.6237   20.1528 N   0  0  0  0  0  0  0  0  0  0  0  0
   -8.2675   -6.7769   21.0870 C   0  0  0  0  0  0  0  0  0  0  0  0
   -9.3579   -6.2894   20.8159 O   0  0  0  0  0  0  0  0  0  0  0  0
   -8.3158   -1.6517   28.2842 N   0  0  0  0  0  0  0  0  0  0  0  0
   -6.2770   -2.8990   28.0543 N   0  0  0  0  0  0  0  0  0  0  0  0
   -7.5593   -2.8452   28.4830 C   0  0  0  0  0  0  0  0  0  0  0  0
   -8.1391   -3.9110   29.1125 N   0  0  0  0  0  0  0  0  0  0  0  0
   -7.4671   -5.0692   29.3346 C   0  0  0  0  0  0  0  0  0  0  0  0
   -6.1277   -5.1704   28.8882 C   0  0  0  0  0  0  0  0  0  0  0  0
   -8.1082   -6.1111   29.9625 O   0  0  0  0  0  0  0  0  0  0  0  0
   -5.2948   -7.1422   30.2727 C   0  0  0  0  0  0  0  0  0  0  0  0
   -5.2777   -6.3348   29.0766 N   0  0  0  0  0  0  0  0  0  0  0  0
   -5.0209   -6.7016   31.3838 O   0  0  0  0  0  0  0  0  0  0  0  0
   -4.3509   -6.5636   28.0517 C   0  0  2  0  0  0  0  0  0  0  0  0
   -3.4483   -5.3148   27.8804 C   0  0  0  0  0  0  0  0  0  0  0  0
   -5.5361   -4.0355   28.2488 C   0  0  0  0  0  0  0  0  0  0  0  0
   -4.1527   -4.1017   27.7698 N   0  0  0  0  0  0  0  0  0  0  0  0
   -5.0553   -6.8903   26.7505 C   0  0  0  0  0  0  0  0  0  0  0  0
   -5.8584   -5.8542   26.1625 N   0  0  0  0  0  0  0  0  0  0  0  0
   -7.6277   -6.5114   22.4056 C   0  0  0  0  0  0  0  0  0  0  0  0
   -7.1432   -5.2497   22.7221 C   0  0  0  0  0  0  0  0  0  0  0  0
   -6.5523   -5.0343   23.9612 C   0  0  0  0  0  0  0  0  0  0  0  0
   -6.4586   -6.0740   24.8842 C   0  0  0  0  0  0  0  0  0  0  0  0
   -6.9527   -7.3276   24.5682 C   0  0  0  0  0  0  0  0  0  0  0  0
   -7.5337   -7.5463   23.3249 C   0  0  0  0  0  0  0  0  0  0  0  0
  1  2  1  0  0  0  0
  2  3  2  0  0  0  0
  2 20  1  0  0  0  0
  4  6  1  0  0  0  0
  5  6  2  0  0  0  0
  5 16  1  0  0  0  0
  6  7  1  0  0  0  0
  7  8  1  0  0  0  0
  8  9  1  0  0  0  0
  8 10  2  0  0  0  0
  9 12  1  0  0  0  0
  9 16  2  0  0  0  0
 11 13  1  0  0  0  0
 11 12  1  0  0  0  0
 12 14  1  0  0  0  0
 14 15  1  0  0  0  0
 14 18  1  6  0  0  0
 15 17  1  0  0  0  0
 16 17  1  0  0  0  0
 18 19  1  0  0  0  0
 19 23  1  0  0  0  0
 20 21  2  0  0  0  0
 20 25  1  0  0  0  0
 21 22  1  0  0  0  0
 22 23  2  0  0  0  0
 23 24  1  0  0  0  0
 24 25  2  0  0  0  0
M  END
>  <CHROM.1>
-60.93256189,65.08090293,175.12572527,-142.79751470,111.46848484,-6.53060118
-5.57004245,26.55683068,-1.94337402,-0.85725702,1.09228669

>  <Name>
ligand

>  <RI>
0

>  <Rbt.Current_Directory>
/home/itssahil/PROJECTS/Mol_Feturizer/New_Systems/rnas/4LVV

>  <Rbt.Executable>
rbdock ($Id: //depot/dev/client3/rdock/2013.1/src/exe/rbdock.cxx#4 $)

>  <Rbt.Library>
libRbt.so (2013.1, Build901 2013/11/27)

>  <Rbt.Parameter_File>
/export/apps/rDock/src/rDock_2013.1_src/data/scripts/dock_solv.prm

>  <Rbt.Receptor>
prm/blind_docking_100.prm

>  <SCORE>
-12.5063

>  <SCORE.INTER>
-12.4641

>  <SCORE.INTER.CONST>
1

>  <SCORE.INTER.POLAR>
0

>  <SCORE.INTER.ROT>
5

>  <SCORE.INTER.SOLV>
12.1262

>  <SCORE.INTER.VDW>
-19.2848

>  <SCORE.INTER.norm>
-0.498563

>  <SCORE.INTRA>
-0.0421798

>  <SCORE.INTRA.DIHEDRAL>
-0.594948

>  <SCORE.INTRA.DIHEDRAL.0>
3.94806

>  <SCORE.INTRA.POLAR>
0

>  <SCORE.INTRA.POLAR.0>
0

>  <SCORE.INTRA.REPUL>
0

>  <SCORE.INTRA.REPUL.0>
0

>  <SCORE.INTRA.SOLV>
2.21898

>  <SCORE.INTRA.SOLV.lig_0>
-70.9803

>  <SCORE.INTRA.VDW>
-0.854195

>  <SCORE.INTRA.VDW.0>
-0.709409

>  <SCORE.INTRA.norm>
-0.00168719

>  <SCORE.RESTR>
0

>  <SCORE.RESTR.CAVITY>
0

>  <SCORE.RESTR.norm>
0

>  <SCORE.SYSTEM>
0

>  <SCORE.SYSTEM.CONST>
0

>  <SCORE.SYSTEM.DIHEDRAL>
0

>  <SCORE.SYSTEM.SOLV>
0

>  <SCORE.SYSTEM.norm>
0

>  <SCORE.heavy>
25

>  <SCORE.norm>
-0.50025

>  <RMSD>
20.494

$$$$
ligand
 OpenBabel11021811503D
libRbt.so/2013.1/901 2013/11/27
 25 27  0  0  0  0  0  0  0  0999 V2000
   -9.6657   -6.3202   20.8068 N   0  0  0  0  0  0  0  0  0  0  0  0
   -8.3034   -6.7091   21.0024 C   0  0  0  0  0  0  0  0  0  0  0  0
   -7.6515   -7.1900   20.0838 O   0  0  0  0  0  0  0  0  0  0  0  0
   -8.4170   -1.6939   28.2320 N   0  0  0  0  0  0  0  0  0  0  0  0
   -6.3343   -2.8520   27.9383 N   0  0  0  0  0  0  0  0  0  0  0  0
   -7.6018   -2.8512   28.4118 C   0  0  0  0  0  0  0  0  0  0  0  0
   -8.1114   -3.9362   29.0686 N   0  0  0  0  0  0  0  0  0  0  0  0
   -7.3814   -5.0619   29.2744 C   0  0  0  0  0  0  0  0  0  0  0  0
   -6.0553   -5.1077   28.7815 C   0  0  0  0  0  0  0  0  0  0  0  0
   -7.9533   -6.1259   29.9316 O   0  0  0  0  0  0  0  0  0  0  0  0
   -5.0878   -7.0295   30.1487 C   0  0  0  0  0  0  0  0  0  0  0  0
   -5.1485   -6.2319   28.9475 N   0  0  0  0  0  0  0  0  0  0  0  0
   -5.3658   -8.2236   30.1762 O   0  0  0  0  0  0  0  0  0  0  0  0
   -4.2491   -6.4281   27.8919 C   0  0  2  0  0  0  0  0  0  0  0  0
   -3.4092   -5.1423   27.6804 C   0  0  0  0  0  0  0  0  0  0  0  0
   -5.5374   -3.9532   28.1140 C   0  0  0  0  0  0  0  0  0  0  0  0
   -4.1701   -3.9623   27.5867 N   0  0  0  0  0  0  0  0  0  0  0  0
   -4.9836   -6.7963   26.6186 C   0  0  0  0  0  0  0  0  0  0  0  0
   -5.9012   -5.8263   26.0883 N   0  0  0  0  0  0  0  0  0  0  0  0
   -7.6844   -6.5025   22.3414 C   0  0  0  0  0  0  0  0  0  0  0  0
   -7.5702   -7.5511   23.2437 C   0  0  0  0  0  0  0  0  0  0  0  0
   -6.9870   -7.3260   24.4847 C   0  0  0  0  0  0  0  0  0  0  0  0
   -6.5086   -6.0598   24.8158 C   0  0  0  0  0  0  0  0  0  0  0  0
   -6.6150   -5.0199   23.9087 C   0  0  0  0  0  0  0  0  0  0  0  0
   -7.2082   -5.2421   22.6718 C   0  0  0  0  0  0  0  0  0  0  0  0
  1  2  1  0  0  0  0
  2  3  2  0  0  0  0
  2 20  1  0  0  0  0
  4  6  1  0  0  0  0
  5  6  2  0  0  0  0
  5 16  1  0  0  0  0
  6  7  1  0  0  0  0
  7  8  1  0  0  0  0
  8  9  1  0  0  0  0
  8 10  2  0  0  0  0
  9 12  1  0  0  0  0
  9 16  2  0  0  0  0
 11 13  1  0  0  0  0
 11 12  1  0  0  0  0
 12 14  1  0  0  0  0
 14 15  1  0  0  0  0
 14 18  1  6  0  0  0
 15 17  1  0  0  0  0
 16 17  1  0  0  0  0
 18 19  1  0  0  0  0
 19 23  1  0  0  0  0
 20 21  2  0  0  0  0
 20 25  1  0  0  0  0
 21 22  1  0  0  0  0
 22 23  2  0  0  0  0
 23 24  1  0  0  0  0
 24 25  2  0  0  0  0
M  END
>  <CHROM.1>
116.65102747,62.13324872,173.20024898,42.52382841,99.60787604,-6.53834171
-5.59129242,26.40820197,1.99823558,0.92278652,-2.09741498

>  <Name>
ligand

>  <RI>
0

>  <Rbt.Current_Directory>
/home/itssahil/PROJECTS/Mol_Feturizer/New_Systems/rnas/4LVV

>  <Rbt.Executable>
rbdock ($Id: //depot/dev/client3/rdock/2013.1/src/exe/rbdock.cxx#4 $)

>  <Rbt.Library>
libRbt.so (2013.1, Build901 2013/11/27)

>  <Rbt.Parameter_File>
/export/apps/rDock/src/rDock_2013.1_src/data/scripts/dock_solv.prm

>  <Rbt.Receptor>
prm/blind_docking_60.prm

>  <SCORE>
-12.4209

>  <SCORE.INTER>
-12.3004

>  <SCORE.INTER.CONST>
1

>  <SCORE.INTER.POLAR>
0

>  <SCORE.INTER.ROT>
5

>  <SCORE.INTER.SOLV>
14.173

>  <SCORE.INTER.VDW>
-19.858

>  <SCORE.INTER.norm>
-0.492017

>  <SCORE.INTRA>
-0.120496

>  <SCORE.INTRA.DIHEDRAL>
-0.556702

>  <SCORE.INTRA.DIHEDRAL.0>
3.94806

>  <SCORE.INTRA.POLAR>
0

>  <SCORE.INTRA.POLAR.0>
0

>  <SCORE.INTRA.REPUL>
0

>  <SCORE.INTRA.REPUL.0>
0

>  <SCORE.INTRA.SOLV>
2.30409

>  <SCORE.INTRA.SOLV.lig_0>
-70.9803

>  <SCORE.INTRA.VDW>
-0.994192

>  <SCORE.INTRA.VDW.0>
-0.709409

>  <SCORE.INTRA.norm>
-0.00481982

>  <SCORE.RESTR>
0

>  <SCORE.RESTR.CAVITY>
0

>  <SCORE.RESTR.norm>
0

>  <SCORE.SYSTEM>
0

>  <SCORE.SYSTEM.CONST>
0

>  <SCORE.SYSTEM.DIHEDRAL>
0

>  <SCORE.SYSTEM.SOLV>
0

>  <SCORE.SYSTEM.norm>
0

>  <SCORE.heavy>
25

>  <SCORE.norm>
-0.496837

>  <RMSD>
20.499

$$$$
ligand
 OpenBabel11021811503D
libRbt.so/2013.1/901 2013/11/27
 25 27  0  0  0  0  0  0  0  0999 V2000
   -8.6571   -6.9588   19.7750 N   0  0  0  0  0  0  0  0  0  0  0  0
   -9.0462   -6.5297   21.0826 C   0  0  0  0  0  0  0  0  0  0  0  0
  -10.2117   -6.2430   21.3267 O   0  0  0  0  0  0  0  0  0  0  0  0
   -6.5176   -1.5605   31.0054 N   0  0  0  0  0  0  0  0  0  0  0  0
   -5.0717   -3.0045   29.7447 N   0  0  0  0  0  0  0  0  0  0  0  0
   -6.2228   -2.8350   30.4354 C   0  0  0  0  0  0  0  0  0  0  0  0
   -7.1033   -3.8666   30.6053 N   0  0  0  0  0  0  0  0  0  0  0  0
   -6.8734   -5.1018   30.0915 C   0  0  0  0  0  0  0  0  0  0  0  0
   -5.6868   -5.3160   29.3500 C   0  0  0  0  0  0  0  0  0  0  0  0
   -7.8027   -6.0967   30.2856 O   0  0  0  0  0  0  0  0  0  0  0  0
   -5.5244   -7.8594   29.4044 C   0  0  0  0  0  0  0  0  0  0  0  0
   -5.2952   -6.5871   28.7630 N   0  0  0  0  0  0  0  0  0  0  0  0
   -5.0456   -8.1581   30.4931 O   0  0  0  0  0  0  0  0  0  0  0  0
   -4.5742   -6.4896   27.5662 C   0  0  2  0  0  0  0  0  0  0  0  0
   -3.2996   -5.6375   27.7965 C   0  0  0  0  0  0  0  0  0  0  0  0
   -4.7715   -4.2265   29.2015 C   0  0  0  0  0  0  0  0  0  0  0  0
   -3.5335   -4.4073   28.4385 N   0  0  0  0  0  0  0  0  0  0  0  0
   -5.4267   -5.8817   26.4708 C   0  0  0  0  0  0  0  0  0  0  0  0
   -5.0428   -6.1564   25.1138 N   0  0  0  0  0  0  0  0  0  0  0  0
   -8.0098   -6.4539   22.1498 C   0  0  0  0  0  0  0  0  0  0  0  0
   -7.8269   -7.5015   23.0420 C   0  0  0  0  0  0  0  0  0  0  0  0
   -6.8508   -7.4002   24.0259 C   0  0  0  0  0  0  0  0  0  0  0  0
   -6.0528   -6.2608   24.1080 C   0  0  0  0  0  0  0  0  0  0  0  0
   -6.2317   -5.2234   23.2095 C   0  0  0  0  0  0  0  0  0  0  0  0
   -7.2152   -5.3197   22.2324 C   0  0  0  0  0  0  0  0  0  0  0  0
  1  2  1  0  0  0  0
  2  3  2  0  0  0  0
  2 20  1  0  0  0  0
  4  6  1  0  0  0  0
  5  6  2  0  0  0  0
  5 16  1  0  0  0  0
  6  7  1  0  0  0  0
  7  8  1  0  0  0  0
  8  9  1  0  0  0  0
  8 10  2  0  0  0  0
  9 12  1  0  0  0  0
  9 16  2  0  0  0  0
 11 13  1  0  0  0  0
 11 12  1  0  0  0  0
 12 14  1  0  0  0  0
 14 15  1  0  0  0  0
 14 18  1  6  0  0  0
 15 17  1  0  0  0  0
 16 17  1  0  0  0  0
 18 19  1  0  0  0  0
 19 23  1  0  0  0  0
 20 21  2  0  0  0  0
 20 25  1  0  0  0  0
 21 22  1  0  0  0  0
 22 23  2  0  0  0  0
 23 24  1  0  0  0  0
 24 25  2  0  0  0  0
M  END
>  <CHROM.1>
-60.87715467,-157.60347648,147.40489694,-75.45962561,-95.96990249,-6.31340973
-5.66144152,26.72320181,2.05943522,0.90363556,-2.17995451

>  <Name>
ligand

>  <RI>
0

>  <Rbt.Current_Directory>
/home/itssahil/PROJECTS/Mol_Feturizer/New_Systems/rnas/4LVV

>  <Rbt.Executable>
rbdock ($Id: //depot/dev/client3/rdock/2013.1/src/exe/rbdock.cxx#4 $)

>  <Rbt.Library>
libRbt.so (2013.1, Build901 2013/11/27)

>  <Rbt.Parameter_File>
/export/apps/rDock/src/rDock_2013.1_src/data/scripts/dock_solv.prm

>  <Rbt.Receptor>
prm/blind_docking_100.prm

>  <SCORE>
-12.9022

>  <SCORE.INTER>
-12.3613

>  <SCORE.INTER.CONST>
1

>  <SCORE.INTER.POLAR>
0

>  <SCORE.INTER.ROT>
5

>  <SCORE.INTER.SOLV>
15.3524

>  <SCORE.INTER.VDW>
-20.2917

>  <SCORE.INTER.norm>
-0.494452

>  <SCORE.INTRA>
-0.540865

>  <SCORE.INTRA.DIHEDRAL>
1.55951

>  <SCORE.INTRA.DIHEDRAL.0>
3.94806

>  <SCORE.INTRA.POLAR>
0

>  <SCORE.INTRA.POLAR.0>
0

>  <SCORE.INTRA.REPUL>
0

>  <SCORE.INTRA.REPUL.0>
0

>  <SCORE.INTRA.SOLV>
-0.511035

>  <SCORE.INTRA.SOLV.lig_0>
-70.9803

>  <SCORE.INTRA.VDW>
-1.0651

>  <SCORE.INTRA.VDW.0>
-0.709409

>  <SCORE.INTRA.norm>
-0.0216346

>  <SCORE.RESTR>
0

>  <SCORE.RESTR.CAVITY>
0

>  <SCORE.RESTR.norm>
0

>  <SCORE.SYSTEM>
0

>  <SCORE.SYSTEM.CONST>
0

>  <SCORE.SYSTEM.DIHEDRAL>
0

>  <SCORE.SYSTEM.SOLV>
0

>  <SCORE.SYSTEM.norm>
0

>  <SCORE.heavy>
25

>  <SCORE.norm>
-0.516087

>  <RMSD>
20.512

$$$$
ligand
 OpenBabel11021811503D
libRbt.so/2013.1/901 2013/11/27
 25 27  0  0  0  0  0  0  0  0999 V2000
   -8.7112   -6.8759   19.7704 N   0  0  0  0  0  0  0  0  0  0  0  0
   -9.0888   -6.5491   21.1105 C   0  0  0  0  0  0  0  0  0  0  0  0
  -10.2659   -6.3860   21.4073 O   0  0  0  0  0  0  0  0  0  0  0  0
   -6.3848   -1.5073   30.9531 N   0  0  0  0  0  0  0  0  0  0  0  0
   -4.9851   -2.9879   29.6826 N   0  0  0  0  0  0  0  0  0  0  0  0
   -6.1154   -2.7953   30.4012 C   0  0  0  0  0  0  0  0  0  0  0  0
   -6.9985   -3.8162   30.6161 N   0  0  0  0  0  0  0  0  0  0  0  0
   -6.7922   -5.0632   30.1214 C   0  0  0  0  0  0  0  0  0  0  0  0
   -5.6283   -5.3018   29.3520 C   0  0  0  0  0  0  0  0  0  0  0  0
   -7.7232   -6.0465   30.3611 O   0  0  0  0  0  0  0  0  0  0  0  0
   -5.4834   -7.8448   29.4535 C   0  0  0  0  0  0  0  0  0  0  0  0
   -5.2625   -6.5875   28.7804 N   0  0  0  0  0  0  0  0  0  0  0  0
   -5.0080   -8.1105   30.5522 O   0  0  0  0  0  0  0  0  0  0  0  0
   -4.5742   -6.5199   27.5625 C   0  0  2  0  0  0  0  0  0  0  0  0
   -3.2874   -5.6736   27.7402 C   0  0  0  0  0  0  0  0  0  0  0  0
   -4.7093   -4.2229   29.1563 C   0  0  0  0  0  0  0  0  0  0  0  0
   -3.4942   -4.4289   28.3634 N   0  0  0  0  0  0  0  0  0  0  0  0
   -5.4522   -5.9273   26.4788 C   0  0  0  0  0  0  0  0  0  0  0  0
   -5.0616   -6.1651   25.1168 N   0  0  0  0  0  0  0  0  0  0  0  0
   -8.0245   -6.4270   22.1454 C   0  0  0  0  0  0  0  0  0  0  0  0
   -7.2235   -5.2955   22.2146 C   0  0  0  0  0  0  0  0  0  0  0  0
   -6.2397   -5.2119   23.1924 C   0  0  0  0  0  0  0  0  0  0  0  0
   -6.0673   -6.2509   24.1049 C   0  0  0  0  0  0  0  0  0  0  0  0
   -6.8754   -7.3724   24.0387 C   0  0  0  0  0  0  0  0  0  0  0  0
   -7.8520   -7.4612   23.0540 C   0  0  0  0  0  0  0  0  0  0  0  0
  1  2  1  0  0  0  0
  2  3  2  0  0  0  0
  2 20  1  0  0  0  0
  4  6  1  0  0  0  0
  5  6  2  0  0  0  0
  5 16  1  0  0  0  0
  6  7  1  0  0  0  0
  7  8  1  0  0  0  0
  8  9  1  0  0  0  0
  8 10  2  0  0  0  0
  9 12  1  0  0  0  0
  9 16  2  0  0  0  0
 11 13  1  0  0  0  0
 11 12  1  0  0  0  0
 12 14  1  0  0  0  0
 14 15  1  0  0  0  0
 14 18  1  6  0  0  0
 15 17  1  0  0  0  0
 16 17  1  0  0  0  0
 18 19  1  0  0  0  0
 19 23  1  0  0  0  0
 20 21  2  0  0  0  0
 20 25  1  0  0  0  0
 21 22  1  0  0  0  0
 22 23  2  0  0  0  0
 23 24  1  0  0  0  0
 24 25  2  0  0  0  0
M  END
>  <CHROM.1>
-58.71151092,-161.26362691,149.30233273,106.68884604,77.21049479,-6.28945124
-5.65254166,26.72522115,2.10458647,0.93700004,-2.23038785

>  <Name>
ligand

>  <RI>
0

>  <Rbt.Current_Directory>
/home/itssahil/PROJECTS/Mol_Feturizer/New_Systems/rnas/4LVV

>  <Rbt.Executable>
rbdock ($Id: //depot/dev/client3/rdock/2013.1/src/exe/rbdock.cxx#4 $)

>  <Rbt.Library>
libRbt.so (2013.1, Build901 2013/11/27)

>  <Rbt.Parameter_File>
/export/apps/rDock/src/rDock_2013.1_src/data/scripts/dock_solv.prm

>  <Rbt.Receptor>
prm/blind_docking_40.prm

>  <SCORE>
-12.7795

>  <SCORE.INTER>
-12.0846

>  <SCORE.INTER.CONST>
1

>  <SCORE.INTER.POLAR>
0

>  <SCORE.INTER.ROT>
5

>  <SCORE.INTER.SOLV>
15.5186

>  <SCORE.INTER.VDW>
-20.1626

>  <SCORE.INTER.norm>
-0.483383

>  <SCORE.INTRA>
-0.694928

>  <SCORE.INTRA.DIHEDRAL>
1.11688

>  <SCORE.INTRA.DIHEDRAL.0>
3.94806

>  <SCORE.INTRA.POLAR>
0

>  <SCORE.INTRA.POLAR.0>
0

>  <SCORE.INTRA.REPUL>
0

>  <SCORE.INTRA.REPUL.0>
0

>  <SCORE.INTRA.SOLV>
-0.463074

>  <SCORE.INTRA.SOLV.lig_0>
-70.9803

>  <SCORE.INTRA.VDW>
-1.02183

>  <SCORE.INTRA.VDW.0>
-0.709409

>  <SCORE.INTRA.norm>
-0.0277971

>  <SCORE.RESTR>
0

>  <SCORE.RESTR.CAVITY>
0

>  <SCORE.RESTR.norm>
0

>  <SCORE.SYSTEM>
0

>  <SCORE.SYSTEM.CONST>
0

>  <SCORE.SYSTEM.DIHEDRAL>
0

>  <SCORE.SYSTEM.SOLV>
0

>  <SCORE.SYSTEM.norm>
0

>  <SCORE.heavy>
25

>  <SCORE.norm>
-0.51118

>  <RMSD>
20.515

$$$$
ligand
 OpenBabel11021811503D
libRbt.so/2013.1/901 2013/11/27
 25 27  0  0  0  0  0  0  0  0999 V2000
   -8.6112   -8.5103   20.8940 N   0  0  0  0  0  0  0  0  0  0  0  0
   -7.6790   -7.4305   20.9964 C   0  0  0  0  0  0  0  0  0  0  0  0
   -7.2488   -6.8773   19.9919 O   0  0  0  0  0  0  0  0  0  0  0  0
   -9.5974   -2.0545   27.7971 N   0  0  0  0  0  0  0  0  0  0  0  0
   -7.2865   -2.6947   27.6747 N   0  0  0  0  0  0  0  0  0  0  0  0
   -8.5378   -2.9543   28.1193 C   0  0  0  0  0  0  0  0  0  0  0  0
   -8.8023   -4.0584   28.8803 N   0  0  0  0  0  0  0  0  0  0  0  0
   -7.8341   -4.9458   29.2232 C   0  0  0  0  0  0  0  0  0  0  0  0
   -6.5143   -4.7173   28.7655 C   0  0  0  0  0  0  0  0  0  0  0  0
   -8.1641   -6.0447   29.9811 O   0  0  0  0  0  0  0  0  0  0  0  0
   -5.1788   -6.1972   30.3545 C   0  0  0  0  0  0  0  0  0  0  0  0
   -5.3732   -5.5643   29.0721 N   0  0  0  0  0  0  0  0  0  0  0  0
   -5.2277   -7.4116   30.5178 O   0  0  0  0  0  0  0  0  0  0  0  0
   -4.4049   -5.6417   28.0630 C   0  0  2  0  0  0  0  0  0  0  0  0
   -3.8889   -4.2184   27.7291 C   0  0  0  0  0  0  0  0  0  0  0  0
   -6.2579   -3.5452   27.9862 C   0  0  0  0  0  0  0  0  0  0  0  0
   -4.9053   -3.2747   27.4912 N   0  0  0  0  0  0  0  0  0  0  0  0
   -4.9699   -6.3045   26.8230 C   0  0  0  0  0  0  0  0  0  0  0  0
   -6.0179   -5.6091   26.1286 N   0  0  0  0  0  0  0  0  0  0  0  0
   -7.2527   -6.9779   22.3499 C   0  0  0  0  0  0  0  0  0  0  0  0
   -7.1565   -7.8753   23.4046 C   0  0  0  0  0  0  0  0  0  0  0  0
   -6.7549   -7.4216   24.6551 C   0  0  0  0  0  0  0  0  0  0  0  0
   -6.4387   -6.0779   24.8457 C   0  0  0  0  0  0  0  0  0  0  0  0
   -6.5257   -5.1889   23.7886 C   0  0  0  0  0  0  0  0  0  0  0  0
   -6.9379   -5.6402   22.5405 C   0  0  0  0  0  0  0  0  0  0  0  0
  1  2  1  0  0  0  0
  2  3  2  0  0  0  0
  2 20  1  0  0  0  0
  4  6  1  0  0  0  0
  5  6  2  0  0  0  0
  5 16  1  0  0  0  0
  6  7  1  0  0  0  0
  7  8  1  0  0  0  0
  8  9  1  0  0  0  0
  8 10  2  0  0  0  0
  9 12  1  0  0  0  0
  9 16  2  0  0  0  0
 11 13  1  0  0  0  0
 11 12  1  0  0  0  0
 12 14  1  0  0  0  0
 14 15  1  0  0  0  0
 14 18  1  6  0  0  0
 15 17  1  0  0  0  0
 16 17  1  0  0  0  0
 18 19  1  0  0  0  0
 19 23  1  0  0  0  0
 20 21  2  0  0  0  0
 20 25  1  0  0  0  0
 21 22  1  0  0  0  0
 22 23  2  0  0  0  0
 23 24  1  0  0  0  0
 24 25  2  0  0  0  0
M  END
>  <CHROM.1>
113.00857770,65.49128124,170.14216251,50.05533653,32.30514832,-6.68737309
-5.49782239,26.40436810,-1.74028037,-0.78391822,1.14414865

>  <Name>
ligand

>  <RI>
0

>  <Rbt.Current_Directory>
/home/itssahil/PROJECTS/Mol_Feturizer/New_Systems/rnas/4LVV

>  <Rbt.Executable>
rbdock ($Id: //depot/dev/client3/rdock/2013.1/src/exe/rbdock.cxx#4 $)

>  <Rbt.Library>
libRbt.so (2013.1, Build901 2013/11/27)

>  <Rbt.Parameter_File>
/export/apps/rDock/src/rDock_2013.1_src/data/scripts/dock_solv.prm

>  <Rbt.Receptor>
prm/blind_docking_80.prm

>  <SCORE>
-11.5569

>  <SCORE.INTER>
-11.5841

>  <SCORE.INTER.CONST>
1

>  <SCORE.INTER.POLAR>
0

>  <SCORE.INTER.ROT>
5

>  <SCORE.INTER.SOLV>
11.8647

>  <SCORE.INTER.VDW>
-18.611

>  <SCORE.INTER.norm>
-0.463365

>  <SCORE.INTRA>
0.0272496

>  <SCORE.INTRA.DIHEDRAL>
-0.446809

>  <SCORE.INTRA.DIHEDRAL.0>
3.94806

>  <SCORE.INTRA.POLAR>
0

>  <SCORE.INTRA.POLAR.0>
0

>  <SCORE.INTRA.REPUL>
0

>  <SCORE.INTRA.REPUL.0>
0

>  <SCORE.INTRA.SOLV>
2.30274

>  <SCORE.INTRA.SOLV.lig_0>
-70.9803

>  <SCORE.INTRA.VDW>
-0.900717

>  <SCORE.INTRA.VDW.0>
-0.709409

>  <SCORE.INTRA.norm>
0.00108998

>  <SCORE.RESTR>
0

>  <SCORE.RESTR.CAVITY>
0

>  <SCORE.RESTR.norm>
0

>  <SCORE.SYSTEM>
0

>  <SCORE.SYSTEM.CONST>
0

>  <SCORE.SYSTEM.DIHEDRAL>
0

>  <SCORE.SYSTEM.SOLV>
0

>  <SCORE.SYSTEM.norm>
0

>  <SCORE.heavy>
25

>  <SCORE.norm>
-0.462275

>  <RMSD>
20.528

$$$$
ligand
 OpenBabel11021811503D
libRbt.so/2013.1/901 2013/11/27
 25 27  0  0  0  0  0  0  0  0999 V2000
   -8.6965   -6.8954   19.7772 N   0  0  0  0  0  0  0  0  0  0  0  0
   -9.0850   -6.6103   21.1237 C   0  0  0  0  0  0  0  0  0  0  0  0
  -10.2672   -6.5012   21.4246 O   0  0  0  0  0  0  0  0  0  0  0  0
   -6.4960   -1.4938   30.9663 N   0  0  0  0  0  0  0  0  0  0  0  0
   -5.0659   -2.9545   29.7069 N   0  0  0  0  0  0  0  0  0  0  0  0
   -6.2056   -2.7772   30.4143 C   0  0  0  0  0  0  0  0  0  0  0  0
   -7.0787   -3.8090   30.6178 N   0  0  0  0  0  0  0  0  0  0  0  0
   -6.8524   -5.0523   30.1224 C   0  0  0  0  0  0  0  0  0  0  0  0
   -5.6779   -5.2752   29.3644 C   0  0  0  0  0  0  0  0  0  0  0  0
   -7.7740   -6.0472   30.3503 O   0  0  0  0  0  0  0  0  0  0  0  0
   -5.5038   -7.8165   29.4615 C   0  0  0  0  0  0  0  0  0  0  0  0
   -5.2910   -6.5550   28.7936 N   0  0  0  0  0  0  0  0  0  0  0  0
   -5.0082   -8.0922   30.5489 O   0  0  0  0  0  0  0  0  0  0  0  0
   -4.5912   -6.4762   27.5830 C   0  0  2  0  0  0  0  0  0  0  0  0
   -3.3165   -5.6151   27.7758 C   0  0  0  0  0  0  0  0  0  0  0  0
   -4.7699   -4.1849   29.1806 C   0  0  0  0  0  0  0  0  0  0  0  0
   -3.5445   -4.3745   28.3997 N   0  0  0  0  0  0  0  0  0  0  0  0
   -5.4650   -5.8916   26.4917 C   0  0  0  0  0  0  0  0  0  0  0  0
   -5.0698   -6.1400   25.1329 N   0  0  0  0  0  0  0  0  0  0  0  0
   -8.0248   -6.4649   22.1598 C   0  0  0  0  0  0  0  0  0  0  0  0
   -7.2740   -5.3012   22.2536 C   0  0  0  0  0  0  0  0  0  0  0  0
   -6.2927   -5.1965   23.2319 C   0  0  0  0  0  0  0  0  0  0  0  0
   -6.0730   -6.2471   24.1206 C   0  0  0  0  0  0  0  0  0  0  0  0
   -6.8313   -7.4013   24.0300 C   0  0  0  0  0  0  0  0  0  0  0  0
   -7.8052   -7.5107   23.0447 C   0  0  0  0  0  0  0  0  0  0  0  0
  1  2  1  0  0  0  0
  2  3  2  0  0  0  0
  2 20  1  0  0  0  0
  4  6  1  0  0  0  0
  5  6  2  0  0  0  0
  5 16  1  0  0  0  0
  6  7  1  0  0  0  0
  7  8  1  0  0  0  0
  8  9  1  0  0  0  0
  8 10  2  0  0  0  0
  9 12  1  0  0  0  0
  9 16  2  0  0  0  0
 11 13  1  0  0  0  0
 11 12  1  0  0  0  0
 12 14  1  0  0  0  0
 14 15  1  0  0  0  0
 14 18  1  6  0  0  0
 15 17  1  0  0  0  0
 16 17  1  0  0  0  0
 18 19  1  0  0  0  0
 19 23  1  0  0  0  0
 20 21  2  0  0  0  0
 20 25  1  0  0  0  0
 21 22  1  0  0  0  0
 22 23  2  0  0  0  0
 23 24  1  0  0  0  0
 24 25  2  0  0  0  0
M  END
>  <CHROM.1>
-60.65407872,-160.26954695,148.64745508,103.97406753,77.45939269,-6.31965740
-5.64673746,26.73882680,2.08002953,0.92123180,-2.21355836

>  <Name>
ligand

>  <RI>
0

>  <Rbt.Current_Directory>
/home/itssahil/PROJECTS/Mol_Feturizer/New_Systems/rnas/4LVV

>  <Rbt.Executable>
rbdock ($Id: //depot/dev/client3/rdock/2013.1/src/exe/rbdock.cxx#4 $)

>  <Rbt.Library>
libRbt.so (2013.1, Build901 2013/11/27)

>  <Rbt.Parameter_File>
/export/apps/rDock/src/rDock_2013.1_src/data/scripts/dock_solv.prm

>  <Rbt.Receptor>
prm/blind_docking_60.prm

>  <SCORE>
-12.7829

>  <SCORE.INTER>
-12.1212

>  <SCORE.INTER.CONST>
1

>  <SCORE.INTER.POLAR>
0

>  <SCORE.INTER.ROT>
5

>  <SCORE.INTER.SOLV>
15.2107

>  <SCORE.INTER.VDW>
-20.0843

>  <SCORE.INTER.norm>
-0.484846

>  <SCORE.INTRA>
-0.661785

>  <SCORE.INTRA.DIHEDRAL>
1.23685

>  <SCORE.INTRA.DIHEDRAL.0>
3.94806

>  <SCORE.INTRA.POLAR>
0

>  <SCORE.INTRA.POLAR.0>
0

>  <SCORE.INTRA.REPUL>
0

>  <SCORE.INTRA.REPUL.0>
0

>  <SCORE.INTRA.SOLV>
-0.482286

>  <SCORE.INTRA.SOLV.lig_0>
-70.9803

>  <SCORE.INTRA.VDW>
-1.03907

>  <SCORE.INTRA.VDW.0>
-0.709409

>  <SCORE.INTRA.norm>
-0.0264714

>  <SCORE.RESTR>
0

>  <SCORE.RESTR.CAVITY>
0

>  <SCORE.RESTR.norm>
0

>  <SCORE.SYSTEM>
0

>  <SCORE.SYSTEM.CONST>
0

>  <SCORE.SYSTEM.DIHEDRAL>
0

>  <SCORE.SYSTEM.SOLV>
0

>  <SCORE.SYSTEM.norm>
0

>  <SCORE.heavy>
25

>  <SCORE.norm>
-0.511318

>  <RMSD>
20.530

$$$$
ligand
 OpenBabel11021811503D
libRbt.so/2013.1/901 2013/11/27
 25 27  0  0  0  0  0  0  0  0999 V2000
   -7.3976   -7.6823   20.0034 N   0  0  0  0  0  0  0  0  0  0  0  0
   -8.1463   -6.8479   20.8914 C   0  0  0  0  0  0  0  0  0  0  0  0
   -9.2413   -6.4079   20.5633 O   0  0  0  0  0  0  0  0  0  0  0  0
   -8.8242   -1.7580   28.1930 N   0  0  0  0  0  0  0  0  0  0  0  0
   -6.6878   -2.8212   27.9277 N   0  0  0  0  0  0  0  0  0  0  0  0
   -7.9571   -2.8733   28.3935 C   0  0  0  0  0  0  0  0  0  0  0  0
   -8.4198   -3.9722   29.0619 N   0  0  0  0  0  0  0  0  0  0  0  0
   -7.6394   -5.0596   29.2876 C   0  0  0  0  0  0  0  0  0  0  0  0
   -6.3094   -5.0499   28.8033 C   0  0  0  0  0  0  0  0  0  0  0  0
   -8.1654   -6.1403   29.9558 O   0  0  0  0  0  0  0  0  0  0  0  0
   -5.2623   -6.9059   30.2025 C   0  0  0  0  0  0  0  0  0  0  0  0
   -5.3522   -6.1282   28.9901 N   0  0  0  0  0  0  0  0  0  0  0  0
   -5.0966   -8.1209   30.2096 O   0  0  0  0  0  0  0  0  0  0  0  0
   -4.4376   -6.2962   27.9427 C   0  0  2  0  0  0  0  0  0  0  0  0
   -3.6573   -4.9754   27.7187 C   0  0  0  0  0  0  0  0  0  0  0  0
   -5.8416   -3.8815   28.1232 C   0  0  0  0  0  0  0  0  0  0  0  0
   -4.4719   -3.8336   27.6043 N   0  0  0  0  0  0  0  0  0  0  0  0
   -5.1456   -6.7153   26.6702 C   0  0  0  0  0  0  0  0  0  0  0  0
   -6.0112   -5.7484   26.0536 N   0  0  0  0  0  0  0  0  0  0  0  0
   -7.5775   -6.5366   22.2324 C   0  0  0  0  0  0  0  0  0  0  0  0
   -7.1041   -5.2658   22.5287 C   0  0  0  0  0  0  0  0  0  0  0  0
   -6.5802   -5.0072   23.7895 C   0  0  0  0  0  0  0  0  0  0  0  0
   -6.5423   -6.0128   24.7534 C   0  0  0  0  0  0  0  0  0  0  0  0
   -7.0253   -7.2754   24.4568 C   0  0  0  0  0  0  0  0  0  0  0  0
   -7.5392   -7.5374   23.1924 C   0  0  0  0  0  0  0  0  0  0  0  0
  1  2  1  0  0  0  0
  2  3  2  0  0  0  0
  2 20  1  0  0  0  0
  4  6  1  0  0  0  0
  5  6  2  0  0  0  0
  5 16  1  0  0  0  0
  6  7  1  0  0  0  0
  7  8  1  0  0  0  0
  8  9  1  0  0  0  0
  8 10  2  0  0  0  0
  9 12  1  0  0  0  0
  9 16  2  0  0  0  0
 11 13  1  0  0  0  0
 11 12  1  0  0  0  0
 12 14  1  0  0  0  0
 14 15  1  0  0  0  0
 14 18  1  6  0  0  0
 15 17  1  0  0  0  0
 16 17  1  0  0  0  0
 18 19  1  0  0  0  0
 19 23  1  0  0  0  0
 20 21  2  0  0  0  0
 20 25  1  0  0  0  0
 21 22  1  0  0  0  0
 22 23  2  0  0  0  0
 23 24  1  0  0  0  0
 24 25  2  0  0  0  0
M  END
>  <CHROM.1>
138.52871869,67.71194587,170.57862921,-137.12387212,108.68833415,-6.64855337
-5.57449017,26.38540811,-1.89016809,-0.88918462,1.12053350

>  <Name>
ligand

>  <RI>
0

>  <Rbt.Current_Directory>
/home/itssahil/PROJECTS/Mol_Feturizer/New_Systems/rnas/4LVV

>  <Rbt.Executable>
rbdock ($Id: //depot/dev/client3/rdock/2013.1/src/exe/rbdock.cxx#4 $)

>  <Rbt.Library>
libRbt.so (2013.1, Build901 2013/11/27)

>  <Rbt.Parameter_File>
/export/apps/rDock/src/rDock_2013.1_src/data/scripts/dock_solv.prm

>  <Rbt.Receptor>
prm/blind_docking_80.prm

>  <SCORE>
-12.8116

>  <SCORE.INTER>
-12.8571

>  <SCORE.INTER.CONST>
1

>  <SCORE.INTER.POLAR>
0

>  <SCORE.INTER.ROT>
5

>  <SCORE.INTER.SOLV>
12.9444

>  <SCORE.INTER.VDW>
-19.8195

>  <SCORE.INTER.norm>
-0.514283

>  <SCORE.INTRA>
0.0454741

>  <SCORE.INTRA.DIHEDRAL>
-0.51005

>  <SCORE.INTRA.DIHEDRAL.0>
3.94806

>  <SCORE.INTRA.POLAR>
0

>  <SCORE.INTRA.POLAR.0>
0

>  <SCORE.INTRA.REPUL>
0

>  <SCORE.INTRA.REPUL.0>
0

>  <SCORE.INTRA.SOLV>
2.20849

>  <SCORE.INTRA.SOLV.lig_0>
-70.9803

>  <SCORE.INTRA.VDW>
-0.803747

>  <SCORE.INTRA.VDW.0>
-0.709409

>  <SCORE.INTRA.norm>
0.00181896

>  <SCORE.RESTR>
0

>  <SCORE.RESTR.CAVITY>
0

>  <SCORE.RESTR.norm>
0

>  <SCORE.SYSTEM>
0

>  <SCORE.SYSTEM.CONST>
0

>  <SCORE.SYSTEM.DIHEDRAL>
0

>  <SCORE.SYSTEM.SOLV>
0

>  <SCORE.SYSTEM.norm>
0

>  <SCORE.heavy>
25

>  <SCORE.norm>
-0.512464

>  <RMSD>
20.531

$$$$
ligand
 OpenBabel11021811503D
libRbt.so/2013.1/901 2013/11/27
 25 27  0  0  0  0  0  0  0  0999 V2000
   -9.5767   -6.3886   20.7101 N   0  0  0  0  0  0  0  0  0  0  0  0
   -8.2085   -6.7393   20.9350 C   0  0  0  0  0  0  0  0  0  0  0  0
   -7.5265   -7.2105   20.0333 O   0  0  0  0  0  0  0  0  0  0  0  0
   -8.5481   -1.6439   28.1572 N   0  0  0  0  0  0  0  0  0  0  0  0
   -6.4513   -2.7843   27.8961 N   0  0  0  0  0  0  0  0  0  0  0  0
   -7.7224   -2.7899   28.3598 C   0  0  0  0  0  0  0  0  0  0  0  0
   -8.2259   -3.8707   29.0282 N   0  0  0  0  0  0  0  0  0  0  0  0
   -7.4859   -4.9856   29.2559 C   0  0  0  0  0  0  0  0  0  0  0  0
   -6.1555   -5.0247   28.7738 C   0  0  0  0  0  0  0  0  0  0  0  0
   -8.0519   -6.0460   29.9239 O   0  0  0  0  0  0  0  0  0  0  0  0
   -5.1790   -6.9164   30.1759 C   0  0  0  0  0  0  0  0  0  0  0  0
   -5.2386   -6.1368   28.9629 N   0  0  0  0  0  0  0  0  0  0  0  0
   -5.3724   -8.1270   30.2058 O   0  0  0  0  0  0  0  0  0  0  0  0
   -4.3289   -6.3387   27.9172 C   0  0  2  0  0  0  0  0  0  0  0  0
   -3.5007   -5.0474   27.6935 C   0  0  0  0  0  0  0  0  0  0  0  0
   -5.6444   -3.8744   28.0937 C   0  0  0  0  0  0  0  0  0  0  0  0
   -4.2731   -3.8768   27.5771 N   0  0  0  0  0  0  0  0  0  0  0  0
   -5.0496   -6.7327   26.6437 C   0  0  0  0  0  0  0  0  0  0  0  0
   -5.9205   -5.7536   26.0545 N   0  0  0  0  0  0  0  0  0  0  0  0
   -7.6210   -6.5048   22.2835 C   0  0  0  0  0  0  0  0  0  0  0  0
   -7.5945   -7.5149   23.2353 C   0  0  0  0  0  0  0  0  0  0  0  0
   -7.0386   -7.2645   24.4840 C   0  0  0  0  0  0  0  0  0  0  0  0
   -6.5000   -6.0125   24.7739 C   0  0  0  0  0  0  0  0  0  0  0  0
   -6.5191   -5.0118   23.8181 C   0  0  0  0  0  0  0  0  0  0  0  0
   -7.0849   -5.2584   22.5731 C   0  0  0  0  0  0  0  0  0  0  0  0
  1  2  1  0  0  0  0
  2  3  2  0  0  0  0
  2 20  1  0  0  0  0
  4  6  1  0  0  0  0
  5  6  2  0  0  0  0
  5 16  1  0  0  0  0
  6  7  1  0  0  0  0
  7  8  1  0  0  0  0
  8  9  1  0  0  0  0
  8 10  2  0  0  0  0
  9 12  1  0  0  0  0
  9 16  2  0  0  0  0
 11 13  1  0  0  0  0
 11 12  1  0  0  0  0
 12 14  1  0  0  0  0
 14 15  1  0  0  0  0
 14 18  1  6  0  0  0
 15 17  1  0  0  0  0
 16 17  1  0  0  0  0
 18 19  1  0  0  0  0
 19 23  1  0  0  0  0
 20 21  2  0  0  0  0
 20 25  1  0  0  0  0
 21 22  1  0  0  0  0
 22 23  2  0  0  0  0
 23 24  1  0  0  0  0
 24 25  2  0  0  0  0
M  END
>  <CHROM.1>
120.83409481,65.27151266,172.65285650,44.05342696,94.37440124,-6.57579451
-5.53886084,26.38199388,1.95011599,0.91967507,-2.06774814

>  <Name>
ligand

>  <RI>
0

>  <Rbt.Current_Directory>
/home/itssahil/PROJECTS/Mol_Feturizer/New_Systems/rnas/4LVV

>  <Rbt.Executable>
rbdock ($Id: //depot/dev/client3/rdock/2013.1/src/exe/rbdock.cxx#4 $)

>  <Rbt.Library>
libRbt.so (2013.1, Build901 2013/11/27)

>  <Rbt.Parameter_File>
/export/apps/rDock/src/rDock_2013.1_src/data/scripts/dock_solv.prm

>  <Rbt.Receptor>
prm/blind_docking_60.prm

>  <SCORE>
-12.5839

>  <SCORE.INTER>
-12.478

>  <SCORE.INTER.CONST>
1

>  <SCORE.INTER.POLAR>
0

>  <SCORE.INTER.ROT>
5

>  <SCORE.INTER.SOLV>
14.3114

>  <SCORE.INTER.VDW>
-20.0225

>  <SCORE.INTER.norm>
-0.499121

>  <SCORE.INTRA>
-0.105878

>  <SCORE.INTRA.DIHEDRAL>
-0.498747

>  <SCORE.INTRA.DIHEDRAL.0>
3.94806

>  <SCORE.INTRA.POLAR>
0

>  <SCORE.INTRA.POLAR.0>
0

>  <SCORE.INTRA.REPUL>
0

>  <SCORE.INTRA.REPUL.0>
0

>  <SCORE.INTRA.SOLV>
2.26685

>  <SCORE.INTRA.SOLV.lig_0>
-70.9803

>  <SCORE.INTRA.VDW>
-0.98993

>  <SCORE.INTRA.VDW.0>
-0.709409

>  <SCORE.INTRA.norm>
-0.00423511

>  <SCORE.RESTR>
0

>  <SCORE.RESTR.CAVITY>
0

>  <SCORE.RESTR.norm>
0

>  <SCORE.SYSTEM>
0

>  <SCORE.SYSTEM.CONST>
0

>  <SCORE.SYSTEM.DIHEDRAL>
0

>  <SCORE.SYSTEM.SOLV>
0

>  <SCORE.SYSTEM.norm>
0

>  <SCORE.heavy>
25

>  <SCORE.norm>
-0.503356

>  <RMSD>
20.543

$$$$
ligand
 OpenBabel11021811503D
libRbt.so/2013.1/901 2013/11/27
 25 27  0  0  0  0  0  0  0  0999 V2000
  -10.5921   -6.4381   21.4812 N   0  0  0  0  0  0  0  0  0  0  0  0
   -9.2275   -6.5919   21.0815 C   0  0  0  0  0  0  0  0  0  0  0  0
   -8.9376   -6.7955   19.9091 O   0  0  0  0  0  0  0  0  0  0  0  0
   -6.3836   -1.5564   30.9444 N   0  0  0  0  0  0  0  0  0  0  0  0
   -4.9836   -2.9834   29.6144 N   0  0  0  0  0  0  0  0  0  0  0  0
   -6.1020   -2.8273   30.3600 C   0  0  0  0  0  0  0  0  0  0  0  0
   -6.9613   -3.8690   30.5713 N   0  0  0  0  0  0  0  0  0  0  0  0
   -6.7423   -5.1014   30.0462 C   0  0  0  0  0  0  0  0  0  0  0  0
   -5.5905   -5.3018   29.2483 C   0  0  0  0  0  0  0  0  0  0  0  0
   -7.6497   -6.1069   30.2842 O   0  0  0  0  0  0  0  0  0  0  0  0
   -5.3964   -7.8432   29.2929 C   0  0  0  0  0  0  0  0  0  0  0  0
   -5.2130   -6.5681   28.6422 N   0  0  0  0  0  0  0  0  0  0  0  0
   -5.1106   -8.0439   30.4684 O   0  0  0  0  0  0  0  0  0  0  0  0
   -4.5517   -6.4622   27.4121 C   0  0  2  0  0  0  0  0  0  0  0  0
   -3.2774   -5.5955   27.5812 C   0  0  0  0  0  0  0  0  0  0  0  0
   -4.6960   -4.2018   29.0566 C   0  0  0  0  0  0  0  0  0  0  0  0
   -3.4942   -4.3682   28.2346 N   0  0  0  0  0  0  0  0  0  0  0  0
   -5.4630   -5.8641   26.3594 C   0  0  0  0  0  0  0  0  0  0  0  0
   -5.1128   -6.0911   24.9846 N   0  0  0  0  0  0  0  0  0  0  0  0
   -8.1612   -6.4828   22.1158 C   0  0  0  0  0  0  0  0  0  0  0  0
   -7.9333   -7.5140   23.0167 C   0  0  0  0  0  0  0  0  0  0  0  0
   -6.9302   -7.3816   23.9692 C   0  0  0  0  0  0  0  0  0  0  0  0
   -6.1504   -6.2275   24.0113 C   0  0  0  0  0  0  0  0  0  0  0  0
   -6.3743   -5.2066   23.1042 C   0  0  0  0  0  0  0  0  0  0  0  0
   -7.3847   -5.3339   22.1586 C   0  0  0  0  0  0  0  0  0  0  0  0
  1  2  1  0  0  0  0
  2  3  2  0  0  0  0
  2 20  1  0  0  0  0
  4  6  1  0  0  0  0
  5  6  2  0  0  0  0
  5 16  1  0  0  0  0
  6  7  1  0  0  0  0
  7  8  1  0  0  0  0
  8  9  1  0  0  0  0
  8 10  2  0  0  0  0
  9 12  1  0  0  0  0
  9 16  2  0  0  0  0
 11 13  1  0  0  0  0
 11 12  1  0  0  0  0
 12 14  1  0  0  0  0
 14 15  1  0  0  0  0
 14 18  1  6  0  0  0
 15 17  1  0  0  0  0
 16 17  1  0  0  0  0
 18 19  1  0  0  0  0
 19 23  1  0  0  0  0
 20 21  2  0  0  0  0
 20 25  1  0  0  0  0
 21 22  1  0  0  0  0
 22 23  2  0  0  0  0
 23 24  1  0  0  0  0
 24 25  2  0  0  0  0
M  END
>  <CHROM.1>
-44.77466989,-159.92666162,146.72515853,-72.63992577,75.21639887,-6.32437605
-5.65074906,26.64518336,2.10843283,0.89822625,-2.22749549

>  <Name>
ligand

>  <RI>
0

>  <Rbt.Current_Directory>
/home/itssahil/PROJECTS/Mol_Feturizer/New_Systems/rnas/4LVV

>  <Rbt.Executable>
rbdock ($Id: //depot/dev/client3/rdock/2013.1/src/exe/rbdock.cxx#4 $)

>  <Rbt.Library>
libRbt.so (2013.1, Build901 2013/11/27)

>  <Rbt.Parameter_File>
/export/apps/rDock/src/rDock_2013.1_src/data/scripts/dock_solv.prm

>  <Rbt.Receptor>
prm/blind_docking_80.prm

>  <SCORE>
-13.0852

>  <SCORE.INTER>
-12.5448

>  <SCORE.INTER.CONST>
1

>  <SCORE.INTER.POLAR>
0

>  <SCORE.INTER.ROT>
5

>  <SCORE.INTER.SOLV>
15.1256

>  <SCORE.INTER.VDW>
-20.3384

>  <SCORE.INTER.norm>
-0.501792

>  <SCORE.INTRA>
-0.540379

>  <SCORE.INTRA.DIHEDRAL>
1.46855

>  <SCORE.INTRA.DIHEDRAL.0>
3.94806

>  <SCORE.INTRA.POLAR>
0

>  <SCORE.INTRA.POLAR.0>
0

>  <SCORE.INTRA.REPUL>
0

>  <SCORE.INTRA.REPUL.0>
0

>  <SCORE.INTRA.SOLV>
-0.42072

>  <SCORE.INTRA.SOLV.lig_0>
-70.9803

>  <SCORE.INTRA.VDW>
-1.06429

>  <SCORE.INTRA.VDW.0>
-0.709409

>  <SCORE.INTRA.norm>
-0.0216152

>  <SCORE.RESTR>
0

>  <SCORE.RESTR.CAVITY>
0

>  <SCORE.RESTR.norm>
0

>  <SCORE.SYSTEM>
0

>  <SCORE.SYSTEM.CONST>
0

>  <SCORE.SYSTEM.DIHEDRAL>
0

>  <SCORE.SYSTEM.SOLV>
0

>  <SCORE.SYSTEM.norm>
0

>  <SCORE.heavy>
25

>  <SCORE.norm>
-0.523407

>  <RMSD>
20.544

$$$$
ligand
 OpenBabel11021811503D
libRbt.so/2013.1/901 2013/11/27
 25 27  0  0  0  0  0  0  0  0999 V2000
  -10.2730   -5.2069   21.6959 N   0  0  0  0  0  0  0  0  0  0  0  0
   -9.1064   -5.9972   21.4513 C   0  0  0  0  0  0  0  0  0  0  0  0
   -8.8601   -6.4192   20.3282 O   0  0  0  0  0  0  0  0  0  0  0  0
   -7.2118   -1.5485   30.2477 N   0  0  0  0  0  0  0  0  0  0  0  0
   -5.4223   -2.8853   29.3668 N   0  0  0  0  0  0  0  0  0  0  0  0
   -6.6711   -2.8178   29.8832 C   0  0  0  0  0  0  0  0  0  0  0  0
   -7.4199   -3.9458   30.0714 N   0  0  0  0  0  0  0  0  0  0  0  0
   -6.9561   -5.1802   29.7493 C   0  0  0  0  0  0  0  0  0  0  0  0
   -5.6594   -5.2917   29.1929 C   0  0  0  0  0  0  0  0  0  0  0  0
   -7.7611   -6.2767   29.9507 O   0  0  0  0  0  0  0  0  0  0  0  0
   -5.1655   -7.7615   29.5862 C   0  0  0  0  0  0  0  0  0  0  0  0
   -5.0219   -6.5449   28.8232 N   0  0  0  0  0  0  0  0  0  0  0  0
   -4.7590   -7.8841   30.7366 O   0  0  0  0  0  0  0  0  0  0  0  0
   -4.1599   -6.4686   27.7219 C   0  0  2  0  0  0  0  0  0  0  0  0
   -3.0566   -5.4152   27.9988 C   0  0  0  0  0  0  0  0  0  0  0  0
   -4.8873   -4.0994   29.0228 C   0  0  0  0  0  0  0  0  0  0  0  0
   -3.5415   -4.1726   28.4473 N   0  0  0  0  0  0  0  0  0  0  0  0
   -4.9243   -6.1159   26.4619 C   0  0  0  0  0  0  0  0  0  0  0  0
   -5.6429   -7.1776   25.8133 N   0  0  0  0  0  0  0  0  0  0  0  0
   -8.1847   -6.2844   22.5856 C   0  0  0  0  0  0  0  0  0  0  0  0
   -7.2376   -5.3529   22.9885 C   0  0  0  0  0  0  0  0  0  0  0  0
   -6.3930   -5.6510   24.0509 C   0  0  0  0  0  0  0  0  0  0  0  0
   -6.5048   -6.8708   24.7153 C   0  0  0  0  0  0  0  0  0  0  0  0
   -7.4577   -7.7920   24.3169 C   0  0  0  0  0  0  0  0  0  0  0  0
   -8.2951   -7.4988   23.2473 C   0  0  0  0  0  0  0  0  0  0  0  0
  1  2  1  0  0  0  0
  2  3  2  0  0  0  0
  2 20  1  0  0  0  0
  4  6  1  0  0  0  0
  5  6  2  0  0  0  0
  5 16  1  0  0  0  0
  6  7  1  0  0  0  0
  7  8  1  0  0  0  0
  8  9  1  0  0  0  0
  8 10  2  0  0  0  0
  9 12  1  0  0  0  0
  9 16  2  0  0  0  0
 11 13  1  0  0  0  0
 11 12  1  0  0  0  0
 12 14  1  0  0  0  0
 14 15  1  0  0  0  0
 14 18  1  6  0  0  0
 15 17  1  0  0  0  0
 16 17  1  0  0  0  0
 18 19  1  0  0  0  0
 19 23  1  0  0  0  0
 20 21  2  0  0  0  0
 20 25  1  0  0  0  0
 21 22  1  0  0  0  0
 22 23  2  0  0  0  0
 23 24  1  0  0  0  0
 24 25  2  0  0  0  0
M  END
>  <CHROM.1>
-63.95531045,-79.23345933,172.71389689,16.91827803,-81.50668204,-6.40174897
-5.64046869,26.81761673,2.14637975,0.85375911,-2.20466392

>  <Name>
ligand

>  <RI>
0

>  <Rbt.Current_Directory>
/home/itssahil/PROJECTS/Mol_Feturizer/New_Systems/rnas/4LVV

>  <Rbt.Executable>
rbdock ($Id: //depot/dev/client3/rdock/2013.1/src/exe/rbdock.cxx#4 $)

>  <Rbt.Library>
libRbt.so (2013.1, Build901 2013/11/27)

>  <Rbt.Parameter_File>
/export/apps/rDock/src/rDock_2013.1_src/data/scripts/dock_solv.prm

>  <Rbt.Receptor>
prm/blind_docking_60.prm

>  <SCORE>
-12.5173

>  <SCORE.INTER>
-12.1833

>  <SCORE.INTER.CONST>
1

>  <SCORE.INTER.POLAR>
0

>  <SCORE.INTER.ROT>
5

>  <SCORE.INTER.SOLV>
14.617

>  <SCORE.INTER.VDW>
-19.9279

>  <SCORE.INTER.norm>
-0.487331

>  <SCORE.INTRA>
-0.33399

>  <SCORE.INTRA.DIHEDRAL>
0.492025

>  <SCORE.INTRA.DIHEDRAL.0>
3.94806

>  <SCORE.INTRA.POLAR>
0

>  <SCORE.INTRA.POLAR.0>
0

>  <SCORE.INTRA.REPUL>
0

>  <SCORE.INTRA.REPUL.0>
0

>  <SCORE.INTRA.SOLV>
-0.330232

>  <SCORE.INTRA.SOLV.lig_0>
-70.9803

>  <SCORE.INTRA.VDW>
-0.414886

>  <SCORE.INTRA.VDW.0>
-0.709409

>  <SCORE.INTRA.norm>
-0.0133596

>  <SCORE.RESTR>
0

>  <SCORE.RESTR.CAVITY>
0

>  <SCORE.RESTR.norm>
0

>  <SCORE.SYSTEM>
0

>  <SCORE.SYSTEM.CONST>
0

>  <SCORE.SYSTEM.DIHEDRAL>
0

>  <SCORE.SYSTEM.SOLV>
0

>  <SCORE.SYSTEM.norm>
0

>  <SCORE.heavy>
25

>  <SCORE.norm>
-0.500691

>  <RMSD>
20.551

$$$$
ligand
 OpenBabel11021811503D
libRbt.so/2013.1/901 2013/11/27
 25 27  0  0  0  0  0  0  0  0999 V2000
   -8.6541   -6.6765   19.7535 N   0  0  0  0  0  0  0  0  0  0  0  0
   -9.1557   -6.2752   21.0313 C   0  0  0  0  0  0  0  0  0  0  0  0
  -10.2526   -5.7400   21.1335 O   0  0  0  0  0  0  0  0  0  0  0  0
   -5.9726   -0.5658   27.7957 N   0  0  0  0  0  0  0  0  0  0  0  0
   -4.4985   -2.4335   27.4734 N   0  0  0  0  0  0  0  0  0  0  0  0
   -5.7008   -1.9641   27.8794 C   0  0  0  0  0  0  0  0  0  0  0  0
   -6.6559   -2.8053   28.3780 N   0  0  0  0  0  0  0  0  0  0  0  0
   -6.4520   -4.1428   28.4870 C   0  0  0  0  0  0  0  0  0  0  0  0
   -5.2120   -4.6751   28.0594 C   0  0  0  0  0  0  0  0  0  0  0  0
   -7.4557   -4.9397   28.9853 O   0  0  0  0  0  0  0  0  0  0  0  0
   -5.2131   -6.9350   29.2388 C   0  0  0  0  0  0  0  0  0  0  0  0
   -4.8422   -6.0789   28.1378 N   0  0  0  0  0  0  0  0  0  0  0  0
   -5.6047   -8.0876   29.0903 O   0  0  0  0  0  0  0  0  0  0  0  0
   -3.9993   -6.5274   27.1131 C   0  0  2  0  0  0  0  0  0  0  0  0
   -2.7044   -5.6750   27.0962 C   0  0  0  0  0  0  0  0  0  0  0  0
   -4.2209   -3.7730   27.5587 C   0  0  0  0  0  0  0  0  0  0  0  0
   -2.9256   -4.2853   27.1034 N   0  0  0  0  0  0  0  0  0  0  0  0
   -4.6976   -6.4563   25.7701 C   0  0  0  0  0  0  0  0  0  0  0  0
   -5.9283   -7.1846   25.6327 N   0  0  0  0  0  0  0  0  0  0  0  0
   -8.3261   -6.5356   22.2407 C   0  0  0  0  0  0  0  0  0  0  0  0
   -8.3925   -7.7541   22.9022 C   0  0  0  0  0  0  0  0  0  0  0  0
   -7.6050   -7.9661   24.0273 C   0  0  0  0  0  0  0  0  0  0  0  0
   -6.7454   -6.9674   24.4804 C   0  0  0  0  0  0  0  0  0  0  0  0
   -6.6747   -5.7580   23.8113 C   0  0  0  0  0  0  0  0  0  0  0  0
   -7.4703   -5.5416   22.6926 C   0  0  0  0  0  0  0  0  0  0  0  0
  1  2  1  0  0  0  0
  2  3  2  0  0  0  0
  2 20  1  0  0  0  0
  4  6  1  0  0  0  0
  5  6  2  0  0  0  0
  5 16  1  0  0  0  0
  6  7  1  0  0  0  0
  7  8  1  0  0  0  0
  8  9  1  0  0  0  0
  8 10  2  0  0  0  0
  9 12  1  0  0  0  0
  9 16  2  0  0  0  0
 11 13  1  0  0  0  0
 11 12  1  0  0  0  0
 12 14  1  0  0  0  0
 14 15  1  0  0  0  0
 14 18  1  6  0  0  0
 15 17  1  0  0  0  0
 16 17  1  0  0  0  0
 18 19  1  0  0  0  0
 19 23  1  0  0  0  0
 20 21  2  0  0  0  0
 20 25  1  0  0  0  0
 21 22  1  0  0  0  0
 22 23  2  0  0  0  0
 23 24  1  0  0  0  0
 24 25  2  0  0  0  0
M  END
>  <CHROM.1>
137.94254996,-57.61976729,169.05390834,153.86225185,-86.11493677,-6.20303872
-5.43175508,25.90752120,2.60937919,0.99317250,-2.86341736

>  <Name>
ligand

>  <RI>
0

>  <Rbt.Current_Directory>
/home/itssahil/PROJECTS/Mol_Feturizer/New_Systems/rnas/4LVV

>  <Rbt.Executable>
rbdock ($Id: //depot/dev/client3/rdock/2013.1/src/exe/rbdock.cxx#4 $)

>  <Rbt.Library>
libRbt.so (2013.1, Build901 2013/11/27)

>  <Rbt.Parameter_File>
/export/apps/rDock/src/rDock_2013.1_src/data/scripts/dock_solv.prm

>  <Rbt.Receptor>
prm/blind_docking_40.prm

>  <SCORE>
-13.0763

>  <SCORE.INTER>
-12.3378

>  <SCORE.INTER.CONST>
1

>  <SCORE.INTER.POLAR>
0

>  <SCORE.INTER.ROT>
5

>  <SCORE.INTER.SOLV>
19.2686

>  <SCORE.INTER.VDW>
-21.5814

>  <SCORE.INTER.norm>
-0.493511

>  <SCORE.INTRA>
-0.738502

>  <SCORE.INTRA.DIHEDRAL>
-0.71535

>  <SCORE.INTRA.DIHEDRAL.0>
3.94806

>  <SCORE.INTRA.POLAR>
0

>  <SCORE.INTRA.POLAR.0>
0

>  <SCORE.INTRA.REPUL>
0

>  <SCORE.INTRA.REPUL.0>
0

>  <SCORE.INTRA.SOLV>
0.400762

>  <SCORE.INTRA.SOLV.lig_0>
-70.9803

>  <SCORE.INTRA.VDW>
-0.581207

>  <SCORE.INTRA.VDW.0>
-0.709409

>  <SCORE.INTRA.norm>
-0.0295401

>  <SCORE.RESTR>
0

>  <SCORE.RESTR.CAVITY>
0

>  <SCORE.RESTR.norm>
0

>  <SCORE.SYSTEM>
0

>  <SCORE.SYSTEM.CONST>
0

>  <SCORE.SYSTEM.DIHEDRAL>
0

>  <SCORE.SYSTEM.SOLV>
0

>  <SCORE.SYSTEM.norm>
0

>  <SCORE.heavy>
25

>  <SCORE.norm>
-0.523051

>  <RMSD>
20.552

$$$$
ligand
 OpenBabel11021811503D
libRbt.so/2013.1/901 2013/11/27
 25 27  0  0  0  0  0  0  0  0999 V2000
   -7.1773   -7.6034   19.9901 N   0  0  0  0  0  0  0  0  0  0  0  0
   -7.9994   -6.8713   20.9030 C   0  0  0  0  0  0  0  0  0  0  0  0
   -9.1100   -6.4778   20.5685 O   0  0  0  0  0  0  0  0  0  0  0  0
   -8.8596   -1.7578   28.1241 N   0  0  0  0  0  0  0  0  0  0  0  0
   -6.7140   -2.8164   27.9208 N   0  0  0  0  0  0  0  0  0  0  0  0
   -7.9924   -2.8660   28.3614 C   0  0  0  0  0  0  0  0  0  0  0  0
   -8.4645   -3.9552   29.0388 N   0  0  0  0  0  0  0  0  0  0  0  0
   -7.6847   -5.0354   29.2989 C   0  0  0  0  0  0  0  0  0  0  0  0
   -6.3450   -5.0283   28.8419 C   0  0  0  0  0  0  0  0  0  0  0  0
   -8.2201   -6.1067   29.9746 O   0  0  0  0  0  0  0  0  0  0  0  0
   -5.3198   -6.8558   30.2937 C   0  0  0  0  0  0  0  0  0  0  0  0
   -5.3878   -6.0992   29.0666 N   0  0  0  0  0  0  0  0  0  0  0  0
   -5.0129   -6.3593   31.3721 O   0  0  0  0  0  0  0  0  0  0  0  0
   -4.4512   -6.2811   28.0412 C   0  0  2  0  0  0  0  0  0  0  0  0
   -3.6715   -4.9610   27.8107 C   0  0  0  0  0  0  0  0  0  0  0  0
   -5.8679   -3.8696   28.1517 C   0  0  0  0  0  0  0  0  0  0  0  0
   -4.4880   -3.8248   27.6602 N   0  0  0  0  0  0  0  0  0  0  0  0
   -5.1312   -6.7247   26.7618 C   0  0  0  0  0  0  0  0  0  0  0  0
   -6.0041   -5.7794   26.1225 N   0  0  0  0  0  0  0  0  0  0  0  0
   -7.4872   -6.6099   22.2771 C   0  0  0  0  0  0  0  0  0  0  0  0
   -7.4277   -7.6257   23.2213 C   0  0  0  0  0  0  0  0  0  0  0  0
   -6.9438   -7.3495   24.4943 C   0  0  0  0  0  0  0  0  0  0  0  0
   -6.5095   -6.0653   24.8166 C   0  0  0  0  0  0  0  0  0  0  0  0
   -6.5607   -5.0583   23.8686 C   0  0  0  0  0  0  0  0  0  0  0  0
   -7.0549   -5.3315   22.5988 C   0  0  0  0  0  0  0  0  0  0  0  0
  1  2  1  0  0  0  0
  2  3  2  0  0  0  0
  2 20  1  0  0  0  0
  4  6  1  0  0  0  0
  5  6  2  0  0  0  0
  5 16  1  0  0  0  0
  6  7  1  0  0  0  0
  7  8  1  0  0  0  0
  8  9  1  0  0  0  0
  8 10  2  0  0  0  0
  9 12  1  0  0  0  0
  9 16  2  0  0  0  0
 11 13  1  0  0  0  0
 11 12  1  0  0  0  0
 12 14  1  0  0  0  0
 14 15  1  0  0  0  0
 14 18  1  6  0  0  0
 15 17  1  0  0  0  0
 16 17  1  0  0  0  0
 18 19  1  0  0  0  0
 19 23  1  0  0  0  0
 20 21  2  0  0  0  0
 20 25  1  0  0  0  0
 21 22  1  0  0  0  0
 22 23  2  0  0  0  0
 23 24  1  0  0  0  0
 24 25  2  0  0  0  0
M  END
>  <CHROM.1>
-64.81594589,66.75783277,170.56611464,41.65809896,-73.61335633,-6.62686385
-5.49732087,26.47528021,-1.82682717,-0.78221594,1.17081142

>  <Name>
ligand

>  <RI>
0

>  <Rbt.Current_Directory>
/home/itssahil/PROJECTS/Mol_Feturizer/New_Systems/rnas/4LVV

>  <Rbt.Executable>
rbdock ($Id: //depot/dev/client3/rdock/2013.1/src/exe/rbdock.cxx#4 $)

>  <Rbt.Library>
libRbt.so (2013.1, Build901 2013/11/27)

>  <Rbt.Parameter_File>
/export/apps/rDock/src/rDock_2013.1_src/data/scripts/dock_solv.prm

>  <Rbt.Receptor>
prm/blind_docking_60.prm

>  <SCORE>
-12.6053

>  <SCORE.INTER>
-12.4219

>  <SCORE.INTER.CONST>
1

>  <SCORE.INTER.POLAR>
0

>  <SCORE.INTER.ROT>
5

>  <SCORE.INTER.SOLV>
12.2358

>  <SCORE.INTER.VDW>
-19.2932

>  <SCORE.INTER.norm>
-0.496874

>  <SCORE.INTRA>
-0.183457

>  <SCORE.INTRA.DIHEDRAL>
-0.530974

>  <SCORE.INTRA.DIHEDRAL.0>
3.94806

>  <SCORE.INTRA.POLAR>
0

>  <SCORE.INTRA.POLAR.0>
0

>  <SCORE.INTRA.REPUL>
0

>  <SCORE.INTRA.REPUL.0>
0

>  <SCORE.INTRA.SOLV>
2.18864

>  <SCORE.INTRA.SOLV.lig_0>
-70.9803

>  <SCORE.INTRA.VDW>
-1.01229

>  <SCORE.INTRA.VDW.0>
-0.709409

>  <SCORE.INTRA.norm>
-0.00733828

>  <SCORE.RESTR>
0

>  <SCORE.RESTR.CAVITY>
0

>  <SCORE.RESTR.norm>
0

>  <SCORE.SYSTEM>
0

>  <SCORE.SYSTEM.CONST>
0

>  <SCORE.SYSTEM.DIHEDRAL>
0

>  <SCORE.SYSTEM.SOLV>
0

>  <SCORE.SYSTEM.norm>
0

>  <SCORE.heavy>
25

>  <SCORE.norm>
-0.504212

>  <RMSD>
20.552

$$$$
ligand
 OpenBabel11021811503D
libRbt.so/2013.1/901 2013/11/27
 25 27  0  0  0  0  0  0  0  0999 V2000
  -10.4762   -6.0704   21.4168 N   0  0  0  0  0  0  0  0  0  0  0  0
   -9.1712   -6.5795   21.1286 C   0  0  0  0  0  0  0  0  0  0  0  0
   -8.9323   -7.1184   20.0550 O   0  0  0  0  0  0  0  0  0  0  0  0
   -6.3321   -1.5384   31.0330 N   0  0  0  0  0  0  0  0  0  0  0  0
   -4.9635   -3.0112   29.7203 N   0  0  0  0  0  0  0  0  0  0  0  0
   -6.0847   -2.8184   30.4529 C   0  0  0  0  0  0  0  0  0  0  0  0
   -6.9794   -3.8318   30.6552 N   0  0  0  0  0  0  0  0  0  0  0  0
   -6.7940   -5.0711   30.1336 C   0  0  0  0  0  0  0  0  0  0  0  0
   -5.6402   -5.3093   29.3490 C   0  0  0  0  0  0  0  0  0  0  0  0
   -7.7358   -6.0467   30.3620 O   0  0  0  0  0  0  0  0  0  0  0  0
   -5.5283   -7.8555   29.3978 C   0  0  0  0  0  0  0  0  0  0  0  0
   -5.2967   -6.5878   28.7482 N   0  0  0  0  0  0  0  0  0  0  0  0
   -5.1139   -8.1195   30.5214 O   0  0  0  0  0  0  0  0  0  0  0  0
   -4.6184   -6.5045   27.5257 C   0  0  2  0  0  0  0  0  0  0  0  0
   -3.3190   -5.6790   27.7086 C   0  0  0  0  0  0  0  0  0  0  0  0
   -4.7088   -4.2388   29.1666 C   0  0  0  0  0  0  0  0  0  0  0  0
   -3.5037   -4.4446   28.3586 N   0  0  0  0  0  0  0  0  0  0  0  0
   -5.4980   -5.8787   26.4622 C   0  0  0  0  0  0  0  0  0  0  0  0
   -5.1146   -6.0818   25.0926 N   0  0  0  0  0  0  0  0  0  0  0  0
   -8.1003   -6.4270   22.1526 C   0  0  0  0  0  0  0  0  0  0  0  0
   -7.3487   -5.2626   22.2307 C   0  0  0  0  0  0  0  0  0  0  0  0
   -6.3573   -5.1513   23.1980 C   0  0  0  0  0  0  0  0  0  0  0  0
   -6.1282   -6.1958   24.0914 C   0  0  0  0  0  0  0  0  0  0  0  0
   -6.8874   -7.3506   24.0167 C   0  0  0  0  0  0  0  0  0  0  0  0
   -7.8714   -7.4667   23.0423 C   0  0  0  0  0  0  0  0  0  0  0  0
  1  2  1  0  0  0  0
  2  3  2  0  0  0  0
  2 20  1  0  0  0  0
  4  6  1  0  0  0  0
  5  6  2  0  0  0  0
  5 16  1  0  0  0  0
  6  7  1  0  0  0  0
  7  8  1  0  0  0  0
  8  9  1  0  0  0  0
  8 10  2  0  0  0  0
  9 12  1  0  0  0  0
  9 16  2  0  0  0  0
 11 13  1  0  0  0  0
 11 12  1  0  0  0  0
 12 14  1  0  0  0  0
 14 15  1  0  0  0  0
 14 18  1  6  0  0  0
 15 17  1  0  0  0  0
 16 17  1  0  0  0  0
 18 19  1  0  0  0  0
 19 23  1  0  0  0  0
 20 21  2  0  0  0  0
 20 25  1  0  0  0  0
 21 22  1  0  0  0  0
 22 23  2  0  0  0  0
 23 24  1  0  0  0  0
 24 25  2  0  0  0  0
M  END
>  <CHROM.1>
-54.16357221,-161.91747825,146.49293227,106.50312043,-85.19730476,-6.32945352
-5.64954085,26.72883660,2.12093382,0.93570967,-2.24660780

>  <Name>
ligand

>  <RI>
0

>  <Rbt.Current_Directory>
/home/itssahil/PROJECTS/Mol_Feturizer/New_Systems/rnas/4LVV

>  <Rbt.Executable>
rbdock ($Id: //depot/dev/client3/rdock/2013.1/src/exe/rbdock.cxx#4 $)

>  <Rbt.Library>
libRbt.so (2013.1, Build901 2013/11/27)

>  <Rbt.Parameter_File>
/export/apps/rDock/src/rDock_2013.1_src/data/scripts/dock_solv.prm

>  <Rbt.Receptor>
prm/blind_docking_100.prm

>  <SCORE>
-13.0333

>  <SCORE.INTER>
-12.3186

>  <SCORE.INTER.CONST>
1

>  <SCORE.INTER.POLAR>
0

>  <SCORE.INTER.ROT>
5

>  <SCORE.INTER.SOLV>
14.8194

>  <SCORE.INTER.VDW>
-20.0855

>  <SCORE.INTER.norm>
-0.492745

>  <SCORE.INTRA>
-0.714731

>  <SCORE.INTRA.DIHEDRAL>
1.12184

>  <SCORE.INTRA.DIHEDRAL.0>
3.94806

>  <SCORE.INTRA.POLAR>
0

>  <SCORE.INTRA.POLAR.0>
0

>  <SCORE.INTRA.REPUL>
0

>  <SCORE.INTRA.REPUL.0>
0

>  <SCORE.INTRA.SOLV>
-0.435817

>  <SCORE.INTRA.SOLV.lig_0>
-70.9803

>  <SCORE.INTRA.VDW>
-1.05774

>  <SCORE.INTRA.VDW.0>
-0.709409

>  <SCORE.INTRA.norm>
-0.0285892

>  <SCORE.RESTR>
0

>  <SCORE.RESTR.CAVITY>
0

>  <SCORE.RESTR.norm>
0

>  <SCORE.SYSTEM>
0

>  <SCORE.SYSTEM.CONST>
0

>  <SCORE.SYSTEM.DIHEDRAL>
0

>  <SCORE.SYSTEM.SOLV>
0

>  <SCORE.SYSTEM.norm>
0

>  <SCORE.heavy>
25

>  <SCORE.norm>
-0.521334

>  <RMSD>
20.553

$$$$
ligand
 OpenBabel11021811503D
libRbt.so/2013.1/901 2013/11/27
 25 27  0  0  0  0  0  0  0  0999 V2000
   -8.5288   -6.8367   19.7071 N   0  0  0  0  0  0  0  0  0  0  0  0
   -9.0690   -6.4041   20.9586 C   0  0  0  0  0  0  0  0  0  0  0  0
  -10.1742   -5.8793   21.0157 O   0  0  0  0  0  0  0  0  0  0  0  0
   -5.9237   -0.5112   27.7119 N   0  0  0  0  0  0  0  0  0  0  0  0
   -4.4701   -2.4008   27.4260 N   0  0  0  0  0  0  0  0  0  0  0  0
   -5.6678   -1.9108   27.8211 C   0  0  0  0  0  0  0  0  0  0  0  0
   -6.6332   -2.7321   28.3327 N   0  0  0  0  0  0  0  0  0  0  0  0
   -6.4444   -4.0697   28.4660 C   0  0  0  0  0  0  0  0  0  0  0  0
   -5.2097   -4.6233   28.0505 C   0  0  0  0  0  0  0  0  0  0  0  0
   -7.4580   -4.8463   28.9766 O   0  0  0  0  0  0  0  0  0  0  0  0
   -5.2383   -6.8616   29.2702 C   0  0  0  0  0  0  0  0  0  0  0  0
   -4.8558   -6.0296   28.1548 N   0  0  0  0  0  0  0  0  0  0  0  0
   -4.6885   -6.8106   30.3651 O   0  0  0  0  0  0  0  0  0  0  0  0
   -4.0161   -6.5058   27.1399 C   0  0  2  0  0  0  0  0  0  0  0  0
   -2.7118   -5.6683   27.1104 C   0  0  0  0  0  0  0  0  0  0  0  0
   -4.2077   -3.7415   27.5357 C   0  0  0  0  0  0  0  0  0  0  0  0
   -2.9174   -4.2763   27.0922 N   0  0  0  0  0  0  0  0  0  0  0  0
   -4.7112   -6.4509   25.7945 C   0  0  0  0  0  0  0  0  0  0  0  0
   -5.9720   -7.1302   25.6807 N   0  0  0  0  0  0  0  0  0  0  0  0
   -8.2696   -6.6192   22.1969 C   0  0  0  0  0  0  0  0  0  0  0  0
   -8.1504   -7.8831   22.7583 C   0  0  0  0  0  0  0  0  0  0  0  0
   -7.3966   -8.0507   23.9136 C   0  0  0  0  0  0  0  0  0  0  0  0
   -6.7544   -6.9602   24.4968 C   0  0  0  0  0  0  0  0  0  0  0  0
   -6.8674   -5.7039   23.9274 C   0  0  0  0  0  0  0  0  0  0  0  0
   -7.6303   -5.5339   22.7783 C   0  0  0  0  0  0  0  0  0  0  0  0
  1  2  1  0  0  0  0
  2  3  2  0  0  0  0
  2 20  1  0  0  0  0
  4  6  1  0  0  0  0
  5  6  2  0  0  0  0
  5 16  1  0  0  0  0
  6  7  1  0  0  0  0
  7  8  1  0  0  0  0
  8  9  1  0  0  0  0
  8 10  2  0  0  0  0
  9 12  1  0  0  0  0
  9 16  2  0  0  0  0
 11 13  1  0  0  0  0
 11 12  1  0  0  0  0
 12 14  1  0  0  0  0
 14 15  1  0  0  0  0
 14 18  1  6  0  0  0
 15 17  1  0  0  0  0
 16 17  1  0  0  0  0
 18 19  1  0  0  0  0
 19 23  1  0  0  0  0
 20 21  2  0  0  0  0
 20 25  1  0  0  0  0
 21 22  1  0  0  0  0
 22 23  2  0  0  0  0
 23 24  1  0  0  0  0
 24 25  2  0  0  0  0
M  END
>  <CHROM.1>
-76.16302556,-55.57796505,171.56998534,138.10833976,-74.49271435,-6.14020841
-5.36876853,25.94992138,2.52962439,0.98047930,-2.77428043

>  <Name>
ligand

>  <RI>
0

>  <Rbt.Current_Directory>
/home/itssahil/PROJECTS/Mol_Feturizer/New_Systems/rnas/4LVV

>  <Rbt.Executable>
rbdock ($Id: //depot/dev/client3/rdock/2013.1/src/exe/rbdock.cxx#4 $)

>  <Rbt.Library>
libRbt.so (2013.1, Build901 2013/11/27)

>  <Rbt.Parameter_File>
/export/apps/rDock/src/rDock_2013.1_src/data/scripts/dock_solv.prm

>  <Rbt.Receptor>
prm/blind_docking_40.prm

>  <SCORE>
-12.24

>  <SCORE.INTER>
-10.893

>  <SCORE.INTER.CONST>
1

>  <SCORE.INTER.POLAR>
0

>  <SCORE.INTER.ROT>
5

>  <SCORE.INTER.SOLV>
18.2399

>  <SCORE.INTER.VDW>
-20.2753

>  <SCORE.INTER.norm>
-0.435719

>  <SCORE.INTRA>
-1.347

>  <SCORE.INTRA.DIHEDRAL>
-0.714905

>  <SCORE.INTRA.DIHEDRAL.0>
3.94806

>  <SCORE.INTRA.POLAR>
0

>  <SCORE.INTRA.POLAR.0>
0

>  <SCORE.INTRA.REPUL>
0

>  <SCORE.INTRA.REPUL.0>
0

>  <SCORE.INTRA.SOLV>
-0.0204512

>  <SCORE.INTRA.SOLV.lig_0>
-70.9803

>  <SCORE.INTRA.VDW>
-0.979318

>  <SCORE.INTRA.VDW.0>
-0.709409

>  <SCORE.INTRA.norm>
-0.0538798

>  <SCORE.RESTR>
0

>  <SCORE.RESTR.CAVITY>
0

>  <SCORE.RESTR.norm>
0

>  <SCORE.SYSTEM>
0

>  <SCORE.SYSTEM.CONST>
0

>  <SCORE.SYSTEM.DIHEDRAL>
0

>  <SCORE.SYSTEM.SOLV>
0

>  <SCORE.SYSTEM.norm>
0

>  <SCORE.heavy>
25

>  <SCORE.norm>
-0.489599

>  <RMSD>
20.557

$$$$
ligand
 OpenBabel11021811503D
libRbt.so/2013.1/901 2013/11/27
 25 27  0  0  0  0  0  0  0  0999 V2000
   -7.9760   -6.8853   20.0319 N   0  0  0  0  0  0  0  0  0  0  0  0
   -8.6371   -6.8068   21.2976 C   0  0  0  0  0  0  0  0  0  0  0  0
   -9.8483   -6.9682   21.3826 O   0  0  0  0  0  0  0  0  0  0  0  0
   -6.5201   -0.8693   27.2627 N   0  0  0  0  0  0  0  0  0  0  0  0
   -4.9730   -2.6977   27.4327 N   0  0  0  0  0  0  0  0  0  0  0  0
   -6.2095   -2.2016   27.6686 C   0  0  0  0  0  0  0  0  0  0  0  0
   -7.1633   -2.9514   28.2983 N   0  0  0  0  0  0  0  0  0  0  0  0
   -6.9237   -4.2217   28.7122 C   0  0  0  0  0  0  0  0  0  0  0  0
   -5.6465   -4.7822   28.4710 C   0  0  0  0  0  0  0  0  0  0  0  0
   -7.9274   -4.9305   29.3296 O   0  0  0  0  0  0  0  0  0  0  0  0
   -5.6403   -6.7231   30.1237 C   0  0  0  0  0  0  0  0  0  0  0  0
   -5.2377   -6.1168   28.8775 N   0  0  0  0  0  0  0  0  0  0  0  0
   -5.9506   -6.0736   31.1165 O   0  0  0  0  0  0  0  0  0  0  0  0
   -4.3272   -6.7448   28.0181 C   0  0  2  0  0  0  0  0  0  0  0  0
   -3.0606   -5.8630   27.8704 C   0  0  0  0  0  0  0  0  0  0  0  0
   -4.6586   -3.9720   27.8272 C   0  0  0  0  0  0  0  0  0  0  0  0
   -3.3253   -4.5169   27.5572 N   0  0  0  0  0  0  0  0  0  0  0  0
   -4.9541   -7.0023   26.6628 C   0  0  0  0  0  0  0  0  0  0  0  0
   -5.5612   -5.8822   25.9987 N   0  0  0  0  0  0  0  0  0  0  0  0
   -7.8226   -6.5418   22.5163 C   0  0  0  0  0  0  0  0  0  0  0  0
   -7.2261   -5.3051   22.7204 C   0  0  0  0  0  0  0  0  0  0  0  0
   -6.4730   -5.0894   23.8681 C   0  0  0  0  0  0  0  0  0  0  0  0
   -6.3286   -6.1030   24.8134 C   0  0  0  0  0  0  0  0  0  0  0  0
   -6.9341   -7.3309   24.6107 C   0  0  0  0  0  0  0  0  0  0  0  0
   -7.6781   -7.5506   23.4577 C   0  0  0  0  0  0  0  0  0  0  0  0
  1  2  1  0  0  0  0
  2  3  2  0  0  0  0
  2 20  1  0  0  0  0
  4  6  1  0  0  0  0
  5  6  2  0  0  0  0
  5 16  1  0  0  0  0
  6  7  1  0  0  0  0
  7  8  1  0  0  0  0
  8  9  1  0  0  0  0
  8 10  2  0  0  0  0
  9 12  1  0  0  0  0
  9 16  2  0  0  0  0
 11 13  1  0  0  0  0
 11 12  1  0  0  0  0
 12 14  1  0  0  0  0
 14 15  1  0  0  0  0
 14 18  1  6  0  0  0
 15 17  1  0  0  0  0
 16 17  1  0  0  0  0
 18 19  1  0  0  0  0
 19 23  1  0  0  0  0
 20 21  2  0  0  0  0
 20 25  1  0  0  0  0
 21 22  1  0  0  0  0
 22 23  2  0  0  0  0
 23 24  1  0  0  0  0
 24 25  2  0  0  0  0
M  END
>  <CHROM.1>
-25.57028340,52.80647716,-171.22473927,-154.12595688,69.22456503,-6.28213621
-5.36722315,26.32647301,2.44634595,1.10584001,-2.66446502

>  <Name>
ligand

>  <RI>
0

>  <Rbt.Current_Directory>
/home/itssahil/PROJECTS/Mol_Feturizer/New_Systems/rnas/4LVV

>  <Rbt.Executable>
rbdock ($Id: //depot/dev/client3/rdock/2013.1/src/exe/rbdock.cxx#4 $)

>  <Rbt.Library>
libRbt.so (2013.1, Build901 2013/11/27)

>  <Rbt.Parameter_File>
/export/apps/rDock/src/rDock_2013.1_src/data/scripts/dock_solv.prm

>  <Rbt.Receptor>
prm/blind_docking_80.prm

>  <SCORE>
-10.6987

>  <SCORE.INTER>
-11.1768

>  <SCORE.INTER.CONST>
1

>  <SCORE.INTER.POLAR>
0

>  <SCORE.INTER.ROT>
5

>  <SCORE.INTER.SOLV>
13.6855

>  <SCORE.INTER.VDW>
-18.9464

>  <SCORE.INTER.norm>
-0.447074

>  <SCORE.INTRA>
0.478178

>  <SCORE.INTRA.DIHEDRAL>
-0.273099

>  <SCORE.INTRA.DIHEDRAL.0>
3.94806

>  <SCORE.INTRA.POLAR>
0

>  <SCORE.INTRA.POLAR.0>
0

>  <SCORE.INTRA.REPUL>
0

>  <SCORE.INTRA.REPUL.0>
0

>  <SCORE.INTRA.SOLV>
2.461

>  <SCORE.INTRA.SOLV.lig_0>
-70.9803

>  <SCORE.INTRA.VDW>
-0.615774

>  <SCORE.INTRA.VDW.0>
-0.709409

>  <SCORE.INTRA.norm>
0.0191271

>  <SCORE.RESTR>
0

>  <SCORE.RESTR.CAVITY>
0

>  <SCORE.RESTR.norm>
0

>  <SCORE.SYSTEM>
0

>  <SCORE.SYSTEM.CONST>
0

>  <SCORE.SYSTEM.DIHEDRAL>
0

>  <SCORE.SYSTEM.SOLV>
0

>  <SCORE.SYSTEM.norm>
0

>  <SCORE.heavy>
25

>  <SCORE.norm>
-0.427947

>  <RMSD>
20.559

$$$$
ligand
 OpenBabel11021811503D
libRbt.so/2013.1/901 2013/11/27
 25 27  0  0  0  0  0  0  0  0999 V2000
  -10.4973   -6.1485   21.3249 N   0  0  0  0  0  0  0  0  0  0  0  0
   -9.1670   -6.5872   21.0366 C   0  0  0  0  0  0  0  0  0  0  0  0
   -8.8829   -7.0439   19.9362 O   0  0  0  0  0  0  0  0  0  0  0  0
   -6.3712   -1.5468   30.9991 N   0  0  0  0  0  0  0  0  0  0  0  0
   -4.9982   -2.9924   29.6611 N   0  0  0  0  0  0  0  0  0  0  0  0
   -6.1103   -2.8212   30.4127 C   0  0  0  0  0  0  0  0  0  0  0  0
   -6.9827   -3.8511   30.6283 N   0  0  0  0  0  0  0  0  0  0  0  0
   -6.7836   -5.0861   30.1016 C   0  0  0  0  0  0  0  0  0  0  0  0
   -5.6389   -5.3020   29.2973 C   0  0  0  0  0  0  0  0  0  0  0  0
   -7.7034   -6.0791   30.3441 O   0  0  0  0  0  0  0  0  0  0  0  0
   -5.4797   -7.8459   29.3400 C   0  0  0  0  0  0  0  0  0  0  0  0
   -5.2823   -6.5732   28.6887 N   0  0  0  0  0  0  0  0  0  0  0  0
   -5.1333   -8.0696   30.4949 O   0  0  0  0  0  0  0  0  0  0  0  0
   -4.6262   -6.4758   27.4551 C   0  0  2  0  0  0  0  0  0  0  0  0
   -3.3392   -5.6269   27.6177 C   0  0  0  0  0  0  0  0  0  0  0  0
   -4.7304   -4.2144   29.1012 C   0  0  0  0  0  0  0  0  0  0  0  0
   -3.5355   -4.3970   28.2727 N   0  0  0  0  0  0  0  0  0  0  0  0
   -5.5348   -5.8647   26.4076 C   0  0  0  0  0  0  0  0  0  0  0  0
   -5.1504   -6.0262   25.0327 N   0  0  0  0  0  0  0  0  0  0  0  0
   -8.1262   -6.4626   22.0949 C   0  0  0  0  0  0  0  0  0  0  0  0
   -7.8968   -7.4945   22.9945 C   0  0  0  0  0  0  0  0  0  0  0  0
   -6.9179   -7.3475   23.9698 C   0  0  0  0  0  0  0  0  0  0  0  0
   -6.1633   -6.1779   24.0359 C   0  0  0  0  0  0  0  0  0  0  0  0
   -6.3883   -5.1560   23.1300 C   0  0  0  0  0  0  0  0  0  0  0  0
   -7.3748   -5.2982   22.1615 C   0  0  0  0  0  0  0  0  0  0  0  0
  1  2  1  0  0  0  0
  2  3  2  0  0  0  0
  2 20  1  0  0  0  0
  4  6  1  0  0  0  0
  5  6  2  0  0  0  0
  5 16  1  0  0  0  0
  6  7  1  0  0  0  0
  7  8  1  0  0  0  0
  8  9  1  0  0  0  0
  8 10  2  0  0  0  0
  9 12  1  0  0  0  0
  9 16  2  0  0  0  0
 11 13  1  0  0  0  0
 11 12  1  0  0  0  0
 12 14  1  0  0  0  0
 14 15  1  0  0  0  0
 14 18  1  6  0  0  0
 15 17  1  0  0  0  0
 16 17  1  0  0  0  0
 18 19  1  0  0  0  0
 19 23  1  0  0  0  0
 20 21  2  0  0  0  0
 20 25  1  0  0  0  0
 21 22  1  0  0  0  0
 22 23  2  0  0  0  0
 23 24  1  0  0  0  0
 24 25  2  0  0  0  0
M  END
>  <CHROM.1>
-48.28869713,-163.64270177,145.70129973,-70.34686111,90.30000071,-6.34088810
-5.64227892,26.66957562,2.12716840,0.94875860,-2.25588821

>  <Name>
ligand

>  <RI>
0

>  <Rbt.Current_Directory>
/home/itssahil/PROJECTS/Mol_Feturizer/New_Systems/rnas/4LVV

>  <Rbt.Executable>
rbdock ($Id: //depot/dev/client3/rdock/2013.1/src/exe/rbdock.cxx#4 $)

>  <Rbt.Library>
libRbt.so (2013.1, Build901 2013/11/27)

>  <Rbt.Parameter_File>
/export/apps/rDock/src/rDock_2013.1_src/data/scripts/dock_solv.prm

>  <Rbt.Receptor>
prm/blind_docking_80.prm

>  <SCORE>
-13.1486

>  <SCORE.INTER>
-12.4292

>  <SCORE.INTER.CONST>
1

>  <SCORE.INTER.POLAR>
0

>  <SCORE.INTER.ROT>
5

>  <SCORE.INTER.SOLV>
15.1023

>  <SCORE.INTER.VDW>
-20.2536

>  <SCORE.INTER.norm>
-0.49717

>  <SCORE.INTRA>
-0.719397

>  <SCORE.INTRA.DIHEDRAL>
1.06462

>  <SCORE.INTRA.DIHEDRAL.0>
3.94806

>  <SCORE.INTRA.POLAR>
0

>  <SCORE.INTRA.POLAR.0>
0

>  <SCORE.INTRA.REPUL>
0

>  <SCORE.INTRA.REPUL.0>
0

>  <SCORE.INTRA.SOLV>
-0.39235

>  <SCORE.INTRA.SOLV.lig_0>
-70.9803

>  <SCORE.INTRA.VDW>
-1.05553

>  <SCORE.INTRA.VDW.0>
-0.709409

>  <SCORE.INTRA.norm>
-0.0287759

>  <SCORE.RESTR>
0

>  <SCORE.RESTR.CAVITY>
0

>  <SCORE.RESTR.norm>
0

>  <SCORE.SYSTEM>
0

>  <SCORE.SYSTEM.CONST>
0

>  <SCORE.SYSTEM.DIHEDRAL>
0

>  <SCORE.SYSTEM.SOLV>
0

>  <SCORE.SYSTEM.norm>
0

>  <SCORE.heavy>
25

>  <SCORE.norm>
-0.525946

>  <RMSD>
20.560

$$$$
ligand
 OpenBabel11021811503D
libRbt.so/2013.1/901 2013/11/27
 25 27  0  0  0  0  0  0  0  0999 V2000
  -10.4353   -6.1693   21.3412 N   0  0  0  0  0  0  0  0  0  0  0  0
   -9.1172   -6.6582   21.0788 C   0  0  0  0  0  0  0  0  0  0  0  0
   -8.8520   -7.2040   20.0149 O   0  0  0  0  0  0  0  0  0  0  0  0
   -6.4296   -1.4627   30.9566 N   0  0  0  0  0  0  0  0  0  0  0  0
   -5.0417   -2.9333   29.6618 N   0  0  0  0  0  0  0  0  0  0  0  0
   -6.1603   -2.7490   30.4005 C   0  0  0  0  0  0  0  0  0  0  0  0
   -7.0315   -3.7765   30.6319 N   0  0  0  0  0  0  0  0  0  0  0  0
   -6.8245   -5.0223   30.1341 C   0  0  0  0  0  0  0  0  0  0  0  0
   -5.6728   -5.2523   29.3440 C   0  0  0  0  0  0  0  0  0  0  0  0
   -7.7434   -6.0125   30.3911 O   0  0  0  0  0  0  0  0  0  0  0  0
   -5.5065   -7.7941   29.4440 C   0  0  0  0  0  0  0  0  0  0  0  0
   -5.3076   -6.5355   28.7665 N   0  0  0  0  0  0  0  0  0  0  0  0
   -5.0033   -8.0582   30.5307 O   0  0  0  0  0  0  0  0  0  0  0  0
   -4.6419   -6.4633   27.5363 C   0  0  2  0  0  0  0  0  0  0  0  0
   -3.3587   -5.6070   27.6903 C   0  0  0  0  0  0  0  0  0  0  0  0
   -4.7659   -4.1665   29.1312 C   0  0  0  0  0  0  0  0  0  0  0  0
   -3.5638   -4.3636   28.3165 N   0  0  0  0  0  0  0  0  0  0  0  0
   -5.5438   -5.8782   26.4683 C   0  0  0  0  0  0  0  0  0  0  0  0
   -5.1346   -6.0466   25.1014 N   0  0  0  0  0  0  0  0  0  0  0  0
   -8.0654   -6.4763   22.1178 C   0  0  0  0  0  0  0  0  0  0  0  0
   -7.3174   -5.3086   22.1785 C   0  0  0  0  0  0  0  0  0  0  0  0
   -6.3441   -5.1694   23.1605 C   0  0  0  0  0  0  0  0  0  0  0  0
   -6.1296   -6.1894   24.0854 C   0  0  0  0  0  0  0  0  0  0  0  0
   -6.8852   -7.3474   24.0275 C   0  0  0  0  0  0  0  0  0  0  0  0
   -7.8511   -7.4915   23.0387 C   0  0  0  0  0  0  0  0  0  0  0  0
  1  2  1  0  0  0  0
  2  3  2  0  0  0  0
  2 20  1  0  0  0  0
  4  6  1  0  0  0  0
  5  6  2  0  0  0  0
  5 16  1  0  0  0  0
  6  7  1  0  0  0  0
  7  8  1  0  0  0  0
  8  9  1  0  0  0  0
  8 10  2  0  0  0  0
  9 12  1  0  0  0  0
  9 16  2  0  0  0  0
 11 13  1  0  0  0  0
 11 12  1  0  0  0  0
 12 14  1  0  0  0  0
 14 15  1  0  0  0  0
 14 18  1  6  0  0  0
 15 17  1  0  0  0  0
 16 17  1  0  0  0  0
 18 19  1  0  0  0  0
 19 23  1  0  0  0  0
 20 21  2  0  0  0  0
 20 25  1  0  0  0  0
 21 22  1  0  0  0  0
 22 23  2  0  0  0  0
 23 24  1  0  0  0  0
 24 25  2  0  0  0  0
M  END
>  <CHROM.1>
-59.12894236,-164.80397375,147.37192690,109.74686485,-86.48621846,-6.33742912
-5.62866621,26.71056113,2.11039050,0.94667273,-2.25232918

>  <Name>
ligand

>  <RI>
0

>  <Rbt.Current_Directory>
/home/itssahil/PROJECTS/Mol_Feturizer/New_Systems/rnas/4LVV

>  <Rbt.Executable>
rbdock ($Id: //depot/dev/client3/rdock/2013.1/src/exe/rbdock.cxx#4 $)

>  <Rbt.Library>
libRbt.so (2013.1, Build901 2013/11/27)

>  <Rbt.Parameter_File>
/export/apps/rDock/src/rDock_2013.1_src/data/scripts/dock_solv.prm

>  <Rbt.Receptor>
prm/blind_docking_40.prm

>  <SCORE>
-13.0561

>  <SCORE.INTER>
-12.1972

>  <SCORE.INTER.CONST>
1

>  <SCORE.INTER.POLAR>
0

>  <SCORE.INTER.ROT>
5

>  <SCORE.INTER.SOLV>
14.5667

>  <SCORE.INTER.VDW>
-19.9204

>  <SCORE.INTER.norm>
-0.487889

>  <SCORE.INTRA>
-0.85887

>  <SCORE.INTRA.DIHEDRAL>
0.746598

>  <SCORE.INTRA.DIHEDRAL.0>
3.94806

>  <SCORE.INTRA.POLAR>
0

>  <SCORE.INTRA.POLAR.0>
0

>  <SCORE.INTRA.REPUL>
0

>  <SCORE.INTRA.REPUL.0>
0

>  <SCORE.INTRA.SOLV>
-0.421132

>  <SCORE.INTRA.SOLV.lig_0>
-70.9803

>  <SCORE.INTRA.VDW>
-1.0216

>  <SCORE.INTRA.VDW.0>
-0.709409

>  <SCORE.INTRA.norm>
-0.0343548

>  <SCORE.RESTR>
0

>  <SCORE.RESTR.CAVITY>
0

>  <SCORE.RESTR.norm>
0

>  <SCORE.SYSTEM>
0

>  <SCORE.SYSTEM.CONST>
0

>  <SCORE.SYSTEM.DIHEDRAL>
0

>  <SCORE.SYSTEM.SOLV>
0

>  <SCORE.SYSTEM.norm>
0

>  <SCORE.heavy>
25

>  <SCORE.norm>
-0.522244

>  <RMSD>
20.563

$$$$
ligand
 OpenBabel11021811503D
libRbt.so/2013.1/901 2013/11/27
 25 27  0  0  0  0  0  0  0  0999 V2000
   -8.9823   -6.0189   20.5958 N   0  0  0  0  0  0  0  0  0  0  0  0
   -8.7806   -7.0236   21.5934 C   0  0  0  0  0  0  0  0  0  0  0  0
   -9.2390   -8.1502   21.4492 O   0  0  0  0  0  0  0  0  0  0  0  0
   -8.3409   -1.6562   28.3251 N   0  0  0  0  0  0  0  0  0  0  0  0
   -6.2776   -2.8702   28.1401 N   0  0  0  0  0  0  0  0  0  0  0  0
   -7.5696   -2.8372   28.5406 C   0  0  0  0  0  0  0  0  0  0  0  0
   -8.1457   -3.9124   29.1574 N   0  0  0  0  0  0  0  0  0  0  0  0
   -7.4600   -5.0597   29.3944 C   0  0  0  0  0  0  0  0  0  0  0  0
   -6.1097   -5.1391   28.9775 C   0  0  0  0  0  0  0  0  0  0  0  0
   -8.0978   -6.1120   30.0083 O   0  0  0  0  0  0  0  0  0  0  0  0
   -5.2755   -7.0974   30.3801 C   0  0  0  0  0  0  0  0  0  0  0  0
   -5.2453   -6.2895   29.1846 N   0  0  0  0  0  0  0  0  0  0  0  0
   -4.9968   -6.6614   31.4919 O   0  0  0  0  0  0  0  0  0  0  0  0
   -4.2927   -6.5030   28.1803 C   0  0  2  0  0  0  0  0  0  0  0  0
   -3.4069   -5.2398   28.0286 C   0  0  0  0  0  0  0  0  0  0  0  0
   -5.5228   -3.9946   28.3510 C   0  0  0  0  0  0  0  0  0  0  0  0
   -4.1283   -4.0382   27.9023 N   0  0  0  0  0  0  0  0  0  0  0  0
   -4.9631   -6.8409   26.8640 C   0  0  0  0  0  0  0  0  0  0  0  0
   -5.6745   -5.7833   26.2010 N   0  0  0  0  0  0  0  0  0  0  0  0
   -7.9865   -6.6801   22.8059 C   0  0  0  0  0  0  0  0  0  0  0  0
   -8.5296   -5.8982   23.8162 C   0  0  0  0  0  0  0  0  0  0  0  0
   -7.7630   -5.5962   24.9351 C   0  0  0  0  0  0  0  0  0  0  0  0
   -6.4632   -6.0855   25.0481 C   0  0  0  0  0  0  0  0  0  0  0  0
   -5.9297   -6.8736   24.0432 C   0  0  0  0  0  0  0  0  0  0  0  0
   -6.6922   -7.1666   22.9189 C   0  0  0  0  0  0  0  0  0  0  0  0
  1  2  1  0  0  0  0
  2  3  2  0  0  0  0
  2 20  1  0  0  0  0
  4  6  1  0  0  0  0
  5  6  2  0  0  0  0
  5 16  1  0  0  0  0
  6  7  1  0  0  0  0
  7  8  1  0  0  0  0
  8  9  1  0  0  0  0
  8 10  2  0  0  0  0
  9 12  1  0  0  0  0
  9 16  2  0  0  0  0
 11 13  1  0  0  0  0
 11 12  1  0  0  0  0
 12 14  1  0  0  0  0
 14 15  1  0  0  0  0
 14 18  1  6  0  0  0
 15 17  1  0  0  0  0
 16 17  1  0  0  0  0
 18 19  1  0  0  0  0
 19 23  1  0  0  0  0
 20 21  2  0  0  0  0
 20 25  1  0  0  0  0
 21 22  1  0  0  0  0
 22 23  2  0  0  0  0
 23 24  1  0  0  0  0
 24 25  2  0  0  0  0
M  END
>  <CHROM.1>
-63.03906272,70.30146284,-172.17266939,132.69714491,75.33949201,-6.62115149
-5.59775424,26.74342632,2.00632399,0.74601698,-2.10524224

>  <Name>
ligand

>  <RI>
0

>  <Rbt.Current_Directory>
/home/itssahil/PROJECTS/Mol_Feturizer/New_Systems/rnas/4LVV

>  <Rbt.Executable>
rbdock ($Id: //depot/dev/client3/rdock/2013.1/src/exe/rbdock.cxx#4 $)

>  <Rbt.Library>
libRbt.so (2013.1, Build901 2013/11/27)

>  <Rbt.Parameter_File>
/export/apps/rDock/src/rDock_2013.1_src/data/scripts/dock_solv.prm

>  <Rbt.Receptor>
prm/blind_docking_80.prm

>  <SCORE>
-9.9052

>  <SCORE.INTER>
-9.70616

>  <SCORE.INTER.CONST>
1

>  <SCORE.INTER.POLAR>
0

>  <SCORE.INTER.ROT>
5

>  <SCORE.INTER.SOLV>
12.9061

>  <SCORE.INTER.VDW>
-17.7061

>  <SCORE.INTER.norm>
-0.388246

>  <SCORE.INTRA>
-0.199046

>  <SCORE.INTRA.DIHEDRAL>
-0.288797

>  <SCORE.INTRA.DIHEDRAL.0>
3.94806

>  <SCORE.INTRA.POLAR>
0

>  <SCORE.INTRA.POLAR.0>
0

>  <SCORE.INTRA.REPUL>
0

>  <SCORE.INTRA.REPUL.0>
0

>  <SCORE.INTRA.SOLV>
2.15748

>  <SCORE.INTRA.SOLV.lig_0>
-70.9803

>  <SCORE.INTRA.VDW>
-1.13338

>  <SCORE.INTRA.VDW.0>
-0.709409

>  <SCORE.INTRA.norm>
-0.00796184

>  <SCORE.RESTR>
0

>  <SCORE.RESTR.CAVITY>
0

>  <SCORE.RESTR.norm>
0

>  <SCORE.SYSTEM>
0

>  <SCORE.SYSTEM.CONST>
0

>  <SCORE.SYSTEM.DIHEDRAL>
0

>  <SCORE.SYSTEM.SOLV>
0

>  <SCORE.SYSTEM.norm>
0

>  <SCORE.heavy>
25

>  <SCORE.norm>
-0.396208

>  <RMSD>
20.566

$$$$
ligand
 OpenBabel11021811503D
libRbt.so/2013.1/901 2013/11/27
 25 27  0  0  0  0  0  0  0  0999 V2000
  -10.4622   -6.1482   21.3563 N   0  0  0  0  0  0  0  0  0  0  0  0
   -9.1336   -6.5900   21.0645 C   0  0  0  0  0  0  0  0  0  0  0  0
   -8.8521   -7.0422   19.9616 O   0  0  0  0  0  0  0  0  0  0  0  0
   -6.4992   -1.4432   30.8732 N   0  0  0  0  0  0  0  0  0  0  0  0
   -5.0688   -2.8661   29.5715 N   0  0  0  0  0  0  0  0  0  0  0  0
   -6.1800   -2.7236   30.3303 C   0  0  0  0  0  0  0  0  0  0  0  0
   -6.9966   -3.7875   30.5942 N   0  0  0  0  0  0  0  0  0  0  0  0
   -6.7405   -5.0296   30.1102 C   0  0  0  0  0  0  0  0  0  0  0  0
   -5.5950   -5.2170   29.3000 C   0  0  0  0  0  0  0  0  0  0  0  0
   -7.6059   -6.0581   30.4002 O   0  0  0  0  0  0  0  0  0  0  0  0
   -5.3060   -7.7462   29.4331 C   0  0  0  0  0  0  0  0  0  0  0  0
   -5.1806   -6.4902   28.7336 N   0  0  0  0  0  0  0  0  0  0  0  0
   -6.2393   -8.5220   29.2573 O   0  0  0  0  0  0  0  0  0  0  0  0
   -4.5436   -6.4054   27.4891 C   0  0  2  0  0  0  0  0  0  0  0  0
   -3.2998   -5.4872   27.6045 C   0  0  0  0  0  0  0  0  0  0  0  0
   -4.7452   -4.0929   29.0531 C   0  0  0  0  0  0  0  0  0  0  0  0
   -3.5514   -4.2454   28.2168 N   0  0  0  0  0  0  0  0  0  0  0  0
   -5.4933   -5.8801   26.4316 C   0  0  0  0  0  0  0  0  0  0  0  0
   -5.1107   -6.0629   25.0588 N   0  0  0  0  0  0  0  0  0  0  0  0
   -8.0914   -6.4741   22.1224 C   0  0  0  0  0  0  0  0  0  0  0  0
   -7.8718   -7.5070   23.0233 C   0  0  0  0  0  0  0  0  0  0  0  0
   -6.8913   -7.3682   23.9981 C   0  0  0  0  0  0  0  0  0  0  0  0
   -6.1253   -6.2060   24.0624 C   0  0  0  0  0  0  0  0  0  0  0  0
   -6.3405   -5.1832   23.1552 C   0  0  0  0  0  0  0  0  0  0  0  0
   -7.3286   -5.3171   22.1872 C   0  0  0  0  0  0  0  0  0  0  0  0
  1  2  1  0  0  0  0
  2  3  2  0  0  0  0
  2 20  1  0  0  0  0
  4  6  1  0  0  0  0
  5  6  2  0  0  0  0
  5 16  1  0  0  0  0
  6  7  1  0  0  0  0
  7  8  1  0  0  0  0
  8  9  1  0  0  0  0
  8 10  2  0  0  0  0
  9 12  1  0  0  0  0
  9 16  2  0  0  0  0
 11 13  1  0  0  0  0
 11 12  1  0  0  0  0
 12 14  1  0  0  0  0
 14 15  1  0  0  0  0
 14 18  1  6  0  0  0
 15 17  1  0  0  0  0
 16 17  1  0  0  0  0
 18 19  1  0  0  0  0
 19 23  1  0  0  0  0
 20 21  2  0  0  0  0
 20 25  1  0  0  0  0
 21 22  1  0  0  0  0
 22 23  2  0  0  0  0
 23 24  1  0  0  0  0
 24 25  2  0  0  0  0
M  END
>  <CHROM.1>
97.61523628,-164.13842791,150.21440311,-71.07228650,89.78592716,-6.36689381
-5.62145800,26.61376483,2.22760824,1.05773185,-2.40979540

>  <Name>
ligand

>  <RI>
0

>  <Rbt.Current_Directory>
/home/itssahil/PROJECTS/Mol_Feturizer/New_Systems/rnas/4LVV

>  <Rbt.Executable>
rbdock ($Id: //depot/dev/client3/rdock/2013.1/src/exe/rbdock.cxx#4 $)

>  <Rbt.Library>
libRbt.so (2013.1, Build901 2013/11/27)

>  <Rbt.Parameter_File>
/export/apps/rDock/src/rDock_2013.1_src/data/scripts/dock_solv.prm

>  <Rbt.Receptor>
prm/blind_docking_40.prm

>  <SCORE>
-13.4531

>  <SCORE.INTER>
-12.7366

>  <SCORE.INTER.CONST>
1

>  <SCORE.INTER.POLAR>
0

>  <SCORE.INTER.ROT>
5

>  <SCORE.INTER.SOLV>
15.3973

>  <SCORE.INTER.VDW>
-20.5569

>  <SCORE.INTER.norm>
-0.509466

>  <SCORE.INTRA>
-0.71643

>  <SCORE.INTRA.DIHEDRAL>
0.95686

>  <SCORE.INTRA.DIHEDRAL.0>
3.94806

>  <SCORE.INTRA.POLAR>
0

>  <SCORE.INTRA.POLAR.0>
0

>  <SCORE.INTRA.REPUL>
0

>  <SCORE.INTRA.REPUL.0>
0

>  <SCORE.INTRA.SOLV>
-0.304227

>  <SCORE.INTRA.SOLV.lig_0>
-70.9803

>  <SCORE.INTRA.VDW>
-1.04275

>  <SCORE.INTRA.VDW.0>
-0.709409

>  <SCORE.INTRA.norm>
-0.0286572

>  <SCORE.RESTR>
0

>  <SCORE.RESTR.CAVITY>
0

>  <SCORE.RESTR.norm>
0

>  <SCORE.SYSTEM>
0

>  <SCORE.SYSTEM.CONST>
0

>  <SCORE.SYSTEM.DIHEDRAL>
0

>  <SCORE.SYSTEM.SOLV>
0

>  <SCORE.SYSTEM.norm>
0

>  <SCORE.heavy>
25

>  <SCORE.norm>
-0.538123

>  <RMSD>
20.572

$$$$
ligand
 OpenBabel11021811503D
libRbt.so/2013.1/901 2013/11/27
 25 27  0  0  0  0  0  0  0  0999 V2000
  -10.4626   -6.0408   21.4461 N   0  0  0  0  0  0  0  0  0  0  0  0
   -9.1723   -6.5954   21.1762 C   0  0  0  0  0  0  0  0  0  0  0  0
   -8.9480   -7.1745   20.1205 O   0  0  0  0  0  0  0  0  0  0  0  0
   -6.5542   -1.4980   30.9924 N   0  0  0  0  0  0  0  0  0  0  0  0
   -5.1067   -2.9138   29.7019 N   0  0  0  0  0  0  0  0  0  0  0  0
   -6.2360   -2.7718   30.4337 C   0  0  0  0  0  0  0  0  0  0  0  0
   -7.0720   -3.8303   30.6554 N   0  0  0  0  0  0  0  0  0  0  0  0
   -6.8179   -5.0661   30.1546 C   0  0  0  0  0  0  0  0  0  0  0  0
   -5.6535   -5.2524   29.3715 C   0  0  0  0  0  0  0  0  0  0  0  0
   -7.7030   -6.0890   30.4019 O   0  0  0  0  0  0  0  0  0  0  0  0
   -5.3984   -7.7871   29.4637 C   0  0  0  0  0  0  0  0  0  0  0  0
   -5.2394   -6.5197   28.7919 N   0  0  0  0  0  0  0  0  0  0  0  0
   -6.3357   -8.5480   29.2481 O   0  0  0  0  0  0  0  0  0  0  0  0
   -4.5685   -6.4195   27.5666 C   0  0  2  0  0  0  0  0  0  0  0  0
   -3.3173   -5.5191   27.7324 C   0  0  0  0  0  0  0  0  0  0  0  0
   -4.7841   -4.1345   29.1688 C   0  0  0  0  0  0  0  0  0  0  0  0
   -3.5703   -4.2860   28.3616 N   0  0  0  0  0  0  0  0  0  0  0  0
   -5.4833   -5.8625   26.4946 C   0  0  0  0  0  0  0  0  0  0  0  0
   -5.1044   -6.0898   25.1275 N   0  0  0  0  0  0  0  0  0  0  0  0
   -8.0983   -6.4411   22.1967 C   0  0  0  0  0  0  0  0  0  0  0  0
   -7.3373   -5.2820   22.2615 C   0  0  0  0  0  0  0  0  0  0  0  0
   -6.3433   -5.1687   23.2259 C   0  0  0  0  0  0  0  0  0  0  0  0
   -6.1208   -6.2059   24.1294 C   0  0  0  0  0  0  0  0  0  0  0  0
   -6.8892   -7.3553   24.0678 C   0  0  0  0  0  0  0  0  0  0  0  0
   -7.8760   -7.4735   23.0964 C   0  0  0  0  0  0  0  0  0  0  0  0
  1  2  1  0  0  0  0
  2  3  2  0  0  0  0
  2 20  1  0  0  0  0
  4  6  1  0  0  0  0
  5  6  2  0  0  0  0
  5 16  1  0  0  0  0
  6  7  1  0  0  0  0
  7  8  1  0  0  0  0
  8  9  1  0  0  0  0
  8 10  2  0  0  0  0
  9 12  1  0  0  0  0
  9 16  2  0  0  0  0
 11 13  1  0  0  0  0
 11 12  1  0  0  0  0
 12 14  1  0  0  0  0
 14 15  1  0  0  0  0
 14 18  1  6  0  0  0
 15 17  1  0  0  0  0
 16 17  1  0  0  0  0
 18 19  1  0  0  0  0
 19 23  1  0  0  0  0
 20 21  2  0  0  0  0
 20 25  1  0  0  0  0
 21 22  1  0  0  0  0
 22 23  2  0  0  0  0
 23 24  1  0  0  0  0
 24 25  2  0  0  0  0
M  END
>  <CHROM.1>
97.63764405,-160.73786076,149.73373846,106.16267861,-83.49493297,-6.40635367
-5.64046622,26.69321919,2.17615131,1.01900949,-2.34978190

>  <Name>
ligand

>  <RI>
0

>  <Rbt.Current_Directory>
/home/itssahil/PROJECTS/Mol_Feturizer/New_Systems/rnas/4LVV

>  <Rbt.Executable>
rbdock ($Id: //depot/dev/client3/rdock/2013.1/src/exe/rbdock.cxx#4 $)

>  <Rbt.Library>
libRbt.so (2013.1, Build901 2013/11/27)

>  <Rbt.Parameter_File>
/export/apps/rDock/src/rDock_2013.1_src/data/scripts/dock_solv.prm

>  <Rbt.Receptor>
prm/blind_docking_60.prm

>  <SCORE>
-13.4418

>  <SCORE.INTER>
-12.8811

>  <SCORE.INTER.CONST>
1

>  <SCORE.INTER.POLAR>
0

>  <SCORE.INTER.ROT>
5

>  <SCORE.INTER.SOLV>
14.8912

>  <SCORE.INTER.VDW>
-20.4845

>  <SCORE.INTER.norm>
-0.515244

>  <SCORE.INTRA>
-0.560658

>  <SCORE.INTRA.DIHEDRAL>
1.28846

>  <SCORE.INTRA.DIHEDRAL.0>
3.94806

>  <SCORE.INTRA.POLAR>
0

>  <SCORE.INTRA.POLAR.0>
0

>  <SCORE.INTRA.REPUL>
0

>  <SCORE.INTRA.REPUL.0>
0

>  <SCORE.INTRA.SOLV>
-0.343198

>  <SCORE.INTRA.SOLV.lig_0>
-70.9803

>  <SCORE.INTRA.VDW>
-1.03329

>  <SCORE.INTRA.VDW.0>
-0.709409

>  <SCORE.INTRA.norm>
-0.0224263

>  <SCORE.RESTR>
0

>  <SCORE.RESTR.CAVITY>
0

>  <SCORE.RESTR.norm>
0

>  <SCORE.SYSTEM>
0

>  <SCORE.SYSTEM.CONST>
0

>  <SCORE.SYSTEM.DIHEDRAL>
0

>  <SCORE.SYSTEM.SOLV>
0

>  <SCORE.SYSTEM.norm>
0

>  <SCORE.heavy>
25

>  <SCORE.norm>
-0.53767

>  <RMSD>
20.584

$$$$
ligand
 OpenBabel11021811503D
libRbt.so/2013.1/901 2013/11/27
 25 27  0  0  0  0  0  0  0  0999 V2000
   -8.8109   -6.6212   20.1567 N   0  0  0  0  0  0  0  0  0  0  0  0
   -9.1034   -6.0444   21.4323 C   0  0  0  0  0  0  0  0  0  0  0  0
  -10.0953   -5.3433   21.5900 O   0  0  0  0  0  0  0  0  0  0  0  0
   -6.1529   -0.5542   27.7283 N   0  0  0  0  0  0  0  0  0  0  0  0
   -4.5744   -2.3573   27.5786 N   0  0  0  0  0  0  0  0  0  0  0  0
   -5.8238   -1.9344   27.8800 C   0  0  0  0  0  0  0  0  0  0  0  0
   -6.7733   -2.8050   28.3371 N   0  0  0  0  0  0  0  0  0  0  0  0
   -6.5165   -4.1270   28.5069 C   0  0  0  0  0  0  0  0  0  0  0  0
   -5.2251   -4.6115   28.1889 C   0  0  0  0  0  0  0  0  0  0  0  0
   -7.5165   -4.9557   28.9588 O   0  0  0  0  0  0  0  0  0  0  0  0
   -5.2091   -6.8308   29.4430 C   0  0  0  0  0  0  0  0  0  0  0  0
   -4.7977   -5.9925   28.3426 N   0  0  0  0  0  0  0  0  0  0  0  0
   -5.6319   -7.9724   29.2954 O   0  0  0  0  0  0  0  0  0  0  0  0
   -3.8615   -6.4314   27.3978 C   0  0  2  0  0  0  0  0  0  0  0  0
   -2.6097   -5.5181   27.4450 C   0  0  0  0  0  0  0  0  0  0  0  0
   -4.2424   -3.6784   27.7302 C   0  0  0  0  0  0  0  0  0  0  0  0
   -2.8947   -4.1412   27.3878 N   0  0  0  0  0  0  0  0  0  0  0  0
   -4.4613   -6.4363   26.0062 C   0  0  0  0  0  0  0  0  0  0  0  0
   -5.6556   -7.2105   25.8106 N   0  0  0  0  0  0  0  0  0  0  0  0
   -8.1878   -6.3261   22.5730 C   0  0  0  0  0  0  0  0  0  0  0  0
   -7.3461   -5.3415   23.0717 C   0  0  0  0  0  0  0  0  0  0  0  0
   -6.5043   -5.6358   24.1374 C   0  0  0  0  0  0  0  0  0  0  0  0
   -6.5145   -6.9064   24.7095 C   0  0  0  0  0  0  0  0  0  0  0  0
   -7.3633   -7.8817   24.2157 C   0  0  0  0  0  0  0  0  0  0  0  0
   -8.1973   -7.5910   23.1428 C   0  0  0  0  0  0  0  0  0  0  0  0
  1  2  1  0  0  0  0
  2  3  2  0  0  0  0
  2 20  1  0  0  0  0
  4  6  1  0  0  0  0
  5  6  2  0  0  0  0
  5 16  1  0  0  0  0
  6  7  1  0  0  0  0
  7  8  1  0  0  0  0
  8  9  1  0  0  0  0
  8 10  2  0  0  0  0
  9 12  1  0  0  0  0
  9 16  2  0  0  0  0
 11 13  1  0  0  0  0
 11 12  1  0  0  0  0
 12 14  1  0  0  0  0
 14 15  1  0  0  0  0
 14 18  1  6  0  0  0
 15 17  1  0  0  0  0
 16 17  1  0  0  0  0
 18 19  1  0  0  0  0
 19 23  1  0  0  0  0
 20 21  2  0  0  0  0
 20 25  1  0  0  0  0
 21 22  1  0  0  0  0
 22 23  2  0  0  0  0
 23 24  1  0  0  0  0
 24 25  2  0  0  0  0
M  END
>  <CHROM.1>
132.19524899,-56.65595161,158.38480689,-23.55738650,108.23305886,-6.15432535
-5.33179078,26.11434268,2.59280730,0.96494644,-2.81040962

>  <Name>
ligand

>  <RI>
0

>  <Rbt.Current_Directory>
/home/itssahil/PROJECTS/Mol_Feturizer/New_Systems/rnas/4LVV

>  <Rbt.Executable>
rbdock ($Id: //depot/dev/client3/rdock/2013.1/src/exe/rbdock.cxx#4 $)

>  <Rbt.Library>
libRbt.so (2013.1, Build901 2013/11/27)

>  <Rbt.Parameter_File>
/export/apps/rDock/src/rDock_2013.1_src/data/scripts/dock_solv.prm

>  <Rbt.Receptor>
prm/blind_docking_60.prm

>  <SCORE>
-12.8575

>  <SCORE.INTER>
-12.1106

>  <SCORE.INTER.CONST>
1

>  <SCORE.INTER.POLAR>
0

>  <SCORE.INTER.ROT>
5

>  <SCORE.INTER.SOLV>
17.0568

>  <SCORE.INTER.VDW>
-20.6927

>  <SCORE.INTER.norm>
-0.484425

>  <SCORE.INTRA>
-0.746914

>  <SCORE.INTRA.DIHEDRAL>
-0.36741

>  <SCORE.INTRA.DIHEDRAL.0>
3.94806

>  <SCORE.INTRA.POLAR>
0

>  <SCORE.INTRA.POLAR.0>
0

>  <SCORE.INTRA.REPUL>
0

>  <SCORE.INTRA.REPUL.0>
0

>  <SCORE.INTRA.SOLV>
0.439664

>  <SCORE.INTRA.SOLV.lig_0>
-70.9803

>  <SCORE.INTRA.VDW>
-0.783041

>  <SCORE.INTRA.VDW.0>
-0.709409

>  <SCORE.INTRA.norm>
-0.0298766

>  <SCORE.RESTR>
0

>  <SCORE.RESTR.CAVITY>
0

>  <SCORE.RESTR.norm>
0

>  <SCORE.SYSTEM>
0

>  <SCORE.SYSTEM.CONST>
0

>  <SCORE.SYSTEM.DIHEDRAL>
0

>  <SCORE.SYSTEM.SOLV>
0

>  <SCORE.SYSTEM.norm>
0

>  <SCORE.heavy>
25

>  <SCORE.norm>
-0.514301

>  <RMSD>
20.588

$$$$
ligand
 OpenBabel11021811503D
libRbt.so/2013.1/901 2013/11/27
 25 27  0  0  0  0  0  0  0  0999 V2000
   -8.8015   -6.7444   19.7819 N   0  0  0  0  0  0  0  0  0  0  0  0
   -9.1942   -6.4758   21.1306 C   0  0  0  0  0  0  0  0  0  0  0  0
  -10.3742   -6.3219   21.4204 O   0  0  0  0  0  0  0  0  0  0  0  0
   -6.5285   -1.5006   30.9723 N   0  0  0  0  0  0  0  0  0  0  0  0
   -5.0910   -2.9292   29.6847 N   0  0  0  0  0  0  0  0  0  0  0  0
   -6.2230   -2.7759   30.4099 C   0  0  0  0  0  0  0  0  0  0  0  0
   -7.0738   -3.8246   30.6217 N   0  0  0  0  0  0  0  0  0  0  0  0
   -6.8324   -5.0613   30.1171 C   0  0  0  0  0  0  0  0  0  0  0  0
   -5.6655   -5.2591   29.3406 C   0  0  0  0  0  0  0  0  0  0  0  0
   -7.7320   -6.0739   30.3542 O   0  0  0  0  0  0  0  0  0  0  0  0
   -5.4434   -7.7973   29.4231 C   0  0  0  0  0  0  0  0  0  0  0  0
   -5.2639   -6.5291   28.7580 N   0  0  0  0  0  0  0  0  0  0  0  0
   -5.0195   -8.0300   30.5500 O   0  0  0  0  0  0  0  0  0  0  0  0
   -4.5840   -6.4322   27.5373 C   0  0  2  0  0  0  0  0  0  0  0  0
   -3.3225   -5.5486   27.7151 C   0  0  0  0  0  0  0  0  0  0  0  0
   -4.7806   -4.1516   29.1482 C   0  0  0  0  0  0  0  0  0  0  0  0
   -3.5638   -4.3152   28.3481 N   0  0  0  0  0  0  0  0  0  0  0  0
   -5.4848   -5.8589   26.4621 C   0  0  0  0  0  0  0  0  0  0  0  0
   -5.1245   -6.1230   25.0966 N   0  0  0  0  0  0  0  0  0  0  0  0
   -8.1419   -6.4035   22.1824 C   0  0  0  0  0  0  0  0  0  0  0  0
   -8.0284   -7.3952   23.1470 C   0  0  0  0  0  0  0  0  0  0  0  0
   -7.0354   -7.2989   24.1143 C   0  0  0  0  0  0  0  0  0  0  0  0
   -6.1519   -6.2214   24.1079 C   0  0  0  0  0  0  0  0  0  0  0  0
   -6.2621   -5.2406   23.1377 C   0  0  0  0  0  0  0  0  0  0  0  0
   -7.2621   -5.3309   22.1769 C   0  0  0  0  0  0  0  0  0  0  0  0
  1  2  1  0  0  0  0
  2  3  2  0  0  0  0
  2 20  1  0  0  0  0
  4  6  1  0  0  0  0
  5  6  2  0  0  0  0
  5 16  1  0  0  0  0
  6  7  1  0  0  0  0
  7  8  1  0  0  0  0
  8  9  1  0  0  0  0
  8 10  2  0  0  0  0
  9 12  1  0  0  0  0
  9 16  2  0  0  0  0
 11 13  1  0  0  0  0
 11 12  1  0  0  0  0
 12 14  1  0  0  0  0
 14 15  1  0  0  0  0
 14 18  1  6  0  0  0
 15 17  1  0  0  0  0
 16 17  1  0  0  0  0
 18 19  1  0  0  0  0
 19 23  1  0  0  0  0
 20 21  2  0  0  0  0
 20 25  1  0  0  0  0
 21 22  1  0  0  0  0
 22 23  2  0  0  0  0
 23 24  1  0  0  0  0
 24 25  2  0  0  0  0
M  END
>  <CHROM.1>
-54.41148627,-158.71984623,149.53765717,-69.04478550,-109.54318431,-6.35488633
-5.60427695,26.72494797,2.07950463,0.88827112,-2.19142944

>  <Name>
ligand

>  <RI>
0

>  <Rbt.Current_Directory>
/home/itssahil/PROJECTS/Mol_Feturizer/New_Systems/rnas/4LVV

>  <Rbt.Executable>
rbdock ($Id: //depot/dev/client3/rdock/2013.1/src/exe/rbdock.cxx#4 $)

>  <Rbt.Library>
libRbt.so (2013.1, Build901 2013/11/27)

>  <Rbt.Parameter_File>
/export/apps/rDock/src/rDock_2013.1_src/data/scripts/dock_solv.prm

>  <Rbt.Receptor>
prm/blind_docking_80.prm

>  <SCORE>
-12.7623

>  <SCORE.INTER>
-12.2257

>  <SCORE.INTER.CONST>
1

>  <SCORE.INTER.POLAR>
0

>  <SCORE.INTER.ROT>
5

>  <SCORE.INTER.SOLV>
15.5101

>  <SCORE.INTER.VDW>
-20.2538

>  <SCORE.INTER.norm>
-0.489027

>  <SCORE.INTRA>
-0.536607

>  <SCORE.INTRA.DIHEDRAL>
1.41998

>  <SCORE.INTRA.DIHEDRAL.0>
3.94806

>  <SCORE.INTRA.POLAR>
0

>  <SCORE.INTRA.POLAR.0>
0

>  <SCORE.INTRA.REPUL>
0

>  <SCORE.INTRA.REPUL.0>
0

>  <SCORE.INTRA.SOLV>
-0.470767

>  <SCORE.INTRA.SOLV.lig_0>
-70.9803

>  <SCORE.INTRA.VDW>
-1.01121

>  <SCORE.INTRA.VDW.0>
-0.709409

>  <SCORE.INTRA.norm>
-0.0214643

>  <SCORE.RESTR>
0

>  <SCORE.RESTR.CAVITY>
0

>  <SCORE.RESTR.norm>
0

>  <SCORE.SYSTEM>
0

>  <SCORE.SYSTEM.CONST>
0

>  <SCORE.SYSTEM.DIHEDRAL>
0

>  <SCORE.SYSTEM.SOLV>
0

>  <SCORE.SYSTEM.norm>
0

>  <SCORE.heavy>
25

>  <SCORE.norm>
-0.510491

>  <RMSD>
20.589

$$$$
ligand
 OpenBabel11021811503D
libRbt.so/2013.1/901 2013/11/27
 25 27  0  0  0  0  0  0  0  0999 V2000
   -6.8977   -7.5488   20.3186 N   0  0  0  0  0  0  0  0  0  0  0  0
   -7.5007   -7.9146   21.5628 C   0  0  0  0  0  0  0  0  0  0  0  0
   -8.2503   -8.8806   21.6352 O   0  0  0  0  0  0  0  0  0  0  0  0
   -1.9206   -6.8025   28.3038 N   0  0  0  0  0  0  0  0  0  0  0  0
   -4.0106   -5.6774   28.6659 N   0  0  0  0  0  0  0  0  0  0  0  0
   -2.7724   -5.6725   28.1204 C   0  0  0  0  0  0  0  0  0  0  0  0
   -2.3196   -4.5992   27.4053 N   0  0  0  0  0  0  0  0  0  0  0  0
   -3.0824   -3.4947   27.2032 C   0  0  0  0  0  0  0  0  0  0  0  0
   -4.3895   -3.4668   27.7457 C   0  0  0  0  0  0  0  0  0  0  0  0
   -2.5758   -2.4512   26.4646 O   0  0  0  0  0  0  0  0  0  0  0  0
   -4.8890   -0.9675   27.6985 C   0  0  0  0  0  0  0  0  0  0  0  0
   -5.3092   -2.3466   27.6327 N   0  0  0  0  0  0  0  0  0  0  0  0
   -4.7918   -0.3450   28.7506 O   0  0  0  0  0  0  0  0  0  0  0  0
   -6.6634   -2.6969   27.5620 C   0  0  2  0  0  0  0  0  0  0  0  0
   -7.0496   -3.5298   28.8114 C   0  0  0  0  0  0  0  0  0  0  0  0
   -4.8345   -4.5938   28.5063 C   0  0  0  0  0  0  0  0  0  0  0  0
   -6.1822   -4.6045   29.0818 N   0  0  0  0  0  0  0  0  0  0  0  0
   -6.9536   -3.4766   26.2955 C   0  0  0  0  0  0  0  0  0  0  0  0
   -6.4007   -4.7992   26.1996 N   0  0  0  0  0  0  0  0  0  0  0  0
   -7.1870   -7.1087   22.7755 C   0  0  0  0  0  0  0  0  0  0  0  0
   -5.8740   -6.9098   23.1796 C   0  0  0  0  0  0  0  0  0  0  0  0
   -5.6145   -6.1521   24.3152 C   0  0  0  0  0  0  0  0  0  0  0  0
   -6.6642   -5.5855   25.0355 C   0  0  0  0  0  0  0  0  0  0  0  0
   -7.9711   -5.7776   24.6227 C   0  0  0  0  0  0  0  0  0  0  0  0
   -8.2315   -6.5445   23.4934 C   0  0  0  0  0  0  0  0  0  0  0  0
  1  2  1  0  0  0  0
  2  3  2  0  0  0  0
  2 20  1  0  0  0  0
  4  6  1  0  0  0  0
  5  6  2  0  0  0  0
  5 16  1  0  0  0  0
  6  7  1  0  0  0  0
  7  8  1  0  0  0  0
  8  9  1  0  0  0  0
  8 10  2  0  0  0  0
  9 12  1  0  0  0  0
  9 16  2  0  0  0  0
 11 13  1  0  0  0  0
 11 12  1  0  0  0  0
 12 14  1  0  0  0  0
 14 15  1  0  0  0  0
 14 18  1  6  0  0  0
 15 17  1  0  0  0  0
 16 17  1  0  0  0  0
 18 19  1  0  0  0  0
 19 23  1  0  0  0  0
 20 21  2  0  0  0  0
 20 25  1  0  0  0  0
 21 22  1  0  0  0  0
 22 23  2  0  0  0  0
 23 24  1  0  0  0  0
 24 25  2  0  0  0  0
M  END
>  <CHROM.1>
-87.87712515,68.80833180,178.91860820,126.84351458,-55.18250254,-5.50486078
-4.80896506,26.10356186,-2.02469912,-0.49329192,0.69852650

>  <Name>
ligand

>  <RI>
0

>  <Rbt.Current_Directory>
/home/itssahil/PROJECTS/Mol_Feturizer/New_Systems/rnas/4LVV

>  <Rbt.Executable>
rbdock ($Id: //depot/dev/client3/rdock/2013.1/src/exe/rbdock.cxx#4 $)

>  <Rbt.Library>
libRbt.so (2013.1, Build901 2013/11/27)

>  <Rbt.Parameter_File>
/export/apps/rDock/src/rDock_2013.1_src/data/scripts/dock_solv.prm

>  <Rbt.Receptor>
prm/blind_docking_40.prm

>  <SCORE>
-9.1718

>  <SCORE.INTER>
-8.84994

>  <SCORE.INTER.CONST>
1

>  <SCORE.INTER.POLAR>
0

>  <SCORE.INTER.ROT>
5

>  <SCORE.INTER.SOLV>
8.5991

>  <SCORE.INTER.VDW>
-15.6997

>  <SCORE.INTER.norm>
-0.353997

>  <SCORE.INTRA>
-0.321866

>  <SCORE.INTRA.DIHEDRAL>
-0.567721

>  <SCORE.INTRA.DIHEDRAL.0>
3.94806

>  <SCORE.INTRA.POLAR>
0

>  <SCORE.INTRA.POLAR.0>
0

>  <SCORE.INTRA.REPUL>
0

>  <SCORE.INTRA.REPUL.0>
0

>  <SCORE.INTRA.SOLV>
2.10127

>  <SCORE.INTRA.SOLV.lig_0>
-70.9803

>  <SCORE.INTRA.VDW>
-1.08864

>  <SCORE.INTRA.VDW.0>
-0.709409

>  <SCORE.INTRA.norm>
-0.0128746

>  <SCORE.RESTR>
0

>  <SCORE.RESTR.CAVITY>
0

>  <SCORE.RESTR.norm>
0

>  <SCORE.SYSTEM>
0

>  <SCORE.SYSTEM.CONST>
0

>  <SCORE.SYSTEM.DIHEDRAL>
0

>  <SCORE.SYSTEM.SOLV>
0

>  <SCORE.SYSTEM.norm>
0

>  <SCORE.heavy>
25

>  <SCORE.norm>
-0.366872

>  <RMSD>
20.590

$$$$
ligand
 OpenBabel11021811503D
libRbt.so/2013.1/901 2013/11/27
 25 27  0  0  0  0  0  0  0  0999 V2000
  -10.6076   -5.7659   21.3037 N   0  0  0  0  0  0  0  0  0  0  0  0
   -9.2949   -6.2903   21.0859 C   0  0  0  0  0  0  0  0  0  0  0  0
   -8.9033   -6.5479   19.9543 O   0  0  0  0  0  0  0  0  0  0  0  0
   -5.9137   -0.5370   27.7836 N   0  0  0  0  0  0  0  0  0  0  0  0
   -4.4645   -2.4224   27.4509 N   0  0  0  0  0  0  0  0  0  0  0  0
   -5.6588   -1.9387   27.8638 C   0  0  0  0  0  0  0  0  0  0  0  0
   -6.6217   -2.7688   28.3662 N   0  0  0  0  0  0  0  0  0  0  0  0
   -6.4337   -4.1089   28.4722 C   0  0  0  0  0  0  0  0  0  0  0  0
   -5.2027   -4.6558   28.0374 C   0  0  0  0  0  0  0  0  0  0  0  0
   -7.4447   -4.8941   28.9746 O   0  0  0  0  0  0  0  0  0  0  0  0
   -5.2256   -6.9173   29.2136 C   0  0  0  0  0  0  0  0  0  0  0  0
   -4.8499   -6.0642   28.1119 N   0  0  0  0  0  0  0  0  0  0  0  0
   -5.6271   -8.0666   29.0658 O   0  0  0  0  0  0  0  0  0  0  0  0
   -4.0179   -6.5216   27.0822 C   0  0  2  0  0  0  0  0  0  0  0  0
   -2.7126   -5.6852   27.0598 C   0  0  0  0  0  0  0  0  0  0  0  0
   -4.2031   -3.7653   27.5328 C   0  0  0  0  0  0  0  0  0  0  0  0
   -2.9166   -4.2929   27.0700 N   0  0  0  0  0  0  0  0  0  0  0  0
   -4.7222   -6.4398   25.7430 C   0  0  0  0  0  0  0  0  0  0  0  0
   -5.9385   -7.1902   25.5959 N   0  0  0  0  0  0  0  0  0  0  0  0
   -8.4039   -6.5020   22.2606 C   0  0  0  0  0  0  0  0  0  0  0  0
   -7.6104   -5.4729   22.7485 C   0  0  0  0  0  0  0  0  0  0  0  0
   -6.7905   -5.7024   23.8467 C   0  0  0  0  0  0  0  0  0  0  0  0
   -6.7748   -6.9528   24.4615 C   0  0  0  0  0  0  0  0  0  0  0  0
   -7.5757   -7.9727   23.9780 C   0  0  0  0  0  0  0  0  0  0  0  0
   -8.3875   -7.7468   22.8730 C   0  0  0  0  0  0  0  0  0  0  0  0
  1  2  1  0  0  0  0
  2  3  2  0  0  0  0
  2 20  1  0  0  0  0
  4  6  1  0  0  0  0
  5  6  2  0  0  0  0
  5 16  1  0  0  0  0
  6  7  1  0  0  0  0
  7  8  1  0  0  0  0
  8  9  1  0  0  0  0
  8 10  2  0  0  0  0
  9 12  1  0  0  0  0
  9 16  2  0  0  0  0
 11 13  1  0  0  0  0
 11 12  1  0  0  0  0
 12 14  1  0  0  0  0
 14 15  1  0  0  0  0
 14 18  1  6  0  0  0
 15 17  1  0  0  0  0
 16 17  1  0  0  0  0
 18 19  1  0  0  0  0
 19 23  1  0  0  0  0
 20 21  2  0  0  0  0
 20 25  1  0  0  0  0
 21 22  1  0  0  0  0
 22 23  2  0  0  0  0
 23 24  1  0  0  0  0
 24 25  2  0  0  0  0
M  END
>  <CHROM.1>
138.24781102,-59.72801897,168.04304428,-28.35686629,-86.34887811,-6.23228266
-5.41574047,25.90308421,2.61405557,0.96906452,-2.86841270

>  <Name>
ligand

>  <RI>
0

>  <Rbt.Current_Directory>
/home/itssahil/PROJECTS/Mol_Feturizer/New_Systems/rnas/4LVV

>  <Rbt.Executable>
rbdock ($Id: //depot/dev/client3/rdock/2013.1/src/exe/rbdock.cxx#4 $)

>  <Rbt.Library>
libRbt.so (2013.1, Build901 2013/11/27)

>  <Rbt.Parameter_File>
/export/apps/rDock/src/rDock_2013.1_src/data/scripts/dock_solv.prm

>  <Rbt.Receptor>
prm/blind_docking_60.prm

>  <SCORE>
-13.3255

>  <SCORE.INTER>
-12.4259

>  <SCORE.INTER.CONST>
1

>  <SCORE.INTER.POLAR>
0

>  <SCORE.INTER.ROT>
5

>  <SCORE.INTER.SOLV>
18.9298

>  <SCORE.INTER.VDW>
-21.5272

>  <SCORE.INTER.norm>
-0.497034

>  <SCORE.INTRA>
-0.899605

>  <SCORE.INTRA.DIHEDRAL>
-0.725808

>  <SCORE.INTRA.DIHEDRAL.0>
3.94806

>  <SCORE.INTRA.POLAR>
0

>  <SCORE.INTRA.POLAR.0>
0

>  <SCORE.INTRA.REPUL>
0

>  <SCORE.INTRA.REPUL.0>
0

>  <SCORE.INTRA.SOLV>
0.368857

>  <SCORE.INTRA.SOLV.lig_0>
-70.9803

>  <SCORE.INTRA.VDW>
-0.72113

>  <SCORE.INTRA.VDW.0>
-0.709409

>  <SCORE.INTRA.norm>
-0.0359842

>  <SCORE.RESTR>
0

>  <SCORE.RESTR.CAVITY>
0

>  <SCORE.RESTR.norm>
0

>  <SCORE.SYSTEM>
0

>  <SCORE.SYSTEM.CONST>
0

>  <SCORE.SYSTEM.DIHEDRAL>
0

>  <SCORE.SYSTEM.SOLV>
0

>  <SCORE.SYSTEM.norm>
0

>  <SCORE.heavy>
25

>  <SCORE.norm>
-0.533018

>  <RMSD>
20.598

$$$$
ligand
 OpenBabel11021811503D
libRbt.so/2013.1/901 2013/11/27
 25 27  0  0  0  0  0  0  0  0999 V2000
  -10.5974   -5.7559   21.3316 N   0  0  0  0  0  0  0  0  0  0  0  0
   -9.2806   -6.2718   21.1191 C   0  0  0  0  0  0  0  0  0  0  0  0
   -8.8623   -6.4731   19.9857 O   0  0  0  0  0  0  0  0  0  0  0  0
   -6.0243   -0.5740   27.8053 N   0  0  0  0  0  0  0  0  0  0  0  0
   -4.5410   -2.4324   27.4712 N   0  0  0  0  0  0  0  0  0  0  0  0
   -5.7433   -1.9706   27.8860 C   0  0  0  0  0  0  0  0  0  0  0  0
   -6.6897   -2.8180   28.3907 N   0  0  0  0  0  0  0  0  0  0  0  0
   -6.4768   -4.1543   28.4973 C   0  0  0  0  0  0  0  0  0  0  0  0
   -5.2366   -4.6787   28.0606 C   0  0  0  0  0  0  0  0  0  0  0  0
   -7.4721   -4.9577   29.0022 O   0  0  0  0  0  0  0  0  0  0  0  0
   -5.2156   -6.9393   29.2384 C   0  0  0  0  0  0  0  0  0  0  0  0
   -4.8577   -6.0802   28.1354 N   0  0  0  0  0  0  0  0  0  0  0  0
   -4.5494   -7.0273   30.2642 O   0  0  0  0  0  0  0  0  0  0  0  0
   -4.0192   -6.5229   27.1045 C   0  0  2  0  0  0  0  0  0  0  0  0
   -2.7298   -5.6625   27.0791 C   0  0  0  0  0  0  0  0  0  0  0  0
   -4.2546   -3.7701   27.5536 C   0  0  0  0  0  0  0  0  0  0  0  0
   -2.9595   -4.2742   27.0888 N   0  0  0  0  0  0  0  0  0  0  0  0
   -4.7274   -6.4551   25.7665 C   0  0  0  0  0  0  0  0  0  0  0  0
   -5.9309   -7.2265   25.6229 N   0  0  0  0  0  0  0  0  0  0  0  0
   -8.4183   -6.5447   22.3026 C   0  0  0  0  0  0  0  0  0  0  0  0
   -8.4359   -7.7841   22.9273 C   0  0  0  0  0  0  0  0  0  0  0  0
   -7.6188   -8.0072   24.0289 C   0  0  0  0  0  0  0  0  0  0  0  0
   -6.7784   -6.9982   24.4949 C   0  0  0  0  0  0  0  0  0  0  0  0
   -6.7564   -5.7675   23.8622 C   0  0  0  0  0  0  0  0  0  0  0  0
   -7.5816   -5.5404   22.7674 C   0  0  0  0  0  0  0  0  0  0  0  0
  1  2  1  0  0  0  0
  2  3  2  0  0  0  0
  2 20  1  0  0  0  0
  4  6  1  0  0  0  0
  5  6  2  0  0  0  0
  5 16  1  0  0  0  0
  6  7  1  0  0  0  0
  7  8  1  0  0  0  0
  8  9  1  0  0  0  0
  8 10  2  0  0  0  0
  9 12  1  0  0  0  0
  9 16  2  0  0  0  0
 11 13  1  0  0  0  0
 11 12  1  0  0  0  0
 12 14  1  0  0  0  0
 14 15  1  0  0  0  0
 14 18  1  6  0  0  0
 15 17  1  0  0  0  0
 16 17  1  0  0  0  0
 18 19  1  0  0  0  0
 19 23  1  0  0  0  0
 20 21  2  0  0  0  0
 20 25  1  0  0  0  0
 21 22  1  0  0  0  0
 22 23  2  0  0  0  0
 23 24  1  0  0  0  0
 24 25  2  0  0  0  0
M  END
>  <CHROM.1>
-86.19404782,-59.63806465,167.58541272,154.65945806,89.72971953,-6.20140915
-5.38467400,25.98628814,2.54955103,0.94387739,-2.75986366

>  <Name>
ligand

>  <RI>
0

>  <Rbt.Current_Directory>
/home/itssahil/PROJECTS/Mol_Feturizer/New_Systems/rnas/4LVV

>  <Rbt.Executable>
rbdock ($Id: //depot/dev/client3/rdock/2013.1/src/exe/rbdock.cxx#4 $)

>  <Rbt.Library>
libRbt.so (2013.1, Build901 2013/11/27)

>  <Rbt.Parameter_File>
/export/apps/rDock/src/rDock_2013.1_src/data/scripts/dock_solv.prm

>  <Rbt.Receptor>
prm/blind_docking_100.prm

>  <SCORE>
-12.4847

>  <SCORE.INTER>
-11.4507

>  <SCORE.INTER.CONST>
1

>  <SCORE.INTER.POLAR>
0

>  <SCORE.INTER.ROT>
5

>  <SCORE.INTER.SOLV>
17.9155

>  <SCORE.INTER.VDW>
-20.539

>  <SCORE.INTER.norm>
-0.458028

>  <SCORE.INTRA>
-1.03398

>  <SCORE.INTRA.DIHEDRAL>
-0.701521

>  <SCORE.INTRA.DIHEDRAL.0>
3.94806

>  <SCORE.INTRA.POLAR>
0

>  <SCORE.INTRA.POLAR.0>
0

>  <SCORE.INTRA.REPUL>
0

>  <SCORE.INTRA.REPUL.0>
0

>  <SCORE.INTRA.SOLV>
-0.120163

>  <SCORE.INTRA.SOLV.lig_0>
-70.9803

>  <SCORE.INTRA.VDW>
-0.623137

>  <SCORE.INTRA.VDW.0>
-0.709409

>  <SCORE.INTRA.norm>
-0.0413592

>  <SCORE.RESTR>
0

>  <SCORE.RESTR.CAVITY>
0

>  <SCORE.RESTR.norm>
0

>  <SCORE.SYSTEM>
0

>  <SCORE.SYSTEM.CONST>
0

>  <SCORE.SYSTEM.DIHEDRAL>
0

>  <SCORE.SYSTEM.SOLV>
0

>  <SCORE.SYSTEM.norm>
0

>  <SCORE.heavy>
25

>  <SCORE.norm>
-0.499387

>  <RMSD>
20.599

$$$$
ligand
 OpenBabel11021811503D
libRbt.so/2013.1/901 2013/11/27
 25 27  0  0  0  0  0  0  0  0999 V2000
   -8.2286   -7.2890   19.9805 N   0  0  0  0  0  0  0  0  0  0  0  0
   -8.8005   -6.5564   21.0676 C   0  0  0  0  0  0  0  0  0  0  0  0
   -9.9248   -6.0789   20.9781 O   0  0  0  0  0  0  0  0  0  0  0  0
   -6.6808   -0.9166   27.2895 N   0  0  0  0  0  0  0  0  0  0  0  0
   -5.1073   -2.7298   27.3308 N   0  0  0  0  0  0  0  0  0  0  0  0
   -6.3391   -2.2586   27.6335 C   0  0  0  0  0  0  0  0  0  0  0  0
   -7.2583   -3.0430   28.2724 N   0  0  0  0  0  0  0  0  0  0  0  0
   -6.9878   -4.3244   28.6294 C   0  0  0  0  0  0  0  0  0  0  0  0
   -5.7149   -4.8592   28.3176 C   0  0  0  0  0  0  0  0  0  0  0  0
   -7.9579   -5.0680   29.2595 O   0  0  0  0  0  0  0  0  0  0  0  0
   -5.6205   -6.8585   29.8962 C   0  0  0  0  0  0  0  0  0  0  0  0
   -5.2749   -6.2023   28.6582 N   0  0  0  0  0  0  0  0  0  0  0  0
   -4.9895   -6.7045   30.9363 O   0  0  0  0  0  0  0  0  0  0  0  0
   -4.3924   -6.7868   27.7410 C   0  0  2  0  0  0  0  0  0  0  0  0
   -3.1429   -5.8840   27.5759 C   0  0  0  0  0  0  0  0  0  0  0  0
   -4.7629   -4.0135   27.6655 C   0  0  0  0  0  0  0  0  0  0  0  0
   -3.4352   -4.5309   27.3231 N   0  0  0  0  0  0  0  0  0  0  0  0
   -5.0699   -7.0031   26.4029 C   0  0  0  0  0  0  0  0  0  0  0  0
   -5.7285   -5.8711   25.8120 N   0  0  0  0  0  0  0  0  0  0  0  0
   -8.0097   -6.3987   22.3200 C   0  0  0  0  0  0  0  0  0  0  0  0
   -7.9975   -7.3954   23.2860 C   0  0  0  0  0  0  0  0  0  0  0  0
   -7.2490   -7.2180   24.4432 C   0  0  0  0  0  0  0  0  0  0  0  0
   -6.5057   -6.0537   24.6265 C   0  0  0  0  0  0  0  0  0  0  0  0
   -6.5124   -5.0674   23.6557 C   0  0  0  0  0  0  0  0  0  0  0  0
   -7.2697   -5.2396   22.5033 C   0  0  0  0  0  0  0  0  0  0  0  0
  1  2  1  0  0  0  0
  2  3  2  0  0  0  0
  2 20  1  0  0  0  0
  4  6  1  0  0  0  0
  5  6  2  0  0  0  0
  5 16  1  0  0  0  0
  6  7  1  0  0  0  0
  7  8  1  0  0  0  0
  8  9  1  0  0  0  0
  8 10  2  0  0  0  0
  9 12  1  0  0  0  0
  9 16  2  0  0  0  0
 11 13  1  0  0  0  0
 11 12  1  0  0  0  0
 12 14  1  0  0  0  0
 14 15  1  0  0  0  0
 14 18  1  6  0  0  0
 15 17  1  0  0  0  0
 16 17  1  0  0  0  0
 18 19  1  0  0  0  0
 19 23  1  0  0  0  0
 20 21  2  0  0  0  0
 20 25  1  0  0  0  0
 21 22  1  0  0  0  0
 22 23  2  0  0  0  0
 23 24  1  0  0  0  0
 24 25  2  0  0  0  0
M  END
>  <CHROM.1>
-84.92909095,52.13751403,-173.19232184,36.12214602,-83.16817543,-6.34946995
-5.37880262,26.15260104,-2.42666674,-1.05179649,0.57029316

>  <Name>
ligand

>  <RI>
0

>  <Rbt.Current_Directory>
/home/itssahil/PROJECTS/Mol_Feturizer/New_Systems/rnas/4LVV

>  <Rbt.Executable>
rbdock ($Id: //depot/dev/client3/rdock/2013.1/src/exe/rbdock.cxx#4 $)

>  <Rbt.Library>
libRbt.so (2013.1, Build901 2013/11/27)

>  <Rbt.Parameter_File>
/export/apps/rDock/src/rDock_2013.1_src/data/scripts/dock_solv.prm

>  <Rbt.Receptor>
prm/blind_docking_40.prm

>  <SCORE>
-11.4602

>  <SCORE.INTER>
-11.357

>  <SCORE.INTER.CONST>
1

>  <SCORE.INTER.POLAR>
0

>  <SCORE.INTER.ROT>
5

>  <SCORE.INTER.SOLV>
15.38

>  <SCORE.INTER.VDW>
-19.6313

>  <SCORE.INTER.norm>
-0.45428

>  <SCORE.INTRA>
-0.103179

>  <SCORE.INTRA.DIHEDRAL>
-0.623537

>  <SCORE.INTRA.DIHEDRAL.0>
3.94806

>  <SCORE.INTRA.POLAR>
0

>  <SCORE.INTRA.POLAR.0>
0

>  <SCORE.INTRA.REPUL>
0

>  <SCORE.INTRA.REPUL.0>
0

>  <SCORE.INTRA.SOLV>
2.24469

>  <SCORE.INTRA.SOLV.lig_0>
-70.9803

>  <SCORE.INTRA.VDW>
-0.913758

>  <SCORE.INTRA.VDW.0>
-0.709409

>  <SCORE.INTRA.norm>
-0.00412717

>  <SCORE.RESTR>
0

>  <SCORE.RESTR.CAVITY>
0

>  <SCORE.RESTR.norm>
0

>  <SCORE.SYSTEM>
0

>  <SCORE.SYSTEM.CONST>
0

>  <SCORE.SYSTEM.DIHEDRAL>
0

>  <SCORE.SYSTEM.SOLV>
0

>  <SCORE.SYSTEM.norm>
0

>  <SCORE.heavy>
25

>  <SCORE.norm>
-0.458407

>  <RMSD>
20.601

$$$$
ligand
 OpenBabel11021811503D
libRbt.so/2013.1/901 2013/11/27
 25 27  0  0  0  0  0  0  0  0999 V2000
   -8.6412   -6.7448   19.7688 N   0  0  0  0  0  0  0  0  0  0  0  0
   -9.1430   -6.3226   21.0398 C   0  0  0  0  0  0  0  0  0  0  0  0
  -10.2564   -5.8219   21.1384 O   0  0  0  0  0  0  0  0  0  0  0  0
   -5.9356   -0.5160   27.7319 N   0  0  0  0  0  0  0  0  0  0  0  0
   -4.4814   -2.4084   27.4683 N   0  0  0  0  0  0  0  0  0  0  0  0
   -5.6851   -1.9164   27.8425 C   0  0  0  0  0  0  0  0  0  0  0  0
   -6.6617   -2.7367   28.3343 N   0  0  0  0  0  0  0  0  0  0  0  0
   -6.4786   -4.0750   28.4678 C   0  0  0  0  0  0  0  0  0  0  0  0
   -5.2378   -4.6307   28.0739 C   0  0  0  0  0  0  0  0  0  0  0  0
   -7.5033   -4.8503   28.9578 O   0  0  0  0  0  0  0  0  0  0  0  0
   -5.2943   -6.8717   29.2874 C   0  0  0  0  0  0  0  0  0  0  0  0
   -4.8893   -6.0380   28.1813 N   0  0  0  0  0  0  0  0  0  0  0  0
   -5.0772   -6.5838   30.4595 O   0  0  0  0  0  0  0  0  0  0  0  0
   -4.0322   -6.5139   27.1809 C   0  0  2  0  0  0  0  0  0  0  0  0
   -2.7254   -5.6796   27.1775 C   0  0  0  0  0  0  0  0  0  0  0  0
   -4.2244   -3.7501   27.5797 C   0  0  0  0  0  0  0  0  0  0  0  0
   -2.9274   -4.2870   27.1588 N   0  0  0  0  0  0  0  0  0  0  0  0
   -4.7022   -6.4541   25.8231 C   0  0  0  0  0  0  0  0  0  0  0  0
   -5.9432   -7.1624   25.6736 N   0  0  0  0  0  0  0  0  0  0  0  0
   -8.2928   -6.5187   22.2470 C   0  0  0  0  0  0  0  0  0  0  0  0
   -7.5167   -5.4828   22.7486 C   0  0  0  0  0  0  0  0  0  0  0  0
   -6.7350   -5.6977   23.8771 C   0  0  0  0  0  0  0  0  0  0  0  0
   -6.7401   -6.9401   24.5081 C   0  0  0  0  0  0  0  0  0  0  0  0
   -7.5237   -7.9666   24.0106 C   0  0  0  0  0  0  0  0  0  0  0  0
   -8.2971   -7.7554   22.8755 C   0  0  0  0  0  0  0  0  0  0  0  0
  1  2  1  0  0  0  0
  2  3  2  0  0  0  0
  2 20  1  0  0  0  0
  4  6  1  0  0  0  0
  5  6  2  0  0  0  0
  5 16  1  0  0  0  0
  6  7  1  0  0  0  0
  7  8  1  0  0  0  0
  8  9  1  0  0  0  0
  8 10  2  0  0  0  0
  9 12  1  0  0  0  0
  9 16  2  0  0  0  0
 11 13  1  0  0  0  0
 11 12  1  0  0  0  0
 12 14  1  0  0  0  0
 14 15  1  0  0  0  0
 14 18  1  6  0  0  0
 15 17  1  0  0  0  0
 16 17  1  0  0  0  0
 18 19  1  0  0  0  0
 19 23  1  0  0  0  0
 20 21  2  0  0  0  0
 20 25  1  0  0  0  0
 21 22  1  0  0  0  0
 22 23  2  0  0  0  0
 23 24  1  0  0  0  0
 24 25  2  0  0  0  0
M  END
>  <CHROM.1>
-53.67808339,-57.32802607,168.37668680,-31.18320473,97.49347278,-6.18313745
-5.33965967,25.98792123,2.54340477,0.98246582,-2.78281800

>  <Name>
ligand

>  <RI>
0

>  <Rbt.Current_Directory>
/home/itssahil/PROJECTS/Mol_Feturizer/New_Systems/rnas/4LVV

>  <Rbt.Executable>
rbdock ($Id: //depot/dev/client3/rdock/2013.1/src/exe/rbdock.cxx#4 $)

>  <Rbt.Library>
libRbt.so (2013.1, Build901 2013/11/27)

>  <Rbt.Parameter_File>
/export/apps/rDock/src/rDock_2013.1_src/data/scripts/dock_solv.prm

>  <Rbt.Receptor>
prm/blind_docking_60.prm

>  <SCORE>
-12.5712

>  <SCORE.INTER>
-11.4219

>  <SCORE.INTER.CONST>
1

>  <SCORE.INTER.POLAR>
0

>  <SCORE.INTER.ROT>
5

>  <SCORE.INTER.SOLV>
18.2683

>  <SCORE.INTER.VDW>
-20.6374

>  <SCORE.INTER.norm>
-0.456876

>  <SCORE.INTRA>
-1.14934

>  <SCORE.INTRA.DIHEDRAL>
-0.499833

>  <SCORE.INTRA.DIHEDRAL.0>
3.94806

>  <SCORE.INTRA.POLAR>
0

>  <SCORE.INTRA.POLAR.0>
0

>  <SCORE.INTRA.REPUL>
0

>  <SCORE.INTRA.REPUL.0>
0

>  <SCORE.INTRA.SOLV>
0.0235134

>  <SCORE.INTRA.SOLV.lig_0>
-70.9803

>  <SCORE.INTRA.VDW>
-0.911183

>  <SCORE.INTRA.VDW.0>
-0.709409

>  <SCORE.INTRA.norm>
-0.0459737

>  <SCORE.RESTR>
0

>  <SCORE.RESTR.CAVITY>
0

>  <SCORE.RESTR.norm>
0

>  <SCORE.SYSTEM>
0

>  <SCORE.SYSTEM.CONST>
0

>  <SCORE.SYSTEM.DIHEDRAL>
0

>  <SCORE.SYSTEM.SOLV>
0

>  <SCORE.SYSTEM.norm>
0

>  <SCORE.heavy>
25

>  <SCORE.norm>
-0.50285

>  <RMSD>
20.604

$$$$
ligand
 OpenBabel11021811503D
libRbt.so/2013.1/901 2013/11/27
 25 27  0  0  0  0  0  0  0  0999 V2000
   -7.0636   -6.9822   20.0635 N   0  0  0  0  0  0  0  0  0  0  0  0
   -7.6692   -7.5435   21.2313 C   0  0  0  0  0  0  0  0  0  0  0  0
   -8.5154   -8.4238   21.1363 O   0  0  0  0  0  0  0  0  0  0  0  0
   -9.6477   -1.9656   27.7726 N   0  0  0  0  0  0  0  0  0  0  0  0
   -7.3478   -2.6544   27.8102 N   0  0  0  0  0  0  0  0  0  0  0  0
   -8.6335   -2.8923   28.1582 C   0  0  0  0  0  0  0  0  0  0  0  0
   -8.9761   -4.0002   28.8819 N   0  0  0  0  0  0  0  0  0  0  0  0
   -8.0543   -4.9129   29.2817 C   0  0  0  0  0  0  0  0  0  0  0  0
   -6.7000   -4.7073   28.9251 C   0  0  0  0  0  0  0  0  0  0  0  0
   -8.4618   -6.0140   29.9975 O   0  0  0  0  0  0  0  0  0  0  0  0
   -5.5158   -6.2363   30.5859 C   0  0  0  0  0  0  0  0  0  0  0  0
   -5.6023   -5.5828   29.3021 N   0  0  0  0  0  0  0  0  0  0  0  0
   -4.8825   -5.7782   31.5308 O   0  0  0  0  0  0  0  0  0  0  0  0
   -4.5644   -5.6682   28.3655 C   0  0  2  0  0  0  0  0  0  0  0  0
   -3.9957   -4.2523   28.0908 C   0  0  0  0  0  0  0  0  0  0  0  0
   -6.3627   -3.5311   28.1838 C   0  0  0  0  0  0  0  0  0  0  0  0
   -4.9722   -3.2838   27.7929 N   0  0  0  0  0  0  0  0  0  0  0  0
   -5.0504   -6.3025   27.0779 C   0  0  0  0  0  0  0  0  0  0  0  0
   -6.0065   -5.5612   26.3030 N   0  0  0  0  0  0  0  0  0  0  0  0
   -7.2392   -7.0496   22.5692 C   0  0  0  0  0  0  0  0  0  0  0  0
   -6.9985   -7.9334   23.6121 C   0  0  0  0  0  0  0  0  0  0  0  0
   -6.5977   -7.4409   24.8481 C   0  0  0  0  0  0  0  0  0  0  0  0
   -6.4261   -6.0708   25.0353 C   0  0  0  0  0  0  0  0  0  0  0  0
   -6.6569   -5.1942   23.9895 C   0  0  0  0  0  0  0  0  0  0  0  0
   -7.0685   -5.6855   22.7564 C   0  0  0  0  0  0  0  0  0  0  0  0
  1  2  1  0  0  0  0
  2  3  2  0  0  0  0
  2 20  1  0  0  0  0
  4  6  1  0  0  0  0
  5  6  2  0  0  0  0
  5 16  1  0  0  0  0
  6  7  1  0  0  0  0
  7  8  1  0  0  0  0
  8  9  1  0  0  0  0
  8 10  2  0  0  0  0
  9 12  1  0  0  0  0
  9 16  2  0  0  0  0
 11 13  1  0  0  0  0
 11 12  1  0  0  0  0
 12 14  1  0  0  0  0
 14 15  1  0  0  0  0
 14 18  1  6  0  0  0
 15 17  1  0  0  0  0
 16 17  1  0  0  0  0
 18 19  1  0  0  0  0
 19 23  1  0  0  0  0
 20 21  2  0  0  0  0
 20 25  1  0  0  0  0
 21 22  1  0  0  0  0
 22 23  2  0  0  0  0
 23 24  1  0  0  0  0
 24 25  2  0  0  0  0
M  END
>  <CHROM.1>
-95.29100739,66.91328260,175.64084411,36.98782102,-136.18937065,-6.75174529
-5.42996162,26.62477295,1.71597139,0.66783255,-1.99241797

>  <Name>
ligand

>  <RI>
0

>  <Rbt.Current_Directory>
/home/itssahil/PROJECTS/Mol_Feturizer/New_Systems/rnas/4LVV

>  <Rbt.Executable>
rbdock ($Id: //depot/dev/client3/rdock/2013.1/src/exe/rbdock.cxx#4 $)

>  <Rbt.Library>
libRbt.so (2013.1, Build901 2013/11/27)

>  <Rbt.Parameter_File>
/export/apps/rDock/src/rDock_2013.1_src/data/scripts/dock_solv.prm

>  <Rbt.Receptor>
prm/blind_docking_40.prm

>  <SCORE>
-11.4445

>  <SCORE.INTER>
-11.4387

>  <SCORE.INTER.CONST>
1

>  <SCORE.INTER.POLAR>
0

>  <SCORE.INTER.ROT>
5

>  <SCORE.INTER.SOLV>
10.9383

>  <SCORE.INTER.VDW>
-18.2052

>  <SCORE.INTER.norm>
-0.457546

>  <SCORE.INTRA>
-0.00579462

>  <SCORE.INTRA.DIHEDRAL>
-0.627042

>  <SCORE.INTRA.DIHEDRAL.0>
3.94806

>  <SCORE.INTRA.POLAR>
0

>  <SCORE.INTRA.POLAR.0>
0

>  <SCORE.INTRA.REPUL>
0

>  <SCORE.INTRA.REPUL.0>
0

>  <SCORE.INTRA.SOLV>
2.11606

>  <SCORE.INTRA.SOLV.lig_0>
-70.9803

>  <SCORE.INTRA.VDW>
-0.750306

>  <SCORE.INTRA.VDW.0>
-0.709409

>  <SCORE.INTRA.norm>
-0.000231785

>  <SCORE.RESTR>
0

>  <SCORE.RESTR.CAVITY>
0

>  <SCORE.RESTR.norm>
0

>  <SCORE.SYSTEM>
0

>  <SCORE.SYSTEM.CONST>
0

>  <SCORE.SYSTEM.DIHEDRAL>
0

>  <SCORE.SYSTEM.SOLV>
0

>  <SCORE.SYSTEM.norm>
0

>  <SCORE.heavy>
25

>  <SCORE.norm>
-0.457778

>  <RMSD>
20.607

$$$$
ligand
 OpenBabel11021811503D
libRbt.so/2013.1/901 2013/11/27
 25 27  0  0  0  0  0  0  0  0999 V2000
  -10.5565   -5.9907   21.4122 N   0  0  0  0  0  0  0  0  0  0  0  0
   -9.2307   -6.4113   21.0794 C   0  0  0  0  0  0  0  0  0  0  0  0
   -8.9623   -6.8008   19.9497 O   0  0  0  0  0  0  0  0  0  0  0  0
   -6.4309   -1.4922   30.9045 N   0  0  0  0  0  0  0  0  0  0  0  0
   -5.0258   -2.9258   29.5870 N   0  0  0  0  0  0  0  0  0  0  0  0
   -6.1353   -2.7716   30.3460 C   0  0  0  0  0  0  0  0  0  0  0  0
   -6.9725   -3.8229   30.5954 N   0  0  0  0  0  0  0  0  0  0  0  0
   -6.7393   -5.0635   30.0962 C   0  0  0  0  0  0  0  0  0  0  0  0
   -5.5963   -5.2626   29.2854 C   0  0  0  0  0  0  0  0  0  0  0  0
   -7.6247   -6.0788   30.3721 O   0  0  0  0  0  0  0  0  0  0  0  0
   -5.3558   -7.7983   29.3872 C   0  0  0  0  0  0  0  0  0  0  0  0
   -5.2053   -6.5362   28.7036 N   0  0  0  0  0  0  0  0  0  0  0  0
   -6.3277   -8.5310   29.2373 O   0  0  0  0  0  0  0  0  0  0  0  0
   -4.5648   -6.4481   27.4612 C   0  0  2  0  0  0  0  0  0  0  0  0
   -3.3039   -5.5553   27.5899 C   0  0  0  0  0  0  0  0  0  0  0  0
   -4.7248   -4.1519   29.0537 C   0  0  0  0  0  0  0  0  0  0  0  0
   -3.5328   -4.3167   28.2173 N   0  0  0  0  0  0  0  0  0  0  0  0
   -5.5025   -5.8915   26.4090 C   0  0  0  0  0  0  0  0  0  0  0  0
   -5.1460   -6.1074   25.0341 N   0  0  0  0  0  0  0  0  0  0  0  0
   -8.1752   -6.3509   22.1288 C   0  0  0  0  0  0  0  0  0  0  0  0
   -8.0980   -7.3203   23.1192 C   0  0  0  0  0  0  0  0  0  0  0  0
   -7.1010   -7.2360   24.0834 C   0  0  0  0  0  0  0  0  0  0  0  0
   -6.1775   -6.1930   24.0485 C   0  0  0  0  0  0  0  0  0  0  0  0
   -6.2519   -5.2348   23.0527 C   0  0  0  0  0  0  0  0  0  0  0  0
   -7.2557   -5.3126   22.0948 C   0  0  0  0  0  0  0  0  0  0  0  0
  1  2  1  0  0  0  0
  2  3  2  0  0  0  0
  2 20  1  0  0  0  0
  4  6  1  0  0  0  0
  5  6  2  0  0  0  0
  5 16  1  0  0  0  0
  6  7  1  0  0  0  0
  7  8  1  0  0  0  0
  8  9  1  0  0  0  0
  8 10  2  0  0  0  0
  9 12  1  0  0  0  0
  9 16  2  0  0  0  0
 11 13  1  0  0  0  0
 11 12  1  0  0  0  0
 12 14  1  0  0  0  0
 14 15  1  0  0  0  0
 14 18  1  6  0  0  0
 15 17  1  0  0  0  0
 16 17  1  0  0  0  0
 18 19  1  0  0  0  0
 19 23  1  0  0  0  0
 20 21  2  0  0  0  0
 20 25  1  0  0  0  0
 21 22  1  0  0  0  0
 22 23  2  0  0  0  0
 23 24  1  0  0  0  0
 24 25  2  0  0  0  0
M  END
>  <CHROM.1>
94.83463262,-161.91911997,151.22508523,-64.49630781,78.01196735,-6.39678450
-5.61031865,26.60772368,2.23856418,1.04276004,-2.39282365

>  <Name>
ligand

>  <RI>
0

>  <Rbt.Current_Directory>
/home/itssahil/PROJECTS/Mol_Feturizer/New_Systems/rnas/4LVV

>  <Rbt.Executable>
rbdock ($Id: //depot/dev/client3/rdock/2013.1/src/exe/rbdock.cxx#4 $)

>  <Rbt.Library>
libRbt.so (2013.1, Build901 2013/11/27)

>  <Rbt.Parameter_File>
/export/apps/rDock/src/rDock_2013.1_src/data/scripts/dock_solv.prm

>  <Rbt.Receptor>
prm/blind_docking_100.prm

>  <SCORE>
-13.3404

>  <SCORE.INTER>
-12.7876

>  <SCORE.INTER.CONST>
1

>  <SCORE.INTER.POLAR>
0

>  <SCORE.INTER.ROT>
5

>  <SCORE.INTER.SOLV>
15.9753

>  <SCORE.INTER.VDW>
-20.7835

>  <SCORE.INTER.norm>
-0.511502

>  <SCORE.INTRA>
-0.552876

>  <SCORE.INTRA.DIHEDRAL>
1.1609

>  <SCORE.INTRA.DIHEDRAL.0>
3.94806

>  <SCORE.INTRA.POLAR>
0

>  <SCORE.INTRA.POLAR.0>
0

>  <SCORE.INTRA.REPUL>
0

>  <SCORE.INTRA.REPUL.0>
0

>  <SCORE.INTRA.SOLV>
-0.320651

>  <SCORE.INTRA.SOLV.lig_0>
-70.9803

>  <SCORE.INTRA.VDW>
-0.972999

>  <SCORE.INTRA.VDW.0>
-0.709409

>  <SCORE.INTRA.norm>
-0.022115

>  <SCORE.RESTR>
0

>  <SCORE.RESTR.CAVITY>
0

>  <SCORE.RESTR.norm>
0

>  <SCORE.SYSTEM>
0

>  <SCORE.SYSTEM.CONST>
0

>  <SCORE.SYSTEM.DIHEDRAL>
0

>  <SCORE.SYSTEM.SOLV>
0

>  <SCORE.SYSTEM.norm>
0

>  <SCORE.heavy>
25

>  <SCORE.norm>
-0.533617

>  <RMSD>
20.608

$$$$
ligand
 OpenBabel11021811503D
libRbt.so/2013.1/901 2013/11/27
 25 27  0  0  0  0  0  0  0  0999 V2000
   -8.2690   -6.7978   20.2712 N   0  0  0  0  0  0  0  0  0  0  0  0
   -8.6006   -6.0671   21.4551 C   0  0  0  0  0  0  0  0  0  0  0  0
   -9.5466   -5.2893   21.4665 O   0  0  0  0  0  0  0  0  0  0  0  0
   -8.0398   -1.5209   30.1923 N   0  0  0  0  0  0  0  0  0  0  0  0
   -6.0360   -2.6879   29.5691 N   0  0  0  0  0  0  0  0  0  0  0  0
   -7.3412   -2.7356   29.9228 C   0  0  0  0  0  0  0  0  0  0  0  0
   -7.9993   -3.9283   30.0364 N   0  0  0  0  0  0  0  0  0  0  0  0
   -7.3853   -5.1153   29.7986 C   0  0  0  0  0  0  0  0  0  0  0  0
   -6.0236   -5.1070   29.4121 C   0  0  0  0  0  0  0  0  0  0  0  0
   -8.1035   -6.2819   29.9176 O   0  0  0  0  0  0  0  0  0  0  0  0
   -5.3555   -7.5160   29.9109 C   0  0  0  0  0  0  0  0  0  0  0  0
   -5.2302   -6.2966   29.1493 N   0  0  0  0  0  0  0  0  0  0  0  0
   -6.0038   -8.4835   29.5268 O   0  0  0  0  0  0  0  0  0  0  0  0
   -4.2461   -6.1463   28.1641 C   0  0  2  0  0  0  0  0  0  0  0  0
   -3.2900   -4.9911   28.5578 C   0  0  0  0  0  0  0  0  0  0  0  0
   -5.3507   -3.8480   29.3181 C   0  0  0  0  0  0  0  0  0  0  0  0
   -3.9418   -3.7972   28.9182 N   0  0  0  0  0  0  0  0  0  0  0  0
   -4.8736   -5.8765   26.8114 C   0  0  0  0  0  0  0  0  0  0  0  0
   -5.5321   -6.9771   26.1639 N   0  0  0  0  0  0  0  0  0  0  0  0
   -7.7839   -6.2820   22.6821 C   0  0  0  0  0  0  0  0  0  0  0  0
   -6.9870   -5.2678   23.1951 C   0  0  0  0  0  0  0  0  0  0  0  0
   -6.2376   -5.4998   24.3420 C   0  0  0  0  0  0  0  0  0  0  0  0
   -6.2957   -6.7374   24.9797 C   0  0  0  0  0  0  0  0  0  0  0  0
   -7.0998   -7.7421   24.4706 C   0  0  0  0  0  0  0  0  0  0  0  0
   -7.8409   -7.5140   23.3173 C   0  0  0  0  0  0  0  0  0  0  0  0
  1  2  1  0  0  0  0
  2  3  2  0  0  0  0
  2 20  1  0  0  0  0
  4  6  1  0  0  0  0
  5  6  2  0  0  0  0
  5 16  1  0  0  0  0
  6  7  1  0  0  0  0
  7  8  1  0  0  0  0
  8  9  1  0  0  0  0
  8 10  2  0  0  0  0
  9 12  1  0  0  0  0
  9 16  2  0  0  0  0
 11 13  1  0  0  0  0
 11 12  1  0  0  0  0
 12 14  1  0  0  0  0
 14 15  1  0  0  0  0
 14 18  1  6  0  0  0
 15 17  1  0  0  0  0
 16 17  1  0  0  0  0
 18 19  1  0  0  0  0
 19 23  1  0  0  0  0
 20 21  2  0  0  0  0
 20 25  1  0  0  0  0
 21 22  1  0  0  0  0
 22 23  2  0  0  0  0
 23 24  1  0  0  0  0
 24 25  2  0  0  0  0
M  END
>  <CHROM.1>
99.32552185,-72.55148033,171.47776010,9.84948881,113.41994497,-6.53694742
-5.55327338,26.93571264,1.98062901,0.91020773,-2.12714713

>  <Name>
ligand

>  <RI>
0

>  <Rbt.Current_Directory>
/home/itssahil/PROJECTS/Mol_Feturizer/New_Systems/rnas/4LVV

>  <Rbt.Executable>
rbdock ($Id: //depot/dev/client3/rdock/2013.1/src/exe/rbdock.cxx#4 $)

>  <Rbt.Library>
libRbt.so (2013.1, Build901 2013/11/27)

>  <Rbt.Parameter_File>
/export/apps/rDock/src/rDock_2013.1_src/data/scripts/dock_solv.prm

>  <Rbt.Receptor>
prm/blind_docking_60.prm

>  <SCORE>
-12.8823

>  <SCORE.INTER>
-12.6152

>  <SCORE.INTER.CONST>
1

>  <SCORE.INTER.POLAR>
0

>  <SCORE.INTER.ROT>
5

>  <SCORE.INTER.SOLV>
13.6517

>  <SCORE.INTER.VDW>
-19.8941

>  <SCORE.INTER.norm>
-0.50461

>  <SCORE.INTRA>
-0.267095

>  <SCORE.INTRA.DIHEDRAL>
0.0785752

>  <SCORE.INTRA.DIHEDRAL.0>
3.94806

>  <SCORE.INTRA.POLAR>
0

>  <SCORE.INTRA.POLAR.0>
0

>  <SCORE.INTRA.REPUL>
0

>  <SCORE.INTRA.REPUL.0>
0

>  <SCORE.INTRA.SOLV>
0.237807

>  <SCORE.INTRA.SOLV.lig_0>
-70.9803

>  <SCORE.INTRA.VDW>
-0.425286

>  <SCORE.INTRA.VDW.0>
-0.709409

>  <SCORE.INTRA.norm>
-0.0106838

>  <SCORE.RESTR>
0

>  <SCORE.RESTR.CAVITY>
0

>  <SCORE.RESTR.norm>
0

>  <SCORE.SYSTEM>
0

>  <SCORE.SYSTEM.CONST>
0

>  <SCORE.SYSTEM.DIHEDRAL>
0

>  <SCORE.SYSTEM.SOLV>
0

>  <SCORE.SYSTEM.norm>
0

>  <SCORE.heavy>
25

>  <SCORE.norm>
-0.515294

>  <RMSD>
20.613

$$$$
ligand
 OpenBabel11021811503D
libRbt.so/2013.1/901 2013/11/27
 25 27  0  0  0  0  0  0  0  0999 V2000
   -8.7015   -6.7268   19.7467 N   0  0  0  0  0  0  0  0  0  0  0  0
   -9.1953   -6.3197   21.0257 C   0  0  0  0  0  0  0  0  0  0  0  0
  -10.3118   -5.8291   21.1386 O   0  0  0  0  0  0  0  0  0  0  0  0
   -6.0189   -0.4928   27.6553 N   0  0  0  0  0  0  0  0  0  0  0  0
   -4.5476   -2.3744   27.4094 N   0  0  0  0  0  0  0  0  0  0  0  0
   -5.7575   -1.8906   27.7740 C   0  0  0  0  0  0  0  0  0  0  0  0
   -6.7303   -2.7165   28.2639 N   0  0  0  0  0  0  0  0  0  0  0  0
   -6.5370   -4.0526   28.4049 C   0  0  0  0  0  0  0  0  0  0  0  0
   -5.2893   -4.5999   28.0210 C   0  0  0  0  0  0  0  0  0  0  0  0
   -7.5581   -4.8340   28.8925 O   0  0  0  0  0  0  0  0  0  0  0  0
   -5.3346   -6.8356   29.2448 C   0  0  0  0  0  0  0  0  0  0  0  0
   -4.9299   -6.0038   28.1371 N   0  0  0  0  0  0  0  0  0  0  0  0
   -4.7001   -6.9152   30.2912 O   0  0  0  0  0  0  0  0  0  0  0  0
   -4.0629   -6.4772   27.1442 C   0  0  2  0  0  0  0  0  0  0  0  0
   -2.7631   -5.6322   27.1445 C   0  0  0  0  0  0  0  0  0  0  0  0
   -4.2802   -3.7133   27.5286 C   0  0  0  0  0  0  0  0  0  0  0  0
   -2.9764   -4.2415   27.1180 N   0  0  0  0  0  0  0  0  0  0  0  0
   -4.7252   -6.4294   25.7821 C   0  0  0  0  0  0  0  0  0  0  0  0
   -5.9422   -7.1756   25.6192 N   0  0  0  0  0  0  0  0  0  0  0  0
   -8.3326   -6.5190   22.2235 C   0  0  0  0  0  0  0  0  0  0  0  0
   -7.6205   -5.4619   22.7734 C   0  0  0  0  0  0  0  0  0  0  0  0
   -6.8251   -5.6805   23.8916 C   0  0  0  0  0  0  0  0  0  0  0  0
   -6.7532   -6.9488   24.4645 C   0  0  0  0  0  0  0  0  0  0  0  0
   -7.4734   -7.9972   23.9191 C   0  0  0  0  0  0  0  0  0  0  0  0
   -8.2602   -7.7815   22.7941 C   0  0  0  0  0  0  0  0  0  0  0  0
  1  2  1  0  0  0  0
  2  3  2  0  0  0  0
  2 20  1  0  0  0  0
  4  6  1  0  0  0  0
  5  6  2  0  0  0  0
  5 16  1  0  0  0  0
  6  7  1  0  0  0  0
  7  8  1  0  0  0  0
  8  9  1  0  0  0  0
  8 10  2  0  0  0  0
  9 12  1  0  0  0  0
  9 16  2  0  0  0  0
 11 13  1  0  0  0  0
 11 12  1  0  0  0  0
 12 14  1  0  0  0  0
 14 15  1  0  0  0  0
 14 18  1  6  0  0  0
 15 17  1  0  0  0  0
 16 17  1  0  0  0  0
 18 19  1  0  0  0  0
 19 23  1  0  0  0  0
 20 21  2  0  0  0  0
 20 25  1  0  0  0  0
 21 22  1  0  0  0  0
 22 23  2  0  0  0  0
 23 24  1  0  0  0  0
 24 25  2  0  0  0  0
M  END
>  <CHROM.1>
-86.60239716,-58.82255749,166.97578644,-33.08324653,101.25194727,-6.20740885
-5.33905651,25.93871424,2.53612401,0.96608802,-2.76775944

>  <Name>
ligand

>  <RI>
0

>  <Rbt.Current_Directory>
/home/itssahil/PROJECTS/Mol_Feturizer/New_Systems/rnas/4LVV

>  <Rbt.Executable>
rbdock ($Id: //depot/dev/client3/rdock/2013.1/src/exe/rbdock.cxx#4 $)

>  <Rbt.Library>
libRbt.so (2013.1, Build901 2013/11/27)

>  <Rbt.Parameter_File>
/export/apps/rDock/src/rDock_2013.1_src/data/scripts/dock_solv.prm

>  <Rbt.Receptor>
prm/blind_docking_40.prm

>  <SCORE>
-12.5345

>  <SCORE.INTER>
-11.2367

>  <SCORE.INTER.CONST>
1

>  <SCORE.INTER.POLAR>
0

>  <SCORE.INTER.ROT>
5

>  <SCORE.INTER.SOLV>
18.4307

>  <SCORE.INTER.VDW>
-20.568

>  <SCORE.INTER.norm>
-0.449467

>  <SCORE.INTRA>
-1.29778

>  <SCORE.INTRA.DIHEDRAL>
-0.693927

>  <SCORE.INTRA.DIHEDRAL.0>
3.94806

>  <SCORE.INTRA.POLAR>
0

>  <SCORE.INTRA.POLAR.0>
0

>  <SCORE.INTRA.REPUL>
0

>  <SCORE.INTRA.REPUL.0>
0

>  <SCORE.INTRA.SOLV>
-0.109026

>  <SCORE.INTRA.SOLV.lig_0>
-70.9803

>  <SCORE.INTRA.VDW>
-0.896298

>  <SCORE.INTRA.VDW.0>
-0.709409

>  <SCORE.INTRA.norm>
-0.051911

>  <SCORE.RESTR>
0

>  <SCORE.RESTR.CAVITY>
0

>  <SCORE.RESTR.norm>
0

>  <SCORE.SYSTEM>
0

>  <SCORE.SYSTEM.CONST>
0

>  <SCORE.SYSTEM.DIHEDRAL>
0

>  <SCORE.SYSTEM.SOLV>
0

>  <SCORE.SYSTEM.norm>
0

>  <SCORE.heavy>
25

>  <SCORE.norm>
-0.501378

>  <RMSD>
20.618

$$$$
ligand
 OpenBabel11021811503D
libRbt.so/2013.1/901 2013/11/27
 25 27  0  0  0  0  0  0  0  0999 V2000
  -10.3940   -5.2853   21.7053 N   0  0  0  0  0  0  0  0  0  0  0  0
   -9.1844   -6.0020   21.4434 C   0  0  0  0  0  0  0  0  0  0  0  0
   -8.9059   -6.3664   20.3077 O   0  0  0  0  0  0  0  0  0  0  0  0
   -7.2823   -1.4473   30.1223 N   0  0  0  0  0  0  0  0  0  0  0  0
   -5.4939   -2.8155   29.2885 N   0  0  0  0  0  0  0  0  0  0  0  0
   -6.7493   -2.7274   29.7855 C   0  0  0  0  0  0  0  0  0  0  0  0
   -7.5121   -3.8449   29.9800 N   0  0  0  0  0  0  0  0  0  0  0  0
   -7.0563   -5.0887   29.6839 C   0  0  0  0  0  0  0  0  0  0  0  0
   -5.7528   -5.2218   29.1484 C   0  0  0  0  0  0  0  0  0  0  0  0
   -7.8752   -6.1739   29.8904 O   0  0  0  0  0  0  0  0  0  0  0  0
   -5.2897   -7.6899   29.5870 C   0  0  0  0  0  0  0  0  0  0  0  0
   -5.1227   -6.4868   28.8075 N   0  0  0  0  0  0  0  0  0  0  0  0
   -6.1692   -8.5156   29.3668 O   0  0  0  0  0  0  0  0  0  0  0  0
   -4.2441   -6.4363   27.7179 C   0  0  2  0  0  0  0  0  0  0  0  0
   -3.1343   -5.3897   27.9947 C   0  0  0  0  0  0  0  0  0  0  0  0
   -4.9662   -4.0399   28.9712 C   0  0  0  0  0  0  0  0  0  0  0  0
   -3.6131   -4.1355   28.4167 N   0  0  0  0  0  0  0  0  0  0  0  0
   -4.9866   -6.0958   26.4416 C   0  0  0  0  0  0  0  0  0  0  0  0
   -5.7027   -7.1613   25.7966 N   0  0  0  0  0  0  0  0  0  0  0  0
   -8.2585   -6.2831   22.5758 C   0  0  0  0  0  0  0  0  0  0  0  0
   -7.3397   -5.3325   22.9987 C   0  0  0  0  0  0  0  0  0  0  0  0
   -6.4903   -5.6254   24.0588 C   0  0  0  0  0  0  0  0  0  0  0  0
   -6.5694   -6.8595   24.7009 C   0  0  0  0  0  0  0  0  0  0  0  0
   -7.4944   -7.8002   24.2827 C   0  0  0  0  0  0  0  0  0  0  0  0
   -8.3364   -7.5118   23.2154 C   0  0  0  0  0  0  0  0  0  0  0  0
  1  2  1  0  0  0  0
  2  3  2  0  0  0  0
  2 20  1  0  0  0  0
  4  6  1  0  0  0  0
  5  6  2  0  0  0  0
  5 16  1  0  0  0  0
  6  7  1  0  0  0  0
  7  8  1  0  0  0  0
  8  9  1  0  0  0  0
  8 10  2  0  0  0  0
  9 12  1  0  0  0  0
  9 16  2  0  0  0  0
 11 13  1  0  0  0  0
 11 12  1  0  0  0  0
 12 14  1  0  0  0  0
 14 15  1  0  0  0  0
 14 18  1  6  0  0  0
 15 17  1  0  0  0  0
 16 17  1  0  0  0  0
 18 19  1  0  0  0  0
 19 23  1  0  0  0  0
 20 21  2  0  0  0  0
 20 25  1  0  0  0  0
 21 22  1  0  0  0  0
 22 23  2  0  0  0  0
 23 24  1  0  0  0  0
 24 25  2  0  0  0  0
M  END
>  <CHROM.1>
91.39021978,-79.44015529,171.26965730,15.11717067,-83.41077360,-6.54666229
-5.63192085,26.71994102,2.17869990,0.91432132,-2.28934353

>  <Name>
ligand

>  <RI>
0

>  <Rbt.Current_Directory>
/home/itssahil/PROJECTS/Mol_Feturizer/New_Systems/rnas/4LVV

>  <Rbt.Executable>
rbdock ($Id: //depot/dev/client3/rdock/2013.1/src/exe/rbdock.cxx#4 $)

>  <Rbt.Library>
libRbt.so (2013.1, Build901 2013/11/27)

>  <Rbt.Parameter_File>
/export/apps/rDock/src/rDock_2013.1_src/data/scripts/dock_solv.prm

>  <Rbt.Receptor>
prm/blind_docking_40.prm

>  <SCORE>
-12.8656

>  <SCORE.INTER>
-12.8428

>  <SCORE.INTER.CONST>
1

>  <SCORE.INTER.POLAR>
0

>  <SCORE.INTER.ROT>
5

>  <SCORE.INTER.SOLV>
15.3088

>  <SCORE.INTER.VDW>
-20.5981

>  <SCORE.INTER.norm>
-0.513712

>  <SCORE.INTRA>
-0.0228119

>  <SCORE.INTRA.DIHEDRAL>
0.754301

>  <SCORE.INTRA.DIHEDRAL.0>
3.94806

>  <SCORE.INTRA.POLAR>
0

>  <SCORE.INTRA.POLAR.0>
0

>  <SCORE.INTRA.REPUL>
0

>  <SCORE.INTRA.REPUL.0>
0

>  <SCORE.INTRA.SOLV>
0.0950379

>  <SCORE.INTRA.SOLV.lig_0>
-70.9803

>  <SCORE.INTRA.VDW>
-0.447481

>  <SCORE.INTRA.VDW.0>
-0.709409

>  <SCORE.INTRA.norm>
-0.000912476

>  <SCORE.RESTR>
0

>  <SCORE.RESTR.CAVITY>
0

>  <SCORE.RESTR.norm>
0

>  <SCORE.SYSTEM>
0

>  <SCORE.SYSTEM.CONST>
0

>  <SCORE.SYSTEM.DIHEDRAL>
0

>  <SCORE.SYSTEM.SOLV>
0

>  <SCORE.SYSTEM.norm>
0

>  <SCORE.heavy>
25

>  <SCORE.norm>
-0.514624

>  <RMSD>
20.622

$$$$
ligand
 OpenBabel11021811503D
libRbt.so/2013.1/901 2013/11/27
 25 27  0  0  0  0  0  0  0  0999 V2000
  -10.5706   -5.7735   21.2921 N   0  0  0  0  0  0  0  0  0  0  0  0
   -9.2560   -6.2956   21.0809 C   0  0  0  0  0  0  0  0  0  0  0  0
   -8.8580   -6.5515   19.9512 O   0  0  0  0  0  0  0  0  0  0  0  0
   -6.0832   -0.5247   27.7363 N   0  0  0  0  0  0  0  0  0  0  0  0
   -4.5897   -2.3840   27.4577 N   0  0  0  0  0  0  0  0  0  0  0  0
   -5.8034   -1.9204   27.8357 C   0  0  0  0  0  0  0  0  0  0  0  0
   -6.7626   -2.7648   28.3208 N   0  0  0  0  0  0  0  0  0  0  0  0
   -6.5515   -4.1000   28.4436 C   0  0  0  0  0  0  0  0  0  0  0  0
   -5.2994   -4.6264   28.0454 C   0  0  0  0  0  0  0  0  0  0  0  0
   -7.5597   -4.9005   28.9272 O   0  0  0  0  0  0  0  0  0  0  0  0
   -5.3088   -6.8778   29.2410 C   0  0  0  0  0  0  0  0  0  0  0  0
   -4.9214   -6.0269   28.1416 N   0  0  0  0  0  0  0  0  0  0  0  0
   -4.6373   -7.0064   30.2590 O   0  0  0  0  0  0  0  0  0  0  0  0
   -4.0545   -6.4767   27.1376 C   0  0  2  0  0  0  0  0  0  0  0  0
   -2.7656   -5.6152   27.1409 C   0  0  0  0  0  0  0  0  0  0  0  0
   -4.3046   -3.7208   27.5584 C   0  0  0  0  0  0  0  0  0  0  0  0
   -2.9967   -4.2271   27.1334 N   0  0  0  0  0  0  0  0  0  0  0  0
   -4.7257   -6.4202   25.7801 C   0  0  0  0  0  0  0  0  0  0  0  0
   -5.9243   -7.1937   25.6096 N   0  0  0  0  0  0  0  0  0  0  0  0
   -8.3710   -6.5073   22.2601 C   0  0  0  0  0  0  0  0  0  0  0  0
   -7.5577   -5.4869   22.7337 C   0  0  0  0  0  0  0  0  0  0  0  0
   -6.7440   -5.7160   23.8366 C   0  0  0  0  0  0  0  0  0  0  0  0
   -6.7542   -6.9569   24.4703 C   0  0  0  0  0  0  0  0  0  0  0  0
   -7.5747   -7.9679   24.0011 C   0  0  0  0  0  0  0  0  0  0  0  0
   -8.3803   -7.7426   22.8914 C   0  0  0  0  0  0  0  0  0  0  0  0
  1  2  1  0  0  0  0
  2  3  2  0  0  0  0
  2 20  1  0  0  0  0
  4  6  1  0  0  0  0
  5  6  2  0  0  0  0
  5 16  1  0  0  0  0
  6  7  1  0  0  0  0
  7  8  1  0  0  0  0
  8  9  1  0  0  0  0
  8 10  2  0  0  0  0
  9 12  1  0  0  0  0
  9 16  2  0  0  0  0
 11 13  1  0  0  0  0
 11 12  1  0  0  0  0
 12 14  1  0  0  0  0
 14 15  1  0  0  0  0
 14 18  1  6  0  0  0
 15 17  1  0  0  0  0
 16 17  1  0  0  0  0
 18 19  1  0  0  0  0
 19 23  1  0  0  0  0
 20 21  2  0  0  0  0
 20 25  1  0  0  0  0
 21 22  1  0  0  0  0
 22 23  2  0  0  0  0
 23 24  1  0  0  0  0
 24 25  2  0  0  0  0
M  END
>  <CHROM.1>
-89.84596283,-59.62483996,166.37319742,-25.39583577,-87.91001475,-6.22734405
-5.34953138,25.96651839,2.53469379,0.95099017,-2.75257317

>  <Name>
ligand

>  <RI>
0

>  <Rbt.Current_Directory>
/home/itssahil/PROJECTS/Mol_Feturizer/New_Systems/rnas/4LVV

>  <Rbt.Executable>
rbdock ($Id: //depot/dev/client3/rdock/2013.1/src/exe/rbdock.cxx#4 $)

>  <Rbt.Library>
libRbt.so (2013.1, Build901 2013/11/27)

>  <Rbt.Parameter_File>
/export/apps/rDock/src/rDock_2013.1_src/data/scripts/dock_solv.prm

>  <Rbt.Receptor>
prm/blind_docking_100.prm

>  <SCORE>
-12.7135

>  <SCORE.INTER>
-11.5348

>  <SCORE.INTER.CONST>
1

>  <SCORE.INTER.POLAR>
0

>  <SCORE.INTER.ROT>
5

>  <SCORE.INTER.SOLV>
17.8007

>  <SCORE.INTER.VDW>
-20.5568

>  <SCORE.INTER.norm>
-0.461392

>  <SCORE.INTRA>
-1.17866

>  <SCORE.INTRA.DIHEDRAL>
-0.736437

>  <SCORE.INTRA.DIHEDRAL.0>
3.94806

>  <SCORE.INTRA.POLAR>
0

>  <SCORE.INTRA.POLAR.0>
0

>  <SCORE.INTRA.REPUL>
0

>  <SCORE.INTRA.REPUL.0>
0

>  <SCORE.INTRA.SOLV>
-0.127056

>  <SCORE.INTRA.SOLV.lig_0>
-70.9803

>  <SCORE.INTRA.VDW>
-0.746914

>  <SCORE.INTRA.VDW.0>
-0.709409

>  <SCORE.INTRA.norm>
-0.0471464

>  <SCORE.RESTR>
0

>  <SCORE.RESTR.CAVITY>
0

>  <SCORE.RESTR.norm>
0

>  <SCORE.SYSTEM>
0

>  <SCORE.SYSTEM.CONST>
0

>  <SCORE.SYSTEM.DIHEDRAL>
0

>  <SCORE.SYSTEM.SOLV>
0

>  <SCORE.SYSTEM.norm>
0

>  <SCORE.heavy>
25

>  <SCORE.norm>
-0.508539

>  <RMSD>
20.633

$$$$
ligand
 OpenBabel11021811503D
libRbt.so/2013.1/901 2013/11/27
 25 27  0  0  0  0  0  0  0  0999 V2000
   -7.0176   -9.9785   21.5478 N   0  0  0  0  0  0  0  0  0  0  0  0
   -7.4135   -8.6263   21.3024 C   0  0  0  0  0  0  0  0  0  0  0  0
   -7.9331   -8.3090   20.2397 O   0  0  0  0  0  0  0  0  0  0  0  0
   -4.3699   -6.6616   31.3729 N   0  0  0  0  0  0  0  0  0  0  0  0
   -6.1254   -5.3733   30.3611 N   0  0  0  0  0  0  0  0  0  0  0  0
   -4.8189   -5.7236   30.3959 C   0  0  0  0  0  0  0  0  0  0  0  0
   -3.9198   -5.1865   29.5175 N   0  0  0  0  0  0  0  0  0  0  0  0
   -4.2876   -4.2857   28.5709 C   0  0  0  0  0  0  0  0  0  0  0  0
   -5.6484   -3.9041   28.4927 C   0  0  0  0  0  0  0  0  0  0  0  0
   -3.3392   -3.7896   27.7075 O   0  0  0  0  0  0  0  0  0  0  0  0
   -5.4769   -1.7399   27.1566 C   0  0  0  0  0  0  0  0  0  0  0  0
   -6.1838   -2.9348   27.5506 N   0  0  0  0  0  0  0  0  0  0  0  0
   -5.7027   -0.6361   27.6410 O   0  0  0  0  0  0  0  0  0  0  0  0
   -7.4947   -3.1842   27.1251 C   0  0  2  0  0  0  0  0  0  0  0  0
   -8.4357   -3.2501   28.3554 C   0  0  0  0  0  0  0  0  0  0  0  0
   -6.5675   -4.4652   29.4346 C   0  0  0  0  0  0  0  0  0  0  0  0
   -7.9852   -4.0977   29.3844 N   0  0  0  0  0  0  0  0  0  0  0  0
   -7.5684   -4.4736   26.3323 C   0  0  0  0  0  0  0  0  0  0  0  0
   -6.5752   -4.6736   25.3136 N   0  0  0  0  0  0  0  0  0  0  0  0
   -7.1980   -7.6113   22.3711 C   0  0  0  0  0  0  0  0  0  0  0  0
   -6.9969   -7.9958   23.6897 C   0  0  0  0  0  0  0  0  0  0  0  0
   -6.7979   -7.0245   24.6633 C   0  0  0  0  0  0  0  0  0  0  0  0
   -6.7873   -5.6750   24.3162 C   0  0  0  0  0  0  0  0  0  0  0  0
   -6.9775   -5.2970   22.9985 C   0  0  0  0  0  0  0  0  0  0  0  0
   -7.1876   -6.2676   22.0264 C   0  0  0  0  0  0  0  0  0  0  0  0
  1  2  1  0  0  0  0
  2  3  2  0  0  0  0
  2 20  1  0  0  0  0
  4  6  1  0  0  0  0
  5  6  2  0  0  0  0
  5 16  1  0  0  0  0
  6  7  1  0  0  0  0
  7  8  1  0  0  0  0
  8  9  1  0  0  0  0
  8 10  2  0  0  0  0
  9 12  1  0  0  0  0
  9 16  2  0  0  0  0
 11 13  1  0  0  0  0
 11 12  1  0  0  0  0
 12 14  1  0  0  0  0
 14 15  1  0  0  0  0
 14 18  1  1  0  0  0
 15 17  1  0  0  0  0
 16 17  1  0  0  0  0
 18 19  1  0  0  0  0
 19 23  1  0  0  0  0
 20 21  2  0  0  0  0
 20 25  1  0  0  0  0
 21 22  1  0  0  0  0
 22 23  2  0  0  0  0
 23 24  1  0  0  0  0
 24 25  2  0  0  0  0
M  END
>  <CHROM.1>
-99.18650745,-46.83536588,-163.81352859,-66.91934666,-18.77059159,-6.33183326
-5.17947083,26.35946237,-2.18220263,-1.19792626,0.49258196

>  <Name>
ligand

>  <RI>
0

>  <Rbt.Current_Directory>
/home/itssahil/PROJECTS/Mol_Feturizer/New_Systems/rnas/4LVV

>  <Rbt.Executable>
rbdock ($Id: //depot/dev/client3/rdock/2013.1/src/exe/rbdock.cxx#4 $)

>  <Rbt.Library>
libRbt.so (2013.1, Build901 2013/11/27)

>  <Rbt.Parameter_File>
/export/apps/rDock/src/rDock_2013.1_src/data/scripts/dock_solv.prm

>  <Rbt.Receptor>
prm/blind_docking_40.prm

>  <SCORE>
-9.1689

>  <SCORE.INTER>
-8.36955

>  <SCORE.INTER.CONST>
1

>  <SCORE.INTER.POLAR>
0

>  <SCORE.INTER.ROT>
5

>  <SCORE.INTER.SOLV>
10.7203

>  <SCORE.INTER.VDW>
-16.0865

>  <SCORE.INTER.norm>
-0.334782

>  <SCORE.INTRA>
-0.799346

>  <SCORE.INTRA.DIHEDRAL>
0.0109505

>  <SCORE.INTRA.DIHEDRAL.0>
3.94806

>  <SCORE.INTRA.POLAR>
0

>  <SCORE.INTRA.POLAR.0>
0

>  <SCORE.INTRA.REPUL>
0

>  <SCORE.INTRA.REPUL.0>
0

>  <SCORE.INTRA.SOLV>
0.194536

>  <SCORE.INTRA.SOLV.lig_0>
-70.9803

>  <SCORE.INTRA.VDW>
-0.902089

>  <SCORE.INTRA.VDW.0>
-0.709409

>  <SCORE.INTRA.norm>
-0.0319738

>  <SCORE.RESTR>
0

>  <SCORE.RESTR.CAVITY>
0

>  <SCORE.RESTR.norm>
0

>  <SCORE.SYSTEM>
0

>  <SCORE.SYSTEM.CONST>
0

>  <SCORE.SYSTEM.DIHEDRAL>
0

>  <SCORE.SYSTEM.SOLV>
0

>  <SCORE.SYSTEM.norm>
0

>  <SCORE.heavy>
25

>  <SCORE.norm>
-0.366756

>  <RMSD>
20.640

$$$$
ligand
 OpenBabel11021811503D
libRbt.so/2013.1/901 2013/11/27
 25 27  0  0  0  0  0  0  0  0999 V2000
   -9.6460   -6.3366   20.6999 N   0  0  0  0  0  0  0  0  0  0  0  0
   -9.2286   -5.4013   21.6982 C   0  0  0  0  0  0  0  0  0  0  0  0
   -9.8219   -4.3406   21.8495 O   0  0  0  0  0  0  0  0  0  0  0  0
    0.0118   -3.8333   30.2039 N   0  0  0  0  0  0  0  0  0  0  0  0
   -1.9038   -5.1493   29.6006 N   0  0  0  0  0  0  0  0  0  0  0  0
   -1.2786   -3.9493   29.6059 C   0  0  0  0  0  0  0  0  0  0  0  0
   -1.8665   -2.8440   29.0573 N   0  0  0  0  0  0  0  0  0  0  0  0
   -3.0942   -2.8925   28.4804 C   0  0  0  0  0  0  0  0  0  0  0  0
   -3.7750   -4.1329   28.4419 C   0  0  0  0  0  0  0  0  0  0  0  0
   -3.6285   -1.7490   27.9345 O   0  0  0  0  0  0  0  0  0  0  0  0
   -6.1677   -3.3682   28.0076 C   0  0  0  0  0  0  0  0  0  0  0  0
   -5.1014   -4.3325   27.8812 N   0  0  0  0  0  0  0  0  0  0  0  0
   -6.8014   -2.9390   27.0495 O   0  0  0  0  0  0  0  0  0  0  0  0
   -5.3135   -5.5861   27.2937 C   0  0  2  0  0  0  0  0  0  0  0  0
   -5.0451   -6.7003   28.3378 C   0  0  0  0  0  0  0  0  0  0  0  0
   -3.1480   -5.2718   29.0391 C   0  0  0  0  0  0  0  0  0  0  0  0
   -3.8192   -6.5744   29.0171 N   0  0  0  0  0  0  0  0  0  0  0  0
   -4.4237   -5.7712   26.0812 C   0  0  0  0  0  0  0  0  0  0  0  0
   -4.8529   -6.7218   25.0931 N   0  0  0  0  0  0  0  0  0  0  0  0
   -8.0675   -5.7482   22.5643 C   0  0  0  0  0  0  0  0  0  0  0  0
   -6.7718   -5.7145   22.0673 C   0  0  0  0  0  0  0  0  0  0  0  0
   -5.7100   -6.0430   22.9013 C   0  0  0  0  0  0  0  0  0  0  0  0
   -5.9432   -6.3909   24.2303 C   0  0  0  0  0  0  0  0  0  0  0  0
   -7.2358   -6.4127   24.7243 C   0  0  0  0  0  0  0  0  0  0  0  0
   -8.2989   -6.0951   23.8875 C   0  0  0  0  0  0  0  0  0  0  0  0
  1  2  1  0  0  0  0
  2  3  2  0  0  0  0
  2 20  1  0  0  0  0
  4  6  1  0  0  0  0
  5  6  2  0  0  0  0
  5 16  1  0  0  0  0
  6  7  1  0  0  0  0
  7  8  1  0  0  0  0
  8  9  1  0  0  0  0
  8 10  2  0  0  0  0
  9 12  1  0  0  0  0
  9 16  2  0  0  0  0
 11 13  1  0  0  0  0
 11 12  1  0  0  0  0
 12 14  1  0  0  0  0
 14 15  1  0  0  0  0
 14 18  1  6  0  0  0
 15 17  1  0  0  0  0
 16 17  1  0  0  0  0
 18 19  1  0  0  0  0
 19 23  1  0  0  0  0
 20 21  2  0  0  0  0
 20 25  1  0  0  0  0
 21 22  1  0  0  0  0
 22 23  2  0  0  0  0
 23 24  1  0  0  0  0
 24 25  2  0  0  0  0
M  END
>  <CHROM.1>
127.35166714,-156.65493439,73.80723201,104.86501020,73.88363072,-5.23457484
-4.91484471,26.28107348,-2.68280890,-0.76274728,0.38754290

>  <Name>
ligand

>  <RI>
0

>  <Rbt.Current_Directory>
/home/itssahil/PROJECTS/Mol_Feturizer/New_Systems/rnas/4LVV

>  <Rbt.Executable>
rbdock ($Id: //depot/dev/client3/rdock/2013.1/src/exe/rbdock.cxx#4 $)

>  <Rbt.Library>
libRbt.so (2013.1, Build901 2013/11/27)

>  <Rbt.Parameter_File>
/export/apps/rDock/src/rDock_2013.1_src/data/scripts/dock_solv.prm

>  <Rbt.Receptor>
prm/blind_docking_80.prm

>  <SCORE>
-9.53603

>  <SCORE.INTER>
-8.58019

>  <SCORE.INTER.CONST>
1

>  <SCORE.INTER.POLAR>
0

>  <SCORE.INTER.ROT>
5

>  <SCORE.INTER.SOLV>
18.1888

>  <SCORE.INTER.VDW>
-18.7164

>  <SCORE.INTER.norm>
-0.343208

>  <SCORE.INTRA>
-0.956402

>  <SCORE.INTRA.DIHEDRAL>
1.1793

>  <SCORE.INTRA.DIHEDRAL.0>
3.94806

>  <SCORE.INTRA.POLAR>
0

>  <SCORE.INTRA.POLAR.0>
0

>  <SCORE.INTRA.REPUL>
0

>  <SCORE.INTRA.REPUL.0>
0

>  <SCORE.INTRA.SOLV>
-0.466882

>  <SCORE.INTRA.SOLV.lig_0>
-70.9803

>  <SCORE.INTRA.VDW>
-1.31261

>  <SCORE.INTRA.VDW.0>
-0.709409

>  <SCORE.INTRA.norm>
-0.0382561

>  <SCORE.RESTR>
0.000561728

>  <SCORE.RESTR.CAVITY>
0.000561728

>  <SCORE.RESTR.norm>
2.24691e-05

>  <SCORE.SYSTEM>
0

>  <SCORE.SYSTEM.CONST>
0

>  <SCORE.SYSTEM.DIHEDRAL>
0

>  <SCORE.SYSTEM.SOLV>
0

>  <SCORE.SYSTEM.norm>
0

>  <SCORE.heavy>
25

>  <SCORE.norm>
-0.381441

>  <RMSD>
20.643

$$$$
ligand
 OpenBabel11021811503D
libRbt.so/2013.1/901 2013/11/27
 25 27  0  0  0  0  0  0  0  0999 V2000
   -8.8107   -7.4787   20.2366 N   0  0  0  0  0  0  0  0  0  0  0  0
   -9.1612   -6.8179   21.4555 C   0  0  0  0  0  0  0  0  0  0  0  0
  -10.3104   -6.4457   21.6580 O   0  0  0  0  0  0  0  0  0  0  0  0
   -6.7622   -1.3734   31.2502 N   0  0  0  0  0  0  0  0  0  0  0  0
   -5.2503   -2.7560   29.9980 N   0  0  0  0  0  0  0  0  0  0  0  0
   -6.4171   -2.6313   30.6717 C   0  0  0  0  0  0  0  0  0  0  0  0
   -7.2663   -3.6927   30.8164 N   0  0  0  0  0  0  0  0  0  0  0  0
   -6.9884   -4.9140   30.2934 C   0  0  0  0  0  0  0  0  0  0  0  0
   -5.7839   -5.0816   29.5691 C   0  0  0  0  0  0  0  0  0  0  0  0
   -7.8879   -5.9404   30.4620 O   0  0  0  0  0  0  0  0  0  0  0  0
   -5.5399   -7.6189   29.5992 C   0  0  0  0  0  0  0  0  0  0  0  0
   -5.3420   -6.3328   28.9751 N   0  0  0  0  0  0  0  0  0  0  0  0
   -4.9001   -7.9972   30.5746 O   0  0  0  0  0  0  0  0  0  0  0  0
   -4.6056   -6.1989   27.7912 C   0  0  2  0  0  0  0  0  0  0  0  0
   -3.3632   -5.3087   28.0511 C   0  0  0  0  0  0  0  0  0  0  0  0
   -4.9021   -3.9616   29.4469 C   0  0  0  0  0  0  0  0  0  0  0  0
   -3.6469   -4.0939   28.7022 N   0  0  0  0  0  0  0  0  0  0  0  0
   -5.4599   -5.6068   26.6886 C   0  0  0  0  0  0  0  0  0  0  0  0
   -5.0923   -5.9203   25.3355 N   0  0  0  0  0  0  0  0  0  0  0  0
   -8.1054   -6.6052   22.4845 C   0  0  0  0  0  0  0  0  0  0  0  0
   -7.8087   -7.5905   23.4161 C   0  0  0  0  0  0  0  0  0  0  0  0
   -6.8175   -7.3614   24.3627 C   0  0  0  0  0  0  0  0  0  0  0  0
   -6.1177   -6.1564   24.3683 C   0  0  0  0  0  0  0  0  0  0  0  0
   -6.4096   -5.1812   23.4307 C   0  0  0  0  0  0  0  0  0  0  0  0
   -7.4085   -5.4056   22.4909 C   0  0  0  0  0  0  0  0  0  0  0  0
  1  2  1  0  0  0  0
  2  3  2  0  0  0  0
  2 20  1  0  0  0  0
  4  6  1  0  0  0  0
  5  6  2  0  0  0  0
  5 16  1  0  0  0  0
  6  7  1  0  0  0  0
  7  8  1  0  0  0  0
  8  9  1  0  0  0  0
  8 10  2  0  0  0  0
  9 12  1  0  0  0  0
  9 16  2  0  0  0  0
 11 13  1  0  0  0  0
 11 12  1  0  0  0  0
 12 14  1  0  0  0  0
 14 15  1  0  0  0  0
 14 18  1  6  0  0  0
 15 17  1  0  0  0  0
 16 17  1  0  0  0  0
 18 19  1  0  0  0  0
 19 23  1  0  0  0  0
 20 21  2  0  0  0  0
 20 25  1  0  0  0  0
 21 22  1  0  0  0  0
 22 23  2  0  0  0  0
 23 24  1  0  0  0  0
 24 25  2  0  0  0  0
M  END
>  <CHROM.1>
-73.29938076,-153.97216420,141.71719117,-75.85350628,-85.77387510,-6.40191850
-5.55486375,26.97720068,2.00519536,0.80580284,-2.16781663

>  <Name>
ligand

>  <RI>
0

>  <Rbt.Current_Directory>
/home/itssahil/PROJECTS/Mol_Feturizer/New_Systems/rnas/4LVV

>  <Rbt.Executable>
rbdock ($Id: //depot/dev/client3/rdock/2013.1/src/exe/rbdock.cxx#4 $)

>  <Rbt.Library>
libRbt.so (2013.1, Build901 2013/11/27)

>  <Rbt.Parameter_File>
/export/apps/rDock/src/rDock_2013.1_src/data/scripts/dock_solv.prm

>  <Rbt.Receptor>
prm/blind_docking_40.prm

>  <SCORE>
-12.5705

>  <SCORE.INTER>
-12.2507

>  <SCORE.INTER.CONST>
1

>  <SCORE.INTER.POLAR>
0

>  <SCORE.INTER.ROT>
5

>  <SCORE.INTER.SOLV>
12.7344

>  <SCORE.INTER.VDW>
-19.3453

>  <SCORE.INTER.norm>
-0.490028

>  <SCORE.INTRA>
-0.31977

>  <SCORE.INTRA.DIHEDRAL>
2.1146

>  <SCORE.INTRA.DIHEDRAL.0>
3.94806

>  <SCORE.INTRA.POLAR>
0

>  <SCORE.INTRA.POLAR.0>
0

>  <SCORE.INTRA.REPUL>
0

>  <SCORE.INTRA.REPUL.0>
0

>  <SCORE.INTRA.SOLV>
-0.592923

>  <SCORE.INTRA.SOLV.lig_0>
-70.9803

>  <SCORE.INTRA.VDW>
-1.08061

>  <SCORE.INTRA.VDW.0>
-0.709409

>  <SCORE.INTRA.norm>
-0.0127908

>  <SCORE.RESTR>
0

>  <SCORE.RESTR.CAVITY>
0

>  <SCORE.RESTR.norm>
0

>  <SCORE.SYSTEM>
0

>  <SCORE.SYSTEM.CONST>
0

>  <SCORE.SYSTEM.DIHEDRAL>
0

>  <SCORE.SYSTEM.SOLV>
0

>  <SCORE.SYSTEM.norm>
0

>  <SCORE.heavy>
25

>  <SCORE.norm>
-0.502819

>  <RMSD>
20.650

$$$$
ligand
 OpenBabel11021811503D
libRbt.so/2013.1/901 2013/11/27
 25 27  0  0  0  0  0  0  0  0999 V2000
  -10.4303   -5.3237   21.6337 N   0  0  0  0  0  0  0  0  0  0  0  0
   -9.2589   -6.1081   21.3928 C   0  0  0  0  0  0  0  0  0  0  0  0
   -8.9847   -6.4933   20.2630 O   0  0  0  0  0  0  0  0  0  0  0  0
   -6.1179   -0.5354   27.6620 N   0  0  0  0  0  0  0  0  0  0  0  0
   -4.5889   -2.3784   27.4858 N   0  0  0  0  0  0  0  0  0  0  0  0
   -5.8195   -1.9223   27.8154 C   0  0  0  0  0  0  0  0  0  0  0  0
   -6.7784   -2.7658   28.3026 N   0  0  0  0  0  0  0  0  0  0  0  0
   -6.5502   -4.0926   28.4756 C   0  0  0  0  0  0  0  0  0  0  0  0
   -5.2797   -4.6114   28.1289 C   0  0  0  0  0  0  0  0  0  0  0  0
   -7.5587   -4.8931   28.9585 O   0  0  0  0  0  0  0  0  0  0  0  0
   -5.2871   -6.8220   29.3983 C   0  0  0  0  0  0  0  0  0  0  0  0
   -4.8830   -6.0016   28.2819 N   0  0  0  0  0  0  0  0  0  0  0  0
   -4.9119   -6.6220   30.5486 O   0  0  0  0  0  0  0  0  0  0  0  0
   -3.9822   -6.4701   27.3170 C   0  0  2  0  0  0  0  0  0  0  0  0
   -2.7073   -5.5881   27.3261 C   0  0  0  0  0  0  0  0  0  0  0  0
   -4.2861   -3.7063   27.6387 C   0  0  0  0  0  0  0  0  0  0  0  0
   -2.9594   -4.2049   27.2660 N   0  0  0  0  0  0  0  0  0  0  0  0
   -4.6168   -6.4693   25.9410 C   0  0  0  0  0  0  0  0  0  0  0  0
   -5.8007   -7.2642   25.7655 N   0  0  0  0  0  0  0  0  0  0  0  0
   -8.3669   -6.4348   22.5401 C   0  0  0  0  0  0  0  0  0  0  0  0
   -8.3081   -7.7231   23.0535 C   0  0  0  0  0  0  0  0  0  0  0  0
   -7.4649   -7.9956   24.1239 C   0  0  0  0  0  0  0  0  0  0  0  0
   -6.6747   -6.9858   24.6695 C   0  0  0  0  0  0  0  0  0  0  0  0
   -6.7287   -5.7053   24.1473 C   0  0  0  0  0  0  0  0  0  0  0  0
   -7.5800   -5.4298   23.0840 C   0  0  0  0  0  0  0  0  0  0  0  0
  1  2  1  0  0  0  0
  2  3  2  0  0  0  0
  2 20  1  0  0  0  0
  4  6  1  0  0  0  0
  5  6  2  0  0  0  0
  5 16  1  0  0  0  0
  6  7  1  0  0  0  0
  7  8  1  0  0  0  0
  8  9  1  0  0  0  0
  8 10  2  0  0  0  0
  9 12  1  0  0  0  0
  9 16  2  0  0  0  0
 11 13  1  0  0  0  0
 11 12  1  0  0  0  0
 12 14  1  0  0  0  0
 14 15  1  0  0  0  0
 14 18  1  6  0  0  0
 15 17  1  0  0  0  0
 16 17  1  0  0  0  0
 18 19  1  0  0  0  0
 19 23  1  0  0  0  0
 20 21  2  0  0  0  0
 20 25  1  0  0  0  0
 21 22  1  0  0  0  0
 22 23  2  0  0  0  0
 23 24  1  0  0  0  0
 24 25  2  0  0  0  0
M  END
>  <CHROM.1>
-66.94921255,-59.43631096,160.03047116,152.69842270,108.15104549,-6.21355053
-5.29683043,26.12368937,2.54589086,0.93818963,-2.74741401

>  <Name>
ligand

>  <RI>
0

>  <Rbt.Current_Directory>
/home/itssahil/PROJECTS/Mol_Feturizer/New_Systems/rnas/4LVV

>  <Rbt.Executable>
rbdock ($Id: //depot/dev/client3/rdock/2013.1/src/exe/rbdock.cxx#4 $)

>  <Rbt.Library>
libRbt.so (2013.1, Build901 2013/11/27)

>  <Rbt.Parameter_File>
/export/apps/rDock/src/rDock_2013.1_src/data/scripts/dock_solv.prm

>  <Rbt.Receptor>
prm/blind_docking_100.prm

>  <SCORE>
-12.3709

>  <SCORE.INTER>
-11.3696

>  <SCORE.INTER.CONST>
1

>  <SCORE.INTER.POLAR>
0

>  <SCORE.INTER.ROT>
5

>  <SCORE.INTER.SOLV>
16.4685

>  <SCORE.INTER.VDW>
-20.0025

>  <SCORE.INTER.norm>
-0.454783

>  <SCORE.INTRA>
-1.0013

>  <SCORE.INTRA.DIHEDRAL>
-0.448805

>  <SCORE.INTRA.DIHEDRAL.0>
3.94806

>  <SCORE.INTRA.POLAR>
0

>  <SCORE.INTRA.POLAR.0>
0

>  <SCORE.INTRA.REPUL>
0

>  <SCORE.INTRA.REPUL.0>
0

>  <SCORE.INTRA.SOLV>
-0.0571873

>  <SCORE.INTRA.SOLV.lig_0>
-70.9803

>  <SCORE.INTRA.VDW>
-0.748302

>  <SCORE.INTRA.VDW.0>
-0.709409

>  <SCORE.INTRA.norm>
-0.0400519

>  <SCORE.RESTR>
0

>  <SCORE.RESTR.CAVITY>
0

>  <SCORE.RESTR.norm>
0

>  <SCORE.SYSTEM>
0

>  <SCORE.SYSTEM.CONST>
0

>  <SCORE.SYSTEM.DIHEDRAL>
0

>  <SCORE.SYSTEM.SOLV>
0

>  <SCORE.SYSTEM.norm>
0

>  <SCORE.heavy>
25

>  <SCORE.norm>
-0.494835

>  <RMSD>
20.656

$$$$
ligand
 OpenBabel11021811503D
libRbt.so/2013.1/901 2013/11/27
 25 27  0  0  0  0  0  0  0  0999 V2000
  -10.1424   -6.2260   21.1089 N   0  0  0  0  0  0  0  0  0  0  0  0
   -8.7579   -6.5844   21.0957 C   0  0  0  0  0  0  0  0  0  0  0  0
   -8.2426   -7.0554   20.0894 O   0  0  0  0  0  0  0  0  0  0  0  0
   -6.5871   -0.8191   27.2478 N   0  0  0  0  0  0  0  0  0  0  0  0
   -5.0468   -2.6580   27.3542 N   0  0  0  0  0  0  0  0  0  0  0  0
   -6.2818   -2.1660   27.6065 C   0  0  0  0  0  0  0  0  0  0  0  0
   -7.2389   -2.9342   28.2084 N   0  0  0  0  0  0  0  0  0  0  0  0
   -7.0044   -4.2193   28.5771 C   0  0  0  0  0  0  0  0  0  0  0  0
   -5.7289   -4.7756   28.3173 C   0  0  0  0  0  0  0  0  0  0  0  0
   -8.0113   -4.9458   29.1681 O   0  0  0  0  0  0  0  0  0  0  0  0
   -5.7315   -6.7738   29.9001 C   0  0  0  0  0  0  0  0  0  0  0  0
   -5.3254   -6.1253   28.6765 N   0  0  0  0  0  0  0  0  0  0  0  0
   -5.2764   -6.4778   30.9997 O   0  0  0  0  0  0  0  0  0  0  0  0
   -4.4163   -6.7256   27.7962 C   0  0  2  0  0  0  0  0  0  0  0  0
   -3.1464   -5.8439   27.6810 C   0  0  0  0  0  0  0  0  0  0  0  0
   -4.7375   -3.9466   27.7036 C   0  0  0  0  0  0  0  0  0  0  0  0
   -3.4059   -4.4865   27.4155 N   0  0  0  0  0  0  0  0  0  0  0  0
   -5.0428   -6.9326   26.4321 C   0  0  0  0  0  0  0  0  0  0  0  0
   -5.7042   -5.8044   25.8373 N   0  0  0  0  0  0  0  0  0  0  0  0
   -7.9474   -6.3581   22.3248 C   0  0  0  0  0  0  0  0  0  0  0  0
   -7.2687   -5.1634   22.5216 C   0  0  0  0  0  0  0  0  0  0  0  0
   -6.5218   -4.9831   23.6794 C   0  0  0  0  0  0  0  0  0  0  0  0
   -6.4652   -5.9893   24.6417 C   0  0  0  0  0  0  0  0  0  0  0  0
   -7.1523   -7.1746   24.4460 C   0  0  0  0  0  0  0  0  0  0  0  0
   -7.8903   -7.3596   23.2831 C   0  0  0  0  0  0  0  0  0  0  0  0
  1  2  1  0  0  0  0
  2  3  2  0  0  0  0
  2 20  1  0  0  0  0
  4  6  1  0  0  0  0
  5  6  2  0  0  0  0
  5 16  1  0  0  0  0
  6  7  1  0  0  0  0
  7  8  1  0  0  0  0
  8  9  1  0  0  0  0
  8 10  2  0  0  0  0
  9 12  1  0  0  0  0
  9 16  2  0  0  0  0
 11 13  1  0  0  0  0
 11 12  1  0  0  0  0
 12 14  1  0  0  0  0
 14 15  1  0  0  0  0
 14 18  1  6  0  0  0
 15 17  1  0  0  0  0
 16 17  1  0  0  0  0
 18 19  1  0  0  0  0
 19 23  1  0  0  0  0
 20 21  2  0  0  0  0
 20 25  1  0  0  0  0
 21 22  1  0  0  0  0
 22 23  2  0  0  0  0
 23 24  1  0  0  0  0
 24 25  2  0  0  0  0
M  END
>  <CHROM.1>
-73.40751385,49.75028698,-171.56703455,-146.05743569,-90.69897931,-6.34851395
-5.31009064,26.16798541,2.44775077,1.07209296,-2.61518135

>  <Name>
ligand

>  <RI>
0

>  <Rbt.Current_Directory>
/home/itssahil/PROJECTS/Mol_Feturizer/New_Systems/rnas/4LVV

>  <Rbt.Executable>
rbdock ($Id: //depot/dev/client3/rdock/2013.1/src/exe/rbdock.cxx#4 $)

>  <Rbt.Library>
libRbt.so (2013.1, Build901 2013/11/27)

>  <Rbt.Parameter_File>
/export/apps/rDock/src/rDock_2013.1_src/data/scripts/dock_solv.prm

>  <Rbt.Receptor>
prm/blind_docking_40.prm

>  <SCORE>
-11.2281

>  <SCORE.INTER>
-11.3662

>  <SCORE.INTER.CONST>
1

>  <SCORE.INTER.POLAR>
0

>  <SCORE.INTER.ROT>
5

>  <SCORE.INTER.SOLV>
15.3814

>  <SCORE.INTER.VDW>
-19.6379

>  <SCORE.INTER.norm>
-0.454649

>  <SCORE.INTRA>
0.138106

>  <SCORE.INTRA.DIHEDRAL>
-0.420068

>  <SCORE.INTRA.DIHEDRAL.0>
3.94806

>  <SCORE.INTRA.POLAR>
0

>  <SCORE.INTRA.POLAR.0>
0

>  <SCORE.INTRA.REPUL>
0

>  <SCORE.INTRA.REPUL.0>
0

>  <SCORE.INTRA.SOLV>
2.29532

>  <SCORE.INTRA.SOLV.lig_0>
-70.9803

>  <SCORE.INTRA.VDW>
-0.799522

>  <SCORE.INTRA.VDW.0>
-0.709409

>  <SCORE.INTRA.norm>
0.00552423

>  <SCORE.RESTR>
0

>  <SCORE.RESTR.CAVITY>
0

>  <SCORE.RESTR.norm>
0

>  <SCORE.SYSTEM>
0

>  <SCORE.SYSTEM.CONST>
0

>  <SCORE.SYSTEM.DIHEDRAL>
0

>  <SCORE.SYSTEM.SOLV>
0

>  <SCORE.SYSTEM.norm>
0

>  <SCORE.heavy>
25

>  <SCORE.norm>
-0.449125

>  <RMSD>
20.658

$$$$
ligand
 OpenBabel11021811503D
libRbt.so/2013.1/901 2013/11/27
 25 27  0  0  0  0  0  0  0  0999 V2000
  -10.1371   -5.9222   21.1045 N   0  0  0  0  0  0  0  0  0  0  0  0
   -8.8440   -6.5311   21.1537 C   0  0  0  0  0  0  0  0  0  0  0  0
   -8.4169   -7.1720   20.2013 O   0  0  0  0  0  0  0  0  0  0  0  0
   -6.6298   -0.8229   27.2354 N   0  0  0  0  0  0  0  0  0  0  0  0
   -5.0567   -2.6348   27.3210 N   0  0  0  0  0  0  0  0  0  0  0  0
   -6.2956   -2.1634   27.5924 C   0  0  0  0  0  0  0  0  0  0  0  0
   -7.2293   -2.9462   28.2121 N   0  0  0  0  0  0  0  0  0  0  0  0
   -6.9666   -4.2260   28.5802 C   0  0  0  0  0  0  0  0  0  0  0  0
   -5.6863   -4.7610   28.3008 C   0  0  0  0  0  0  0  0  0  0  0  0
   -7.9509   -4.9680   29.1897 O   0  0  0  0  0  0  0  0  0  0  0  0
   -5.6283   -6.7545   29.8885 C   0  0  0  0  0  0  0  0  0  0  0  0
   -5.2537   -6.1026   28.6567 N   0  0  0  0  0  0  0  0  0  0  0  0
   -5.1248   -6.4809   30.9727 O   0  0  0  0  0  0  0  0  0  0  0  0
   -4.3491   -6.6898   27.7630 C   0  0  2  0  0  0  0  0  0  0  0  0
   -3.0966   -5.7867   27.6245 C   0  0  0  0  0  0  0  0  0  0  0  0
   -4.7195   -3.9170   27.6685 C   0  0  0  0  0  0  0  0  0  0  0  0
   -3.3837   -4.4348   27.3598 N   0  0  0  0  0  0  0  0  0  0  0  0
   -4.9944   -6.9114   26.4100 C   0  0  0  0  0  0  0  0  0  0  0  0
   -5.6371   -5.7815   25.7981 N   0  0  0  0  0  0  0  0  0  0  0  0
   -8.0163   -6.3574   22.3799 C   0  0  0  0  0  0  0  0  0  0  0  0
   -7.9142   -7.3726   23.3211 C   0  0  0  0  0  0  0  0  0  0  0  0
   -7.1333   -7.1796   24.4541 C   0  0  0  0  0  0  0  0  0  0  0  0
   -6.4474   -5.9806   24.6377 C   0  0  0  0  0  0  0  0  0  0  0  0
   -6.5437   -4.9754   23.6913 C   0  0  0  0  0  0  0  0  0  0  0  0
   -7.3334   -5.1638   22.5635 C   0  0  0  0  0  0  0  0  0  0  0  0
  1  2  1  0  0  0  0
  2  3  2  0  0  0  0
  2 20  1  0  0  0  0
  4  6  1  0  0  0  0
  5  6  2  0  0  0  0
  5 16  1  0  0  0  0
  6  7  1  0  0  0  0
  7  8  1  0  0  0  0
  8  9  1  0  0  0  0
  8 10  2  0  0  0  0
  9 12  1  0  0  0  0
  9 16  2  0  0  0  0
 11 13  1  0  0  0  0
 11 12  1  0  0  0  0
 12 14  1  0  0  0  0
 14 15  1  0  0  0  0
 14 18  1  6  0  0  0
 15 17  1  0  0  0  0
 16 17  1  0  0  0  0
 18 19  1  0  0  0  0
 19 23  1  0  0  0  0
 20 21  2  0  0  0  0
 20 25  1  0  0  0  0
 21 22  1  0  0  0  0
 22 23  2  0  0  0  0
 23 24  1  0  0  0  0
 24 25  2  0  0  0  0
M  END
>  <CHROM.1>
-76.14755813,52.25594637,-169.69983523,30.46920241,101.82071009,-6.33561056
-5.29091483,26.16651177,2.44090266,1.04139377,-2.59489694

>  <Name>
ligand

>  <RI>
0

>  <Rbt.Current_Directory>
/home/itssahil/PROJECTS/Mol_Feturizer/New_Systems/rnas/4LVV

>  <Rbt.Executable>
rbdock ($Id: //depot/dev/client3/rdock/2013.1/src/exe/rbdock.cxx#4 $)

>  <Rbt.Library>
libRbt.so (2013.1, Build901 2013/11/27)

>  <Rbt.Parameter_File>
/export/apps/rDock/src/rDock_2013.1_src/data/scripts/dock_solv.prm

>  <Rbt.Receptor>
prm/blind_docking_100.prm

>  <SCORE>
-11.2139

>  <SCORE.INTER>
-11.2437

>  <SCORE.INTER.CONST>
1

>  <SCORE.INTER.POLAR>
0

>  <SCORE.INTER.ROT>
5

>  <SCORE.INTER.SOLV>
15.3969

>  <SCORE.INTER.VDW>
-19.5614

>  <SCORE.INTER.norm>
-0.449749

>  <SCORE.INTRA>
0.0298525

>  <SCORE.INTRA.DIHEDRAL>
-0.506649

>  <SCORE.INTRA.DIHEDRAL.0>
3.94806

>  <SCORE.INTRA.POLAR>
0

>  <SCORE.INTRA.POLAR.0>
0

>  <SCORE.INTRA.REPUL>
0

>  <SCORE.INTRA.REPUL.0>
0

>  <SCORE.INTRA.SOLV>
2.26822

>  <SCORE.INTRA.SOLV.lig_0>
-70.9803

>  <SCORE.INTRA.VDW>
-0.850934

>  <SCORE.INTRA.VDW.0>
-0.709409

>  <SCORE.INTRA.norm>
0.0011941

>  <SCORE.RESTR>
0

>  <SCORE.RESTR.CAVITY>
0

>  <SCORE.RESTR.norm>
0

>  <SCORE.SYSTEM>
0

>  <SCORE.SYSTEM.CONST>
0

>  <SCORE.SYSTEM.DIHEDRAL>
0

>  <SCORE.SYSTEM.SOLV>
0

>  <SCORE.SYSTEM.norm>
0

>  <SCORE.heavy>
25

>  <SCORE.norm>
-0.448555

>  <RMSD>
20.671

$$$$
ligand
 OpenBabel11021811503D
libRbt.so/2013.1/901 2013/11/27
 25 27  0  0  0  0  0  0  0  0999 V2000
   -8.7126   -7.4965   20.0485 N   0  0  0  0  0  0  0  0  0  0  0  0
   -9.0566   -6.7515   21.2199 C   0  0  0  0  0  0  0  0  0  0  0  0
  -10.1901   -6.3135   21.3730 O   0  0  0  0  0  0  0  0  0  0  0  0
   -7.0293   -1.2918   30.9258 N   0  0  0  0  0  0  0  0  0  0  0  0
   -5.4523   -2.6599   29.7397 N   0  0  0  0  0  0  0  0  0  0  0  0
   -6.6211   -2.5598   30.4141 C   0  0  0  0  0  0  0  0  0  0  0  0
   -7.4127   -3.6545   30.6223 N   0  0  0  0  0  0  0  0  0  0  0  0
   -7.0733   -4.8865   30.1645 C   0  0  0  0  0  0  0  0  0  0  0  0
   -5.8648   -5.0302   29.4417 C   0  0  0  0  0  0  0  0  0  0  0  0
   -7.9168   -5.9477   30.3951 O   0  0  0  0  0  0  0  0  0  0  0  0
   -5.4877   -7.5459   29.6079 C   0  0  0  0  0  0  0  0  0  0  0  0
   -5.3603   -6.2872   28.9135 N   0  0  0  0  0  0  0  0  0  0  0  0
   -6.2208   -8.4518   29.2262 O   0  0  0  0  0  0  0  0  0  0  0  0
   -4.6372   -6.1799   27.7188 C   0  0  2  0  0  0  0  0  0  0  0  0
   -3.4421   -5.2132   27.9209 C   0  0  0  0  0  0  0  0  0  0  0  0
   -5.0437   -3.8740   29.2525 C   0  0  0  0  0  0  0  0  0  0  0  0
   -3.7865   -3.9811   28.5070 N   0  0  0  0  0  0  0  0  0  0  0  0
   -5.5262   -5.6944   26.5918 C   0  0  0  0  0  0  0  0  0  0  0  0
   -5.1074   -5.9962   25.2510 N   0  0  0  0  0  0  0  0  0  0  0  0
   -8.0143   -6.5317   22.2610 C   0  0  0  0  0  0  0  0  0  0  0  0
   -7.3070   -5.3388   22.3215 C   0  0  0  0  0  0  0  0  0  0  0  0
   -6.3415   -5.1646   23.3055 C   0  0  0  0  0  0  0  0  0  0  0  0
   -6.0943   -6.1749   24.2328 C   0  0  0  0  0  0  0  0  0  0  0  0
   -6.8095   -7.3584   24.1751 C   0  0  0  0  0  0  0  0  0  0  0  0
   -7.7674   -7.5373   23.1844 C   0  0  0  0  0  0  0  0  0  0  0  0
  1  2  1  0  0  0  0
  2  3  2  0  0  0  0
  2 20  1  0  0  0  0
  4  6  1  0  0  0  0
  5  6  2  0  0  0  0
  5 16  1  0  0  0  0
  6  7  1  0  0  0  0
  7  8  1  0  0  0  0
  8  9  1  0  0  0  0
  8 10  2  0  0  0  0
  9 12  1  0  0  0  0
  9 16  2  0  0  0  0
 11 13  1  0  0  0  0
 11 12  1  0  0  0  0
 12 14  1  0  0  0  0
 14 15  1  0  0  0  0
 14 18  1  6  0  0  0
 15 17  1  0  0  0  0
 16 17  1  0  0  0  0
 18 19  1  0  0  0  0
 19 23  1  0  0  0  0
 20 21  2  0  0  0  0
 20 25  1  0  0  0  0
 21 22  1  0  0  0  0
 22 23  2  0  0  0  0
 23 24  1  0  0  0  0
 24 25  2  0  0  0  0
M  END
>  <CHROM.1>
110.42253907,-157.44670328,149.94588857,103.00207008,98.68960886,-6.49773852
-5.53676126,26.75596608,2.03799440,0.96157335,-2.25327991

>  <Name>
ligand

>  <RI>
0

>  <Rbt.Current_Directory>
/home/itssahil/PROJECTS/Mol_Feturizer/New_Systems/rnas/4LVV

>  <Rbt.Executable>
rbdock ($Id: //depot/dev/client3/rdock/2013.1/src/exe/rbdock.cxx#4 $)

>  <Rbt.Library>
libRbt.so (2013.1, Build901 2013/11/27)

>  <Rbt.Parameter_File>
/export/apps/rDock/src/rDock_2013.1_src/data/scripts/dock_solv.prm

>  <Rbt.Receptor>
prm/blind_docking_60.prm

>  <SCORE>
-12.9714

>  <SCORE.INTER>
-12.5757

>  <SCORE.INTER.CONST>
1

>  <SCORE.INTER.POLAR>
0

>  <SCORE.INTER.ROT>
5

>  <SCORE.INTER.SOLV>
13.8345

>  <SCORE.INTER.VDW>
-19.9287

>  <SCORE.INTER.norm>
-0.503029

>  <SCORE.INTRA>
-0.395715

>  <SCORE.INTRA.DIHEDRAL>
1.67582

>  <SCORE.INTRA.DIHEDRAL.0>
3.94806

>  <SCORE.INTRA.POLAR>
0

>  <SCORE.INTRA.POLAR.0>
0

>  <SCORE.INTRA.REPUL>
0

>  <SCORE.INTRA.REPUL.0>
0

>  <SCORE.INTRA.SOLV>
-0.426028

>  <SCORE.INTRA.SOLV.lig_0>
-70.9803

>  <SCORE.INTRA.VDW>
-1.02061

>  <SCORE.INTRA.VDW.0>
-0.709409

>  <SCORE.INTRA.norm>
-0.0158286

>  <SCORE.RESTR>
0

>  <SCORE.RESTR.CAVITY>
0

>  <SCORE.RESTR.norm>
0

>  <SCORE.SYSTEM>
0

>  <SCORE.SYSTEM.CONST>
0

>  <SCORE.SYSTEM.DIHEDRAL>
0

>  <SCORE.SYSTEM.SOLV>
0

>  <SCORE.SYSTEM.norm>
0

>  <SCORE.heavy>
25

>  <SCORE.norm>
-0.518858

>  <RMSD>
20.674

$$$$
ligand
 OpenBabel11021811503D
libRbt.so/2013.1/901 2013/11/27
 25 27  0  0  0  0  0  0  0  0999 V2000
   -8.6902   -6.9084   20.3774 N   0  0  0  0  0  0  0  0  0  0  0  0
   -8.8920   -6.1417   21.5677 C   0  0  0  0  0  0  0  0  0  0  0  0
   -9.7975   -5.3199   21.6372 O   0  0  0  0  0  0  0  0  0  0  0  0
   -8.2131   -1.5437   30.2729 N   0  0  0  0  0  0  0  0  0  0  0  0
   -6.2050   -2.6898   29.6252 N   0  0  0  0  0  0  0  0  0  0  0  0
   -7.5100   -2.7498   29.9779 C   0  0  0  0  0  0  0  0  0  0  0  0
   -8.1636   -3.9471   30.0663 N   0  0  0  0  0  0  0  0  0  0  0  0
   -7.5452   -5.1265   29.8035 C   0  0  0  0  0  0  0  0  0  0  0  0
   -6.1836   -5.1050   29.4173 C   0  0  0  0  0  0  0  0  0  0  0  0
   -8.2590   -6.2980   29.8980 O   0  0  0  0  0  0  0  0  0  0  0  0
   -5.5064   -7.5215   29.8652 C   0  0  0  0  0  0  0  0  0  0  0  0
   -5.3857   -6.2858   29.1295 N   0  0  0  0  0  0  0  0  0  0  0  0
   -6.0986   -8.5046   29.4333 O   0  0  0  0  0  0  0  0  0  0  0  0
   -4.4023   -6.1111   28.1477 C   0  0  2  0  0  0  0  0  0  0  0  0
   -3.4505   -4.9609   28.5656 C   0  0  0  0  0  0  0  0  0  0  0  0
   -5.5154   -3.8418   29.3499 C   0  0  0  0  0  0  0  0  0  0  0  0
   -4.1067   -3.7772   28.9511 N   0  0  0  0  0  0  0  0  0  0  0  0
   -5.0310   -5.8152   26.8010 C   0  0  0  0  0  0  0  0  0  0  0  0
   -5.3880   -6.9414   25.9834 N   0  0  0  0  0  0  0  0  0  0  0  0
   -7.9901   -6.3728   22.7304 C   0  0  0  0  0  0  0  0  0  0  0  0
   -8.0385   -7.5617   23.4453 C   0  0  0  0  0  0  0  0  0  0  0  0
   -7.1832   -7.7468   24.5247 C   0  0  0  0  0  0  0  0  0  0  0  0
   -6.2745   -6.7514   24.8786 C   0  0  0  0  0  0  0  0  0  0  0  0
   -6.2225   -5.5721   24.1563 C   0  0  0  0  0  0  0  0  0  0  0  0
   -7.0854   -5.3821   23.0836 C   0  0  0  0  0  0  0  0  0  0  0  0
  1  2  1  0  0  0  0
  2  3  2  0  0  0  0
  2 20  1  0  0  0  0
  4  6  1  0  0  0  0
  5  6  2  0  0  0  0
  5 16  1  0  0  0  0
  6  7  1  0  0  0  0
  7  8  1  0  0  0  0
  8  9  1  0  0  0  0
  8 10  2  0  0  0  0
  9 12  1  0  0  0  0
  9 16  2  0  0  0  0
 11 13  1  0  0  0  0
 11 12  1  0  0  0  0
 12 14  1  0  0  0  0
 14 15  1  0  0  0  0
 14 18  1  6  0  0  0
 15 17  1  0  0  0  0
 16 17  1  0  0  0  0
 18 19  1  0  0  0  0
 19 23  1  0  0  0  0
 20 21  2  0  0  0  0
 20 25  1  0  0  0  0
 21 22  1  0  0  0  0
 22 23  2  0  0  0  0
 23 24  1  0  0  0  0
 24 25  2  0  0  0  0
M  END
>  <CHROM.1>
102.84776694,-87.55104675,164.29150079,-145.36034823,-68.73250169,-6.68708826
-5.57091294,26.94174347,1.95668512,0.84546631,-2.10843845

>  <Name>
ligand

>  <RI>
0

>  <Rbt.Current_Directory>
/home/itssahil/PROJECTS/Mol_Feturizer/New_Systems/rnas/4LVV

>  <Rbt.Executable>
rbdock ($Id: //depot/dev/client3/rdock/2013.1/src/exe/rbdock.cxx#4 $)

>  <Rbt.Library>
libRbt.so (2013.1, Build901 2013/11/27)

>  <Rbt.Parameter_File>
/export/apps/rDock/src/rDock_2013.1_src/data/scripts/dock_solv.prm

>  <Rbt.Receptor>
prm/blind_docking_80.prm

>  <SCORE>
-12.8364

>  <SCORE.INTER>
-13.1182

>  <SCORE.INTER.CONST>
1

>  <SCORE.INTER.POLAR>
0

>  <SCORE.INTER.ROT>
5

>  <SCORE.INTER.SOLV>
13.9285

>  <SCORE.INTER.VDW>
-20.3216

>  <SCORE.INTER.norm>
-0.524727

>  <SCORE.INTRA>
0.281801

>  <SCORE.INTRA.DIHEDRAL>
1.91512

>  <SCORE.INTRA.DIHEDRAL.0>
3.94806

>  <SCORE.INTRA.POLAR>
0

>  <SCORE.INTRA.POLAR.0>
0

>  <SCORE.INTRA.REPUL>
0

>  <SCORE.INTRA.REPUL.0>
0

>  <SCORE.INTRA.SOLV>
-0.0589323

>  <SCORE.INTRA.SOLV.lig_0>
-70.9803

>  <SCORE.INTRA.VDW>
-0.646291

>  <SCORE.INTRA.VDW.0>
-0.709409

>  <SCORE.INTRA.norm>
0.011272

>  <SCORE.RESTR>
0

>  <SCORE.RESTR.CAVITY>
0

>  <SCORE.RESTR.norm>
0

>  <SCORE.SYSTEM>
0

>  <SCORE.SYSTEM.CONST>
0

>  <SCORE.SYSTEM.DIHEDRAL>
0

>  <SCORE.SYSTEM.SOLV>
0

>  <SCORE.SYSTEM.norm>
0

>  <SCORE.heavy>
25

>  <SCORE.norm>
-0.513455

>  <RMSD>
20.689

$$$$
ligand
 OpenBabel11021811503D
libRbt.so/2013.1/901 2013/11/27
 25 27  0  0  0  0  0  0  0  0999 V2000
   -8.4210   -6.8036   20.2480 N   0  0  0  0  0  0  0  0  0  0  0  0
   -8.7470   -6.1094   21.4551 C   0  0  0  0  0  0  0  0  0  0  0  0
   -9.6998   -5.3410   21.4977 O   0  0  0  0  0  0  0  0  0  0  0  0
   -8.2795   -1.4867   30.1053 N   0  0  0  0  0  0  0  0  0  0  0  0
   -6.2503   -2.6215   29.5055 N   0  0  0  0  0  0  0  0  0  0  0  0
   -7.5574   -2.6903   29.8487 C   0  0  0  0  0  0  0  0  0  0  0  0
   -8.1952   -3.8938   29.9637 N   0  0  0  0  0  0  0  0  0  0  0  0
   -7.5583   -5.0711   29.7379 C   0  0  0  0  0  0  0  0  0  0  0  0
   -6.1938   -5.0409   29.3627 C   0  0  0  0  0  0  0  0  0  0  0  0
   -8.2568   -6.2495   29.8577 O   0  0  0  0  0  0  0  0  0  0  0  0
   -5.4875   -7.4348   29.8810 C   0  0  0  0  0  0  0  0  0  0  0  0
   -5.3773   -6.2177   29.1134 N   0  0  0  0  0  0  0  0  0  0  0  0
   -6.0554   -8.4399   29.4674 O   0  0  0  0  0  0  0  0  0  0  0  0
   -4.3878   -6.0556   28.1355 C   0  0  2  0  0  0  0  0  0  0  0  0
   -3.4556   -4.8815   28.5305 C   0  0  0  0  0  0  0  0  0  0  0  0
   -5.5425   -3.7707   29.2670 C   0  0  0  0  0  0  0  0  0  0  0  0
   -4.1314   -3.6972   28.8785 N   0  0  0  0  0  0  0  0  0  0  0  0
   -5.0086   -5.8046   26.7762 C   0  0  0  0  0  0  0  0  0  0  0  0
   -5.5137   -6.9468   26.0660 N   0  0  0  0  0  0  0  0  0  0  0  0
   -7.9159   -6.3509   22.6674 C   0  0  0  0  0  0  0  0  0  0  0  0
   -7.9829   -7.5582   23.3491 C   0  0  0  0  0  0  0  0  0  0  0  0
   -7.1940   -7.7525   24.4764 C   0  0  0  0  0  0  0  0  0  0  0  0
   -6.3323   -6.7476   24.9115 C   0  0  0  0  0  0  0  0  0  0  0  0
   -6.2610   -5.5496   24.2223 C   0  0  0  0  0  0  0  0  0  0  0  0
   -7.0581   -5.3507   23.1014 C   0  0  0  0  0  0  0  0  0  0  0  0
  1  2  1  0  0  0  0
  2  3  2  0  0  0  0
  2 20  1  0  0  0  0
  4  6  1  0  0  0  0
  5  6  2  0  0  0  0
  5 16  1  0  0  0  0
  6  7  1  0  0  0  0
  7  8  1  0  0  0  0
  8  9  1  0  0  0  0
  8 10  2  0  0  0  0
  9 12  1  0  0  0  0
  9 16  2  0  0  0  0
 11 13  1  0  0  0  0
 11 12  1  0  0  0  0
 12 14  1  0  0  0  0
 14 15  1  0  0  0  0
 14 18  1  6  0  0  0
 15 17  1  0  0  0  0
 16 17  1  0  0  0  0
 18 19  1  0  0  0  0
 19 23  1  0  0  0  0
 20 21  2  0  0  0  0
 20 25  1  0  0  0  0
 21 22  1  0  0  0  0
 22 23  2  0  0  0  0
 23 24  1  0  0  0  0
 24 25  2  0  0  0  0
M  END
>  <CHROM.1>
103.29501356,-79.08229460,168.02950361,-158.01130198,-71.08574334,-6.67531122
-5.52601723,26.89101734,1.95089383,0.87674351,-2.11089092

>  <Name>
ligand

>  <RI>
0

>  <Rbt.Current_Directory>
/home/itssahil/PROJECTS/Mol_Feturizer/New_Systems/rnas/4LVV

>  <Rbt.Executable>
rbdock ($Id: //depot/dev/client3/rdock/2013.1/src/exe/rbdock.cxx#4 $)

>  <Rbt.Library>
libRbt.so (2013.1, Build901 2013/11/27)

>  <Rbt.Parameter_File>
/export/apps/rDock/src/rDock_2013.1_src/data/scripts/dock_solv.prm

>  <Rbt.Receptor>
prm/blind_docking_40.prm

>  <SCORE>
-12.7595

>  <SCORE.INTER>
-12.7659

>  <SCORE.INTER.CONST>
1

>  <SCORE.INTER.POLAR>
0

>  <SCORE.INTER.ROT>
5

>  <SCORE.INTER.SOLV>
13.88

>  <SCORE.INTER.VDW>
-20.0706

>  <SCORE.INTER.norm>
-0.510637

>  <SCORE.INTRA>
0.0064598

>  <SCORE.INTRA.DIHEDRAL>
0.746154

>  <SCORE.INTRA.DIHEDRAL.0>
3.94806

>  <SCORE.INTRA.POLAR>
0

>  <SCORE.INTRA.POLAR.0>
0

>  <SCORE.INTRA.REPUL>
0

>  <SCORE.INTRA.REPUL.0>
0

>  <SCORE.INTRA.SOLV>
0.110181

>  <SCORE.INTRA.SOLV.lig_0>
-70.9803

>  <SCORE.INTRA.VDW>
-0.421708

>  <SCORE.INTRA.VDW.0>
-0.709409

>  <SCORE.INTRA.norm>
0.000258392

>  <SCORE.RESTR>
0

>  <SCORE.RESTR.CAVITY>
0

>  <SCORE.RESTR.norm>
0

>  <SCORE.SYSTEM>
0

>  <SCORE.SYSTEM.CONST>
0

>  <SCORE.SYSTEM.DIHEDRAL>
0

>  <SCORE.SYSTEM.SOLV>
0

>  <SCORE.SYSTEM.norm>
0

>  <SCORE.heavy>
25

>  <SCORE.norm>
-0.510378

>  <RMSD>
20.699

$$$$
ligand
 OpenBabel11021811503D
libRbt.so/2013.1/901 2013/11/27
 25 27  0  0  0  0  0  0  0  0999 V2000
  -10.0931   -5.4348   21.6529 N   0  0  0  0  0  0  0  0  0  0  0  0
   -8.8894   -6.1897   21.4897 C   0  0  0  0  0  0  0  0  0  0  0  0
   -8.5979   -6.6766   20.4043 O   0  0  0  0  0  0  0  0  0  0  0  0
   -8.2747   -1.5326   30.2037 N   0  0  0  0  0  0  0  0  0  0  0  0
   -6.2529   -2.6519   29.5521 N   0  0  0  0  0  0  0  0  0  0  0  0
   -7.5538   -2.7299   29.9159 C   0  0  0  0  0  0  0  0  0  0  0  0
   -8.1865   -3.9369   30.0223 N   0  0  0  0  0  0  0  0  0  0  0  0
   -7.5505   -5.1086   29.7671 C   0  0  0  0  0  0  0  0  0  0  0  0
   -6.1925   -5.0686   29.3697 C   0  0  0  0  0  0  0  0  0  0  0  0
   -8.2438   -6.2908   29.8798 O   0  0  0  0  0  0  0  0  0  0  0  0
   -5.4714   -7.4684   29.8378 C   0  0  0  0  0  0  0  0  0  0  0  0
   -5.3773   -6.2389   29.0880 N   0  0  0  0  0  0  0  0  0  0  0  0
   -6.0743   -8.4567   29.4333 O   0  0  0  0  0  0  0  0  0  0  0  0
   -4.4047   -6.0584   28.0965 C   0  0  2  0  0  0  0  0  0  0  0  0
   -3.4691   -4.8881   28.4945 C   0  0  0  0  0  0  0  0  0  0  0  0
   -5.5462   -3.7951   29.2834 C   0  0  0  0  0  0  0  0  0  0  0  0
   -4.1420   -3.7114   28.8726 N   0  0  0  0  0  0  0  0  0  0  0  0
   -5.0489   -5.7876   26.7519 C   0  0  0  0  0  0  0  0  0  0  0  0
   -5.4850   -6.9272   25.9934 N   0  0  0  0  0  0  0  0  0  0  0  0
   -7.9855   -6.3594   22.6615 C   0  0  0  0  0  0  0  0  0  0  0  0
   -7.1718   -5.3201   23.0909 C   0  0  0  0  0  0  0  0  0  0  0  0
   -6.3403   -5.5100   24.1879 C   0  0  0  0  0  0  0  0  0  0  0  0
   -6.3332   -6.7307   24.8599 C   0  0  0  0  0  0  0  0  0  0  0  0
   -7.1542   -7.7605   24.4347 C   0  0  0  0  0  0  0  0  0  0  0  0
   -7.9777   -7.5746   23.3308 C   0  0  0  0  0  0  0  0  0  0  0  0
  1  2  1  0  0  0  0
  2  3  2  0  0  0  0
  2 20  1  0  0  0  0
  4  6  1  0  0  0  0
  5  6  2  0  0  0  0
  5 16  1  0  0  0  0
  6  7  1  0  0  0  0
  7  8  1  0  0  0  0
  8  9  1  0  0  0  0
  8 10  2  0  0  0  0
  9 12  1  0  0  0  0
  9 16  2  0  0  0  0
 11 13  1  0  0  0  0
 11 12  1  0  0  0  0
 12 14  1  0  0  0  0
 14 15  1  0  0  0  0
 14 18  1  6  0  0  0
 15 17  1  0  0  0  0
 16 17  1  0  0  0  0
 18 19  1  0  0  0  0
 19 23  1  0  0  0  0
 20 21  2  0  0  0  0
 20 25  1  0  0  0  0
 21 22  1  0  0  0  0
 22 23  2  0  0  0  0
 23 24  1  0  0  0  0
 24 25  2  0  0  0  0
M  END
>  <CHROM.1>
101.26662516,-82.99331496,167.38958179,24.10444399,-75.81948341,-6.70665994
-5.54776871,26.89502341,1.95244747,0.83683523,-2.10595532

>  <Name>
ligand

>  <RI>
0

>  <Rbt.Current_Directory>
/home/itssahil/PROJECTS/Mol_Feturizer/New_Systems/rnas/4LVV

>  <Rbt.Executable>
rbdock ($Id: //depot/dev/client3/rdock/2013.1/src/exe/rbdock.cxx#4 $)

>  <Rbt.Library>
libRbt.so (2013.1, Build901 2013/11/27)

>  <Rbt.Parameter_File>
/export/apps/rDock/src/rDock_2013.1_src/data/scripts/dock_solv.prm

>  <Rbt.Receptor>
prm/blind_docking_60.prm

>  <SCORE>
-13.0409

>  <SCORE.INTER>
-13.1179

>  <SCORE.INTER.CONST>
1

>  <SCORE.INTER.POLAR>
0

>  <SCORE.INTER.ROT>
5

>  <SCORE.INTER.SOLV>
13.5401

>  <SCORE.INTER.VDW>
-20.192

>  <SCORE.INTER.norm>
-0.524717

>  <SCORE.INTRA>
0.0770672

>  <SCORE.INTRA.DIHEDRAL>
1.24594

>  <SCORE.INTRA.DIHEDRAL.0>
3.94806

>  <SCORE.INTRA.POLAR>
0

>  <SCORE.INTRA.POLAR.0>
0

>  <SCORE.INTRA.REPUL>
0

>  <SCORE.INTRA.REPUL.0>
0

>  <SCORE.INTRA.SOLV>
0.0314998

>  <SCORE.INTRA.SOLV.lig_0>
-70.9803

>  <SCORE.INTRA.VDW>
-0.561653

>  <SCORE.INTRA.VDW.0>
-0.709409

>  <SCORE.INTRA.norm>
0.00308269

>  <SCORE.RESTR>
0

>  <SCORE.RESTR.CAVITY>
0

>  <SCORE.RESTR.norm>
0

>  <SCORE.SYSTEM>
0

>  <SCORE.SYSTEM.CONST>
0

>  <SCORE.SYSTEM.DIHEDRAL>
0

>  <SCORE.SYSTEM.SOLV>
0

>  <SCORE.SYSTEM.norm>
0

>  <SCORE.heavy>
25

>  <SCORE.norm>
-0.521634

>  <RMSD>
20.718

$$$$
ligand
 OpenBabel11021811503D
libRbt.so/2013.1/901 2013/11/27
 25 27  0  0  0  0  0  0  0  0999 V2000
   -8.1909   -6.7349   20.3933 N   0  0  0  0  0  0  0  0  0  0  0  0
   -8.3430   -5.7889   21.4551 C   0  0  0  0  0  0  0  0  0  0  0  0
   -9.1318   -4.8573   21.3554 O   0  0  0  0  0  0  0  0  0  0  0  0
   -8.5691   -1.5002   30.3546 N   0  0  0  0  0  0  0  0  0  0  0  0
   -6.4384   -2.4512   29.7878 N   0  0  0  0  0  0  0  0  0  0  0  0
   -7.7498   -2.6327   30.0674 C   0  0  0  0  0  0  0  0  0  0  0  0
   -8.3010   -3.8833   30.0897 N   0  0  0  0  0  0  0  0  0  0  0  0
   -7.5699   -4.9973   29.8307 C   0  0  0  0  0  0  0  0  0  0  0  0
   -6.1971   -4.8485   29.5196 C   0  0  0  0  0  0  0  0  0  0  0  0
   -8.1836   -6.2277   29.8564 O   0  0  0  0  0  0  0  0  0  0  0  0
   -5.3374   -7.2109   29.9417 C   0  0  0  0  0  0  0  0  0  0  0  0
   -5.2862   -5.9478   29.2454 N   0  0  0  0  0  0  0  0  0  0  0  0
   -5.7969   -8.2333   29.4442 O   0  0  0  0  0  0  0  0  0  0  0  0
   -4.2720   -5.6606   28.3232 C   0  0  2  0  0  0  0  0  0  0  0  0
   -3.4463   -4.4467   28.8215 C   0  0  0  0  0  0  0  0  0  0  0  0
   -5.6383   -3.5315   29.5209 C   0  0  0  0  0  0  0  0  0  0  0  0
   -4.2217   -3.3353   29.2009 N   0  0  0  0  0  0  0  0  0  0  0  0
   -4.8532   -5.3788   26.9524 C   0  0  0  0  0  0  0  0  0  0  0  0
   -5.1820   -6.5135   26.1347 N   0  0  0  0  0  0  0  0  0  0  0  0
   -7.5358   -5.9666   22.6943 C   0  0  0  0  0  0  0  0  0  0  0  0
   -8.1046   -5.7871   23.9477 C   0  0  0  0  0  0  0  0  0  0  0  0
   -7.3248   -5.9612   25.0846 C   0  0  0  0  0  0  0  0  0  0  0  0
   -5.9850   -6.3261   24.9674 C   0  0  0  0  0  0  0  0  0  0  0  0
   -5.4251   -6.5144   23.7158 C   0  0  0  0  0  0  0  0  0  0  0  0
   -6.2018   -6.3295   22.5784 C   0  0  0  0  0  0  0  0  0  0  0  0
  1  2  1  0  0  0  0
  2  3  2  0  0  0  0
  2 20  1  0  0  0  0
  4  6  1  0  0  0  0
  5  6  2  0  0  0  0
  5 16  1  0  0  0  0
  6  7  1  0  0  0  0
  7  8  1  0  0  0  0
  8  9  1  0  0  0  0
  8 10  2  0  0  0  0
  9 12  1  0  0  0  0
  9 16  2  0  0  0  0
 11 13  1  0  0  0  0
 11 12  1  0  0  0  0
 12 14  1  0  0  0  0
 14 15  1  0  0  0  0
 14 18  1  6  0  0  0
 15 17  1  0  0  0  0
 16 17  1  0  0  0  0
 18 19  1  0  0  0  0
 19 23  1  0  0  0  0
 20 21  2  0  0  0  0
 20 25  1  0  0  0  0
 21 22  1  0  0  0  0
 22 23  2  0  0  0  0
 23 24  1  0  0  0  0
 24 25  2  0  0  0  0
M  END
>  <CHROM.1>
104.22477499,-82.04483043,166.79887537,-67.93939459,-137.25033396,-6.53347202
-5.25683695,27.00370115,1.80085734,0.72741319,-1.94135575

>  <Name>
ligand

>  <RI>
0

>  <Rbt.Current_Directory>
/home/itssahil/PROJECTS/Mol_Feturizer/New_Systems/rnas/4LVV

>  <Rbt.Executable>
rbdock ($Id: //depot/dev/client3/rdock/2013.1/src/exe/rbdock.cxx#4 $)

>  <Rbt.Library>
libRbt.so (2013.1, Build901 2013/11/27)

>  <Rbt.Parameter_File>
/export/apps/rDock/src/rDock_2013.1_src/data/scripts/dock_solv.prm

>  <Rbt.Receptor>
prm/blind_docking_100.prm

>  <SCORE>
-10.72

>  <SCORE.INTER>
-10.1723

>  <SCORE.INTER.CONST>
1

>  <SCORE.INTER.POLAR>
0

>  <SCORE.INTER.ROT>
5

>  <SCORE.INTER.SOLV>
12.7556

>  <SCORE.INTER.VDW>
-17.9667

>  <SCORE.INTER.norm>
-0.406891

>  <SCORE.INTRA>
-0.54771

>  <SCORE.INTRA.DIHEDRAL>
1.16609

>  <SCORE.INTRA.DIHEDRAL.0>
3.94806

>  <SCORE.INTRA.POLAR>
0

>  <SCORE.INTRA.POLAR.0>
0

>  <SCORE.INTRA.REPUL>
0

>  <SCORE.INTRA.REPUL.0>
0

>  <SCORE.INTRA.SOLV>
0.0602011

>  <SCORE.INTRA.SOLV.lig_0>
-70.9803

>  <SCORE.INTRA.VDW>
-1.16086

>  <SCORE.INTRA.VDW.0>
-0.709409

>  <SCORE.INTRA.norm>
-0.0219084

>  <SCORE.RESTR>
0

>  <SCORE.RESTR.CAVITY>
0

>  <SCORE.RESTR.norm>
0

>  <SCORE.SYSTEM>
0

>  <SCORE.SYSTEM.CONST>
0

>  <SCORE.SYSTEM.DIHEDRAL>
0

>  <SCORE.SYSTEM.SOLV>
0

>  <SCORE.SYSTEM.norm>
0

>  <SCORE.heavy>
25

>  <SCORE.norm>
-0.428799

>  <RMSD>
20.806

$$$$
ligand
 OpenBabel11021811503D
libRbt.so/2013.1/901 2013/11/27
 25 27  0  0  0  0  0  0  0  0999 V2000
    0.1488   -5.7817   24.9671 N   0  0  0  0  0  0  0  0  0  0  0  0
   -0.8355   -6.7779   25.2574 C   0  0  0  0  0  0  0  0  0  0  0  0
   -0.7280   -7.9132   24.8107 O   0  0  0  0  0  0  0  0  0  0  0  0
  -11.4242   -1.2258   29.4498 N   0  0  0  0  0  0  0  0  0  0  0  0
   -9.9022   -2.5286   28.1264 N   0  0  0  0  0  0  0  0  0  0  0  0
  -10.1284   -1.4348   28.8901 C   0  0  0  0  0  0  0  0  0  0  0  0
   -9.1395   -0.5212   29.1263 N   0  0  0  0  0  0  0  0  0  0  0  0
   -7.8899   -0.6640   28.6157 C   0  0  0  0  0  0  0  0  0  0  0  0
   -7.6091   -1.8027   27.8231 C   0  0  0  0  0  0  0  0  0  0  0  0
   -6.9335    0.2827   28.8984 O   0  0  0  0  0  0  0  0  0  0  0  0
   -5.4968   -1.0501   26.6106 C   0  0  0  0  0  0  0  0  0  0  0  0
   -6.3288   -2.0765   27.1911 N   0  0  0  0  0  0  0  0  0  0  0  0
   -4.2797   -1.0113   26.7550 O   0  0  0  0  0  0  0  0  0  0  0  0
   -5.9990   -3.4336   27.0849 C   0  0  2  0  0  0  0  0  0  0  0  0
   -7.1083   -4.1769   26.2973 C   0  0  0  0  0  0  0  0  0  0  0  0
   -8.6650   -2.7354   27.5741 C   0  0  0  0  0  0  0  0  0  0  0  0
   -8.4135   -3.9283   26.7609 N   0  0  0  0  0  0  0  0  0  0  0  0
   -5.8169   -4.0534   28.4557 C   0  0  0  0  0  0  0  0  0  0  0  0
   -5.3024   -5.3939   28.5051 N   0  0  0  0  0  0  0  0  0  0  0  0
   -1.9875   -6.4144   26.1289 C   0  0  0  0  0  0  0  0  0  0  0  0
   -1.7846   -5.9263   27.4124 C   0  0  0  0  0  0  0  0  0  0  0  0
   -2.8805   -5.5955   28.2002 C   0  0  0  0  0  0  0  0  0  0  0  0
   -4.1731   -5.7404   27.7005 C   0  0  0  0  0  0  0  0  0  0  0  0
   -4.3701   -6.2173   26.4163 C   0  0  0  0  0  0  0  0  0  0  0  0
   -3.2748   -6.5587   25.6322 C   0  0  0  0  0  0  0  0  0  0  0  0
  1  2  1  0  0  0  0
  2  3  2  0  0  0  0
  2 20  1  0  0  0  0
  4  6  1  0  0  0  0
  5  6  2  0  0  0  0
  5 16  1  0  0  0  0
  6  7  1  0  0  0  0
  7  8  1  0  0  0  0
  8  9  1  0  0  0  0
  8 10  2  0  0  0  0
  9 12  1  0  0  0  0
  9 16  2  0  0  0  0
 11 13  1  0  0  0  0
 11 12  1  0  0  0  0
 12 14  1  0  0  0  0
 14 15  1  0  0  0  0
 14 18  1  1  0  0  0
 15 17  1  0  0  0  0
 16 17  1  0  0  0  0
 18 19  1  0  0  0  0
 19 23  1  0  0  0  0
 20 21  2  0  0  0  0
 20 25  1  0  0  0  0
 21 22  1  0  0  0  0
 22 23  2  0  0  0  0
 23 24  1  0  0  0  0
 24 25  2  0  0  0  0
M  END
>  <CHROM.1>
137.59682471,-171.91400578,46.07299896,89.97579579,-57.42523272,-5.63133780
-3.63860918,27.30389906,-0.62007941,0.25776426,0.12323954

>  <Name>
ligand

>  <RI>
0

>  <Rbt.Current_Directory>
/home/itssahil/PROJECTS/Mol_Feturizer/New_Systems/rnas/4LVV

>  <Rbt.Executable>
rbdock ($Id: //depot/dev/client3/rdock/2013.1/src/exe/rbdock.cxx#4 $)

>  <Rbt.Library>
libRbt.so (2013.1, Build901 2013/11/27)

>  <Rbt.Parameter_File>
/export/apps/rDock/src/rDock_2013.1_src/data/scripts/dock_solv.prm

>  <Rbt.Receptor>
prm/blind_docking_100.prm

>  <SCORE>
-9.87422

>  <SCORE.INTER>
-8.37644

>  <SCORE.INTER.CONST>
1

>  <SCORE.INTER.POLAR>
0

>  <SCORE.INTER.ROT>
5

>  <SCORE.INTER.SOLV>
13.3293

>  <SCORE.INTER.VDW>
-16.9607

>  <SCORE.INTER.norm>
-0.335058

>  <SCORE.INTRA>
-1.49778

>  <SCORE.INTRA.DIHEDRAL>
-0.417284

>  <SCORE.INTRA.DIHEDRAL.0>
3.94806

>  <SCORE.INTRA.POLAR>
0

>  <SCORE.INTRA.POLAR.0>
0

>  <SCORE.INTRA.REPUL>
0

>  <SCORE.INTRA.REPUL.0>
0

>  <SCORE.INTRA.SOLV>
-0.261465

>  <SCORE.INTRA.SOLV.lig_0>
-70.9803

>  <SCORE.INTRA.VDW>
-1.1584

>  <SCORE.INTRA.VDW.0>
-0.709409

>  <SCORE.INTRA.norm>
-0.0599111

>  <SCORE.RESTR>
0

>  <SCORE.RESTR.CAVITY>
0

>  <SCORE.RESTR.norm>
0

>  <SCORE.SYSTEM>
0

>  <SCORE.SYSTEM.CONST>
0

>  <SCORE.SYSTEM.DIHEDRAL>
0

>  <SCORE.SYSTEM.SOLV>
0

>  <SCORE.SYSTEM.norm>
0

>  <SCORE.heavy>
25

>  <SCORE.norm>
-0.394969

>  <RMSD>
20.842

$$$$
ligand
 OpenBabel11021811503D
libRbt.so/2013.1/901 2013/11/27
 25 27  0  0  0  0  0  0  0  0999 V2000
   -0.4300   -8.3596   25.6913 N   0  0  0  0  0  0  0  0  0  0  0  0
   -1.0215   -7.1852   25.1289 C   0  0  0  0  0  0  0  0  0  0  0  0
   -0.7065   -6.7998   24.0098 O   0  0  0  0  0  0  0  0  0  0  0  0
   -8.4650   -0.2917   32.5734 N   0  0  0  0  0  0  0  0  0  0  0  0
   -7.0354   -0.1952   30.6467 N   0  0  0  0  0  0  0  0  0  0  0  0
   -7.3340   -0.7594   31.8397 C   0  0  0  0  0  0  0  0  0  0  0  0
   -6.5648   -1.7629   32.3590 N   0  0  0  0  0  0  0  0  0  0  0  0
   -5.4743   -2.2441   31.7096 C   0  0  0  0  0  0  0  0  0  0  0  0
   -5.1367   -1.6898   30.4517 C   0  0  0  0  0  0  0  0  0  0  0  0
   -4.7465   -3.2634   32.2774 O   0  0  0  0  0  0  0  0  0  0  0  0
   -2.7064   -2.4253   30.2255 C   0  0  0  0  0  0  0  0  0  0  0  0
   -3.9873   -2.0851   29.6541 N   0  0  0  0  0  0  0  0  0  0  0  0
   -2.2054   -1.8126   31.1623 O   0  0  0  0  0  0  0  0  0  0  0  0
   -4.1742   -2.0102   28.2681 C   0  0  2  0  0  0  0  0  0  0  0  0
   -4.5746   -0.5646   27.8761 C   0  0  0  0  0  0  0  0  0  0  0  0
   -5.9456   -0.6278   29.9372 C   0  0  0  0  0  0  0  0  0  0  0  0
   -5.6307   -0.0297   28.6369 N   0  0  0  0  0  0  0  0  0  0  0  0
   -5.2321   -2.9947   27.8123 C   0  0  0  0  0  0  0  0  0  0  0  0
   -4.9965   -4.3844   28.0906 N   0  0  0  0  0  0  0  0  0  0  0  0
   -2.0427   -6.4467   25.9230 C   0  0  0  0  0  0  0  0  0  0  0  0
   -1.6694   -5.6319   26.9830 C   0  0  0  0  0  0  0  0  0  0  0  0
   -2.6463   -4.9557   27.7037 C   0  0  0  0  0  0  0  0  0  0  0  0
   -3.9897   -5.0845   27.3565 C   0  0  0  0  0  0  0  0  0  0  0  0
   -4.3561   -5.8896   26.2921 C   0  0  0  0  0  0  0  0  0  0  0  0
   -3.3804   -6.5747   25.5781 C   0  0  0  0  0  0  0  0  0  0  0  0
  1  2  1  0  0  0  0
  2  3  2  0  0  0  0
  2 20  1  0  0  0  0
  4  6  1  0  0  0  0
  5  6  2  0  0  0  0
  5 16  1  0  0  0  0
  6  7  1  0  0  0  0
  7  8  1  0  0  0  0
  8  9  1  0  0  0  0
  8 10  2  0  0  0  0
  9 12  1  0  0  0  0
  9 16  2  0  0  0  0
 11 13  1  0  0  0  0
 11 12  1  0  0  0  0
 12 14  1  0  0  0  0
 14 15  1  0  0  0  0
 14 18  1  1  0  0  0
 15 17  1  0  0  0  0
 16 17  1  0  0  0  0
 18 19  1  0  0  0  0
 19 23  1  0  0  0  0
 20 21  2  0  0  0  0
 20 25  1  0  0  0  0
 21 22  1  0  0  0  0
 22 23  2  0  0  0  0
 23 24  1  0  0  0  0
 24 25  2  0  0  0  0
M  END
>  <CHROM.1>
-40.50430341,-59.07010686,-71.80363386,79.98017954,76.41736510,-4.16668778
-3.31670851,28.77892660,-0.85640480,-0.72084973,1.29810456

>  <Name>
ligand

>  <RI>
0

>  <Rbt.Current_Directory>
/home/itssahil/PROJECTS/Mol_Feturizer/New_Systems/rnas/4LVV

>  <Rbt.Executable>
rbdock ($Id: //depot/dev/client3/rdock/2013.1/src/exe/rbdock.cxx#4 $)

>  <Rbt.Library>
libRbt.so (2013.1, Build901 2013/11/27)

>  <Rbt.Parameter_File>
/export/apps/rDock/src/rDock_2013.1_src/data/scripts/dock_solv.prm

>  <Rbt.Receptor>
prm/blind_docking_100.prm

>  <SCORE>
-9.73462

>  <SCORE.INTER>
-7.80812

>  <SCORE.INTER.CONST>
1

>  <SCORE.INTER.POLAR>
0

>  <SCORE.INTER.ROT>
5

>  <SCORE.INTER.SOLV>
12.24

>  <SCORE.INTER.VDW>
-16.2187

>  <SCORE.INTER.norm>
-0.312325

>  <SCORE.INTRA>
-1.9265

>  <SCORE.INTRA.DIHEDRAL>
-0.429817

>  <SCORE.INTRA.DIHEDRAL.0>
3.94806

>  <SCORE.INTRA.POLAR>
0

>  <SCORE.INTRA.POLAR.0>
0

>  <SCORE.INTRA.REPUL>
0

>  <SCORE.INTRA.REPUL.0>
0

>  <SCORE.INTRA.SOLV>
0.158937

>  <SCORE.INTRA.SOLV.lig_0>
-70.9803

>  <SCORE.INTRA.VDW>
-1.79106

>  <SCORE.INTRA.VDW.0>
-0.709409

>  <SCORE.INTRA.norm>
-0.0770601

>  <SCORE.RESTR>
0

>  <SCORE.RESTR.CAVITY>
0

>  <SCORE.RESTR.norm>
0

>  <SCORE.SYSTEM>
0

>  <SCORE.SYSTEM.CONST>
0

>  <SCORE.SYSTEM.DIHEDRAL>
0

>  <SCORE.SYSTEM.SOLV>
0

>  <SCORE.SYSTEM.norm>
0

>  <SCORE.heavy>
25

>  <SCORE.norm>
-0.389385

>  <RMSD>
20.864

$$$$
ligand
 OpenBabel11021811503D
libRbt.so/2013.1/901 2013/11/27
 25 27  0  0  0  0  0  0  0  0999 V2000
   -8.4413   -7.3895   20.3949 N   0  0  0  0  0  0  0  0  0  0  0  0
   -8.7296   -6.4726   21.4540 C   0  0  0  0  0  0  0  0  0  0  0  0
   -9.6749   -5.6982   21.3717 O   0  0  0  0  0  0  0  0  0  0  0  0
   -9.1357   -1.5229   30.0555 N   0  0  0  0  0  0  0  0  0  0  0  0
   -6.9593   -2.3794   29.5123 N   0  0  0  0  0  0  0  0  0  0  0  0
   -8.2511   -2.6206   29.8345 C   0  0  0  0  0  0  0  0  0  0  0  0
   -8.7209   -3.8979   29.9619 N   0  0  0  0  0  0  0  0  0  0  0  0
   -7.9250   -4.9806   29.7697 C   0  0  0  0  0  0  0  0  0  0  0  0
   -6.5704   -4.7704   29.4172 C   0  0  0  0  0  0  0  0  0  0  0  0
   -8.4584   -6.2414   29.9005 O   0  0  0  0  0  0  0  0  0  0  0  0
   -5.5542   -7.0361   29.9936 C   0  0  0  0  0  0  0  0  0  0  0  0
   -5.5962   -5.8284   29.2046 N   0  0  0  0  0  0  0  0  0  0  0  0
   -5.7434   -8.1524   29.5225 O   0  0  0  0  0  0  0  0  0  0  0  0
   -4.6192   -5.5490   28.2407 C   0  0  2  0  0  0  0  0  0  0  0  0
   -3.8639   -4.2519   28.6286 C   0  0  0  0  0  0  0  0  0  0  0  0
   -6.0968   -3.4248   29.3080 C   0  0  0  0  0  0  0  0  0  0  0  0
   -4.7016   -3.1655   28.9422 N   0  0  0  0  0  0  0  0  0  0  0  0
   -5.2420   -5.4082   26.8664 C   0  0  0  0  0  0  0  0  0  0  0  0
   -5.4864   -6.6181   26.1312 N   0  0  0  0  0  0  0  0  0  0  0  0
   -7.8684   -6.4878   22.6692 C   0  0  0  0  0  0  0  0  0  0  0  0
   -7.1060   -5.3812   23.0168 C   0  0  0  0  0  0  0  0  0  0  0  0
   -6.3134   -5.4268   24.1573 C   0  0  0  0  0  0  0  0  0  0  0  0
   -6.2944   -6.5704   24.9533 C   0  0  0  0  0  0  0  0  0  0  0  0
   -7.0646   -7.6674   24.6085 C   0  0  0  0  0  0  0  0  0  0  0  0
   -7.8487   -7.6262   23.4619 C   0  0  0  0  0  0  0  0  0  0  0  0
  1  2  1  0  0  0  0
  2  3  2  0  0  0  0
  2 20  1  0  0  0  0
  4  6  1  0  0  0  0
  5  6  2  0  0  0  0
  5 16  1  0  0  0  0
  6  7  1  0  0  0  0
  7  8  1  0  0  0  0
  8  9  1  0  0  0  0
  8 10  2  0  0  0  0
  9 12  1  0  0  0  0
  9 16  2  0  0  0  0
 11 13  1  0  0  0  0
 11 12  1  0  0  0  0
 12 14  1  0  0  0  0
 14 15  1  0  0  0  0
 14 18  1  6  0  0  0
 15 17  1  0  0  0  0
 16 17  1  0  0  0  0
 18 19  1  0  0  0  0
 19 23  1  0  0  0  0
 20 21  2  0  0  0  0
 20 25  1  0  0  0  0
 21 22  1  0  0  0  0
 22 23  2  0  0  0  0
 23 24  1  0  0  0  0
 24 25  2  0  0  0  0
M  END
>  <CHROM.1>
116.75542587,-83.32061544,168.21304530,31.04467235,116.75970816,-6.89058696
-5.39254820,26.92903757,1.81122855,0.75644550,-2.04289994

>  <Name>
ligand

>  <RI>
0

>  <Rbt.Current_Directory>
/home/itssahil/PROJECTS/Mol_Feturizer/New_Systems/rnas/4LVV

>  <Rbt.Executable>
rbdock ($Id: //depot/dev/client3/rdock/2013.1/src/exe/rbdock.cxx#4 $)

>  <Rbt.Library>
libRbt.so (2013.1, Build901 2013/11/27)

>  <Rbt.Parameter_File>
/export/apps/rDock/src/rDock_2013.1_src/data/scripts/dock_solv.prm

>  <Rbt.Receptor>
prm/blind_docking_80.prm

>  <SCORE>
-12.5823

>  <SCORE.INTER>
-12.5819

>  <SCORE.INTER.CONST>
1

>  <SCORE.INTER.POLAR>
0

>  <SCORE.INTER.ROT>
5

>  <SCORE.INTER.SOLV>
12.1043

>  <SCORE.INTER.VDW>
-19.356

>  <SCORE.INTER.norm>
-0.503276

>  <SCORE.INTRA>
-0.000406805

>  <SCORE.INTRA.DIHEDRAL>
1.20147

>  <SCORE.INTRA.DIHEDRAL.0>
3.94806

>  <SCORE.INTRA.POLAR>
0

>  <SCORE.INTRA.POLAR.0>
0

>  <SCORE.INTRA.REPUL>
0

>  <SCORE.INTRA.REPUL.0>
0

>  <SCORE.INTRA.SOLV>
0.0185413

>  <SCORE.INTRA.SOLV.lig_0>
-70.9803

>  <SCORE.INTRA.VDW>
-0.610411

>  <SCORE.INTRA.VDW.0>
-0.709409

>  <SCORE.INTRA.norm>
-1.62722e-05

>  <SCORE.RESTR>
0

>  <SCORE.RESTR.CAVITY>
0

>  <SCORE.RESTR.norm>
0

>  <SCORE.SYSTEM>
0

>  <SCORE.SYSTEM.CONST>
0

>  <SCORE.SYSTEM.DIHEDRAL>
0

>  <SCORE.SYSTEM.SOLV>
0

>  <SCORE.SYSTEM.norm>
0

>  <SCORE.heavy>
25

>  <SCORE.norm>
-0.503292

>  <RMSD>
20.879

$$$$
ligand
 OpenBabel11021811503D
libRbt.so/2013.1/901 2013/11/27
 25 27  0  0  0  0  0  0  0  0999 V2000
   -8.6145   -7.6063   20.0463 N   0  0  0  0  0  0  0  0  0  0  0  0
   -8.9937   -6.7640   21.1381 C   0  0  0  0  0  0  0  0  0  0  0  0
  -10.1098   -6.2615   21.1831 O   0  0  0  0  0  0  0  0  0  0  0  0
   -8.5711   -1.4186   30.6943 N   0  0  0  0  0  0  0  0  0  0  0  0
   -6.6322   -2.4576   29.7318 N   0  0  0  0  0  0  0  0  0  0  0  0
   -7.8767   -2.5825   30.2479 C   0  0  0  0  0  0  0  0  0  0  0  0
   -8.4762   -3.8059   30.3585 N   0  0  0  0  0  0  0  0  0  0  0  0
   -7.8623   -4.9479   29.9565 C   0  0  0  0  0  0  0  0  0  0  0  0
   -6.5649   -4.8578   29.3978 C   0  0  0  0  0  0  0  0  0  0  0  0
   -8.5214   -6.1482   30.0823 O   0  0  0  0  0  0  0  0  0  0  0  0
   -5.7613   -7.2661   29.6275 C   0  0  0  0  0  0  0  0  0  0  0  0
   -5.7764   -5.9932   28.9475 N   0  0  0  0  0  0  0  0  0  0  0  0
   -5.8847   -8.3389   29.0465 O   0  0  0  0  0  0  0  0  0  0  0  0
   -4.9370   -5.7359   27.8563 C   0  0  2  0  0  0  0  0  0  0  0  0
   -3.9738   -4.5724   28.2058 C   0  0  0  0  0  0  0  0  0  0  0  0
   -5.9502   -3.5689   29.3095 C   0  0  0  0  0  0  0  0  0  0  0  0
   -4.6091   -3.4335   28.7344 N   0  0  0  0  0  0  0  0  0  0  0  0
   -5.7467   -5.3999   26.6202 C   0  0  0  0  0  0  0  0  0  0  0  0
   -5.2759   -5.9218   25.3672 N   0  0  0  0  0  0  0  0  0  0  0  0
   -8.0111   -6.5218   22.2311 C   0  0  0  0  0  0  0  0  0  0  0  0
   -7.3046   -5.3292   22.3036 C   0  0  0  0  0  0  0  0  0  0  0  0
   -6.3955   -5.1338   23.3363 C   0  0  0  0  0  0  0  0  0  0  0  0
   -6.2044   -6.1225   24.2993 C   0  0  0  0  0  0  0  0  0  0  0  0
   -6.9190   -7.3056   24.2290 C   0  0  0  0  0  0  0  0  0  0  0  0
   -7.8200   -7.5060   23.1901 C   0  0  0  0  0  0  0  0  0  0  0  0
  1  2  1  0  0  0  0
  2  3  2  0  0  0  0
  2 20  1  0  0  0  0
  4  6  1  0  0  0  0
  5  6  2  0  0  0  0
  5 16  1  0  0  0  0
  6  7  1  0  0  0  0
  7  8  1  0  0  0  0
  8  9  1  0  0  0  0
  8 10  2  0  0  0  0
  9 12  1  0  0  0  0
  9 16  2  0  0  0  0
 11 13  1  0  0  0  0
 11 12  1  0  0  0  0
 12 14  1  0  0  0  0
 14 15  1  0  0  0  0
 14 18  1  6  0  0  0
 15 17  1  0  0  0  0
 16 17  1  0  0  0  0
 18 19  1  0  0  0  0
 19 23  1  0  0  0  0
 20 21  2  0  0  0  0
 20 25  1  0  0  0  0
 21 22  1  0  0  0  0
 22 23  2  0  0  0  0
 23 24  1  0  0  0  0
 24 25  2  0  0  0  0
M  END
>  <CHROM.1>
132.77205847,-141.05318077,154.80450648,93.98258791,102.57175593,-6.91664953
-5.41883337,26.72518948,1.79403847,0.72913810,-2.02579834

>  <Name>
ligand

>  <RI>
0

>  <Rbt.Current_Directory>
/home/itssahil/PROJECTS/Mol_Feturizer/New_Systems/rnas/4LVV

>  <Rbt.Executable>
rbdock ($Id: //depot/dev/client3/rdock/2013.1/src/exe/rbdock.cxx#4 $)

>  <Rbt.Library>
libRbt.so (2013.1, Build901 2013/11/27)

>  <Rbt.Parameter_File>
/export/apps/rDock/src/rDock_2013.1_src/data/scripts/dock_solv.prm

>  <Rbt.Receptor>
prm/blind_docking_40.prm

>  <SCORE>
-12.5551

>  <SCORE.INTER>
-13.0286

>  <SCORE.INTER.CONST>
1

>  <SCORE.INTER.POLAR>
0

>  <SCORE.INTER.ROT>
5

>  <SCORE.INTER.SOLV>
13.383

>  <SCORE.INTER.VDW>
-20.0801

>  <SCORE.INTER.norm>
-0.521146

>  <SCORE.INTRA>
0.473522

>  <SCORE.INTRA.DIHEDRAL>
3.52908

>  <SCORE.INTRA.DIHEDRAL.0>
3.94806

>  <SCORE.INTRA.POLAR>
0

>  <SCORE.INTRA.POLAR.0>
0

>  <SCORE.INTRA.REPUL>
0

>  <SCORE.INTRA.REPUL.0>
0

>  <SCORE.INTRA.SOLV>
-0.62608

>  <SCORE.INTRA.SOLV.lig_0>
-70.9803

>  <SCORE.INTRA.VDW>
-0.977977

>  <SCORE.INTRA.VDW.0>
-0.709409

>  <SCORE.INTRA.norm>
0.0189409

>  <SCORE.RESTR>
0

>  <SCORE.RESTR.CAVITY>
0

>  <SCORE.RESTR.norm>
0

>  <SCORE.SYSTEM>
0

>  <SCORE.SYSTEM.CONST>
0

>  <SCORE.SYSTEM.DIHEDRAL>
0

>  <SCORE.SYSTEM.SOLV>
0

>  <SCORE.SYSTEM.norm>
0

>  <SCORE.heavy>
25

>  <SCORE.norm>
-0.502205

>  <RMSD>
20.915

$$$$
ligand
 OpenBabel11021811503D
libRbt.so/2013.1/901 2013/11/27
 25 27  0  0  0  0  0  0  0  0999 V2000
   -9.0560   -6.3978   19.9947 N   0  0  0  0  0  0  0  0  0  0  0  0
   -9.4286   -5.8155   21.2467 C   0  0  0  0  0  0  0  0  0  0  0  0
  -10.5655   -5.3980   21.4294 O   0  0  0  0  0  0  0  0  0  0  0  0
   -6.5974   -0.7268   27.4160 N   0  0  0  0  0  0  0  0  0  0  0  0
   -5.0533   -2.5607   27.2819 N   0  0  0  0  0  0  0  0  0  0  0  0
   -6.2695   -2.0957   27.6500 C   0  0  0  0  0  0  0  0  0  0  0  0
   -7.1857   -2.9125   28.2516 N   0  0  0  0  0  0  0  0  0  0  0  0
   -6.9277   -4.2208   28.5049 C   0  0  0  0  0  0  0  0  0  0  0  0
   -5.6716   -4.7491   28.1218 C   0  0  0  0  0  0  0  0  0  0  0  0
   -7.8943   -4.9955   29.1020 O   0  0  0  0  0  0  0  0  0  0  0  0
   -5.5718   -6.8626   29.5437 C   0  0  0  0  0  0  0  0  0  0  0  0
   -5.2456   -6.1203   28.3498 N   0  0  0  0  0  0  0  0  0  0  0  0
   -5.7800   -8.0711   29.5467 O   0  0  0  0  0  0  0  0  0  0  0  0
   -4.3951   -6.6470   27.3695 C   0  0  2  0  0  0  0  0  0  0  0  0
   -3.1354   -5.7526   27.2407 C   0  0  0  0  0  0  0  0  0  0  0  0
   -4.7219   -3.8707   27.5109 C   0  0  0  0  0  0  0  0  0  0  0  0
   -3.4116   -4.3802   27.0972 N   0  0  0  0  0  0  0  0  0  0  0  0
   -5.1083   -6.7522   26.0366 C   0  0  0  0  0  0  0  0  0  0  0  0
   -5.6211   -5.5354   25.4705 N   0  0  0  0  0  0  0  0  0  0  0  0
   -8.4123   -5.7410   22.3331 C   0  0  0  0  0  0  0  0  0  0  0  0
   -7.0982   -5.3891   22.0574 C   0  0  0  0  0  0  0  0  0  0  0  0
   -6.1742   -5.3278   23.0934 C   0  0  0  0  0  0  0  0  0  0  0  0
   -6.5670   -5.6049   24.4013 C   0  0  0  0  0  0  0  0  0  0  0  0
   -7.8808   -5.9449   24.6729 C   0  0  0  0  0  0  0  0  0  0  0  0
   -8.8027   -6.0171   23.6354 C   0  0  0  0  0  0  0  0  0  0  0  0
  1  2  1  0  0  0  0
  2  3  2  0  0  0  0
  2 20  1  0  0  0  0
  4  6  1  0  0  0  0
  5  6  2  0  0  0  0
  5 16  1  0  0  0  0
  6  7  1  0  0  0  0
  7  8  1  0  0  0  0
  8  9  1  0  0  0  0
  8 10  2  0  0  0  0
  9 12  1  0  0  0  0
  9 16  2  0  0  0  0
 11 13  1  0  0  0  0
 11 12  1  0  0  0  0
 12 14  1  0  0  0  0
 14 15  1  0  0  0  0
 14 18  1  6  0  0  0
 15 17  1  0  0  0  0
 16 17  1  0  0  0  0
 18 19  1  0  0  0  0
 19 23  1  0  0  0  0
 20 21  2  0  0  0  0
 20 25  1  0  0  0  0
 21 22  1  0  0  0  0
 22 23  2  0  0  0  0
 23 24  1  0  0  0  0
 24 25  2  0  0  0  0
M  END
>  <CHROM.1>
145.95877718,59.53543231,-165.01407015,-104.62034668,41.36566070,-6.49875670
-5.13886339,25.97412556,-2.61213870,-1.00829914,0.47805116

>  <Name>
ligand

>  <RI>
0

>  <Rbt.Current_Directory>
/home/itssahil/PROJECTS/Mol_Feturizer/New_Systems/rnas/4LVV

>  <Rbt.Executable>
rbdock ($Id: //depot/dev/client3/rdock/2013.1/src/exe/rbdock.cxx#4 $)

>  <Rbt.Library>
libRbt.so (2013.1, Build901 2013/11/27)

>  <Rbt.Parameter_File>
/export/apps/rDock/src/rDock_2013.1_src/data/scripts/dock_solv.prm

>  <Rbt.Receptor>
prm/blind_docking_60.prm

>  <SCORE>
-12.5661

>  <SCORE.INTER>
-12.1741

>  <SCORE.INTER.CONST>
1

>  <SCORE.INTER.POLAR>
0

>  <SCORE.INTER.ROT>
5

>  <SCORE.INTER.SOLV>
18.3957

>  <SCORE.INTER.VDW>
-21.1813

>  <SCORE.INTER.norm>
-0.486963

>  <SCORE.INTRA>
-0.391977

>  <SCORE.INTRA.DIHEDRAL>
-0.690512

>  <SCORE.INTRA.DIHEDRAL.0>
3.94806

>  <SCORE.INTRA.POLAR>
0

>  <SCORE.INTRA.POLAR.0>
0

>  <SCORE.INTRA.REPUL>
0

>  <SCORE.INTRA.REPUL.0>
0

>  <SCORE.INTRA.SOLV>
2.25791

>  <SCORE.INTRA.SOLV.lig_0>
-70.9803

>  <SCORE.INTRA.VDW>
-1.17568

>  <SCORE.INTRA.VDW.0>
-0.709409

>  <SCORE.INTRA.norm>
-0.0156791

>  <SCORE.RESTR>
0

>  <SCORE.RESTR.CAVITY>
0

>  <SCORE.RESTR.norm>
0

>  <SCORE.SYSTEM>
0

>  <SCORE.SYSTEM.CONST>
0

>  <SCORE.SYSTEM.DIHEDRAL>
0

>  <SCORE.SYSTEM.SOLV>
0

>  <SCORE.SYSTEM.norm>
0

>  <SCORE.heavy>
25

>  <SCORE.norm>
-0.502642

>  <RMSD>
20.920

$$$$
ligand
 OpenBabel11021811503D
libRbt.so/2013.1/901 2013/11/27
 25 27  0  0  0  0  0  0  0  0999 V2000
   -9.0530   -6.4412   20.0120 N   0  0  0  0  0  0  0  0  0  0  0  0
   -9.4283   -5.8308   21.2497 C   0  0  0  0  0  0  0  0  0  0  0  0
  -10.5622   -5.3988   21.4163 O   0  0  0  0  0  0  0  0  0  0  0  0
   -6.6011   -0.7079   27.4573 N   0  0  0  0  0  0  0  0  0  0  0  0
   -5.0425   -2.5277   27.3006 N   0  0  0  0  0  0  0  0  0  0  0  0
   -6.2612   -2.0762   27.6773 C   0  0  0  0  0  0  0  0  0  0  0  0
   -7.1685   -2.9061   28.2743 N   0  0  0  0  0  0  0  0  0  0  0  0
   -6.8989   -4.2146   28.5144 C   0  0  0  0  0  0  0  0  0  0  0  0
   -5.6399   -4.7289   28.1220 C   0  0  0  0  0  0  0  0  0  0  0  0
   -7.8570   -5.0027   29.1076 O   0  0  0  0  0  0  0  0  0  0  0  0
   -5.5178   -6.8547   29.5236 C   0  0  0  0  0  0  0  0  0  0  0  0
   -5.2019   -6.0986   28.3356 N   0  0  0  0  0  0  0  0  0  0  0  0
   -5.7909   -8.0501   29.5054 O   0  0  0  0  0  0  0  0  0  0  0  0
   -4.3507   -6.6091   27.3474 C   0  0  2  0  0  0  0  0  0  0  0  0
   -3.0987   -5.7032   27.2226 C   0  0  0  0  0  0  0  0  0  0  0  0
   -4.6996   -3.8371   27.5160 C   0  0  0  0  0  0  0  0  0  0  0  0
   -3.3867   -4.3319   27.0930 N   0  0  0  0  0  0  0  0  0  0  0  0
   -5.0677   -6.7077   26.0161 C   0  0  0  0  0  0  0  0  0  0  0  0
   -5.6471   -5.5013   25.4935 N   0  0  0  0  0  0  0  0  0  0  0  0
   -8.4187   -5.7449   22.3415 C   0  0  0  0  0  0  0  0  0  0  0  0
   -7.0908   -5.4514   22.0634 C   0  0  0  0  0  0  0  0  0  0  0  0
   -6.1735   -5.3777   23.1046 C   0  0  0  0  0  0  0  0  0  0  0  0
   -6.5863   -5.5840   24.4194 C   0  0  0  0  0  0  0  0  0  0  0  0
   -7.9134   -5.8657   24.6928 C   0  0  0  0  0  0  0  0  0  0  0  0
   -8.8289   -5.9505   23.6507 C   0  0  0  0  0  0  0  0  0  0  0  0
  1  2  1  0  0  0  0
  2  3  2  0  0  0  0
  2 20  1  0  0  0  0
  4  6  1  0  0  0  0
  5  6  2  0  0  0  0
  5 16  1  0  0  0  0
  6  7  1  0  0  0  0
  7  8  1  0  0  0  0
  8  9  1  0  0  0  0
  8 10  2  0  0  0  0
  9 12  1  0  0  0  0
  9 16  2  0  0  0  0
 11 13  1  0  0  0  0
 11 12  1  0  0  0  0
 12 14  1  0  0  0  0
 14 15  1  0  0  0  0
 14 18  1  6  0  0  0
 15 17  1  0  0  0  0
 16 17  1  0  0  0  0
 18 19  1  0  0  0  0
 19 23  1  0  0  0  0
 20 21  2  0  0  0  0
 20 25  1  0  0  0  0
 21 22  1  0  0  0  0
 22 23  2  0  0  0  0
 23 24  1  0  0  0  0
 24 25  2  0  0  0  0
M  END
>  <CHROM.1>
141.66253776,56.69301789,-165.63382085,-97.66074945,39.37864679,-6.48660371
-5.12333787,25.97730156,-2.59092869,-0.99516272,0.49475487

>  <Name>
ligand

>  <RI>
0

>  <Rbt.Current_Directory>
/home/itssahil/PROJECTS/Mol_Feturizer/New_Systems/rnas/4LVV

>  <Rbt.Executable>
rbdock ($Id: //depot/dev/client3/rdock/2013.1/src/exe/rbdock.cxx#4 $)

>  <Rbt.Library>
libRbt.so (2013.1, Build901 2013/11/27)

>  <Rbt.Parameter_File>
/export/apps/rDock/src/rDock_2013.1_src/data/scripts/dock_solv.prm

>  <Rbt.Receptor>
prm/blind_docking_40.prm

>  <SCORE>
-12.5842

>  <SCORE.INTER>
-12.2085

>  <SCORE.INTER.CONST>
1

>  <SCORE.INTER.POLAR>
0

>  <SCORE.INTER.ROT>
5

>  <SCORE.INTER.SOLV>
18.1578

>  <SCORE.INTER.VDW>
-21.1249

>  <SCORE.INTER.norm>
-0.488341

>  <SCORE.INTRA>
-0.375626

>  <SCORE.INTRA.DIHEDRAL>
-0.651229

>  <SCORE.INTRA.DIHEDRAL.0>
3.94806

>  <SCORE.INTRA.POLAR>
0

>  <SCORE.INTRA.POLAR.0>
0

>  <SCORE.INTRA.REPUL>
0

>  <SCORE.INTRA.REPUL.0>
0

>  <SCORE.INTRA.SOLV>
2.29319

>  <SCORE.INTRA.SOLV.lig_0>
-70.9803

>  <SCORE.INTRA.VDW>
-1.19661

>  <SCORE.INTRA.VDW.0>
-0.709409

>  <SCORE.INTRA.norm>
-0.015025

>  <SCORE.RESTR>
0

>  <SCORE.RESTR.CAVITY>
0

>  <SCORE.RESTR.norm>
0

>  <SCORE.SYSTEM>
0

>  <SCORE.SYSTEM.CONST>
0

>  <SCORE.SYSTEM.DIHEDRAL>
0

>  <SCORE.SYSTEM.SOLV>
0

>  <SCORE.SYSTEM.norm>
0

>  <SCORE.heavy>
25

>  <SCORE.norm>
-0.503366

>  <RMSD>
20.927

$$$$
ligand
 OpenBabel11021811503D
libRbt.so/2013.1/901 2013/11/27
 25 27  0  0  0  0  0  0  0  0999 V2000
  -10.3065   -6.0731   21.3893 N   0  0  0  0  0  0  0  0  0  0  0  0
   -9.0655   -6.7824   21.3428 C   0  0  0  0  0  0  0  0  0  0  0  0
   -8.8070   -7.5316   20.4091 O   0  0  0  0  0  0  0  0  0  0  0  0
   -8.5904   -1.4252   30.8372 N   0  0  0  0  0  0  0  0  0  0  0  0
   -6.6391   -2.4703   29.9069 N   0  0  0  0  0  0  0  0  0  0  0  0
   -7.9017   -2.5879   30.3790 C   0  0  0  0  0  0  0  0  0  0  0  0
   -8.5251   -3.8031   30.4339 N   0  0  0  0  0  0  0  0  0  0  0  0
   -7.9179   -4.9437   30.0181 C   0  0  0  0  0  0  0  0  0  0  0  0
   -6.6016   -4.8606   29.5041 C   0  0  0  0  0  0  0  0  0  0  0  0
   -8.6011   -6.1351   30.0869 O   0  0  0  0  0  0  0  0  0  0  0  0
   -5.8470   -7.2886   29.6879 C   0  0  0  0  0  0  0  0  0  0  0  0
   -5.8184   -5.9964   29.0459 N   0  0  0  0  0  0  0  0  0  0  0  0
   -5.9328   -8.3438   29.0690 O   0  0  0  0  0  0  0  0  0  0  0  0
   -4.9396   -5.7225   27.9902 C   0  0  2  0  0  0  0  0  0  0  0  0
   -3.9687   -4.5872   28.4048 C   0  0  0  0  0  0  0  0  0  0  0  0
   -5.9627   -3.5809   29.4739 C   0  0  0  0  0  0  0  0  0  0  0  0
   -4.6015   -3.4529   28.9463 N   0  0  0  0  0  0  0  0  0  0  0  0
   -5.7028   -5.3361   26.7394 C   0  0  0  0  0  0  0  0  0  0  0  0
   -5.2725   -5.9253   25.5016 N   0  0  0  0  0  0  0  0  0  0  0  0
   -8.0829   -6.5802   22.4440 C   0  0  0  0  0  0  0  0  0  0  0  0
   -7.8578   -7.5711   23.3897 C   0  0  0  0  0  0  0  0  0  0  0  0
   -6.9339   -7.3518   24.4042 C   0  0  0  0  0  0  0  0  0  0  0  0
   -6.2292   -6.1512   24.4641 C   0  0  0  0  0  0  0  0  0  0  0  0
   -6.4492   -5.1705   23.5127 C   0  0  0  0  0  0  0  0  0  0  0  0
   -7.3812   -5.3850   22.5044 C   0  0  0  0  0  0  0  0  0  0  0  0
  1  2  1  0  0  0  0
  2  3  2  0  0  0  0
  2 20  1  0  0  0  0
  4  6  1  0  0  0  0
  5  6  2  0  0  0  0
  5 16  1  0  0  0  0
  6  7  1  0  0  0  0
  7  8  1  0  0  0  0
  8  9  1  0  0  0  0
  8 10  2  0  0  0  0
  9 12  1  0  0  0  0
  9 16  2  0  0  0  0
 11 13  1  0  0  0  0
 11 12  1  0  0  0  0
 12 14  1  0  0  0  0
 14 15  1  0  0  0  0
 14 18  1  6  0  0  0
 15 17  1  0  0  0  0
 16 17  1  0  0  0  0
 18 19  1  0  0  0  0
 19 23  1  0  0  0  0
 20 21  2  0  0  0  0
 20 25  1  0  0  0  0
 21 22  1  0  0  0  0
 22 23  2  0  0  0  0
 23 24  1  0  0  0  0
 24 25  2  0  0  0  0
M  END
>  <CHROM.1>
134.83736794,-135.64737521,150.10923984,-89.31983431,107.44068960,-6.95478689
-5.42685901,26.86696287,1.79732336,0.68546145,-2.03010013

>  <Name>
ligand

>  <RI>
0

>  <Rbt.Current_Directory>
/home/itssahil/PROJECTS/Mol_Feturizer/New_Systems/rnas/4LVV

>  <Rbt.Executable>
rbdock ($Id: //depot/dev/client3/rdock/2013.1/src/exe/rbdock.cxx#4 $)

>  <Rbt.Library>
libRbt.so (2013.1, Build901 2013/11/27)

>  <Rbt.Parameter_File>
/export/apps/rDock/src/rDock_2013.1_src/data/scripts/dock_solv.prm

>  <Rbt.Receptor>
prm/blind_docking_100.prm

>  <SCORE>
-12.5773

>  <SCORE.INTER>
-13.3712

>  <SCORE.INTER.CONST>
1

>  <SCORE.INTER.POLAR>
0

>  <SCORE.INTER.ROT>
5

>  <SCORE.INTER.SOLV>
13.0157

>  <SCORE.INTER.VDW>
-20.186

>  <SCORE.INTER.norm>
-0.534846

>  <SCORE.INTRA>
0.793881

>  <SCORE.INTRA.DIHEDRAL>
4.26798

>  <SCORE.INTRA.DIHEDRAL.0>
3.94806

>  <SCORE.INTRA.POLAR>
0

>  <SCORE.INTRA.POLAR.0>
0

>  <SCORE.INTRA.REPUL>
0

>  <SCORE.INTRA.REPUL.0>
0

>  <SCORE.INTRA.SOLV>
-0.657346

>  <SCORE.INTRA.SOLV.lig_0>
-70.9803

>  <SCORE.INTRA.VDW>
-1.01143

>  <SCORE.INTRA.VDW.0>
-0.709409

>  <SCORE.INTRA.norm>
0.0317552

>  <SCORE.RESTR>
0

>  <SCORE.RESTR.CAVITY>
0

>  <SCORE.RESTR.norm>
0

>  <SCORE.SYSTEM>
0

>  <SCORE.SYSTEM.CONST>
0

>  <SCORE.SYSTEM.DIHEDRAL>
0

>  <SCORE.SYSTEM.SOLV>
0

>  <SCORE.SYSTEM.norm>
0

>  <SCORE.heavy>
25

>  <SCORE.norm>
-0.503091

>  <RMSD>
20.950

$$$$
ligand
 OpenBabel11021811503D
libRbt.so/2013.1/901 2013/11/27
 25 27  0  0  0  0  0  0  0  0999 V2000
  -10.8102   -5.1712   21.5451 N   0  0  0  0  0  0  0  0  0  0  0  0
   -9.5198   -5.7486   21.3287 C   0  0  0  0  0  0  0  0  0  0  0  0
   -9.2396   -6.2716   20.2571 O   0  0  0  0  0  0  0  0  0  0  0  0
   -6.6012   -0.7257   27.4416 N   0  0  0  0  0  0  0  0  0  0  0  0
   -5.0521   -2.5541   27.2913 N   0  0  0  0  0  0  0  0  0  0  0  0
   -6.2689   -2.0953   27.6649 C   0  0  0  0  0  0  0  0  0  0  0  0
   -7.1817   -2.9191   28.2621 N   0  0  0  0  0  0  0  0  0  0  0  0
   -6.9195   -4.2285   28.5054 C   0  0  0  0  0  0  0  0  0  0  0  0
   -5.6626   -4.7504   28.1162 C   0  0  0  0  0  0  0  0  0  0  0  0
   -7.8828   -5.0103   29.0985 O   0  0  0  0  0  0  0  0  0  0  0  0
   -5.5542   -6.8739   29.5224 C   0  0  0  0  0  0  0  0  0  0  0  0
   -5.2323   -6.1219   28.3334 N   0  0  0  0  0  0  0  0  0  0  0  0
   -5.7992   -8.0754   29.5107 O   0  0  0  0  0  0  0  0  0  0  0  0
   -4.3821   -6.6390   27.3477 C   0  0  2  0  0  0  0  0  0  0  0  0
   -3.1251   -5.7401   27.2233 C   0  0  0  0  0  0  0  0  0  0  0  0
   -4.7165   -3.8648   27.5100 C   0  0  0  0  0  0  0  0  0  0  0  0
   -3.4055   -4.3675   27.0903 N   0  0  0  0  0  0  0  0  0  0  0  0
   -5.0973   -6.7365   26.0154 C   0  0  0  0  0  0  0  0  0  0  0  0
   -5.5993   -5.5145   25.4507 N   0  0  0  0  0  0  0  0  0  0  0  0
   -8.5142   -5.6876   22.4258 C   0  0  0  0  0  0  0  0  0  0  0  0
   -8.8794   -5.9329   23.7424 C   0  0  0  0  0  0  0  0  0  0  0  0
   -7.9173   -5.8689   24.7429 C   0  0  0  0  0  0  0  0  0  0  0  0
   -6.5931   -5.5736   24.4252 C   0  0  0  0  0  0  0  0  0  0  0  0
   -6.2316   -5.3403   23.1098 C   0  0  0  0  0  0  0  0  0  0  0  0
   -7.1957   -5.3933   22.1103 C   0  0  0  0  0  0  0  0  0  0  0  0
  1  2  1  0  0  0  0
  2  3  2  0  0  0  0
  2 20  1  0  0  0  0
  4  6  1  0  0  0  0
  5  6  2  0  0  0  0
  5 16  1  0  0  0  0
  6  7  1  0  0  0  0
  7  8  1  0  0  0  0
  8  9  1  0  0  0  0
  8 10  2  0  0  0  0
  9 12  1  0  0  0  0
  9 16  2  0  0  0  0
 11 13  1  0  0  0  0
 11 12  1  0  0  0  0
 12 14  1  0  0  0  0
 14 15  1  0  0  0  0
 14 18  1  6  0  0  0
 15 17  1  0  0  0  0
 16 17  1  0  0  0  0
 18 19  1  0  0  0  0
 19 23  1  0  0  0  0
 20 21  2  0  0  0  0
 20 25  1  0  0  0  0
 21 22  1  0  0  0  0
 22 23  2  0  0  0  0
 23 24  1  0  0  0  0
 24 25  2  0  0  0  0
M  END
>  <CHROM.1>
143.64637293,60.32921884,-162.10909659,75.70705699,42.24729025,-6.52199507
-5.11722509,25.99418452,2.62252941,0.98481487,-2.65578342

>  <Name>
ligand

>  <RI>
0

>  <Rbt.Current_Directory>
/home/itssahil/PROJECTS/Mol_Feturizer/New_Systems/rnas/4LVV

>  <Rbt.Executable>
rbdock ($Id: //depot/dev/client3/rdock/2013.1/src/exe/rbdock.cxx#4 $)

>  <Rbt.Library>
libRbt.so (2013.1, Build901 2013/11/27)

>  <Rbt.Parameter_File>
/export/apps/rDock/src/rDock_2013.1_src/data/scripts/dock_solv.prm

>  <Rbt.Receptor>
prm/blind_docking_80.prm

>  <SCORE>
-12.5221

>  <SCORE.INTER>
-12.0861

>  <SCORE.INTER.CONST>
1

>  <SCORE.INTER.POLAR>
0

>  <SCORE.INTER.ROT>
5

>  <SCORE.INTER.SOLV>
17.3435

>  <SCORE.INTER.VDW>
-20.7719

>  <SCORE.INTER.norm>
-0.483443

>  <SCORE.INTRA>
-0.436014

>  <SCORE.INTRA.DIHEDRAL>
-0.616561

>  <SCORE.INTRA.DIHEDRAL.0>
3.94806

>  <SCORE.INTRA.POLAR>
0

>  <SCORE.INTRA.POLAR.0>
0

>  <SCORE.INTRA.REPUL>
0

>  <SCORE.INTRA.REPUL.0>
0

>  <SCORE.INTRA.SOLV>
2.25847

>  <SCORE.INTRA.SOLV.lig_0>
-70.9803

>  <SCORE.INTRA.VDW>
-1.25697

>  <SCORE.INTRA.VDW.0>
-0.709409

>  <SCORE.INTRA.norm>
-0.0174406

>  <SCORE.RESTR>
0

>  <SCORE.RESTR.CAVITY>
0

>  <SCORE.RESTR.norm>
0

>  <SCORE.SYSTEM>
0

>  <SCORE.SYSTEM.CONST>
0

>  <SCORE.SYSTEM.DIHEDRAL>
0

>  <SCORE.SYSTEM.SOLV>
0

>  <SCORE.SYSTEM.norm>
0

>  <SCORE.heavy>
25

>  <SCORE.norm>
-0.500884

>  <RMSD>
20.964

$$$$
ligand
 OpenBabel11021811503D
libRbt.so/2013.1/901 2013/11/27
 25 27  0  0  0  0  0  0  0  0999 V2000
   -0.2940   -7.3084   27.7070 N   0  0  0  0  0  0  0  0  0  0  0  0
   -1.5456   -7.7261   28.2586 C   0  0  0  0  0  0  0  0  0  0  0  0
   -1.6176   -8.7269   28.9610 O   0  0  0  0  0  0  0  0  0  0  0  0
   -6.9550    1.3411   31.9014 N   0  0  0  0  0  0  0  0  0  0  0  0
   -6.3983    0.6022   29.6857 N   0  0  0  0  0  0  0  0  0  0  0  0
   -6.2582    0.4578   31.0238 C   0  0  0  0  0  0  0  0  0  0  0  0
   -5.4524   -0.5134   31.5490 N   0  0  0  0  0  0  0  0  0  0  0  0
   -4.7607   -1.3780   30.7638 C   0  0  0  0  0  0  0  0  0  0  0  0
   -4.8919   -1.2688   29.3587 C   0  0  0  0  0  0  0  0  0  0  0  0
   -3.9753   -2.3420   31.3512 O   0  0  0  0  0  0  0  0  0  0  0  0
   -2.8352   -2.5525   28.5708 C   0  0  0  0  0  0  0  0  0  0  0  0
   -4.1960   -2.1054   28.3945 N   0  0  0  0  0  0  0  0  0  0  0  0
   -2.5385   -3.7143   28.8276 O   0  0  0  0  0  0  0  0  0  0  0  0
   -4.9052   -2.3652   27.2150 C   0  0  2  0  0  0  0  0  0  0  0  0
   -5.2792   -1.0261   26.5290 C   0  0  0  0  0  0  0  0  0  0  0  0
   -5.7260   -0.2328   28.8318 C   0  0  0  0  0  0  0  0  0  0  0  0
   -5.8901   -0.0888   27.3826 N   0  0  0  0  0  0  0  0  0  0  0  0
   -6.1508   -3.1788   27.5026 C   0  0  0  0  0  0  0  0  0  0  0  0
   -6.1360   -4.5603   27.1084 N   0  0  0  0  0  0  0  0  0  0  0  0
   -2.7603   -6.9110   27.9776 C   0  0  0  0  0  0  0  0  0  0  0  0
   -3.8325   -6.9015   28.8592 C   0  0  0  0  0  0  0  0  0  0  0  0
   -4.9509   -6.1298   28.5685 C   0  0  0  0  0  0  0  0  0  0  0  0
   -4.9904   -5.3612   27.4069 C   0  0  0  0  0  0  0  0  0  0  0  0
   -3.9146   -5.3655   26.5362 C   0  0  0  0  0  0  0  0  0  0  0  0
   -2.8005   -6.1457   26.8211 C   0  0  0  0  0  0  0  0  0  0  0  0
  1  2  1  0  0  0  0
  2  3  2  0  0  0  0
  2 20  1  0  0  0  0
  4  6  1  0  0  0  0
  5  6  2  0  0  0  0
  5 16  1  0  0  0  0
  6  7  1  0  0  0  0
  7  8  1  0  0  0  0
  8  9  1  0  0  0  0
  8 10  2  0  0  0  0
  9 12  1  0  0  0  0
  9 16  2  0  0  0  0
 11 13  1  0  0  0  0
 11 12  1  0  0  0  0
 12 14  1  0  0  0  0
 14 15  1  0  0  0  0
 14 18  1  1  0  0  0
 15 17  1  0  0  0  0
 16 17  1  0  0  0  0
 18 19  1  0  0  0  0
 19 23  1  0  0  0  0
 20 21  2  0  0  0  0
 20 25  1  0  0  0  0
 21 22  1  0  0  0  0
 22 23  2  0  0  0  0
 23 24  1  0  0  0  0
 24 25  2  0  0  0  0
M  END
>  <CHROM.1>
108.48454056,-106.90807221,45.74299383,94.13640278,-153.27314026,-4.34034167
-3.31002237,28.71297731,-0.74204118,-0.94192137,0.99712908

>  <Name>
ligand

>  <RI>
0

>  <Rbt.Current_Directory>
/home/itssahil/PROJECTS/Mol_Feturizer/New_Systems/rnas/4LVV

>  <Rbt.Executable>
rbdock ($Id: //depot/dev/client3/rdock/2013.1/src/exe/rbdock.cxx#4 $)

>  <Rbt.Library>
libRbt.so (2013.1, Build901 2013/11/27)

>  <Rbt.Parameter_File>
/export/apps/rDock/src/rDock_2013.1_src/data/scripts/dock_solv.prm

>  <Rbt.Receptor>
prm/blind_docking_40.prm

>  <SCORE>
-6.44744

>  <SCORE.INTER>
-6.33586

>  <SCORE.INTER.CONST>
1

>  <SCORE.INTER.POLAR>
0

>  <SCORE.INTER.ROT>
5

>  <SCORE.INTER.SOLV>
9.28268

>  <SCORE.INTER.VDW>
-14.2515

>  <SCORE.INTER.norm>
-0.253435

>  <SCORE.INTRA>
-0.111572

>  <SCORE.INTRA.DIHEDRAL>
4.27154

>  <SCORE.INTRA.DIHEDRAL.0>
3.94806

>  <SCORE.INTRA.POLAR>
0

>  <SCORE.INTRA.POLAR.0>
0

>  <SCORE.INTRA.REPUL>
0

>  <SCORE.INTRA.REPUL.0>
0

>  <SCORE.INTRA.SOLV>
0.262585

>  <SCORE.INTRA.SOLV.lig_0>
-70.9803

>  <SCORE.INTRA.VDW>
-2.37863

>  <SCORE.INTRA.VDW.0>
-0.709409

>  <SCORE.INTRA.norm>
-0.00446286

>  <SCORE.RESTR>
0

>  <SCORE.RESTR.CAVITY>
0

>  <SCORE.RESTR.norm>
0

>  <SCORE.SYSTEM>
0

>  <SCORE.SYSTEM.CONST>
0

>  <SCORE.SYSTEM.DIHEDRAL>
0

>  <SCORE.SYSTEM.SOLV>
0

>  <SCORE.SYSTEM.norm>
0

>  <SCORE.heavy>
25

>  <SCORE.norm>
-0.257897

>  <RMSD>
20.994

$$$$
ligand
 OpenBabel11021811503D
libRbt.so/2013.1/901 2013/11/27
 25 27  0  0  0  0  0  0  0  0999 V2000
   -4.3819   -7.8647   20.8097 N   0  0  0  0  0  0  0  0  0  0  0  0
   -5.7700   -7.6261   21.0579 C   0  0  0  0  0  0  0  0  0  0  0  0
   -6.6223   -8.0048   20.2639 O   0  0  0  0  0  0  0  0  0  0  0  0
   -1.6528   -3.3368   30.8429 N   0  0  0  0  0  0  0  0  0  0  0  0
   -3.9432   -3.1925   30.1369 N   0  0  0  0  0  0  0  0  0  0  0  0
   -2.6316   -3.0152   29.8556 C   0  0  0  0  0  0  0  0  0  0  0  0
   -2.2287   -2.5237   28.6455 N   0  0  0  0  0  0  0  0  0  0  0  0
   -3.1141   -2.1949   27.6706 C   0  0  0  0  0  0  0  0  0  0  0  0
   -4.4951   -2.3793   27.9208 C   0  0  0  0  0  0  0  0  0  0  0  0
   -2.6472   -1.7162   26.4690 O   0  0  0  0  0  0  0  0  0  0  0  0
   -5.5239   -0.8910   26.1250 C   0  0  0  0  0  0  0  0  0  0  0  0
   -5.5574   -2.0497   26.9847 N   0  0  0  0  0  0  0  0  0  0  0  0
   -5.6305    0.2573   26.5419 O   0  0  0  0  0  0  0  0  0  0  0  0
   -6.6818   -2.8825   27.0478 C   0  0  2  0  0  0  0  0  0  0  0  0
   -7.2640   -2.8601   28.4845 C   0  0  0  0  0  0  0  0  0  0  0  0
   -4.8939   -2.8773   29.2013 C   0  0  0  0  0  0  0  0  0  0  0  0
   -6.3139   -3.0849   29.4980 N   0  0  0  0  0  0  0  0  0  0  0  0
   -6.3275   -4.2989   26.6420 C   0  0  0  0  0  0  0  0  0  0  0  0
   -7.3073   -5.0277   25.8850 N   0  0  0  0  0  0  0  0  0  0  0  0
   -6.1634   -6.9224   22.3104 C   0  0  0  0  0  0  0  0  0  0  0  0
   -6.2162   -5.5363   22.3632 C   0  0  0  0  0  0  0  0  0  0  0  0
   -6.5877   -4.9100   23.5467 C   0  0  0  0  0  0  0  0  0  0  0  0
   -6.9174   -5.6683   24.6684 C   0  0  0  0  0  0  0  0  0  0  0  0
   -6.8736   -7.0502   24.6078 C   0  0  0  0  0  0  0  0  0  0  0  0
   -6.4914   -7.6767   23.4277 C   0  0  0  0  0  0  0  0  0  0  0  0
  1  2  1  0  0  0  0
  2  3  2  0  0  0  0
  2 20  1  0  0  0  0
  4  6  1  0  0  0  0
  5  6  2  0  0  0  0
  5 16  1  0  0  0  0
  6  7  1  0  0  0  0
  7  8  1  0  0  0  0
  8  9  1  0  0  0  0
  8 10  2  0  0  0  0
  9 12  1  0  0  0  0
  9 16  2  0  0  0  0
 11 13  1  0  0  0  0
 11 12  1  0  0  0  0
 12 14  1  0  0  0  0
 14 15  1  0  0  0  0
 14 18  1  1  0  0  0
 15 17  1  0  0  0  0
 16 17  1  0  0  0  0
 18 19  1  0  0  0  0
 19 23  1  0  0  0  0
 20 21  2  0  0  0  0
 20 25  1  0  0  0  0
 21 22  1  0  0  0  0
 22 23  2  0  0  0  0
 23 24  1  0  0  0  0
 24 25  2  0  0  0  0
M  END
>  <CHROM.1>
-69.64711600,-142.86097603,128.90937326,-69.69172977,87.18049769,-5.26794541
-4.05697808,26.06727585,-1.84207103,-0.36191545,0.85674013

>  <Name>
ligand

>  <RI>
0

>  <Rbt.Current_Directory>
/home/itssahil/PROJECTS/Mol_Feturizer/New_Systems/rnas/4LVV

>  <Rbt.Executable>
rbdock ($Id: //depot/dev/client3/rdock/2013.1/src/exe/rbdock.cxx#4 $)

>  <Rbt.Library>
libRbt.so (2013.1, Build901 2013/11/27)

>  <Rbt.Parameter_File>
/export/apps/rDock/src/rDock_2013.1_src/data/scripts/dock_solv.prm

>  <Rbt.Receptor>
prm/blind_docking_60.prm

>  <SCORE>
-12.4845

>  <SCORE.INTER>
-12.9792

>  <SCORE.INTER.CONST>
1

>  <SCORE.INTER.POLAR>
0

>  <SCORE.INTER.ROT>
5

>  <SCORE.INTER.SOLV>
12.4725

>  <SCORE.INTER.VDW>
-19.7436

>  <SCORE.INTER.norm>
-0.519167

>  <SCORE.INTRA>
0.494617

>  <SCORE.INTRA.DIHEDRAL>
3.98005

>  <SCORE.INTRA.DIHEDRAL.0>
3.94806

>  <SCORE.INTRA.POLAR>
0

>  <SCORE.INTRA.POLAR.0>
0

>  <SCORE.INTRA.REPUL>
0

>  <SCORE.INTRA.REPUL.0>
0

>  <SCORE.INTRA.SOLV>
-0.669912

>  <SCORE.INTRA.SOLV.lig_0>
-70.9803

>  <SCORE.INTRA.VDW>
-1.16045

>  <SCORE.INTRA.VDW.0>
-0.709409

>  <SCORE.INTRA.norm>
0.0197847

>  <SCORE.RESTR>
0

>  <SCORE.RESTR.CAVITY>
0

>  <SCORE.RESTR.norm>
0

>  <SCORE.SYSTEM>
0

>  <SCORE.SYSTEM.CONST>
0

>  <SCORE.SYSTEM.DIHEDRAL>
0

>  <SCORE.SYSTEM.SOLV>
0

>  <SCORE.SYSTEM.norm>
0

>  <SCORE.heavy>
25

>  <SCORE.norm>
-0.499382

>  <RMSD>
21.005

$$$$
ligand
 OpenBabel11021811503D
libRbt.so/2013.1/901 2013/11/27
 25 27  0  0  0  0  0  0  0  0999 V2000
   -4.6867   -7.4686   20.4615 N   0  0  0  0  0  0  0  0  0  0  0  0
   -5.8302   -7.9144   21.1956 C   0  0  0  0  0  0  0  0  0  0  0  0
   -6.4579   -8.9032   20.8373 O   0  0  0  0  0  0  0  0  0  0  0  0
   -2.0793   -3.2902   31.1349 N   0  0  0  0  0  0  0  0  0  0  0  0
   -4.2868   -3.0988   30.2100 N   0  0  0  0  0  0  0  0  0  0  0  0
   -2.9502   -2.9561   30.0551 C   0  0  0  0  0  0  0  0  0  0  0  0
   -2.4206   -2.4875   28.8853 N   0  0  0  0  0  0  0  0  0  0  0  0
   -3.1996   -2.1483   27.8268 C   0  0  0  0  0  0  0  0  0  0  0  0
   -4.6024   -2.2968   27.9441 C   0  0  0  0  0  0  0  0  0  0  0  0
   -2.6075   -1.6940   26.6718 O   0  0  0  0  0  0  0  0  0  0  0  0
   -5.4163   -0.8039   26.0448 C   0  0  0  0  0  0  0  0  0  0  0  0
   -5.5612   -1.9521   26.9071 N   0  0  0  0  0  0  0  0  0  0  0  0
   -5.7926    0.3209   26.3560 O   0  0  0  0  0  0  0  0  0  0  0  0
   -6.7068   -2.7570   26.8685 C   0  0  2  0  0  0  0  0  0  0  0  0
   -7.4238   -2.7049   28.2421 C   0  0  0  0  0  0  0  0  0  0  0  0
   -5.1349   -2.7711   29.1843 C   0  0  0  0  0  0  0  0  0  0  0  0
   -6.5816   -2.9414   29.3444 N   0  0  0  0  0  0  0  0  0  0  0  0
   -6.3505   -4.1858   26.5109 C   0  0  0  0  0  0  0  0  0  0  0  0
   -7.3462   -4.9549   25.8173 N   0  0  0  0  0  0  0  0  0  0  0  0
   -6.2354   -7.1635   22.4166 C   0  0  0  0  0  0  0  0  0  0  0  0
   -6.5460   -7.8303   23.5937 C   0  0  0  0  0  0  0  0  0  0  0  0
   -6.9197   -7.1006   24.7157 C   0  0  0  0  0  0  0  0  0  0  0  0
   -6.9697   -5.7091   24.6631 C   0  0  0  0  0  0  0  0  0  0  0  0
   -6.6487   -5.0481   23.4903 C   0  0  0  0  0  0  0  0  0  0  0  0
   -6.2856   -5.7780   22.3648 C   0  0  0  0  0  0  0  0  0  0  0  0
  1  2  1  0  0  0  0
  2  3  2  0  0  0  0
  2 20  1  0  0  0  0
  4  6  1  0  0  0  0
  5  6  2  0  0  0  0
  5 16  1  0  0  0  0
  6  7  1  0  0  0  0
  7  8  1  0  0  0  0
  8  9  1  0  0  0  0
  8 10  2  0  0  0  0
  9 12  1  0  0  0  0
  9 16  2  0  0  0  0
 11 13  1  0  0  0  0
 11 12  1  0  0  0  0
 12 14  1  0  0  0  0
 14 15  1  0  0  0  0
 14 18  1  1  0  0  0
 15 17  1  0  0  0  0
 16 17  1  0  0  0  0
 18 19  1  0  0  0  0
 19 23  1  0  0  0  0
 20 21  2  0  0  0  0
 20 25  1  0  0  0  0
 21 22  1  0  0  0  0
 22 23  2  0  0  0  0
 23 24  1  0  0  0  0
 24 25  2  0  0  0  0
M  END
>  <CHROM.1>
-84.96920972,-150.72534076,132.75119777,108.91530513,-133.40395281,-5.37845237
-4.06984592,26.09727838,-1.86691439,-0.64582909,0.73622116

>  <Name>
ligand

>  <RI>
0

>  <Rbt.Current_Directory>
/home/itssahil/PROJECTS/Mol_Feturizer/New_Systems/rnas/4LVV

>  <Rbt.Executable>
rbdock ($Id: //depot/dev/client3/rdock/2013.1/src/exe/rbdock.cxx#4 $)

>  <Rbt.Library>
libRbt.so (2013.1, Build901 2013/11/27)

>  <Rbt.Parameter_File>
/export/apps/rDock/src/rDock_2013.1_src/data/scripts/dock_solv.prm

>  <Rbt.Receptor>
prm/blind_docking_60.prm

>  <SCORE>
-12.6952

>  <SCORE.INTER>
-12.7776

>  <SCORE.INTER.CONST>
1

>  <SCORE.INTER.POLAR>
0

>  <SCORE.INTER.ROT>
5

>  <SCORE.INTER.SOLV>
12.3621

>  <SCORE.INTER.VDW>
-19.5724

>  <SCORE.INTER.norm>
-0.511104

>  <SCORE.INTRA>
0.0824507

>  <SCORE.INTRA.DIHEDRAL>
2.77865

>  <SCORE.INTRA.DIHEDRAL.0>
3.94806

>  <SCORE.INTRA.POLAR>
0

>  <SCORE.INTRA.POLAR.0>
0

>  <SCORE.INTRA.REPUL>
0

>  <SCORE.INTRA.REPUL.0>
0

>  <SCORE.INTRA.SOLV>
-0.645425

>  <SCORE.INTRA.SOLV.lig_0>
-70.9803

>  <SCORE.INTRA.VDW>
-0.984164

>  <SCORE.INTRA.VDW.0>
-0.709409

>  <SCORE.INTRA.norm>
0.00329803

>  <SCORE.RESTR>
0

>  <SCORE.RESTR.CAVITY>
0

>  <SCORE.RESTR.norm>
0

>  <SCORE.SYSTEM>
0

>  <SCORE.SYSTEM.CONST>
0

>  <SCORE.SYSTEM.DIHEDRAL>
0

>  <SCORE.SYSTEM.SOLV>
0

>  <SCORE.SYSTEM.norm>
0

>  <SCORE.heavy>
25

>  <SCORE.norm>
-0.507806

>  <RMSD>
21.037

$$$$
ligand
 OpenBabel11021811503D
libRbt.so/2013.1/901 2013/11/27
 25 27  0  0  0  0  0  0  0  0999 V2000
   -7.1912   -5.4418   22.1199 N   0  0  0  0  0  0  0  0  0  0  0  0
   -7.6857   -5.7479   23.4265 C   0  0  0  0  0  0  0  0  0  0  0  0
   -8.8559   -6.0686   23.5939 O   0  0  0  0  0  0  0  0  0  0  0  0
   -9.4768   -1.6378   30.2725 N   0  0  0  0  0  0  0  0  0  0  0  0
   -7.1435   -2.0994   30.6006 N   0  0  0  0  0  0  0  0  0  0  0  0
   -8.3903   -2.5597   30.3468 C   0  0  0  0  0  0  0  0  0  0  0  0
   -8.6284   -3.8941   30.1704 N   0  0  0  0  0  0  0  0  0  0  0  0
   -7.6359   -4.8178   30.2358 C   0  0  0  0  0  0  0  0  0  0  0  0
   -6.3149   -4.3747   30.4854 C   0  0  0  0  0  0  0  0  0  0  0  0
   -7.9358   -6.1451   30.0378 O   0  0  0  0  0  0  0  0  0  0  0  0
   -5.2050   -6.5396   31.2468 C   0  0  0  0  0  0  0  0  0  0  0  0
   -5.1581   -5.2468   30.6070 N   0  0  0  0  0  0  0  0  0  0  0  0
   -5.0182   -7.5925   30.6466 O   0  0  0  0  0  0  0  0  0  0  0  0
   -3.9524   -4.6983   30.1518 C   0  0  2  0  0  0  0  0  0  0  0  0
   -3.6610   -3.3807   30.9151 C   0  0  0  0  0  0  0  0  0  0  0  0
   -6.0930   -2.9756   30.6853 C   0  0  0  0  0  0  0  0  0  0  0  0
   -4.7393   -2.4770   30.9431 N   0  0  0  0  0  0  0  0  0  0  0  0
   -4.0049   -4.4448   28.6587 C   0  0  0  0  0  0  0  0  0  0  0  0
   -4.0435   -5.5960   27.8000 N   0  0  0  0  0  0  0  0  0  0  0  0
   -6.7463   -5.6864   24.5808 C   0  0  0  0  0  0  0  0  0  0  0  0
   -7.0300   -4.9019   25.6902 C   0  0  0  0  0  0  0  0  0  0  0  0
   -6.1334   -4.8668   26.7512 C   0  0  0  0  0  0  0  0  0  0  0  0
   -4.9643   -5.6237   26.7073 C   0  0  0  0  0  0  0  0  0  0  0  0
   -4.6909   -6.4128   25.6037 C   0  0  0  0  0  0  0  0  0  0  0  0
   -5.5820   -6.4396   24.5376 C   0  0  0  0  0  0  0  0  0  0  0  0
  1  2  1  0  0  0  0
  2  3  2  0  0  0  0
  2 20  1  0  0  0  0
  4  6  1  0  0  0  0
  5  6  2  0  0  0  0
  5 16  1  0  0  0  0
  6  7  1  0  0  0  0
  7  8  1  0  0  0  0
  8  9  1  0  0  0  0
  8 10  2  0  0  0  0
  9 12  1  0  0  0  0
  9 16  2  0  0  0  0
 11 13  1  0  0  0  0
 11 12  1  0  0  0  0
 12 14  1  0  0  0  0
 14 15  1  0  0  0  0
 14 18  1  6  0  0  0
 15 17  1  0  0  0  0
 16 17  1  0  0  0  0
 18 19  1  0  0  0  0
 19 23  1  0  0  0  0
 20 21  2  0  0  0  0
 20 25  1  0  0  0  0
 21 22  1  0  0  0  0
 22 23  2  0  0  0  0
 23 24  1  0  0  0  0
 24 25  2  0  0  0  0
M  END
>  <CHROM.1>
114.93958385,-68.49456215,135.04350221,-25.39762702,125.12218700,-6.26096862
-4.80911766,28.33571297,1.71832703,0.51668532,-1.91842264

>  <Name>
ligand

>  <RI>
0

>  <Rbt.Current_Directory>
/home/itssahil/PROJECTS/Mol_Feturizer/New_Systems/rnas/4LVV

>  <Rbt.Executable>
rbdock ($Id: //depot/dev/client3/rdock/2013.1/src/exe/rbdock.cxx#4 $)

>  <Rbt.Library>
libRbt.so (2013.1, Build901 2013/11/27)

>  <Rbt.Parameter_File>
/export/apps/rDock/src/rDock_2013.1_src/data/scripts/dock_solv.prm

>  <Rbt.Receptor>
prm/blind_docking_40.prm

>  <SCORE>
-11.6332

>  <SCORE.INTER>
-10.8237

>  <SCORE.INTER.CONST>
1

>  <SCORE.INTER.POLAR>
0

>  <SCORE.INTER.ROT>
5

>  <SCORE.INTER.SOLV>
9.17562

>  <SCORE.INTER.VDW>
-17.2076

>  <SCORE.INTER.norm>
-0.432946

>  <SCORE.INTRA>
-0.809548

>  <SCORE.INTRA.DIHEDRAL>
0.641825

>  <SCORE.INTRA.DIHEDRAL.0>
3.94806

>  <SCORE.INTRA.POLAR>
0

>  <SCORE.INTRA.POLAR.0>
0

>  <SCORE.INTRA.REPUL>
0

>  <SCORE.INTRA.REPUL.0>
0

>  <SCORE.INTRA.SOLV>
0.316833

>  <SCORE.INTRA.SOLV.lig_0>
-70.9803

>  <SCORE.INTRA.VDW>
-1.28888

>  <SCORE.INTRA.VDW.0>
-0.709409

>  <SCORE.INTRA.norm>
-0.0323819

>  <SCORE.RESTR>
0

>  <SCORE.RESTR.CAVITY>
0

>  <SCORE.RESTR.norm>
0

>  <SCORE.SYSTEM>
0

>  <SCORE.SYSTEM.CONST>
0

>  <SCORE.SYSTEM.DIHEDRAL>
0

>  <SCORE.SYSTEM.SOLV>
0

>  <SCORE.SYSTEM.norm>
0

>  <SCORE.heavy>
25

>  <SCORE.norm>
-0.465328

>  <RMSD>
21.043

$$$$
ligand
 OpenBabel11021811503D
libRbt.so/2013.1/901 2013/11/27
 25 27  0  0  0  0  0  0  0  0999 V2000
   -1.4741   -6.9789   27.6661 N   0  0  0  0  0  0  0  0  0  0  0  0
   -2.1381   -7.8063   28.6252 C   0  0  0  0  0  0  0  0  0  0  0  0
   -1.6200   -8.8419   29.0243 O   0  0  0  0  0  0  0  0  0  0  0  0
  -12.4483   -3.0856   25.9701 N   0  0  0  0  0  0  0  0  0  0  0  0
  -10.1807   -3.6757   26.4943 N   0  0  0  0  0  0  0  0  0  0  0  0
  -11.3122   -3.0143   26.8305 C   0  0  0  0  0  0  0  0  0  0  0  0
  -11.3822   -2.2706   27.9752 N   0  0  0  0  0  0  0  0  0  0  0  0
  -10.3321   -2.1610   28.8284 C   0  0  0  0  0  0  0  0  0  0  0  0
   -9.1348   -2.8499   28.5194 C   0  0  0  0  0  0  0  0  0  0  0  0
  -10.4671   -1.4077   29.9708 O   0  0  0  0  0  0  0  0  0  0  0  0
   -7.4621   -1.6166   29.9957 C   0  0  0  0  0  0  0  0  0  0  0  0
   -7.9237   -2.8068   29.3226 N   0  0  0  0  0  0  0  0  0  0  0  0
   -7.0404   -1.6176   31.1472 O   0  0  0  0  0  0  0  0  0  0  0  0
   -7.1651   -3.9841   29.3138 C   0  0  2  0  0  0  0  0  0  0  0  0
   -6.7789   -4.3415   27.8555 C   0  0  0  0  0  0  0  0  0  0  0  0
   -9.0789   -3.6066   27.3065 C   0  0  0  0  0  0  0  0  0  0  0  0
   -7.8583   -4.3363   26.9526 N   0  0  0  0  0  0  0  0  0  0  0  0
   -7.9313   -5.1244   29.9533 C   0  0  0  0  0  0  0  0  0  0  0  0
   -7.1672   -6.1012   30.6787 N   0  0  0  0  0  0  0  0  0  0  0  0
   -3.4665   -7.3768   29.1446 C   0  0  0  0  0  0  0  0  0  0  0  0
   -4.6209   -8.0725   28.8126 C   0  0  0  0  0  0  0  0  0  0  0  0
   -5.8448   -7.6467   29.3142 C   0  0  0  0  0  0  0  0  0  0  0  0
   -5.9111   -6.5373   30.1548 C   0  0  0  0  0  0  0  0  0  0  0  0
   -4.7560   -5.8534   30.4917 C   0  0  0  0  0  0  0  0  0  0  0  0
   -3.5332   -6.2722   29.9813 C   0  0  0  0  0  0  0  0  0  0  0  0
  1  2  1  0  0  0  0
  2  3  2  0  0  0  0
  2 20  1  0  0  0  0
  4  6  1  0  0  0  0
  5  6  2  0  0  0  0
  5 16  1  0  0  0  0
  6  7  1  0  0  0  0
  7  8  1  0  0  0  0
  8  9  1  0  0  0  0
  8 10  2  0  0  0  0
  9 12  1  0  0  0  0
  9 16  2  0  0  0  0
 11 13  1  0  0  0  0
 11 12  1  0  0  0  0
 12 14  1  0  0  0  0
 14 15  1  0  0  0  0
 14 18  1  6  0  0  0
 15 17  1  0  0  0  0
 16 17  1  0  0  0  0
 18 19  1  0  0  0  0
 19 23  1  0  0  0  0
 20 21  2  0  0  0  0
 20 25  1  0  0  0  0
 21 22  1  0  0  0  0
 22 23  2  0  0  0  0
 23 24  1  0  0  0  0
 24 25  2  0  0  0  0
M  END
>  <CHROM.1>
136.18911762,-146.56540497,-40.20515089,-91.07793121,110.91420149,-7.11476994
-4.62690641,28.82754104,0.28543569,0.54596859,-2.28750766

>  <Name>
ligand

>  <RI>
0

>  <Rbt.Current_Directory>
/home/itssahil/PROJECTS/Mol_Feturizer/New_Systems/rnas/4LVV

>  <Rbt.Executable>
rbdock ($Id: //depot/dev/client3/rdock/2013.1/src/exe/rbdock.cxx#4 $)

>  <Rbt.Library>
libRbt.so (2013.1, Build901 2013/11/27)

>  <Rbt.Parameter_File>
/export/apps/rDock/src/rDock_2013.1_src/data/scripts/dock_solv.prm

>  <Rbt.Receptor>
prm/blind_docking_80.prm

>  <SCORE>
-9.70907

>  <SCORE.INTER>
-9.38234

>  <SCORE.INTER.CONST>
1

>  <SCORE.INTER.POLAR>
0

>  <SCORE.INTER.ROT>
5

>  <SCORE.INTER.SOLV>
9.3556

>  <SCORE.INTER.VDW>
-16.3068

>  <SCORE.INTER.norm>
-0.375294

>  <SCORE.INTRA>
-0.327226

>  <SCORE.INTRA.DIHEDRAL>
2.62822

>  <SCORE.INTRA.DIHEDRAL.0>
3.94806

>  <SCORE.INTRA.POLAR>
0

>  <SCORE.INTRA.POLAR.0>
0

>  <SCORE.INTRA.REPUL>
0

>  <SCORE.INTRA.REPUL.0>
0

>  <SCORE.INTRA.SOLV>
-0.554951

>  <SCORE.INTRA.SOLV.lig_0>
-70.9803

>  <SCORE.INTRA.VDW>
-1.36386

>  <SCORE.INTRA.VDW.0>
-0.709409

>  <SCORE.INTRA.norm>
-0.0130891

>  <SCORE.RESTR>
0.000505149

>  <SCORE.RESTR.CAVITY>
0.000505149

>  <SCORE.RESTR.norm>
2.02059e-05

>  <SCORE.SYSTEM>
0

>  <SCORE.SYSTEM.CONST>
0

>  <SCORE.SYSTEM.DIHEDRAL>
0

>  <SCORE.SYSTEM.SOLV>
0

>  <SCORE.SYSTEM.norm>
0

>  <SCORE.heavy>
25

>  <SCORE.norm>
-0.388363

>  <RMSD>
21.094

$$$$
ligand
 OpenBabel11021811503D
libRbt.so/2013.1/901 2013/11/27
 25 27  0  0  0  0  0  0  0  0999 V2000
   -9.8630   -2.3042   32.0636 N   0  0  0  0  0  0  0  0  0  0  0  0
   -9.2436   -2.5049   30.7902 C   0  0  0  0  0  0  0  0  0  0  0  0
   -9.4934   -1.7627   29.8485 O   0  0  0  0  0  0  0  0  0  0  0  0
   -7.2175   -6.6054   23.0787 N   0  0  0  0  0  0  0  0  0  0  0  0
   -5.3852   -6.6014   24.6305 N   0  0  0  0  0  0  0  0  0  0  0  0
   -6.6120   -6.1458   24.2863 C   0  0  0  0  0  0  0  0  0  0  0  0
   -7.2767   -5.2450   25.0704 N   0  0  0  0  0  0  0  0  0  0  0  0
   -6.7483   -4.7681   26.2262 C   0  0  0  0  0  0  0  0  0  0  0  0
   -5.4727   -5.2313   26.6285 C   0  0  0  0  0  0  0  0  0  0  0  0
   -7.4706   -3.8721   26.9789 O   0  0  0  0  0  0  0  0  0  0  0  0
   -4.8024   -3.4330   28.3064 C   0  0  0  0  0  0  0  0  0  0  0  0
   -4.7718   -4.7930   27.8245 N   0  0  0  0  0  0  0  0  0  0  0  0
   -4.0396   -2.5611   27.9041 O   0  0  0  0  0  0  0  0  0  0  0  0
   -3.9657   -5.7660   28.4286 C   0  0  2  0  0  0  0  0  0  0  0  0
   -2.9222   -6.2834   27.4055 C   0  0  0  0  0  0  0  0  0  0  0  0
   -4.7880   -6.1595   25.7822 C   0  0  0  0  0  0  0  0  0  0  0  0
   -3.4668   -6.6650   26.1653 N   0  0  0  0  0  0  0  0  0  0  0  0
   -4.8060   -6.9126   28.9538 C   0  0  0  0  0  0  0  0  0  0  0  0
   -5.4590   -6.7199   30.2189 N   0  0  0  0  0  0  0  0  0  0  0  0
   -8.2739   -3.6246   30.6335 C   0  0  0  0  0  0  0  0  0  0  0  0
   -8.6423   -4.8039   30.0008 C   0  0  0  0  0  0  0  0  0  0  0  0
   -7.7139   -5.8295   29.8699 C   0  0  0  0  0  0  0  0  0  0  0  0
   -6.4188   -5.6702   30.3586 C   0  0  0  0  0  0  0  0  0  0  0  0
   -6.0529   -4.4885   30.9792 C   0  0  0  0  0  0  0  0  0  0  0  0
   -6.9843   -3.4668   31.1202 C   0  0  0  0  0  0  0  0  0  0  0  0
  1  2  1  0  0  0  0
  2  3  2  0  0  0  0
  2 20  1  0  0  0  0
  4  6  1  0  0  0  0
  5  6  2  0  0  0  0
  5 16  1  0  0  0  0
  6  7  1  0  0  0  0
  7  8  1  0  0  0  0
  8  9  1  0  0  0  0
  8 10  2  0  0  0  0
  9 12  1  0  0  0  0
  9 16  2  0  0  0  0
 11 13  1  0  0  0  0
 11 12  1  0  0  0  0
 12 14  1  0  0  0  0
 14 15  1  0  0  0  0
 14 18  1  6  0  0  0
 15 17  1  0  0  0  0
 16 17  1  0  0  0  0
 18 19  1  0  0  0  0
 19 23  1  0  0  0  0
 20 21  2  0  0  0  0
 20 25  1  0  0  0  0
 21 22  1  0  0  0  0
 22 23  2  0  0  0  0
 23 24  1  0  0  0  0
 24 25  2  0  0  0  0
M  END
>  <CHROM.1>
-85.41689846,-80.50979900,61.29628733,78.53356269,102.50869961,-6.28971373
-4.85401843,28.10052408,2.13042017,-0.45042994,1.33156611

>  <Name>
ligand

>  <RI>
0

>  <Rbt.Current_Directory>
/home/itssahil/PROJECTS/Mol_Feturizer/New_Systems/rnas/4LVV

>  <Rbt.Executable>
rbdock ($Id: //depot/dev/client3/rdock/2013.1/src/exe/rbdock.cxx#4 $)

>  <Rbt.Library>
libRbt.so (2013.1, Build901 2013/11/27)

>  <Rbt.Parameter_File>
/export/apps/rDock/src/rDock_2013.1_src/data/scripts/dock_solv.prm

>  <Rbt.Receptor>
prm/blind_docking_40.prm

>  <SCORE>
-16.6284

>  <SCORE.INTER>
-13.8995

>  <SCORE.INTER.CONST>
1

>  <SCORE.INTER.POLAR>
0

>  <SCORE.INTER.ROT>
5

>  <SCORE.INTER.SOLV>
10.303

>  <SCORE.INTER.VDW>
-19.634

>  <SCORE.INTER.norm>
-0.555979

>  <SCORE.INTRA>
-2.72892

>  <SCORE.INTRA.DIHEDRAL>
0.537036

>  <SCORE.INTRA.DIHEDRAL.0>
3.94806

>  <SCORE.INTRA.POLAR>
0

>  <SCORE.INTRA.POLAR.0>
0

>  <SCORE.INTRA.REPUL>
0

>  <SCORE.INTRA.REPUL.0>
0

>  <SCORE.INTRA.SOLV>
0.048135

>  <SCORE.INTRA.SOLV.lig_0>
-70.9803

>  <SCORE.INTRA.VDW>
-3.0215

>  <SCORE.INTRA.VDW.0>
-0.709409

>  <SCORE.INTRA.norm>
-0.109157

>  <SCORE.RESTR>
0

>  <SCORE.RESTR.CAVITY>
0

>  <SCORE.RESTR.norm>
0

>  <SCORE.SYSTEM>
0

>  <SCORE.SYSTEM.CONST>
0

>  <SCORE.SYSTEM.DIHEDRAL>
0

>  <SCORE.SYSTEM.SOLV>
0

>  <SCORE.SYSTEM.norm>
0

>  <SCORE.heavy>
25

>  <SCORE.norm>
-0.665136

>  <RMSD>
21.178

$$$$
ligand
 OpenBabel11021811503D
libRbt.so/2013.1/901 2013/11/27
 25 27  0  0  0  0  0  0  0  0999 V2000
   -9.5777   -1.7541   29.6845 N   0  0  0  0  0  0  0  0  0  0  0  0
   -9.2742   -2.5772   30.8140 C   0  0  0  0  0  0  0  0  0  0  0  0
   -9.8205   -2.3855   31.8933 O   0  0  0  0  0  0  0  0  0  0  0  0
   -7.3267   -6.4746   23.1205 N   0  0  0  0  0  0  0  0  0  0  0  0
   -5.4638   -6.5328   24.6344 N   0  0  0  0  0  0  0  0  0  0  0  0
   -6.6885   -6.0486   24.3237 C   0  0  0  0  0  0  0  0  0  0  0  0
   -7.3206   -5.1505   25.1375 N   0  0  0  0  0  0  0  0  0  0  0  0
   -6.7602   -4.7049   26.2907 C   0  0  0  0  0  0  0  0  0  0  0  0
   -5.4856   -5.1987   26.6585 C   0  0  0  0  0  0  0  0  0  0  0  0
   -7.4505   -3.8100   27.0741 O   0  0  0  0  0  0  0  0  0  0  0  0
   -4.7484   -3.4444   28.3547 C   0  0  0  0  0  0  0  0  0  0  0  0
   -4.7529   -4.7956   27.8476 N   0  0  0  0  0  0  0  0  0  0  0  0
   -3.9307   -2.5996   28.0065 O   0  0  0  0  0  0  0  0  0  0  0  0
   -3.9531   -5.7943   28.4174 C   0  0  2  0  0  0  0  0  0  0  0  0
   -2.9401   -6.3115   27.3639 C   0  0  0  0  0  0  0  0  0  0  0  0
   -4.8355   -6.1235   25.7816 C   0  0  0  0  0  0  0  0  0  0  0  0
   -3.5165   -6.6599   26.1284 N   0  0  0  0  0  0  0  0  0  0  0  0
   -4.8039   -6.9348   28.9386 C   0  0  0  0  0  0  0  0  0  0  0  0
   -5.4436   -6.7460   30.2111 N   0  0  0  0  0  0  0  0  0  0  0  0
   -8.2924   -3.6853   30.6500 C   0  0  0  0  0  0  0  0  0  0  0  0
   -8.6615   -4.8825   30.0524 C   0  0  0  0  0  0  0  0  0  0  0  0
   -7.7216   -5.8966   29.9135 C   0  0  0  0  0  0  0  0  0  0  0  0
   -6.4149   -5.7081   30.3592 C   0  0  0  0  0  0  0  0  0  0  0  0
   -6.0488   -4.5087   30.9448 C   0  0  0  0  0  0  0  0  0  0  0  0
   -6.9913   -3.4984   31.0939 C   0  0  0  0  0  0  0  0  0  0  0  0
  1  2  1  0  0  0  0
  2  3  2  0  0  0  0
  2 20  1  0  0  0  0
  4  6  1  0  0  0  0
  5  6  2  0  0  0  0
  5 16  1  0  0  0  0
  6  7  1  0  0  0  0
  7  8  1  0  0  0  0
  8  9  1  0  0  0  0
  8 10  2  0  0  0  0
  9 12  1  0  0  0  0
  9 16  2  0  0  0  0
 11 13  1  0  0  0  0
 11 12  1  0  0  0  0
 12 14  1  0  0  0  0
 14 15  1  0  0  0  0
 14 18  1  6  0  0  0
 15 17  1  0  0  0  0
 16 17  1  0  0  0  0
 18 19  1  0  0  0  0
 19 23  1  0  0  0  0
 20 21  2  0  0  0  0
 20 25  1  0  0  0  0
 21 22  1  0  0  0  0
 22 23  2  0  0  0  0
 23 24  1  0  0  0  0
 24 25  2  0  0  0  0
M  END
>  <CHROM.1>
-89.55959980,-79.62069934,62.97305434,79.94493992,-78.70971328,-6.30359308
-4.85704699,28.11868712,2.13952322,-0.43882761,1.34261343

>  <Name>
ligand

>  <RI>
0

>  <Rbt.Current_Directory>
/home/itssahil/PROJECTS/Mol_Feturizer/New_Systems/rnas/4LVV

>  <Rbt.Executable>
rbdock ($Id: //depot/dev/client3/rdock/2013.1/src/exe/rbdock.cxx#4 $)

>  <Rbt.Library>
libRbt.so (2013.1, Build901 2013/11/27)

>  <Rbt.Parameter_File>
/export/apps/rDock/src/rDock_2013.1_src/data/scripts/dock_solv.prm

>  <Rbt.Receptor>
prm/blind_docking_80.prm

>  <SCORE>
-16.3831

>  <SCORE.INTER>
-13.6747

>  <SCORE.INTER.CONST>
1

>  <SCORE.INTER.POLAR>
0

>  <SCORE.INTER.ROT>
5

>  <SCORE.INTER.SOLV>
10.0234

>  <SCORE.INTER.VDW>
-19.3909

>  <SCORE.INTER.norm>
-0.546988

>  <SCORE.INTRA>
-2.70836

>  <SCORE.INTRA.DIHEDRAL>
0.39069

>  <SCORE.INTRA.DIHEDRAL.0>
3.94806

>  <SCORE.INTRA.POLAR>
0

>  <SCORE.INTRA.POLAR.0>
0

>  <SCORE.INTRA.REPUL>
0

>  <SCORE.INTRA.REPUL.0>
0

>  <SCORE.INTRA.SOLV>
0.175572

>  <SCORE.INTRA.SOLV.lig_0>
-70.9803

>  <SCORE.INTRA.VDW>
-2.99149

>  <SCORE.INTRA.VDW.0>
-0.709409

>  <SCORE.INTRA.norm>
-0.108335

>  <SCORE.RESTR>
0

>  <SCORE.RESTR.CAVITY>
0

>  <SCORE.RESTR.norm>
0

>  <SCORE.SYSTEM>
0

>  <SCORE.SYSTEM.CONST>
0

>  <SCORE.SYSTEM.DIHEDRAL>
0

>  <SCORE.SYSTEM.SOLV>
0

>  <SCORE.SYSTEM.norm>
0

>  <SCORE.heavy>
25

>  <SCORE.norm>
-0.655323

>  <RMSD>
21.185

$$$$
ligand
 OpenBabel11021811503D
libRbt.so/2013.1/901 2013/11/27
 25 27  0  0  0  0  0  0  0  0999 V2000
   -9.8617   -2.3410   32.0756 N   0  0  0  0  0  0  0  0  0  0  0  0
   -9.2725   -2.5566   30.7904 C   0  0  0  0  0  0  0  0  0  0  0  0
   -9.5569   -1.8355   29.8422 O   0  0  0  0  0  0  0  0  0  0  0  0
   -7.3194   -6.5326   23.1114 N   0  0  0  0  0  0  0  0  0  0  0  0
   -5.4570   -6.5393   24.6268 N   0  0  0  0  0  0  0  0  0  0  0  0
   -6.6931   -6.0869   24.3135 C   0  0  0  0  0  0  0  0  0  0  0  0
   -7.3481   -5.2022   25.1239 N   0  0  0  0  0  0  0  0  0  0  0  0
   -6.8001   -4.7389   26.2761 C   0  0  0  0  0  0  0  0  0  0  0  0
   -5.5138   -5.1994   26.6464 C   0  0  0  0  0  0  0  0  0  0  0  0
   -7.5132   -3.8590   27.0560 O   0  0  0  0  0  0  0  0  0  0  0  0
   -4.8222   -3.4217   28.3374 C   0  0  0  0  0  0  0  0  0  0  0  0
   -4.7924   -4.7742   27.8348 N   0  0  0  0  0  0  0  0  0  0  0  0
   -4.0969   -2.5304   27.9091 O   0  0  0  0  0  0  0  0  0  0  0  0
   -3.9684   -5.7507   28.4085 C   0  0  2  0  0  0  0  0  0  0  0  0
   -2.9419   -6.2459   27.3575 C   0  0  0  0  0  0  0  0  0  0  0  0
   -4.8400   -6.1105   25.7731 C   0  0  0  0  0  0  0  0  0  0  0  0
   -3.5084   -6.6127   26.1227 N   0  0  0  0  0  0  0  0  0  0  0  0
   -4.7908   -6.9104   28.9328 C   0  0  0  0  0  0  0  0  0  0  0  0
   -5.4446   -6.7297   30.1993 N   0  0  0  0  0  0  0  0  0  0  0  0
   -8.2913   -3.6657   30.6289 C   0  0  0  0  0  0  0  0  0  0  0  0
   -8.6530   -4.8530   30.0073 C   0  0  0  0  0  0  0  0  0  0  0  0
   -7.7139   -5.8682   29.8715 C   0  0  0  0  0  0  0  0  0  0  0  0
   -6.4152   -5.6906   30.3442 C   0  0  0  0  0  0  0  0  0  0  0  0
   -6.0563   -4.5010   30.9536 C   0  0  0  0  0  0  0  0  0  0  0  0
   -6.9982   -3.4897   31.0996 C   0  0  0  0  0  0  0  0  0  0  0  0
  1  2  1  0  0  0  0
  2  3  2  0  0  0  0
  2 20  1  0  0  0  0
  4  6  1  0  0  0  0
  5  6  2  0  0  0  0
  5 16  1  0  0  0  0
  6  7  1  0  0  0  0
  7  8  1  0  0  0  0
  8  9  1  0  0  0  0
  8 10  2  0  0  0  0
  9 12  1  0  0  0  0
  9 16  2  0  0  0  0
 11 13  1  0  0  0  0
 11 12  1  0  0  0  0
 12 14  1  0  0  0  0
 14 15  1  0  0  0  0
 14 18  1  6  0  0  0
 15 17  1  0  0  0  0
 16 17  1  0  0  0  0
 18 19  1  0  0  0  0
 19 23  1  0  0  0  0
 20 21  2  0  0  0  0
 20 25  1  0  0  0  0
 21 22  1  0  0  0  0
 22 23  2  0  0  0  0
 23 24  1  0  0  0  0
 24 25  2  0  0  0  0
M  END
>  <CHROM.1>
-83.46664640,-79.15030367,61.01817107,79.37039517,103.60045734,-6.32163324
-4.84660327,28.10462166,2.13092702,-0.43862676,1.33524509

>  <Name>
ligand

>  <RI>
0

>  <Rbt.Current_Directory>
/home/itssahil/PROJECTS/Mol_Feturizer/New_Systems/rnas/4LVV

>  <Rbt.Executable>
rbdock ($Id: //depot/dev/client3/rdock/2013.1/src/exe/rbdock.cxx#4 $)

>  <Rbt.Library>
libRbt.so (2013.1, Build901 2013/11/27)

>  <Rbt.Parameter_File>
/export/apps/rDock/src/rDock_2013.1_src/data/scripts/dock_solv.prm

>  <Rbt.Receptor>
prm/blind_docking_80.prm

>  <SCORE>
-16.5932

>  <SCORE.INTER>
-13.8109

>  <SCORE.INTER.CONST>
1

>  <SCORE.INTER.POLAR>
0

>  <SCORE.INTER.ROT>
5

>  <SCORE.INTER.SOLV>
10.6651

>  <SCORE.INTER.VDW>
-19.6956

>  <SCORE.INTER.norm>
-0.552436

>  <SCORE.INTRA>
-2.7823

>  <SCORE.INTRA.DIHEDRAL>
0.376973

>  <SCORE.INTRA.DIHEDRAL.0>
3.94806

>  <SCORE.INTRA.POLAR>
0

>  <SCORE.INTRA.POLAR.0>
0

>  <SCORE.INTRA.REPUL>
0

>  <SCORE.INTRA.REPUL.0>
0

>  <SCORE.INTRA.SOLV>
0.15762

>  <SCORE.INTRA.SOLV.lig_0>
-70.9803

>  <SCORE.INTRA.VDW>
-3.0496

>  <SCORE.INTRA.VDW.0>
-0.709409

>  <SCORE.INTRA.norm>
-0.111292

>  <SCORE.RESTR>
0

>  <SCORE.RESTR.CAVITY>
0

>  <SCORE.RESTR.norm>
0

>  <SCORE.SYSTEM>
0

>  <SCORE.SYSTEM.CONST>
0

>  <SCORE.SYSTEM.DIHEDRAL>
0

>  <SCORE.SYSTEM.SOLV>
0

>  <SCORE.SYSTEM.norm>
0

>  <SCORE.heavy>
25

>  <SCORE.norm>
-0.663728

>  <RMSD>
21.192

$$$$
ligand
 OpenBabel11021811503D
libRbt.so/2013.1/901 2013/11/27
 25 27  0  0  0  0  0  0  0  0999 V2000
  -10.0764   -2.4757   31.9456 N   0  0  0  0  0  0  0  0  0  0  0  0
   -9.3185   -2.5600   30.7357 C   0  0  0  0  0  0  0  0  0  0  0  0
   -9.5015   -1.7615   29.8253 O   0  0  0  0  0  0  0  0  0  0  0  0
   -7.2808   -6.5572   23.1200 N   0  0  0  0  0  0  0  0  0  0  0  0
   -5.4290   -6.5665   24.6485 N   0  0  0  0  0  0  0  0  0  0  0  0
   -6.6592   -6.1066   24.3228 C   0  0  0  0  0  0  0  0  0  0  0  0
   -7.3124   -5.2097   25.1211 N   0  0  0  0  0  0  0  0  0  0  0  0
   -6.7685   -4.7413   26.2732 C   0  0  0  0  0  0  0  0  0  0  0  0
   -5.4887   -5.2092   26.6563 C   0  0  0  0  0  0  0  0  0  0  0  0
   -7.4796   -3.8490   27.0407 O   0  0  0  0  0  0  0  0  0  0  0  0
   -4.7941   -3.4231   28.3372 C   0  0  0  0  0  0  0  0  0  0  0  0
   -4.7721   -4.7800   27.8461 N   0  0  0  0  0  0  0  0  0  0  0  0
   -4.0558   -2.5424   27.9092 O   0  0  0  0  0  0  0  0  0  0  0  0
   -3.9602   -5.7584   28.4337 C   0  0  2  0  0  0  0  0  0  0  0  0
   -2.9306   -6.2709   27.3941 C   0  0  0  0  0  0  0  0  0  0  0  0
   -4.8165   -6.1332   25.7954 C   0  0  0  0  0  0  0  0  0  0  0  0
   -3.4915   -6.6434   26.1584 N   0  0  0  0  0  0  0  0  0  0  0  0
   -4.7958   -6.9068   28.9620 C   0  0  0  0  0  0  0  0  0  0  0  0
   -5.4553   -6.7108   30.2233 N   0  0  0  0  0  0  0  0  0  0  0  0
   -8.2881   -3.6281   30.6086 C   0  0  0  0  0  0  0  0  0  0  0  0
   -7.0025   -3.4405   31.0972 C   0  0  0  0  0  0  0  0  0  0  0  0
   -6.0643   -4.4569   30.9637 C   0  0  0  0  0  0  0  0  0  0  0  0
   -6.4154   -5.6604   30.3554 C   0  0  0  0  0  0  0  0  0  0  0  0
   -7.7015   -5.8468   29.8794 C   0  0  0  0  0  0  0  0  0  0  0  0
   -8.6368   -4.8264   30.0028 C   0  0  0  0  0  0  0  0  0  0  0  0
  1  2  1  0  0  0  0
  2  3  2  0  0  0  0
  2 20  1  0  0  0  0
  4  6  1  0  0  0  0
  5  6  2  0  0  0  0
  5 16  1  0  0  0  0
  6  7  1  0  0  0  0
  7  8  1  0  0  0  0
  8  9  1  0  0  0  0
  8 10  2  0  0  0  0
  9 12  1  0  0  0  0
  9 16  2  0  0  0  0
 11 13  1  0  0  0  0
 11 12  1  0  0  0  0
 12 14  1  0  0  0  0
 14 15  1  0  0  0  0
 14 18  1  6  0  0  0
 15 17  1  0  0  0  0
 16 17  1  0  0  0  0
 18 19  1  0  0  0  0
 19 23  1  0  0  0  0
 20 21  2  0  0  0  0
 20 25  1  0  0  0  0
 21 22  1  0  0  0  0
 22 23  2  0  0  0  0
 23 24  1  0  0  0  0
 24 25  2  0  0  0  0
M  END
>  <CHROM.1>
-83.67920916,-79.23902459,60.88897034,-100.54616079,-85.26075255,-6.31408088
-4.84784368,28.10498495,2.14702360,-0.43595587,1.33470958

>  <Name>
ligand

>  <RI>
0

>  <Rbt.Current_Directory>
/home/itssahil/PROJECTS/Mol_Feturizer/New_Systems/rnas/4LVV

>  <Rbt.Executable>
rbdock ($Id: //depot/dev/client3/rdock/2013.1/src/exe/rbdock.cxx#4 $)

>  <Rbt.Library>
libRbt.so (2013.1, Build901 2013/11/27)

>  <Rbt.Parameter_File>
/export/apps/rDock/src/rDock_2013.1_src/data/scripts/dock_solv.prm

>  <Rbt.Receptor>
prm/blind_docking_60.prm

>  <SCORE>
-16.6438

>  <SCORE.INTER>
-13.8214

>  <SCORE.INTER.CONST>
1

>  <SCORE.INTER.POLAR>
0

>  <SCORE.INTER.ROT>
5

>  <SCORE.INTER.SOLV>
10.8244

>  <SCORE.INTER.VDW>
-19.7557

>  <SCORE.INTER.norm>
-0.552854

>  <SCORE.INTRA>
-2.82247

>  <SCORE.INTRA.DIHEDRAL>
0.342566

>  <SCORE.INTRA.DIHEDRAL.0>
3.94806

>  <SCORE.INTRA.POLAR>
0

>  <SCORE.INTRA.POLAR.0>
0

>  <SCORE.INTRA.REPUL>
0

>  <SCORE.INTRA.REPUL.0>
0

>  <SCORE.INTRA.SOLV>
0.14741

>  <SCORE.INTRA.SOLV.lig_0>
-70.9803

>  <SCORE.INTRA.VDW>
-3.06746

>  <SCORE.INTRA.VDW.0>
-0.709409

>  <SCORE.INTRA.norm>
-0.112899

>  <SCORE.RESTR>
0

>  <SCORE.RESTR.CAVITY>
0

>  <SCORE.RESTR.norm>
0

>  <SCORE.SYSTEM>
0

>  <SCORE.SYSTEM.CONST>
0

>  <SCORE.SYSTEM.DIHEDRAL>
0

>  <SCORE.SYSTEM.SOLV>
0

>  <SCORE.SYSTEM.norm>
0

>  <SCORE.heavy>
25

>  <SCORE.norm>
-0.665753

>  <RMSD>
21.194

$$$$
ligand
 OpenBabel11021811503D
libRbt.so/2013.1/901 2013/11/27
 25 27  0  0  0  0  0  0  0  0999 V2000
   -9.9405   -2.3084   31.9873 N   0  0  0  0  0  0  0  0  0  0  0  0
   -9.3424   -2.5530   30.7114 C   0  0  0  0  0  0  0  0  0  0  0  0
   -9.6512   -1.8801   29.7357 O   0  0  0  0  0  0  0  0  0  0  0  0
   -7.3204   -6.5761   23.2123 N   0  0  0  0  0  0  0  0  0  0  0  0
   -5.4413   -6.5821   24.7071 N   0  0  0  0  0  0  0  0  0  0  0  0
   -6.6699   -6.1098   24.3937 C   0  0  0  0  0  0  0  0  0  0  0  0
   -7.2944   -5.1859   25.1841 N   0  0  0  0  0  0  0  0  0  0  0  0
   -6.7224   -4.7017   26.3158 C   0  0  0  0  0  0  0  0  0  0  0  0
   -5.4432   -5.1817   26.6859 C   0  0  0  0  0  0  0  0  0  0  0  0
   -7.4054   -3.7821   27.0766 O   0  0  0  0  0  0  0  0  0  0  0  0
   -4.6903   -3.3714   28.3151 C   0  0  0  0  0  0  0  0  0  0  0  0
   -4.6983   -4.7386   27.8531 N   0  0  0  0  0  0  0  0  0  0  0  0
   -3.8572   -2.5464   27.9557 O   0  0  0  0  0  0  0  0  0  0  0  0
   -3.8910   -5.7170   28.4470 C   0  0  2  0  0  0  0  0  0  0  0  0
   -2.8886   -6.2678   27.4003 C   0  0  0  0  0  0  0  0  0  0  0  0
   -4.8012   -6.1343   25.8332 C   0  0  0  0  0  0  0  0  0  0  0  0
   -3.4778   -6.6576   26.1832 N   0  0  0  0  0  0  0  0  0  0  0  0
   -4.7344   -6.8405   29.0148 C   0  0  0  0  0  0  0  0  0  0  0  0
   -5.3679   -6.6071   30.2831 N   0  0  0  0  0  0  0  0  0  0  0  0
   -8.3223   -3.6319   30.5933 C   0  0  0  0  0  0  0  0  0  0  0  0
   -8.6422   -4.8567   30.0237 C   0  0  0  0  0  0  0  0  0  0  0  0
   -7.6674   -5.8424   29.9274 C   0  0  0  0  0  0  0  0  0  0  0  0
   -6.3750   -5.5984   30.3875 C   0  0  0  0  0  0  0  0  0  0  0  0
   -6.0579   -4.3719   30.9448 C   0  0  0  0  0  0  0  0  0  0  0  0
   -7.0353   -3.3898   31.0514 C   0  0  0  0  0  0  0  0  0  0  0  0
  1  2  1  0  0  0  0
  2  3  2  0  0  0  0
  2 20  1  0  0  0  0
  4  6  1  0  0  0  0
  5  6  2  0  0  0  0
  5 16  1  0  0  0  0
  6  7  1  0  0  0  0
  7  8  1  0  0  0  0
  8  9  1  0  0  0  0
  8 10  2  0  0  0  0
  9 12  1  0  0  0  0
  9 16  2  0  0  0  0
 11 13  1  0  0  0  0
 11 12  1  0  0  0  0
 12 14  1  0  0  0  0
 14 15  1  0  0  0  0
 14 18  1  6  0  0  0
 15 17  1  0  0  0  0
 16 17  1  0  0  0  0
 18 19  1  0  0  0  0
 19 23  1  0  0  0  0
 20 21  2  0  0  0  0
 20 25  1  0  0  0  0
 21 22  1  0  0  0  0
 22 23  2  0  0  0  0
 23 24  1  0  0  0  0
 24 25  2  0  0  0  0
M  END
>  <CHROM.1>
-91.44566345,-79.22193473,65.08351707,77.81529327,103.33226248,-6.28218829
-4.82316810,28.12770088,2.15503040,-0.40487790,1.31148017

>  <Name>
ligand

>  <RI>
0

>  <Rbt.Current_Directory>
/home/itssahil/PROJECTS/Mol_Feturizer/New_Systems/rnas/4LVV

>  <Rbt.Executable>
rbdock ($Id: //depot/dev/client3/rdock/2013.1/src/exe/rbdock.cxx#4 $)

>  <Rbt.Library>
libRbt.so (2013.1, Build901 2013/11/27)

>  <Rbt.Parameter_File>
/export/apps/rDock/src/rDock_2013.1_src/data/scripts/dock_solv.prm

>  <Rbt.Receptor>
prm/blind_docking_40.prm

>  <SCORE>
-16.4893

>  <SCORE.INTER>
-13.681

>  <SCORE.INTER.CONST>
1

>  <SCORE.INTER.POLAR>
0

>  <SCORE.INTER.ROT>
5

>  <SCORE.INTER.SOLV>
10.467

>  <SCORE.INTER.VDW>
-19.543

>  <SCORE.INTER.norm>
-0.547241

>  <SCORE.INTRA>
-2.80829

>  <SCORE.INTRA.DIHEDRAL>
0.406258

>  <SCORE.INTRA.DIHEDRAL.0>
3.94806

>  <SCORE.INTRA.POLAR>
0

>  <SCORE.INTRA.POLAR.0>
0

>  <SCORE.INTRA.REPUL>
0

>  <SCORE.INTRA.REPUL.0>
0

>  <SCORE.INTRA.SOLV>
0.127069

>  <SCORE.INTRA.SOLV.lig_0>
-70.9803

>  <SCORE.INTRA.VDW>
-3.07496

>  <SCORE.INTRA.VDW.0>
-0.709409

>  <SCORE.INTRA.norm>
-0.112332

>  <SCORE.RESTR>
0

>  <SCORE.RESTR.CAVITY>
0

>  <SCORE.RESTR.norm>
0

>  <SCORE.SYSTEM>
0

>  <SCORE.SYSTEM.CONST>
0

>  <SCORE.SYSTEM.DIHEDRAL>
0

>  <SCORE.SYSTEM.SOLV>
0

>  <SCORE.SYSTEM.norm>
0

>  <SCORE.heavy>
25

>  <SCORE.norm>
-0.659573

>  <RMSD>
21.201

$$$$
ligand
 OpenBabel11021811503D
libRbt.so/2013.1/901 2013/11/27
 25 27  0  0  0  0  0  0  0  0999 V2000
   -7.4171   -5.7312   22.6485 N   0  0  0  0  0  0  0  0  0  0  0  0
   -7.3260   -6.5149   23.8414 C   0  0  0  0  0  0  0  0  0  0  0  0
   -7.8259   -7.6316   23.8967 O   0  0  0  0  0  0  0  0  0  0  0  0
   -7.6553   -1.2000   31.2012 N   0  0  0  0  0  0  0  0  0  0  0  0
   -5.9077   -1.4412   29.5724 N   0  0  0  0  0  0  0  0  0  0  0  0
   -6.3287   -1.5907   30.8496 C   0  0  0  0  0  0  0  0  0  0  0  0
   -5.5014   -2.1000   31.8112 N   0  0  0  0  0  0  0  0  0  0  0  0
   -4.2283   -2.4827   31.5372 C   0  0  0  0  0  0  0  0  0  0  0  0
   -3.7546   -2.3555   30.2093 C   0  0  0  0  0  0  0  0  0  0  0  0
   -3.4477   -2.9993   32.5445 O   0  0  0  0  0  0  0  0  0  0  0  0
   -1.2339   -2.4635   30.5731 C   0  0  0  0  0  0  0  0  0  0  0  0
   -2.4113   -2.6997   29.7728 N   0  0  0  0  0  0  0  0  0  0  0  0
   -0.3171   -3.2719   30.6731 O   0  0  0  0  0  0  0  0  0  0  0  0
   -2.3206   -3.1844   28.4618 C   0  0  2  0  0  0  0  0  0  0  0  0
   -2.9068   -2.1374   27.4800 C   0  0  0  0  0  0  0  0  0  0  0  0
   -4.6323   -1.8024   29.2241 C   0  0  0  0  0  0  0  0  0  0  0  0
   -4.1803   -1.6573   27.8377 N   0  0  0  0  0  0  0  0  0  0  0  0
   -3.0491   -4.5059   28.3236 C   0  0  0  0  0  0  0  0  0  0  0  0
   -4.4853   -4.4657   28.3300 N   0  0  0  0  0  0  0  0  0  0  0  0
   -6.5958   -5.9547   25.0127 C   0  0  0  0  0  0  0  0  0  0  0  0
   -6.9949   -4.7607   25.5974 C   0  0  0  0  0  0  0  0  0  0  0  0
   -6.2931   -4.2652   26.6896 C   0  0  0  0  0  0  0  0  0  0  0  0
   -5.2047   -4.9684   27.2021 C   0  0  0  0  0  0  0  0  0  0  0  0
   -4.8172   -6.1639   26.6224 C   0  0  0  0  0  0  0  0  0  0  0  0
   -5.5119   -6.6542   25.5232 C   0  0  0  0  0  0  0  0  0  0  0  0
  1  2  1  0  0  0  0
  2  3  2  0  0  0  0
  2 20  1  0  0  0  0
  4  6  1  0  0  0  0
  5  6  2  0  0  0  0
  5 16  1  0  0  0  0
  6  7  1  0  0  0  0
  7  8  1  0  0  0  0
  8  9  1  0  0  0  0
  8 10  2  0  0  0  0
  9 12  1  0  0  0  0
  9 16  2  0  0  0  0
 11 13  1  0  0  0  0
 11 12  1  0  0  0  0
 12 14  1  0  0  0  0
 14 15  1  0  0  0  0
 14 18  1  1  0  0  0
 15 17  1  0  0  0  0
 16 17  1  0  0  0  0
 18 19  1  0  0  0  0
 19 23  1  0  0  0  0
 20 21  2  0  0  0  0
 20 25  1  0  0  0  0
 21 22  1  0  0  0  0
 22 23  2  0  0  0  0
 23 24  1  0  0  0  0
 24 25  2  0  0  0  0
M  END
>  <CHROM.1>
138.25003029,73.16895890,120.81368181,-136.49110476,59.17341863,-4.75147189
-3.69848068,28.27994300,2.00759073,0.14552952,-2.18987933

>  <Name>
ligand

>  <RI>
0

>  <Rbt.Current_Directory>
/home/itssahil/PROJECTS/Mol_Feturizer/New_Systems/rnas/4LVV

>  <Rbt.Executable>
rbdock ($Id: //depot/dev/client3/rdock/2013.1/src/exe/rbdock.cxx#4 $)

>  <Rbt.Library>
libRbt.so (2013.1, Build901 2013/11/27)

>  <Rbt.Parameter_File>
/export/apps/rDock/src/rDock_2013.1_src/data/scripts/dock_solv.prm

>  <Rbt.Receptor>
prm/blind_docking_80.prm

>  <SCORE>
-12.6593

>  <SCORE.INTER>
-13.215

>  <SCORE.INTER.CONST>
1

>  <SCORE.INTER.POLAR>
0

>  <SCORE.INTER.ROT>
5

>  <SCORE.INTER.SOLV>
8.02186

>  <SCORE.INTER.VDW>
-18.4173

>  <SCORE.INTER.norm>
-0.528601

>  <SCORE.INTRA>
0.555743

>  <SCORE.INTRA.DIHEDRAL>
0.992805

>  <SCORE.INTRA.DIHEDRAL.0>
3.94806

>  <SCORE.INTRA.POLAR>
0

>  <SCORE.INTRA.POLAR.0>
0

>  <SCORE.INTRA.REPUL>
0

>  <SCORE.INTRA.REPUL.0>
0

>  <SCORE.INTRA.SOLV>
2.4751

>  <SCORE.INTRA.SOLV.lig_0>
-70.9803

>  <SCORE.INTRA.VDW>
-1.17821

>  <SCORE.INTRA.VDW.0>
-0.709409

>  <SCORE.INTRA.norm>
0.0222297

>  <SCORE.RESTR>
0

>  <SCORE.RESTR.CAVITY>
0

>  <SCORE.RESTR.norm>
0

>  <SCORE.SYSTEM>
0

>  <SCORE.SYSTEM.CONST>
0

>  <SCORE.SYSTEM.DIHEDRAL>
0

>  <SCORE.SYSTEM.SOLV>
0

>  <SCORE.SYSTEM.norm>
0

>  <SCORE.heavy>
25

>  <SCORE.norm>
-0.506372

>  <RMSD>
21.215

$$$$
ligand
 OpenBabel11021811503D
libRbt.so/2013.1/901 2013/11/27
 25 27  0  0  0  0  0  0  0  0999 V2000
  -10.4787   -3.6713   27.4101 N   0  0  0  0  0  0  0  0  0  0  0  0
   -9.1478   -4.1332   27.1639 C   0  0  0  0  0  0  0  0  0  0  0  0
   -8.8749   -4.7364   26.1335 O   0  0  0  0  0  0  0  0  0  0  0  0
   -0.4026   -8.1205   27.9307 N   0  0  0  0  0  0  0  0  0  0  0  0
   -0.5820   -5.9774   28.9986 N   0  0  0  0  0  0  0  0  0  0  0  0
   -1.0399   -6.8517   28.0729 C   0  0  0  0  0  0  0  0  0  0  0  0
   -2.0961   -6.5363   27.2647 N   0  0  0  0  0  0  0  0  0  0  0  0
   -2.7374   -5.3430   27.3502 C   0  0  0  0  0  0  0  0  0  0  0  0
   -2.2976   -4.4064   28.3160 C   0  0  0  0  0  0  0  0  0  0  0  0
   -3.8018   -5.0882   26.5176 O   0  0  0  0  0  0  0  0  0  0  0  0
   -3.3245   -2.2532   27.4173 C   0  0  0  0  0  0  0  0  0  0  0  0
   -2.8688   -3.0831   28.5065 N   0  0  0  0  0  0  0  0  0  0  0  0
   -3.7356   -1.1083   27.5725 O   0  0  0  0  0  0  0  0  0  0  0  0
   -2.8499   -2.6143   29.8262 C   0  0  2  0  0  0  0  0  0  0  0  0
   -1.3915   -2.6038   30.3521 C   0  0  0  0  0  0  0  0  0  0  0  0
   -1.1785   -4.7513   29.1378 C   0  0  0  0  0  0  0  0  0  0  0  0
   -0.6948   -3.8099   30.1515 N   0  0  0  0  0  0  0  0  0  0  0  0
   -3.7275   -3.4714   30.7159 C   0  0  0  0  0  0  0  0  0  0  0  0
   -5.0626   -3.0031   30.9654 N   0  0  0  0  0  0  0  0  0  0  0  0
   -8.0928   -3.8521   28.1773 C   0  0  0  0  0  0  0  0  0  0  0  0
   -8.0477   -4.5548   29.3735 C   0  0  0  0  0  0  0  0  0  0  0  0
   -7.0502   -4.2694   30.2979 C   0  0  0  0  0  0  0  0  0  0  0  0
   -6.0946   -3.2939   30.0203 C   0  0  0  0  0  0  0  0  0  0  0  0
   -6.1372   -2.6035   28.8216 C   0  0  0  0  0  0  0  0  0  0  0  0
   -7.1412   -2.8809   27.9017 C   0  0  0  0  0  0  0  0  0  0  0  0
  1  2  1  0  0  0  0
  2  3  2  0  0  0  0
  2 20  1  0  0  0  0
  4  6  1  0  0  0  0
  5  6  2  0  0  0  0
  5 16  1  0  0  0  0
  6  7  1  0  0  0  0
  7  8  1  0  0  0  0
  8  9  1  0  0  0  0
  8 10  2  0  0  0  0
  9 12  1  0  0  0  0
  9 16  2  0  0  0  0
 11 13  1  0  0  0  0
 11 12  1  0  0  0  0
 12 14  1  0  0  0  0
 14 15  1  0  0  0  0
 14 18  1  1  0  0  0
 15 17  1  0  0  0  0
 16 17  1  0  0  0  0
 18 19  1  0  0  0  0
 19 23  1  0  0  0  0
 20 21  2  0  0  0  0
 20 25  1  0  0  0  0
 21 22  1  0  0  0  0
 22 23  2  0  0  0  0
 23 24  1  0  0  0  0
 24 25  2  0  0  0  0
M  END
>  <CHROM.1>
-175.72937399,-96.76231944,84.21771349,105.10221874,74.43790174,-4.31218633
-4.10672346,28.53758813,3.04856637,-0.20253104,0.61261231

>  <Name>
ligand

>  <RI>
0

>  <Rbt.Current_Directory>
/home/itssahil/PROJECTS/Mol_Feturizer/New_Systems/rnas/4LVV

>  <Rbt.Executable>
rbdock ($Id: //depot/dev/client3/rdock/2013.1/src/exe/rbdock.cxx#4 $)

>  <Rbt.Library>
libRbt.so (2013.1, Build901 2013/11/27)

>  <Rbt.Parameter_File>
/export/apps/rDock/src/rDock_2013.1_src/data/scripts/dock_solv.prm

>  <Rbt.Receptor>
prm/blind_docking_100.prm

>  <SCORE>
-7.3064

>  <SCORE.INTER>
-7.04831

>  <SCORE.INTER.CONST>
1

>  <SCORE.INTER.POLAR>
0

>  <SCORE.INTER.ROT>
5

>  <SCORE.INTER.SOLV>
11.1343

>  <SCORE.INTER.VDW>
-15.3436

>  <SCORE.INTER.norm>
-0.281932

>  <SCORE.INTRA>
-0.258088

>  <SCORE.INTRA.DIHEDRAL>
3.29875

>  <SCORE.INTRA.DIHEDRAL.0>
3.94806

>  <SCORE.INTRA.POLAR>
0

>  <SCORE.INTRA.POLAR.0>
0

>  <SCORE.INTRA.REPUL>
0

>  <SCORE.INTRA.REPUL.0>
0

>  <SCORE.INTRA.SOLV>
-0.164847

>  <SCORE.INTRA.SOLV.lig_0>
-70.9803

>  <SCORE.INTRA.VDW>
-1.82504

>  <SCORE.INTRA.VDW.0>
-0.709409

>  <SCORE.INTRA.norm>
-0.0103235

>  <SCORE.RESTR>
0

>  <SCORE.RESTR.CAVITY>
0

>  <SCORE.RESTR.norm>
0

>  <SCORE.SYSTEM>
0

>  <SCORE.SYSTEM.CONST>
0

>  <SCORE.SYSTEM.DIHEDRAL>
0

>  <SCORE.SYSTEM.SOLV>
0

>  <SCORE.SYSTEM.norm>
0

>  <SCORE.heavy>
25

>  <SCORE.norm>
-0.292256

>  <RMSD>
21.245

$$$$
ligand
 OpenBabel11021811503D
libRbt.so/2013.1/901 2013/11/27
 25 27  0  0  0  0  0  0  0  0999 V2000
   -7.0970   -8.9608   22.1461 N   0  0  0  0  0  0  0  0  0  0  0  0
   -7.9007   -7.9779   22.8044 C   0  0  0  0  0  0  0  0  0  0  0  0
   -9.0965   -7.8798   22.5584 O   0  0  0  0  0  0  0  0  0  0  0  0
   -0.8214   -2.8707   30.9750 N   0  0  0  0  0  0  0  0  0  0  0  0
   -3.1862   -2.6597   30.6162 N   0  0  0  0  0  0  0  0  0  0  0  0
   -1.9331   -2.6597   30.1056 C   0  0  0  0  0  0  0  0  0  0  0  0
   -1.7133   -2.4507   28.7728 N   0  0  0  0  0  0  0  0  0  0  0  0
   -2.7306   -2.2385   27.8996 C   0  0  0  0  0  0  0  0  0  0  0  0
   -4.0576   -2.2453   28.3922 C   0  0  0  0  0  0  0  0  0  0  0  0
   -2.4471   -2.0462   26.5678 O   0  0  0  0  0  0  0  0  0  0  0  0
   -5.2883   -1.0468   26.5089 C   0  0  0  0  0  0  0  0  0  0  0  0
   -5.2424   -2.0089   27.5836 N   0  0  0  0  0  0  0  0  0  0  0  0
   -5.6457    0.1160   26.6639 O   0  0  0  0  0  0  0  0  0  0  0  0
   -6.3858   -2.7086   27.9896 C   0  0  2  0  0  0  0  0  0  0  0  0
   -6.7141   -2.3554   29.4630 C   0  0  0  0  0  0  0  0  0  0  0  0
   -4.2618   -2.4474   29.7937 C   0  0  0  0  0  0  0  0  0  0  0  0
   -5.6207   -2.4643   30.3422 N   0  0  0  0  0  0  0  0  0  0  0  0
   -6.1872   -4.2029   27.8349 C   0  0  0  0  0  0  0  0  0  0  0  0
   -5.4236   -4.6481   26.7022 N   0  0  0  0  0  0  0  0  0  0  0  0
   -7.2600   -7.0846   23.8096 C   0  0  0  0  0  0  0  0  0  0  0  0
   -7.4982   -5.7171   23.8030 C   0  0  0  0  0  0  0  0  0  0  0  0
   -6.8858   -4.9110   24.7549 C   0  0  0  0  0  0  0  0  0  0  0  0
   -6.0491   -5.4731   25.7169 C   0  0  0  0  0  0  0  0  0  0  0  0
   -5.8231   -6.8385   25.7261 C   0  0  0  0  0  0  0  0  0  0  0  0
   -6.4265   -7.6436   24.7675 C   0  0  0  0  0  0  0  0  0  0  0  0
  1  2  1  0  0  0  0
  2  3  2  0  0  0  0
  2 20  1  0  0  0  0
  4  6  1  0  0  0  0
  5  6  2  0  0  0  0
  5 16  1  0  0  0  0
  6  7  1  0  0  0  0
  7  8  1  0  0  0  0
  8  9  1  0  0  0  0
  8 10  2  0  0  0  0
  9 12  1  0  0  0  0
  9 16  2  0  0  0  0
 11 13  1  0  0  0  0
 11 12  1  0  0  0  0
 12 14  1  0  0  0  0
 14 15  1  0  0  0  0
 14 18  1  1  0  0  0
 15 17  1  0  0  0  0
 16 17  1  0  0  0  0
 18 19  1  0  0  0  0
 19 23  1  0  0  0  0
 20 21  2  0  0  0  0
 20 25  1  0  0  0  0
 21 22  1  0  0  0  0
 22 23  2  0  0  0  0
 23 24  1  0  0  0  0
 24 25  2  0  0  0  0
M  END
>  <CHROM.1>
-91.72823877,-36.36308139,-117.55876514,78.67646048,134.18220427,-5.25569055
-3.98300610,26.90897308,-2.16806636,-0.57862595,0.47809903

>  <Name>
ligand

>  <RI>
0

>  <Rbt.Current_Directory>
/home/itssahil/PROJECTS/Mol_Feturizer/New_Systems/rnas/4LVV

>  <Rbt.Executable>
rbdock ($Id: //depot/dev/client3/rdock/2013.1/src/exe/rbdock.cxx#4 $)

>  <Rbt.Library>
libRbt.so (2013.1, Build901 2013/11/27)

>  <Rbt.Parameter_File>
/export/apps/rDock/src/rDock_2013.1_src/data/scripts/dock_solv.prm

>  <Rbt.Receptor>
prm/blind_docking_40.prm

>  <SCORE>
-12.165

>  <SCORE.INTER>
-12.1439

>  <SCORE.INTER.CONST>
1

>  <SCORE.INTER.POLAR>
0

>  <SCORE.INTER.ROT>
5

>  <SCORE.INTER.SOLV>
12.4553

>  <SCORE.INTER.VDW>
-19.181

>  <SCORE.INTER.norm>
-0.485756

>  <SCORE.INTRA>
-0.0211387

>  <SCORE.INTRA.DIHEDRAL>
2.10664

>  <SCORE.INTRA.DIHEDRAL.0>
3.94806

>  <SCORE.INTRA.POLAR>
0

>  <SCORE.INTRA.POLAR.0>
0

>  <SCORE.INTRA.REPUL>
0

>  <SCORE.INTRA.REPUL.0>
0

>  <SCORE.INTRA.SOLV>
0.582683

>  <SCORE.INTRA.SOLV.lig_0>
-70.9803

>  <SCORE.INTRA.VDW>
-1.3658

>  <SCORE.INTRA.VDW.0>
-0.709409

>  <SCORE.INTRA.norm>
-0.000845547

>  <SCORE.RESTR>
0

>  <SCORE.RESTR.CAVITY>
0

>  <SCORE.RESTR.norm>
0

>  <SCORE.SYSTEM>
0

>  <SCORE.SYSTEM.CONST>
0

>  <SCORE.SYSTEM.DIHEDRAL>
0

>  <SCORE.SYSTEM.SOLV>
0

>  <SCORE.SYSTEM.norm>
0

>  <SCORE.heavy>
25

>  <SCORE.norm>
-0.486601

>  <RMSD>
21.267

$$$$
ligand
 OpenBabel11021811503D
libRbt.so/2013.1/901 2013/11/27
 25 27  0  0  0  0  0  0  0  0999 V2000
   -8.6420   -7.5630   21.8754 N   0  0  0  0  0  0  0  0  0  0  0  0
   -8.2151   -8.0684   23.1433 C   0  0  0  0  0  0  0  0  0  0  0  0
   -8.4229   -9.2345   23.4548 O   0  0  0  0  0  0  0  0  0  0  0  0
   -0.6364   -2.9978   31.0409 N   0  0  0  0  0  0  0  0  0  0  0  0
   -3.0075   -2.7788   30.7320 N   0  0  0  0  0  0  0  0  0  0  0  0
   -1.7640   -2.7619   30.1988 C   0  0  0  0  0  0  0  0  0  0  0  0
   -1.5687   -2.5125   28.8691 N   0  0  0  0  0  0  0  0  0  0  0  0
   -2.6020   -2.2753   28.0214 C   0  0  0  0  0  0  0  0  0  0  0  0
   -3.9197   -2.2985   28.5378 C   0  0  0  0  0  0  0  0  0  0  0  0
   -2.3431   -2.0426   26.6911 O   0  0  0  0  0  0  0  0  0  0  0  0
   -5.1855   -1.0452   26.7143 C   0  0  0  0  0  0  0  0  0  0  0  0
   -5.1192   -2.0392   27.7585 N   0  0  0  0  0  0  0  0  0  0  0  0
   -5.6023    0.0935   26.8971 O   0  0  0  0  0  0  0  0  0  0  0  0
   -6.2546   -2.7521   28.1640 C   0  0  2  0  0  0  0  0  0  0  0  0
   -6.5561   -2.4439   29.6532 C   0  0  0  0  0  0  0  0  0  0  0  0
   -4.0981   -2.5430   29.9361 C   0  0  0  0  0  0  0  0  0  0  0  0
   -5.4467   -2.5779   30.5086 N   0  0  0  0  0  0  0  0  0  0  0  0
   -6.0580   -4.2408   27.9607 C   0  0  0  0  0  0  0  0  0  0  0  0
   -5.4189   -4.6566   26.7430 N   0  0  0  0  0  0  0  0  0  0  0  0
   -7.4963   -7.1541   24.0740 C   0  0  0  0  0  0  0  0  0  0  0  0
   -7.8899   -5.8309   24.2196 C   0  0  0  0  0  0  0  0  0  0  0  0
   -7.1989   -5.0037   25.0967 C   0  0  0  0  0  0  0  0  0  0  0  0
   -6.1270   -5.5024   25.8342 C   0  0  0  0  0  0  0  0  0  0  0  0
   -5.7450   -6.8252   25.6937 C   0  0  0  0  0  0  0  0  0  0  0  0
   -6.4287   -7.6498   24.8084 C   0  0  0  0  0  0  0  0  0  0  0  0
  1  2  1  0  0  0  0
  2  3  2  0  0  0  0
  2 20  1  0  0  0  0
  4  6  1  0  0  0  0
  5  6  2  0  0  0  0
  5 16  1  0  0  0  0
  6  7  1  0  0  0  0
  7  8  1  0  0  0  0
  8  9  1  0  0  0  0
  8 10  2  0  0  0  0
  9 12  1  0  0  0  0
  9 16  2  0  0  0  0
 11 13  1  0  0  0  0
 11 12  1  0  0  0  0
 12 14  1  0  0  0  0
 14 15  1  0  0  0  0
 14 18  1  1  0  0  0
 15 17  1  0  0  0  0
 16 17  1  0  0  0  0
 18 19  1  0  0  0  0
 19 23  1  0  0  0  0
 20 21  2  0  0  0  0
 20 25  1  0  0  0  0
 21 22  1  0  0  0  0
 22 23  2  0  0  0  0
 23 24  1  0  0  0  0
 24 25  2  0  0  0  0
M  END
>  <CHROM.1>
-95.40383503,-41.71028730,-119.25216757,70.99634559,40.06065066,-5.24934830
-4.04088836,27.08599100,2.27949137,0.65734948,-2.80420163

>  <Name>
ligand

>  <RI>
0

>  <Rbt.Current_Directory>
/home/itssahil/PROJECTS/Mol_Feturizer/New_Systems/rnas/4LVV

>  <Rbt.Executable>
rbdock ($Id: //depot/dev/client3/rdock/2013.1/src/exe/rbdock.cxx#4 $)

>  <Rbt.Library>
libRbt.so (2013.1, Build901 2013/11/27)

>  <Rbt.Parameter_File>
/export/apps/rDock/src/rDock_2013.1_src/data/scripts/dock_solv.prm

>  <Rbt.Receptor>
prm/blind_docking_100.prm

>  <SCORE>
-12.3601

>  <SCORE.INTER>
-12.0402

>  <SCORE.INTER.CONST>
1

>  <SCORE.INTER.POLAR>
0

>  <SCORE.INTER.ROT>
5

>  <SCORE.INTER.SOLV>
12.9731

>  <SCORE.INTER.VDW>
-19.2845

>  <SCORE.INTER.norm>
-0.481609

>  <SCORE.INTRA>
-0.319886

>  <SCORE.INTRA.DIHEDRAL>
1.45958

>  <SCORE.INTRA.DIHEDRAL.0>
3.94806

>  <SCORE.INTRA.POLAR>
0

>  <SCORE.INTRA.POLAR.0>
0

>  <SCORE.INTRA.REPUL>
0

>  <SCORE.INTRA.REPUL.0>
0

>  <SCORE.INTRA.SOLV>
0.382283

>  <SCORE.INTRA.SOLV.lig_0>
-70.9803

>  <SCORE.INTRA.VDW>
-1.24082

>  <SCORE.INTRA.VDW.0>
-0.709409

>  <SCORE.INTRA.norm>
-0.0127954

>  <SCORE.RESTR>
0

>  <SCORE.RESTR.CAVITY>
0

>  <SCORE.RESTR.norm>
0

>  <SCORE.SYSTEM>
0

>  <SCORE.SYSTEM.CONST>
0

>  <SCORE.SYSTEM.DIHEDRAL>
0

>  <SCORE.SYSTEM.SOLV>
0

>  <SCORE.SYSTEM.norm>
0

>  <SCORE.heavy>
25

>  <SCORE.norm>
-0.494404

>  <RMSD>
21.287

$$$$
ligand
 OpenBabel11021811503D
libRbt.so/2013.1/901 2013/11/27
 25 27  0  0  0  0  0  0  0  0999 V2000
  -10.3158   -6.0726   21.4542 N   0  0  0  0  0  0  0  0  0  0  0  0
   -9.0768   -6.7831   21.3798 C   0  0  0  0  0  0  0  0  0  0  0  0
   -8.8473   -7.5459   20.4495 O   0  0  0  0  0  0  0  0  0  0  0  0
   -6.1620    0.7967   28.3703 N   0  0  0  0  0  0  0  0  0  0  0  0
   -4.8688   -1.1709   27.8993 N   0  0  0  0  0  0  0  0  0  0  0  0
   -5.9248   -0.6019   28.5254 C   0  0  0  0  0  0  0  0  0  0  0  0
   -6.7624   -1.3420   29.3121 N   0  0  0  0  0  0  0  0  0  0  0  0
   -6.5831   -2.6741   29.5014 C   0  0  0  0  0  0  0  0  0  0  0  0
   -5.4977   -3.3096   28.8520 C   0  0  0  0  0  0  0  0  0  0  0  0
   -7.4666   -3.3675   30.2950 O   0  0  0  0  0  0  0  0  0  0  0  0
   -5.2953   -5.4540   30.2153 C   0  0  0  0  0  0  0  0  0  0  0  0
   -5.1668   -4.7194   28.9797 N   0  0  0  0  0  0  0  0  0  0  0  0
   -4.4825   -5.3756   31.1303 O   0  0  0  0  0  0  0  0  0  0  0  0
   -4.6054   -5.3019   27.8364 C   0  0  2  0  0  0  0  0  0  0  0  0
   -3.3235   -4.5273   27.4358 C   0  0  0  0  0  0  0  0  0  0  0  0
   -4.6237   -2.5110   28.0488 C   0  0  0  0  0  0  0  0  0  0  0  0
   -3.4905   -3.1322   27.3577 N   0  0  0  0  0  0  0  0  0  0  0  0
   -5.5986   -5.3100   26.6919 C   0  0  0  0  0  0  0  0  0  0  0  0
   -5.2287   -6.0369   25.5091 N   0  0  0  0  0  0  0  0  0  0  0  0
   -8.0608   -6.5655   22.4471 C   0  0  0  0  0  0  0  0  0  0  0  0
   -7.3652   -5.3675   22.5360 C   0  0  0  0  0  0  0  0  0  0  0  0
   -6.4243   -5.1955   23.5439 C   0  0  0  0  0  0  0  0  0  0  0  0
   -6.1902   -6.2132   24.4665 C   0  0  0  0  0  0  0  0  0  0  0  0
   -6.8939   -7.4018   24.3803 C   0  0  0  0  0  0  0  0  0  0  0  0
   -7.8270   -7.5784   23.3658 C   0  0  0  0  0  0  0  0  0  0  0  0
  1  2  1  0  0  0  0
  2  3  2  0  0  0  0
  2 20  1  0  0  0  0
  4  6  1  0  0  0  0
  5  6  2  0  0  0  0
  5 16  1  0  0  0  0
  6  7  1  0  0  0  0
  7  8  1  0  0  0  0
  8  9  1  0  0  0  0
  8 10  2  0  0  0  0
  9 12  1  0  0  0  0
  9 16  2  0  0  0  0
 11 13  1  0  0  0  0
 11 12  1  0  0  0  0
 12 14  1  0  0  0  0
 14 15  1  0  0  0  0
 14 18  1  6  0  0  0
 15 17  1  0  0  0  0
 16 17  1  0  0  0  0
 18 19  1  0  0  0  0
 19 23  1  0  0  0  0
 20 21  2  0  0  0  0
 20 25  1  0  0  0  0
 21 22  1  0  0  0  0
 22 23  2  0  0  0  0
 23 24  1  0  0  0  0
 24 25  2  0  0  0  0
M  END
>  <CHROM.1>
-77.97517624,-171.85132907,172.46669176,81.16666108,-70.98489100,-6.22552061
-4.49722574,26.49133616,2.24142301,1.00163163,-2.66943915

>  <Name>
ligand

>  <RI>
0

>  <Rbt.Current_Directory>
/home/itssahil/PROJECTS/Mol_Feturizer/New_Systems/rnas/4LVV

>  <Rbt.Executable>
rbdock ($Id: //depot/dev/client3/rdock/2013.1/src/exe/rbdock.cxx#4 $)

>  <Rbt.Library>
libRbt.so (2013.1, Build901 2013/11/27)

>  <Rbt.Parameter_File>
/export/apps/rDock/src/rDock_2013.1_src/data/scripts/dock_solv.prm

>  <Rbt.Receptor>
prm/blind_docking_40.prm

>  <SCORE>
-9.59243

>  <SCORE.INTER>
-8.11074

>  <SCORE.INTER.CONST>
1

>  <SCORE.INTER.POLAR>
0

>  <SCORE.INTER.ROT>
5

>  <SCORE.INTER.SOLV>
12.9092

>  <SCORE.INTER.VDW>
-16.6436

>  <SCORE.INTER.norm>
-0.32443

>  <SCORE.INTRA>
-1.48169

>  <SCORE.INTRA.DIHEDRAL>
-0.567438

>  <SCORE.INTRA.DIHEDRAL.0>
3.94806

>  <SCORE.INTRA.POLAR>
0

>  <SCORE.INTRA.POLAR.0>
0

>  <SCORE.INTRA.REPUL>
0

>  <SCORE.INTRA.REPUL.0>
0

>  <SCORE.INTRA.SOLV>
-0.373319

>  <SCORE.INTRA.SOLV.lig_0>
-70.9803

>  <SCORE.INTRA.VDW>
-1.01131

>  <SCORE.INTRA.VDW.0>
-0.709409

>  <SCORE.INTRA.norm>
-0.0592675

>  <SCORE.RESTR>
0

>  <SCORE.RESTR.CAVITY>
0

>  <SCORE.RESTR.norm>
0

>  <SCORE.SYSTEM>
0

>  <SCORE.SYSTEM.CONST>
0

>  <SCORE.SYSTEM.DIHEDRAL>
0

>  <SCORE.SYSTEM.SOLV>
0

>  <SCORE.SYSTEM.norm>
0

>  <SCORE.heavy>
25

>  <SCORE.norm>
-0.383697

>  <RMSD>
21.290

$$$$
ligand
 OpenBabel11021811503D
libRbt.so/2013.1/901 2013/11/27
 25 27  0  0  0  0  0  0  0  0999 V2000
   -7.0438   -7.7986   24.5828 N   0  0  0  0  0  0  0  0  0  0  0  0
   -7.0778   -6.3690   24.6062 C   0  0  0  0  0  0  0  0  0  0  0  0
   -7.8116   -5.7476   23.8475 O   0  0  0  0  0  0  0  0  0  0  0  0
   -9.8210   -1.2977   31.8938 N   0  0  0  0  0  0  0  0  0  0  0  0
   -7.6179   -2.2125   32.1676 N   0  0  0  0  0  0  0  0  0  0  0  0
   -8.8036   -2.2241   31.5158 C   0  0  0  0  0  0  0  0  0  0  0  0
   -9.0472   -3.1151   30.5083 N   0  0  0  0  0  0  0  0  0  0  0  0
   -8.1202   -4.0230   30.1098 C   0  0  0  0  0  0  0  0  0  0  0  0
   -6.8616   -4.0335   30.7573 C   0  0  0  0  0  0  0  0  0  0  0  0
   -8.4197   -4.8859   29.0818 O   0  0  0  0  0  0  0  0  0  0  0  0
   -6.0016   -6.3484   30.1250 C   0  0  0  0  0  0  0  0  0  0  0  0
   -5.7832   -4.9609   30.4565 N   0  0  0  0  0  0  0  0  0  0  0  0
   -5.5063   -6.8897   29.1424 O   0  0  0  0  0  0  0  0  0  0  0  0
   -4.4927   -4.4404   30.6158 C   0  0  2  0  0  0  0  0  0  0  0  0
   -4.3151   -3.9299   32.0689 C   0  0  0  0  0  0  0  0  0  0  0  0
   -6.6364   -3.1042   31.8215 C   0  0  0  0  0  0  0  0  0  0  0  0
   -5.3455   -3.0815   32.5148 N   0  0  0  0  0  0  0  0  0  0  0  0
   -4.2363   -3.3216   29.6265 C   0  0  0  0  0  0  0  0  0  0  0  0
   -3.7150   -3.6919   28.3399 N   0  0  0  0  0  0  0  0  0  0  0  0
   -6.2158   -5.6477   25.5836 C   0  0  0  0  0  0  0  0  0  0  0  0
   -6.6897   -4.5376   26.2691 C   0  0  0  0  0  0  0  0  0  0  0  0
   -5.8608   -3.8872   27.1750 C   0  0  0  0  0  0  0  0  0  0  0  0
   -4.5677   -4.3537   27.4032 C   0  0  0  0  0  0  0  0  0  0  0  0
   -4.1033   -5.4673   26.7253 C   0  0  0  0  0  0  0  0  0  0  0  0
   -4.9282   -6.1114   25.8110 C   0  0  0  0  0  0  0  0  0  0  0  0
  1  2  1  0  0  0  0
  2  3  2  0  0  0  0
  2 20  1  0  0  0  0
  4  6  1  0  0  0  0
  5  6  2  0  0  0  0
  5 16  1  0  0  0  0
  6  7  1  0  0  0  0
  7  8  1  0  0  0  0
  8  9  1  0  0  0  0
  8 10  2  0  0  0  0
  9 12  1  0  0  0  0
  9 16  2  0  0  0  0
 11 13  1  0  0  0  0
 11 12  1  0  0  0  0
 12 14  1  0  0  0  0
 14 15  1  0  0  0  0
 14 18  1  6  0  0  0
 15 17  1  0  0  0  0
 16 17  1  0  0  0  0
 18 19  1  0  0  0  0
 19 23  1  0  0  0  0
 20 21  2  0  0  0  0
 20 25  1  0  0  0  0
 21 22  1  0  0  0  0
 22 23  2  0  0  0  0
 23 24  1  0  0  0  0
 24 25  2  0  0  0  0
M  END
>  <CHROM.1>
129.67419809,-88.23484544,72.12482764,45.81412236,-139.09091491,-6.38264350
-4.47983736,28.93864610,1.44621824,0.23693961,-2.00538135

>  <Name>
ligand

>  <RI>
0

>  <Rbt.Current_Directory>
/home/itssahil/PROJECTS/Mol_Feturizer/New_Systems/rnas/4LVV

>  <Rbt.Executable>
rbdock ($Id: //depot/dev/client3/rdock/2013.1/src/exe/rbdock.cxx#4 $)

>  <Rbt.Library>
libRbt.so (2013.1, Build901 2013/11/27)

>  <Rbt.Parameter_File>
/export/apps/rDock/src/rDock_2013.1_src/data/scripts/dock_solv.prm

>  <Rbt.Receptor>
prm/blind_docking_100.prm

>  <SCORE>
-11.7693

>  <SCORE.INTER>
-10.1667

>  <SCORE.INTER.CONST>
1

>  <SCORE.INTER.POLAR>
0

>  <SCORE.INTER.ROT>
5

>  <SCORE.INTER.SOLV>
13.6426

>  <SCORE.INTER.VDW>
-18.2586

>  <SCORE.INTER.norm>
-0.406666

>  <SCORE.INTRA>
-1.6026

>  <SCORE.INTRA.DIHEDRAL>
1.77384

>  <SCORE.INTRA.DIHEDRAL.0>
3.94806

>  <SCORE.INTRA.POLAR>
0

>  <SCORE.INTRA.POLAR.0>
0

>  <SCORE.INTRA.REPUL>
0

>  <SCORE.INTRA.REPUL.0>
0

>  <SCORE.INTRA.SOLV>
0.512044

>  <SCORE.INTRA.SOLV.lig_0>
-70.9803

>  <SCORE.INTRA.VDW>
-2.74554

>  <SCORE.INTRA.VDW.0>
-0.709409

>  <SCORE.INTRA.norm>
-0.0641039

>  <SCORE.RESTR>
0

>  <SCORE.RESTR.CAVITY>
0

>  <SCORE.RESTR.norm>
0

>  <SCORE.SYSTEM>
0

>  <SCORE.SYSTEM.CONST>
0

>  <SCORE.SYSTEM.DIHEDRAL>
0

>  <SCORE.SYSTEM.SOLV>
0

>  <SCORE.SYSTEM.norm>
0

>  <SCORE.heavy>
25

>  <SCORE.norm>
-0.47077

>  <RMSD>
21.374

$$$$
ligand
 OpenBabel11021811503D
libRbt.so/2013.1/901 2013/11/27
 25 27  0  0  0  0  0  0  0  0999 V2000
   -9.7817   -1.8425   29.9663 N   0  0  0  0  0  0  0  0  0  0  0  0
   -9.7143   -1.6711   28.5480 C   0  0  0  0  0  0  0  0  0  0  0  0
  -10.3424   -0.7769   27.9948 O   0  0  0  0  0  0  0  0  0  0  0  0
   -7.4427  -11.7963   21.6875 N   0  0  0  0  0  0  0  0  0  0  0  0
   -6.6585   -9.5336   21.8624 N   0  0  0  0  0  0  0  0  0  0  0  0
   -7.6892  -10.4088   21.9120 C   0  0  0  0  0  0  0  0  0  0  0  0
   -8.9643   -9.9852   22.1632 N   0  0  0  0  0  0  0  0  0  0  0  0
   -9.2598   -8.6780   22.3782 C   0  0  0  0  0  0  0  0  0  0  0  0
   -8.2067   -7.7326   22.3489 C   0  0  0  0  0  0  0  0  0  0  0  0
  -10.5604   -8.3145   22.6379 O   0  0  0  0  0  0  0  0  0  0  0  0
   -9.5025   -5.5617   22.0233 C   0  0  0  0  0  0  0  0  0  0  0  0
   -8.3739   -6.3007   22.5360 N   0  0  0  0  0  0  0  0  0  0  0  0
  -10.3561   -5.0552   22.7435 O   0  0  0  0  0  0  0  0  0  0  0  0
   -7.3000   -5.6559   23.1628 C   0  0  2  0  0  0  0  0  0  0  0  0
   -6.0025   -5.9004   22.3503 C   0  0  0  0  0  0  0  0  0  0  0  0
   -6.8835   -8.1970   22.0655 C   0  0  0  0  0  0  0  0  0  0  0  0
   -5.7657   -7.2499   22.0292 N   0  0  0  0  0  0  0  0  0  0  0  0
   -7.1333   -6.1461   24.5869 C   0  0  0  0  0  0  0  0  0  0  0  0
   -6.4938   -5.2555   25.5153 N   0  0  0  0  0  0  0  0  0  0  0  0
   -8.8512   -2.5906   27.7554 C   0  0  0  0  0  0  0  0  0  0  0  0
   -7.4868   -2.3638   27.6378 C   0  0  0  0  0  0  0  0  0  0  0  0
   -6.7089   -3.2409   26.8918 C   0  0  0  0  0  0  0  0  0  0  0  0
   -7.2921   -4.3471   26.2770 C   0  0  0  0  0  0  0  0  0  0  0  0
   -8.6511   -4.5750   26.4060 C   0  0  0  0  0  0  0  0  0  0  0  0
   -9.4313   -3.6920   27.1428 C   0  0  0  0  0  0  0  0  0  0  0  0
  1  2  1  0  0  0  0
  2  3  2  0  0  0  0
  2 20  1  0  0  0  0
  4  6  1  0  0  0  0
  5  6  2  0  0  0  0
  5 16  1  0  0  0  0
  6  7  1  0  0  0  0
  7  8  1  0  0  0  0
  8  9  1  0  0  0  0
  8 10  2  0  0  0  0
  9 12  1  0  0  0  0
  9 16  2  0  0  0  0
 11 13  1  0  0  0  0
 11 12  1  0  0  0  0
 12 14  1  0  0  0  0
 14 15  1  0  0  0  0
 14 18  1  1  0  0  0
 15 17  1  0  0  0  0
 16 17  1  0  0  0  0
 18 19  1  0  0  0  0
 19 23  1  0  0  0  0
 20 21  2  0  0  0  0
 20 25  1  0  0  0  0
 21 22  1  0  0  0  0
 22 23  2  0  0  0  0
 23 24  1  0  0  0  0
 24 25  2  0  0  0  0
M  END
>  <CHROM.1>
112.00530800,-154.95145916,90.78116544,-162.11695233,-82.57186418,-8.23632224
-5.89738186,24.36497338,1.70112532,-0.03309071,0.72560171

>  <Name>
ligand

>  <RI>
0

>  <Rbt.Current_Directory>
/home/itssahil/PROJECTS/Mol_Feturizer/New_Systems/rnas/4LVV

>  <Rbt.Executable>
rbdock ($Id: //depot/dev/client3/rdock/2013.1/src/exe/rbdock.cxx#4 $)

>  <Rbt.Library>
libRbt.so (2013.1, Build901 2013/11/27)

>  <Rbt.Parameter_File>
/export/apps/rDock/src/rDock_2013.1_src/data/scripts/dock_solv.prm

>  <Rbt.Receptor>
prm/blind_docking_60.prm

>  <SCORE>
-10.294

>  <SCORE.INTER>
-10.5825

>  <SCORE.INTER.CONST>
1

>  <SCORE.INTER.POLAR>
0

>  <SCORE.INTER.ROT>
5

>  <SCORE.INTER.SOLV>
12.6474

>  <SCORE.INTER.VDW>
-18.2041

>  <SCORE.INTER.norm>
-0.4233

>  <SCORE.INTRA>
0.28849

>  <SCORE.INTRA.DIHEDRAL>
1.96232

>  <SCORE.INTRA.DIHEDRAL.0>
3.94806

>  <SCORE.INTRA.POLAR>
0

>  <SCORE.INTRA.POLAR.0>
0

>  <SCORE.INTRA.REPUL>
0

>  <SCORE.INTRA.REPUL.0>
0

>  <SCORE.INTRA.SOLV>
-0.443835

>  <SCORE.INTRA.SOLV.lig_0>
-70.9803

>  <SCORE.INTRA.VDW>
-0.470754

>  <SCORE.INTRA.VDW.0>
-0.709409

>  <SCORE.INTRA.norm>
0.0115396

>  <SCORE.RESTR>
0

>  <SCORE.RESTR.CAVITY>
0

>  <SCORE.RESTR.norm>
0

>  <SCORE.SYSTEM>
0

>  <SCORE.SYSTEM.CONST>
0

>  <SCORE.SYSTEM.DIHEDRAL>
0

>  <SCORE.SYSTEM.SOLV>
0

>  <SCORE.SYSTEM.norm>
0

>  <SCORE.heavy>
25

>  <SCORE.norm>
-0.41176

>  <RMSD>
21.438

$$$$
ligand
 OpenBabel11021811503D
libRbt.so/2013.1/901 2013/11/27
 25 27  0  0  0  0  0  0  0  0999 V2000
   -6.5435   -6.4508   21.8429 N   0  0  0  0  0  0  0  0  0  0  0  0
   -6.6851   -7.1162   23.1009 C   0  0  0  0  0  0  0  0  0  0  0  0
   -6.9825   -8.3032   23.1515 O   0  0  0  0  0  0  0  0  0  0  0  0
   -0.9777   -2.8239   31.0744 N   0  0  0  0  0  0  0  0  0  0  0  0
   -3.2317   -2.0792   30.7137 N   0  0  0  0  0  0  0  0  0  0  0  0
   -2.0651   -2.5308   30.1981 C   0  0  0  0  0  0  0  0  0  0  0  0
   -1.9070   -2.7013   28.8511 N   0  0  0  0  0  0  0  0  0  0  0  0
   -2.9034   -2.4332   27.9693 C   0  0  0  0  0  0  0  0  0  0  0  0
   -4.1444   -1.9723   28.4704 C   0  0  0  0  0  0  0  0  0  0  0  0
   -2.6882   -2.6360   26.6263 O   0  0  0  0  0  0  0  0  0  0  0  0
   -5.1766   -0.9574   26.3721 C   0  0  0  0  0  0  0  0  0  0  0  0
   -5.2909   -1.6220   27.6480 N   0  0  0  0  0  0  0  0  0  0  0  0
   -5.7190    0.1137   26.1223 O   0  0  0  0  0  0  0  0  0  0  0  0
   -6.5384   -1.8784   28.2309 C   0  0  2  0  0  0  0  0  0  0  0  0
   -6.6466   -1.1205   29.5790 C   0  0  0  0  0  0  0  0  0  0  0  0
   -4.2802   -1.7837   29.8820 C   0  0  0  0  0  0  0  0  0  0  0  0
   -5.5501   -1.3108   30.4402 N   0  0  0  0  0  0  0  0  0  0  0  0
   -6.7399   -3.3654   28.4419 C   0  0  0  0  0  0  0  0  0  0  0  0
   -5.7282   -4.2434   27.9225 N   0  0  0  0  0  0  0  0  0  0  0  0
   -6.4472   -6.3426   24.3514 C   0  0  0  0  0  0  0  0  0  0  0  0
   -7.0921   -5.1341   24.5761 C   0  0  0  0  0  0  0  0  0  0  0  0
   -6.8492   -4.4371   25.7534 C   0  0  0  0  0  0  0  0  0  0  0  0
   -5.9745   -4.9539   26.7071 C   0  0  0  0  0  0  0  0  0  0  0  0
   -5.3421   -6.1644   26.4834 C   0  0  0  0  0  0  0  0  0  0  0  0
   -5.5762   -6.8564   25.3013 C   0  0  0  0  0  0  0  0  0  0  0  0
  1  2  1  0  0  0  0
  2  3  2  0  0  0  0
  2 20  1  0  0  0  0
  4  6  1  0  0  0  0
  5  6  2  0  0  0  0
  5 16  1  0  0  0  0
  6  7  1  0  0  0  0
  7  8  1  0  0  0  0
  8  9  1  0  0  0  0
  8 10  2  0  0  0  0
  9 12  1  0  0  0  0
  9 16  2  0  0  0  0
 11 13  1  0  0  0  0
 11 12  1  0  0  0  0
 12 14  1  0  0  0  0
 14 15  1  0  0  0  0
 14 18  1  1  0  0  0
 15 17  1  0  0  0  0
 16 17  1  0  0  0  0
 18 19  1  0  0  0  0
 19 23  1  0  0  0  0
 20 21  2  0  0  0  0
 20 25  1  0  0  0  0
 21 22  1  0  0  0  0
 22 23  2  0  0  0  0
 23 24  1  0  0  0  0
 24 25  2  0  0  0  0
M  END
>  <CHROM.1>
-122.33649342,-5.48022030,-102.58692583,27.17737526,51.92762297,-5.07125927
-3.50660809,27.19342097,2.02480362,0.58058394,-2.52779854

>  <Name>
ligand

>  <RI>
0

>  <Rbt.Current_Directory>
/home/itssahil/PROJECTS/Mol_Feturizer/New_Systems/rnas/4LVV

>  <Rbt.Executable>
rbdock ($Id: //depot/dev/client3/rdock/2013.1/src/exe/rbdock.cxx#4 $)

>  <Rbt.Library>
libRbt.so (2013.1, Build901 2013/11/27)

>  <Rbt.Parameter_File>
/export/apps/rDock/src/rDock_2013.1_src/data/scripts/dock_solv.prm

>  <Rbt.Receptor>
prm/blind_docking_100.prm

>  <SCORE>
-10.633

>  <SCORE.INTER>
-13.0806

>  <SCORE.INTER.CONST>
1

>  <SCORE.INTER.POLAR>
0

>  <SCORE.INTER.ROT>
5

>  <SCORE.INTER.SOLV>
11.671

>  <SCORE.INTER.VDW>
-19.5441

>  <SCORE.INTER.norm>
-0.523226

>  <SCORE.INTRA>
2.44769

>  <SCORE.INTRA.DIHEDRAL>
5.47276

>  <SCORE.INTRA.DIHEDRAL.0>
3.94806

>  <SCORE.INTRA.POLAR>
0

>  <SCORE.INTRA.POLAR.0>
0

>  <SCORE.INTRA.REPUL>
0

>  <SCORE.INTRA.REPUL.0>
0

>  <SCORE.INTRA.SOLV>
1.72599

>  <SCORE.INTRA.SOLV.lig_0>
-70.9803

>  <SCORE.INTRA.VDW>
-1.15169

>  <SCORE.INTRA.VDW.0>
-0.709409

>  <SCORE.INTRA.norm>
0.0979075

>  <SCORE.RESTR>
0

>  <SCORE.RESTR.CAVITY>
0

>  <SCORE.RESTR.norm>
0

>  <SCORE.SYSTEM>
0

>  <SCORE.SYSTEM.CONST>
0

>  <SCORE.SYSTEM.DIHEDRAL>
0

>  <SCORE.SYSTEM.SOLV>
0

>  <SCORE.SYSTEM.norm>
0

>  <SCORE.heavy>
25

>  <SCORE.norm>
-0.425318

>  <RMSD>
21.492

$$$$
ligand
 OpenBabel11021811503D
libRbt.so/2013.1/901 2013/11/27
 25 27  0  0  0  0  0  0  0  0999 V2000
   -8.4635   -6.2709   22.5909 N   0  0  0  0  0  0  0  0  0  0  0  0
   -7.9386   -7.0919   23.6377 C   0  0  0  0  0  0  0  0  0  0  0  0
   -8.1807   -8.2920   23.6734 O   0  0  0  0  0  0  0  0  0  0  0  0
  -10.7401   -1.7112   27.2085 N   0  0  0  0  0  0  0  0  0  0  0  0
   -8.5081   -1.3395   28.0117 N   0  0  0  0  0  0  0  0  0  0  0  0
   -9.5577   -2.1791   27.8559 C   0  0  0  0  0  0  0  0  0  0  0  0
   -9.5087   -3.4648   28.3175 N   0  0  0  0  0  0  0  0  0  0  0  0
   -8.4137   -3.9631   28.9461 C   0  0  0  0  0  0  0  0  0  0  0  0
   -7.2891   -3.1205   29.1159 C   0  0  0  0  0  0  0  0  0  0  0  0
   -8.4197   -5.2688   29.3776 O   0  0  0  0  0  0  0  0  0  0  0  0
   -6.0293   -4.3465   30.9620 C   0  0  0  0  0  0  0  0  0  0  0  0
   -6.0596   -3.5060   29.7892 N   0  0  0  0  0  0  0  0  0  0  0  0
   -5.9838   -5.5708   30.9092 O   0  0  0  0  0  0  0  0  0  0  0  0
   -4.8961   -2.9133   29.2828 C   0  0  2  0  0  0  0  0  0  0  0  0
   -5.0309   -1.3700   29.3446 C   0  0  0  0  0  0  0  0  0  0  0  0
   -7.3707   -1.7733   28.6415 C   0  0  0  0  0  0  0  0  0  0  0  0
   -6.2265   -0.8706   28.7957 N   0  0  0  0  0  0  0  0  0  0  0  0
   -4.6356   -3.3654   27.8601 C   0  0  0  0  0  0  0  0  0  0  0  0
   -4.5902   -4.7814   27.6210 N   0  0  0  0  0  0  0  0  0  0  0  0
   -7.0761   -6.4636   24.6770 C   0  0  0  0  0  0  0  0  0  0  0  0
   -7.4098   -5.2370   25.2346 C   0  0  0  0  0  0  0  0  0  0  0  0
   -6.5845   -4.6779   26.2027 C   0  0  0  0  0  0  0  0  0  0  0  0
   -5.4373   -5.3498   26.6200 C   0  0  0  0  0  0  0  0  0  0  0  0
   -5.1144   -6.5776   26.0689 C   0  0  0  0  0  0  0  0  0  0  0  0
   -5.9335   -7.1318   25.0927 C   0  0  0  0  0  0  0  0  0  0  0  0
  1  2  1  0  0  0  0
  2  3  2  0  0  0  0
  2 20  1  0  0  0  0
  4  6  1  0  0  0  0
  5  6  2  0  0  0  0
  5 16  1  0  0  0  0
  6  7  1  0  0  0  0
  7  8  1  0  0  0  0
  8  9  1  0  0  0  0
  8 10  2  0  0  0  0
  9 12  1  0  0  0  0
  9 16  2  0  0  0  0
 11 13  1  0  0  0  0
 11 12  1  0  0  0  0
 12 14  1  0  0  0  0
 14 15  1  0  0  0  0
 14 18  1  6  0  0  0
 15 17  1  0  0  0  0
 16 17  1  0  0  0  0
 18 19  1  0  0  0  0
 19 23  1  0  0  0  0
 20 21  2  0  0  0  0
 20 25  1  0  0  0  0
 21 22  1  0  0  0  0
 22 23  2  0  0  0  0
 23 24  1  0  0  0  0
 24 25  2  0  0  0  0
M  END
>  <CHROM.1>
88.03172681,-53.65997256,125.54549384,-21.60473493,43.16143183,-7.02538444
-4.26733599,27.49622224,1.69392341,0.51214528,-2.31669485

>  <Name>
ligand

>  <RI>
0

>  <Rbt.Current_Directory>
/home/itssahil/PROJECTS/Mol_Feturizer/New_Systems/rnas/4LVV

>  <Rbt.Executable>
rbdock ($Id: //depot/dev/client3/rdock/2013.1/src/exe/rbdock.cxx#4 $)

>  <Rbt.Library>
libRbt.so (2013.1, Build901 2013/11/27)

>  <Rbt.Parameter_File>
/export/apps/rDock/src/rDock_2013.1_src/data/scripts/dock_solv.prm

>  <Rbt.Receptor>
prm/blind_docking_40.prm

>  <SCORE>
-10.3127

>  <SCORE.INTER>
-9.25588

>  <SCORE.INTER.CONST>
1

>  <SCORE.INTER.POLAR>
0

>  <SCORE.INTER.ROT>
5

>  <SCORE.INTER.SOLV>
10.3697

>  <SCORE.INTER.VDW>
-16.5605

>  <SCORE.INTER.norm>
-0.370235

>  <SCORE.INTRA>
-1.05679

>  <SCORE.INTRA.DIHEDRAL>
0.768288

>  <SCORE.INTRA.DIHEDRAL.0>
3.94806

>  <SCORE.INTRA.POLAR>
0

>  <SCORE.INTRA.POLAR.0>
0

>  <SCORE.INTRA.REPUL>
0

>  <SCORE.INTRA.REPUL.0>
0

>  <SCORE.INTRA.SOLV>
0.711219

>  <SCORE.INTRA.SOLV.lig_0>
-70.9803

>  <SCORE.INTRA.VDW>
-1.79654

>  <SCORE.INTRA.VDW.0>
-0.709409

>  <SCORE.INTRA.norm>
-0.0422715

>  <SCORE.RESTR>
0

>  <SCORE.RESTR.CAVITY>
0

>  <SCORE.RESTR.norm>
0

>  <SCORE.SYSTEM>
0

>  <SCORE.SYSTEM.CONST>
0

>  <SCORE.SYSTEM.DIHEDRAL>
0

>  <SCORE.SYSTEM.SOLV>
0

>  <SCORE.SYSTEM.norm>
0

>  <SCORE.heavy>
25

>  <SCORE.norm>
-0.412507

>  <RMSD>
21.627

$$$$
ligand
 OpenBabel11021811503D
libRbt.so/2013.1/901 2013/11/27
 25 27  0  0  0  0  0  0  0  0999 V2000
   -6.7475   -6.8067   22.3280 N   0  0  0  0  0  0  0  0  0  0  0  0
   -7.1140   -7.1553   23.6657 C   0  0  0  0  0  0  0  0  0  0  0  0
   -7.8273   -8.1261   23.8868 O   0  0  0  0  0  0  0  0  0  0  0  0
   -8.0183    0.6233   27.9548 N   0  0  0  0  0  0  0  0  0  0  0  0
   -5.9106   -0.4526   27.5483 N   0  0  0  0  0  0  0  0  0  0  0  0
   -6.8795   -0.0976   28.4235 C   0  0  0  0  0  0  0  0  0  0  0  0
   -6.7813   -0.4088   29.7508 N   0  0  0  0  0  0  0  0  0  0  0  0
   -5.7192   -1.0873   30.2549 C   0  0  0  0  0  0  0  0  0  0  0  0
   -4.6909   -1.4892   29.3690 C   0  0  0  0  0  0  0  0  0  0  0  0
   -5.6827   -1.3819   31.5976 O   0  0  0  0  0  0  0  0  0  0  0  0
   -2.7825   -1.9348   30.9992 C   0  0  0  0  0  0  0  0  0  0  0  0
   -3.4854   -2.1979   29.7666 N   0  0  0  0  0  0  0  0  0  0  0  0
   -2.8646   -2.6581   31.9861 O   0  0  0  0  0  0  0  0  0  0  0  0
   -2.9817   -3.0912   28.8126 C   0  0  2  0  0  0  0  0  0  0  0  0
   -2.6963   -2.3323   27.4912 C   0  0  0  0  0  0  0  0  0  0  0  0
   -4.8066   -1.1358   27.9875 C   0  0  0  0  0  0  0  0  0  0  0  0
   -3.7645   -1.5362   27.0381 N   0  0  0  0  0  0  0  0  0  0  0  0
   -3.9545   -4.2277   28.5711 C   0  0  0  0  0  0  0  0  0  0  0  0
   -5.1958   -3.9010   27.9256 N   0  0  0  0  0  0  0  0  0  0  0  0
   -6.5976   -6.3253   24.7896 C   0  0  0  0  0  0  0  0  0  0  0  0
   -5.5325   -6.7599   25.5664 C   0  0  0  0  0  0  0  0  0  0  0  0
   -5.0737   -5.9617   26.6072 C   0  0  0  0  0  0  0  0  0  0  0  0
   -5.6701   -4.7281   26.8608 C   0  0  0  0  0  0  0  0  0  0  0  0
   -6.7247   -4.2941   26.0768 C   0  0  0  0  0  0  0  0  0  0  0  0
   -7.1911   -5.0971   25.0429 C   0  0  0  0  0  0  0  0  0  0  0  0
  1  2  1  0  0  0  0
  2  3  2  0  0  0  0
  2 20  1  0  0  0  0
  4  6  1  0  0  0  0
  5  6  2  0  0  0  0
  5 16  1  0  0  0  0
  6  7  1  0  0  0  0
  7  8  1  0  0  0  0
  8  9  1  0  0  0  0
  8 10  2  0  0  0  0
  9 12  1  0  0  0  0
  9 16  2  0  0  0  0
 11 13  1  0  0  0  0
 11 12  1  0  0  0  0
 12 14  1  0  0  0  0
 14 15  1  0  0  0  0
 14 18  1  6  0  0  0
 15 17  1  0  0  0  0
 16 17  1  0  0  0  0
 18 19  1  0  0  0  0
 19 23  1  0  0  0  0
 20 21  2  0  0  0  0
 20 25  1  0  0  0  0
 21 22  1  0  0  0  0
 22 23  2  0  0  0  0
 23 24  1  0  0  0  0
 24 25  2  0  0  0  0
M  END
>  <CHROM.1>
102.53223835,67.97297795,134.35703322,11.45160522,-101.97536038,-5.35536251
-3.26984628,27.69087916,1.90404013,0.64203304,-2.52795171

>  <Name>
ligand

>  <RI>
0

>  <Rbt.Current_Directory>
/home/itssahil/PROJECTS/Mol_Feturizer/New_Systems/rnas/4LVV

>  <Rbt.Executable>
rbdock ($Id: //depot/dev/client3/rdock/2013.1/src/exe/rbdock.cxx#4 $)

>  <Rbt.Library>
libRbt.so (2013.1, Build901 2013/11/27)

>  <Rbt.Parameter_File>
/export/apps/rDock/src/rDock_2013.1_src/data/scripts/dock_solv.prm

>  <Rbt.Receptor>
prm/blind_docking_100.prm

>  <SCORE>
-10.9871

>  <SCORE.INTER>
-11.7988

>  <SCORE.INTER.CONST>
1

>  <SCORE.INTER.POLAR>
0

>  <SCORE.INTER.ROT>
5

>  <SCORE.INTER.SOLV>
10.4365

>  <SCORE.INTER.VDW>
-18.2781

>  <SCORE.INTER.norm>
-0.471954

>  <SCORE.INTRA>
0.811776

>  <SCORE.INTRA.DIHEDRAL>
0.702562

>  <SCORE.INTRA.DIHEDRAL.0>
3.94806

>  <SCORE.INTRA.POLAR>
0

>  <SCORE.INTRA.POLAR.0>
0

>  <SCORE.INTRA.REPUL>
0

>  <SCORE.INTRA.REPUL.0>
0

>  <SCORE.INTRA.SOLV>
2.41166

>  <SCORE.INTRA.SOLV.lig_0>
-70.9803

>  <SCORE.INTRA.VDW>
-0.745335

>  <SCORE.INTRA.VDW.0>
-0.709409

>  <SCORE.INTRA.norm>
0.032471

>  <SCORE.RESTR>
0

>  <SCORE.RESTR.CAVITY>
0

>  <SCORE.RESTR.norm>
0

>  <SCORE.SYSTEM>
0

>  <SCORE.SYSTEM.CONST>
0

>  <SCORE.SYSTEM.DIHEDRAL>
0

>  <SCORE.SYSTEM.SOLV>
0

>  <SCORE.SYSTEM.norm>
0

>  <SCORE.heavy>
25

>  <SCORE.norm>
-0.439483

>  <RMSD>
21.692

$$$$
ligand
 OpenBabel11021811503D
libRbt.so/2013.1/901 2013/11/27
 25 27  0  0  0  0  0  0  0  0999 V2000
   -8.9758   -6.1476   23.2568 N   0  0  0  0  0  0  0  0  0  0  0  0
   -7.6153   -5.7543   23.0577 C   0  0  0  0  0  0  0  0  0  0  0  0
   -7.2058   -5.4587   21.9419 O   0  0  0  0  0  0  0  0  0  0  0  0
   -7.2341    1.3294   28.8666 N   0  0  0  0  0  0  0  0  0  0  0  0
   -5.5231   -0.1192   28.0067 N   0  0  0  0  0  0  0  0  0  0  0  0
   -6.2148    0.3517   29.0700 C   0  0  0  0  0  0  0  0  0  0  0  0
   -5.9469   -0.0856   30.3371 N   0  0  0  0  0  0  0  0  0  0  0  0
   -4.9854   -1.0092   30.5921 C   0  0  0  0  0  0  0  0  0  0  0  0
   -4.2491   -1.5371   29.5045 C   0  0  0  0  0  0  0  0  0  0  0  0
   -4.7703   -1.4188   31.8870 O   0  0  0  0  0  0  0  0  0  0  0  0
   -2.2201   -2.5046   30.7069 C   0  0  0  0  0  0  0  0  0  0  0  0
   -3.1761   -2.5105   29.6257 N   0  0  0  0  0  0  0  0  0  0  0  0
   -1.0628   -2.1204   30.5774 O   0  0  0  0  0  0  0  0  0  0  0  0
   -3.0625   -3.4034   28.5526 C   0  0  2  0  0  0  0  0  0  0  0  0
   -2.8636   -2.6094   27.2360 C   0  0  0  0  0  0  0  0  0  0  0  0
   -4.5343   -1.0504   28.1898 C   0  0  0  0  0  0  0  0  0  0  0  0
   -3.7959   -1.5742   27.0374 N   0  0  0  0  0  0  0  0  0  0  0  0
   -4.2877   -4.2899   28.4564 C   0  0  0  0  0  0  0  0  0  0  0  0
   -4.1978   -5.4405   27.6007 N   0  0  0  0  0  0  0  0  0  0  0  0
   -6.7070   -5.6937   24.2367 C   0  0  0  0  0  0  0  0  0  0  0  0
   -5.5176   -6.4090   24.2582 C   0  0  0  0  0  0  0  0  0  0  0  0
   -4.6916   -6.3306   25.3729 C   0  0  0  0  0  0  0  0  0  0  0  0
   -5.0486   -5.5296   26.4557 C   0  0  0  0  0  0  0  0  0  0  0  0
   -6.2303   -4.8098   26.4253 C   0  0  0  0  0  0  0  0  0  0  0  0
   -7.0619   -4.8967   25.3153 C   0  0  0  0  0  0  0  0  0  0  0  0
  1  2  1  0  0  0  0
  2  3  2  0  0  0  0
  2 20  1  0  0  0  0
  4  6  1  0  0  0  0
  5  6  2  0  0  0  0
  5 16  1  0  0  0  0
  6  7  1  0  0  0  0
  7  8  1  0  0  0  0
  8  9  1  0  0  0  0
  8 10  2  0  0  0  0
  9 12  1  0  0  0  0
  9 16  2  0  0  0  0
 11 13  1  0  0  0  0
 11 12  1  0  0  0  0
 12 14  1  0  0  0  0
 14 15  1  0  0  0  0
 14 18  1  6  0  0  0
 15 17  1  0  0  0  0
 16 17  1  0  0  0  0
 18 19  1  0  0  0  0
 19 23  1  0  0  0  0
 20 21  2  0  0  0  0
 20 25  1  0  0  0  0
 21 22  1  0  0  0  0
 22 23  2  0  0  0  0
 23 24  1  0  0  0  0
 24 25  2  0  0  0  0
M  END
>  <CHROM.1>
-104.71143121,-166.76035840,-116.42865043,156.84291891,124.32675693,-5.03817969
-3.10994591,27.52934671,1.99063693,0.58598528,-2.45795880

>  <Name>
ligand

>  <RI>
0

>  <Rbt.Current_Directory>
/home/itssahil/PROJECTS/Mol_Feturizer/New_Systems/rnas/4LVV

>  <Rbt.Executable>
rbdock ($Id: //depot/dev/client3/rdock/2013.1/src/exe/rbdock.cxx#4 $)

>  <Rbt.Library>
libRbt.so (2013.1, Build901 2013/11/27)

>  <Rbt.Parameter_File>
/export/apps/rDock/src/rDock_2013.1_src/data/scripts/dock_solv.prm

>  <Rbt.Receptor>
prm/blind_docking_100.prm

>  <SCORE>
-13.5043

>  <SCORE.INTER>
-13.2853

>  <SCORE.INTER.CONST>
1

>  <SCORE.INTER.POLAR>
0

>  <SCORE.INTER.ROT>
5

>  <SCORE.INTER.SOLV>
10.5834

>  <SCORE.INTER.VDW>
-19.318

>  <SCORE.INTER.norm>
-0.531413

>  <SCORE.INTRA>
-0.218968

>  <SCORE.INTRA.DIHEDRAL>
1.01028

>  <SCORE.INTRA.DIHEDRAL.0>
3.94806

>  <SCORE.INTRA.POLAR>
0

>  <SCORE.INTRA.POLAR.0>
0

>  <SCORE.INTRA.REPUL>
0

>  <SCORE.INTRA.REPUL.0>
0

>  <SCORE.INTRA.SOLV>
-0.487191

>  <SCORE.INTRA.SOLV.lig_0>
-70.9803

>  <SCORE.INTRA.VDW>
-0.48051

>  <SCORE.INTRA.VDW.0>
-0.709409

>  <SCORE.INTRA.norm>
-0.00875871

>  <SCORE.RESTR>
0

>  <SCORE.RESTR.CAVITY>
0

>  <SCORE.RESTR.norm>
0

>  <SCORE.SYSTEM>
0

>  <SCORE.SYSTEM.CONST>
0

>  <SCORE.SYSTEM.DIHEDRAL>
0

>  <SCORE.SYSTEM.SOLV>
0

>  <SCORE.SYSTEM.norm>
0

>  <SCORE.heavy>
25

>  <SCORE.norm>
-0.540172

>  <RMSD>
21.725

$$$$
ligand
 OpenBabel11021811503D
libRbt.so/2013.1/901 2013/11/27
 25 27  0  0  0  0  0  0  0  0999 V2000
   -6.2541   -7.0650   22.5823 N   0  0  0  0  0  0  0  0  0  0  0  0
   -6.8790   -7.1550   23.8655 C   0  0  0  0  0  0  0  0  0  0  0  0
   -7.7700   -7.9695   24.0723 O   0  0  0  0  0  0  0  0  0  0  0  0
  -11.4448   -3.9843   26.0831 N   0  0  0  0  0  0  0  0  0  0  0  0
   -9.8945   -2.4264   27.0500 N   0  0  0  0  0  0  0  0  0  0  0  0
  -10.3796   -3.6879   26.9852 C   0  0  0  0  0  0  0  0  0  0  0  0
   -9.8737   -4.6809   27.7766 N   0  0  0  0  0  0  0  0  0  0  0  0
   -8.8653   -4.4569   28.6571 C   0  0  0  0  0  0  0  0  0  0  0  0
   -8.3206   -3.1534   28.7445 C   0  0  0  0  0  0  0  0  0  0  0  0
   -8.3902   -5.4994   29.4178 O   0  0  0  0  0  0  0  0  0  0  0  0
   -7.1445   -3.2615   31.0036 C   0  0  0  0  0  0  0  0  0  0  0  0
   -7.2584   -2.7591   29.6555 N   0  0  0  0  0  0  0  0  0  0  0  0
   -6.1615   -3.8703   31.4121 O   0  0  0  0  0  0  0  0  0  0  0  0
   -6.4009   -1.7638   29.1700 C   0  0  2  0  0  0  0  0  0  0  0  0
   -7.2256   -0.5050   28.7975 C   0  0  0  0  0  0  0  0  0  0  0  0
   -8.8789   -2.1262   27.9200 C   0  0  0  0  0  0  0  0  0  0  0  0
   -8.3407   -0.7644   27.9791 N   0  0  0  0  0  0  0  0  0  0  0  0
   -5.6223   -2.2614   27.9689 C   0  0  0  0  0  0  0  0  0  0  0  0
   -5.1768   -3.6270   27.9973 N   0  0  0  0  0  0  0  0  0  0  0  0
   -6.4145   -6.2502   24.9538 C   0  0  0  0  0  0  0  0  0  0  0  0
   -5.2117   -6.4801   25.6075 C   0  0  0  0  0  0  0  0  0  0  0  0
   -4.8061   -5.6169   26.6181 C   0  0  0  0  0  0  0  0  0  0  0  0
   -5.5946   -4.5212   26.9637 C   0  0  0  0  0  0  0  0  0  0  0  0
   -6.7878   -4.2900   26.3017 C   0  0  0  0  0  0  0  0  0  0  0  0
   -7.1993   -5.1594   25.2986 C   0  0  0  0  0  0  0  0  0  0  0  0
  1  2  1  0  0  0  0
  2  3  2  0  0  0  0
  2 20  1  0  0  0  0
  4  6  1  0  0  0  0
  5  6  2  0  0  0  0
  5 16  1  0  0  0  0
  6  7  1  0  0  0  0
  7  8  1  0  0  0  0
  8  9  1  0  0  0  0
  8 10  2  0  0  0  0
  9 12  1  0  0  0  0
  9 16  2  0  0  0  0
 11 13  1  0  0  0  0
 11 12  1  0  0  0  0
 12 14  1  0  0  0  0
 14 15  1  0  0  0  0
 14 18  1  6  0  0  0
 15 17  1  0  0  0  0
 16 17  1  0  0  0  0
 18 19  1  0  0  0  0
 19 23  1  0  0  0  0
 20 21  2  0  0  0  0
 20 25  1  0  0  0  0
 21 22  1  0  0  0  0
 22 23  2  0  0  0  0
 23 24  1  0  0  0  0
 24 25  2  0  0  0  0
M  END
>  <CHROM.1>
120.91102663,-38.08754084,121.48143836,153.01275223,-75.14821981,-7.47035785
-4.12508222,27.37902850,-1.44973565,-0.24638161,0.88724986

>  <Name>
ligand

>  <RI>
0

>  <Rbt.Current_Directory>
/home/itssahil/PROJECTS/Mol_Feturizer/New_Systems/rnas/4LVV

>  <Rbt.Executable>
rbdock ($Id: //depot/dev/client3/rdock/2013.1/src/exe/rbdock.cxx#4 $)

>  <Rbt.Library>
libRbt.so (2013.1, Build901 2013/11/27)

>  <Rbt.Parameter_File>
/export/apps/rDock/src/rDock_2013.1_src/data/scripts/dock_solv.prm

>  <Rbt.Receptor>
prm/blind_docking_80.prm

>  <SCORE>
-11.8533

>  <SCORE.INTER>
-11.0434

>  <SCORE.INTER.CONST>
1

>  <SCORE.INTER.POLAR>
0

>  <SCORE.INTER.ROT>
5

>  <SCORE.INTER.SOLV>
11.1322

>  <SCORE.INTER.VDW>
-18.0064

>  <SCORE.INTER.norm>
-0.441737

>  <SCORE.INTRA>
-0.809871

>  <SCORE.INTRA.DIHEDRAL>
2.06616

>  <SCORE.INTRA.DIHEDRAL.0>
3.94806

>  <SCORE.INTRA.POLAR>
0

>  <SCORE.INTRA.POLAR.0>
0

>  <SCORE.INTRA.REPUL>
0

>  <SCORE.INTRA.REPUL.0>
0

>  <SCORE.INTRA.SOLV>
1.1798

>  <SCORE.INTRA.SOLV.lig_0>
-70.9803

>  <SCORE.INTRA.VDW>
-2.43285

>  <SCORE.INTRA.VDW.0>
-0.709409

>  <SCORE.INTRA.norm>
-0.0323948

>  <SCORE.RESTR>
0

>  <SCORE.RESTR.CAVITY>
0

>  <SCORE.RESTR.norm>
0

>  <SCORE.SYSTEM>
0

>  <SCORE.SYSTEM.CONST>
0

>  <SCORE.SYSTEM.DIHEDRAL>
0

>  <SCORE.SYSTEM.SOLV>
0

>  <SCORE.SYSTEM.norm>
0

>  <SCORE.heavy>
25

>  <SCORE.norm>
-0.474132

>  <RMSD>
21.814

$$$$
ligand
 OpenBabel11021811503D
libRbt.so/2013.1/901 2013/11/27
 25 27  0  0  0  0  0  0  0  0999 V2000
   -8.9360   -6.1988   23.1462 N   0  0  0  0  0  0  0  0  0  0  0  0
   -7.5618   -5.8375   22.9838 C   0  0  0  0  0  0  0  0  0  0  0  0
   -7.1050   -5.5953   21.8735 O   0  0  0  0  0  0  0  0  0  0  0  0
   -7.1328    1.5356   28.2958 N   0  0  0  0  0  0  0  0  0  0  0  0
   -5.4223   -0.0274   27.6661 N   0  0  0  0  0  0  0  0  0  0  0  0
   -6.1790    0.5313   28.6388 C   0  0  0  0  0  0  0  0  0  0  0  0
   -6.0381    0.1573   29.9460 N   0  0  0  0  0  0  0  0  0  0  0  0
   -5.1436   -0.7877   30.3325 C   0  0  0  0  0  0  0  0  0  0  0  0
   -4.3430   -1.4064   29.3426 C   0  0  0  0  0  0  0  0  0  0  0  0
   -5.0564   -1.1304   31.6614 O   0  0  0  0  0  0  0  0  0  0  0  0
   -2.4673   -2.3833   30.7659 C   0  0  0  0  0  0  0  0  0  0  0  0
   -3.3286   -2.4133   29.6082 N   0  0  0  0  0  0  0  0  0  0  0  0
   -2.4133   -1.4318   31.5377 O   0  0  0  0  0  0  0  0  0  0  0  0
   -3.1654   -3.3704   28.5987 C   0  0  2  0  0  0  0  0  0  0  0  0
   -2.8215   -2.6621   27.2632 C   0  0  0  0  0  0  0  0  0  0  0  0
   -4.4949   -0.9853   27.9838 C   0  0  0  0  0  0  0  0  0  0  0  0
   -3.6866   -1.6037   26.9293 N   0  0  0  0  0  0  0  0  0  0  0  0
   -4.4166   -4.2113   28.4452 C   0  0  0  0  0  0  0  0  0  0  0  0
   -4.3143   -5.3964   27.6395 N   0  0  0  0  0  0  0  0  0  0  0  0
   -6.6977   -5.7439   24.1935 C   0  0  0  0  0  0  0  0  0  0  0  0
   -5.5128   -6.4617   24.2808 C   0  0  0  0  0  0  0  0  0  0  0  0
   -4.7285   -6.3520   25.4226 C   0  0  0  0  0  0  0  0  0  0  0  0
   -5.1223   -5.5176   26.4668 C   0  0  0  0  0  0  0  0  0  0  0  0
   -6.2991   -4.7957   26.3708 C   0  0  0  0  0  0  0  0  0  0  0  0
   -7.0893   -4.9136   25.2337 C   0  0  0  0  0  0  0  0  0  0  0  0
  1  2  1  0  0  0  0
  2  3  2  0  0  0  0
  2 20  1  0  0  0  0
  4  6  1  0  0  0  0
  5  6  2  0  0  0  0
  5 16  1  0  0  0  0
  6  7  1  0  0  0  0
  7  8  1  0  0  0  0
  8  9  1  0  0  0  0
  8 10  2  0  0  0  0
  9 12  1  0  0  0  0
  9 16  2  0  0  0  0
 11 13  1  0  0  0  0
 11 12  1  0  0  0  0
 12 14  1  0  0  0  0
 14 15  1  0  0  0  0
 14 18  1  6  0  0  0
 15 17  1  0  0  0  0
 16 17  1  0  0  0  0
 18 19  1  0  0  0  0
 19 23  1  0  0  0  0
 20 21  2  0  0  0  0
 20 25  1  0  0  0  0
 21 22  1  0  0  0  0
 22 23  2  0  0  0  0
 23 24  1  0  0  0  0
 24 25  2  0  0  0  0
M  END
>  <CHROM.1>
-8.64164328,-168.09713569,-118.79049783,155.90984107,125.36582099,-5.14177143
-3.02247214,27.45897128,1.98567266,0.71456197,-2.52553826

>  <Name>
ligand

>  <RI>
0

>  <Rbt.Current_Directory>
/home/itssahil/PROJECTS/Mol_Feturizer/New_Systems/rnas/4LVV

>  <Rbt.Executable>
rbdock ($Id: //depot/dev/client3/rdock/2013.1/src/exe/rbdock.cxx#4 $)

>  <Rbt.Library>
libRbt.so (2013.1, Build901 2013/11/27)

>  <Rbt.Parameter_File>
/export/apps/rDock/src/rDock_2013.1_src/data/scripts/dock_solv.prm

>  <Rbt.Receptor>
prm/blind_docking_100.prm

>  <SCORE>
-12.6117

>  <SCORE.INTER>
-12.7451

>  <SCORE.INTER.CONST>
1

>  <SCORE.INTER.POLAR>
0

>  <SCORE.INTER.ROT>
5

>  <SCORE.INTER.SOLV>
11.3108

>  <SCORE.INTER.VDW>
-19.2003

>  <SCORE.INTER.norm>
-0.509803

>  <SCORE.INTRA>
0.133373

>  <SCORE.INTRA.DIHEDRAL>
1.09843

>  <SCORE.INTRA.DIHEDRAL.0>
3.94806

>  <SCORE.INTRA.POLAR>
0

>  <SCORE.INTRA.POLAR.0>
0

>  <SCORE.INTRA.REPUL>
0

>  <SCORE.INTRA.REPUL.0>
0

>  <SCORE.INTRA.SOLV>
-0.161161

>  <SCORE.INTRA.SOLV.lig_0>
-70.9803

>  <SCORE.INTRA.VDW>
-0.335262

>  <SCORE.INTRA.VDW.0>
-0.709409

>  <SCORE.INTRA.norm>
0.00533492

>  <SCORE.RESTR>
0

>  <SCORE.RESTR.CAVITY>
0

>  <SCORE.RESTR.norm>
0

>  <SCORE.SYSTEM>
0

>  <SCORE.SYSTEM.CONST>
0

>  <SCORE.SYSTEM.DIHEDRAL>
0

>  <SCORE.SYSTEM.SOLV>
0

>  <SCORE.SYSTEM.norm>
0

>  <SCORE.heavy>
25

>  <SCORE.norm>
-0.504468

>  <RMSD>
21.823

$$$$
ligand
 OpenBabel11021811503D
libRbt.so/2013.1/901 2013/11/27
 25 27  0  0  0  0  0  0  0  0999 V2000
    2.6043   -3.9193   15.8005 N   0  0  0  0  0  0  0  0  0  0  0  0
    1.8816   -4.9152   15.0716 C   0  0  0  0  0  0  0  0  0  0  0  0
    2.4464   -5.6171   14.2419 O   0  0  0  0  0  0  0  0  0  0  0  0
   -6.3091   -7.5961    9.2498 N   0  0  0  0  0  0  0  0  0  0  0  0
   -4.9103   -6.3016   10.7101 N   0  0  0  0  0  0  0  0  0  0  0  0
   -6.1537   -6.6698   10.3239 C   0  0  0  0  0  0  0  0  0  0  0  0
   -7.2639   -6.1616   10.9385 N   0  0  0  0  0  0  0  0  0  0  0  0
   -7.1780   -5.2730   11.9610 C   0  0  0  0  0  0  0  0  0  0  0  0
   -5.8943   -4.8736   12.4041 C   0  0  0  0  0  0  0  0  0  0  0  0
   -8.3309   -4.8063   12.5475 O   0  0  0  0  0  0  0  0  0  0  0  0
   -6.4552   -2.7366   13.6758 C   0  0  0  0  0  0  0  0  0  0  0  0
   -5.6470   -3.9140   13.4679 N   0  0  0  0  0  0  0  0  0  0  0  0
   -7.5265   -2.7548   14.2722 O   0  0  0  0  0  0  0  0  0  0  0  0
   -4.4921   -4.1524   14.2237 C   0  0  2  0  0  0  0  0  0  0  0  0
   -3.2566   -4.1825   13.2876 C   0  0  0  0  0  0  0  0  0  0  0  0
   -4.7475   -5.4043   11.7333 C   0  0  0  0  0  0  0  0  0  0  0  0
   -3.4013   -5.0176   12.1642 N   0  0  0  0  0  0  0  0  0  0  0  0
   -4.6079   -5.4547   14.9897 C   0  0  0  0  0  0  0  0  0  0  0  0
   -3.6744   -5.6699   16.0604 N   0  0  0  0  0  0  0  0  0  0  0  0
    0.4300   -5.0962   15.3522 C   0  0  0  0  0  0  0  0  0  0  0  0
   -0.2285   -4.2777   16.2596 C   0  0  0  0  0  0  0  0  0  0  0  0
   -1.5835   -4.4718   16.4987 C   0  0  0  0  0  0  0  0  0  0  0  0
   -2.2790   -5.4724   15.8227 C   0  0  0  0  0  0  0  0  0  0  0  0
   -1.6206   -6.2790   14.9110 C   0  0  0  0  0  0  0  0  0  0  0  0
   -0.2630   -6.0924   14.6799 C   0  0  0  0  0  0  0  0  0  0  0  0
  1  2  1  0  0  0  0
  2  3  2  0  0  0  0
  2 20  1  0  0  0  0
  4  6  1  0  0  0  0
  5  6  2  0  0  0  0
  5 16  1  0  0  0  0
  6  7  1  0  0  0  0
  7  8  1  0  0  0  0
  8  9  1  0  0  0  0
  8 10  2  0  0  0  0
  9 12  1  0  0  0  0
  9 16  2  0  0  0  0
 11 13  1  0  0  0  0
 11 12  1  0  0  0  0
 12 14  1  0  0  0  0
 14 15  1  0  0  0  0
 14 18  1  6  0  0  0
 15 17  1  0  0  0  0
 16 17  1  0  0  0  0
 18 19  1  0  0  0  0
 19 23  1  0  0  0  0
 20 21  2  0  0  0  0
 20 25  1  0  0  0  0
 21 22  1  0  0  0  0
 22 23  2  0  0  0  0
 23 24  1  0  0  0  0
 24 25  2  0  0  0  0
M  END
>  <CHROM.1>
81.55608256,-164.39646399,-49.82008654,116.06886175,2.83017353,-3.62014083
-5.05723004,13.59455677,-0.38363279,0.22004277,-2.14086922

>  <Name>
ligand

>  <RI>
0

>  <Rbt.Current_Directory>
/home/itssahil/PROJECTS/Mol_Feturizer/New_Systems/rnas/4LVV

>  <Rbt.Executable>
rbdock ($Id: //depot/dev/client3/rdock/2013.1/src/exe/rbdock.cxx#4 $)

>  <Rbt.Library>
libRbt.so (2013.1, Build901 2013/11/27)

>  <Rbt.Parameter_File>
/export/apps/rDock/src/rDock_2013.1_src/data/scripts/dock_solv.prm

>  <Rbt.Receptor>
prm/blind_docking_20.prm

>  <SCORE>
-4.87597

>  <SCORE.INTER>
-4.34053

>  <SCORE.INTER.CONST>
1

>  <SCORE.INTER.POLAR>
0

>  <SCORE.INTER.ROT>
5

>  <SCORE.INTER.SOLV>
16.8965

>  <SCORE.INTER.VDW>
-15.4592

>  <SCORE.INTER.norm>
-0.173621

>  <SCORE.INTRA>
-0.535436

>  <SCORE.INTRA.DIHEDRAL>
0.367073

>  <SCORE.INTRA.DIHEDRAL.0>
3.94806

>  <SCORE.INTRA.POLAR>
0

>  <SCORE.INTRA.POLAR.0>
0

>  <SCORE.INTRA.REPUL>
0

>  <SCORE.INTRA.REPUL.0>
0

>  <SCORE.INTRA.SOLV>
0.0466091

>  <SCORE.INTRA.SOLV.lig_0>
-70.9803

>  <SCORE.INTRA.VDW>
-0.742277

>  <SCORE.INTRA.VDW.0>
-0.709409

>  <SCORE.INTRA.norm>
-0.0214174

>  <SCORE.RESTR>
0

>  <SCORE.RESTR.CAVITY>
0

>  <SCORE.RESTR.norm>
0

>  <SCORE.SYSTEM>
0

>  <SCORE.SYSTEM.CONST>
0

>  <SCORE.SYSTEM.DIHEDRAL>
0

>  <SCORE.SYSTEM.SOLV>
0

>  <SCORE.SYSTEM.norm>
0

>  <SCORE.heavy>
25

>  <SCORE.norm>
-0.195039

>  <RMSD>
21.876

$$$$
ligand
 OpenBabel11021811503D
libRbt.so/2013.1/901 2013/11/27
 25 27  0  0  0  0  0  0  0  0999 V2000
   -8.8119   -6.1922   23.1726 N   0  0  0  0  0  0  0  0  0  0  0  0
   -7.4276   -5.8486   23.0678 C   0  0  0  0  0  0  0  0  0  0  0  0
   -6.9121   -5.6525   21.9742 O   0  0  0  0  0  0  0  0  0  0  0  0
   -7.2393    1.5994   27.5105 N   0  0  0  0  0  0  0  0  0  0  0  0
   -5.4667   -0.0056   27.2931 N   0  0  0  0  0  0  0  0  0  0  0  0
   -6.3461    0.6478   28.0873 C   0  0  0  0  0  0  0  0  0  0  0  0
   -6.3864    0.4193   29.4343 N   0  0  0  0  0  0  0  0  0  0  0  0
   -5.5576   -0.4692   30.0394 C   0  0  0  0  0  0  0  0  0  0  0  0
   -4.6328   -1.1837   29.2408 C   0  0  0  0  0  0  0  0  0  0  0  0
   -5.6539   -0.6647   31.3971 O   0  0  0  0  0  0  0  0  0  0  0  0
   -2.9734   -1.9817   31.0038 C   0  0  0  0  0  0  0  0  0  0  0  0
   -3.6690   -2.1457   29.7500 N   0  0  0  0  0  0  0  0  0  0  0  0
   -2.8888   -2.8695   31.8455 O   0  0  0  0  0  0  0  0  0  0  0  0
   -3.3746   -3.2050   28.8823 C   0  0  2  0  0  0  0  0  0  0  0  0
   -2.8484   -2.6425   27.5368 C   0  0  0  0  0  0  0  0  0  0  0  0
   -4.5961   -0.9141   27.8363 C   0  0  0  0  0  0  0  0  0  0  0  0
   -3.6548   -1.6352   26.9752 N   0  0  0  0  0  0  0  0  0  0  0  0
   -4.5974   -4.0700   28.6525 C   0  0  0  0  0  0  0  0  0  0  0  0
   -4.4200   -5.2591   27.8660 N   0  0  0  0  0  0  0  0  0  0  0  0
   -6.6257   -5.7163   24.3160 C   0  0  0  0  0  0  0  0  0  0  0  0
   -5.4403   -6.4197   24.4801 C   0  0  0  0  0  0  0  0  0  0  0  0
   -4.7148   -6.2737   25.6563 C   0  0  0  0  0  0  0  0  0  0  0  0
   -5.1674   -5.4176   26.6582 C   0  0  0  0  0  0  0  0  0  0  0  0
   -6.3444   -4.7102   26.4856 C   0  0  0  0  0  0  0  0  0  0  0  0
   -7.0759   -4.8643   25.3142 C   0  0  0  0  0  0  0  0  0  0  0  0
  1  2  1  0  0  0  0
  2  3  2  0  0  0  0
  2 20  1  0  0  0  0
  4  6  1  0  0  0  0
  5  6  2  0  0  0  0
  5 16  1  0  0  0  0
  6  7  1  0  0  0  0
  7  8  1  0  0  0  0
  8  9  1  0  0  0  0
  8 10  2  0  0  0  0
  9 12  1  0  0  0  0
  9 16  2  0  0  0  0
 11 13  1  0  0  0  0
 11 12  1  0  0  0  0
 12 14  1  0  0  0  0
 14 15  1  0  0  0  0
 14 18  1  6  0  0  0
 15 17  1  0  0  0  0
 16 17  1  0  0  0  0
 18 19  1  0  0  0  0
 19 23  1  0  0  0  0
 20 21  2  0  0  0  0
 20 25  1  0  0  0  0
 21 22  1  0  0  0  0
 22 23  2  0  0  0  0
 23 24  1  0  0  0  0
 24 25  2  0  0  0  0
M  END
>  <CHROM.1>
131.63497128,-175.18105265,-120.18760107,157.43895083,126.65801528,-5.28267560
-2.97151285,27.45311064,1.98652267,0.84084632,-2.57326524

>  <Name>
ligand

>  <RI>
0

>  <Rbt.Current_Directory>
/home/itssahil/PROJECTS/Mol_Feturizer/New_Systems/rnas/4LVV

>  <Rbt.Executable>
rbdock ($Id: //depot/dev/client3/rdock/2013.1/src/exe/rbdock.cxx#4 $)

>  <Rbt.Library>
libRbt.so (2013.1, Build901 2013/11/27)

>  <Rbt.Parameter_File>
/export/apps/rDock/src/rDock_2013.1_src/data/scripts/dock_solv.prm

>  <Rbt.Receptor>
prm/blind_docking_100.prm

>  <SCORE>
-12.9184

>  <SCORE.INTER>
-12.6728

>  <SCORE.INTER.CONST>
1

>  <SCORE.INTER.POLAR>
0

>  <SCORE.INTER.ROT>
5

>  <SCORE.INTER.SOLV>
11.1978

>  <SCORE.INTER.VDW>
-19.1145

>  <SCORE.INTER.norm>
-0.506912

>  <SCORE.INTRA>
-0.245558

>  <SCORE.INTRA.DIHEDRAL>
0.515626

>  <SCORE.INTRA.DIHEDRAL.0>
3.94806

>  <SCORE.INTRA.POLAR>
0

>  <SCORE.INTRA.POLAR.0>
0

>  <SCORE.INTRA.REPUL>
0

>  <SCORE.INTRA.REPUL.0>
0

>  <SCORE.INTRA.SOLV>
-0.216767

>  <SCORE.INTRA.SOLV.lig_0>
-70.9803

>  <SCORE.INTRA.VDW>
-0.394988

>  <SCORE.INTRA.VDW.0>
-0.709409

>  <SCORE.INTRA.norm>
-0.00982233

>  <SCORE.RESTR>
0

>  <SCORE.RESTR.CAVITY>
0

>  <SCORE.RESTR.norm>
0

>  <SCORE.SYSTEM>
0

>  <SCORE.SYSTEM.CONST>
0

>  <SCORE.SYSTEM.DIHEDRAL>
0

>  <SCORE.SYSTEM.SOLV>
0

>  <SCORE.SYSTEM.norm>
0

>  <SCORE.heavy>
25

>  <SCORE.norm>
-0.516735

>  <RMSD>
21.914

$$$$
ligand
 OpenBabel11021811503D
libRbt.so/2013.1/901 2013/11/27
 25 27  0  0  0  0  0  0  0  0999 V2000
   -7.6866   -8.0130   19.9396 N   0  0  0  0  0  0  0  0  0  0  0  0
   -8.3747   -7.1286   20.8283 C   0  0  0  0  0  0  0  0  0  0  0  0
   -9.5013   -6.7273   20.5643 O   0  0  0  0  0  0  0  0  0  0  0  0
   -7.3134    1.5798   27.2259 N   0  0  0  0  0  0  0  0  0  0  0  0
   -6.0185   -0.4304   27.4441 N   0  0  0  0  0  0  0  0  0  0  0  0
   -7.1964    0.2126   27.6173 C   0  0  0  0  0  0  0  0  0  0  0  0
   -8.2732   -0.4223   28.1703 N   0  0  0  0  0  0  0  0  0  0  0  0
   -8.2193   -1.7193   28.5668 C   0  0  0  0  0  0  0  0  0  0  0  0
   -7.0088   -2.4312   28.3893 C   0  0  0  0  0  0  0  0  0  0  0  0
   -9.3397   -2.3070   29.1056 O   0  0  0  0  0  0  0  0  0  0  0  0
   -7.3466   -4.3847   29.9918 C   0  0  0  0  0  0  0  0  0  0  0  0
   -6.7948   -3.8131   28.7870 N   0  0  0  0  0  0  0  0  0  0  0  0
   -6.7740   -4.3476   31.0756 O   0  0  0  0  0  0  0  0  0  0  0  0
   -5.9171   -4.5357   27.9689 C   0  0  2  0  0  0  0  0  0  0  0  0
   -4.5443   -3.8171   27.9189 C   0  0  0  0  0  0  0  0  0  0  0  0
   -5.8898   -1.7405   27.8258 C   0  0  0  0  0  0  0  0  0  0  0  0
   -4.6200   -2.4434   27.6230 N   0  0  0  0  0  0  0  0  0  0  0  0
   -6.4851   -4.6902   26.5725 C   0  0  0  0  0  0  0  0  0  0  0  0
   -5.8435   -5.6398   25.7061 N   0  0  0  0  0  0  0  0  0  0  0  0
   -7.7024   -6.7167   22.0921 C   0  0  0  0  0  0  0  0  0  0  0  0
   -7.1781   -5.4397   22.2375 C   0  0  0  0  0  0  0  0  0  0  0  0
   -6.5576   -5.0860   23.4295 C   0  0  0  0  0  0  0  0  0  0  0  0
   -6.4741   -6.0025   24.4758 C   0  0  0  0  0  0  0  0  0  0  0  0
   -7.0078   -7.2711   24.3301 C   0  0  0  0  0  0  0  0  0  0  0  0
   -7.6185   -7.6287   23.1341 C   0  0  0  0  0  0  0  0  0  0  0  0
  1  2  1  0  0  0  0
  2  3  2  0  0  0  0
  2 20  1  0  0  0  0
  4  6  1  0  0  0  0
  5  6  2  0  0  0  0
  5 16  1  0  0  0  0
  6  7  1  0  0  0  0
  7  8  1  0  0  0  0
  8  9  1  0  0  0  0
  8 10  2  0  0  0  0
  9 12  1  0  0  0  0
  9 16  2  0  0  0  0
 11 13  1  0  0  0  0
 11 12  1  0  0  0  0
 12 14  1  0  0  0  0
 14 15  1  0  0  0  0
 14 18  1  6  0  0  0
 15 17  1  0  0  0  0
 16 17  1  0  0  0  0
 18 19  1  0  0  0  0
 19 23  1  0  0  0  0
 20 21  2  0  0  0  0
 20 25  1  0  0  0  0
 21 22  1  0  0  0  0
 22 23  2  0  0  0  0
 23 24  1  0  0  0  0
 24 25  2  0  0  0  0
M  END
>  <CHROM.1>
-88.48802826,-167.11822181,168.78351552,70.06418081,105.82320987,-7.04613609
-4.00475270,26.13214454,1.89153193,1.26113598,-2.51801887

>  <Name>
ligand

>  <RI>
0

>  <Rbt.Current_Directory>
/home/itssahil/PROJECTS/Mol_Feturizer/New_Systems/rnas/4LVV

>  <Rbt.Executable>
rbdock ($Id: //depot/dev/client3/rdock/2013.1/src/exe/rbdock.cxx#4 $)

>  <Rbt.Library>
libRbt.so (2013.1, Build901 2013/11/27)

>  <Rbt.Parameter_File>
/export/apps/rDock/src/rDock_2013.1_src/data/scripts/dock_solv.prm

>  <Rbt.Receptor>
prm/blind_docking_80.prm

>  <SCORE>
-10.4366

>  <SCORE.INTER>
-9.15489

>  <SCORE.INTER.CONST>
1

>  <SCORE.INTER.POLAR>
0

>  <SCORE.INTER.ROT>
5

>  <SCORE.INTER.SOLV>
11.0454

>  <SCORE.INTER.VDW>
-16.7184

>  <SCORE.INTER.norm>
-0.366196

>  <SCORE.INTRA>
-1.28174

>  <SCORE.INTRA.DIHEDRAL>
-0.152795

>  <SCORE.INTRA.DIHEDRAL.0>
3.94806

>  <SCORE.INTRA.POLAR>
0

>  <SCORE.INTRA.POLAR.0>
0

>  <SCORE.INTRA.REPUL>
0

>  <SCORE.INTRA.REPUL.0>
0

>  <SCORE.INTRA.SOLV>
-0.481058

>  <SCORE.INTRA.SOLV.lig_0>
-70.9803

>  <SCORE.INTRA.VDW>
-0.964813

>  <SCORE.INTRA.VDW.0>
-0.709409

>  <SCORE.INTRA.norm>
-0.0512696

>  <SCORE.RESTR>
0

>  <SCORE.RESTR.CAVITY>
0

>  <SCORE.RESTR.norm>
0

>  <SCORE.SYSTEM>
0

>  <SCORE.SYSTEM.CONST>
0

>  <SCORE.SYSTEM.DIHEDRAL>
0

>  <SCORE.SYSTEM.SOLV>
0

>  <SCORE.SYSTEM.norm>
0

>  <SCORE.heavy>
25

>  <SCORE.norm>
-0.417465

>  <RMSD>
21.930

$$$$
ligand
 OpenBabel11021811503D
libRbt.so/2013.1/901 2013/11/27
 25 27  0  0  0  0  0  0  0  0999 V2000
   -8.4811   -5.8828   22.5547 N   0  0  0  0  0  0  0  0  0  0  0  0
   -8.2002   -6.7884   23.6253 C   0  0  0  0  0  0  0  0  0  0  0  0
   -8.7592   -7.8764   23.6881 O   0  0  0  0  0  0  0  0  0  0  0  0
   -7.2961    1.7597   27.3962 N   0  0  0  0  0  0  0  0  0  0  0  0
   -5.5083    0.1793   27.1290 N   0  0  0  0  0  0  0  0  0  0  0  0
   -6.4093    0.7822   27.9386 C   0  0  0  0  0  0  0  0  0  0  0  0
   -6.4777    0.4784   29.2696 N   0  0  0  0  0  0  0  0  0  0  0  0
   -5.6563   -0.4381   29.8423 C   0  0  0  0  0  0  0  0  0  0  0  0
   -4.7093   -1.1015   29.0258 C   0  0  0  0  0  0  0  0  0  0  0  0
   -5.7810   -0.7099   31.1845 O   0  0  0  0  0  0  0  0  0  0  0  0
   -3.0836   -1.9879   30.7779 C   0  0  0  0  0  0  0  0  0  0  0  0
   -3.7504   -2.0852   29.5017 N   0  0  0  0  0  0  0  0  0  0  0  0
   -2.8144   -2.9634   31.4705 O   0  0  0  0  0  0  0  0  0  0  0  0
   -3.4298   -3.0925   28.5829 C   0  0  2  0  0  0  0  0  0  0  0  0
   -2.8781   -2.4525   27.2830 C   0  0  0  0  0  0  0  0  0  0  0  0
   -4.6437   -0.7533   27.6397 C   0  0  0  0  0  0  0  0  0  0  0  0
   -3.6788   -1.4198   26.7608 N   0  0  0  0  0  0  0  0  0  0  0  0
   -4.6415   -3.9500   28.2780 C   0  0  0  0  0  0  0  0  0  0  0  0
   -4.4140   -5.1727   27.5586 N   0  0  0  0  0  0  0  0  0  0  0  0
   -7.2006   -6.3917   24.6559 C   0  0  0  0  0  0  0  0  0  0  0  0
   -6.1709   -7.2491   25.0181 C   0  0  0  0  0  0  0  0  0  0  0  0
   -5.2539   -6.8489   25.9824 C   0  0  0  0  0  0  0  0  0  0  0  0
   -5.3598   -5.5908   26.5720 C   0  0  0  0  0  0  0  0  0  0  0  0
   -6.3819   -4.7350   26.1999 C   0  0  0  0  0  0  0  0  0  0  0  0
   -7.3057   -5.1393   25.2436 C   0  0  0  0  0  0  0  0  0  0  0  0
  1  2  1  0  0  0  0
  2  3  2  0  0  0  0
  2 20  1  0  0  0  0
  4  6  1  0  0  0  0
  5  6  2  0  0  0  0
  5 16  1  0  0  0  0
  6  7  1  0  0  0  0
  7  8  1  0  0  0  0
  8  9  1  0  0  0  0
  8 10  2  0  0  0  0
  9 12  1  0  0  0  0
  9 16  2  0  0  0  0
 11 13  1  0  0  0  0
 11 12  1  0  0  0  0
 12 14  1  0  0  0  0
 14 15  1  0  0  0  0
 14 18  1  6  0  0  0
 15 17  1  0  0  0  0
 16 17  1  0  0  0  0
 18 19  1  0  0  0  0
 19 23  1  0  0  0  0
 20 21  2  0  0  0  0
 20 25  1  0  0  0  0
 21 22  1  0  0  0  0
 22 23  2  0  0  0  0
 23 24  1  0  0  0  0
 24 25  2  0  0  0  0
M  END
>  <CHROM.1>
144.21719872,-168.30229791,-141.85689219,-171.86431449,-130.16005843,-5.50323032
-3.13370485,27.40282202,2.03773900,0.77108398,-2.76509585

>  <Name>
ligand

>  <RI>
0

>  <Rbt.Current_Directory>
/home/itssahil/PROJECTS/Mol_Feturizer/New_Systems/rnas/4LVV

>  <Rbt.Executable>
rbdock ($Id: //depot/dev/client3/rdock/2013.1/src/exe/rbdock.cxx#4 $)

>  <Rbt.Library>
libRbt.so (2013.1, Build901 2013/11/27)

>  <Rbt.Parameter_File>
/export/apps/rDock/src/rDock_2013.1_src/data/scripts/dock_solv.prm

>  <Rbt.Receptor>
prm/blind_docking_80.prm

>  <SCORE>
-13.0544

>  <SCORE.INTER>
-13.1822

>  <SCORE.INTER.CONST>
1

>  <SCORE.INTER.POLAR>
0

>  <SCORE.INTER.ROT>
5

>  <SCORE.INTER.SOLV>
12.9438

>  <SCORE.INTER.VDW>
-20.0361

>  <SCORE.INTER.norm>
-0.527289

>  <SCORE.INTRA>
0.127782

>  <SCORE.INTRA.DIHEDRAL>
0.507652

>  <SCORE.INTRA.DIHEDRAL.0>
3.94806

>  <SCORE.INTRA.POLAR>
0

>  <SCORE.INTRA.POLAR.0>
0

>  <SCORE.INTRA.REPUL>
0

>  <SCORE.INTRA.REPUL.0>
0

>  <SCORE.INTRA.SOLV>
-0.360282

>  <SCORE.INTRA.SOLV.lig_0>
-70.9803

>  <SCORE.INTRA.VDW>
0.0540969

>  <SCORE.INTRA.VDW.0>
-0.709409

>  <SCORE.INTRA.norm>
0.00511128

>  <SCORE.RESTR>
0

>  <SCORE.RESTR.CAVITY>
0

>  <SCORE.RESTR.norm>
0

>  <SCORE.SYSTEM>
0

>  <SCORE.SYSTEM.CONST>
0

>  <SCORE.SYSTEM.DIHEDRAL>
0

>  <SCORE.SYSTEM.SOLV>
0

>  <SCORE.SYSTEM.norm>
0

>  <SCORE.heavy>
25

>  <SCORE.norm>
-0.522178

>  <RMSD>
21.933

$$$$
ligand
 OpenBabel11021811503D
libRbt.so/2013.1/901 2013/11/27
 25 27  0  0  0  0  0  0  0  0999 V2000
   -8.8301   -6.0846   22.5652 N   0  0  0  0  0  0  0  0  0  0  0  0
   -8.3584   -6.9936   23.5635 C   0  0  0  0  0  0  0  0  0  0  0  0
   -8.7907   -8.1381   23.6227 O   0  0  0  0  0  0  0  0  0  0  0  0
   -7.3118    1.7885   27.3101 N   0  0  0  0  0  0  0  0  0  0  0  0
   -5.4972    0.2313   27.0912 N   0  0  0  0  0  0  0  0  0  0  0  0
   -6.4692    0.7761   27.8589 C   0  0  0  0  0  0  0  0  0  0  0  0
   -6.6511    0.3804   29.1546 N   0  0  0  0  0  0  0  0  0  0  0  0
   -5.8767   -0.5732   29.7320 C   0  0  0  0  0  0  0  0  0  0  0  0
   -4.8579   -1.1779   28.9573 C   0  0  0  0  0  0  0  0  0  0  0  0
   -6.1160   -0.9378   31.0362 O   0  0  0  0  0  0  0  0  0  0  0  0
   -3.3851   -2.1831   30.7791 C   0  0  0  0  0  0  0  0  0  0  0  0
   -3.9377   -2.1918   29.4459 N   0  0  0  0  0  0  0  0  0  0  0  0
   -2.2505   -1.7929   31.0327 O   0  0  0  0  0  0  0  0  0  0  0  0
   -3.5318   -3.1327   28.4910 C   0  0  2  0  0  0  0  0  0  0  0  0
   -2.8732   -2.4036   27.2917 C   0  0  0  0  0  0  0  0  0  0  0  0
   -4.6742   -0.7342   27.6097 C   0  0  0  0  0  0  0  0  0  0  0  0
   -3.6322   -1.3375   26.7743 N   0  0  0  0  0  0  0  0  0  0  0  0
   -4.7066   -3.9675   28.0229 C   0  0  0  0  0  0  0  0  0  0  0  0
   -4.4117   -5.1167   27.2128 N   0  0  0  0  0  0  0  0  0  0  0  0
   -7.3171   -6.5284   24.5216 C   0  0  0  0  0  0  0  0  0  0  0  0
   -6.2861   -7.3691   24.9180 C   0  0  0  0  0  0  0  0  0  0  0  0
   -5.3297   -6.9046   25.8127 C   0  0  0  0  0  0  0  0  0  0  0  0
   -5.3980   -5.6003   26.2983 C   0  0  0  0  0  0  0  0  0  0  0  0
   -6.4217   -4.7624   25.8920 C   0  0  0  0  0  0  0  0  0  0  0  0
   -7.3847   -5.2301   25.0058 C   0  0  0  0  0  0  0  0  0  0  0  0
  1  2  1  0  0  0  0
  2  3  2  0  0  0  0
  2 20  1  0  0  0  0
  4  6  1  0  0  0  0
  5  6  2  0  0  0  0
  5 16  1  0  0  0  0
  6  7  1  0  0  0  0
  7  8  1  0  0  0  0
  8  9  1  0  0  0  0
  8 10  2  0  0  0  0
  9 12  1  0  0  0  0
  9 16  2  0  0  0  0
 11 13  1  0  0  0  0
 11 12  1  0  0  0  0
 12 14  1  0  0  0  0
 14 15  1  0  0  0  0
 14 18  1  6  0  0  0
 15 17  1  0  0  0  0
 16 17  1  0  0  0  0
 18 19  1  0  0  0  0
 19 23  1  0  0  0  0
 20 21  2  0  0  0  0
 20 25  1  0  0  0  0
 21 22  1  0  0  0  0
 22 23  2  0  0  0  0
 23 24  1  0  0  0  0
 24 25  2  0  0  0  0
M  END
>  <CHROM.1>
-100.95974614,-169.94853057,-153.71740931,-160.19265809,-140.69941474,-5.57993324
-3.14775246,27.27499937,2.01405779,0.68510148,-2.73833427

>  <Name>
ligand

>  <RI>
0

>  <Rbt.Current_Directory>
/home/itssahil/PROJECTS/Mol_Feturizer/New_Systems/rnas/4LVV

>  <Rbt.Executable>
rbdock ($Id: //depot/dev/client3/rdock/2013.1/src/exe/rbdock.cxx#4 $)

>  <Rbt.Library>
libRbt.so (2013.1, Build901 2013/11/27)

>  <Rbt.Parameter_File>
/export/apps/rDock/src/rDock_2013.1_src/data/scripts/dock_solv.prm

>  <Rbt.Receptor>
prm/blind_docking_60.prm

>  <SCORE>
-13.2165

>  <SCORE.INTER>
-12.9167

>  <SCORE.INTER.CONST>
1

>  <SCORE.INTER.POLAR>
0

>  <SCORE.INTER.ROT>
5

>  <SCORE.INTER.SOLV>
14.1968

>  <SCORE.INTER.VDW>
-20.2767

>  <SCORE.INTER.norm>
-0.516668

>  <SCORE.INTRA>
-0.299806

>  <SCORE.INTRA.DIHEDRAL>
0.0533308

>  <SCORE.INTRA.DIHEDRAL.0>
3.94806

>  <SCORE.INTRA.POLAR>
0

>  <SCORE.INTRA.POLAR.0>
0

>  <SCORE.INTRA.REPUL>
0

>  <SCORE.INTRA.REPUL.0>
0

>  <SCORE.INTRA.SOLV>
-0.434513

>  <SCORE.INTRA.SOLV.lig_0>
-70.9803

>  <SCORE.INTRA.VDW>
-0.109215

>  <SCORE.INTRA.VDW.0>
-0.709409

>  <SCORE.INTRA.norm>
-0.0119923

>  <SCORE.RESTR>
0

>  <SCORE.RESTR.CAVITY>
0

>  <SCORE.RESTR.norm>
0

>  <SCORE.SYSTEM>
0

>  <SCORE.SYSTEM.CONST>
0

>  <SCORE.SYSTEM.DIHEDRAL>
0

>  <SCORE.SYSTEM.SOLV>
0

>  <SCORE.SYSTEM.norm>
0

>  <SCORE.heavy>
25

>  <SCORE.norm>
-0.52866

>  <RMSD>
21.948

$$$$
ligand
 OpenBabel11021811503D
libRbt.so/2013.1/901 2013/11/27
 25 27  0  0  0  0  0  0  0  0999 V2000
   -8.7073   -5.9990   22.5510 N   0  0  0  0  0  0  0  0  0  0  0  0
   -8.3287   -6.8989   23.5961 C   0  0  0  0  0  0  0  0  0  0  0  0
   -8.8288   -8.0142   23.6737 O   0  0  0  0  0  0  0  0  0  0  0  0
   -7.2969    1.8011   27.3486 N   0  0  0  0  0  0  0  0  0  0  0  0
   -5.4953    0.2297   27.1242 N   0  0  0  0  0  0  0  0  0  0  0  0
   -6.4473    0.7964   27.9009 C   0  0  0  0  0  0  0  0  0  0  0  0
   -6.6025    0.4301   29.2086 N   0  0  0  0  0  0  0  0  0  0  0  0
   -5.8203   -0.5149   29.7897 C   0  0  0  0  0  0  0  0  0  0  0  0
   -4.8219   -1.1418   29.0063 C   0  0  0  0  0  0  0  0  0  0  0  0
   -6.0325   -0.8496   31.1065 O   0  0  0  0  0  0  0  0  0  0  0  0
   -3.3141   -2.1150   30.8168 C   0  0  0  0  0  0  0  0  0  0  0  0
   -3.8960   -2.1498   29.4966 N   0  0  0  0  0  0  0  0  0  0  0  0
   -2.1190   -1.9283   31.0187 O   0  0  0  0  0  0  0  0  0  0  0  0
   -3.5160   -3.1135   28.5540 C   0  0  2  0  0  0  0  0  0  0  0  0
   -2.8805   -2.4144   27.3248 C   0  0  0  0  0  0  0  0  0  0  0  0
   -4.6658   -0.7287   27.6455 C   0  0  0  0  0  0  0  0  0  0  0  0
   -3.6455   -1.3557   26.8009 N   0  0  0  0  0  0  0  0  0  0  0  0
   -4.7050   -3.9519   28.1303 C   0  0  0  0  0  0  0  0  0  0  0  0
   -4.4326   -5.1279   27.3511 N   0  0  0  0  0  0  0  0  0  0  0  0
   -7.3003   -6.4614   24.5808 C   0  0  0  0  0  0  0  0  0  0  0  0
   -6.2604   -7.3043   24.9481 C   0  0  0  0  0  0  0  0  0  0  0  0
   -5.3165   -6.8660   25.8688 C   0  0  0  0  0  0  0  0  0  0  0  0
   -5.4060   -5.5849   26.4096 C   0  0  0  0  0  0  0  0  0  0  0  0
   -6.4385   -4.7441   26.0324 C   0  0  0  0  0  0  0  0  0  0  0  0
   -7.3890   -5.1862   25.1200 C   0  0  0  0  0  0  0  0  0  0  0  0
  1  2  1  0  0  0  0
  2  3  2  0  0  0  0
  2 20  1  0  0  0  0
  4  6  1  0  0  0  0
  5  6  2  0  0  0  0
  5 16  1  0  0  0  0
  6  7  1  0  0  0  0
  7  8  1  0  0  0  0
  8  9  1  0  0  0  0
  8 10  2  0  0  0  0
  9 12  1  0  0  0  0
  9 16  2  0  0  0  0
 11 13  1  0  0  0  0
 11 12  1  0  0  0  0
 12 14  1  0  0  0  0
 14 15  1  0  0  0  0
 14 18  1  6  0  0  0
 15 17  1  0  0  0  0
 16 17  1  0  0  0  0
 18 19  1  0  0  0  0
 19 23  1  0  0  0  0
 20 21  2  0  0  0  0
 20 25  1  0  0  0  0
 21 22  1  0  0  0  0
 22 23  2  0  0  0  0
 23 24  1  0  0  0  0
 24 25  2  0  0  0  0
M  END
>  <CHROM.1>
-112.72939366,-169.31165351,-150.03089749,-165.28591714,-134.43611290,-5.55339472
-3.11690000,27.33010615,2.02282160,0.69073516,-2.74053818

>  <Name>
ligand

>  <RI>
0

>  <Rbt.Current_Directory>
/home/itssahil/PROJECTS/Mol_Feturizer/New_Systems/rnas/4LVV

>  <Rbt.Executable>
rbdock ($Id: //depot/dev/client3/rdock/2013.1/src/exe/rbdock.cxx#4 $)

>  <Rbt.Library>
libRbt.so (2013.1, Build901 2013/11/27)

>  <Rbt.Parameter_File>
/export/apps/rDock/src/rDock_2013.1_src/data/scripts/dock_solv.prm

>  <Rbt.Receptor>
prm/blind_docking_100.prm

>  <SCORE>
-13.2501

>  <SCORE.INTER>
-13.1263

>  <SCORE.INTER.CONST>
1

>  <SCORE.INTER.POLAR>
0

>  <SCORE.INTER.ROT>
5

>  <SCORE.INTER.SOLV>
13.8769

>  <SCORE.INTER.VDW>
-20.3099

>  <SCORE.INTER.norm>
-0.525054

>  <SCORE.INTRA>
-0.123728

>  <SCORE.INTRA.DIHEDRAL>
0.294832

>  <SCORE.INTRA.DIHEDRAL.0>
3.94806

>  <SCORE.INTRA.POLAR>
0

>  <SCORE.INTRA.POLAR.0>
0

>  <SCORE.INTRA.REPUL>
0

>  <SCORE.INTRA.REPUL.0>
0

>  <SCORE.INTRA.SOLV>
-0.451668

>  <SCORE.INTRA.SOLV.lig_0>
-70.9803

>  <SCORE.INTRA.VDW>
-0.0453098

>  <SCORE.INTRA.VDW.0>
-0.709409

>  <SCORE.INTRA.norm>
-0.0049491

>  <SCORE.RESTR>
0

>  <SCORE.RESTR.CAVITY>
0

>  <SCORE.RESTR.norm>
0

>  <SCORE.SYSTEM>
0

>  <SCORE.SYSTEM.CONST>
0

>  <SCORE.SYSTEM.DIHEDRAL>
0

>  <SCORE.SYSTEM.SOLV>
0

>  <SCORE.SYSTEM.norm>
0

>  <SCORE.heavy>
25

>  <SCORE.norm>
-0.530003

>  <RMSD>
21.966

$$$$
ligand
 OpenBabel11021811503D
libRbt.so/2013.1/901 2013/11/27
 25 27  0  0  0  0  0  0  0  0999 V2000
   -8.7316   -8.1909   23.5970 N   0  0  0  0  0  0  0  0  0  0  0  0
   -8.3430   -6.8149   23.6292 C   0  0  0  0  0  0  0  0  0  0  0  0
   -8.8694   -5.9980   22.8838 O   0  0  0  0  0  0  0  0  0  0  0  0
   -7.3250    1.7759   27.3417 N   0  0  0  0  0  0  0  0  0  0  0  0
   -5.5074    0.2244   27.1084 N   0  0  0  0  0  0  0  0  0  0  0  0
   -6.4549    0.7882   27.8927 C   0  0  0  0  0  0  0  0  0  0  0  0
   -6.5862    0.4353   29.2067 N   0  0  0  0  0  0  0  0  0  0  0  0
   -5.7838   -0.4932   29.7868 C   0  0  0  0  0  0  0  0  0  0  0  0
   -4.7892   -1.1167   28.9959 C   0  0  0  0  0  0  0  0  0  0  0  0
   -5.9723   -0.8151   31.1104 O   0  0  0  0  0  0  0  0  0  0  0  0
   -3.2428   -2.0500   30.7948 C   0  0  0  0  0  0  0  0  0  0  0  0
   -3.8436   -2.1074   29.4839 N   0  0  0  0  0  0  0  0  0  0  0  0
   -3.2799   -2.9817   31.5914 O   0  0  0  0  0  0  0  0  0  0  0  0
   -3.4655   -3.0772   28.5468 C   0  0  2  0  0  0  0  0  0  0  0  0
   -2.8570   -2.3846   27.3004 C   0  0  0  0  0  0  0  0  0  0  0  0
   -4.6583   -0.7175   27.6283 C   0  0  0  0  0  0  0  0  0  0  0  0
   -3.6427   -1.3417   26.7758 N   0  0  0  0  0  0  0  0  0  0  0  0
   -4.6500   -3.9352   28.1504 C   0  0  0  0  0  0  0  0  0  0  0  0
   -4.3806   -5.0865   27.3343 N   0  0  0  0  0  0  0  0  0  0  0  0
   -7.2965   -6.3884   24.5995 C   0  0  0  0  0  0  0  0  0  0  0  0
   -6.2222   -7.2148   24.8989 C   0  0  0  0  0  0  0  0  0  0  0  0
   -5.2621   -6.7873   25.8079 C   0  0  0  0  0  0  0  0  0  0  0  0
   -5.3702   -5.5327   26.4047 C   0  0  0  0  0  0  0  0  0  0  0  0
   -6.4374   -4.7078   26.0950 C   0  0  0  0  0  0  0  0  0  0  0  0
   -7.4037   -5.1396   25.1943 C   0  0  0  0  0  0  0  0  0  0  0  0
  1  2  1  0  0  0  0
  2  3  2  0  0  0  0
  2 20  1  0  0  0  0
  4  6  1  0  0  0  0
  5  6  2  0  0  0  0
  5 16  1  0  0  0  0
  6  7  1  0  0  0  0
  7  8  1  0  0  0  0
  8  9  1  0  0  0  0
  8 10  2  0  0  0  0
  9 12  1  0  0  0  0
  9 16  2  0  0  0  0
 11 13  1  0  0  0  0
 11 12  1  0  0  0  0
 12 14  1  0  0  0  0
 14 15  1  0  0  0  0
 14 18  1  6  0  0  0
 15 17  1  0  0  0  0
 16 17  1  0  0  0  0
 18 19  1  0  0  0  0
 19 23  1  0  0  0  0
 20 21  2  0  0  0  0
 20 25  1  0  0  0  0
 21 22  1  0  0  0  0
 22 23  2  0  0  0  0
 23 24  1  0  0  0  0
 24 25  2  0  0  0  0
M  END
>  <CHROM.1>
126.46026166,-171.80969905,-148.96430027,-166.58109704,36.46892595,-5.59118371
-3.13360780,27.36038223,2.03209962,0.76296998,-2.76089286

>  <Name>
ligand

>  <RI>
0

>  <Rbt.Current_Directory>
/home/itssahil/PROJECTS/Mol_Feturizer/New_Systems/rnas/4LVV

>  <Rbt.Executable>
rbdock ($Id: //depot/dev/client3/rdock/2013.1/src/exe/rbdock.cxx#4 $)

>  <Rbt.Library>
libRbt.so (2013.1, Build901 2013/11/27)

>  <Rbt.Parameter_File>
/export/apps/rDock/src/rDock_2013.1_src/data/scripts/dock_solv.prm

>  <Rbt.Receptor>
prm/blind_docking_40.prm

>  <SCORE>
-12.9975

>  <SCORE.INTER>
-12.9644

>  <SCORE.INTER.CONST>
1

>  <SCORE.INTER.POLAR>
0

>  <SCORE.INTER.ROT>
5

>  <SCORE.INTER.SOLV>
13.6632

>  <SCORE.INTER.VDW>
-20.1307

>  <SCORE.INTER.norm>
-0.518576

>  <SCORE.INTRA>
-0.0330914

>  <SCORE.INTRA.DIHEDRAL>
0.124623

>  <SCORE.INTRA.DIHEDRAL.0>
3.94806

>  <SCORE.INTRA.POLAR>
0

>  <SCORE.INTRA.POLAR.0>
0

>  <SCORE.INTRA.REPUL>
0

>  <SCORE.INTRA.REPUL.0>
0

>  <SCORE.INTRA.SOLV>
-0.267253

>  <SCORE.INTRA.SOLV.lig_0>
-70.9803

>  <SCORE.INTRA.VDW>
0.0382235

>  <SCORE.INTRA.VDW.0>
-0.709409

>  <SCORE.INTRA.norm>
-0.00132365

>  <SCORE.RESTR>
0

>  <SCORE.RESTR.CAVITY>
0

>  <SCORE.RESTR.norm>
0

>  <SCORE.SYSTEM>
0

>  <SCORE.SYSTEM.CONST>
0

>  <SCORE.SYSTEM.DIHEDRAL>
0

>  <SCORE.SYSTEM.SOLV>
0

>  <SCORE.SYSTEM.norm>
0

>  <SCORE.heavy>
25

>  <SCORE.norm>
-0.5199

>  <RMSD>
21.969

$$$$
ligand
 OpenBabel11021811503D
libRbt.so/2013.1/901 2013/11/27
 25 27  0  0  0  0  0  0  0  0999 V2000
   -9.3728   -7.4294   20.8234 N   0  0  0  0  0  0  0  0  0  0  0  0
   -7.9554   -7.2831   20.9456 C   0  0  0  0  0  0  0  0  0  0  0  0
   -7.2140   -7.5657   20.0126 O   0  0  0  0  0  0  0  0  0  0  0  0
   -7.3466    1.8089   27.2474 N   0  0  0  0  0  0  0  0  0  0  0  0
   -6.1565   -0.2415   27.6275 N   0  0  0  0  0  0  0  0  0  0  0  0
   -7.3260    0.4388   27.6454 C   0  0  0  0  0  0  0  0  0  0  0  0
   -8.4863   -0.1612   28.0481 N   0  0  0  0  0  0  0  0  0  0  0  0
   -8.5266   -1.4592   28.4431 C   0  0  0  0  0  0  0  0  0  0  0  0
   -7.3264   -2.2094   28.4250 C   0  0  0  0  0  0  0  0  0  0  0  0
   -9.7267   -2.0107   28.8261 O   0  0  0  0  0  0  0  0  0  0  0  0
   -7.9357   -4.1507   29.9607 C   0  0  0  0  0  0  0  0  0  0  0  0
   -7.2109   -3.5973   28.8421 N   0  0  0  0  0  0  0  0  0  0  0  0
   -8.4505   -5.2636   29.9425 O   0  0  0  0  0  0  0  0  0  0  0  0
   -6.2558   -4.3478   28.1449 C   0  0  2  0  0  0  0  0  0  0  0  0
   -4.8664   -3.6734   28.2804 C   0  0  0  0  0  0  0  0  0  0  0  0
   -6.1212   -1.5549   28.0177 C   0  0  0  0  0  0  0  0  0  0  0  0
   -4.8586   -2.2981   27.9825 N   0  0  0  0  0  0  0  0  0  0  0  0
   -6.6379   -4.4845   26.6849 C   0  0  0  0  0  0  0  0  0  0  0  0
   -5.8535   -5.3832   25.8841 N   0  0  0  0  0  0  0  0  0  0  0  0
   -7.3963   -6.7636   22.2248 C   0  0  0  0  0  0  0  0  0  0  0  0
   -6.9735   -5.4461   22.3353 C   0  0  0  0  0  0  0  0  0  0  0  0
   -6.4573   -4.9918   23.5428 C   0  0  0  0  0  0  0  0  0  0  0  0
   -6.3768   -5.8491   24.6384 C   0  0  0  0  0  0  0  0  0  0  0  0
   -6.8095   -7.1589   24.5265 C   0  0  0  0  0  0  0  0  0  0  0  0
   -7.3155   -7.6166   23.3159 C   0  0  0  0  0  0  0  0  0  0  0  0
  1  2  1  0  0  0  0
  2  3  2  0  0  0  0
  2 20  1  0  0  0  0
  4  6  1  0  0  0  0
  5  6  2  0  0  0  0
  5 16  1  0  0  0  0
  6  7  1  0  0  0  0
  7  8  1  0  0  0  0
  8  9  1  0  0  0  0
  8 10  2  0  0  0  0
  9 12  1  0  0  0  0
  9 16  2  0  0  0  0
 11 13  1  0  0  0  0
 11 12  1  0  0  0  0
 12 14  1  0  0  0  0
 14 15  1  0  0  0  0
 14 18  1  6  0  0  0
 15 17  1  0  0  0  0
 16 17  1  0  0  0  0
 18 19  1  0  0  0  0
 19 23  1  0  0  0  0
 20 21  2  0  0  0  0
 20 25  1  0  0  0  0
 21 22  1  0  0  0  0
 22 23  2  0  0  0  0
 23 24  1  0  0  0  0
 24 25  2  0  0  0  0
M  END
>  <CHROM.1>
139.04938023,-171.52713994,162.05429996,72.51574981,-102.17231978,-7.18516309
-3.92569554,26.16975530,1.96379100,1.52517874,-2.66497642

>  <Name>
ligand

>  <RI>
0

>  <Rbt.Current_Directory>
/home/itssahil/PROJECTS/Mol_Feturizer/New_Systems/rnas/4LVV

>  <Rbt.Executable>
rbdock ($Id: //depot/dev/client3/rdock/2013.1/src/exe/rbdock.cxx#4 $)

>  <Rbt.Library>
libRbt.so (2013.1, Build901 2013/11/27)

>  <Rbt.Parameter_File>
/export/apps/rDock/src/rDock_2013.1_src/data/scripts/dock_solv.prm

>  <Rbt.Receptor>
prm/blind_docking_40.prm

>  <SCORE>
-10.7692

>  <SCORE.INTER>
-9.61205

>  <SCORE.INTER.CONST>
1

>  <SCORE.INTER.POLAR>
0

>  <SCORE.INTER.ROT>
5

>  <SCORE.INTER.SOLV>
10.0059

>  <SCORE.INTER.VDW>
-16.6767

>  <SCORE.INTER.norm>
-0.384482

>  <SCORE.INTRA>
-1.15712

>  <SCORE.INTRA.DIHEDRAL>
-0.332422

>  <SCORE.INTRA.DIHEDRAL.0>
3.94806

>  <SCORE.INTRA.POLAR>
0

>  <SCORE.INTRA.POLAR.0>
0

>  <SCORE.INTRA.REPUL>
0

>  <SCORE.INTRA.REPUL.0>
0

>  <SCORE.INTRA.SOLV>
-0.307186

>  <SCORE.INTRA.SOLV.lig_0>
-70.9803

>  <SCORE.INTRA.VDW>
-0.837319

>  <SCORE.INTRA.VDW.0>
-0.709409

>  <SCORE.INTRA.norm>
-0.0462849

>  <SCORE.RESTR>
0

>  <SCORE.RESTR.CAVITY>
0

>  <SCORE.RESTR.norm>
0

>  <SCORE.SYSTEM>
0

>  <SCORE.SYSTEM.CONST>
0

>  <SCORE.SYSTEM.DIHEDRAL>
0

>  <SCORE.SYSTEM.SOLV>
0

>  <SCORE.SYSTEM.norm>
0

>  <SCORE.heavy>
25

>  <SCORE.norm>
-0.430767

>  <RMSD>
22.042

$$$$
ligand
 OpenBabel11021811503D
libRbt.so/2013.1/901 2013/11/27
 25 27  0  0  0  0  0  0  0  0999 V2000
   -7.8376   -8.2288   23.5124 N   0  0  0  0  0  0  0  0  0  0  0  0
   -6.6758   -7.3949   23.5056 C   0  0  0  0  0  0  0  0  0  0  0  0
   -5.9184   -7.3840   22.5431 O   0  0  0  0  0  0  0  0  0  0  0  0
   -8.4214    0.6327   32.5813 N   0  0  0  0  0  0  0  0  0  0  0  0
   -7.0055    0.4825   30.6479 N   0  0  0  0  0  0  0  0  0  0  0  0
   -7.3970   -0.0271   31.8387 C   0  0  0  0  0  0  0  0  0  0  0  0
   -6.8208   -1.1574   32.3472 N   0  0  0  0  0  0  0  0  0  0  0  0
   -5.8384   -1.8238   31.6890 C   0  0  0  0  0  0  0  0  0  0  0  0
   -5.4107   -1.3306   30.4330 C   0  0  0  0  0  0  0  0  0  0  0  0
   -5.3057   -2.9625   32.2461 O   0  0  0  0  0  0  0  0  0  0  0  0
   -3.1552   -2.4933   30.1894 C   0  0  0  0  0  0  0  0  0  0  0  0
   -4.3552   -1.9219   29.6269 N   0  0  0  0  0  0  0  0  0  0  0  0
   -2.0945   -2.5625   29.5780 O   0  0  0  0  0  0  0  0  0  0  0  0
   -4.5308   -1.8039   28.2424 C   0  0  2  0  0  0  0  0  0  0  0  0
   -4.6636   -0.3068   27.8622 C   0  0  0  0  0  0  0  0  0  0  0  0
   -6.0152   -0.1355   29.9298 C   0  0  0  0  0  0  0  0  0  0  0  0
   -5.6019    0.4053   28.6320 N   0  0  0  0  0  0  0  0  0  0  0  0
   -5.7517   -2.5765   27.7856 C   0  0  0  0  0  0  0  0  0  0  0  0
   -5.7357   -4.0001   27.9787 N   0  0  0  0  0  0  0  0  0  0  0  0
   -6.4114   -6.5248   24.6854 C   0  0  0  0  0  0  0  0  0  0  0  0
   -5.3162   -6.7515   25.5076 C   0  0  0  0  0  0  0  0  0  0  0  0
   -5.0968   -5.9212   26.6000 C   0  0  0  0  0  0  0  0  0  0  0  0
   -5.9626   -4.8609   26.8605 C   0  0  0  0  0  0  0  0  0  0  0  0
   -7.0471   -4.6322   26.0317 C   0  0  0  0  0  0  0  0  0  0  0  0
   -7.2731   -5.4691   24.9455 C   0  0  0  0  0  0  0  0  0  0  0  0
  1  2  1  0  0  0  0
  2  3  2  0  0  0  0
  2 20  1  0  0  0  0
  4  6  1  0  0  0  0
  5  6  2  0  0  0  0
  5 16  1  0  0  0  0
  6  7  1  0  0  0  0
  7  8  1  0  0  0  0
  8  9  1  0  0  0  0
  8 10  2  0  0  0  0
  9 12  1  0  0  0  0
  9 16  2  0  0  0  0
 11 13  1  0  0  0  0
 11 12  1  0  0  0  0
 12 14  1  0  0  0  0
 14 15  1  0  0  0  0
 14 18  1  1  0  0  0
 15 17  1  0  0  0  0
 16 17  1  0  0  0  0
 18 19  1  0  0  0  0
 19 23  1  0  0  0  0
 20 21  2  0  0  0  0
 20 25  1  0  0  0  0
 21 22  1  0  0  0  0
 22 23  2  0  0  0  0
 23 24  1  0  0  0  0
 24 25  2  0  0  0  0
M  END
>  <CHROM.1>
-153.66615825,-62.81449983,-125.22386285,130.45752603,113.15533896,-5.77830463
-3.11316956,28.28113175,1.61827606,0.09362723,-2.30926224

>  <Name>
ligand

>  <RI>
0

>  <Rbt.Current_Directory>
/home/itssahil/PROJECTS/Mol_Feturizer/New_Systems/rnas/4LVV

>  <Rbt.Executable>
rbdock ($Id: //depot/dev/client3/rdock/2013.1/src/exe/rbdock.cxx#4 $)

>  <Rbt.Library>
libRbt.so (2013.1, Build901 2013/11/27)

>  <Rbt.Parameter_File>
/export/apps/rDock/src/rDock_2013.1_src/data/scripts/dock_solv.prm

>  <Rbt.Receptor>
prm/blind_docking_100.prm

>  <SCORE>
-10.6416

>  <SCORE.INTER>
-10.19

>  <SCORE.INTER.CONST>
1

>  <SCORE.INTER.POLAR>
0

>  <SCORE.INTER.ROT>
5

>  <SCORE.INTER.SOLV>
11.5475

>  <SCORE.INTER.VDW>
-17.5758

>  <SCORE.INTER.norm>
-0.4076

>  <SCORE.INTRA>
-0.45162

>  <SCORE.INTRA.DIHEDRAL>
0.683744

>  <SCORE.INTRA.DIHEDRAL.0>
3.94806

>  <SCORE.INTRA.POLAR>
0

>  <SCORE.INTRA.POLAR.0>
0

>  <SCORE.INTRA.REPUL>
0

>  <SCORE.INTRA.REPUL.0>
0

>  <SCORE.INTRA.SOLV>
-0.117669

>  <SCORE.INTRA.SOLV.lig_0>
-70.9803

>  <SCORE.INTRA.VDW>
-0.734657

>  <SCORE.INTRA.VDW.0>
-0.709409

>  <SCORE.INTRA.norm>
-0.0180648

>  <SCORE.RESTR>
0

>  <SCORE.RESTR.CAVITY>
0

>  <SCORE.RESTR.norm>
0

>  <SCORE.SYSTEM>
0

>  <SCORE.SYSTEM.CONST>
0

>  <SCORE.SYSTEM.DIHEDRAL>
0

>  <SCORE.SYSTEM.SOLV>
0

>  <SCORE.SYSTEM.norm>
0

>  <SCORE.heavy>
25

>  <SCORE.norm>
-0.425665

>  <RMSD>
22.110

$$$$
ligand
 OpenBabel11021811503D
libRbt.so/2013.1/901 2013/11/27
 25 27  0  0  0  0  0  0  0  0999 V2000
   -4.8256   -6.2602    7.7196 N   0  0  0  0  0  0  0  0  0  0  0  0
   -5.6082   -5.6292    8.7369 C   0  0  0  0  0  0  0  0  0  0  0  0
   -6.7851   -5.3531    8.5405 O   0  0  0  0  0  0  0  0  0  0  0  0
    2.3599   -4.3365   14.3086 N   0  0  0  0  0  0  0  0  0  0  0  0
    0.2761   -5.5294   14.3119 N   0  0  0  0  0  0  0  0  0  0  0  0
    1.1061   -4.6471   14.9148 C   0  0  0  0  0  0  0  0  0  0  0  0
    0.7684   -4.0559   16.1001 N   0  0  0  0  0  0  0  0  0  0  0  0
   -0.4074   -4.3171   16.7260 C   0  0  0  0  0  0  0  0  0  0  0  0
   -1.3096   -5.2239   16.1200 C   0  0  0  0  0  0  0  0  0  0  0  0
   -0.6963   -3.6818   17.9109 O   0  0  0  0  0  0  0  0  0  0  0  0
   -2.8041   -5.8260   18.0954 C   0  0  0  0  0  0  0  0  0  0  0  0
   -2.5904   -5.6187   16.6833 N   0  0  0  0  0  0  0  0  0  0  0  0
   -2.6403   -4.9473   18.9350 O   0  0  0  0  0  0  0  0  0  0  0  0
   -3.5915   -5.8933   15.7430 C   0  0  2  0  0  0  0  0  0  0  0  0
   -3.1084   -7.0100   14.7822 C   0  0  0  0  0  0  0  0  0  0  0  0
   -0.9263   -5.8445   14.8893 C   0  0  0  0  0  0  0  0  0  0  0  0
   -1.8339   -6.7868   14.2290 N   0  0  0  0  0  0  0  0  0  0  0  0
   -3.9568   -4.6459   14.9640 C   0  0  0  0  0  0  0  0  0  0  0  0
   -3.2226   -4.3900   13.7558 N   0  0  0  0  0  0  0  0  0  0  0  0
   -4.9700   -5.3286   10.0488 C   0  0  0  0  0  0  0  0  0  0  0  0
   -3.8777   -6.0600   10.4948 C   0  0  0  0  0  0  0  0  0  0  0  0
   -3.3045   -5.7541   11.7231 C   0  0  0  0  0  0  0  0  0  0  0  0
   -3.8144   -4.7124   12.4955 C   0  0  0  0  0  0  0  0  0  0  0  0
   -4.8969   -3.9791   12.0418 C   0  0  0  0  0  0  0  0  0  0  0  0
   -5.4774   -4.2919   10.8185 C   0  0  0  0  0  0  0  0  0  0  0  0
  1  2  1  0  0  0  0
  2  3  2  0  0  0  0
  2 20  1  0  0  0  0
  4  6  1  0  0  0  0
  5  6  2  0  0  0  0
  5 16  1  0  0  0  0
  6  7  1  0  0  0  0
  7  8  1  0  0  0  0
  8  9  1  0  0  0  0
  8 10  2  0  0  0  0
  9 12  1  0  0  0  0
  9 16  2  0  0  0  0
 11 13  1  0  0  0  0
 11 12  1  0  0  0  0
 12 14  1  0  0  0  0
 14 15  1  0  0  0  0
 14 18  1  6  0  0  0
 15 17  1  0  0  0  0
 16 17  1  0  0  0  0
 18 19  1  0  0  0  0
 19 23  1  0  0  0  0
 20 21  2  0  0  0  0
 20 25  1  0  0  0  0
 21 22  1  0  0  0  0
 22 23  2  0  0  0  0
 23 24  1  0  0  0  0
 24 25  2  0  0  0  0
M  END
>  <CHROM.1>
60.24866845,90.14638852,100.71155036,-111.21620518,-25.00154094,-2.62959065
-5.20200891,13.89880654,-2.12813894,0.09593223,1.54825014

>  <Name>
ligand

>  <RI>
0

>  <Rbt.Current_Directory>
/home/itssahil/PROJECTS/Mol_Feturizer/New_Systems/rnas/4LVV

>  <Rbt.Executable>
rbdock ($Id: //depot/dev/client3/rdock/2013.1/src/exe/rbdock.cxx#4 $)

>  <Rbt.Library>
libRbt.so (2013.1, Build901 2013/11/27)

>  <Rbt.Parameter_File>
/export/apps/rDock/src/rDock_2013.1_src/data/scripts/dock_solv.prm

>  <Rbt.Receptor>
prm/blind_docking_20.prm

>  <SCORE>
-1.34572

>  <SCORE.INTER>
-3.74248

>  <SCORE.INTER.CONST>
1

>  <SCORE.INTER.POLAR>
0

>  <SCORE.INTER.ROT>
5

>  <SCORE.INTER.SOLV>
11.4857

>  <SCORE.INTER.VDW>
-13.2569

>  <SCORE.INTER.norm>
-0.149699

>  <SCORE.INTRA>
1.98394

>  <SCORE.INTRA.DIHEDRAL>
2.90086

>  <SCORE.INTRA.DIHEDRAL.0>
3.94806

>  <SCORE.INTRA.POLAR>
0

>  <SCORE.INTRA.POLAR.0>
0

>  <SCORE.INTRA.REPUL>
0

>  <SCORE.INTRA.REPUL.0>
0

>  <SCORE.INTRA.SOLV>
2.65746

>  <SCORE.INTRA.SOLV.lig_0>
-70.9803

>  <SCORE.INTRA.VDW>
-0.795216

>  <SCORE.INTRA.VDW.0>
-0.709409

>  <SCORE.INTRA.norm>
0.0793577

>  <SCORE.RESTR>
0.412815

>  <SCORE.RESTR.CAVITY>
0.412815

>  <SCORE.RESTR.norm>
0.0165126

>  <SCORE.SYSTEM>
0

>  <SCORE.SYSTEM.CONST>
0

>  <SCORE.SYSTEM.DIHEDRAL>
0

>  <SCORE.SYSTEM.SOLV>
0

>  <SCORE.SYSTEM.norm>
0

>  <SCORE.heavy>
25

>  <SCORE.norm>
-0.0538287

>  <RMSD>
22.183

$$$$
ligand
 OpenBabel11021811503D
libRbt.so/2013.1/901 2013/11/27
 25 27  0  0  0  0  0  0  0  0999 V2000
    2.5810   -3.6316   14.7520 N   0  0  0  0  0  0  0  0  0  0  0  0
    1.8609   -4.0642   15.9094 C   0  0  0  0  0  0  0  0  0  0  0  0
    2.3334   -3.9219   17.0303 O   0  0  0  0  0  0  0  0  0  0  0  0
   -5.0654   -6.1545    7.7643 N   0  0  0  0  0  0  0  0  0  0  0  0
   -3.9855   -5.2933    9.7283 N   0  0  0  0  0  0  0  0  0  0  0  0
   -5.1268   -5.6621    9.1021 C   0  0  0  0  0  0  0  0  0  0  0  0
   -6.3390   -5.5613    9.7257 N   0  0  0  0  0  0  0  0  0  0  0  0
   -6.4598   -5.0946   10.9946 C   0  0  0  0  0  0  0  0  0  0  0  0
   -5.2872   -4.7119   11.6891 C   0  0  0  0  0  0  0  0  0  0  0  0
   -7.7056   -5.0278   11.5729 O   0  0  0  0  0  0  0  0  0  0  0  0
   -6.2651   -3.2676   13.5481 C   0  0  0  0  0  0  0  0  0  0  0  0
   -5.2630   -4.1728   13.0390 N   0  0  0  0  0  0  0  0  0  0  0  0
   -6.9307   -2.5302   12.8291 O   0  0  0  0  0  0  0  0  0  0  0  0
   -4.1299   -4.5088   13.7906 C   0  0  2  0  0  0  0  0  0  0  0  0
   -2.8548   -4.0359   13.0463 C   0  0  0  0  0  0  0  0  0  0  0  0
   -4.0320   -4.8086   11.0095 C   0  0  0  0  0  0  0  0  0  0  0  0
   -2.7950   -4.4249   11.6952 N   0  0  0  0  0  0  0  0  0  0  0  0
   -4.0729   -6.0019   14.0426 C   0  0  0  0  0  0  0  0  0  0  0  0
   -3.2490   -6.4514   15.1305 N   0  0  0  0  0  0  0  0  0  0  0  0
    0.5151   -4.6766   15.7286 C   0  0  0  0  0  0  0  0  0  0  0  0
   -0.5723   -4.2416   16.4737 C   0  0  0  0  0  0  0  0  0  0  0  0
   -1.8149   -4.8329   16.2808 C   0  0  0  0  0  0  0  0  0  0  0  0
   -1.9708   -5.8462   15.3370 C   0  0  0  0  0  0  0  0  0  0  0  0
   -0.8861   -6.2691   14.5889 C   0  0  0  0  0  0  0  0  0  0  0  0
    0.3592   -5.6856   14.7894 C   0  0  0  0  0  0  0  0  0  0  0  0
  1  2  1  0  0  0  0
  2  3  2  0  0  0  0
  2 20  1  0  0  0  0
  4  6  1  0  0  0  0
  5  6  2  0  0  0  0
  5 16  1  0  0  0  0
  6  7  1  0  0  0  0
  7  8  1  0  0  0  0
  8  9  1  0  0  0  0
  8 10  2  0  0  0  0
  9 12  1  0  0  0  0
  9 16  2  0  0  0  0
 11 13  1  0  0  0  0
 11 12  1  0  0  0  0
 12 14  1  0  0  0  0
 14 15  1  0  0  0  0
 14 18  1  6  0  0  0
 15 17  1  0  0  0  0
 16 17  1  0  0  0  0
 18 19  1  0  0  0  0
 19 23  1  0  0  0  0
 20 21  2  0  0  0  0
 20 25  1  0  0  0  0
 21 22  1  0  0  0  0
 22 23  2  0  0  0  0
 23 24  1  0  0  0  0
 24 25  2  0  0  0  0
M  END
>  <CHROM.1>
-25.67429688,-160.28562276,-41.32238968,97.77540103,-130.35011431,-3.16468399
-4.80168155,13.15223105,-0.64273501,0.13247031,-1.81840500

>  <Name>
ligand

>  <RI>
0

>  <Rbt.Current_Directory>
/home/itssahil/PROJECTS/Mol_Feturizer/New_Systems/rnas/4LVV

>  <Rbt.Executable>
rbdock ($Id: //depot/dev/client3/rdock/2013.1/src/exe/rbdock.cxx#4 $)

>  <Rbt.Library>
libRbt.so (2013.1, Build901 2013/11/27)

>  <Rbt.Parameter_File>
/export/apps/rDock/src/rDock_2013.1_src/data/scripts/dock_solv.prm

>  <Rbt.Receptor>
prm/blind_docking_20.prm

>  <SCORE>
-4.87218

>  <SCORE.INTER>
-3.96711

>  <SCORE.INTER.CONST>
1

>  <SCORE.INTER.POLAR>
0

>  <SCORE.INTER.ROT>
5

>  <SCORE.INTER.SOLV>
11.0383

>  <SCORE.INTER.VDW>
-13.2575

>  <SCORE.INTER.norm>
-0.158684

>  <SCORE.INTRA>
-0.905078

>  <SCORE.INTRA.DIHEDRAL>
1.04416

>  <SCORE.INTRA.DIHEDRAL.0>
3.94806

>  <SCORE.INTRA.POLAR>
0

>  <SCORE.INTRA.POLAR.0>
0

>  <SCORE.INTRA.REPUL>
0

>  <SCORE.INTRA.REPUL.0>
0

>  <SCORE.INTRA.SOLV>
-0.256278

>  <SCORE.INTRA.SOLV.lig_0>
-70.9803

>  <SCORE.INTRA.VDW>
-1.29902

>  <SCORE.INTRA.VDW.0>
-0.709409

>  <SCORE.INTRA.norm>
-0.0362031

>  <SCORE.RESTR>
0

>  <SCORE.RESTR.CAVITY>
0

>  <SCORE.RESTR.norm>
0

>  <SCORE.SYSTEM>
0

>  <SCORE.SYSTEM.CONST>
0

>  <SCORE.SYSTEM.DIHEDRAL>
0

>  <SCORE.SYSTEM.SOLV>
0

>  <SCORE.SYSTEM.norm>
0

>  <SCORE.heavy>
25

>  <SCORE.norm>
-0.194887

>  <RMSD>
22.211

$$$$
ligand
 OpenBabel11021811503D
libRbt.so/2013.1/901 2013/11/27
 25 27  0  0  0  0  0  0  0  0999 V2000
   -6.0173   -7.1181   21.7696 N   0  0  0  0  0  0  0  0  0  0  0  0
   -6.5224   -7.5683   23.0296 C   0  0  0  0  0  0  0  0  0  0  0  0
   -6.9230   -8.7173   23.1692 O   0  0  0  0  0  0  0  0  0  0  0  0
   -6.9515    1.7211   31.9037 N   0  0  0  0  0  0  0  0  0  0  0  0
   -6.5721    1.0875   29.6190 N   0  0  0  0  0  0  0  0  0  0  0  0
   -6.3522    0.8617   30.9349 C   0  0  0  0  0  0  0  0  0  0  0  0
   -5.5575   -0.1693   31.3518 N   0  0  0  0  0  0  0  0  0  0  0  0
   -4.9566   -1.0150   30.4764 C   0  0  0  0  0  0  0  0  0  0  0  0
   -5.1734   -0.8210   29.0911 C   0  0  0  0  0  0  0  0  0  0  0  0
   -4.1779   -2.0415   30.9569 O   0  0  0  0  0  0  0  0  0  0  0  0
   -3.2302   -2.1394   28.0991 C   0  0  0  0  0  0  0  0  0  0  0  0
   -4.5787   -1.6286   28.0388 N   0  0  0  0  0  0  0  0  0  0  0  0
   -2.4262   -2.0214   27.1807 O   0  0  0  0  0  0  0  0  0  0  0  0
   -5.3734   -1.7923   26.8971 C   0  0  2  0  0  0  0  0  0  0  0  0
   -5.7319   -0.4025   26.3111 C   0  0  0  0  0  0  0  0  0  0  0  0
   -5.9937    0.2760   28.6781 C   0  0  0  0  0  0  0  0  0  0  0  0
   -6.2446    0.5086   27.2531 N   0  0  0  0  0  0  0  0  0  0  0  0
   -6.6322   -2.5703   27.2231 C   0  0  0  0  0  0  0  0  0  0  0  0
   -6.4892   -3.9815   27.4512 N   0  0  0  0  0  0  0  0  0  0  0  0
   -6.5367   -6.6183   24.1768 C   0  0  0  0  0  0  0  0  0  0  0  0
   -7.6589   -5.8491   24.4518 C   0  0  0  0  0  0  0  0  0  0  0  0
   -7.6407   -4.9727   25.5300 C   0  0  0  0  0  0  0  0  0  0  0  0
   -6.5087   -4.8763   26.3368 C   0  0  0  0  0  0  0  0  0  0  0  0
   -5.3960   -5.6531   26.0651 C   0  0  0  0  0  0  0  0  0  0  0  0
   -5.4099   -6.5216   24.9803 C   0  0  0  0  0  0  0  0  0  0  0  0
  1  2  1  0  0  0  0
  2  3  2  0  0  0  0
  2 20  1  0  0  0  0
  4  6  1  0  0  0  0
  5  6  2  0  0  0  0
  5 16  1  0  0  0  0
  6  7  1  0  0  0  0
  7  8  1  0  0  0  0
  8  9  1  0  0  0  0
  8 10  2  0  0  0  0
  9 12  1  0  0  0  0
  9 16  2  0  0  0  0
 11 13  1  0  0  0  0
 11 12  1  0  0  0  0
 12 14  1  0  0  0  0
 14 15  1  0  0  0  0
 14 18  1  1  0  0  0
 15 17  1  0  0  0  0
 16 17  1  0  0  0  0
 18 19  1  0  0  0  0
 19 23  1  0  0  0  0
 20 21  2  0  0  0  0
 20 25  1  0  0  0  0
 21 22  1  0  0  0  0
 22 23  2  0  0  0  0
 23 24  1  0  0  0  0
 24 25  2  0  0  0  0
M  END
>  <CHROM.1>
-130.73504922,-73.70801622,-85.69975551,-62.03711504,92.92992347,-5.75425139
-2.84237385,27.27277541,1.66697222,0.28772642,-2.44269669

>  <Name>
ligand

>  <RI>
0

>  <Rbt.Current_Directory>
/home/itssahil/PROJECTS/Mol_Feturizer/New_Systems/rnas/4LVV

>  <Rbt.Executable>
rbdock ($Id: //depot/dev/client3/rdock/2013.1/src/exe/rbdock.cxx#4 $)

>  <Rbt.Library>
libRbt.so (2013.1, Build901 2013/11/27)

>  <Rbt.Parameter_File>
/export/apps/rDock/src/rDock_2013.1_src/data/scripts/dock_solv.prm

>  <Rbt.Receptor>
prm/blind_docking_40.prm

>  <SCORE>
-13.0432

>  <SCORE.INTER>
-11.9154

>  <SCORE.INTER.CONST>
1

>  <SCORE.INTER.POLAR>
0

>  <SCORE.INTER.ROT>
5

>  <SCORE.INTER.SOLV>
14.0673

>  <SCORE.INTER.VDW>
-19.566

>  <SCORE.INTER.norm>
-0.476615

>  <SCORE.INTRA>
-1.1278

>  <SCORE.INTRA.DIHEDRAL>
0.553565

>  <SCORE.INTRA.DIHEDRAL.0>
3.94806

>  <SCORE.INTRA.POLAR>
0

>  <SCORE.INTRA.POLAR.0>
0

>  <SCORE.INTRA.REPUL>
0

>  <SCORE.INTRA.REPUL.0>
0

>  <SCORE.INTRA.SOLV>
-0.334249

>  <SCORE.INTRA.SOLV.lig_0>
-70.9803

>  <SCORE.INTRA.VDW>
-1.23746

>  <SCORE.INTRA.VDW.0>
-0.709409

>  <SCORE.INTRA.norm>
-0.0451119

>  <SCORE.RESTR>
0

>  <SCORE.RESTR.CAVITY>
0

>  <SCORE.RESTR.norm>
0

>  <SCORE.SYSTEM>
0

>  <SCORE.SYSTEM.CONST>
0

>  <SCORE.SYSTEM.DIHEDRAL>
0

>  <SCORE.SYSTEM.SOLV>
0

>  <SCORE.SYSTEM.norm>
0

>  <SCORE.heavy>
25

>  <SCORE.norm>
-0.521727

>  <RMSD>
22.219

$$$$
ligand
 OpenBabel11021811503D
libRbt.so/2013.1/901 2013/11/27
 25 27  0  0  0  0  0  0  0  0999 V2000
   -7.5787   -8.6173   23.1321 N   0  0  0  0  0  0  0  0  0  0  0  0
   -6.5304   -7.6458   23.1805 C   0  0  0  0  0  0  0  0  0  0  0  0
   -5.6735   -7.6050   22.3063 O   0  0  0  0  0  0  0  0  0  0  0  0
   -6.9381    1.7270   31.9013 N   0  0  0  0  0  0  0  0  0  0  0  0
   -6.5546    1.1320   29.6069 N   0  0  0  0  0  0  0  0  0  0  0  0
   -6.3475    0.8765   30.9194 C   0  0  0  0  0  0  0  0  0  0  0  0
   -5.5739   -0.1764   31.3207 N   0  0  0  0  0  0  0  0  0  0  0  0
   -4.9820   -1.0152   30.4326 C   0  0  0  0  0  0  0  0  0  0  0  0
   -5.1861   -0.7900   29.0501 C   0  0  0  0  0  0  0  0  0  0  0  0
   -4.2247   -2.0646   30.8975 O   0  0  0  0  0  0  0  0  0  0  0  0
   -3.2598   -2.1227   28.0444 C   0  0  0  0  0  0  0  0  0  0  0  0
   -4.5986   -1.5871   27.9857 N   0  0  0  0  0  0  0  0  0  0  0  0
   -2.4014   -1.8776   27.2036 O   0  0  0  0  0  0  0  0  0  0  0  0
   -5.3884   -1.7141   26.8359 C   0  0  2  0  0  0  0  0  0  0  0  0
   -5.7185   -0.3069   26.2754 C   0  0  0  0  0  0  0  0  0  0  0  0
   -5.9842    0.3292   28.6537 C   0  0  0  0  0  0  0  0  0  0  0  0
   -6.2215    0.5943   27.2321 N   0  0  0  0  0  0  0  0  0  0  0  0
   -6.6629   -2.4760   27.1384 C   0  0  0  0  0  0  0  0  0  0  0  0
   -6.5331   -3.8736   27.4452 N   0  0  0  0  0  0  0  0  0  0  0  0
   -6.5085   -6.6708   24.3064 C   0  0  0  0  0  0  0  0  0  0  0  0
   -5.3926   -6.5493   25.1231 C   0  0  0  0  0  0  0  0  0  0  0  0
   -5.4034   -5.6296   26.1646 C   0  0  0  0  0  0  0  0  0  0  0  0
   -6.5214   -4.8260   26.3796 C   0  0  0  0  0  0  0  0  0  0  0  0
   -7.6275   -4.9432   25.5562 C   0  0  0  0  0  0  0  0  0  0  0  0
   -7.6213   -5.8707   24.5213 C   0  0  0  0  0  0  0  0  0  0  0  0
  1  2  1  0  0  0  0
  2  3  2  0  0  0  0
  2 20  1  0  0  0  0
  4  6  1  0  0  0  0
  5  6  2  0  0  0  0
  5 16  1  0  0  0  0
  6  7  1  0  0  0  0
  7  8  1  0  0  0  0
  8  9  1  0  0  0  0
  8 10  2  0  0  0  0
  9 12  1  0  0  0  0
  9 16  2  0  0  0  0
 11 13  1  0  0  0  0
 11 12  1  0  0  0  0
 12 14  1  0  0  0  0
 14 15  1  0  0  0  0
 14 18  1  1  0  0  0
 15 17  1  0  0  0  0
 16 17  1  0  0  0  0
 18 19  1  0  0  0  0
 19 23  1  0  0  0  0
 20 21  2  0  0  0  0
 20 25  1  0  0  0  0
 21 22  1  0  0  0  0
 22 23  2  0  0  0  0
 23 24  1  0  0  0  0
 24 25  2  0  0  0  0
M  END
>  <CHROM.1>
-122.40610046,-68.84229395,-86.75711899,117.96535804,124.08462887,-5.76301430
-2.82191361,27.29114851,1.66747511,0.16747176,-2.45232940

>  <Name>
ligand

>  <RI>
0

>  <Rbt.Current_Directory>
/home/itssahil/PROJECTS/Mol_Feturizer/New_Systems/rnas/4LVV

>  <Rbt.Executable>
rbdock ($Id: //depot/dev/client3/rdock/2013.1/src/exe/rbdock.cxx#4 $)

>  <Rbt.Library>
libRbt.so (2013.1, Build901 2013/11/27)

>  <Rbt.Parameter_File>
/export/apps/rDock/src/rDock_2013.1_src/data/scripts/dock_solv.prm

>  <Rbt.Receptor>
prm/blind_docking_40.prm

>  <SCORE>
-13.6582

>  <SCORE.INTER>
-12.3873

>  <SCORE.INTER.CONST>
1

>  <SCORE.INTER.POLAR>
0

>  <SCORE.INTER.ROT>
5

>  <SCORE.INTER.SOLV>
15.002

>  <SCORE.INTER.VDW>
-20.1922

>  <SCORE.INTER.norm>
-0.495493

>  <SCORE.INTRA>
-1.27082

>  <SCORE.INTRA.DIHEDRAL>
0.12009

>  <SCORE.INTRA.DIHEDRAL.0>
3.94806

>  <SCORE.INTRA.POLAR>
0

>  <SCORE.INTRA.POLAR.0>
0

>  <SCORE.INTRA.REPUL>
0

>  <SCORE.INTRA.REPUL.0>
0

>  <SCORE.INTRA.SOLV>
-0.260314

>  <SCORE.INTRA.SOLV.lig_0>
-70.9803

>  <SCORE.INTRA.VDW>
-1.20071

>  <SCORE.INTRA.VDW.0>
-0.709409

>  <SCORE.INTRA.norm>
-0.0508328

>  <SCORE.RESTR>
0

>  <SCORE.RESTR.CAVITY>
0

>  <SCORE.RESTR.norm>
0

>  <SCORE.SYSTEM>
0

>  <SCORE.SYSTEM.CONST>
0

>  <SCORE.SYSTEM.DIHEDRAL>
0

>  <SCORE.SYSTEM.SOLV>
0

>  <SCORE.SYSTEM.norm>
0

>  <SCORE.heavy>
25

>  <SCORE.norm>
-0.546326

>  <RMSD>
22.237

$$$$
ligand
 OpenBabel11021811503D
libRbt.so/2013.1/901 2013/11/27
 25 27  0  0  0  0  0  0  0  0999 V2000
   -6.8347   -5.2501    8.0669 N   0  0  0  0  0  0  0  0  0  0  0  0
   -5.5078   -5.7281    8.3037 C   0  0  0  0  0  0  0  0  0  0  0  0
   -4.9128   -6.3733    7.4493 O   0  0  0  0  0  0  0  0  0  0  0  0
    2.4725   -4.5205   14.8936 N   0  0  0  0  0  0  0  0  0  0  0  0
    0.3589   -5.6170   14.5842 N   0  0  0  0  0  0  0  0  0  0  0  0
    1.1213   -4.7505   15.2904 C   0  0  0  0  0  0  0  0  0  0  0  0
    0.6223   -4.0993   16.3837 N   0  0  0  0  0  0  0  0  0  0  0  0
   -0.6528   -4.2827   16.8116 C   0  0  0  0  0  0  0  0  0  0  0  0
   -1.4870   -5.1706   16.0910 C   0  0  0  0  0  0  0  0  0  0  0  0
   -1.1013   -3.5897   17.9114 O   0  0  0  0  0  0  0  0  0  0  0  0
   -3.3171   -5.6278   17.8056 C   0  0  0  0  0  0  0  0  0  0  0  0
   -2.8619   -5.4851   16.4435 N   0  0  0  0  0  0  0  0  0  0  0  0
   -2.9890   -6.5624   18.5284 O   0  0  0  0  0  0  0  0  0  0  0  0
   -3.7059   -5.7503   15.3577 C   0  0  2  0  0  0  0  0  0  0  0  0
   -3.1277   -6.9239   14.5259 C   0  0  0  0  0  0  0  0  0  0  0  0
   -0.9370   -5.8549   14.9614 C   0  0  0  0  0  0  0  0  0  0  0  0
   -1.7694   -6.7801   14.1875 N   0  0  0  0  0  0  0  0  0  0  0  0
   -3.8728   -4.5187   14.4908 C   0  0  0  0  0  0  0  0  0  0  0  0
   -3.0821   -4.4488   13.2932 N   0  0  0  0  0  0  0  0  0  0  0  0
   -4.8537   -5.4122    9.6041 C   0  0  0  0  0  0  0  0  0  0  0  0
   -3.5749   -5.8706    9.8892 C   0  0  0  0  0  0  0  0  0  0  0  0
   -2.9921   -5.5579   11.1112 C   0  0  0  0  0  0  0  0  0  0  0  0
   -3.6814   -4.7788   12.0384 C   0  0  0  0  0  0  0  0  0  0  0  0
   -4.9520   -4.3150   11.7454 C   0  0  0  0  0  0  0  0  0  0  0  0
   -5.5395   -4.6369   10.5278 C   0  0  0  0  0  0  0  0  0  0  0  0
  1  2  1  0  0  0  0
  2  3  2  0  0  0  0
  2 20  1  0  0  0  0
  4  6  1  0  0  0  0
  5  6  2  0  0  0  0
  5 16  1  0  0  0  0
  6  7  1  0  0  0  0
  7  8  1  0  0  0  0
  8  9  1  0  0  0  0
  8 10  2  0  0  0  0
  9 12  1  0  0  0  0
  9 16  2  0  0  0  0
 11 13  1  0  0  0  0
 11 12  1  0  0  0  0
 12 14  1  0  0  0  0
 14 15  1  0  0  0  0
 14 18  1  6  0  0  0
 15 17  1  0  0  0  0
 16 17  1  0  0  0  0
 18 19  1  0  0  0  0
 19 23  1  0  0  0  0
 20 21  2  0  0  0  0
 20 25  1  0  0  0  0
 21 22  1  0  0  0  0
 22 23  2  0  0  0  0
 23 24  1  0  0  0  0
 24 25  2  0  0  0  0
M  END
>  <CHROM.1>
-69.46548678,99.90565585,100.20951256,-137.20770581,179.01734380,-2.66891128
-5.28909469,13.70527029,2.09491270,-0.13206878,-1.55934928

>  <Name>
ligand

>  <RI>
0

>  <Rbt.Current_Directory>
/home/itssahil/PROJECTS/Mol_Feturizer/New_Systems/rnas/4LVV

>  <Rbt.Executable>
rbdock ($Id: //depot/dev/client3/rdock/2013.1/src/exe/rbdock.cxx#4 $)

>  <Rbt.Library>
libRbt.so (2013.1, Build901 2013/11/27)

>  <Rbt.Parameter_File>
/export/apps/rDock/src/rDock_2013.1_src/data/scripts/dock_solv.prm

>  <Rbt.Receptor>
prm/blind_docking_20.prm

>  <SCORE>
-2.09873

>  <SCORE.INTER>
-4.68792

>  <SCORE.INTER.CONST>
1

>  <SCORE.INTER.POLAR>
0

>  <SCORE.INTER.ROT>
5

>  <SCORE.INTER.SOLV>
10.5238

>  <SCORE.INTER.VDW>
-13.5666

>  <SCORE.INTER.norm>
-0.187517

>  <SCORE.INTRA>
2.55735

>  <SCORE.INTRA.DIHEDRAL>
4.06121

>  <SCORE.INTRA.DIHEDRAL.0>
3.94806

>  <SCORE.INTRA.POLAR>
0

>  <SCORE.INTRA.POLAR.0>
0

>  <SCORE.INTRA.REPUL>
0

>  <SCORE.INTRA.REPUL.0>
0

>  <SCORE.INTRA.SOLV>
1.98

>  <SCORE.INTRA.SOLV.lig_0>
-70.9803

>  <SCORE.INTRA.VDW>
-0.46326

>  <SCORE.INTRA.VDW.0>
-0.709409

>  <SCORE.INTRA.norm>
0.102294

>  <SCORE.RESTR>
0.0318433

>  <SCORE.RESTR.CAVITY>
0.0318433

>  <SCORE.RESTR.norm>
0.00127373

>  <SCORE.SYSTEM>
0

>  <SCORE.SYSTEM.CONST>
0

>  <SCORE.SYSTEM.DIHEDRAL>
0

>  <SCORE.SYSTEM.SOLV>
0

>  <SCORE.SYSTEM.norm>
0

>  <SCORE.heavy>
25

>  <SCORE.norm>
-0.0839491

>  <RMSD>
22.250

$$$$
ligand
 OpenBabel11021811503D
libRbt.so/2013.1/901 2013/11/27
 25 27  0  0  0  0  0  0  0  0999 V2000
   -9.1149   -6.7057   20.3950 N   0  0  0  0  0  0  0  0  0  0  0  0
   -7.9325   -7.2770   20.9615 C   0  0  0  0  0  0  0  0  0  0  0  0
   -7.3449   -8.1902   20.3950 O   0  0  0  0  0  0  0  0  0  0  0  0
   -7.6038    1.9499   27.1251 N   0  0  0  0  0  0  0  0  0  0  0  0
   -6.4070   -0.0812   27.5808 N   0  0  0  0  0  0  0  0  0  0  0  0
   -7.5840    0.5849   27.5407 C   0  0  0  0  0  0  0  0  0  0  0  0
   -8.7533   -0.0243   27.9013 N   0  0  0  0  0  0  0  0  0  0  0  0
   -8.7951   -1.3179   28.3105 C   0  0  0  0  0  0  0  0  0  0  0  0
   -7.5865   -2.0536   28.3525 C   0  0  0  0  0  0  0  0  0  0  0  0
  -10.0038   -1.8794   28.6491 O   0  0  0  0  0  0  0  0  0  0  0  0
   -8.2377   -3.9836   29.8852 C   0  0  0  0  0  0  0  0  0  0  0  0
   -7.4727   -3.4348   28.7915 N   0  0  0  0  0  0  0  0  0  0  0  0
   -8.6530   -3.3069   30.8198 O   0  0  0  0  0  0  0  0  0  0  0  0
   -6.4801   -4.1819   28.1447 C   0  0  2  0  0  0  0  0  0  0  0  0
   -5.1057   -3.4890   28.3304 C   0  0  0  0  0  0  0  0  0  0  0  0
   -6.3729   -1.3893   27.9885 C   0  0  0  0  0  0  0  0  0  0  0  0
   -5.1013   -2.1173   28.0160 N   0  0  0  0  0  0  0  0  0  0  0  0
   -6.7982   -4.3407   26.6716 C   0  0  0  0  0  0  0  0  0  0  0  0
   -5.9957   -5.2695   25.9249 N   0  0  0  0  0  0  0  0  0  0  0  0
   -7.4171   -6.7291   22.2472 C   0  0  0  0  0  0  0  0  0  0  0  0
   -7.0404   -5.3974   22.3549 C   0  0  0  0  0  0  0  0  0  0  0  0
   -6.5642   -4.9168   23.5686 C   0  0  0  0  0  0  0  0  0  0  0  0
   -6.4778   -5.7623   24.6729 C   0  0  0  0  0  0  0  0  0  0  0  0
   -6.8647   -7.0866   24.5635 C   0  0  0  0  0  0  0  0  0  0  0  0
   -7.3305   -7.5704   23.3469 C   0  0  0  0  0  0  0  0  0  0  0  0
  1  2  1  0  0  0  0
  2  3  2  0  0  0  0
  2 20  1  0  0  0  0
  4  6  1  0  0  0  0
  5  6  2  0  0  0  0
  5 16  1  0  0  0  0
  6  7  1  0  0  0  0
  7  8  1  0  0  0  0
  8  9  1  0  0  0  0
  8 10  2  0  0  0  0
  9 12  1  0  0  0  0
  9 16  2  0  0  0  0
 11 13  1  0  0  0  0
 11 12  1  0  0  0  0
 12 14  1  0  0  0  0
 14 15  1  0  0  0  0
 14 18  1  6  0  0  0
 15 17  1  0  0  0  0
 16 17  1  0  0  0  0
 18 19  1  0  0  0  0
 19 23  1  0  0  0  0
 20 21  2  0  0  0  0
 20 25  1  0  0  0  0
 21 22  1  0  0  0  0
 22 23  2  0  0  0  0
 23 24  1  0  0  0  0
 24 25  2  0  0  0  0
M  END
>  <CHROM.1>
-27.46347890,-169.70907935,161.34513494,69.55215986,-60.07368122,-7.35145957
-3.72480720,26.18429643,1.44806191,1.39888717,-2.15928154

>  <Name>
ligand

>  <RI>
0

>  <Rbt.Current_Directory>
/home/itssahil/PROJECTS/Mol_Feturizer/New_Systems/rnas/4LVV

>  <Rbt.Executable>
rbdock ($Id: //depot/dev/client3/rdock/2013.1/src/exe/rbdock.cxx#4 $)

>  <Rbt.Library>
libRbt.so (2013.1, Build901 2013/11/27)

>  <Rbt.Parameter_File>
/export/apps/rDock/src/rDock_2013.1_src/data/scripts/dock_solv.prm

>  <Rbt.Receptor>
prm/blind_docking_80.prm

>  <SCORE>
-10.5977

>  <SCORE.INTER>
-9.6067

>  <SCORE.INTER.CONST>
1

>  <SCORE.INTER.POLAR>
0

>  <SCORE.INTER.ROT>
5

>  <SCORE.INTER.SOLV>
10.4389

>  <SCORE.INTER.VDW>
-16.8174

>  <SCORE.INTER.norm>
-0.384268

>  <SCORE.INTRA>
-0.991026

>  <SCORE.INTRA.DIHEDRAL>
0.115322

>  <SCORE.INTRA.DIHEDRAL.0>
3.94806

>  <SCORE.INTRA.POLAR>
0

>  <SCORE.INTRA.POLAR.0>
0

>  <SCORE.INTRA.REPUL>
0

>  <SCORE.INTRA.REPUL.0>
0

>  <SCORE.INTRA.SOLV>
-0.211867

>  <SCORE.INTRA.SOLV.lig_0>
-70.9803

>  <SCORE.INTRA.VDW>
-0.942754

>  <SCORE.INTRA.VDW.0>
-0.709409

>  <SCORE.INTRA.norm>
-0.0396411

>  <SCORE.RESTR>
0

>  <SCORE.RESTR.CAVITY>
0

>  <SCORE.RESTR.norm>
0

>  <SCORE.SYSTEM>
0

>  <SCORE.SYSTEM.CONST>
0

>  <SCORE.SYSTEM.DIHEDRAL>
0

>  <SCORE.SYSTEM.SOLV>
0

>  <SCORE.SYSTEM.norm>
0

>  <SCORE.heavy>
25

>  <SCORE.norm>
-0.423909

>  <RMSD>
22.261

$$$$
ligand
 OpenBabel11021811503D
libRbt.so/2013.1/901 2013/11/27
 25 27  0  0  0  0  0  0  0  0999 V2000
    2.4880   -4.0045   14.9045 N   0  0  0  0  0  0  0  0  0  0  0  0
    1.5508   -4.0842   15.9819 C   0  0  0  0  0  0  0  0  0  0  0  0
    1.8245   -3.6275   17.0849 O   0  0  0  0  0  0  0  0  0  0  0  0
   -6.2459   -5.7484    8.0520 N   0  0  0  0  0  0  0  0  0  0  0  0
   -4.8297   -5.0719    9.8691 N   0  0  0  0  0  0  0  0  0  0  0  0
   -6.0771   -5.2926    9.3936 C   0  0  0  0  0  0  0  0  0  0  0  0
   -7.1789   -5.0766   10.1732 N   0  0  0  0  0  0  0  0  0  0  0  0
   -7.0803   -4.6378   11.4539 C   0  0  0  0  0  0  0  0  0  0  0  0
   -5.7918   -4.4087   11.9932 C   0  0  0  0  0  0  0  0  0  0  0  0
   -8.2249   -4.4504   12.1926 O   0  0  0  0  0  0  0  0  0  0  0  0
   -6.3495   -2.9212   13.9868 C   0  0  0  0  0  0  0  0  0  0  0  0
   -5.5316   -3.9165   13.3361 N   0  0  0  0  0  0  0  0  0  0  0  0
   -7.1413   -2.2046   13.3840 O   0  0  0  0  0  0  0  0  0  0  0  0
   -4.3565   -4.3986   13.9264 C   0  0  2  0  0  0  0  0  0  0  0  0
   -3.1430   -4.0482   13.0275 C   0  0  0  0  0  0  0  0  0  0  0  0
   -4.6544   -4.6237   11.1524 C   0  0  0  0  0  0  0  0  0  0  0  0
   -3.3034   -4.4007   11.6746 N   0  0  0  0  0  0  0  0  0  0  0  0
   -4.4381   -5.8958   14.1459 C   0  0  0  0  0  0  0  0  0  0  0  0
   -3.5495   -6.4639   15.1215 N   0  0  0  0  0  0  0  0  0  0  0  0
    0.2262   -4.7186   15.7340 C   0  0  0  0  0  0  0  0  0  0  0  0
    0.0843   -5.7291   14.7929 C   0  0  0  0  0  0  0  0  0  0  0  0
   -1.1650   -6.3012   14.5857 C   0  0  0  0  0  0  0  0  0  0  0  0
   -2.2646   -5.8725   15.3265 C   0  0  0  0  0  0  0  0  0  0  0  0
   -2.1161   -4.8721   16.2713 C   0  0  0  0  0  0  0  0  0  0  0  0
   -0.8692   -4.2921   16.4709 C   0  0  0  0  0  0  0  0  0  0  0  0
  1  2  1  0  0  0  0
  2  3  2  0  0  0  0
  2 20  1  0  0  0  0
  4  6  1  0  0  0  0
  5  6  2  0  0  0  0
  5 16  1  0  0  0  0
  6  7  1  0  0  0  0
  7  8  1  0  0  0  0
  8  9  1  0  0  0  0
  8 10  2  0  0  0  0
  9 12  1  0  0  0  0
  9 16  2  0  0  0  0
 11 13  1  0  0  0  0
 11 12  1  0  0  0  0
 12 14  1  0  0  0  0
 14 15  1  0  0  0  0
 14 18  1  6  0  0  0
 15 17  1  0  0  0  0
 16 17  1  0  0  0  0
 18 19  1  0  0  0  0
 19 23  1  0  0  0  0
 20 21  2  0  0  0  0
 20 25  1  0  0  0  0
 21 22  1  0  0  0  0
 22 23  2  0  0  0  0
 23 24  1  0  0  0  0
 24 25  2  0  0  0  0
M  END
>  <CHROM.1>
-16.20505001,-159.46657917,-31.78464337,-90.07052271,30.15159296,-3.60457722
-4.64079940,13.33818448,-0.57479527,0.19852368,-1.86882410

>  <Name>
ligand

>  <RI>
0

>  <Rbt.Current_Directory>
/home/itssahil/PROJECTS/Mol_Feturizer/New_Systems/rnas/4LVV

>  <Rbt.Executable>
rbdock ($Id: //depot/dev/client3/rdock/2013.1/src/exe/rbdock.cxx#4 $)

>  <Rbt.Library>
libRbt.so (2013.1, Build901 2013/11/27)

>  <Rbt.Parameter_File>
/export/apps/rDock/src/rDock_2013.1_src/data/scripts/dock_solv.prm

>  <Rbt.Receptor>
prm/blind_docking_20.prm

>  <SCORE>
-5.53887

>  <SCORE.INTER>
-5.12866

>  <SCORE.INTER.CONST>
1

>  <SCORE.INTER.POLAR>
0

>  <SCORE.INTER.ROT>
5

>  <SCORE.INTER.SOLV>
11.0541

>  <SCORE.INTER.VDW>
-14.0371

>  <SCORE.INTER.norm>
-0.205147

>  <SCORE.INTRA>
-0.411387

>  <SCORE.INTRA.DIHEDRAL>
1.35727

>  <SCORE.INTRA.DIHEDRAL.0>
3.94806

>  <SCORE.INTRA.POLAR>
0

>  <SCORE.INTRA.POLAR.0>
0

>  <SCORE.INTRA.REPUL>
0

>  <SCORE.INTRA.REPUL.0>
0

>  <SCORE.INTRA.SOLV>
-0.256403

>  <SCORE.INTRA.SOLV.lig_0>
-70.9803

>  <SCORE.INTRA.VDW>
-0.96182

>  <SCORE.INTRA.VDW.0>
-0.709409

>  <SCORE.INTRA.norm>
-0.0164555

>  <SCORE.RESTR>
0.00117539

>  <SCORE.RESTR.CAVITY>
0.00117539

>  <SCORE.RESTR.norm>
4.70157e-05

>  <SCORE.SYSTEM>
0

>  <SCORE.SYSTEM.CONST>
0

>  <SCORE.SYSTEM.DIHEDRAL>
0

>  <SCORE.SYSTEM.SOLV>
0

>  <SCORE.SYSTEM.norm>
0

>  <SCORE.heavy>
25

>  <SCORE.norm>
-0.221555

>  <RMSD>
22.354

$$$$
ligand
 OpenBabel11021811503D
libRbt.so/2013.1/901 2013/11/27
 25 27  0  0  0  0  0  0  0  0999 V2000
    2.4694   -4.0095   14.8612 N   0  0  0  0  0  0  0  0  0  0  0  0
    1.5694   -4.1428   15.9646 C   0  0  0  0  0  0  0  0  0  0  0  0
    1.8865   -3.7536   17.0818 O   0  0  0  0  0  0  0  0  0  0  0  0
   -6.2229   -5.7455    8.0463 N   0  0  0  0  0  0  0  0  0  0  0  0
   -4.8117   -5.0652    9.8659 N   0  0  0  0  0  0  0  0  0  0  0  0
   -6.0582   -5.2771    9.3840 C   0  0  0  0  0  0  0  0  0  0  0  0
   -7.1628   -5.0403   10.1535 N   0  0  0  0  0  0  0  0  0  0  0  0
   -7.0681   -4.5887   11.4301 C   0  0  0  0  0  0  0  0  0  0  0  0
   -5.7808   -4.3683   11.9759 C   0  0  0  0  0  0  0  0  0  0  0  0
   -8.2156   -4.3805   12.1586 O   0  0  0  0  0  0  0  0  0  0  0  0
   -6.3355   -2.8530   13.9494 C   0  0  0  0  0  0  0  0  0  0  0  0
   -5.5245   -3.8644   13.3153 N   0  0  0  0  0  0  0  0  0  0  0  0
   -7.1760   -2.1926   13.3484 O   0  0  0  0  0  0  0  0  0  0  0  0
   -4.3590   -4.3532   13.9189 C   0  0  2  0  0  0  0  0  0  0  0  0
   -3.1354   -4.0262   13.0248 C   0  0  0  0  0  0  0  0  0  0  0  0
   -4.6402   -4.6051   11.1455 C   0  0  0  0  0  0  0  0  0  0  0  0
   -3.2904   -4.3915   11.6747 N   0  0  0  0  0  0  0  0  0  0  0  0
   -4.4589   -5.8469   14.1540 C   0  0  0  0  0  0  0  0  0  0  0  0
   -3.5871   -6.4135   15.1454 N   0  0  0  0  0  0  0  0  0  0  0  0
    0.2296   -4.7489   15.7274 C   0  0  0  0  0  0  0  0  0  0  0  0
    0.0593   -5.7580   14.7896 C   0  0  0  0  0  0  0  0  0  0  0  0
   -1.2035   -6.3034   14.5924 C   0  0  0  0  0  0  0  0  0  0  0  0
   -2.2883   -5.8496   15.3401 C   0  0  0  0  0  0  0  0  0  0  0  0
   -2.1116   -4.8508   16.2816 C   0  0  0  0  0  0  0  0  0  0  0  0
   -0.8510   -4.2974   16.4712 C   0  0  0  0  0  0  0  0  0  0  0  0
  1  2  1  0  0  0  0
  2  3  2  0  0  0  0
  2 20  1  0  0  0  0
  4  6  1  0  0  0  0
  5  6  2  0  0  0  0
  5 16  1  0  0  0  0
  6  7  1  0  0  0  0
  7  8  1  0  0  0  0
  8  9  1  0  0  0  0
  8 10  2  0  0  0  0
  9 12  1  0  0  0  0
  9 16  2  0  0  0  0
 11 13  1  0  0  0  0
 11 12  1  0  0  0  0
 12 14  1  0  0  0  0
 14 15  1  0  0  0  0
 14 18  1  6  0  0  0
 15 17  1  0  0  0  0
 16 17  1  0  0  0  0
 18 19  1  0  0  0  0
 19 23  1  0  0  0  0
 20 21  2  0  0  0  0
 20 25  1  0  0  0  0
 21 22  1  0  0  0  0
 22 23  2  0  0  0  0
 23 24  1  0  0  0  0
 24 25  2  0  0  0  0
M  END
>  <CHROM.1>
-11.41255628,-159.23844147,-32.98217701,-88.69148600,34.00269521,-3.60150533
-4.62734474,13.32824204,-0.57267824,0.20634706,-1.86520213

>  <Name>
ligand

>  <RI>
0

>  <Rbt.Current_Directory>
/home/itssahil/PROJECTS/Mol_Feturizer/New_Systems/rnas/4LVV

>  <Rbt.Executable>
rbdock ($Id: //depot/dev/client3/rdock/2013.1/src/exe/rbdock.cxx#4 $)

>  <Rbt.Library>
libRbt.so (2013.1, Build901 2013/11/27)

>  <Rbt.Parameter_File>
/export/apps/rDock/src/rDock_2013.1_src/data/scripts/dock_solv.prm

>  <Rbt.Receptor>
prm/blind_docking_20.prm

>  <SCORE>
-5.5062

>  <SCORE.INTER>
-5.08362

>  <SCORE.INTER.CONST>
1

>  <SCORE.INTER.POLAR>
0

>  <SCORE.INTER.ROT>
5

>  <SCORE.INTER.SOLV>
10.8515

>  <SCORE.INTER.VDW>
-13.9396

>  <SCORE.INTER.norm>
-0.203345

>  <SCORE.INTRA>
-0.422584

>  <SCORE.INTRA.DIHEDRAL>
1.32114

>  <SCORE.INTRA.DIHEDRAL.0>
3.94806

>  <SCORE.INTRA.POLAR>
0

>  <SCORE.INTRA.POLAR.0>
0

>  <SCORE.INTRA.REPUL>
0

>  <SCORE.INTRA.REPUL.0>
0

>  <SCORE.INTRA.SOLV>
-0.244339

>  <SCORE.INTRA.SOLV.lig_0>
-70.9803

>  <SCORE.INTRA.VDW>
-0.960983

>  <SCORE.INTRA.VDW.0>
-0.709409

>  <SCORE.INTRA.norm>
-0.0169033

>  <SCORE.RESTR>
0

>  <SCORE.RESTR.CAVITY>
0

>  <SCORE.RESTR.norm>
0

>  <SCORE.SYSTEM>
0

>  <SCORE.SYSTEM.CONST>
0

>  <SCORE.SYSTEM.DIHEDRAL>
0

>  <SCORE.SYSTEM.SOLV>
0

>  <SCORE.SYSTEM.norm>
0

>  <SCORE.heavy>
25

>  <SCORE.norm>
-0.220248

>  <RMSD>
22.367

$$$$
ligand
 OpenBabel11021811503D
libRbt.so/2013.1/901 2013/11/27
 25 27  0  0  0  0  0  0  0  0999 V2000
    2.3299   -4.2078   16.8587 N   0  0  0  0  0  0  0  0  0  0  0  0
    1.8008   -4.4504   15.5523 C   0  0  0  0  0  0  0  0  0  0  0  0
    2.5034   -4.3190   14.5578 O   0  0  0  0  0  0  0  0  0  0  0  0
   -5.2782   -6.1662    7.5848 N   0  0  0  0  0  0  0  0  0  0  0  0
   -4.1425   -5.2951    9.5126 N   0  0  0  0  0  0  0  0  0  0  0  0
   -5.3071   -5.5840    8.8872 C   0  0  0  0  0  0  0  0  0  0  0  0
   -6.5109   -5.3181    9.4775 N   0  0  0  0  0  0  0  0  0  0  0  0
   -6.6004   -4.7598   10.7116 C   0  0  0  0  0  0  0  0  0  0  0  0
   -5.4043   -4.4559   11.4048 C   0  0  0  0  0  0  0  0  0  0  0  0
   -7.8405   -4.5271   11.2582 O   0  0  0  0  0  0  0  0  0  0  0  0
   -6.2524   -2.8002   13.1478 C   0  0  0  0  0  0  0  0  0  0  0  0
   -5.3432   -3.8354   12.7182 N   0  0  0  0  0  0  0  0  0  0  0  0
   -7.1214   -2.9792   13.9943 O   0  0  0  0  0  0  0  0  0  0  0  0
   -4.2622   -4.2369   13.5132 C   0  0  2  0  0  0  0  0  0  0  0  0
   -2.9342   -3.9478   12.7673 C   0  0  0  0  0  0  0  0  0  0  0  0
   -4.1564   -4.7257   10.7592 C   0  0  0  0  0  0  0  0  0  0  0  0
   -2.8961   -4.4281   11.4451 N   0  0  0  0  0  0  0  0  0  0  0  0
   -4.3651   -5.7083   13.8603 C   0  0  0  0  0  0  0  0  0  0  0  0
   -3.5963   -6.1717   14.9821 N   0  0  0  0  0  0  0  0  0  0  0  0
    0.3814   -4.8833   15.4231 C   0  0  0  0  0  0  0  0  0  0  0  0
   -0.6413   -4.1642   16.0262 C   0  0  0  0  0  0  0  0  0  0  0  0
   -1.9553   -4.5940   15.8861 C   0  0  0  0  0  0  0  0  0  0  0  0
   -2.2453   -5.7311   15.1348 C   0  0  0  0  0  0  0  0  0  0  0  0
   -1.2233   -6.4388   14.5264 C   0  0  0  0  0  0  0  0  0  0  0  0
    0.0920   -6.0156   14.6755 C   0  0  0  0  0  0  0  0  0  0  0  0
  1  2  1  0  0  0  0
  2  3  2  0  0  0  0
  2 20  1  0  0  0  0
  4  6  1  0  0  0  0
  5  6  2  0  0  0  0
  5 16  1  0  0  0  0
  6  7  1  0  0  0  0
  7  8  1  0  0  0  0
  8  9  1  0  0  0  0
  8 10  2  0  0  0  0
  9 12  1  0  0  0  0
  9 16  2  0  0  0  0
 11 13  1  0  0  0  0
 11 12  1  0  0  0  0
 12 14  1  0  0  0  0
 14 15  1  0  0  0  0
 14 18  1  6  0  0  0
 15 17  1  0  0  0  0
 16 17  1  0  0  0  0
 18 19  1  0  0  0  0
 19 23  1  0  0  0  0
 20 21  2  0  0  0  0
 20 25  1  0  0  0  0
 21 22  1  0  0  0  0
 22 23  2  0  0  0  0
 23 24  1  0  0  0  0
 24 25  2  0  0  0  0
M  END
>  <CHROM.1>
109.30219678,-160.97992384,-43.56937875,91.62581805,52.36232176,-3.31444134
-4.75740991,12.95343452,-0.61124667,0.19129822,-1.83424224

>  <Name>
ligand

>  <RI>
0

>  <Rbt.Current_Directory>
/home/itssahil/PROJECTS/Mol_Feturizer/New_Systems/rnas/4LVV

>  <Rbt.Executable>
rbdock ($Id: //depot/dev/client3/rdock/2013.1/src/exe/rbdock.cxx#4 $)

>  <Rbt.Library>
libRbt.so (2013.1, Build901 2013/11/27)

>  <Rbt.Parameter_File>
/export/apps/rDock/src/rDock_2013.1_src/data/scripts/dock_solv.prm

>  <Rbt.Receptor>
prm/blind_docking_20.prm

>  <SCORE>
-4.86248

>  <SCORE.INTER>
-3.82308

>  <SCORE.INTER.CONST>
1

>  <SCORE.INTER.POLAR>
0

>  <SCORE.INTER.ROT>
5

>  <SCORE.INTER.SOLV>
11.4265

>  <SCORE.INTER.VDW>
-13.2909

>  <SCORE.INTER.norm>
-0.152923

>  <SCORE.INTRA>
-1.0394

>  <SCORE.INTRA.DIHEDRAL>
0.820688

>  <SCORE.INTRA.DIHEDRAL.0>
3.94806

>  <SCORE.INTRA.POLAR>
0

>  <SCORE.INTRA.POLAR.0>
0

>  <SCORE.INTRA.REPUL>
0

>  <SCORE.INTRA.REPUL.0>
0

>  <SCORE.INTRA.SOLV>
-0.320882

>  <SCORE.INTRA.SOLV.lig_0>
-70.9803

>  <SCORE.INTRA.VDW>
-1.2893

>  <SCORE.INTRA.VDW.0>
-0.709409

>  <SCORE.INTRA.norm>
-0.0415759

>  <SCORE.RESTR>
0

>  <SCORE.RESTR.CAVITY>
0

>  <SCORE.RESTR.norm>
0

>  <SCORE.SYSTEM>
0

>  <SCORE.SYSTEM.CONST>
0

>  <SCORE.SYSTEM.DIHEDRAL>
0

>  <SCORE.SYSTEM.SOLV>
0

>  <SCORE.SYSTEM.norm>
0

>  <SCORE.heavy>
25

>  <SCORE.norm>
-0.194499

>  <RMSD>
22.388

$$$$
ligand
 OpenBabel11021811503D
libRbt.so/2013.1/901 2013/11/27
 25 27  0  0  0  0  0  0  0  0999 V2000
   -9.6741   -0.3490   33.8978 N   0  0  0  0  0  0  0  0  0  0  0  0
   -8.9168   -0.0552   32.7207 C   0  0  0  0  0  0  0  0  0  0  0  0
   -9.3149    0.7725   31.9103 O   0  0  0  0  0  0  0  0  0  0  0  0
   -0.4114   -8.1524   28.0470 N   0  0  0  0  0  0  0  0  0  0  0  0
   -0.5677   -5.9850   29.0683 N   0  0  0  0  0  0  0  0  0  0  0  0
   -1.0235   -6.8675   28.1494 C   0  0  0  0  0  0  0  0  0  0  0  0
   -2.0536   -6.5455   27.3107 N   0  0  0  0  0  0  0  0  0  0  0  0
   -2.6700   -5.3370   27.3578 C   0  0  0  0  0  0  0  0  0  0  0  0
   -2.2318   -4.3910   28.3152 C   0  0  0  0  0  0  0  0  0  0  0  0
   -3.7090   -5.0758   26.4957 O   0  0  0  0  0  0  0  0  0  0  0  0
   -3.1897   -2.2344   27.3509 C   0  0  0  0  0  0  0  0  0  0  0  0
   -2.7777   -3.0521   28.4664 N   0  0  0  0  0  0  0  0  0  0  0  0
   -2.4192   -1.8577   26.4743 O   0  0  0  0  0  0  0  0  0  0  0  0
   -2.7788   -2.5574   29.7768 C   0  0  2  0  0  0  0  0  0  0  0  0
   -1.3330   -2.5682   30.3364 C   0  0  0  0  0  0  0  0  0  0  0  0
   -1.1398   -4.7436   29.1696 C   0  0  0  0  0  0  0  0  0  0  0  0
   -0.6588   -3.7929   30.1757 N   0  0  0  0  0  0  0  0  0  0  0  0
   -3.6954   -3.3773   30.6622 C   0  0  0  0  0  0  0  0  0  0  0  0
   -4.0092   -2.8387   31.9566 N   0  0  0  0  0  0  0  0  0  0  0  0
   -7.6238   -0.7625   32.5054 C   0  0  0  0  0  0  0  0  0  0  0  0
   -6.5277   -0.0983   31.9723 C   0  0  0  0  0  0  0  0  0  0  0  0
   -5.3351   -0.7864   31.7846 C   0  0  0  0  0  0  0  0  0  0  0  0
   -5.2365   -2.1298   32.1411 C   0  0  0  0  0  0  0  0  0  0  0  0
   -6.3288   -2.7850   32.6823 C   0  0  0  0  0  0  0  0  0  0  0  0
   -7.5250   -2.1002   32.8599 C   0  0  0  0  0  0  0  0  0  0  0  0
  1  2  1  0  0  0  0
  2  3  2  0  0  0  0
  2 20  1  0  0  0  0
  4  6  1  0  0  0  0
  5  6  2  0  0  0  0
  5 16  1  0  0  0  0
  6  7  1  0  0  0  0
  7  8  1  0  0  0  0
  8  9  1  0  0  0  0
  8 10  2  0  0  0  0
  9 12  1  0  0  0  0
  9 16  2  0  0  0  0
 11 13  1  0  0  0  0
 11 12  1  0  0  0  0
 12 14  1  0  0  0  0
 14 15  1  0  0  0  0
 14 18  1  1  0  0  0
 15 17  1  0  0  0  0
 16 17  1  0  0  0  0
 18 19  1  0  0  0  0
 19 23  1  0  0  0  0
 20 21  2  0  0  0  0
 20 25  1  0  0  0  0
 21 22  1  0  0  0  0
 22 23  2  0  0  0  0
 23 24  1  0  0  0  0
 24 25  2  0  0  0  0
M  END
>  <CHROM.1>
-62.08923464,-167.86907777,97.64855240,-82.24986858,-141.10570502,-4.00912834
-3.11414269,29.97882241,-2.87455542,0.76750297,-1.19087697

>  <Name>
ligand

>  <RI>
0

>  <Rbt.Current_Directory>
/home/itssahil/PROJECTS/Mol_Feturizer/New_Systems/rnas/4LVV

>  <Rbt.Executable>
rbdock ($Id: //depot/dev/client3/rdock/2013.1/src/exe/rbdock.cxx#4 $)

>  <Rbt.Library>
libRbt.so (2013.1, Build901 2013/11/27)

>  <Rbt.Parameter_File>
/export/apps/rDock/src/rDock_2013.1_src/data/scripts/dock_solv.prm

>  <Rbt.Receptor>
prm/blind_docking_80.prm

>  <SCORE>
-10.6712

>  <SCORE.INTER>
-9.69636

>  <SCORE.INTER.CONST>
1

>  <SCORE.INTER.POLAR>
0

>  <SCORE.INTER.ROT>
5

>  <SCORE.INTER.SOLV>
12.9767

>  <SCORE.INTER.VDW>
-17.7231

>  <SCORE.INTER.norm>
-0.387854

>  <SCORE.INTRA>
-0.974806

>  <SCORE.INTRA.DIHEDRAL>
0.651025

>  <SCORE.INTRA.DIHEDRAL.0>
3.94806

>  <SCORE.INTRA.POLAR>
0

>  <SCORE.INTRA.POLAR.0>
0

>  <SCORE.INTRA.REPUL>
0

>  <SCORE.INTRA.REPUL.0>
0

>  <SCORE.INTRA.SOLV>
-0.363335

>  <SCORE.INTRA.SOLV.lig_0>
-70.9803

>  <SCORE.INTRA.VDW>
-1.11865

>  <SCORE.INTRA.VDW.0>
-0.709409

>  <SCORE.INTRA.norm>
-0.0389923

>  <SCORE.RESTR>
0

>  <SCORE.RESTR.CAVITY>
0

>  <SCORE.RESTR.norm>
0

>  <SCORE.SYSTEM>
0

>  <SCORE.SYSTEM.CONST>
0

>  <SCORE.SYSTEM.DIHEDRAL>
0

>  <SCORE.SYSTEM.SOLV>
0

>  <SCORE.SYSTEM.norm>
0

>  <SCORE.heavy>
25

>  <SCORE.norm>
-0.426847

>  <RMSD>
22.402

$$$$
ligand
 OpenBabel11021811503D
libRbt.so/2013.1/901 2013/11/27
 25 27  0  0  0  0  0  0  0  0999 V2000
  -10.1371   -0.7150   31.9281 N   0  0  0  0  0  0  0  0  0  0  0  0
   -9.0299   -0.2427   32.7003 C   0  0  0  0  0  0  0  0  0  0  0  0
   -9.1676    0.6814   33.4924 O   0  0  0  0  0  0  0  0  0  0  0  0
   -0.5680   -8.1901   28.0735 N   0  0  0  0  0  0  0  0  0  0  0  0
   -0.6194   -6.0189   29.0977 N   0  0  0  0  0  0  0  0  0  0  0  0
   -1.1260   -6.8816   28.1866 C   0  0  0  0  0  0  0  0  0  0  0  0
   -2.1564   -6.5176   27.3656 N   0  0  0  0  0  0  0  0  0  0  0  0
   -2.7227   -5.2854   27.4234 C   0  0  0  0  0  0  0  0  0  0  0  0
   -2.2305   -4.3586   28.3733 C   0  0  0  0  0  0  0  0  0  0  0  0
   -3.7649   -4.9818   26.5792 O   0  0  0  0  0  0  0  0  0  0  0  0
   -3.1170   -2.1643   27.4258 C   0  0  0  0  0  0  0  0  0  0  0  0
   -2.7194   -2.9989   28.5340 N   0  0  0  0  0  0  0  0  0  0  0  0
   -2.3546   -1.8424   26.5208 O   0  0  0  0  0  0  0  0  0  0  0  0
   -2.6782   -2.5057   29.8443 C   0  0  2  0  0  0  0  0  0  0  0  0
   -1.2247   -2.5751   30.3792 C   0  0  0  0  0  0  0  0  0  0  0  0
   -1.1392   -4.7556   29.2089 C   0  0  0  0  0  0  0  0  0  0  0  0
   -0.6032   -3.8259   30.2068 N   0  0  0  0  0  0  0  0  0  0  0  0
   -3.6119   -3.2887   30.7451 C   0  0  0  0  0  0  0  0  0  0  0  0
   -3.9411   -2.7025   32.0148 N   0  0  0  0  0  0  0  0  0  0  0  0
   -7.7068   -0.9071   32.5368 C   0  0  0  0  0  0  0  0  0  0  0  0
   -7.5222   -2.2307   32.9122 C   0  0  0  0  0  0  0  0  0  0  0  0
   -6.2758   -2.8220   32.7460 C   0  0  0  0  0  0  0  0  0  0  0  0
   -5.2224   -2.0953   32.1944 C   0  0  0  0  0  0  0  0  0  0  0  0
   -5.4142   -0.7793   31.8116 C   0  0  0  0  0  0  0  0  0  0  0  0
   -6.6576   -0.1842   31.9880 C   0  0  0  0  0  0  0  0  0  0  0  0
  1  2  1  0  0  0  0
  2  3  2  0  0  0  0
  2 20  1  0  0  0  0
  4  6  1  0  0  0  0
  5  6  2  0  0  0  0
  5 16  1  0  0  0  0
  6  7  1  0  0  0  0
  7  8  1  0  0  0  0
  8  9  1  0  0  0  0
  8 10  2  0  0  0  0
  9 12  1  0  0  0  0
  9 16  2  0  0  0  0
 11 13  1  0  0  0  0
 11 12  1  0  0  0  0
 12 14  1  0  0  0  0
 14 15  1  0  0  0  0
 14 18  1  1  0  0  0
 15 17  1  0  0  0  0
 16 17  1  0  0  0  0
 18 19  1  0  0  0  0
 19 23  1  0  0  0  0
 20 21  2  0  0  0  0
 20 25  1  0  0  0  0
 21 22  1  0  0  0  0
 22 23  2  0  0  0  0
 23 24  1  0  0  0  0
 24 25  2  0  0  0  0
M  END
>  <CHROM.1>
-60.43232217,-164.47006732,103.74245650,94.77141805,-65.40416663,-4.02907531
-3.13303350,30.01580702,2.73055520,-0.69286853,1.73489134

>  <Name>
ligand

>  <RI>
0

>  <Rbt.Current_Directory>
/home/itssahil/PROJECTS/Mol_Feturizer/New_Systems/rnas/4LVV

>  <Rbt.Executable>
rbdock ($Id: //depot/dev/client3/rdock/2013.1/src/exe/rbdock.cxx#4 $)

>  <Rbt.Library>
libRbt.so (2013.1, Build901 2013/11/27)

>  <Rbt.Parameter_File>
/export/apps/rDock/src/rDock_2013.1_src/data/scripts/dock_solv.prm

>  <Rbt.Receptor>
prm/blind_docking_100.prm

>  <SCORE>
-10.9578

>  <SCORE.INTER>
-10.0576

>  <SCORE.INTER.CONST>
1

>  <SCORE.INTER.POLAR>
0

>  <SCORE.INTER.ROT>
5

>  <SCORE.INTER.SOLV>
11.8844

>  <SCORE.INTER.VDW>
-17.5999

>  <SCORE.INTER.norm>
-0.402305

>  <SCORE.INTRA>
-0.900214

>  <SCORE.INTRA.DIHEDRAL>
1.09887

>  <SCORE.INTRA.DIHEDRAL.0>
3.94806

>  <SCORE.INTRA.POLAR>
0

>  <SCORE.INTRA.POLAR.0>
0

>  <SCORE.INTRA.REPUL>
0

>  <SCORE.INTRA.REPUL.0>
0

>  <SCORE.INTRA.SOLV>
-0.419331

>  <SCORE.INTRA.SOLV.lig_0>
-70.9803

>  <SCORE.INTRA.VDW>
-1.23998

>  <SCORE.INTRA.VDW.0>
-0.709409

>  <SCORE.INTRA.norm>
-0.0360086

>  <SCORE.RESTR>
0

>  <SCORE.RESTR.CAVITY>
0

>  <SCORE.RESTR.norm>
0

>  <SCORE.SYSTEM>
0

>  <SCORE.SYSTEM.CONST>
0

>  <SCORE.SYSTEM.DIHEDRAL>
0

>  <SCORE.SYSTEM.SOLV>
0

>  <SCORE.SYSTEM.norm>
0

>  <SCORE.heavy>
25

>  <SCORE.norm>
-0.438314

>  <RMSD>
22.403

$$$$
ligand
 OpenBabel11021811503D
libRbt.so/2013.1/901 2013/11/27
 25 27  0  0  0  0  0  0  0  0999 V2000
   -8.1657   -5.2102    8.8959 N   0  0  0  0  0  0  0  0  0  0  0  0
   -6.7824   -4.9907    9.1853 C   0  0  0  0  0  0  0  0  0  0  0  0
   -5.9494   -4.9771    8.2875 O   0  0  0  0  0  0  0  0  0  0  0  0
    2.5501   -4.5680   15.2451 N   0  0  0  0  0  0  0  0  0  0  0  0
    0.4277   -5.5611   14.7215 N   0  0  0  0  0  0  0  0  0  0  0  0
    1.2039   -4.8829   15.5981 C   0  0  0  0  0  0  0  0  0  0  0  0
    0.7236   -4.5032   16.8202 N   0  0  0  0  0  0  0  0  0  0  0  0
   -0.5459   -4.7801   17.2130 C   0  0  0  0  0  0  0  0  0  0  0  0
   -1.3942   -5.4756   16.3185 C   0  0  0  0  0  0  0  0  0  0  0  0
   -0.9755   -4.3613   18.4503 O   0  0  0  0  0  0  0  0  0  0  0  0
   -3.2011   -6.3174   17.9075 C   0  0  0  0  0  0  0  0  0  0  0  0
   -2.7652   -5.8625   16.6091 N   0  0  0  0  0  0  0  0  0  0  0  0
   -3.3333   -7.5025   18.1938 O   0  0  0  0  0  0  0  0  0  0  0  0
   -3.6260   -5.8675   15.5043 C   0  0  2  0  0  0  0  0  0  0  0  0
   -3.0650   -6.8161   14.4139 C   0  0  0  0  0  0  0  0  0  0  0  0
   -0.8637   -5.8792   15.0526 C   0  0  0  0  0  0  0  0  0  0  0  0
   -1.7111   -6.5986   14.0977 N   0  0  0  0  0  0  0  0  0  0  0  0
   -3.8004   -4.4680   14.9499 C   0  0  0  0  0  0  0  0  0  0  0  0
   -5.1266   -4.0803   14.5561 N   0  0  0  0  0  0  0  0  0  0  0  0
   -6.3738   -4.7613   10.5992 C   0  0  0  0  0  0  0  0  0  0  0  0
   -7.1250   -5.2694   11.6501 C   0  0  0  0  0  0  0  0  0  0  0  0
   -6.7164   -5.0384   12.9580 C   0  0  0  0  0  0  0  0  0  0  0  0
   -5.5540   -4.3132   13.2123 C   0  0  0  0  0  0  0  0  0  0  0  0
   -4.8025   -3.8178   12.1610 C   0  0  0  0  0  0  0  0  0  0  0  0
   -5.2168   -4.0390   10.8531 C   0  0  0  0  0  0  0  0  0  0  0  0
  1  2  1  0  0  0  0
  2  3  2  0  0  0  0
  2 20  1  0  0  0  0
  4  6  1  0  0  0  0
  5  6  2  0  0  0  0
  5 16  1  0  0  0  0
  6  7  1  0  0  0  0
  7  8  1  0  0  0  0
  8  9  1  0  0  0  0
  8 10  2  0  0  0  0
  9 12  1  0  0  0  0
  9 16  2  0  0  0  0
 11 13  1  0  0  0  0
 11 12  1  0  0  0  0
 12 14  1  0  0  0  0
 14 15  1  0  0  0  0
 14 18  1  6  0  0  0
 15 17  1  0  0  0  0
 16 17  1  0  0  0  0
 18 19  1  0  0  0  0
 19 23  1  0  0  0  0
 20 21  2  0  0  0  0
 20 25  1  0  0  0  0
 21 22  1  0  0  0  0
 22 23  2  0  0  0  0
 23 24  1  0  0  0  0
 24 25  2  0  0  0  0
M  END
>  <CHROM.1>
-98.64947499,-138.22515298,-90.34547051,125.03756588,26.42202212,-3.24096118
-5.22676775,14.21364099,2.33568421,-0.12225853,-1.37569840

>  <Name>
ligand

>  <RI>
0

>  <Rbt.Current_Directory>
/home/itssahil/PROJECTS/Mol_Feturizer/New_Systems/rnas/4LVV

>  <Rbt.Executable>
rbdock ($Id: //depot/dev/client3/rdock/2013.1/src/exe/rbdock.cxx#4 $)

>  <Rbt.Library>
libRbt.so (2013.1, Build901 2013/11/27)

>  <Rbt.Parameter_File>
/export/apps/rDock/src/rDock_2013.1_src/data/scripts/dock_solv.prm

>  <Rbt.Receptor>
prm/blind_docking_20.prm

>  <SCORE>
-0.857719

>  <SCORE.INTER>
-1.63343

>  <SCORE.INTER.CONST>
1

>  <SCORE.INTER.POLAR>
0

>  <SCORE.INTER.ROT>
5

>  <SCORE.INTER.SOLV>
11.8532

>  <SCORE.INTER.VDW>
-11.9733

>  <SCORE.INTER.norm>
-0.0653374

>  <SCORE.INTRA>
0.680002

>  <SCORE.INTRA.DIHEDRAL>
3.92259

>  <SCORE.INTRA.DIHEDRAL.0>
3.94806

>  <SCORE.INTRA.POLAR>
0

>  <SCORE.INTRA.POLAR.0>
0

>  <SCORE.INTRA.REPUL>
0

>  <SCORE.INTRA.REPUL.0>
0

>  <SCORE.INTRA.SOLV>
-0.741303

>  <SCORE.INTRA.SOLV.lig_0>
-70.9803

>  <SCORE.INTRA.VDW>
-0.91064

>  <SCORE.INTRA.VDW.0>
-0.709409

>  <SCORE.INTRA.norm>
0.0272001

>  <SCORE.RESTR>
0.0957138

>  <SCORE.RESTR.CAVITY>
0.0957138

>  <SCORE.RESTR.norm>
0.00382855

>  <SCORE.SYSTEM>
0

>  <SCORE.SYSTEM.CONST>
0

>  <SCORE.SYSTEM.DIHEDRAL>
0

>  <SCORE.SYSTEM.SOLV>
0

>  <SCORE.SYSTEM.norm>
0

>  <SCORE.heavy>
25

>  <SCORE.norm>
-0.0343087

>  <RMSD>
22.425

$$$$
ligand
 OpenBabel11021811503D
libRbt.so/2013.1/901 2013/11/27
 25 27  0  0  0  0  0  0  0  0999 V2000
    2.1081   -5.0949   15.7415 N   0  0  0  0  0  0  0  0  0  0  0  0
    1.3899   -4.7027   14.5686 C   0  0  0  0  0  0  0  0  0  0  0  0
    1.9844   -4.4155   13.5371 O   0  0  0  0  0  0  0  0  0  0  0  0
   -0.8281   -5.2329    9.2477 N   0  0  0  0  0  0  0  0  0  0  0  0
   -2.5939   -4.3165   10.5921 N   0  0  0  0  0  0  0  0  0  0  0  0
   -2.1008   -5.3567    9.8810 C   0  0  0  0  0  0  0  0  0  0  0  0
   -2.8056   -6.5205    9.7503 N   0  0  0  0  0  0  0  0  0  0  0  0
   -4.0232   -6.6937   10.3248 C   0  0  0  0  0  0  0  0  0  0  0  0
   -4.5674   -5.6338   11.0891 C   0  0  0  0  0  0  0  0  0  0  0  0
   -4.6788   -7.8922   10.1676 O   0  0  0  0  0  0  0  0  0  0  0  0
   -7.0298   -6.2899   11.1576 C   0  0  0  0  0  0  0  0  0  0  0  0
   -5.8669   -5.6647   11.7403 N   0  0  0  0  0  0  0  0  0  0  0  0
   -7.4347   -6.0337   10.0288 O   0  0  0  0  0  0  0  0  0  0  0  0
   -5.9457   -4.9450   12.9393 C   0  0  2  0  0  0  0  0  0  0  0  0
   -5.5558   -3.4665   12.6833 C   0  0  0  0  0  0  0  0  0  0  0  0
   -3.8200   -4.4186   11.1961 C   0  0  0  0  0  0  0  0  0  0  0  0
   -4.3479   -3.2993   11.9809 N   0  0  0  0  0  0  0  0  0  0  0  0
   -5.0456   -5.5549   13.9948 C   0  0  0  0  0  0  0  0  0  0  0  0
   -4.2978   -4.6482   14.8211 N   0  0  0  0  0  0  0  0  0  0  0  0
   -0.0984   -4.6662   14.6185 C   0  0  0  0  0  0  0  0  0  0  0  0
   -0.8219   -3.8671   13.7439 C   0  0  0  0  0  0  0  0  0  0  0  0
   -2.2096   -3.8560   13.8155 C   0  0  0  0  0  0  0  0  0  0  0  0
   -2.8704   -4.6512   14.7497 C   0  0  0  0  0  0  0  0  0  0  0  0
   -2.1452   -5.4544   15.6124 C   0  0  0  0  0  0  0  0  0  0  0  0
   -0.7570   -5.4574   15.5486 C   0  0  0  0  0  0  0  0  0  0  0  0
  1  2  1  0  0  0  0
  2  3  2  0  0  0  0
  2 20  1  0  0  0  0
  4  6  1  0  0  0  0
  5  6  2  0  0  0  0
  5 16  1  0  0  0  0
  6  7  1  0  0  0  0
  7  8  1  0  0  0  0
  8  9  1  0  0  0  0
  8 10  2  0  0  0  0
  9 12  1  0  0  0  0
  9 16  2  0  0  0  0
 11 13  1  0  0  0  0
 11 12  1  0  0  0  0
 12 14  1  0  0  0  0
 14 15  1  0  0  0  0
 14 18  1  1  0  0  0
 15 17  1  0  0  0  0
 16 17  1  0  0  0  0
 18 19  1  0  0  0  0
 19 23  1  0  0  0  0
 20 21  2  0  0  0  0
 20 25  1  0  0  0  0
 21 22  1  0  0  0  0
 22 23  2  0  0  0  0
 23 24  1  0  0  0  0
 24 25  2  0  0  0  0
M  END
>  <CHROM.1>
-52.92634919,138.71688647,-115.66461894,87.99039574,156.38553972,-3.03744960
-5.15326429,12.47369520,0.55296352,0.03142328,1.32332244

>  <Name>
ligand

>  <RI>
0

>  <Rbt.Current_Directory>
/home/itssahil/PROJECTS/Mol_Feturizer/New_Systems/rnas/4LVV

>  <Rbt.Executable>
rbdock ($Id: //depot/dev/client3/rdock/2013.1/src/exe/rbdock.cxx#4 $)

>  <Rbt.Library>
libRbt.so (2013.1, Build901 2013/11/27)

>  <Rbt.Parameter_File>
/export/apps/rDock/src/rDock_2013.1_src/data/scripts/dock_solv.prm

>  <Rbt.Receptor>
prm/blind_docking_20.prm

>  <SCORE>
0.928973

>  <SCORE.INTER>
-1.25383

>  <SCORE.INTER.CONST>
1

>  <SCORE.INTER.POLAR>
0

>  <SCORE.INTER.ROT>
5

>  <SCORE.INTER.SOLV>
18.8084

>  <SCORE.INTER.VDW>
-14.0387

>  <SCORE.INTER.norm>
-0.0501531

>  <SCORE.INTRA>
1.57478

>  <SCORE.INTRA.DIHEDRAL>
4.59606

>  <SCORE.INTRA.DIHEDRAL.0>
3.94806

>  <SCORE.INTRA.POLAR>
0

>  <SCORE.INTRA.POLAR.0>
0

>  <SCORE.INTRA.REPUL>
0

>  <SCORE.INTRA.REPUL.0>
0

>  <SCORE.INTRA.SOLV>
1.39019

>  <SCORE.INTRA.SOLV.lig_0>
-70.9803

>  <SCORE.INTRA.VDW>
-1.41835

>  <SCORE.INTRA.VDW.0>
-0.709409

>  <SCORE.INTRA.norm>
0.0629911

>  <SCORE.RESTR>
0.608024

>  <SCORE.RESTR.CAVITY>
0.608024

>  <SCORE.RESTR.norm>
0.024321

>  <SCORE.SYSTEM>
0

>  <SCORE.SYSTEM.CONST>
0

>  <SCORE.SYSTEM.DIHEDRAL>
0

>  <SCORE.SYSTEM.SOLV>
0

>  <SCORE.SYSTEM.norm>
0

>  <SCORE.heavy>
25

>  <SCORE.norm>
0.0371589

>  <RMSD>
22.450

$$$$
ligand
 OpenBabel11021811503D
libRbt.so/2013.1/901 2013/11/27
 25 27  0  0  0  0  0  0  0  0999 V2000
   -0.3960   -4.2280   30.5123 N   0  0  0  0  0  0  0  0  0  0  0  0
   -0.7181   -2.8445   30.3462 C   0  0  0  0  0  0  0  0  0  0  0  0
    0.0873   -1.9732   30.6500 O   0  0  0  0  0  0  0  0  0  0  0  0
  -12.4487   -2.3868   26.2860 N   0  0  0  0  0  0  0  0  0  0  0  0
  -11.0889   -2.1311   28.2484 N   0  0  0  0  0  0  0  0  0  0  0  0
  -11.2538   -2.6632   27.0153 C   0  0  0  0  0  0  0  0  0  0  0  0
  -10.2996   -3.4694   26.4604 N   0  0  0  0  0  0  0  0  0  0  0  0
   -9.1462   -3.7721   27.1090 C   0  0  0  0  0  0  0  0  0  0  0  0
   -8.9296   -3.2232   28.3956 C   0  0  0  0  0  0  0  0  0  0  0  0
   -8.2183   -4.5793   26.4938 O   0  0  0  0  0  0  0  0  0  0  0  0
   -7.1016   -4.7609   29.2857 C   0  0  0  0  0  0  0  0  0  0  0  0
   -7.7579   -3.4774   29.2178 N   0  0  0  0  0  0  0  0  0  0  0  0
   -5.9307   -4.9337   28.9649 O   0  0  0  0  0  0  0  0  0  0  0  0
   -7.3646   -2.4097   30.0346 C   0  0  2  0  0  0  0  0  0  0  0  0
   -8.5402   -2.0046   30.9606 C   0  0  0  0  0  0  0  0  0  0  0  0
   -9.9506   -2.3976   28.9637 C   0  0  0  0  0  0  0  0  0  0  0  0
   -9.7629   -1.8082   30.2922 N   0  0  0  0  0  0  0  0  0  0  0  0
   -6.9172   -1.2275   29.1989 C   0  0  0  0  0  0  0  0  0  0  0  0
   -5.8359   -1.4478   28.2789 N   0  0  0  0  0  0  0  0  0  0  0  0
   -2.0470   -2.4812   29.7799 C   0  0  0  0  0  0  0  0  0  0  0  0
   -2.3180   -2.6537   28.4295 C   0  0  0  0  0  0  0  0  0  0  0  0
   -3.5680   -2.3057   27.9322 C   0  0  0  0  0  0  0  0  0  0  0  0
   -4.5465   -1.7995   28.7854 C   0  0  0  0  0  0  0  0  0  0  0  0
   -4.2752   -1.6393   30.1331 C   0  0  0  0  0  0  0  0  0  0  0  0
   -3.0216   -1.9768   30.6287 C   0  0  0  0  0  0  0  0  0  0  0  0
  1  2  1  0  0  0  0
  2  3  2  0  0  0  0
  2 20  1  0  0  0  0
  4  6  1  0  0  0  0
  5  6  2  0  0  0  0
  5 16  1  0  0  0  0
  6  7  1  0  0  0  0
  7  8  1  0  0  0  0
  8  9  1  0  0  0  0
  8 10  2  0  0  0  0
  9 12  1  0  0  0  0
  9 16  2  0  0  0  0
 11 13  1  0  0  0  0
 11 12  1  0  0  0  0
 12 14  1  0  0  0  0
 14 15  1  0  0  0  0
 14 18  1  6  0  0  0
 15 17  1  0  0  0  0
 16 17  1  0  0  0  0
 18 19  1  0  0  0  0
 19 23  1  0  0  0  0
 20 21  2  0  0  0  0
 20 25  1  0  0  0  0
 21 22  1  0  0  0  0
 22 23  2  0  0  0  0
 23 24  1  0  0  0  0
 24 25  2  0  0  0  0
M  END
>  <CHROM.1>
119.63952106,-57.96955683,-63.65675793,165.62851944,-73.75340348,-6.48698130
-2.77873632,28.89147122,-0.20475644,0.14930914,-2.27969679

>  <Name>
ligand

>  <RI>
0

>  <Rbt.Current_Directory>
/home/itssahil/PROJECTS/Mol_Feturizer/New_Systems/rnas/4LVV

>  <Rbt.Executable>
rbdock ($Id: //depot/dev/client3/rdock/2013.1/src/exe/rbdock.cxx#4 $)

>  <Rbt.Library>
libRbt.so (2013.1, Build901 2013/11/27)

>  <Rbt.Parameter_File>
/export/apps/rDock/src/rDock_2013.1_src/data/scripts/dock_solv.prm

>  <Rbt.Receptor>
prm/blind_docking_80.prm

>  <SCORE>
-10.3851

>  <SCORE.INTER>
-9.33543

>  <SCORE.INTER.CONST>
1

>  <SCORE.INTER.POLAR>
0

>  <SCORE.INTER.ROT>
5

>  <SCORE.INTER.SOLV>
6.87172

>  <SCORE.INTER.VDW>
-15.4475

>  <SCORE.INTER.norm>
-0.373417

>  <SCORE.INTRA>
-1.04965

>  <SCORE.INTRA.DIHEDRAL>
-0.654263

>  <SCORE.INTRA.DIHEDRAL.0>
3.94806

>  <SCORE.INTRA.POLAR>
0

>  <SCORE.INTRA.POLAR.0>
0

>  <SCORE.INTRA.REPUL>
0

>  <SCORE.INTRA.REPUL.0>
0

>  <SCORE.INTRA.SOLV>
0.619503

>  <SCORE.INTRA.SOLV.lig_0>
-70.9803

>  <SCORE.INTRA.VDW>
-1.03227

>  <SCORE.INTRA.VDW.0>
-0.709409

>  <SCORE.INTRA.norm>
-0.0419859

>  <SCORE.RESTR>
0

>  <SCORE.RESTR.CAVITY>
0

>  <SCORE.RESTR.norm>
0

>  <SCORE.SYSTEM>
0

>  <SCORE.SYSTEM.CONST>
0

>  <SCORE.SYSTEM.DIHEDRAL>
0

>  <SCORE.SYSTEM.SOLV>
0

>  <SCORE.SYSTEM.norm>
0

>  <SCORE.heavy>
25

>  <SCORE.norm>
-0.415403

>  <RMSD>
22.463

$$$$
ligand
 OpenBabel11021811503D
libRbt.so/2013.1/901 2013/11/27
 25 27  0  0  0  0  0  0  0  0999 V2000
    1.5328   -3.4932   17.5608 N   0  0  0  0  0  0  0  0  0  0  0  0
    0.2548   -4.0391   17.8987 C   0  0  0  0  0  0  0  0  0  0  0  0
   -0.1872   -3.9405   19.0367 O   0  0  0  0  0  0  0  0  0  0  0  0
   -6.8048   -5.5277    7.6859 N   0  0  0  0  0  0  0  0  0  0  0  0
   -5.1773   -4.8606    9.3204 N   0  0  0  0  0  0  0  0  0  0  0  0
   -6.4591   -5.1781    9.0254 C   0  0  0  0  0  0  0  0  0  0  0  0
   -7.4307   -5.1597    9.9868 N   0  0  0  0  0  0  0  0  0  0  0  0
   -7.1624   -4.8293   11.2757 C   0  0  0  0  0  0  0  0  0  0  0  0
   -5.8304   -4.5046   11.6277 C   0  0  0  0  0  0  0  0  0  0  0  0
   -8.1800   -4.8404   12.2006 O   0  0  0  0  0  0  0  0  0  0  0  0
   -6.1891   -3.2754   13.8319 C   0  0  0  0  0  0  0  0  0  0  0  0
   -5.3985   -4.1087   12.9582 N   0  0  0  0  0  0  0  0  0  0  0  0
   -6.5093   -2.1248   13.5534 O   0  0  0  0  0  0  0  0  0  0  0  0
   -4.0998   -4.5051   13.3018 C   0  0  2  0  0  0  0  0  0  0  0  0
   -3.0939   -3.9396   12.2665 C   0  0  0  0  0  0  0  0  0  0  0  0
   -4.8343   -4.5125   10.6008 C   0  0  0  0  0  0  0  0  0  0  0  0
   -3.4433   -4.1851   10.9256 N   0  0  0  0  0  0  0  0  0  0  0  0
   -3.9970   -6.0155   13.3696 C   0  0  0  0  0  0  0  0  0  0  0  0
   -2.7307   -6.5686   13.7629 N   0  0  0  0  0  0  0  0  0  0  0  0
   -0.5389   -4.7163   16.8356 C   0  0  0  0  0  0  0  0  0  0  0  0
   -1.6364   -5.5031   17.1570 C   0  0  0  0  0  0  0  0  0  0  0  0
   -2.3567   -6.1208   16.1417 C   0  0  0  0  0  0  0  0  0  0  0  0
   -1.9876   -5.9410   14.8101 C   0  0  0  0  0  0  0  0  0  0  0  0
   -0.8992   -5.1469   14.4939 C   0  0  0  0  0  0  0  0  0  0  0  0
   -0.1719   -4.5380   15.5096 C   0  0  0  0  0  0  0  0  0  0  0  0
  1  2  1  0  0  0  0
  2  3  2  0  0  0  0
  2 20  1  0  0  0  0
  4  6  1  0  0  0  0
  5  6  2  0  0  0  0
  5 16  1  0  0  0  0
  6  7  1  0  0  0  0
  7  8  1  0  0  0  0
  8  9  1  0  0  0  0
  8 10  2  0  0  0  0
  9 12  1  0  0  0  0
  9 16  2  0  0  0  0
 11 13  1  0  0  0  0
 11 12  1  0  0  0  0
 12 14  1  0  0  0  0
 14 15  1  0  0  0  0
 14 18  1  6  0  0  0
 15 17  1  0  0  0  0
 16 17  1  0  0  0  0
 18 19  1  0  0  0  0
 19 23  1  0  0  0  0
 20 21  2  0  0  0  0
 20 25  1  0  0  0  0
 21 22  1  0  0  0  0
 22 23  2  0  0  0  0
 23 24  1  0  0  0  0
 24 25  2  0  0  0  0
M  END
>  <CHROM.1>
-61.85576185,-177.67024649,40.19561617,76.93965594,166.18912683,-3.81082114
-4.66461927,13.38569625,-0.78992548,0.29449869,-1.88218464

>  <Name>
ligand

>  <RI>
0

>  <Rbt.Current_Directory>
/home/itssahil/PROJECTS/Mol_Feturizer/New_Systems/rnas/4LVV

>  <Rbt.Executable>
rbdock ($Id: //depot/dev/client3/rdock/2013.1/src/exe/rbdock.cxx#4 $)

>  <Rbt.Library>
libRbt.so (2013.1, Build901 2013/11/27)

>  <Rbt.Parameter_File>
/export/apps/rDock/src/rDock_2013.1_src/data/scripts/dock_solv.prm

>  <Rbt.Receptor>
prm/blind_docking_20.prm

>  <SCORE>
-5.48032

>  <SCORE.INTER>
-4.18519

>  <SCORE.INTER.CONST>
1

>  <SCORE.INTER.POLAR>
0

>  <SCORE.INTER.ROT>
5

>  <SCORE.INTER.SOLV>
13.1342

>  <SCORE.INTER.VDW>
-14.1015

>  <SCORE.INTER.norm>
-0.167408

>  <SCORE.INTRA>
-1.30285

>  <SCORE.INTRA.DIHEDRAL>
-0.43395

>  <SCORE.INTRA.DIHEDRAL.0>
3.94806

>  <SCORE.INTRA.POLAR>
0

>  <SCORE.INTRA.POLAR.0>
0

>  <SCORE.INTRA.REPUL>
0

>  <SCORE.INTRA.REPUL.0>
0

>  <SCORE.INTRA.SOLV>
-0.164921

>  <SCORE.INTRA.SOLV.lig_0>
-70.9803

>  <SCORE.INTRA.VDW>
-1.00342

>  <SCORE.INTRA.VDW.0>
-0.709409

>  <SCORE.INTRA.norm>
-0.0521141

>  <SCORE.RESTR>
0.00773193

>  <SCORE.RESTR.CAVITY>
0.00773193

>  <SCORE.RESTR.norm>
0.000309277

>  <SCORE.SYSTEM>
0

>  <SCORE.SYSTEM.CONST>
0

>  <SCORE.SYSTEM.DIHEDRAL>
0

>  <SCORE.SYSTEM.SOLV>
0

>  <SCORE.SYSTEM.norm>
0

>  <SCORE.heavy>
25

>  <SCORE.norm>
-0.219213

>  <RMSD>
22.474

$$$$
ligand
 OpenBabel11021811503D
libRbt.so/2013.1/901 2013/11/27
 25 27  0  0  0  0  0  0  0  0999 V2000
   -6.9735    3.6472   26.7993 N   0  0  0  0  0  0  0  0  0  0  0  0
   -7.3669    2.2869   26.5986 C   0  0  0  0  0  0  0  0  0  0  0  0
   -8.4881    2.0133   26.1887 O   0  0  0  0  0  0  0  0  0  0  0  0
   -6.7809   -6.7579   23.2566 N   0  0  0  0  0  0  0  0  0  0  0  0
   -6.8170   -5.0978   24.9909 N   0  0  0  0  0  0  0  0  0  0  0  0
   -6.4105   -6.3148   24.5614 C   0  0  0  0  0  0  0  0  0  0  0  0
   -5.6595   -7.1313   25.3600 N   0  0  0  0  0  0  0  0  0  0  0  0
   -5.2823   -6.7660   26.6117 C   0  0  0  0  0  0  0  0  0  0  0  0
   -5.6756   -5.4942   27.0926 C   0  0  0  0  0  0  0  0  0  0  0  0
   -4.5164   -7.6260   27.3632 O   0  0  0  0  0  0  0  0  0  0  0  0
   -5.3611   -5.7984   29.6040 C   0  0  0  0  0  0  0  0  0  0  0  0
   -5.3683   -4.9782   28.4166 N   0  0  0  0  0  0  0  0  0  0  0  0
   -6.3684   -6.0356   30.2620 O   0  0  0  0  0  0  0  0  0  0  0  0
   -5.1817   -3.5916   28.4832 C   0  0  2  0  0  0  0  0  0  0  0  0
   -6.4484   -2.8717   27.9535 C   0  0  0  0  0  0  0  0  0  0  0  0
   -6.4771   -4.6648   26.2461 C   0  0  0  0  0  0  0  0  0  0  0  0
   -6.9020   -3.3400   26.7064 N   0  0  0  0  0  0  0  0  0  0  0  0
   -3.9624   -3.1726   27.6869 C   0  0  0  0  0  0  0  0  0  0  0  0
   -3.5708   -1.7925   27.7667 N   0  0  0  0  0  0  0  0  0  0  0  0
   -6.3809    1.2067   26.8810 C   0  0  0  0  0  0  0  0  0  0  0  0
   -6.0324    0.2856   25.9028 C   0  0  0  0  0  0  0  0  0  0  0  0
   -5.1088   -0.7098   26.1977 C   0  0  0  0  0  0  0  0  0  0  0  0
   -4.5269   -0.7748   27.4622 C   0  0  0  0  0  0  0  0  0  0  0  0
   -4.8695    0.1523   28.4310 C   0  0  0  0  0  0  0  0  0  0  0  0
   -5.8015    1.1412   28.1399 C   0  0  0  0  0  0  0  0  0  0  0  0
  1  2  1  0  0  0  0
  2  3  2  0  0  0  0
  2 20  1  0  0  0  0
  4  6  1  0  0  0  0
  5  6  2  0  0  0  0
  5 16  1  0  0  0  0
  6  7  1  0  0  0  0
  7  8  1  0  0  0  0
  8  9  1  0  0  0  0
  8 10  2  0  0  0  0
  9 12  1  0  0  0  0
  9 16  2  0  0  0  0
 11 13  1  0  0  0  0
 11 12  1  0  0  0  0
 12 14  1  0  0  0  0
 14 15  1  0  0  0  0
 14 18  1  6  0  0  0
 15 17  1  0  0  0  0
 16 17  1  0  0  0  0
 18 19  1  0  0  0  0
 19 23  1  0  0  0  0
 20 21  2  0  0  0  0
 20 25  1  0  0  0  0
 21 22  1  0  0  0  0
 22 23  2  0  0  0  0
 23 24  1  0  0  0  0
 24 25  2  0  0  0  0
M  END
>  <CHROM.1>
-85.58674456,-174.23467595,-54.32425069,-60.77220651,-123.38476699,-5.86868115
-2.97587421,27.02834212,1.82113124,-1.13979626,0.25310826

>  <Name>
ligand

>  <RI>
0

>  <Rbt.Current_Directory>
/home/itssahil/PROJECTS/Mol_Feturizer/New_Systems/rnas/4LVV

>  <Rbt.Executable>
rbdock ($Id: //depot/dev/client3/rdock/2013.1/src/exe/rbdock.cxx#4 $)

>  <Rbt.Library>
libRbt.so (2013.1, Build901 2013/11/27)

>  <Rbt.Parameter_File>
/export/apps/rDock/src/rDock_2013.1_src/data/scripts/dock_solv.prm

>  <Rbt.Receptor>
prm/blind_docking_40.prm

>  <SCORE>
-17.1832

>  <SCORE.INTER>
-16.1176

>  <SCORE.INTER.CONST>
1

>  <SCORE.INTER.POLAR>
0

>  <SCORE.INTER.ROT>
5

>  <SCORE.INTER.SOLV>
12.2558

>  <SCORE.INTER.VDW>
-21.7637

>  <SCORE.INTER.norm>
-0.644706

>  <SCORE.INTRA>
-1.06552

>  <SCORE.INTRA.DIHEDRAL>
-0.699457

>  <SCORE.INTRA.DIHEDRAL.0>
3.94806

>  <SCORE.INTRA.POLAR>
0

>  <SCORE.INTRA.POLAR.0>
0

>  <SCORE.INTRA.REPUL>
0

>  <SCORE.INTRA.REPUL.0>
0

>  <SCORE.INTRA.SOLV>
0.189966

>  <SCORE.INTRA.SOLV.lig_0>
-70.9803

>  <SCORE.INTRA.VDW>
-0.81077

>  <SCORE.INTRA.VDW.0>
-0.709409

>  <SCORE.INTRA.norm>
-0.0426206

>  <SCORE.RESTR>
0

>  <SCORE.RESTR.CAVITY>
0

>  <SCORE.RESTR.norm>
0

>  <SCORE.SYSTEM>
0

>  <SCORE.SYSTEM.CONST>
0

>  <SCORE.SYSTEM.DIHEDRAL>
0

>  <SCORE.SYSTEM.SOLV>
0

>  <SCORE.SYSTEM.norm>
0

>  <SCORE.heavy>
25

>  <SCORE.norm>
-0.687326

>  <RMSD>
22.482

$$$$
ligand
 OpenBabel11021811503D
libRbt.so/2013.1/901 2013/11/27
 25 27  0  0  0  0  0  0  0  0999 V2000
   -7.0700    3.6404   26.9284 N   0  0  0  0  0  0  0  0  0  0  0  0
   -7.3810    2.2984   26.5440 C   0  0  0  0  0  0  0  0  0  0  0  0
   -8.4294    2.0397   25.9660 O   0  0  0  0  0  0  0  0  0  0  0  0
   -6.8169   -6.6927   23.2377 N   0  0  0  0  0  0  0  0  0  0  0  0
   -6.8454   -5.0534   24.9919 N   0  0  0  0  0  0  0  0  0  0  0  0
   -6.4379   -6.2637   24.5448 C   0  0  0  0  0  0  0  0  0  0  0  0
   -5.6779   -7.0870   25.3279 N   0  0  0  0  0  0  0  0  0  0  0  0
   -5.2925   -6.7353   26.5810 C   0  0  0  0  0  0  0  0  0  0  0  0
   -5.6865   -5.4706   27.0800 C   0  0  0  0  0  0  0  0  0  0  0  0
   -4.5178   -7.6014   27.3163 O   0  0  0  0  0  0  0  0  0  0  0  0
   -5.3516   -5.8035   29.5851 C   0  0  0  0  0  0  0  0  0  0  0  0
   -5.3708   -4.9693   28.4076 N   0  0  0  0  0  0  0  0  0  0  0  0
   -6.3689   -6.1924   30.1487 O   0  0  0  0  0  0  0  0  0  0  0  0
   -5.1885   -3.5830   28.4893 C   0  0  2  0  0  0  0  0  0  0  0  0
   -6.4618   -2.8613   27.9779 C   0  0  0  0  0  0  0  0  0  0  0  0
   -6.4973   -4.6342   26.2495 C   0  0  0  0  0  0  0  0  0  0  0  0
   -6.9233   -3.3164   26.7288 N   0  0  0  0  0  0  0  0  0  0  0  0
   -3.9769   -3.1501   27.6887 C   0  0  0  0  0  0  0  0  0  0  0  0
   -3.5925   -1.7687   27.7779 N   0  0  0  0  0  0  0  0  0  0  0  0
   -6.3975    1.2208   26.8441 C   0  0  0  0  0  0  0  0  0  0  0  0
   -6.0705    0.2675   25.8896 C   0  0  0  0  0  0  0  0  0  0  0  0
   -5.1485   -0.7245   26.2006 C   0  0  0  0  0  0  0  0  0  0  0  0
   -4.5470   -0.7544   27.4571 C   0  0  0  0  0  0  0  0  0  0  0  0
   -4.8681    0.2045   28.4020 C   0  0  0  0  0  0  0  0  0  0  0  0
   -5.7984    1.1902   28.0951 C   0  0  0  0  0  0  0  0  0  0  0  0
  1  2  1  0  0  0  0
  2  3  2  0  0  0  0
  2 20  1  0  0  0  0
  4  6  1  0  0  0  0
  5  6  2  0  0  0  0
  5 16  1  0  0  0  0
  6  7  1  0  0  0  0
  7  8  1  0  0  0  0
  8  9  1  0  0  0  0
  8 10  2  0  0  0  0
  9 12  1  0  0  0  0
  9 16  2  0  0  0  0
 11 13  1  0  0  0  0
 11 12  1  0  0  0  0
 12 14  1  0  0  0  0
 14 15  1  0  0  0  0
 14 18  1  6  0  0  0
 15 17  1  0  0  0  0
 16 17  1  0  0  0  0
 18 19  1  0  0  0  0
 19 23  1  0  0  0  0
 20 21  2  0  0  0  0
 20 25  1  0  0  0  0
 21 22  1  0  0  0  0
 22 23  2  0  0  0  0
 23 24  1  0  0  0  0
 24 25  2  0  0  0  0
M  END
>  <CHROM.1>
-75.94218187,-174.46533526,-55.82893240,-57.98438924,-134.89426774,-5.88337736
-2.96187604,27.00632134,1.81728907,-1.12905416,0.24364594

>  <Name>
ligand

>  <RI>
0

>  <Rbt.Current_Directory>
/home/itssahil/PROJECTS/Mol_Feturizer/New_Systems/rnas/4LVV

>  <Rbt.Executable>
rbdock ($Id: //depot/dev/client3/rdock/2013.1/src/exe/rbdock.cxx#4 $)

>  <Rbt.Library>
libRbt.so (2013.1, Build901 2013/11/27)

>  <Rbt.Parameter_File>
/export/apps/rDock/src/rDock_2013.1_src/data/scripts/dock_solv.prm

>  <Rbt.Receptor>
prm/blind_docking_80.prm

>  <SCORE>
-17.3833

>  <SCORE.INTER>
-16.4046

>  <SCORE.INTER.CONST>
1

>  <SCORE.INTER.POLAR>
0

>  <SCORE.INTER.ROT>
5

>  <SCORE.INTER.SOLV>
12.1442

>  <SCORE.INTER.VDW>
-21.9178

>  <SCORE.INTER.norm>
-0.656182

>  <SCORE.INTRA>
-0.978784

>  <SCORE.INTRA.DIHEDRAL>
-0.679235

>  <SCORE.INTRA.DIHEDRAL.0>
3.94806

>  <SCORE.INTRA.POLAR>
0

>  <SCORE.INTRA.POLAR.0>
0

>  <SCORE.INTRA.REPUL>
0

>  <SCORE.INTRA.REPUL.0>
0

>  <SCORE.INTRA.SOLV>
0.251344

>  <SCORE.INTRA.SOLV.lig_0>
-70.9803

>  <SCORE.INTRA.VDW>
-0.764838

>  <SCORE.INTRA.VDW.0>
-0.709409

>  <SCORE.INTRA.norm>
-0.0391514

>  <SCORE.RESTR>
0

>  <SCORE.RESTR.CAVITY>
0

>  <SCORE.RESTR.norm>
0

>  <SCORE.SYSTEM>
0

>  <SCORE.SYSTEM.CONST>
0

>  <SCORE.SYSTEM.DIHEDRAL>
0

>  <SCORE.SYSTEM.SOLV>
0

>  <SCORE.SYSTEM.norm>
0

>  <SCORE.heavy>
25

>  <SCORE.norm>
-0.695334

>  <RMSD>
22.501

$$$$
ligand
 OpenBabel11021811503D
libRbt.so/2013.1/901 2013/11/27
 25 27  0  0  0  0  0  0  0  0999 V2000
    1.7620   -4.4563   16.1370 N   0  0  0  0  0  0  0  0  0  0  0  0
    0.9977   -5.2294   15.2079 C   0  0  0  0  0  0  0  0  0  0  0  0
    1.5443   -6.0352   14.4648 O   0  0  0  0  0  0  0  0  0  0  0  0
   -3.1340   -7.8275    8.6369 N   0  0  0  0  0  0  0  0  0  0  0  0
   -3.5767   -5.8996    9.9980 N   0  0  0  0  0  0  0  0  0  0  0  0
   -4.0164   -7.0566    9.4514 C   0  0  0  0  0  0  0  0  0  0  0  0
   -5.2947   -7.4946    9.6577 N   0  0  0  0  0  0  0  0  0  0  0  0
   -6.1799   -6.8008   10.4177 C   0  0  0  0  0  0  0  0  0  0  0  0
   -5.7539   -5.5923   11.0190 C   0  0  0  0  0  0  0  0  0  0  0  0
   -7.4489   -7.2987   10.5986 O   0  0  0  0  0  0  0  0  0  0  0  0
   -7.9908   -4.4950   11.5578 C   0  0  0  0  0  0  0  0  0  0  0  0
   -6.5947   -4.7323   11.8357 N   0  0  0  0  0  0  0  0  0  0  0  0
   -8.3908   -3.5447   10.8940 O   0  0  0  0  0  0  0  0  0  0  0  0
   -5.9269   -4.0540   12.8631 C   0  0  2  0  0  0  0  0  0  0  0  0
   -4.7818   -3.1993   12.2616 C   0  0  0  0  0  0  0  0  0  0  0  0
   -4.4175   -5.1445   10.7734 C   0  0  0  0  0  0  0  0  0  0  0  0
   -3.9377   -3.8998   11.3802 N   0  0  0  0  0  0  0  0  0  0  0  0
   -5.3790   -5.0286   13.8859 C   0  0  0  0  0  0  0  0  0  0  0  0
   -4.6415   -4.4756   14.9880 N   0  0  0  0  0  0  0  0  0  0  0  0
   -0.4805   -5.0497   15.1714 C   0  0  0  0  0  0  0  0  0  0  0  0
   -1.2797   -5.5001   16.2132 C   0  0  0  0  0  0  0  0  0  0  0  0
   -2.6556   -5.3164   16.1493 C   0  0  0  0  0  0  0  0  0  0  0  0
   -3.2275   -4.6731   15.0535 C   0  0  0  0  0  0  0  0  0  0  0  0
   -2.4256   -4.2162   14.0222 C   0  0  0  0  0  0  0  0  0  0  0  0
   -1.0507   -4.4096   14.0805 C   0  0  0  0  0  0  0  0  0  0  0  0
  1  2  1  0  0  0  0
  2  3  2  0  0  0  0
  2 20  1  0  0  0  0
  4  6  1  0  0  0  0
  5  6  2  0  0  0  0
  5 16  1  0  0  0  0
  6  7  1  0  0  0  0
  7  8  1  0  0  0  0
  8  9  1  0  0  0  0
  8 10  2  0  0  0  0
  9 12  1  0  0  0  0
  9 16  2  0  0  0  0
 11 13  1  0  0  0  0
 11 12  1  0  0  0  0
 12 14  1  0  0  0  0
 14 15  1  0  0  0  0
 14 18  1  1  0  0  0
 15 17  1  0  0  0  0
 16 17  1  0  0  0  0
 18 19  1  0  0  0  0
 19 23  1  0  0  0  0
 20 21  2  0  0  0  0
 20 25  1  0  0  0  0
 21 22  1  0  0  0  0
 22 23  2  0  0  0  0
 23 24  1  0  0  0  0
 24 25  2  0  0  0  0
M  END
>  <CHROM.1>
-93.49481448,178.71490714,-109.13006892,-121.09744134,-70.45013067,-3.84892035
-5.26025566,12.60677262,-0.57494101,0.28391029,-2.10445133

>  <Name>
ligand

>  <RI>
0

>  <Rbt.Current_Directory>
/home/itssahil/PROJECTS/Mol_Feturizer/New_Systems/rnas/4LVV

>  <Rbt.Executable>
rbdock ($Id: //depot/dev/client3/rdock/2013.1/src/exe/rbdock.cxx#4 $)

>  <Rbt.Library>
libRbt.so (2013.1, Build901 2013/11/27)

>  <Rbt.Parameter_File>
/export/apps/rDock/src/rDock_2013.1_src/data/scripts/dock_solv.prm

>  <Rbt.Receptor>
prm/blind_docking_20.prm

>  <SCORE>
-2.79819

>  <SCORE.INTER>
-1.73225

>  <SCORE.INTER.CONST>
1

>  <SCORE.INTER.POLAR>
0

>  <SCORE.INTER.ROT>
5

>  <SCORE.INTER.SOLV>
22.1335

>  <SCORE.INTER.VDW>
-15.466

>  <SCORE.INTER.norm>
-0.0692902

>  <SCORE.INTRA>
-1.06611

>  <SCORE.INTRA.DIHEDRAL>
0.248661

>  <SCORE.INTRA.DIHEDRAL.0>
3.94806

>  <SCORE.INTRA.POLAR>
0

>  <SCORE.INTRA.POLAR.0>
0

>  <SCORE.INTRA.REPUL>
0

>  <SCORE.INTRA.REPUL.0>
0

>  <SCORE.INTRA.SOLV>
0.179726

>  <SCORE.INTRA.SOLV.lig_0>
-70.9803

>  <SCORE.INTRA.VDW>
-1.2803

>  <SCORE.INTRA.VDW.0>
-0.709409

>  <SCORE.INTRA.norm>
-0.0426444

>  <SCORE.RESTR>
0.00017263

>  <SCORE.RESTR.CAVITY>
0.00017263

>  <SCORE.RESTR.norm>
6.90521e-06

>  <SCORE.SYSTEM>
0

>  <SCORE.SYSTEM.CONST>
0

>  <SCORE.SYSTEM.DIHEDRAL>
0

>  <SCORE.SYSTEM.SOLV>
0

>  <SCORE.SYSTEM.norm>
0

>  <SCORE.heavy>
25

>  <SCORE.norm>
-0.111928

>  <RMSD>
22.528

$$$$
ligand
 OpenBabel11021811503D
libRbt.so/2013.1/901 2013/11/27
 25 27  0  0  0  0  0  0  0  0999 V2000
   -0.0491   -4.1572   30.3507 N   0  0  0  0  0  0  0  0  0  0  0  0
   -0.4813   -2.7941   30.3296 C   0  0  0  0  0  0  0  0  0  0  0  0
    0.2720   -1.8929   30.6766 O   0  0  0  0  0  0  0  0  0  0  0  0
  -12.4103   -1.8739   26.7206 N   0  0  0  0  0  0  0  0  0  0  0  0
  -11.0238   -1.8228   28.6803 N   0  0  0  0  0  0  0  0  0  0  0  0
  -11.2406   -2.2849   27.4272 C   0  0  0  0  0  0  0  0  0  0  0  0
  -10.3635   -3.1467   26.8303 N   0  0  0  0  0  0  0  0  0  0  0  0
   -9.2380   -3.5767   27.4555 C   0  0  0  0  0  0  0  0  0  0  0  0
   -8.9679   -3.1048   28.7624 C   0  0  0  0  0  0  0  0  0  0  0  0
   -8.3875   -4.4347   26.7986 O   0  0  0  0  0  0  0  0  0  0  0  0
   -7.2775   -4.8334   29.5705 C   0  0  0  0  0  0  0  0  0  0  0  0
   -7.8190   -3.4956   29.5630 N   0  0  0  0  0  0  0  0  0  0  0  0
   -7.7204   -5.7327   30.2768 O   0  0  0  0  0  0  0  0  0  0  0  0
   -7.3296   -2.5026   30.4209 C   0  0  2  0  0  0  0  0  0  0  0  0
   -8.4606   -2.0366   31.3734 C   0  0  0  0  0  0  0  0  0  0  0  0
   -9.9098   -2.2184   29.3738 C   0  0  0  0  0  0  0  0  0  0  0  0
   -9.6646   -1.7054   30.7245 N   0  0  0  0  0  0  0  0  0  0  0  0
   -6.7843   -1.3291   29.6324 C   0  0  0  0  0  0  0  0  0  0  0  0
   -5.7881   -1.6151   28.6374 N   0  0  0  0  0  0  0  0  0  0  0  0
   -1.8614   -2.4871   29.8607 C   0  0  0  0  0  0  0  0  0  0  0  0
   -2.2188   -2.6642   28.5311 C   0  0  0  0  0  0  0  0  0  0  0  0
   -3.5147   -2.3694   28.1255 C   0  0  0  0  0  0  0  0  0  0  0  0
   -4.4522   -1.9119   29.0494 C   0  0  0  0  0  0  0  0  0  0  0  0
   -4.0942   -1.7472   30.3761 C   0  0  0  0  0  0  0  0  0  0  0  0
   -2.7952   -2.0312   30.7799 C   0  0  0  0  0  0  0  0  0  0  0  0
  1  2  1  0  0  0  0
  2  3  2  0  0  0  0
  2 20  1  0  0  0  0
  4  6  1  0  0  0  0
  5  6  2  0  0  0  0
  5 16  1  0  0  0  0
  6  7  1  0  0  0  0
  7  8  1  0  0  0  0
  8  9  1  0  0  0  0
  8 10  2  0  0  0  0
  9 12  1  0  0  0  0
  9 16  2  0  0  0  0
 11 13  1  0  0  0  0
 11 12  1  0  0  0  0
 12 14  1  0  0  0  0
 14 15  1  0  0  0  0
 14 18  1  6  0  0  0
 15 17  1  0  0  0  0
 16 17  1  0  0  0  0
 18 19  1  0  0  0  0
 19 23  1  0  0  0  0
 20 21  2  0  0  0  0
 20 25  1  0  0  0  0
 21 22  1  0  0  0  0
 22 23  2  0  0  0  0
 23 24  1  0  0  0  0
 24 25  2  0  0  0  0
M  END
>  <CHROM.1>
-84.13959146,-54.30475168,-75.23793593,171.20897639,-68.40597488,-6.51337057
-2.75059668,29.21799625,-0.16591930,0.11818548,-2.24139772

>  <Name>
ligand

>  <RI>
0

>  <Rbt.Current_Directory>
/home/itssahil/PROJECTS/Mol_Feturizer/New_Systems/rnas/4LVV

>  <Rbt.Executable>
rbdock ($Id: //depot/dev/client3/rdock/2013.1/src/exe/rbdock.cxx#4 $)

>  <Rbt.Library>
libRbt.so (2013.1, Build901 2013/11/27)

>  <Rbt.Parameter_File>
/export/apps/rDock/src/rDock_2013.1_src/data/scripts/dock_solv.prm

>  <Rbt.Receptor>
prm/blind_docking_100.prm

>  <SCORE>
-11.2255

>  <SCORE.INTER>
-10.3917

>  <SCORE.INTER.CONST>
1

>  <SCORE.INTER.POLAR>
0

>  <SCORE.INTER.ROT>
5

>  <SCORE.INTER.SOLV>
9.13789

>  <SCORE.INTER.VDW>
-16.9071

>  <SCORE.INTER.norm>
-0.415666

>  <SCORE.INTRA>
-0.833829

>  <SCORE.INTRA.DIHEDRAL>
-0.564061

>  <SCORE.INTRA.DIHEDRAL.0>
3.94806

>  <SCORE.INTRA.POLAR>
0

>  <SCORE.INTRA.POLAR.0>
0

>  <SCORE.INTRA.REPUL>
0

>  <SCORE.INTRA.REPUL.0>
0

>  <SCORE.INTRA.SOLV>
0.0484209

>  <SCORE.INTRA.SOLV.lig_0>
-70.9803

>  <SCORE.INTRA.VDW>
-0.576009

>  <SCORE.INTRA.VDW.0>
-0.709409

>  <SCORE.INTRA.norm>
-0.0333531

>  <SCORE.RESTR>
0

>  <SCORE.RESTR.CAVITY>
0

>  <SCORE.RESTR.norm>
0

>  <SCORE.SYSTEM>
0

>  <SCORE.SYSTEM.CONST>
0

>  <SCORE.SYSTEM.DIHEDRAL>
0

>  <SCORE.SYSTEM.SOLV>
0

>  <SCORE.SYSTEM.norm>
0

>  <SCORE.heavy>
25

>  <SCORE.norm>
-0.449019

>  <RMSD>
22.557

$$$$
ligand
 OpenBabel11021811503D
libRbt.so/2013.1/901 2013/11/27
 25 27  0  0  0  0  0  0  0  0999 V2000
  -11.1043   -0.6461   26.3743 N   0  0  0  0  0  0  0  0  0  0  0  0
  -11.4013   -1.9028   26.9890 C   0  0  0  0  0  0  0  0  0  0  0  0
  -12.5179   -2.3974   26.8953 O   0  0  0  0  0  0  0  0  0  0  0  0
   -1.4134   -6.9699   26.8766 N   0  0  0  0  0  0  0  0  0  0  0  0
   -2.3252   -5.0801   28.0439 N   0  0  0  0  0  0  0  0  0  0  0  0
   -2.4791   -6.0513   27.1143 C   0  0  0  0  0  0  0  0  0  0  0  0
   -3.6342   -6.1610   26.3918 N   0  0  0  0  0  0  0  0  0  0  0  0
   -4.6787   -5.3127   26.5701 C   0  0  0  0  0  0  0  0  0  0  0  0
   -4.5624   -4.2917   27.5436 C   0  0  0  0  0  0  0  0  0  0  0  0
   -5.8198   -5.4811   25.8214 O   0  0  0  0  0  0  0  0  0  0  0  0
   -6.4090   -2.6961   26.8070 C   0  0  0  0  0  0  0  0  0  0  0  0
   -5.5847   -3.2978   27.8275 N   0  0  0  0  0  0  0  0  0  0  0  0
   -6.1390   -1.6272   26.2700 O   0  0  0  0  0  0  0  0  0  0  0  0
   -5.6467   -2.8763   29.1617 C   0  0  2  0  0  0  0  0  0  0  0  0
   -4.2701   -2.3061   29.5900 C   0  0  0  0  0  0  0  0  0  0  0  0
   -3.3370   -4.1848   28.2742 C   0  0  0  0  0  0  0  0  0  0  0  0
   -3.1786   -3.1431   29.2927 N   0  0  0  0  0  0  0  0  0  0  0  0
   -6.0523   -4.0192   30.0703 C   0  0  0  0  0  0  0  0  0  0  0  0
   -7.2870   -4.6889   29.7686 N   0  0  0  0  0  0  0  0  0  0  0  0
  -10.3214   -2.6098   27.7325 C   0  0  0  0  0  0  0  0  0  0  0  0
   -9.8445   -2.1154   28.9387 C   0  0  0  0  0  0  0  0  0  0  0  0
   -8.8368   -2.7990   29.6082 C   0  0  0  0  0  0  0  0  0  0  0  0
   -8.3181   -3.9791   29.0790 C   0  0  0  0  0  0  0  0  0  0  0  0
   -8.8043   -4.4739   27.8814 C   0  0  0  0  0  0  0  0  0  0  0  0
   -9.8043   -3.7846   27.2060 C   0  0  0  0  0  0  0  0  0  0  0  0
  1  2  1  0  0  0  0
  2  3  2  0  0  0  0
  2 20  1  0  0  0  0
  4  6  1  0  0  0  0
  5  6  2  0  0  0  0
  5 16  1  0  0  0  0
  6  7  1  0  0  0  0
  7  8  1  0  0  0  0
  8  9  1  0  0  0  0
  8 10  2  0  0  0  0
  9 12  1  0  0  0  0
  9 16  2  0  0  0  0
 11 13  1  0  0  0  0
 11 12  1  0  0  0  0
 12 14  1  0  0  0  0
 14 15  1  0  0  0  0
 14 18  1  1  0  0  0
 15 17  1  0  0  0  0
 16 17  1  0  0  0  0
 18 19  1  0  0  0  0
 19 23  1  0  0  0  0
 20 21  2  0  0  0  0
 20 25  1  0  0  0  0
 21 22  1  0  0  0  0
 22 23  2  0  0  0  0
 23 24  1  0  0  0  0
 24 25  2  0  0  0  0
M  END
>  <CHROM.1>
-94.53685148,-56.04885306,-26.57252715,-57.65306565,69.94108483,-6.52029141
-3.70458127,27.81035251,2.96335252,-0.31824305,1.01244198

>  <Name>
ligand

>  <RI>
0

>  <Rbt.Current_Directory>
/home/itssahil/PROJECTS/Mol_Feturizer/New_Systems/rnas/4LVV

>  <Rbt.Executable>
rbdock ($Id: //depot/dev/client3/rdock/2013.1/src/exe/rbdock.cxx#4 $)

>  <Rbt.Library>
libRbt.so (2013.1, Build901 2013/11/27)

>  <Rbt.Parameter_File>
/export/apps/rDock/src/rDock_2013.1_src/data/scripts/dock_solv.prm

>  <Rbt.Receptor>
prm/blind_docking_40.prm

>  <SCORE>
-9.16733

>  <SCORE.INTER>
-7.20246

>  <SCORE.INTER.CONST>
1

>  <SCORE.INTER.POLAR>
0

>  <SCORE.INTER.ROT>
5

>  <SCORE.INTER.SOLV>
10.8993

>  <SCORE.INTER.VDW>
-15.3681

>  <SCORE.INTER.norm>
-0.288098

>  <SCORE.INTRA>
-1.96487

>  <SCORE.INTRA.DIHEDRAL>
-0.0658943

>  <SCORE.INTRA.DIHEDRAL.0>
3.94806

>  <SCORE.INTRA.POLAR>
0

>  <SCORE.INTRA.POLAR.0>
0

>  <SCORE.INTRA.REPUL>
0

>  <SCORE.INTRA.REPUL.0>
0

>  <SCORE.INTRA.SOLV>
0.269938

>  <SCORE.INTRA.SOLV.lig_0>
-70.9803

>  <SCORE.INTRA.VDW>
-2.06689

>  <SCORE.INTRA.VDW.0>
-0.709409

>  <SCORE.INTRA.norm>
-0.0785947

>  <SCORE.RESTR>
0

>  <SCORE.RESTR.CAVITY>
0

>  <SCORE.RESTR.norm>
0

>  <SCORE.SYSTEM>
0

>  <SCORE.SYSTEM.CONST>
0

>  <SCORE.SYSTEM.DIHEDRAL>
0

>  <SCORE.SYSTEM.SOLV>
0

>  <SCORE.SYSTEM.norm>
0

>  <SCORE.heavy>
25

>  <SCORE.norm>
-0.366693

>  <RMSD>
22.583

$$$$
ligand
 OpenBabel11021811503D
libRbt.so/2013.1/901 2013/11/27
 25 27  0  0  0  0  0  0  0  0999 V2000
   -3.3430   -6.0942   25.9517 N   0  0  0  0  0  0  0  0  0  0  0  0
   -2.7599   -5.1951   26.8988 C   0  0  0  0  0  0  0  0  0  0  0  0
   -1.7248   -5.4875   27.4846 O   0  0  0  0  0  0  0  0  0  0  0  0
  -11.3835   -4.1659   25.7894 N   0  0  0  0  0  0  0  0  0  0  0  0
  -10.6254   -2.1935   26.9296 N   0  0  0  0  0  0  0  0  0  0  0  0
  -10.4900   -3.5191   26.6946 C   0  0  0  0  0  0  0  0  0  0  0  0
   -9.5181   -4.2514   27.3172 N   0  0  0  0  0  0  0  0  0  0  0  0
   -8.6440   -3.6920   28.1921 C   0  0  0  0  0  0  0  0  0  0  0  0
   -8.7437   -2.3046   28.4541 C   0  0  0  0  0  0  0  0  0  0  0  0
   -7.6800   -4.4784   28.7781 O   0  0  0  0  0  0  0  0  0  0  0  0
   -7.4429   -2.1211   30.6387 C   0  0  0  0  0  0  0  0  0  0  0  0
   -7.8963   -1.5741   29.3825 N   0  0  0  0  0  0  0  0  0  0  0  0
   -8.1408   -2.1560   31.6464 O   0  0  0  0  0  0  0  0  0  0  0  0
   -7.6319   -0.2463   29.0239 C   0  0  2  0  0  0  0  0  0  0  0  0
   -8.9680    0.5235   28.8633 C   0  0  0  0  0  0  0  0  0  0  0  0
   -9.7805   -1.5625   27.8051 C   0  0  0  0  0  0  0  0  0  0  0  0
   -9.9148   -0.1235   28.0477 N   0  0  0  0  0  0  0  0  0  0  0  0
   -6.8273   -0.1839   27.7413 C   0  0  0  0  0  0  0  0  0  0  0  0
   -5.3969   -0.2419   27.8622 N   0  0  0  0  0  0  0  0  0  0  0  0
   -3.4257   -3.8862   27.1482 C   0  0  0  0  0  0  0  0  0  0  0  0
   -2.7669   -2.6911   26.8942 C   0  0  0  0  0  0  0  0  0  0  0  0
   -3.4160   -1.4866   27.1367 C   0  0  0  0  0  0  0  0  0  0  0  0
   -4.7234   -1.4788   27.6189 C   0  0  0  0  0  0  0  0  0  0  0  0
   -5.3800   -2.6729   27.8604 C   0  0  0  0  0  0  0  0  0  0  0  0
   -4.7272   -3.8776   27.6286 C   0  0  0  0  0  0  0  0  0  0  0  0
  1  2  1  0  0  0  0
  2  3  2  0  0  0  0
  2 20  1  0  0  0  0
  4  6  1  0  0  0  0
  5  6  2  0  0  0  0
  5 16  1  0  0  0  0
  6  7  1  0  0  0  0
  7  8  1  0  0  0  0
  8  9  1  0  0  0  0
  8 10  2  0  0  0  0
  9 12  1  0  0  0  0
  9 16  2  0  0  0  0
 11 13  1  0  0  0  0
 11 12  1  0  0  0  0
 12 14  1  0  0  0  0
 14 15  1  0  0  0  0
 14 18  1  6  0  0  0
 15 17  1  0  0  0  0
 16 17  1  0  0  0  0
 18 19  1  0  0  0  0
 19 23  1  0  0  0  0
 20 21  2  0  0  0  0
 20 25  1  0  0  0  0
 21 22  1  0  0  0  0
 22 23  2  0  0  0  0
 23 24  1  0  0  0  0
 24 25  2  0  0  0  0
M  END
>  <CHROM.1>
-80.00478734,-87.64908700,100.04692007,150.94863800,-119.16037176,-6.89696199
-2.61667021,27.96152665,0.36694094,0.02150387,-2.66542266

>  <Name>
ligand

>  <RI>
0

>  <Rbt.Current_Directory>
/home/itssahil/PROJECTS/Mol_Feturizer/New_Systems/rnas/4LVV

>  <Rbt.Executable>
rbdock ($Id: //depot/dev/client3/rdock/2013.1/src/exe/rbdock.cxx#4 $)

>  <Rbt.Library>
libRbt.so (2013.1, Build901 2013/11/27)

>  <Rbt.Parameter_File>
/export/apps/rDock/src/rDock_2013.1_src/data/scripts/dock_solv.prm

>  <Rbt.Receptor>
prm/blind_docking_40.prm

>  <SCORE>
-9.61784

>  <SCORE.INTER>
-9.02543

>  <SCORE.INTER.CONST>
1

>  <SCORE.INTER.POLAR>
0

>  <SCORE.INTER.ROT>
5

>  <SCORE.INTER.SOLV>
10.9775

>  <SCORE.INTER.VDW>
-16.6094

>  <SCORE.INTER.norm>
-0.361017

>  <SCORE.INTRA>
-0.592412

>  <SCORE.INTRA.DIHEDRAL>
2.36152

>  <SCORE.INTRA.DIHEDRAL.0>
3.94806

>  <SCORE.INTRA.POLAR>
0

>  <SCORE.INTRA.POLAR.0>
0

>  <SCORE.INTRA.REPUL>
0

>  <SCORE.INTRA.REPUL.0>
0

>  <SCORE.INTRA.SOLV>
-0.0983357

>  <SCORE.INTRA.SOLV.lig_0>
-70.9803

>  <SCORE.INTRA.VDW>
-1.724

>  <SCORE.INTRA.VDW.0>
-0.709409

>  <SCORE.INTRA.norm>
-0.0236965

>  <SCORE.RESTR>
0

>  <SCORE.RESTR.CAVITY>
0

>  <SCORE.RESTR.norm>
0

>  <SCORE.SYSTEM>
0

>  <SCORE.SYSTEM.CONST>
0

>  <SCORE.SYSTEM.DIHEDRAL>
0

>  <SCORE.SYSTEM.SOLV>
0

>  <SCORE.SYSTEM.norm>
0

>  <SCORE.heavy>
25

>  <SCORE.norm>
-0.384713

>  <RMSD>
22.622

$$$$
ligand
 OpenBabel11021811503D
libRbt.so/2013.1/901 2013/11/27
 25 27  0  0  0  0  0  0  0  0999 V2000
  -12.6877   -1.5195   27.7335 N   0  0  0  0  0  0  0  0  0  0  0  0
  -11.4458   -1.7357   27.0579 C   0  0  0  0  0  0  0  0  0  0  0  0
  -11.2480   -1.2638   25.9451 O   0  0  0  0  0  0  0  0  0  0  0  0
   -1.4236   -6.9539   26.9320 N   0  0  0  0  0  0  0  0  0  0  0  0
   -2.3683   -5.0785   28.0964 N   0  0  0  0  0  0  0  0  0  0  0  0
   -2.4977   -6.0411   27.1543 C   0  0  0  0  0  0  0  0  0  0  0  0
   -3.6357   -6.1478   26.4048 N   0  0  0  0  0  0  0  0  0  0  0  0
   -4.6870   -5.3047   26.5674 C   0  0  0  0  0  0  0  0  0  0  0  0
   -4.5964   -4.2928   27.5531 C   0  0  0  0  0  0  0  0  0  0  0  0
   -5.8101   -5.4696   25.7913 O   0  0  0  0  0  0  0  0  0  0  0  0
   -6.4315   -2.6963   26.7900 C   0  0  0  0  0  0  0  0  0  0  0  0
   -5.6284   -3.3051   27.8231 N   0  0  0  0  0  0  0  0  0  0  0  0
   -6.1030   -1.6723   26.2007 O   0  0  0  0  0  0  0  0  0  0  0  0
   -5.7221   -2.8966   29.1596 C   0  0  2  0  0  0  0  0  0  0  0  0
   -4.3576   -2.3261   29.6245 C   0  0  0  0  0  0  0  0  0  0  0  0
   -3.3883   -4.1889   28.3123 C   0  0  0  0  0  0  0  0  0  0  0  0
   -3.2567   -3.1565   29.3440 N   0  0  0  0  0  0  0  0  0  0  0  0
   -6.1442   -4.0496   30.0477 C   0  0  0  0  0  0  0  0  0  0  0  0
   -7.3856   -4.6998   29.7309 N   0  0  0  0  0  0  0  0  0  0  0  0
  -10.3881   -2.5322   27.7401 C   0  0  0  0  0  0  0  0  0  0  0  0
   -9.8973   -3.7001   27.1727 C   0  0  0  0  0  0  0  0  0  0  0  0
   -8.9097   -4.4201   27.8340 C   0  0  0  0  0  0  0  0  0  0  0  0
   -8.4067   -3.9660   29.0516 C   0  0  0  0  0  0  0  0  0  0  0  0
   -8.8916   -2.7953   29.6082 C   0  0  0  0  0  0  0  0  0  0  0  0
   -9.8870   -2.0809   28.9525 C   0  0  0  0  0  0  0  0  0  0  0  0
  1  2  1  0  0  0  0
  2  3  2  0  0  0  0
  2 20  1  0  0  0  0
  4  6  1  0  0  0  0
  5  6  2  0  0  0  0
  5 16  1  0  0  0  0
  6  7  1  0  0  0  0
  7  8  1  0  0  0  0
  8  9  1  0  0  0  0
  8 10  2  0  0  0  0
  9 12  1  0  0  0  0
  9 16  2  0  0  0  0
 11 13  1  0  0  0  0
 11 12  1  0  0  0  0
 12 14  1  0  0  0  0
 14 15  1  0  0  0  0
 14 18  1  1  0  0  0
 15 17  1  0  0  0  0
 16 17  1  0  0  0  0
 18 19  1  0  0  0  0
 19 23  1  0  0  0  0
 20 21  2  0  0  0  0
 20 25  1  0  0  0  0
 21 22  1  0  0  0  0
 22 23  2  0  0  0  0
 23 24  1  0  0  0  0
 24 25  2  0  0  0  0
M  END
>  <CHROM.1>
-88.99612309,-57.50996770,-26.67071854,122.51712592,120.36064470,-6.56859799
-3.67530606,27.82467961,2.98966271,-0.34704045,1.14197678

>  <Name>
ligand

>  <RI>
0

>  <Rbt.Current_Directory>
/home/itssahil/PROJECTS/Mol_Feturizer/New_Systems/rnas/4LVV

>  <Rbt.Executable>
rbdock ($Id: //depot/dev/client3/rdock/2013.1/src/exe/rbdock.cxx#4 $)

>  <Rbt.Library>
libRbt.so (2013.1, Build901 2013/11/27)

>  <Rbt.Parameter_File>
/export/apps/rDock/src/rDock_2013.1_src/data/scripts/dock_solv.prm

>  <Rbt.Receptor>
prm/blind_docking_100.prm

>  <SCORE>
-9.25457

>  <SCORE.INTER>
-7.3108

>  <SCORE.INTER.CONST>
1

>  <SCORE.INTER.POLAR>
0

>  <SCORE.INTER.ROT>
5

>  <SCORE.INTER.SOLV>
9.9597

>  <SCORE.INTER.VDW>
-15.1271

>  <SCORE.INTER.norm>
-0.292432

>  <SCORE.INTRA>
-1.94376

>  <SCORE.INTRA.DIHEDRAL>
-0.125295

>  <SCORE.INTRA.DIHEDRAL.0>
3.94806

>  <SCORE.INTRA.POLAR>
0

>  <SCORE.INTRA.POLAR.0>
0

>  <SCORE.INTRA.REPUL>
0

>  <SCORE.INTRA.REPUL.0>
0

>  <SCORE.INTRA.SOLV>
0.227073

>  <SCORE.INTRA.SOLV.lig_0>
-70.9803

>  <SCORE.INTRA.VDW>
-1.99465

>  <SCORE.INTRA.VDW.0>
-0.709409

>  <SCORE.INTRA.norm>
-0.0777506

>  <SCORE.RESTR>
0

>  <SCORE.RESTR.CAVITY>
0

>  <SCORE.RESTR.norm>
0

>  <SCORE.SYSTEM>
0

>  <SCORE.SYSTEM.CONST>
0

>  <SCORE.SYSTEM.DIHEDRAL>
0

>  <SCORE.SYSTEM.SOLV>
0

>  <SCORE.SYSTEM.norm>
0

>  <SCORE.heavy>
25

>  <SCORE.norm>
-0.370183

>  <RMSD>
22.643

$$$$
ligand
 OpenBabel11021811503D
libRbt.so/2013.1/901 2013/11/27
 25 27  0  0  0  0  0  0  0  0999 V2000
   -5.6026   -7.6887   22.1139 N   0  0  0  0  0  0  0  0  0  0  0  0
   -6.5574   -7.7228   23.1781 C   0  0  0  0  0  0  0  0  0  0  0  0
   -7.4723   -8.5370   23.1727 O   0  0  0  0  0  0  0  0  0  0  0  0
  -10.5896    1.5193   30.3694 N   0  0  0  0  0  0  0  0  0  0  0  0
   -9.7131   -0.7160   30.3891 N   0  0  0  0  0  0  0  0  0  0  0  0
  -10.3338    0.2783   29.7132 C   0  0  0  0  0  0  0  0  0  0  0  0
  -10.7292    0.1107   28.4155 N   0  0  0  0  0  0  0  0  0  0  0  0
  -10.5184   -1.0489   27.7423 C   0  0  0  0  0  0  0  0  0  0  0  0
   -9.8591   -2.1086   28.4101 C   0  0  0  0  0  0  0  0  0  0  0  0
  -10.9284   -1.1533   26.4338 O   0  0  0  0  0  0  0  0  0  0  0  0
  -10.5035   -4.0917   26.9437 C   0  0  0  0  0  0  0  0  0  0  0  0
   -9.5869   -3.4125   27.8277 N   0  0  0  0  0  0  0  0  0  0  0  0
  -11.7222   -3.9881   27.0322 O   0  0  0  0  0  0  0  0  0  0  0  0
   -8.4076   -4.0246   28.2707 C   0  0  2  0  0  0  0  0  0  0  0  0
   -8.4471   -4.1706   29.8137 C   0  0  0  0  0  0  0  0  0  0  0  0
   -9.4713   -1.9166   29.7738 C   0  0  0  0  0  0  0  0  0  0  0  0
   -8.7838   -2.9885   30.4989 N   0  0  0  0  0  0  0  0  0  0  0  0
   -7.1924   -3.2256   27.8453 C   0  0  0  0  0  0  0  0  0  0  0  0
   -6.0356   -3.9669   27.4251 N   0  0  0  0  0  0  0  0  0  0  0  0
   -6.4093   -6.7597   24.3047 C   0  0  0  0  0  0  0  0  0  0  0  0
   -5.6112   -7.0606   25.3999 C   0  0  0  0  0  0  0  0  0  0  0  0
   -5.4932   -6.1403   26.4344 C   0  0  0  0  0  0  0  0  0  0  0  0
   -6.1608   -4.9190   26.3666 C   0  0  0  0  0  0  0  0  0  0  0  0
   -6.9468   -4.6190   25.2677 C   0  0  0  0  0  0  0  0  0  0  0  0
   -7.0739   -5.5437   24.2381 C   0  0  0  0  0  0  0  0  0  0  0  0
  1  2  1  0  0  0  0
  2  3  2  0  0  0  0
  2 20  1  0  0  0  0
  4  6  1  0  0  0  0
  5  6  2  0  0  0  0
  5 16  1  0  0  0  0
  6  7  1  0  0  0  0
  7  8  1  0  0  0  0
  8  9  1  0  0  0  0
  8 10  2  0  0  0  0
  9 12  1  0  0  0  0
  9 16  2  0  0  0  0
 11 13  1  0  0  0  0
 11 12  1  0  0  0  0
 12 14  1  0  0  0  0
 14 15  1  0  0  0  0
 14 18  1  1  0  0  0
 15 17  1  0  0  0  0
 16 17  1  0  0  0  0
 18 19  1  0  0  0  0
 19 23  1  0  0  0  0
 20 21  2  0  0  0  0
 20 25  1  0  0  0  0
 21 22  1  0  0  0  0
 22 23  2  0  0  0  0
 23 24  1  0  0  0  0
 24 25  2  0  0  0  0
M  END
>  <CHROM.1>
-32.39607946,-141.24355414,55.74306290,-139.97780574,-87.05084001,-8.48345708
-3.73199793,27.10738173,1.05830396,0.51067014,-2.17609977

>  <Name>
ligand

>  <RI>
0

>  <Rbt.Current_Directory>
/home/itssahil/PROJECTS/Mol_Feturizer/New_Systems/rnas/4LVV

>  <Rbt.Executable>
rbdock ($Id: //depot/dev/client3/rdock/2013.1/src/exe/rbdock.cxx#4 $)

>  <Rbt.Library>
libRbt.so (2013.1, Build901 2013/11/27)

>  <Rbt.Parameter_File>
/export/apps/rDock/src/rDock_2013.1_src/data/scripts/dock_solv.prm

>  <Rbt.Receptor>
prm/blind_docking_100.prm

>  <SCORE>
-12.5755

>  <SCORE.INTER>
-12.8931

>  <SCORE.INTER.CONST>
1

>  <SCORE.INTER.POLAR>
0

>  <SCORE.INTER.ROT>
5

>  <SCORE.INTER.SOLV>
10.3378

>  <SCORE.INTER.VDW>
-18.9747

>  <SCORE.INTER.norm>
-0.515725

>  <SCORE.INTRA>
0.317653

>  <SCORE.INTRA.DIHEDRAL>
3.26334

>  <SCORE.INTRA.DIHEDRAL.0>
3.94806

>  <SCORE.INTRA.POLAR>
0

>  <SCORE.INTRA.POLAR.0>
0

>  <SCORE.INTRA.REPUL>
0

>  <SCORE.INTRA.REPUL.0>
0

>  <SCORE.INTRA.SOLV>
-0.486227

>  <SCORE.INTRA.SOLV.lig_0>
-70.9803

>  <SCORE.INTRA.VDW>
-1.0709

>  <SCORE.INTRA.VDW.0>
-0.709409

>  <SCORE.INTRA.norm>
0.0127061

>  <SCORE.RESTR>
0

>  <SCORE.RESTR.CAVITY>
0

>  <SCORE.RESTR.norm>
0

>  <SCORE.SYSTEM>
0

>  <SCORE.SYSTEM.CONST>
0

>  <SCORE.SYSTEM.DIHEDRAL>
0

>  <SCORE.SYSTEM.SOLV>
0

>  <SCORE.SYSTEM.norm>
0

>  <SCORE.heavy>
25

>  <SCORE.norm>
-0.503019

>  <RMSD>
22.691

$$$$
ligand
 OpenBabel11021811503D
libRbt.so/2013.1/901 2013/11/27
 25 27  0  0  0  0  0  0  0  0999 V2000
    1.4599   -3.5551   17.4999 N   0  0  0  0  0  0  0  0  0  0  0  0
    0.1391   -3.9844   17.8414 C   0  0  0  0  0  0  0  0  0  0  0  0
   -0.2822   -3.8642   18.9852 O   0  0  0  0  0  0  0  0  0  0  0  0
   -6.8421   -5.5563    7.5833 N   0  0  0  0  0  0  0  0  0  0  0  0
   -5.2298   -4.8710    9.2253 N   0  0  0  0  0  0  0  0  0  0  0  0
   -6.5242   -5.0759    8.8888 C   0  0  0  0  0  0  0  0  0  0  0  0
   -7.5334   -4.8208    9.7747 N   0  0  0  0  0  0  0  0  0  0  0  0
   -7.2921   -4.3571   11.0275 C   0  0  0  0  0  0  0  0  0  0  0  0
   -5.9499   -4.1435   11.4228 C   0  0  0  0  0  0  0  0  0  0  0  0
   -8.3487   -4.1306   11.8779 O   0  0  0  0  0  0  0  0  0  0  0  0
   -6.2666   -2.6030   13.4291 C   0  0  0  0  0  0  0  0  0  0  0  0
   -5.5404   -3.6285   12.7192 N   0  0  0  0  0  0  0  0  0  0  0  0
   -6.3455   -2.5610   14.6521 O   0  0  0  0  0  0  0  0  0  0  0  0
   -4.3186   -4.1222   13.1936 C   0  0  2  0  0  0  0  0  0  0  0  0
   -3.2005   -3.8160   12.1642 C   0  0  0  0  0  0  0  0  0  0  0  0
   -4.9117   -4.3996   10.4723 C   0  0  0  0  0  0  0  0  0  0  0  0
   -3.5093   -4.1935   10.8442 N   0  0  0  0  0  0  0  0  0  0  0  0
   -4.4039   -5.6124   13.4551 C   0  0  0  0  0  0  0  0  0  0  0  0
   -3.1902   -6.2812   13.8343 N   0  0  0  0  0  0  0  0  0  0  0  0
   -0.7235   -4.5660   16.7754 C   0  0  0  0  0  0  0  0  0  0  0  0
   -0.5754   -4.1822   15.4497 C   0  0  0  0  0  0  0  0  0  0  0  0
   -1.3953   -4.7441   14.4786 C   0  0  0  0  0  0  0  0  0  0  0  0
   -2.3503   -5.6955   14.8315 C   0  0  0  0  0  0  0  0  0  0  0  0
   -2.4870   -6.0830   16.1530 C   0  0  0  0  0  0  0  0  0  0  0  0
   -1.6748   -5.5131   17.1260 C   0  0  0  0  0  0  0  0  0  0  0  0
  1  2  1  0  0  0  0
  2  3  2  0  0  0  0
  2 20  1  0  0  0  0
  4  6  1  0  0  0  0
  5  6  2  0  0  0  0
  5 16  1  0  0  0  0
  6  7  1  0  0  0  0
  7  8  1  0  0  0  0
  8  9  1  0  0  0  0
  8 10  2  0  0  0  0
  9 12  1  0  0  0  0
  9 16  2  0  0  0  0
 11 13  1  0  0  0  0
 11 12  1  0  0  0  0
 12 14  1  0  0  0  0
 14 15  1  0  0  0  0
 14 18  1  6  0  0  0
 15 17  1  0  0  0  0
 16 17  1  0  0  0  0
 18 19  1  0  0  0  0
 19 23  1  0  0  0  0
 20 21  2  0  0  0  0
 20 25  1  0  0  0  0
 21 22  1  0  0  0  0
 22 23  2  0  0  0  0
 23 24  1  0  0  0  0
 24 25  2  0  0  0  0
M  END
>  <CHROM.1>
146.44606394,174.67092299,46.01401746,-85.92268287,-29.16168554,-3.96475823
-4.45811539,13.33558479,-0.81035367,0.30906329,-1.87382155

>  <Name>
ligand

>  <RI>
0

>  <Rbt.Current_Directory>
/home/itssahil/PROJECTS/Mol_Feturizer/New_Systems/rnas/4LVV

>  <Rbt.Executable>
rbdock ($Id: //depot/dev/client3/rdock/2013.1/src/exe/rbdock.cxx#4 $)

>  <Rbt.Library>
libRbt.so (2013.1, Build901 2013/11/27)

>  <Rbt.Parameter_File>
/export/apps/rDock/src/rDock_2013.1_src/data/scripts/dock_solv.prm

>  <Rbt.Receptor>
prm/blind_docking_20.prm

>  <SCORE>
-4.36496

>  <SCORE.INTER>
-3.50822

>  <SCORE.INTER.CONST>
1

>  <SCORE.INTER.POLAR>
0

>  <SCORE.INTER.ROT>
5

>  <SCORE.INTER.SOLV>
14.1173

>  <SCORE.INTER.VDW>
-13.9779

>  <SCORE.INTER.norm>
-0.140329

>  <SCORE.INTRA>
-0.859438

>  <SCORE.INTRA.DIHEDRAL>
-0.563282

>  <SCORE.INTRA.DIHEDRAL.0>
3.94806

>  <SCORE.INTRA.POLAR>
0

>  <SCORE.INTRA.POLAR.0>
0

>  <SCORE.INTRA.REPUL>
0

>  <SCORE.INTRA.REPUL.0>
0

>  <SCORE.INTRA.SOLV>
-0.0312553

>  <SCORE.INTRA.SOLV.lig_0>
-70.9803

>  <SCORE.INTRA.VDW>
-0.56217

>  <SCORE.INTRA.VDW.0>
-0.709409

>  <SCORE.INTRA.norm>
-0.0343775

>  <SCORE.RESTR>
0.00269341

>  <SCORE.RESTR.CAVITY>
0.00269341

>  <SCORE.RESTR.norm>
0.000107736

>  <SCORE.SYSTEM>
0

>  <SCORE.SYSTEM.CONST>
0

>  <SCORE.SYSTEM.DIHEDRAL>
0

>  <SCORE.SYSTEM.SOLV>
0

>  <SCORE.SYSTEM.norm>
0

>  <SCORE.heavy>
25

>  <SCORE.norm>
-0.174599

>  <RMSD>
22.725

$$$$
ligand
 OpenBabel11021811503D
libRbt.so/2013.1/901 2013/11/27
 25 27  0  0  0  0  0  0  0  0999 V2000
    2.4975   -3.7509   13.8539 N   0  0  0  0  0  0  0  0  0  0  0  0
    1.7157   -4.9016   14.1857 C   0  0  0  0  0  0  0  0  0  0  0  0
    2.2380   -6.0045   14.2906 O   0  0  0  0  0  0  0  0  0  0  0  0
   -6.4895   -7.5814    8.7421 N   0  0  0  0  0  0  0  0  0  0  0  0
   -5.4792   -5.7579    9.9336 N   0  0  0  0  0  0  0  0  0  0  0  0
   -6.5261   -6.6009    9.7782 C   0  0  0  0  0  0  0  0  0  0  0  0
   -7.6228   -6.5227   10.5904 N   0  0  0  0  0  0  0  0  0  0  0  0
   -7.7164   -5.6072   11.5882 C   0  0  0  0  0  0  0  0  0  0  0  0
   -6.6356   -4.7163   11.7924 C   0  0  0  0  0  0  0  0  0  0  0  0
   -8.8403   -5.5854   12.3802 O   0  0  0  0  0  0  0  0  0  0  0  0
   -7.7590   -2.8855   13.1652 C   0  0  0  0  0  0  0  0  0  0  0  0
   -6.6038   -3.6705   12.8018 N   0  0  0  0  0  0  0  0  0  0  0  0
   -8.4949   -2.3532   12.3412 O   0  0  0  0  0  0  0  0  0  0  0  0
   -5.3363   -3.3966   13.3311 C   0  0  2  0  0  0  0  0  0  0  0  0
   -4.3685   -3.0067   12.1843 C   0  0  0  0  0  0  0  0  0  0  0  0
   -5.5066   -4.8047   10.9180 C   0  0  0  0  0  0  0  0  0  0  0  0
   -4.3663   -3.9021   11.0987 N   0  0  0  0  0  0  0  0  0  0  0  0
   -4.8001   -4.5916   14.0931 C   0  0  0  0  0  0  0  0  0  0  0  0
   -3.8658   -4.3274   15.1521 N   0  0  0  0  0  0  0  0  0  0  0  0
    0.2543   -4.7321   14.4190 C   0  0  0  0  0  0  0  0  0  0  0  0
   -0.5334   -4.0232   13.5225 C   0  0  0  0  0  0  0  0  0  0  0  0
   -1.8940   -3.8837   13.7684 C   0  0  0  0  0  0  0  0  0  0  0  0
   -2.4654   -4.4623   14.8999 C   0  0  0  0  0  0  0  0  0  0  0  0
   -1.6779   -5.1773   15.7853 C   0  0  0  0  0  0  0  0  0  0  0  0
   -0.3152   -5.3076   15.5455 C   0  0  0  0  0  0  0  0  0  0  0  0
  1  2  1  0  0  0  0
  2  3  2  0  0  0  0
  2 20  1  0  0  0  0
  4  6  1  0  0  0  0
  5  6  2  0  0  0  0
  5 16  1  0  0  0  0
  6  7  1  0  0  0  0
  7  8  1  0  0  0  0
  8  9  1  0  0  0  0
  8 10  2  0  0  0  0
  9 12  1  0  0  0  0
  9 16  2  0  0  0  0
 11 13  1  0  0  0  0
 11 12  1  0  0  0  0
 12 14  1  0  0  0  0
 14 15  1  0  0  0  0
 14 18  1  6  0  0  0
 15 17  1  0  0  0  0
 16 17  1  0  0  0  0
 18 19  1  0  0  0  0
 19 23  1  0  0  0  0
 20 21  2  0  0  0  0
 20 25  1  0  0  0  0
 21 22  1  0  0  0  0
 22 23  2  0  0  0  0
 23 24  1  0  0  0  0
 24 25  2  0  0  0  0
M  END
>  <CHROM.1>
-48.06652307,-152.94540922,-98.08553756,47.99857232,48.57766465,-4.11577626
-4.68987216,12.77657760,-0.30717611,0.21244111,-2.23333140

>  <Name>
ligand

>  <RI>
0

>  <Rbt.Current_Directory>
/home/itssahil/PROJECTS/Mol_Feturizer/New_Systems/rnas/4LVV

>  <Rbt.Executable>
rbdock ($Id: //depot/dev/client3/rdock/2013.1/src/exe/rbdock.cxx#4 $)

>  <Rbt.Library>
libRbt.so (2013.1, Build901 2013/11/27)

>  <Rbt.Parameter_File>
/export/apps/rDock/src/rDock_2013.1_src/data/scripts/dock_solv.prm

>  <Rbt.Receptor>
prm/blind_docking_20.prm

>  <SCORE>
-1.16306

>  <SCORE.INTER>
-1.24695

>  <SCORE.INTER.CONST>
1

>  <SCORE.INTER.POLAR>
0

>  <SCORE.INTER.ROT>
5

>  <SCORE.INTER.SOLV>
21.8932

>  <SCORE.INTER.VDW>
-15.0624

>  <SCORE.INTER.norm>
-0.049878

>  <SCORE.INTRA>
0.0757793

>  <SCORE.INTRA.DIHEDRAL>
2.4581

>  <SCORE.INTRA.DIHEDRAL.0>
3.94806

>  <SCORE.INTRA.POLAR>
0

>  <SCORE.INTRA.POLAR.0>
0

>  <SCORE.INTRA.REPUL>
0

>  <SCORE.INTRA.REPUL.0>
0

>  <SCORE.INTRA.SOLV>
-0.342464

>  <SCORE.INTRA.SOLV.lig_0>
-70.9803

>  <SCORE.INTRA.VDW>
-0.982038

>  <SCORE.INTRA.VDW.0>
-0.709409

>  <SCORE.INTRA.norm>
0.00303117

>  <SCORE.RESTR>
0.00810901

>  <SCORE.RESTR.CAVITY>
0.00810901

>  <SCORE.RESTR.norm>
0.000324361

>  <SCORE.SYSTEM>
0

>  <SCORE.SYSTEM.CONST>
0

>  <SCORE.SYSTEM.DIHEDRAL>
0

>  <SCORE.SYSTEM.SOLV>
0

>  <SCORE.SYSTEM.norm>
0

>  <SCORE.heavy>
25

>  <SCORE.norm>
-0.0465224

>  <RMSD>
22.788

$$$$
ligand
 OpenBabel11021811503D
libRbt.so/2013.1/901 2013/11/27
 25 27  0  0  0  0  0  0  0  0999 V2000
   -1.9342   -6.0745   17.9690 N   0  0  0  0  0  0  0  0  0  0  0  0
   -1.1392   -5.0257   17.4092 C   0  0  0  0  0  0  0  0  0  0  0  0
   -0.4168   -4.3393   18.1213 O   0  0  0  0  0  0  0  0  0  0  0  0
   -8.7079   -3.7471    9.3851 N   0  0  0  0  0  0  0  0  0  0  0  0
   -6.9981   -4.6234   10.8252 N   0  0  0  0  0  0  0  0  0  0  0  0
   -7.4617   -4.4169    9.5709 C   0  0  0  0  0  0  0  0  0  0  0  0
   -6.7617   -4.8481    8.4789 N   0  0  0  0  0  0  0  0  0  0  0  0
   -5.5744   -5.4959    8.5942 C   0  0  0  0  0  0  0  0  0  0  0  0
   -5.0483   -5.7187    9.8893 C   0  0  0  0  0  0  0  0  0  0  0  0
   -4.9107   -5.8950    7.4579 O   0  0  0  0  0  0  0  0  0  0  0  0
   -3.3591   -7.5700    9.4229 C   0  0  0  0  0  0  0  0  0  0  0  0
   -3.8047   -6.4177   10.1690 N   0  0  0  0  0  0  0  0  0  0  0  0
   -2.6233   -7.4928    8.4449 O   0  0  0  0  0  0  0  0  0  0  0  0
   -3.1080   -5.9598   11.2944 C   0  0  2  0  0  0  0  0  0  0  0  0
   -4.0209   -6.0554   12.5439 C   0  0  0  0  0  0  0  0  0  0  0  0
   -5.8079   -5.2751   11.0176 C   0  0  0  0  0  0  0  0  0  0  0  0
   -5.2959   -5.4844   12.3747 N   0  0  0  0  0  0  0  0  0  0  0  0
   -2.6342   -4.5346   11.0927 C   0  0  0  0  0  0  0  0  0  0  0  0
   -1.4462   -4.1341   11.7943 N   0  0  0  0  0  0  0  0  0  0  0  0
   -1.1921   -4.7932   15.9389 C   0  0  0  0  0  0  0  0  0  0  0  0
   -0.0678   -4.9799   15.1464 C   0  0  0  0  0  0  0  0  0  0  0  0
   -0.1501   -4.7554   13.7776 C   0  0  0  0  0  0  0  0  0  0  0  0
   -1.3558   -4.3584   13.2029 C   0  0  0  0  0  0  0  0  0  0  0  0
   -2.4769   -4.1840   13.9955 C   0  0  0  0  0  0  0  0  0  0  0  0
   -2.3921   -4.3976   15.3660 C   0  0  0  0  0  0  0  0  0  0  0  0
  1  2  1  0  0  0  0
  2  3  2  0  0  0  0
  2 20  1  0  0  0  0
  4  6  1  0  0  0  0
  5  6  2  0  0  0  0
  5 16  1  0  0  0  0
  6  7  1  0  0  0  0
  7  8  1  0  0  0  0
  8  9  1  0  0  0  0
  8 10  2  0  0  0  0
  9 12  1  0  0  0  0
  9 16  2  0  0  0  0
 11 13  1  0  0  0  0
 11 12  1  0  0  0  0
 12 14  1  0  0  0  0
 14 15  1  0  0  0  0
 14 18  1  6  0  0  0
 15 17  1  0  0  0  0
 16 17  1  0  0  0  0
 18 19  1  0  0  0  0
 19 23  1  0  0  0  0
 20 21  2  0  0  0  0
 20 25  1  0  0  0  0
 21 22  1  0  0  0  0
 22 23  2  0  0  0  0
 23 24  1  0  0  0  0
 24 25  2  0  0  0  0
M  END
>  <CHROM.1>
92.40545163,-151.73439411,-51.57176303,141.64251809,-115.84717004,-3.57075975
-5.25762975,12.05674812,0.95435077,-0.29102920,1.29175164

>  <Name>
ligand

>  <RI>
0

>  <Rbt.Current_Directory>
/home/itssahil/PROJECTS/Mol_Feturizer/New_Systems/rnas/4LVV

>  <Rbt.Executable>
rbdock ($Id: //depot/dev/client3/rdock/2013.1/src/exe/rbdock.cxx#4 $)

>  <Rbt.Library>
libRbt.so (2013.1, Build901 2013/11/27)

>  <Rbt.Parameter_File>
/export/apps/rDock/src/rDock_2013.1_src/data/scripts/dock_solv.prm

>  <Rbt.Receptor>
prm/blind_docking_20.prm

>  <SCORE>
-2.17014

>  <SCORE.INTER>
-3.05552

>  <SCORE.INTER.CONST>
1

>  <SCORE.INTER.POLAR>
0

>  <SCORE.INTER.ROT>
5

>  <SCORE.INTER.SOLV>
13.8562

>  <SCORE.INTER.VDW>
-13.5891

>  <SCORE.INTER.norm>
-0.122221

>  <SCORE.INTRA>
0.885374

>  <SCORE.INTRA.DIHEDRAL>
1.93572

>  <SCORE.INTRA.DIHEDRAL.0>
3.94806

>  <SCORE.INTRA.POLAR>
0

>  <SCORE.INTRA.POLAR.0>
0

>  <SCORE.INTRA.REPUL>
0

>  <SCORE.INTRA.REPUL.0>
0

>  <SCORE.INTRA.SOLV>
-0.189053

>  <SCORE.INTRA.SOLV.lig_0>
-70.9803

>  <SCORE.INTRA.VDW>
0.0120415

>  <SCORE.INTRA.VDW.0>
-0.709409

>  <SCORE.INTRA.norm>
0.035415

>  <SCORE.RESTR>
0

>  <SCORE.RESTR.CAVITY>
0

>  <SCORE.RESTR.norm>
0

>  <SCORE.SYSTEM>
0

>  <SCORE.SYSTEM.CONST>
0

>  <SCORE.SYSTEM.DIHEDRAL>
0

>  <SCORE.SYSTEM.SOLV>
0

>  <SCORE.SYSTEM.norm>
0

>  <SCORE.heavy>
25

>  <SCORE.norm>
-0.0868057

>  <RMSD>
22.834

$$$$
ligand
 OpenBabel11021811503D
libRbt.so/2013.1/901 2013/11/27
 25 27  0  0  0  0  0  0  0  0999 V2000
   -4.9603   -7.5871   27.3048 N   0  0  0  0  0  0  0  0  0  0  0  0
   -5.4015   -6.6597   26.3095 C   0  0  0  0  0  0  0  0  0  0  0  0
   -5.6791   -7.0396   25.1787 O   0  0  0  0  0  0  0  0  0  0  0  0
  -12.9137   -1.9586   25.2384 N   0  0  0  0  0  0  0  0  0  0  0  0
  -11.5538   -1.0614   27.0022 N   0  0  0  0  0  0  0  0  0  0  0  0
  -11.8207   -2.0764   26.1482 C   0  0  0  0  0  0  0  0  0  0  0  0
  -11.0674   -3.2170   26.1489 N   0  0  0  0  0  0  0  0  0  0  0  0
  -10.0200   -3.3878   26.9952 C   0  0  0  0  0  0  0  0  0  0  0  0
   -9.6995   -2.3429   27.8946 C   0  0  0  0  0  0  0  0  0  0  0  0
   -9.2919   -4.5531   26.9404 O   0  0  0  0  0  0  0  0  0  0  0  0
   -8.2771   -3.5855   29.6066 C   0  0  0  0  0  0  0  0  0  0  0  0
   -8.6251   -2.3926   28.8728 N   0  0  0  0  0  0  0  0  0  0  0  0
   -7.1385   -3.8282   29.9919 O   0  0  0  0  0  0  0  0  0  0  0  0
   -8.0098   -1.1630   29.1396 C   0  0  2  0  0  0  0  0  0  0  0  0
   -9.0736   -0.1450   29.6247 C   0  0  0  0  0  0  0  0  0  0  0  0
  -10.5136   -1.1664   27.8884 C   0  0  0  0  0  0  0  0  0  0  0  0
  -10.2125   -0.0611   28.8023 N   0  0  0  0  0  0  0  0  0  0  0  0
   -7.2970   -0.6383   27.9096 C   0  0  0  0  0  0  0  0  0  0  0  0
   -5.9831   -1.1553   27.6438 N   0  0  0  0  0  0  0  0  0  0  0  0
   -5.5343   -5.2225   26.6779 C   0  0  0  0  0  0  0  0  0  0  0  0
   -4.5944   -4.6050   27.4916 C   0  0  0  0  0  0  0  0  0  0  0  0
   -4.7464   -3.2625   27.8163 C   0  0  0  0  0  0  0  0  0  0  0  0
   -5.8276   -2.5382   27.3181 C   0  0  0  0  0  0  0  0  0  0  0  0
   -6.7564   -3.1554   26.4985 C   0  0  0  0  0  0  0  0  0  0  0  0
   -6.6107   -4.5009   26.1826 C   0  0  0  0  0  0  0  0  0  0  0  0
  1  2  1  0  0  0  0
  2  3  2  0  0  0  0
  2 20  1  0  0  0  0
  4  6  1  0  0  0  0
  5  6  2  0  0  0  0
  5 16  1  0  0  0  0
  6  7  1  0  0  0  0
  7  8  1  0  0  0  0
  8  9  1  0  0  0  0
  8 10  2  0  0  0  0
  9 12  1  0  0  0  0
  9 16  2  0  0  0  0
 11 13  1  0  0  0  0
 11 12  1  0  0  0  0
 12 14  1  0  0  0  0
 14 15  1  0  0  0  0
 14 18  1  6  0  0  0
 15 17  1  0  0  0  0
 16 17  1  0  0  0  0
 18 19  1  0  0  0  0
 19 23  1  0  0  0  0
 20 21  2  0  0  0  0
 20 25  1  0  0  0  0
 21 22  1  0  0  0  0
 22 23  2  0  0  0  0
 23 24  1  0  0  0  0
 24 25  2  0  0  0  0
M  END
>  <CHROM.1>
149.68559938,-82.28958919,65.47341945,-140.78530151,40.07918193,-8.09507231
-3.10493494,27.48796657,0.59636075,0.34751929,-2.52977893

>  <Name>
ligand

>  <RI>
0

>  <Rbt.Current_Directory>
/home/itssahil/PROJECTS/Mol_Feturizer/New_Systems/rnas/4LVV

>  <Rbt.Executable>
rbdock ($Id: //depot/dev/client3/rdock/2013.1/src/exe/rbdock.cxx#4 $)

>  <Rbt.Library>
libRbt.so (2013.1, Build901 2013/11/27)

>  <Rbt.Parameter_File>
/export/apps/rDock/src/rDock_2013.1_src/data/scripts/dock_solv.prm

>  <Rbt.Receptor>
prm/blind_docking_40.prm

>  <SCORE>
-10.5941

>  <SCORE.INTER>
-8.77835

>  <SCORE.INTER.CONST>
1

>  <SCORE.INTER.POLAR>
0

>  <SCORE.INTER.ROT>
5

>  <SCORE.INTER.SOLV>
11.8906

>  <SCORE.INTER.VDW>
-16.7491

>  <SCORE.INTER.norm>
-0.351134

>  <SCORE.INTRA>
-1.81572

>  <SCORE.INTRA.DIHEDRAL>
0.734502

>  <SCORE.INTRA.DIHEDRAL.0>
3.94806

>  <SCORE.INTRA.POLAR>
0

>  <SCORE.INTRA.POLAR.0>
0

>  <SCORE.INTRA.REPUL>
0

>  <SCORE.INTRA.REPUL.0>
0

>  <SCORE.INTRA.SOLV>
0.71842

>  <SCORE.INTRA.SOLV.lig_0>
-70.9803

>  <SCORE.INTRA.VDW>
-2.54219

>  <SCORE.INTRA.VDW.0>
-0.709409

>  <SCORE.INTRA.norm>
-0.072629

>  <SCORE.RESTR>
0

>  <SCORE.RESTR.CAVITY>
0

>  <SCORE.RESTR.norm>
0

>  <SCORE.SYSTEM>
0

>  <SCORE.SYSTEM.CONST>
0

>  <SCORE.SYSTEM.DIHEDRAL>
0

>  <SCORE.SYSTEM.SOLV>
0

>  <SCORE.SYSTEM.norm>
0

>  <SCORE.heavy>
25

>  <SCORE.norm>
-0.423763

>  <RMSD>
22.886

$$$$
ligand
 OpenBabel11021811503D
libRbt.so/2013.1/901 2013/11/27
 25 27  0  0  0  0  0  0  0  0999 V2000
    1.4158   -4.4451   16.0620 N   0  0  0  0  0  0  0  0  0  0  0  0
    1.0307   -5.1336   14.8691 C   0  0  0  0  0  0  0  0  0  0  0  0
    1.8543   -5.7606   14.2143 O   0  0  0  0  0  0  0  0  0  0  0  0
   -4.9178   -5.3985    7.9210 N   0  0  0  0  0  0  0  0  0  0  0  0
   -5.4301   -4.1404    9.9009 N   0  0  0  0  0  0  0  0  0  0  0  0
   -5.5601   -5.2844    9.1901 C   0  0  0  0  0  0  0  0  0  0  0  0
   -6.3049   -6.3288    9.6622 N   0  0  0  0  0  0  0  0  0  0  0  0
   -6.9432   -6.2753   10.8590 C   0  0  0  0  0  0  0  0  0  0  0  0
   -6.8200   -5.1009   11.6395 C   0  0  0  0  0  0  0  0  0  0  0  0
   -7.6679   -7.3632   11.2860 O   0  0  0  0  0  0  0  0  0  0  0  0
   -8.7952   -5.3574   13.2305 C   0  0  0  0  0  0  0  0  0  0  0  0
   -7.4643   -4.8900   12.9256 N   0  0  0  0  0  0  0  0  0  0  0  0
   -9.1863   -5.5704   14.3730 O   0  0  0  0  0  0  0  0  0  0  0  0
   -6.7414   -4.0989   13.8274 C   0  0  2  0  0  0  0  0  0  0  0  0
   -6.4502   -2.7171   13.1875 C   0  0  0  0  0  0  0  0  0  0  0  0
   -6.0508   -4.0140   11.1163 C   0  0  0  0  0  0  0  0  0  0  0  0
   -5.8969   -2.7823   11.8953 N   0  0  0  0  0  0  0  0  0  0  0  0
   -5.4483   -4.7806   14.2268 C   0  0  0  0  0  0  0  0  0  0  0  0
   -4.4153   -4.8598   13.2314 N   0  0  0  0  0  0  0  0  0  0  0  0
   -0.3965   -5.0890   14.4450 C   0  0  0  0  0  0  0  0  0  0  0  0
   -1.2444   -6.1624   14.6808 C   0  0  0  0  0  0  0  0  0  0  0  0
   -2.5710   -6.0892   14.2736 C   0  0  0  0  0  0  0  0  0  0  0  0
   -3.0496   -4.9416   13.6447 C   0  0  0  0  0  0  0  0  0  0  0  0
   -2.2032   -3.8697   13.4213 C   0  0  0  0  0  0  0  0  0  0  0  0
   -0.8737   -3.9468   13.8185 C   0  0  0  0  0  0  0  0  0  0  0  0
  1  2  1  0  0  0  0
  2  3  2  0  0  0  0
  2 20  1  0  0  0  0
  4  6  1  0  0  0  0
  5  6  2  0  0  0  0
  5 16  1  0  0  0  0
  6  7  1  0  0  0  0
  7  8  1  0  0  0  0
  8  9  1  0  0  0  0
  8 10  2  0  0  0  0
  9 12  1  0  0  0  0
  9 16  2  0  0  0  0
 11 13  1  0  0  0  0
 11 12  1  0  0  0  0
 12 14  1  0  0  0  0
 14 15  1  0  0  0  0
 14 18  1  6  0  0  0
 15 17  1  0  0  0  0
 16 17  1  0  0  0  0
 18 19  1  0  0  0  0
 19 23  1  0  0  0  0
 20 21  2  0  0  0  0
 20 25  1  0  0  0  0
 21 22  1  0  0  0  0
 22 23  2  0  0  0  0
 23 24  1  0  0  0  0
 24 25  2  0  0  0  0
M  END
>  <CHROM.1>
156.17645878,71.17335285,153.44023321,69.11365959,-101.33693386,-4.49190520
-4.99397364,12.71077506,0.38739972,-0.02289795,1.44573621

>  <Name>
ligand

>  <RI>
0

>  <Rbt.Current_Directory>
/home/itssahil/PROJECTS/Mol_Feturizer/New_Systems/rnas/4LVV

>  <Rbt.Executable>
rbdock ($Id: //depot/dev/client3/rdock/2013.1/src/exe/rbdock.cxx#4 $)

>  <Rbt.Library>
libRbt.so (2013.1, Build901 2013/11/27)

>  <Rbt.Parameter_File>
/export/apps/rDock/src/rDock_2013.1_src/data/scripts/dock_solv.prm

>  <Rbt.Receptor>
prm/blind_docking_20.prm

>  <SCORE>
-6.13916

>  <SCORE.INTER>
-6.85242

>  <SCORE.INTER.CONST>
1

>  <SCORE.INTER.POLAR>
0

>  <SCORE.INTER.ROT>
5

>  <SCORE.INTER.SOLV>
12.1436

>  <SCORE.INTER.VDW>
-15.5495

>  <SCORE.INTER.norm>
-0.274097

>  <SCORE.INTRA>
-0.0164824

>  <SCORE.INTRA.DIHEDRAL>
0.0608165

>  <SCORE.INTRA.DIHEDRAL.0>
3.94806

>  <SCORE.INTRA.POLAR>
0

>  <SCORE.INTRA.POLAR.0>
0

>  <SCORE.INTRA.REPUL>
0

>  <SCORE.INTRA.REPUL.0>
0

>  <SCORE.INTRA.SOLV>
2.14716

>  <SCORE.INTRA.SOLV.lig_0>
-70.9803

>  <SCORE.INTRA.VDW>
-1.12047

>  <SCORE.INTRA.VDW.0>
-0.709409

>  <SCORE.INTRA.norm>
-0.000659297

>  <SCORE.RESTR>
0.729737

>  <SCORE.RESTR.CAVITY>
0.729737

>  <SCORE.RESTR.norm>
0.0291895

>  <SCORE.SYSTEM>
0

>  <SCORE.SYSTEM.CONST>
0

>  <SCORE.SYSTEM.DIHEDRAL>
0

>  <SCORE.SYSTEM.SOLV>
0

>  <SCORE.SYSTEM.norm>
0

>  <SCORE.heavy>
25

>  <SCORE.norm>
-0.245567

>  <RMSD>
22.896

$$$$
ligand
 OpenBabel11021811503D
libRbt.so/2013.1/901 2013/11/27
 25 27  0  0  0  0  0  0  0  0999 V2000
   -9.4675   -2.1455   11.7204 N   0  0  0  0  0  0  0  0  0  0  0  0
   -8.7046   -3.1286   11.0157 C   0  0  0  0  0  0  0  0  0  0  0  0
   -9.1508   -3.6638   10.0084 O   0  0  0  0  0  0  0  0  0  0  0  0
    2.4389   -3.8278   17.0837 N   0  0  0  0  0  0  0  0  0  0  0  0
    0.7604   -5.0560   15.8840 N   0  0  0  0  0  0  0  0  0  0  0  0
    1.0897   -4.2669   16.9326 C   0  0  0  0  0  0  0  0  0  0  0  0
    0.1539   -3.8915   17.8556 N   0  0  0  0  0  0  0  0  0  0  0  0
   -1.1427   -4.2833   17.7671 C   0  0  0  0  0  0  0  0  0  0  0  0
   -1.5303   -5.0979   16.6763 C   0  0  0  0  0  0  0  0  0  0  0  0
   -2.0407   -3.8633   18.7201 O   0  0  0  0  0  0  0  0  0  0  0  0
   -3.7285   -6.0601   17.5369 C   0  0  0  0  0  0  0  0  0  0  0  0
   -2.8729   -5.6136   16.4639 N   0  0  0  0  0  0  0  0  0  0  0  0
   -4.9527   -6.0102   17.4841 O   0  0  0  0  0  0  0  0  0  0  0  0
   -3.2488   -5.7515   15.1217 C   0  0  2  0  0  0  0  0  0  0  0  0
   -2.2419   -6.6787   14.3937 C   0  0  0  0  0  0  0  0  0  0  0  0
   -0.5297   -5.4935   15.7334 C   0  0  0  0  0  0  0  0  0  0  0  0
   -0.8916   -6.3341   14.5889 N   0  0  0  0  0  0  0  0  0  0  0  0
   -3.3143   -4.4006   14.4382 C   0  0  0  0  0  0  0  0  0  0  0  0
   -3.5272   -4.3953   13.0174 N   0  0  0  0  0  0  0  0  0  0  0  0
   -7.3472   -3.4787   11.5194 C   0  0  0  0  0  0  0  0  0  0  0  0
   -6.4809   -4.2507   10.7575 C   0  0  0  0  0  0  0  0  0  0  0  0
   -5.2209   -4.5593   11.2556 C   0  0  0  0  0  0  0  0  0  0  0  0
   -4.8252   -4.0863   12.5052 C   0  0  0  0  0  0  0  0  0  0  0  0
   -5.6884   -3.3081   13.2566 C   0  0  0  0  0  0  0  0  0  0  0  0
   -6.9527   -3.0085   12.7636 C   0  0  0  0  0  0  0  0  0  0  0  0
  1  2  1  0  0  0  0
  2  3  2  0  0  0  0
  2 20  1  0  0  0  0
  4  6  1  0  0  0  0
  5  6  2  0  0  0  0
  5 16  1  0  0  0  0
  6  7  1  0  0  0  0
  7  8  1  0  0  0  0
  8  9  1  0  0  0  0
  8 10  2  0  0  0  0
  9 12  1  0  0  0  0
  9 16  2  0  0  0  0
 11 13  1  0  0  0  0
 11 12  1  0  0  0  0
 12 14  1  0  0  0  0
 14 15  1  0  0  0  0
 14 18  1  6  0  0  0
 15 17  1  0  0  0  0
 16 17  1  0  0  0  0
 18 19  1  0  0  0  0
 19 23  1  0  0  0  0
 20 21  2  0  0  0  0
 20 25  1  0  0  0  0
 21 22  1  0  0  0  0
 22 23  2  0  0  0  0
 23 24  1  0  0  0  0
 24 25  2  0  0  0  0
M  END
>  <CHROM.1>
151.25081310,172.58513228,102.68238457,-154.69733506,-169.09260569,-3.56207414
-4.53037721,14.65441795,2.48635957,0.11305532,-1.48069105

>  <Name>
ligand

>  <RI>
0

>  <Rbt.Current_Directory>
/home/itssahil/PROJECTS/Mol_Feturizer/New_Systems/rnas/4LVV

>  <Rbt.Executable>
rbdock ($Id: //depot/dev/client3/rdock/2013.1/src/exe/rbdock.cxx#4 $)

>  <Rbt.Library>
libRbt.so (2013.1, Build901 2013/11/27)

>  <Rbt.Parameter_File>
/export/apps/rDock/src/rDock_2013.1_src/data/scripts/dock_solv.prm

>  <Rbt.Receptor>
prm/blind_docking_20.prm

>  <SCORE>
-3.21606

>  <SCORE.INTER>
-3.65531

>  <SCORE.INTER.CONST>
1

>  <SCORE.INTER.POLAR>
0

>  <SCORE.INTER.ROT>
5

>  <SCORE.INTER.SOLV>
19.7199

>  <SCORE.INTER.VDW>
-15.9435

>  <SCORE.INTER.norm>
-0.146212

>  <SCORE.INTRA>
0.43925

>  <SCORE.INTRA.DIHEDRAL>
0.318627

>  <SCORE.INTRA.DIHEDRAL.0>
3.94806

>  <SCORE.INTRA.POLAR>
0

>  <SCORE.INTRA.POLAR.0>
0

>  <SCORE.INTRA.REPUL>
0

>  <SCORE.INTRA.REPUL.0>
0

>  <SCORE.INTRA.SOLV>
-0.0230462

>  <SCORE.INTRA.SOLV.lig_0>
-70.9803

>  <SCORE.INTRA.VDW>
0.29146

>  <SCORE.INTRA.VDW.0>
-0.709409

>  <SCORE.INTRA.norm>
0.01757

>  <SCORE.RESTR>
0

>  <SCORE.RESTR.CAVITY>
0

>  <SCORE.RESTR.norm>
0

>  <SCORE.SYSTEM>
0

>  <SCORE.SYSTEM.CONST>
0

>  <SCORE.SYSTEM.DIHEDRAL>
0

>  <SCORE.SYSTEM.SOLV>
0

>  <SCORE.SYSTEM.norm>
0

>  <SCORE.heavy>
25

>  <SCORE.norm>
-0.128642

>  <RMSD>
22.933

$$$$
ligand
 OpenBabel11021811503D
libRbt.so/2013.1/901 2013/11/27
 25 27  0  0  0  0  0  0  0  0999 V2000
   -8.6797   -3.0292    9.9263 N   0  0  0  0  0  0  0  0  0  0  0  0
   -8.6393   -2.6616   11.3078 C   0  0  0  0  0  0  0  0  0  0  0  0
   -9.5685   -2.0503   11.8206 O   0  0  0  0  0  0  0  0  0  0  0  0
    1.8263   -3.3740   14.4969 N   0  0  0  0  0  0  0  0  0  0  0  0
   -0.1047   -4.7859   14.2889 N   0  0  0  0  0  0  0  0  0  0  0  0
    0.7127   -4.0511   15.0780 C   0  0  0  0  0  0  0  0  0  0  0  0
    0.4958   -3.9545   16.4241 N   0  0  0  0  0  0  0  0  0  0  0  0
   -0.5430   -4.5810   17.0331 C   0  0  0  0  0  0  0  0  0  0  0  0
   -1.4294   -5.3481   16.2398 C   0  0  0  0  0  0  0  0  0  0  0  0
   -0.7163   -4.4363   18.3896 O   0  0  0  0  0  0  0  0  0  0  0  0
   -2.5492   -6.7971   18.0131 C   0  0  0  0  0  0  0  0  0  0  0  0
   -2.5674   -6.0927   16.7537 N   0  0  0  0  0  0  0  0  0  0  0  0
   -3.2507   -7.7759   18.2448 O   0  0  0  0  0  0  0  0  0  0  0  0
   -3.6636   -6.1730   15.8854 C   0  0  2  0  0  0  0  0  0  0  0  0
   -3.2181   -6.8130   14.5455 C   0  0  0  0  0  0  0  0  0  0  0  0
   -1.1714   -5.4499   14.8362 C   0  0  0  0  0  0  0  0  0  0  0  0
   -2.0676   -6.2322   13.9804 N   0  0  0  0  0  0  0  0  0  0  0  0
   -4.2623   -4.8020   15.6442 C   0  0  0  0  0  0  0  0  0  0  0  0
   -4.0818   -4.2291   14.3391 N   0  0  0  0  0  0  0  0  0  0  0  0
   -7.4519   -3.0512   12.1185 C   0  0  0  0  0  0  0  0  0  0  0  0
   -7.2552   -2.5315   13.3905 C   0  0  0  0  0  0  0  0  0  0  0  0
   -6.1377   -2.9157   14.1217 C   0  0  0  0  0  0  0  0  0  0  0  0
   -5.2282   -3.8258   13.5869 C   0  0  0  0  0  0  0  0  0  0  0  0
   -5.4342   -4.3495   12.3225 C   0  0  0  0  0  0  0  0  0  0  0  0
   -6.5458   -3.9571   11.5866 C   0  0  0  0  0  0  0  0  0  0  0  0
  1  2  1  0  0  0  0
  2  3  2  0  0  0  0
  2 20  1  0  0  0  0
  4  6  1  0  0  0  0
  5  6  2  0  0  0  0
  5 16  1  0  0  0  0
  6  7  1  0  0  0  0
  7  8  1  0  0  0  0
  8  9  1  0  0  0  0
  8 10  2  0  0  0  0
  9 12  1  0  0  0  0
  9 16  2  0  0  0  0
 11 13  1  0  0  0  0
 11 12  1  0  0  0  0
 12 14  1  0  0  0  0
 14 15  1  0  0  0  0
 14 18  1  6  0  0  0
 15 17  1  0  0  0  0
 16 17  1  0  0  0  0
 18 19  1  0  0  0  0
 19 23  1  0  0  0  0
 20 21  2  0  0  0  0
 20 25  1  0  0  0  0
 21 22  1  0  0  0  0
 22 23  2  0  0  0  0
 23 24  1  0  0  0  0
 24 25  2  0  0  0  0
M  END
>  <CHROM.1>
-152.92809808,109.64696166,123.89284377,56.23499377,168.99411867,-3.62344489
-4.57274160,14.65176136,-2.52841312,0.13166495,2.20928349

>  <Name>
ligand

>  <RI>
0

>  <Rbt.Current_Directory>
/home/itssahil/PROJECTS/Mol_Feturizer/New_Systems/rnas/4LVV

>  <Rbt.Executable>
rbdock ($Id: //depot/dev/client3/rdock/2013.1/src/exe/rbdock.cxx#4 $)

>  <Rbt.Library>
libRbt.so (2013.1, Build901 2013/11/27)

>  <Rbt.Parameter_File>
/export/apps/rDock/src/rDock_2013.1_src/data/scripts/dock_solv.prm

>  <Rbt.Receptor>
prm/blind_docking_20.prm

>  <SCORE>
-5.91447

>  <SCORE.INTER>
-9.75845

>  <SCORE.INTER.CONST>
1

>  <SCORE.INTER.POLAR>
0

>  <SCORE.INTER.ROT>
5

>  <SCORE.INTER.SOLV>
14.3373

>  <SCORE.INTER.VDW>
-18.2181

>  <SCORE.INTER.norm>
-0.390338

>  <SCORE.INTRA>
3.4783

>  <SCORE.INTRA.DIHEDRAL>
5.53538

>  <SCORE.INTRA.DIHEDRAL.0>
3.94806

>  <SCORE.INTRA.POLAR>
0

>  <SCORE.INTRA.POLAR.0>
0

>  <SCORE.INTRA.REPUL>
0

>  <SCORE.INTRA.REPUL.0>
0

>  <SCORE.INTRA.SOLV>
1.36039

>  <SCORE.INTRA.SOLV.lig_0>
-70.9803

>  <SCORE.INTRA.VDW>
0.0304145

>  <SCORE.INTRA.VDW.0>
-0.709409

>  <SCORE.INTRA.norm>
0.139132

>  <SCORE.RESTR>
0.36568

>  <SCORE.RESTR.CAVITY>
0.36568

>  <SCORE.RESTR.norm>
0.0146272

>  <SCORE.SYSTEM>
0

>  <SCORE.SYSTEM.CONST>
0

>  <SCORE.SYSTEM.DIHEDRAL>
0

>  <SCORE.SYSTEM.SOLV>
0

>  <SCORE.SYSTEM.norm>
0

>  <SCORE.heavy>
25

>  <SCORE.norm>
-0.236579

>  <RMSD>
22.949

$$$$
ligand
 OpenBabel11021811503D
libRbt.so/2013.1/901 2013/11/27
 25 27  0  0  0  0  0  0  0  0999 V2000
   -9.4281   -1.9200   11.1174 N   0  0  0  0  0  0  0  0  0  0  0  0
   -8.7168   -3.0451   10.5945 C   0  0  0  0  0  0  0  0  0  0  0  0
   -9.1160   -3.6287    9.5944 O   0  0  0  0  0  0  0  0  0  0  0  0
    2.3219   -3.8986   15.9323 N   0  0  0  0  0  0  0  0  0  0  0  0
    0.4537   -5.1851   15.1450 N   0  0  0  0  0  0  0  0  0  0  0  0
    0.9852   -4.3731   16.0878 C   0  0  0  0  0  0  0  0  0  0  0  0
    0.2670   -4.0078   17.1920 N   0  0  0  0  0  0  0  0  0  0  0  0
   -1.0058   -4.4328   17.3964 C   0  0  0  0  0  0  0  0  0  0  0  0
   -1.6028   -5.2723   16.4257 C   0  0  0  0  0  0  0  0  0  0  0  0
   -1.6817   -4.0214   18.5211 O   0  0  0  0  0  0  0  0  0  0  0  0
   -3.5289   -6.2761   17.7602 C   0  0  0  0  0  0  0  0  0  0  0  0
   -2.9445   -5.8240   16.5205 N   0  0  0  0  0  0  0  0  0  0  0  0
   -3.4993   -7.4452   18.1290 O   0  0  0  0  0  0  0  0  0  0  0  0
   -3.6043   -5.9904   15.2962 C   0  0  2  0  0  0  0  0  0  0  0  0
   -2.7586   -6.9028   14.3711 C   0  0  0  0  0  0  0  0  0  0  0  0
   -0.8253   -5.6565   15.2879 C   0  0  0  0  0  0  0  0  0  0  0  0
   -1.4085   -6.5221   14.2591 N   0  0  0  0  0  0  0  0  0  0  0  0
   -3.8563   -4.6515   14.6328 C   0  0  0  0  0  0  0  0  0  0  0  0
   -3.9078   -4.6316   13.1971 N   0  0  0  0  0  0  0  0  0  0  0  0
   -7.4692   -3.4853   11.2790 C   0  0  0  0  0  0  0  0  0  0  0  0
   -7.2243   -4.8302   11.5197 C   0  0  0  0  0  0  0  0  0  0  0  0
   -6.0504   -5.2085   12.1598 C   0  0  0  0  0  0  0  0  0  0  0  0
   -5.1199   -4.2456   12.5455 C   0  0  0  0  0  0  0  0  0  0  0  0
   -5.3634   -2.9067   12.2937 C   0  0  0  0  0  0  0  0  0  0  0  0
   -6.5425   -2.5272   11.6636 C   0  0  0  0  0  0  0  0  0  0  0  0
  1  2  1  0  0  0  0
  2  3  2  0  0  0  0
  2 20  1  0  0  0  0
  4  6  1  0  0  0  0
  5  6  2  0  0  0  0
  5 16  1  0  0  0  0
  6  7  1  0  0  0  0
  7  8  1  0  0  0  0
  8  9  1  0  0  0  0
  8 10  2  0  0  0  0
  9 12  1  0  0  0  0
  9 16  2  0  0  0  0
 11 13  1  0  0  0  0
 11 12  1  0  0  0  0
 12 14  1  0  0  0  0
 14 15  1  0  0  0  0
 14 18  1  6  0  0  0
 15 17  1  0  0  0  0
 16 17  1  0  0  0  0
 18 19  1  0  0  0  0
 19 23  1  0  0  0  0
 20 21  2  0  0  0  0
 20 25  1  0  0  0  0
 21 22  1  0  0  0  0
 22 23  2  0  0  0  0
 23 24  1  0  0  0  0
 24 25  2  0  0  0  0
M  END
>  <CHROM.1>
-94.82938912,150.84577200,117.30819019,-93.28821866,135.82285861,-3.63331203
-4.71088456,14.43720548,-2.49080261,0.22820971,2.15813575

>  <Name>
ligand

>  <RI>
0

>  <Rbt.Current_Directory>
/home/itssahil/PROJECTS/Mol_Feturizer/New_Systems/rnas/4LVV

>  <Rbt.Executable>
rbdock ($Id: //depot/dev/client3/rdock/2013.1/src/exe/rbdock.cxx#4 $)

>  <Rbt.Library>
libRbt.so (2013.1, Build901 2013/11/27)

>  <Rbt.Parameter_File>
/export/apps/rDock/src/rDock_2013.1_src/data/scripts/dock_solv.prm

>  <Rbt.Receptor>
prm/blind_docking_20.prm

>  <SCORE>
-3.23159

>  <SCORE.INTER>
-4.26129

>  <SCORE.INTER.CONST>
1

>  <SCORE.INTER.POLAR>
0

>  <SCORE.INTER.ROT>
5

>  <SCORE.INTER.SOLV>
14.6799

>  <SCORE.INTER.VDW>
-14.6675

>  <SCORE.INTER.norm>
-0.170452

>  <SCORE.INTRA>
0.994314

>  <SCORE.INTRA.DIHEDRAL>
2.84184

>  <SCORE.INTRA.DIHEDRAL.0>
3.94806

>  <SCORE.INTRA.POLAR>
0

>  <SCORE.INTRA.POLAR.0>
0

>  <SCORE.INTRA.REPUL>
0

>  <SCORE.INTRA.REPUL.0>
0

>  <SCORE.INTRA.SOLV>
0.332563

>  <SCORE.INTRA.SOLV.lig_0>
-70.9803

>  <SCORE.INTRA.VDW>
-0.592888

>  <SCORE.INTRA.VDW.0>
-0.709409

>  <SCORE.INTRA.norm>
0.0397725

>  <SCORE.RESTR>
0.0353934

>  <SCORE.RESTR.CAVITY>
0.0353934

>  <SCORE.RESTR.norm>
0.00141574

>  <SCORE.SYSTEM>
0

>  <SCORE.SYSTEM.CONST>
0

>  <SCORE.SYSTEM.DIHEDRAL>
0

>  <SCORE.SYSTEM.SOLV>
0

>  <SCORE.SYSTEM.norm>
0

>  <SCORE.heavy>
25

>  <SCORE.norm>
-0.129264

>  <RMSD>
22.967

$$$$
ligand
 OpenBabel11021811503D
libRbt.so/2013.1/901 2013/11/27
 25 27  0  0  0  0  0  0  0  0999 V2000
   -8.8904   -3.5544    9.8460 N   0  0  0  0  0  0  0  0  0  0  0  0
   -8.8521   -2.7352   11.0176 C   0  0  0  0  0  0  0  0  0  0  0  0
   -9.6441   -1.8122   11.1625 O   0  0  0  0  0  0  0  0  0  0  0  0
    2.4126   -3.9562   15.7779 N   0  0  0  0  0  0  0  0  0  0  0  0
    0.5220   -5.2510   15.0606 N   0  0  0  0  0  0  0  0  0  0  0  0
    1.0761   -4.4173   15.9710 C   0  0  0  0  0  0  0  0  0  0  0  0
    0.3809   -4.0172   17.0778 N   0  0  0  0  0  0  0  0  0  0  0  0
   -0.8906   -4.4279   17.3172 C   0  0  0  0  0  0  0  0  0  0  0  0
   -1.5108   -5.2895   16.3809 C   0  0  0  0  0  0  0  0  0  0  0  0
   -1.5429   -3.9815   18.4425 O   0  0  0  0  0  0  0  0  0  0  0  0
   -3.4180   -6.2435   17.7776 C   0  0  0  0  0  0  0  0  0  0  0  0
   -2.8539   -5.8293   16.5155 N   0  0  0  0  0  0  0  0  0  0  0  0
   -3.5010   -7.4174   18.1226 O   0  0  0  0  0  0  0  0  0  0  0  0
   -3.5374   -6.0245   15.3086 C   0  0  2  0  0  0  0  0  0  0  0  0
   -2.7148   -6.9674   14.3933 C   0  0  0  0  0  0  0  0  0  0  0  0
   -0.7570   -5.7097   15.2399 C   0  0  0  0  0  0  0  0  0  0  0  0
   -1.3646   -6.5990   14.2461 N   0  0  0  0  0  0  0  0  0  0  0  0
   -3.7933   -4.7025   14.6136 C   0  0  0  0  0  0  0  0  0  0  0  0
   -4.9743   -3.9793   14.9964 N   0  0  0  0  0  0  0  0  0  0  0  0
   -7.8409   -3.0356   12.0692 C   0  0  0  0  0  0  0  0  0  0  0  0
   -7.6937   -2.2083   13.1741 C   0  0  0  0  0  0  0  0  0  0  0  0
   -6.7415   -2.5166   14.1381 C   0  0  0  0  0  0  0  0  0  0  0  0
   -5.9493   -3.6550   14.0030 C   0  0  0  0  0  0  0  0  0  0  0  0
   -6.1071   -4.4826   12.9051 C   0  0  0  0  0  0  0  0  0  0  0  0
   -7.0515   -4.1686   11.9352 C   0  0  0  0  0  0  0  0  0  0  0  0
  1  2  1  0  0  0  0
  2  3  2  0  0  0  0
  2 20  1  0  0  0  0
  4  6  1  0  0  0  0
  5  6  2  0  0  0  0
  5 16  1  0  0  0  0
  6  7  1  0  0  0  0
  7  8  1  0  0  0  0
  8  9  1  0  0  0  0
  8 10  2  0  0  0  0
  9 12  1  0  0  0  0
  9 16  2  0  0  0  0
 11 13  1  0  0  0  0
 11 12  1  0  0  0  0
 12 14  1  0  0  0  0
 14 15  1  0  0  0  0
 14 18  1  6  0  0  0
 15 17  1  0  0  0  0
 16 17  1  0  0  0  0
 18 19  1  0  0  0  0
 19 23  1  0  0  0  0
 20 21  2  0  0  0  0
 20 25  1  0  0  0  0
 21 22  1  0  0  0  0
 22 23  2  0  0  0  0
 23 24  1  0  0  0  0
 24 25  2  0  0  0  0
M  END
>  <CHROM.1>
-101.86232590,-85.80208290,-121.78698686,-150.81384536,174.90963272,-3.76734253
-4.55530905,14.76494377,-2.54757930,0.06976772,2.10478630

>  <Name>
ligand

>  <RI>
0

>  <Rbt.Current_Directory>
/home/itssahil/PROJECTS/Mol_Feturizer/New_Systems/rnas/4LVV

>  <Rbt.Executable>
rbdock ($Id: //depot/dev/client3/rdock/2013.1/src/exe/rbdock.cxx#4 $)

>  <Rbt.Library>
libRbt.so (2013.1, Build901 2013/11/27)

>  <Rbt.Parameter_File>
/export/apps/rDock/src/rDock_2013.1_src/data/scripts/dock_solv.prm

>  <Rbt.Receptor>
prm/blind_docking_20.prm

>  <SCORE>
-9.42201

>  <SCORE.INTER>
-10.2478

>  <SCORE.INTER.CONST>
1

>  <SCORE.INTER.POLAR>
0

>  <SCORE.INTER.ROT>
5

>  <SCORE.INTER.SOLV>
17.3121

>  <SCORE.INTER.VDW>
-19.5359

>  <SCORE.INTER.norm>
-0.409914

>  <SCORE.INTRA>
0.802487

>  <SCORE.INTRA.DIHEDRAL>
2.42614

>  <SCORE.INTRA.DIHEDRAL.0>
3.94806

>  <SCORE.INTRA.POLAR>
0

>  <SCORE.INTRA.POLAR.0>
0

>  <SCORE.INTRA.REPUL>
0

>  <SCORE.INTRA.REPUL.0>
0

>  <SCORE.INTRA.SOLV>
-0.485992

>  <SCORE.INTRA.SOLV.lig_0>
-70.9803

>  <SCORE.INTRA.VDW>
-0.167589

>  <SCORE.INTRA.VDW.0>
-0.709409

>  <SCORE.INTRA.norm>
0.0320995

>  <SCORE.RESTR>
0.0233471

>  <SCORE.RESTR.CAVITY>
0.0233471

>  <SCORE.RESTR.norm>
0.000933882

>  <SCORE.SYSTEM>
0

>  <SCORE.SYSTEM.CONST>
0

>  <SCORE.SYSTEM.DIHEDRAL>
0

>  <SCORE.SYSTEM.SOLV>
0

>  <SCORE.SYSTEM.norm>
0

>  <SCORE.heavy>
25

>  <SCORE.norm>
-0.376881

>  <RMSD>
23.018

$$$$
ligand
 OpenBabel11021811503D
libRbt.so/2013.1/901 2013/11/27
 25 27  0  0  0  0  0  0  0  0999 V2000
   -5.5603   -8.0127   29.2507 N   0  0  0  0  0  0  0  0  0  0  0  0
   -5.6407   -7.0925   30.3425 C   0  0  0  0  0  0  0  0  0  0  0  0
   -5.0270   -7.2991   31.3821 O   0  0  0  0  0  0  0  0  0  0  0  0
   -2.2800   -2.4081   27.8816 N   0  0  0  0  0  0  0  0  0  0  0  0
   -4.1786   -1.4833   29.0242 N   0  0  0  0  0  0  0  0  0  0  0  0
   -3.5299   -1.7200   27.8606 C   0  0  0  0  0  0  0  0  0  0  0  0
   -4.0465   -1.3023   26.6660 N   0  0  0  0  0  0  0  0  0  0  0  0
   -5.2277   -0.6383   26.5848 C   0  0  0  0  0  0  0  0  0  0  0  0
   -5.9441   -0.3838   27.7788 C   0  0  0  0  0  0  0  0  0  0  0  0
   -5.7019   -0.2539   25.3526 O   0  0  0  0  0  0  0  0  0  0  0  0
   -7.5135    1.4779   27.0241 C   0  0  0  0  0  0  0  0  0  0  0  0
   -7.2056    0.3354   27.8503 N   0  0  0  0  0  0  0  0  0  0  0  0
   -6.9948    2.5781   27.1799 O   0  0  0  0  0  0  0  0  0  0  0  0
   -8.0743   -0.0920   28.8624 C   0  0  2  0  0  0  0  0  0  0  0  0
   -7.3640    0.0175   30.2361 C   0  0  0  0  0  0  0  0  0  0  0  0
   -5.3745   -0.8139   29.0187 C   0  0  0  0  0  0  0  0  0  0  0  0
   -6.0868   -0.5718   30.2764 N   0  0  0  0  0  0  0  0  0  0  0  0
   -8.5323   -1.5151   28.6150 C   0  0  0  0  0  0  0  0  0  0  0  0
   -8.7348   -2.3477   29.7683 N   0  0  0  0  0  0  0  0  0  0  0  0
   -6.4722   -5.8665   30.1865 C   0  0  0  0  0  0  0  0  0  0  0  0
   -7.8568   -5.9465   30.1288 C   0  0  0  0  0  0  0  0  0  0  0  0
   -8.6042   -4.7840   29.9837 C   0  0  0  0  0  0  0  0  0  0  0  0
   -7.9689   -3.5460   29.9098 C   0  0  0  0  0  0  0  0  0  0  0  0
   -6.5887   -3.4703   29.9787 C   0  0  0  0  0  0  0  0  0  0  0  0
   -5.8404   -4.6336   30.1126 C   0  0  0  0  0  0  0  0  0  0  0  0
  1  2  1  0  0  0  0
  2  3  2  0  0  0  0
  2 20  1  0  0  0  0
  4  6  1  0  0  0  0
  5  6  2  0  0  0  0
  5 16  1  0  0  0  0
  6  7  1  0  0  0  0
  7  8  1  0  0  0  0
  8  9  1  0  0  0  0
  8 10  2  0  0  0  0
  9 12  1  0  0  0  0
  9 16  2  0  0  0  0
 11 13  1  0  0  0  0
 11 12  1  0  0  0  0
 12 14  1  0  0  0  0
 14 15  1  0  0  0  0
 14 18  1  6  0  0  0
 15 17  1  0  0  0  0
 16 17  1  0  0  0  0
 18 19  1  0  0  0  0
 19 23  1  0  0  0  0
 20 21  2  0  0  0  0
 20 25  1  0  0  0  0
 21 22  1  0  0  0  0
 22 23  2  0  0  0  0
 23 24  1  0  0  0  0
 24 25  2  0  0  0  0
M  END
>  <CHROM.1>
-71.91761829,145.08071311,-119.84041154,-119.80824818,69.78306730,-6.24109531
-2.30871523,28.80722320,-1.53531082,0.38520559,-0.39791668

>  <Name>
ligand

>  <RI>
0

>  <Rbt.Current_Directory>
/home/itssahil/PROJECTS/Mol_Feturizer/New_Systems/rnas/4LVV

>  <Rbt.Executable>
rbdock ($Id: //depot/dev/client3/rdock/2013.1/src/exe/rbdock.cxx#4 $)

>  <Rbt.Library>
libRbt.so (2013.1, Build901 2013/11/27)

>  <Rbt.Parameter_File>
/export/apps/rDock/src/rDock_2013.1_src/data/scripts/dock_solv.prm

>  <Rbt.Receptor>
prm/blind_docking_40.prm

>  <SCORE>
-8.91017

>  <SCORE.INTER>
-9.81843

>  <SCORE.INTER.CONST>
1

>  <SCORE.INTER.POLAR>
0

>  <SCORE.INTER.ROT>
5

>  <SCORE.INTER.SOLV>
14.8663

>  <SCORE.INTER.VDW>
-18.4344

>  <SCORE.INTER.norm>
-0.392737

>  <SCORE.INTRA>
0.908263

>  <SCORE.INTRA.DIHEDRAL>
3.7032

>  <SCORE.INTRA.DIHEDRAL.0>
3.94806

>  <SCORE.INTRA.POLAR>
0

>  <SCORE.INTRA.POLAR.0>
0

>  <SCORE.INTRA.REPUL>
0

>  <SCORE.INTRA.REPUL.0>
0

>  <SCORE.INTRA.SOLV>
1.05878

>  <SCORE.INTRA.SOLV.lig_0>
-70.9803

>  <SCORE.INTRA.VDW>
-1.47273

>  <SCORE.INTRA.VDW.0>
-0.709409

>  <SCORE.INTRA.norm>
0.0363305

>  <SCORE.RESTR>
0

>  <SCORE.RESTR.CAVITY>
0

>  <SCORE.RESTR.norm>
0

>  <SCORE.SYSTEM>
0

>  <SCORE.SYSTEM.CONST>
0

>  <SCORE.SYSTEM.DIHEDRAL>
0

>  <SCORE.SYSTEM.SOLV>
0

>  <SCORE.SYSTEM.norm>
0

>  <SCORE.heavy>
25

>  <SCORE.norm>
-0.356407

>  <RMSD>
23.099

$$$$
ligand
 OpenBabel11021811503D
libRbt.so/2013.1/901 2013/11/27
 25 27  0  0  0  0  0  0  0  0999 V2000
   -8.3505    1.7367   26.2090 N   0  0  0  0  0  0  0  0  0  0  0  0
   -7.1636    1.9368   26.9814 C   0  0  0  0  0  0  0  0  0  0  0  0
   -7.0154    2.9521   27.6502 O   0  0  0  0  0  0  0  0  0  0  0  0
   -8.5557   -1.0577   30.1699 N   0  0  0  0  0  0  0  0  0  0  0  0
   -6.5600   -2.3874   30.2893 N   0  0  0  0  0  0  0  0  0  0  0  0
   -7.5667   -1.8744   29.5447 C   0  0  0  0  0  0  0  0  0  0  0  0
   -7.6581   -2.1337   28.2058 N   0  0  0  0  0  0  0  0  0  0  0  0
   -6.7506   -2.9081   27.5584 C   0  0  0  0  0  0  0  0  0  0  0  0
   -5.6742   -3.4519   28.2995 C   0  0  0  0  0  0  0  0  0  0  0  0
   -6.8891   -3.1231   26.2073 O   0  0  0  0  0  0  0  0  0  0  0  0
   -4.9053   -5.3242   26.7498 C   0  0  0  0  0  0  0  0  0  0  0  0
   -4.6432   -4.3166   27.7492 N   0  0  0  0  0  0  0  0  0  0  0  0
   -5.1353   -6.4972   27.0236 O   0  0  0  0  0  0  0  0  0  0  0  0
   -3.3795   -4.1800   28.3375 C   0  0  2  0  0  0  0  0  0  0  0  0
   -3.4855   -4.4447   29.8614 C   0  0  0  0  0  0  0  0  0  0  0  0
   -5.6098   -3.1823   29.7030 C   0  0  0  0  0  0  0  0  0  0  0  0
   -4.5093   -3.7246   30.5045 N   0  0  0  0  0  0  0  0  0  0  0  0
   -2.8099   -2.8000   28.0781 C   0  0  0  0  0  0  0  0  0  0  0  0
   -3.2005   -2.1491   26.8582 N   0  0  0  0  0  0  0  0  0  0  0  0
   -6.1157    0.8783   26.9721 C   0  0  0  0  0  0  0  0  0  0  0  0
   -5.3087    0.6638   28.0810 C   0  0  0  0  0  0  0  0  0  0  0  0
   -4.3407   -0.3323   28.0408 C   0  0  0  0  0  0  0  0  0  0  0  0
   -4.1899   -1.1186   26.9004 C   0  0  0  0  0  0  0  0  0  0  0  0
   -5.0040   -0.9082   25.8011 C   0  0  0  0  0  0  0  0  0  0  0  0
   -5.9648    0.0952   25.8368 C   0  0  0  0  0  0  0  0  0  0  0  0
  1  2  1  0  0  0  0
  2  3  2  0  0  0  0
  2 20  1  0  0  0  0
  4  6  1  0  0  0  0
  5  6  2  0  0  0  0
  5 16  1  0  0  0  0
  6  7  1  0  0  0  0
  7  8  1  0  0  0  0
  8  9  1  0  0  0  0
  8 10  2  0  0  0  0
  9 12  1  0  0  0  0
  9 16  2  0  0  0  0
 11 13  1  0  0  0  0
 11 12  1  0  0  0  0
 12 14  1  0  0  0  0
 14 15  1  0  0  0  0
 14 18  1  1  0  0  0
 15 17  1  0  0  0  0
 16 17  1  0  0  0  0
 18 19  1  0  0  0  0
 19 23  1  0  0  0  0
 20 21  2  0  0  0  0
 20 25  1  0  0  0  0
 21 22  1  0  0  0  0
 22 23  2  0  0  0  0
 23 24  1  0  0  0  0
 24 25  2  0  0  0  0
M  END
>  <CHROM.1>
-94.19622640,-30.04897866,102.51536851,29.01672650,-149.06555579,-5.64016331
-1.96986314,27.90570522,-2.10749535,-0.68477697,2.61239325

>  <Name>
ligand

>  <RI>
0

>  <Rbt.Current_Directory>
/home/itssahil/PROJECTS/Mol_Feturizer/New_Systems/rnas/4LVV

>  <Rbt.Executable>
rbdock ($Id: //depot/dev/client3/rdock/2013.1/src/exe/rbdock.cxx#4 $)

>  <Rbt.Library>
libRbt.so (2013.1, Build901 2013/11/27)

>  <Rbt.Parameter_File>
/export/apps/rDock/src/rDock_2013.1_src/data/scripts/dock_solv.prm

>  <Rbt.Receptor>
prm/blind_docking_100.prm

>  <SCORE>
-11.238

>  <SCORE.INTER>
-9.59933

>  <SCORE.INTER.CONST>
1

>  <SCORE.INTER.POLAR>
0

>  <SCORE.INTER.ROT>
5

>  <SCORE.INTER.SOLV>
9.59945

>  <SCORE.INTER.VDW>
-16.5327

>  <SCORE.INTER.norm>
-0.383973

>  <SCORE.INTRA>
-1.63863

>  <SCORE.INTRA.DIHEDRAL>
2.78834

>  <SCORE.INTRA.DIHEDRAL.0>
3.94806

>  <SCORE.INTRA.POLAR>
0

>  <SCORE.INTRA.POLAR.0>
0

>  <SCORE.INTRA.REPUL>
0

>  <SCORE.INTRA.REPUL.0>
0

>  <SCORE.INTRA.SOLV>
1.17534

>  <SCORE.INTRA.SOLV.lig_0>
-70.9803

>  <SCORE.INTRA.VDW>
-3.62047

>  <SCORE.INTRA.VDW.0>
-0.709409

>  <SCORE.INTRA.norm>
-0.0655452

>  <SCORE.RESTR>
0

>  <SCORE.RESTR.CAVITY>
0

>  <SCORE.RESTR.norm>
0

>  <SCORE.SYSTEM>
0

>  <SCORE.SYSTEM.CONST>
0

>  <SCORE.SYSTEM.DIHEDRAL>
0

>  <SCORE.SYSTEM.SOLV>
0

>  <SCORE.SYSTEM.norm>
0

>  <SCORE.heavy>
25

>  <SCORE.norm>
-0.449518

>  <RMSD>
23.102

$$$$
ligand
 OpenBabel11021811503D
libRbt.so/2013.1/901 2013/11/27
 25 27  0  0  0  0  0  0  0  0999 V2000
   -8.9948   -2.2750    9.8185 N   0  0  0  0  0  0  0  0  0  0  0  0
   -8.8371   -2.3908   11.2352 C   0  0  0  0  0  0  0  0  0  0  0  0
   -9.7082   -1.9897   11.9971 O   0  0  0  0  0  0  0  0  0  0  0  0
    2.5711   -4.4200   14.7585 N   0  0  0  0  0  0  0  0  0  0  0  0
    0.4668   -5.5556   14.5399 N   0  0  0  0  0  0  0  0  0  0  0  0
    1.2510   -4.6926   15.2265 C   0  0  0  0  0  0  0  0  0  0  0  0
    0.8037   -4.0854   16.3665 N   0  0  0  0  0  0  0  0  0  0  0  0
   -0.4397   -4.3106   16.8623 C   0  0  0  0  0  0  0  0  0  0  0  0
   -1.2959   -5.1961   16.1649 C   0  0  0  0  0  0  0  0  0  0  0  0
   -0.8371   -3.6606   18.0071 O   0  0  0  0  0  0  0  0  0  0  0  0
   -3.0113   -5.7454   17.9688 C   0  0  0  0  0  0  0  0  0  0  0  0
   -2.6405   -5.5525   16.5875 N   0  0  0  0  0  0  0  0  0  0  0  0
   -2.7855   -4.9187   18.8460 O   0  0  0  0  0  0  0  0  0  0  0  0
   -3.5414   -5.8053   15.5452 C   0  0  2  0  0  0  0  0  0  0  0  0
   -2.9885   -6.9404   14.6456 C   0  0  0  0  0  0  0  0  0  0  0  0
   -0.7992   -5.8343   14.9847 C   0  0  0  0  0  0  0  0  0  0  0  0
   -1.6559   -6.7554   14.2329 N   0  0  0  0  0  0  0  0  0  0  0  0
   -3.7855   -4.5530   14.7276 C   0  0  0  0  0  0  0  0  0  0  0  0
   -4.0896   -4.7295   13.3345 N   0  0  0  0  0  0  0  0  0  0  0  0
   -7.5996   -3.0250   11.7690 C   0  0  0  0  0  0  0  0  0  0  0  0
   -7.0644   -4.1582   11.1721 C   0  0  0  0  0  0  0  0  0  0  0  0
   -5.9081   -4.7255   11.6937 C   0  0  0  0  0  0  0  0  0  0  0  0
   -5.2832   -4.1533   12.8000 C   0  0  0  0  0  0  0  0  0  0  0  0
   -5.8145   -3.0172   13.3852 C   0  0  0  0  0  0  0  0  0  0  0  0
   -6.9771   -2.4560   12.8706 C   0  0  0  0  0  0  0  0  0  0  0  0
  1  2  1  0  0  0  0
  2  3  2  0  0  0  0
  2 20  1  0  0  0  0
  4  6  1  0  0  0  0
  5  6  2  0  0  0  0
  5 16  1  0  0  0  0
  6  7  1  0  0  0  0
  7  8  1  0  0  0  0
  8  9  1  0  0  0  0
  8 10  2  0  0  0  0
  9 12  1  0  0  0  0
  9 16  2  0  0  0  0
 11 13  1  0  0  0  0
 11 12  1  0  0  0  0
 12 14  1  0  0  0  0
 14 15  1  0  0  0  0
 14 18  1  6  0  0  0
 15 17  1  0  0  0  0
 16 17  1  0  0  0  0
 18 19  1  0  0  0  0
 19 23  1  0  0  0  0
 20 21  2  0  0  0  0
 20 25  1  0  0  0  0
 21 22  1  0  0  0  0
 22 23  2  0  0  0  0
 23 24  1  0  0  0  0
 24 25  2  0  0  0  0
M  END
>  <CHROM.1>
52.30946352,149.61404026,125.11098667,-152.54290131,-41.35815036,-3.51682888
-4.44670053,14.47261593,-2.59195256,-0.22956986,1.63693621

>  <Name>
ligand

>  <RI>
0

>  <Rbt.Current_Directory>
/home/itssahil/PROJECTS/Mol_Feturizer/New_Systems/rnas/4LVV

>  <Rbt.Executable>
rbdock ($Id: //depot/dev/client3/rdock/2013.1/src/exe/rbdock.cxx#4 $)

>  <Rbt.Library>
libRbt.so (2013.1, Build901 2013/11/27)

>  <Rbt.Parameter_File>
/export/apps/rDock/src/rDock_2013.1_src/data/scripts/dock_solv.prm

>  <Rbt.Receptor>
prm/blind_docking_20.prm

>  <SCORE>
-4.54019

>  <SCORE.INTER>
-7.87693

>  <SCORE.INTER.CONST>
1

>  <SCORE.INTER.POLAR>
0

>  <SCORE.INTER.ROT>
5

>  <SCORE.INTER.SOLV>
14.2404

>  <SCORE.INTER.VDW>
-16.9314

>  <SCORE.INTER.norm>
-0.315077

>  <SCORE.INTRA>
2.82428

>  <SCORE.INTRA.DIHEDRAL>
3.09996

>  <SCORE.INTRA.DIHEDRAL.0>
3.94806

>  <SCORE.INTRA.POLAR>
0

>  <SCORE.INTRA.POLAR.0>
0

>  <SCORE.INTRA.REPUL>
0

>  <SCORE.INTRA.REPUL.0>
0

>  <SCORE.INTRA.SOLV>
0.726764

>  <SCORE.INTRA.SOLV.lig_0>
-70.9803

>  <SCORE.INTRA.VDW>
0.910922

>  <SCORE.INTRA.VDW.0>
-0.709409

>  <SCORE.INTRA.norm>
0.112971

>  <SCORE.RESTR>
0.512463

>  <SCORE.RESTR.CAVITY>
0.512463

>  <SCORE.RESTR.norm>
0.0204985

>  <SCORE.SYSTEM>
0

>  <SCORE.SYSTEM.CONST>
0

>  <SCORE.SYSTEM.DIHEDRAL>
0

>  <SCORE.SYSTEM.SOLV>
0

>  <SCORE.SYSTEM.norm>
0

>  <SCORE.heavy>
25

>  <SCORE.norm>
-0.181607

>  <RMSD>
23.115

$$$$
ligand
 OpenBabel11021811503D
libRbt.so/2013.1/901 2013/11/27
 25 27  0  0  0  0  0  0  0  0999 V2000
    0.3170   -1.9192   30.5029 N   0  0  0  0  0  0  0  0  0  0  0  0
   -0.7468   -2.8656   30.6384 C   0  0  0  0  0  0  0  0  0  0  0  0
   -0.5127   -4.0353   30.9158 O   0  0  0  0  0  0  0  0  0  0  0  0
  -12.6130   -0.9232   27.9547 N   0  0  0  0  0  0  0  0  0  0  0  0
  -11.2363   -1.2777   29.8897 N   0  0  0  0  0  0  0  0  0  0  0  0
  -11.4490   -1.4754   28.5681 C   0  0  0  0  0  0  0  0  0  0  0  0
  -10.5731   -2.2036   27.8126 N   0  0  0  0  0  0  0  0  0  0  0  0
   -9.4528   -2.7577   28.3423 C   0  0  0  0  0  0  0  0  0  0  0  0
   -9.1870   -2.5617   29.7188 C   0  0  0  0  0  0  0  0  0  0  0  0
   -8.6032   -3.4699   27.5288 O   0  0  0  0  0  0  0  0  0  0  0  0
   -7.5091   -4.4277   30.1670 C   0  0  0  0  0  0  0  0  0  0  0  0
   -8.0441   -3.1130   30.4282 N   0  0  0  0  0  0  0  0  0  0  0  0
   -8.2129   -5.4191   30.0074 O   0  0  0  0  0  0  0  0  0  0  0  0
   -7.5542   -2.3170   31.4713 C   0  0  2  0  0  0  0  0  0  0  0  0
   -8.6878   -2.0468   32.4939 C   0  0  0  0  0  0  0  0  0  0  0  0
  -10.1277   -1.8119   30.4932 C   0  0  0  0  0  0  0  0  0  0  0  0
   -9.8869   -1.5843   31.9207 N   0  0  0  0  0  0  0  0  0  0  0  0
   -6.9993   -1.0113   30.9387 C   0  0  0  0  0  0  0  0  0  0  0  0
   -6.0949   -1.0900   29.8252 N   0  0  0  0  0  0  0  0  0  0  0  0
   -2.1491   -2.3988   30.4529 C   0  0  0  0  0  0  0  0  0  0  0  0
   -2.8574   -1.8333   31.5042 C   0  0  0  0  0  0  0  0  0  0  0  0
   -4.1639   -1.4070   31.2984 C   0  0  0  0  0  0  0  0  0  0  0  0
   -4.7540   -1.5344   30.0425 C   0  0  0  0  0  0  0  0  0  0  0  0
   -4.0401   -2.0890   28.9946 C   0  0  0  0  0  0  0  0  0  0  0  0
   -2.7373   -2.5257   29.2029 C   0  0  0  0  0  0  0  0  0  0  0  0
  1  2  1  0  0  0  0
  2  3  2  0  0  0  0
  2 20  1  0  0  0  0
  4  6  1  0  0  0  0
  5  6  2  0  0  0  0
  5 16  1  0  0  0  0
  6  7  1  0  0  0  0
  7  8  1  0  0  0  0
  8  9  1  0  0  0  0
  8 10  2  0  0  0  0
  9 12  1  0  0  0  0
  9 16  2  0  0  0  0
 11 13  1  0  0  0  0
 11 12  1  0  0  0  0
 12 14  1  0  0  0  0
 14 15  1  0  0  0  0
 14 18  1  6  0  0  0
 15 17  1  0  0  0  0
 16 17  1  0  0  0  0
 18 19  1  0  0  0  0
 19 23  1  0  0  0  0
 20 21  2  0  0  0  0
 20 25  1  0  0  0  0
 21 22  1  0  0  0  0
 22 23  2  0  0  0  0
 23 24  1  0  0  0  0
 24 25  2  0  0  0  0
M  END
>  <CHROM.1>
-43.40717471,-48.56696743,-74.98831493,-24.42172311,-85.01236241,-6.76894010
-2.37338362,30.03783671,-0.09085984,0.11841793,-2.10870201

>  <Name>
ligand

>  <RI>
0

>  <Rbt.Current_Directory>
/home/itssahil/PROJECTS/Mol_Feturizer/New_Systems/rnas/4LVV

>  <Rbt.Executable>
rbdock ($Id: //depot/dev/client3/rdock/2013.1/src/exe/rbdock.cxx#4 $)

>  <Rbt.Library>
libRbt.so (2013.1, Build901 2013/11/27)

>  <Rbt.Parameter_File>
/export/apps/rDock/src/rDock_2013.1_src/data/scripts/dock_solv.prm

>  <Rbt.Receptor>
prm/blind_docking_40.prm

>  <SCORE>
-10.7697

>  <SCORE.INTER>
-9.88355

>  <SCORE.INTER.CONST>
1

>  <SCORE.INTER.POLAR>
0

>  <SCORE.INTER.ROT>
5

>  <SCORE.INTER.SOLV>
11.0159

>  <SCORE.INTER.VDW>
-17.1943

>  <SCORE.INTER.norm>
-0.395342

>  <SCORE.INTRA>
-0.886155

>  <SCORE.INTRA.DIHEDRAL>
0.0303354

>  <SCORE.INTRA.DIHEDRAL.0>
3.94806

>  <SCORE.INTRA.POLAR>
0

>  <SCORE.INTRA.POLAR.0>
0

>  <SCORE.INTRA.REPUL>
0

>  <SCORE.INTRA.REPUL.0>
0

>  <SCORE.INTRA.SOLV>
0.373023

>  <SCORE.INTRA.SOLV.lig_0>
-70.9803

>  <SCORE.INTRA.VDW>
-1.08783

>  <SCORE.INTRA.VDW.0>
-0.709409

>  <SCORE.INTRA.norm>
-0.0354462

>  <SCORE.RESTR>
0

>  <SCORE.RESTR.CAVITY>
0

>  <SCORE.RESTR.norm>
0

>  <SCORE.SYSTEM>
0

>  <SCORE.SYSTEM.CONST>
0

>  <SCORE.SYSTEM.DIHEDRAL>
0

>  <SCORE.SYSTEM.SOLV>
0

>  <SCORE.SYSTEM.norm>
0

>  <SCORE.heavy>
25

>  <SCORE.norm>
-0.430788

>  <RMSD>
23.156

$$$$
ligand
 OpenBabel11021811503D
libRbt.so/2013.1/901 2013/11/27
 25 27  0  0  0  0  0  0  0  0999 V2000
  -13.2275   -2.3838   23.8222 N   0  0  0  0  0  0  0  0  0  0  0  0
  -13.1699   -1.7764   25.1157 C   0  0  0  0  0  0  0  0  0  0  0  0
  -14.0471   -1.0056   25.4851 O   0  0  0  0  0  0  0  0  0  0  0  0
   -1.7113   -5.5094   29.1125 N   0  0  0  0  0  0  0  0  0  0  0  0
   -3.4266   -4.0757   28.2366 N   0  0  0  0  0  0  0  0  0  0  0  0
   -2.9198   -5.3224   28.3773 C   0  0  0  0  0  0  0  0  0  0  0  0
   -3.5403   -6.4045   27.8184 N   0  0  0  0  0  0  0  0  0  0  0  0
   -4.6882   -6.2870   27.1036 C   0  0  0  0  0  0  0  0  0  0  0  0
   -5.2582   -5.0010   26.9457 C   0  0  0  0  0  0  0  0  0  0  0  0
   -5.2723   -7.4144   26.5756 O   0  0  0  0  0  0  0  0  0  0  0  0
   -6.8037   -5.3882   24.9558 C   0  0  0  0  0  0  0  0  0  0  0  0
   -6.4666   -4.7181   26.1887 N   0  0  0  0  0  0  0  0  0  0  0  0
   -5.9626   -5.7945   24.1612 O   0  0  0  0  0  0  0  0  0  0  0  0
   -7.2419   -3.6618   26.6837 C   0  0  2  0  0  0  0  0  0  0  0  0
   -6.3832   -2.3724   26.7447 C   0  0  0  0  0  0  0  0  0  0  0  0
   -4.5809   -3.8812   27.5236 C   0  0  0  0  0  0  0  0  0  0  0  0
   -5.1404   -2.5338   27.3848 N   0  0  0  0  0  0  0  0  0  0  0  0
   -7.7951   -3.9949   28.0546 C   0  0  0  0  0  0  0  0  0  0  0  0
   -8.8491   -3.1574   28.5565 N   0  0  0  0  0  0  0  0  0  0  0  0
  -12.0306   -2.1117   26.0146 C   0  0  0  0  0  0  0  0  0  0  0  0
  -11.2648   -1.1121   26.5987 C   0  0  0  0  0  0  0  0  0  0  0  0
  -10.2090   -1.4579   27.4334 C   0  0  0  0  0  0  0  0  0  0  0  0
   -9.9294   -2.7982   27.6924 C   0  0  0  0  0  0  0  0  0  0  0  0
  -10.7023   -3.7912   27.1164 C   0  0  0  0  0  0  0  0  0  0  0  0
  -11.7513   -3.4460   26.2728 C   0  0  0  0  0  0  0  0  0  0  0  0
  1  2  1  0  0  0  0
  2  3  2  0  0  0  0
  2 20  1  0  0  0  0
  4  6  1  0  0  0  0
  5  6  2  0  0  0  0
  5 16  1  0  0  0  0
  6  7  1  0  0  0  0
  7  8  1  0  0  0  0
  8  9  1  0  0  0  0
  8 10  2  0  0  0  0
  9 12  1  0  0  0  0
  9 16  2  0  0  0  0
 11 13  1  0  0  0  0
 11 12  1  0  0  0  0
 12 14  1  0  0  0  0
 14 15  1  0  0  0  0
 14 18  1  1  0  0  0
 15 17  1  0  0  0  0
 16 17  1  0  0  0  0
 18 19  1  0  0  0  0
 19 23  1  0  0  0  0
 20 21  2  0  0  0  0
 20 25  1  0  0  0  0
 21 22  1  0  0  0  0
 22 23  2  0  0  0  0
 23 24  1  0  0  0  0
 24 25  2  0  0  0  0
M  END
>  <CHROM.1>
-31.38056527,-165.93426549,44.92300921,-121.69741226,127.84610236,-7.63820719
-3.86289822,26.76589672,3.01168921,-0.40545894,0.77665263

>  <Name>
ligand

>  <RI>
0

>  <Rbt.Current_Directory>
/home/itssahil/PROJECTS/Mol_Feturizer/New_Systems/rnas/4LVV

>  <Rbt.Executable>
rbdock ($Id: //depot/dev/client3/rdock/2013.1/src/exe/rbdock.cxx#4 $)

>  <Rbt.Library>
libRbt.so (2013.1, Build901 2013/11/27)

>  <Rbt.Parameter_File>
/export/apps/rDock/src/rDock_2013.1_src/data/scripts/dock_solv.prm

>  <Rbt.Receptor>
prm/blind_docking_60.prm

>  <SCORE>
-13.2578

>  <SCORE.INTER>
-12.177

>  <SCORE.INTER.CONST>
1

>  <SCORE.INTER.POLAR>
0

>  <SCORE.INTER.ROT>
5

>  <SCORE.INTER.SOLV>
10.6997

>  <SCORE.INTER.VDW>
-18.6179

>  <SCORE.INTER.norm>
-0.487081

>  <SCORE.INTRA>
-1.08419

>  <SCORE.INTRA.DIHEDRAL>
0.328798

>  <SCORE.INTRA.DIHEDRAL.0>
3.94806

>  <SCORE.INTRA.POLAR>
0

>  <SCORE.INTRA.POLAR.0>
0

>  <SCORE.INTRA.REPUL>
0

>  <SCORE.INTRA.REPUL.0>
0

>  <SCORE.INTRA.SOLV>
-0.25542

>  <SCORE.INTRA.SOLV.lig_0>
-70.9803

>  <SCORE.INTRA.VDW>
-1.12087

>  <SCORE.INTRA.VDW.0>
-0.709409

>  <SCORE.INTRA.norm>
-0.0433674

>  <SCORE.RESTR>
0.00343912

>  <SCORE.RESTR.CAVITY>
0.00343912

>  <SCORE.RESTR.norm>
0.000137565

>  <SCORE.SYSTEM>
0

>  <SCORE.SYSTEM.CONST>
0

>  <SCORE.SYSTEM.DIHEDRAL>
0

>  <SCORE.SYSTEM.SOLV>
0

>  <SCORE.SYSTEM.norm>
0

>  <SCORE.heavy>
25

>  <SCORE.norm>
-0.530311

>  <RMSD>
23.195

$$$$
ligand
 OpenBabel11021811503D
libRbt.so/2013.1/901 2013/11/27
 25 27  0  0  0  0  0  0  0  0999 V2000
   -9.4048   -0.7702   33.6212 N   0  0  0  0  0  0  0  0  0  0  0  0
   -9.6908   -1.4026   32.3708 C   0  0  0  0  0  0  0  0  0  0  0  0
  -10.7500   -1.1949   31.7919 O   0  0  0  0  0  0  0  0  0  0  0  0
  -11.5393   -3.5678   26.4905 N   0  0  0  0  0  0  0  0  0  0  0  0
   -9.2947   -4.3831   26.2399 N   0  0  0  0  0  0  0  0  0  0  0  0
  -10.1465   -3.4874   26.7905 C   0  0  0  0  0  0  0  0  0  0  0  0
   -9.6943   -2.5005   27.6211 N   0  0  0  0  0  0  0  0  0  0  0  0
   -8.3806   -2.3711   27.9374 C   0  0  0  0  0  0  0  0  0  0  0  0
   -7.4592   -3.2975   27.3929 C   0  0  0  0  0  0  0  0  0  0  0  0
   -7.9878   -1.3649   28.7884 O   0  0  0  0  0  0  0  0  0  0  0  0
   -5.2597   -2.0482   27.7089 C   0  0  0  0  0  0  0  0  0  0  0  0
   -6.0238   -3.2694   27.6215 N   0  0  0  0  0  0  0  0  0  0  0  0
   -5.1333   -1.2671   26.7719 O   0  0  0  0  0  0  0  0  0  0  0  0
   -5.4031   -4.5248   27.6450 C   0  0  2  0  0  0  0  0  0  0  0  0
   -5.6771   -5.2639   26.3100 C   0  0  0  0  0  0  0  0  0  0  0  0
   -7.9533   -4.3102   26.5114 C   0  0  0  0  0  0  0  0  0  0  0  0
   -7.0317   -5.2899   25.9297 N   0  0  0  0  0  0  0  0  0  0  0  0
   -5.8965   -5.3486   28.8173 C   0  0  0  0  0  0  0  0  0  0  0  0
   -5.7070   -4.7977   30.1306 N   0  0  0  0  0  0  0  0  0  0  0  0
   -8.6684   -2.3070   31.7747 C   0  0  0  0  0  0  0  0  0  0  0  0
   -9.0271   -3.2763   30.8481 C   0  0  0  0  0  0  0  0  0  0  0  0
   -8.0492   -4.1040   30.3098 C   0  0  0  0  0  0  0  0  0  0  0  0
   -6.7165   -3.9533   30.6878 C   0  0  0  0  0  0  0  0  0  0  0  0
   -6.3621   -2.9784   31.6040 C   0  0  0  0  0  0  0  0  0  0  0  0
   -7.3414   -2.1578   32.1508 C   0  0  0  0  0  0  0  0  0  0  0  0
  1  2  1  0  0  0  0
  2  3  2  0  0  0  0
  2 20  1  0  0  0  0
  4  6  1  0  0  0  0
  5  6  2  0  0  0  0
  5 16  1  0  0  0  0
  6  7  1  0  0  0  0
  7  8  1  0  0  0  0
  8  9  1  0  0  0  0
  8 10  2  0  0  0  0
  9 12  1  0  0  0  0
  9 16  2  0  0  0  0
 11 13  1  0  0  0  0
 11 12  1  0  0  0  0
 12 14  1  0  0  0  0
 14 15  1  0  0  0  0
 14 18  1  1  0  0  0
 15 17  1  0  0  0  0
 16 17  1  0  0  0  0
 18 19  1  0  0  0  0
 19 23  1  0  0  0  0
 20 21  2  0  0  0  0
 20 25  1  0  0  0  0
 21 22  1  0  0  0  0
 22 23  2  0  0  0  0
 23 24  1  0  0  0  0
 24 25  2  0  0  0  0
M  END
>  <CHROM.1>
-64.05049525,-58.69858682,89.05443943,28.10387722,157.91683329,-7.76871226
-3.13894830,28.90204209,-1.95975682,0.23072832,-1.89286394

>  <Name>
ligand

>  <RI>
0

>  <Rbt.Current_Directory>
/home/itssahil/PROJECTS/Mol_Feturizer/New_Systems/rnas/4LVV

>  <Rbt.Executable>
rbdock ($Id: //depot/dev/client3/rdock/2013.1/src/exe/rbdock.cxx#4 $)

>  <Rbt.Library>
libRbt.so (2013.1, Build901 2013/11/27)

>  <Rbt.Parameter_File>
/export/apps/rDock/src/rDock_2013.1_src/data/scripts/dock_solv.prm

>  <Rbt.Receptor>
prm/blind_docking_40.prm

>  <SCORE>
-11.4324

>  <SCORE.INTER>
-8.79018

>  <SCORE.INTER.CONST>
1

>  <SCORE.INTER.POLAR>
0

>  <SCORE.INTER.ROT>
5

>  <SCORE.INTER.SOLV>
11.3903

>  <SCORE.INTER.VDW>
-16.5902

>  <SCORE.INTER.norm>
-0.351607

>  <SCORE.INTRA>
-2.64218

>  <SCORE.INTRA.DIHEDRAL>
-0.192286

>  <SCORE.INTRA.DIHEDRAL.0>
3.94806

>  <SCORE.INTRA.POLAR>
0

>  <SCORE.INTRA.POLAR.0>
0

>  <SCORE.INTRA.REPUL>
0

>  <SCORE.INTRA.REPUL.0>
0

>  <SCORE.INTRA.SOLV>
0.775487

>  <SCORE.INTRA.SOLV.lig_0>
-70.9803

>  <SCORE.INTRA.VDW>
-2.93379

>  <SCORE.INTRA.VDW.0>
-0.709409

>  <SCORE.INTRA.norm>
-0.105687

>  <SCORE.RESTR>
0

>  <SCORE.RESTR.CAVITY>
0

>  <SCORE.RESTR.norm>
0

>  <SCORE.SYSTEM>
0

>  <SCORE.SYSTEM.CONST>
0

>  <SCORE.SYSTEM.DIHEDRAL>
0

>  <SCORE.SYSTEM.SOLV>
0

>  <SCORE.SYSTEM.norm>
0

>  <SCORE.heavy>
25

>  <SCORE.norm>
-0.457295

>  <RMSD>
23.202

$$$$
ligand
 OpenBabel11021811503D
libRbt.so/2013.1/901 2013/11/27
 25 27  0  0  0  0  0  0  0  0999 V2000
   -9.6159   -1.6471   10.7097 N   0  0  0  0  0  0  0  0  0  0  0  0
   -8.7528   -2.7816   10.5944 C   0  0  0  0  0  0  0  0  0  0  0  0
   -8.7787   -3.4891    9.5949 O   0  0  0  0  0  0  0  0  0  0  0  0
    2.4509   -4.4549   14.8266 N   0  0  0  0  0  0  0  0  0  0  0  0
    0.3688   -5.6139   14.5317 N   0  0  0  0  0  0  0  0  0  0  0  0
    1.1136   -4.7333   15.2393 C   0  0  0  0  0  0  0  0  0  0  0  0
    0.6104   -4.1135   16.3488 N   0  0  0  0  0  0  0  0  0  0  0  0
   -0.6518   -4.3433   16.7921 C   0  0  0  0  0  0  0  0  0  0  0  0
   -1.4680   -5.2473   16.0708 C   0  0  0  0  0  0  0  0  0  0  0  0
   -1.1059   -3.6803   17.9079 O   0  0  0  0  0  0  0  0  0  0  0  0
   -3.2574   -5.7862   17.8046 C   0  0  0  0  0  0  0  0  0  0  0  0
   -2.8269   -5.6103   16.4384 N   0  0  0  0  0  0  0  0  0  0  0  0
   -3.5382   -4.8503   18.5456 O   0  0  0  0  0  0  0  0  0  0  0  0
   -3.6780   -5.8873   15.3610 C   0  0  2  0  0  0  0  0  0  0  0  0
   -3.0752   -7.0303   14.5044 C   0  0  0  0  0  0  0  0  0  0  0  0
   -0.9133   -5.8982   14.9239 C   0  0  0  0  0  0  0  0  0  0  0  0
   -1.7272   -6.8386   14.1488 N   0  0  0  0  0  0  0  0  0  0  0  0
   -3.8966   -4.6498   14.5142 C   0  0  0  0  0  0  0  0  0  0  0  0
   -5.0648   -3.8620   14.7952 N   0  0  0  0  0  0  0  0  0  0  0  0
   -7.8074   -3.0787   11.7064 C   0  0  0  0  0  0  0  0  0  0  0  0
   -8.1040   -4.0479   12.6549 C   0  0  0  0  0  0  0  0  0  0  0  0
   -7.2005   -4.3019   13.6797 C   0  0  0  0  0  0  0  0  0  0  0  0
   -5.9998   -3.5980   13.7471 C   0  0  0  0  0  0  0  0  0  0  0  0
   -5.7037   -2.6402   12.7930 C   0  0  0  0  0  0  0  0  0  0  0  0
   -6.6119   -2.3780   11.7744 C   0  0  0  0  0  0  0  0  0  0  0  0
  1  2  1  0  0  0  0
  2  3  2  0  0  0  0
  2 20  1  0  0  0  0
  4  6  1  0  0  0  0
  5  6  2  0  0  0  0
  5 16  1  0  0  0  0
  6  7  1  0  0  0  0
  7  8  1  0  0  0  0
  8  9  1  0  0  0  0
  8 10  2  0  0  0  0
  9 12  1  0  0  0  0
  9 16  2  0  0  0  0
 11 13  1  0  0  0  0
 11 12  1  0  0  0  0
 12 14  1  0  0  0  0
 14 15  1  0  0  0  0
 14 18  1  6  0  0  0
 15 17  1  0  0  0  0
 16 17  1  0  0  0  0
 18 19  1  0  0  0  0
 19 23  1  0  0  0  0
 20 21  2  0  0  0  0
 20 25  1  0  0  0  0
 21 22  1  0  0  0  0
 22 23  2  0  0  0  0
 23 24  1  0  0  0  0
 24 25  2  0  0  0  0
M  END
>  <CHROM.1>
79.79404143,-95.02999053,-123.81167088,102.78450032,99.38926117,-3.76054926
-4.44446157,14.46517371,-2.56757238,-0.14525975,1.75861692

>  <Name>
ligand

>  <RI>
0

>  <Rbt.Current_Directory>
/home/itssahil/PROJECTS/Mol_Feturizer/New_Systems/rnas/4LVV

>  <Rbt.Executable>
rbdock ($Id: //depot/dev/client3/rdock/2013.1/src/exe/rbdock.cxx#4 $)

>  <Rbt.Library>
libRbt.so (2013.1, Build901 2013/11/27)

>  <Rbt.Parameter_File>
/export/apps/rDock/src/rDock_2013.1_src/data/scripts/dock_solv.prm

>  <Rbt.Receptor>
prm/blind_docking_20.prm

>  <SCORE>
-7.82481

>  <SCORE.INTER>
-9.01484

>  <SCORE.INTER.CONST>
1

>  <SCORE.INTER.POLAR>
0

>  <SCORE.INTER.ROT>
5

>  <SCORE.INTER.SOLV>
16.8482

>  <SCORE.INTER.VDW>
-18.5593

>  <SCORE.INTER.norm>
-0.360593

>  <SCORE.INTRA>
0.642354

>  <SCORE.INTRA.DIHEDRAL>
3.95992

>  <SCORE.INTRA.DIHEDRAL.0>
3.94806

>  <SCORE.INTRA.POLAR>
0

>  <SCORE.INTRA.POLAR.0>
0

>  <SCORE.INTRA.REPUL>
0

>  <SCORE.INTRA.REPUL.0>
0

>  <SCORE.INTRA.SOLV>
-0.228161

>  <SCORE.INTRA.SOLV.lig_0>
-70.9803

>  <SCORE.INTRA.VDW>
-1.22352

>  <SCORE.INTRA.VDW.0>
-0.709409

>  <SCORE.INTRA.norm>
0.0256942

>  <SCORE.RESTR>
0.54767

>  <SCORE.RESTR.CAVITY>
0.54767

>  <SCORE.RESTR.norm>
0.0219068

>  <SCORE.SYSTEM>
0

>  <SCORE.SYSTEM.CONST>
0

>  <SCORE.SYSTEM.DIHEDRAL>
0

>  <SCORE.SYSTEM.SOLV>
0

>  <SCORE.SYSTEM.norm>
0

>  <SCORE.heavy>
25

>  <SCORE.norm>
-0.312992

>  <RMSD>
23.210

$$$$
ligand
 OpenBabel11021811503D
libRbt.so/2013.1/901 2013/11/27
 25 27  0  0  0  0  0  0  0  0999 V2000
   -9.5653   -1.6573   10.4670 N   0  0  0  0  0  0  0  0  0  0  0  0
   -8.8765   -2.9096   10.5175 C   0  0  0  0  0  0  0  0  0  0  0  0
   -9.0927   -3.7773    9.6806 O   0  0  0  0  0  0  0  0  0  0  0  0
    2.3489   -4.2968   15.1715 N   0  0  0  0  0  0  0  0  0  0  0  0
    0.3123   -5.4933   14.7404 N   0  0  0  0  0  0  0  0  0  0  0  0
    0.9937   -4.6025   15.4973 C   0  0  0  0  0  0  0  0  0  0  0  0
    0.4093   -3.9980   16.5750 N   0  0  0  0  0  0  0  0  0  0  0  0
   -0.8739   -4.2540   16.9363 C   0  0  0  0  0  0  0  0  0  0  0  0
   -1.6252   -5.1695   16.1611 C   0  0  0  0  0  0  0  0  0  0  0  0
   -1.4105   -3.6053   18.0237 O   0  0  0  0  0  0  0  0  0  0  0  0
   -3.5103   -5.7511   17.7756 C   0  0  0  0  0  0  0  0  0  0  0  0
   -2.9975   -5.5600   16.4402 N   0  0  0  0  0  0  0  0  0  0  0  0
   -2.9915   -6.5046   18.5922 O   0  0  0  0  0  0  0  0  0  0  0  0
   -3.7729   -5.8474   15.3098 C   0  0  2  0  0  0  0  0  0  0  0  0
   -3.0952   -6.9744   14.4887 C   0  0  0  0  0  0  0  0  0  0  0  0
   -0.9864   -5.8038   15.0492 C   0  0  0  0  0  0  0  0  0  0  0  0
   -1.7313   -6.7554   14.2202 N   0  0  0  0  0  0  0  0  0  0  0  0
   -3.9611   -4.6099   14.4557 C   0  0  0  0  0  0  0  0  0  0  0  0
   -5.1288   -3.8118   14.7077 N   0  0  0  0  0  0  0  0  0  0  0  0
   -7.8763   -3.1343   11.5982 C   0  0  0  0  0  0  0  0  0  0  0  0
   -6.6307   -2.5232   11.5555 C   0  0  0  0  0  0  0  0  0  0  0  0
   -5.7202   -2.7526   12.5798 C   0  0  0  0  0  0  0  0  0  0  0  0
   -6.0600   -3.5797   13.6485 C   0  0  0  0  0  0  0  0  0  0  0  0
   -7.3070   -4.1783   13.6922 C   0  0  0  0  0  0  0  0  0  0  0  0
   -8.2138   -3.9579   12.6624 C   0  0  0  0  0  0  0  0  0  0  0  0
  1  2  1  0  0  0  0
  2  3  2  0  0  0  0
  2 20  1  0  0  0  0
  4  6  1  0  0  0  0
  5  6  2  0  0  0  0
  5 16  1  0  0  0  0
  6  7  1  0  0  0  0
  7  8  1  0  0  0  0
  8  9  1  0  0  0  0
  8 10  2  0  0  0  0
  9 12  1  0  0  0  0
  9 16  2  0  0  0  0
 11 13  1  0  0  0  0
 11 12  1  0  0  0  0
 12 14  1  0  0  0  0
 14 15  1  0  0  0  0
 14 18  1  6  0  0  0
 15 17  1  0  0  0  0
 16 17  1  0  0  0  0
 18 19  1  0  0  0  0
 19 23  1  0  0  0  0
 20 21  2  0  0  0  0
 20 25  1  0  0  0  0
 21 22  1  0  0  0  0
 22 23  2  0  0  0  0
 23 24  1  0  0  0  0
 24 25  2  0  0  0  0
M  END
>  <CHROM.1>
-54.47116979,-92.22264831,-121.71526828,-70.52412688,-74.45807671,-3.84374056
-4.49659045,14.48991442,-2.52475063,0.00876183,1.96441493

>  <Name>
ligand

>  <RI>
0

>  <Rbt.Current_Directory>
/home/itssahil/PROJECTS/Mol_Feturizer/New_Systems/rnas/4LVV

>  <Rbt.Executable>
rbdock ($Id: //depot/dev/client3/rdock/2013.1/src/exe/rbdock.cxx#4 $)

>  <Rbt.Library>
libRbt.so (2013.1, Build901 2013/11/27)

>  <Rbt.Parameter_File>
/export/apps/rDock/src/rDock_2013.1_src/data/scripts/dock_solv.prm

>  <Rbt.Receptor>
prm/blind_docking_20.prm

>  <SCORE>
-8.05084

>  <SCORE.INTER>
-8.36718

>  <SCORE.INTER.CONST>
1

>  <SCORE.INTER.POLAR>
0

>  <SCORE.INTER.ROT>
5

>  <SCORE.INTER.SOLV>
16.4281

>  <SCORE.INTER.VDW>
-17.9875

>  <SCORE.INTER.norm>
-0.334687

>  <SCORE.INTRA>
0.275297

>  <SCORE.INTRA.DIHEDRAL>
3.44367

>  <SCORE.INTRA.DIHEDRAL.0>
3.94806

>  <SCORE.INTRA.POLAR>
0

>  <SCORE.INTRA.POLAR.0>
0

>  <SCORE.INTRA.REPUL>
0

>  <SCORE.INTRA.REPUL.0>
0

>  <SCORE.INTRA.SOLV>
-0.456357

>  <SCORE.INTRA.SOLV.lig_0>
-70.9803

>  <SCORE.INTRA.VDW>
-1.21836

>  <SCORE.INTRA.VDW.0>
-0.709409

>  <SCORE.INTRA.norm>
0.0110119

>  <SCORE.RESTR>
0.0410427

>  <SCORE.RESTR.CAVITY>
0.0410427

>  <SCORE.RESTR.norm>
0.00164171

>  <SCORE.SYSTEM>
0

>  <SCORE.SYSTEM.CONST>
0

>  <SCORE.SYSTEM.DIHEDRAL>
0

>  <SCORE.SYSTEM.SOLV>
0

>  <SCORE.SYSTEM.norm>
0

>  <SCORE.heavy>
25

>  <SCORE.norm>
-0.322033

>  <RMSD>
23.213

$$$$
ligand
 OpenBabel11021811503D
libRbt.so/2013.1/901 2013/11/27
 25 27  0  0  0  0  0  0  0  0999 V2000
    0.0839   -2.2604   30.3391 N   0  0  0  0  0  0  0  0  0  0  0  0
   -1.1902   -2.7544   30.7608 C   0  0  0  0  0  0  0  0  0  0  0  0
   -1.2904   -3.4568   31.7591 O   0  0  0  0  0  0  0  0  0  0  0  0
  -12.8533   -0.4165   31.0126 N   0  0  0  0  0  0  0  0  0  0  0  0
  -10.7825   -1.6236   30.8709 N   0  0  0  0  0  0  0  0  0  0  0  0
  -11.8578   -1.0917   30.2450 C   0  0  0  0  0  0  0  0  0  0  0  0
  -12.0118   -1.1991   28.8911 N   0  0  0  0  0  0  0  0  0  0  0  0
  -11.1012   -1.8348   28.1107 C   0  0  0  0  0  0  0  0  0  0  0  0
   -9.9548   -2.3924   28.7259 C   0  0  0  0  0  0  0  0  0  0  0  0
  -11.3054   -1.8998   26.7523 O   0  0  0  0  0  0  0  0  0  0  0  0
   -9.1730   -4.0204   26.9269 C   0  0  0  0  0  0  0  0  0  0  0  0
   -8.9105   -3.1212   28.0247 N   0  0  0  0  0  0  0  0  0  0  0  0
  -10.2878   -4.4654   26.6757 O   0  0  0  0  0  0  0  0  0  0  0  0
   -7.6245   -2.9750   28.5602 C   0  0  2  0  0  0  0  0  0  0  0  0
   -7.6271   -3.4207   30.0450 C   0  0  0  0  0  0  0  0  0  0  0  0
   -9.8246   -2.2840   30.1465 C   0  0  0  0  0  0  0  0  0  0  0  0
   -8.6509   -2.8456   30.8206 N   0  0  0  0  0  0  0  0  0  0  0  0
   -7.1494   -1.5412   28.4385 C   0  0  0  0  0  0  0  0  0  0  0  0
   -5.8624   -1.3267   27.8369 N   0  0  0  0  0  0  0  0  0  0  0  0
   -2.3988   -2.3847   29.9724 C   0  0  0  0  0  0  0  0  0  0  0  0
   -2.4610   -2.6266   28.6069 C   0  0  0  0  0  0  0  0  0  0  0  0
   -3.6031   -2.2706   27.9000 C   0  0  0  0  0  0  0  0  0  0  0  0
   -4.6831   -1.6871   28.5594 C   0  0  0  0  0  0  0  0  0  0  0  0
   -4.6207   -1.4577   29.9228 C   0  0  0  0  0  0  0  0  0  0  0  0
   -3.4743   -1.8034   30.6282 C   0  0  0  0  0  0  0  0  0  0  0  0
  1  2  1  0  0  0  0
  2  3  2  0  0  0  0
  2 20  1  0  0  0  0
  4  6  1  0  0  0  0
  5  6  2  0  0  0  0
  5 16  1  0  0  0  0
  6  7  1  0  0  0  0
  7  8  1  0  0  0  0
  8  9  1  0  0  0  0
  8 10  2  0  0  0  0
  9 12  1  0  0  0  0
  9 16  2  0  0  0  0
 11 13  1  0  0  0  0
 11 12  1  0  0  0  0
 12 14  1  0  0  0  0
 14 15  1  0  0  0  0
 14 18  1  1  0  0  0
 15 17  1  0  0  0  0
 16 17  1  0  0  0  0
 18 19  1  0  0  0  0
 19 23  1  0  0  0  0
 20 21  2  0  0  0  0
 20 25  1  0  0  0  0
 21 22  1  0  0  0  0
 22 23  2  0  0  0  0
 23 24  1  0  0  0  0
 24 25  2  0  0  0  0
M  END
>  <CHROM.1>
-16.03002487,-128.31383485,-71.70297418,140.71758861,54.47181333,-7.23236214
-2.31754599,29.19546727,0.10795309,-0.09297639,1.21768025

>  <Name>
ligand

>  <RI>
0

>  <Rbt.Current_Directory>
/home/itssahil/PROJECTS/Mol_Feturizer/New_Systems/rnas/4LVV

>  <Rbt.Executable>
rbdock ($Id: //depot/dev/client3/rdock/2013.1/src/exe/rbdock.cxx#4 $)

>  <Rbt.Library>
libRbt.so (2013.1, Build901 2013/11/27)

>  <Rbt.Parameter_File>
/export/apps/rDock/src/rDock_2013.1_src/data/scripts/dock_solv.prm

>  <Rbt.Receptor>
prm/blind_docking_80.prm

>  <SCORE>
-7.69114

>  <SCORE.INTER>
-8.87161

>  <SCORE.INTER.CONST>
1

>  <SCORE.INTER.POLAR>
0

>  <SCORE.INTER.ROT>
5

>  <SCORE.INTER.SOLV>
11.7904

>  <SCORE.INTER.VDW>
-16.7779

>  <SCORE.INTER.norm>
-0.354864

>  <SCORE.INTRA>
1.18047

>  <SCORE.INTRA.DIHEDRAL>
4.5755

>  <SCORE.INTRA.DIHEDRAL.0>
3.94806

>  <SCORE.INTRA.POLAR>
0

>  <SCORE.INTRA.POLAR.0>
0

>  <SCORE.INTRA.REPUL>
0

>  <SCORE.INTRA.REPUL.0>
0

>  <SCORE.INTRA.SOLV>
-0.497251

>  <SCORE.INTRA.SOLV.lig_0>
-70.9803

>  <SCORE.INTRA.VDW>
-0.858658

>  <SCORE.INTRA.VDW.0>
-0.709409

>  <SCORE.INTRA.norm>
0.0472187

>  <SCORE.RESTR>
0

>  <SCORE.RESTR.CAVITY>
0

>  <SCORE.RESTR.norm>
0

>  <SCORE.SYSTEM>
0

>  <SCORE.SYSTEM.CONST>
0

>  <SCORE.SYSTEM.DIHEDRAL>
0

>  <SCORE.SYSTEM.SOLV>
0

>  <SCORE.SYSTEM.norm>
0

>  <SCORE.heavy>
25

>  <SCORE.norm>
-0.307646

>  <RMSD>
23.230

$$$$
ligand
 OpenBabel11021811503D
libRbt.so/2013.1/901 2013/11/27
 25 27  0  0  0  0  0  0  0  0999 V2000
   -9.6882   -1.6481   10.7175 N   0  0  0  0  0  0  0  0  0  0  0  0
   -8.5255   -2.4306   10.4323 C   0  0  0  0  0  0  0  0  0  0  0  0
   -8.2724   -2.7814    9.2865 O   0  0  0  0  0  0  0  0  0  0  0  0
    2.3778   -4.2015   15.2720 N   0  0  0  0  0  0  0  0  0  0  0  0
    0.3641   -5.4106   14.7734 N   0  0  0  0  0  0  0  0  0  0  0  0
    1.0279   -4.5487   15.5779 C   0  0  0  0  0  0  0  0  0  0  0  0
    0.4309   -4.0128   16.6846 N   0  0  0  0  0  0  0  0  0  0  0  0
   -0.8478   -4.3108   17.0288 C   0  0  0  0  0  0  0  0  0  0  0  0
   -1.5811   -5.1977   16.2045 C   0  0  0  0  0  0  0  0  0  0  0  0
   -1.3979   -3.7305   18.1476 O   0  0  0  0  0  0  0  0  0  0  0  0
   -3.4575   -5.8981   17.7815 C   0  0  0  0  0  0  0  0  0  0  0  0
   -2.9463   -5.6274   16.4592 N   0  0  0  0  0  0  0  0  0  0  0  0
   -3.9502   -6.9740   18.1032 O   0  0  0  0  0  0  0  0  0  0  0  0
   -3.7148   -5.8688   15.3134 C   0  0  2  0  0  0  0  0  0  0  0  0
   -3.0153   -6.9383   14.4356 C   0  0  0  0  0  0  0  0  0  0  0  0
   -0.9292   -5.7606   15.0622 C   0  0  0  0  0  0  0  0  0  0  0  0
   -1.6553   -6.6806   14.1823 N   0  0  0  0  0  0  0  0  0  0  0  0
   -3.9244   -4.5916   14.5254 C   0  0  0  0  0  0  0  0  0  0  0  0
   -5.1338   -3.8580   14.7769 N   0  0  0  0  0  0  0  0  0  0  0  0
   -7.6163   -2.7979   11.5536 C   0  0  0  0  0  0  0  0  0  0  0  0
   -6.2700   -2.4614   11.5195 C   0  0  0  0  0  0  0  0  0  0  0  0
   -5.4482   -2.8178   12.5818 C   0  0  0  0  0  0  0  0  0  0  0  0
   -5.9745   -3.4966   13.6790 C   0  0  0  0  0  0  0  0  0  0  0  0
   -7.3196   -3.8204   13.7134 C   0  0  0  0  0  0  0  0  0  0  0  0
   -8.1395   -3.4740   12.6462 C   0  0  0  0  0  0  0  0  0  0  0  0
  1  2  1  0  0  0  0
  2  3  2  0  0  0  0
  2 20  1  0  0  0  0
  4  6  1  0  0  0  0
  5  6  2  0  0  0  0
  5 16  1  0  0  0  0
  6  7  1  0  0  0  0
  7  8  1  0  0  0  0
  8  9  1  0  0  0  0
  8 10  2  0  0  0  0
  9 12  1  0  0  0  0
  9 16  2  0  0  0  0
 11 13  1  0  0  0  0
 11 12  1  0  0  0  0
 12 14  1  0  0  0  0
 14 15  1  0  0  0  0
 14 18  1  6  0  0  0
 15 17  1  0  0  0  0
 16 17  1  0  0  0  0
 18 19  1  0  0  0  0
 19 23  1  0  0  0  0
 20 21  2  0  0  0  0
 20 25  1  0  0  0  0
 21 22  1  0  0  0  0
 22 23  2  0  0  0  0
 23 24  1  0  0  0  0
 24 25  2  0  0  0  0
M  END
>  <CHROM.1>
-123.11921460,-94.71577946,-127.34341310,-52.77900936,-123.35750916,-3.78013893
-4.41340599,14.48105886,-2.49267339,0.02623696,2.05167506

>  <Name>
ligand

>  <RI>
0

>  <Rbt.Current_Directory>
/home/itssahil/PROJECTS/Mol_Feturizer/New_Systems/rnas/4LVV

>  <Rbt.Executable>
rbdock ($Id: //depot/dev/client3/rdock/2013.1/src/exe/rbdock.cxx#4 $)

>  <Rbt.Library>
libRbt.so (2013.1, Build901 2013/11/27)

>  <Rbt.Parameter_File>
/export/apps/rDock/src/rDock_2013.1_src/data/scripts/dock_solv.prm

>  <Rbt.Receptor>
prm/blind_docking_20.prm

>  <SCORE>
-7.61625

>  <SCORE.INTER>
-8.43168

>  <SCORE.INTER.CONST>
1

>  <SCORE.INTER.POLAR>
0

>  <SCORE.INTER.ROT>
5

>  <SCORE.INTER.SOLV>
15.7498

>  <SCORE.INTER.VDW>
-17.8044

>  <SCORE.INTER.norm>
-0.337267

>  <SCORE.INTRA>
0.787692

>  <SCORE.INTRA.DIHEDRAL>
3.78823

>  <SCORE.INTRA.DIHEDRAL.0>
3.94806

>  <SCORE.INTRA.POLAR>
0

>  <SCORE.INTRA.POLAR.0>
0

>  <SCORE.INTRA.REPUL>
0

>  <SCORE.INTRA.REPUL.0>
0

>  <SCORE.INTRA.SOLV>
-0.604804

>  <SCORE.INTRA.SOLV.lig_0>
-70.9803

>  <SCORE.INTRA.VDW>
-0.804023

>  <SCORE.INTRA.VDW.0>
-0.709409

>  <SCORE.INTRA.norm>
0.0315077

>  <SCORE.RESTR>
0.0277351

>  <SCORE.RESTR.CAVITY>
0.0277351

>  <SCORE.RESTR.norm>
0.00110941

>  <SCORE.SYSTEM>
0

>  <SCORE.SYSTEM.CONST>
0

>  <SCORE.SYSTEM.DIHEDRAL>
0

>  <SCORE.SYSTEM.SOLV>
0

>  <SCORE.SYSTEM.norm>
0

>  <SCORE.heavy>
25

>  <SCORE.norm>
-0.30465

>  <RMSD>
23.240

$$$$
ligand
 OpenBabel11021811503D
libRbt.so/2013.1/901 2013/11/27
 25 27  0  0  0  0  0  0  0  0999 V2000
   -8.8379   -3.3452    9.4152 N   0  0  0  0  0  0  0  0  0  0  0  0
   -8.8408   -2.5624   10.6121 C   0  0  0  0  0  0  0  0  0  0  0  0
   -9.6360   -1.6421   10.7564 O   0  0  0  0  0  0  0  0  0  0  0  0
    2.3131   -4.2649   15.1513 N   0  0  0  0  0  0  0  0  0  0  0  0
    0.2700   -5.4568   14.7385 N   0  0  0  0  0  0  0  0  0  0  0  0
    0.9618   -4.5714   15.4923 C   0  0  0  0  0  0  0  0  0  0  0  0
    0.3917   -3.9733   16.5812 N   0  0  0  0  0  0  0  0  0  0  0  0
   -0.8870   -4.2304   16.9571 C   0  0  0  0  0  0  0  0  0  0  0  0
   -1.6490   -5.1403   16.1857 C   0  0  0  0  0  0  0  0  0  0  0  0
   -1.4092   -3.5882   18.0553 O   0  0  0  0  0  0  0  0  0  0  0  0
   -3.5141   -5.7304   17.8202 C   0  0  0  0  0  0  0  0  0  0  0  0
   -3.0180   -5.5313   16.4796 N   0  0  0  0  0  0  0  0  0  0  0  0
   -3.0000   -6.5075   18.6175 O   0  0  0  0  0  0  0  0  0  0  0  0
   -3.8081   -5.8108   15.3574 C   0  0  2  0  0  0  0  0  0  0  0  0
   -3.1419   -6.9332   14.5206 C   0  0  0  0  0  0  0  0  0  0  0  0
   -1.0250   -5.7680   15.0617 C   0  0  0  0  0  0  0  0  0  0  0  0
   -1.7813   -6.7137   14.2362 N   0  0  0  0  0  0  0  0  0  0  0  0
   -4.0058   -4.5677   14.5136 C   0  0  0  0  0  0  0  0  0  0  0  0
   -5.1655   -3.7660   14.7905 N   0  0  0  0  0  0  0  0  0  0  0  0
   -7.8690   -2.8977   11.6900 C   0  0  0  0  0  0  0  0  0  0  0  0
   -6.8001   -3.7493   11.4469 C   0  0  0  0  0  0  0  0  0  0  0  0
   -5.9105   -4.0416   12.4735 C   0  0  0  0  0  0  0  0  0  0  0  0
   -6.0828   -3.4737   13.7343 C   0  0  0  0  0  0  0  0  0  0  0  0
   -7.1439   -2.6168   13.9690 C   0  0  0  0  0  0  0  0  0  0  0  0
   -8.0401   -2.3329   12.9455 C   0  0  0  0  0  0  0  0  0  0  0  0
  1  2  1  0  0  0  0
  2  3  2  0  0  0  0
  2 20  1  0  0  0  0
  4  6  1  0  0  0  0
  5  6  2  0  0  0  0
  5 16  1  0  0  0  0
  6  7  1  0  0  0  0
  7  8  1  0  0  0  0
  8  9  1  0  0  0  0
  8 10  2  0  0  0  0
  9 12  1  0  0  0  0
  9 16  2  0  0  0  0
 11 13  1  0  0  0  0
 11 12  1  0  0  0  0
 12 14  1  0  0  0  0
 14 15  1  0  0  0  0
 14 18  1  6  0  0  0
 15 17  1  0  0  0  0
 16 17  1  0  0  0  0
 18 19  1  0  0  0  0
 19 23  1  0  0  0  0
 20 21  2  0  0  0  0
 20 25  1  0  0  0  0
 21 22  1  0  0  0  0
 22 23  2  0  0  0  0
 23 24  1  0  0  0  0
 24 25  2  0  0  0  0
M  END
>  <CHROM.1>
-55.82546134,-91.87982565,-124.52222993,4.80447936,13.58121741,-3.85746506
-4.39636161,14.53689044,-2.52982808,-0.13074633,1.82208423

>  <Name>
ligand

>  <RI>
0

>  <Rbt.Current_Directory>
/home/itssahil/PROJECTS/Mol_Feturizer/New_Systems/rnas/4LVV

>  <Rbt.Executable>
rbdock ($Id: //depot/dev/client3/rdock/2013.1/src/exe/rbdock.cxx#4 $)

>  <Rbt.Library>
libRbt.so (2013.1, Build901 2013/11/27)

>  <Rbt.Parameter_File>
/export/apps/rDock/src/rDock_2013.1_src/data/scripts/dock_solv.prm

>  <Rbt.Receptor>
prm/blind_docking_20.prm

>  <SCORE>
-9.18928

>  <SCORE.INTER>
-10.7192

>  <SCORE.INTER.CONST>
1

>  <SCORE.INTER.POLAR>
0

>  <SCORE.INTER.ROT>
5

>  <SCORE.INTER.SOLV>
15.9088

>  <SCORE.INTER.VDW>
-19.3824

>  <SCORE.INTER.norm>
-0.428766

>  <SCORE.INTRA>
1.48808

>  <SCORE.INTRA.DIHEDRAL>
3.373

>  <SCORE.INTRA.DIHEDRAL.0>
3.94806

>  <SCORE.INTRA.POLAR>
0

>  <SCORE.INTRA.POLAR.0>
0

>  <SCORE.INTRA.REPUL>
0

>  <SCORE.INTRA.REPUL.0>
0

>  <SCORE.INTRA.SOLV>
-0.44342

>  <SCORE.INTRA.SOLV.lig_0>
-70.9803

>  <SCORE.INTRA.VDW>
0.023293

>  <SCORE.INTRA.VDW.0>
-0.709409

>  <SCORE.INTRA.norm>
0.0595233

>  <SCORE.RESTR>
0.0418006

>  <SCORE.RESTR.CAVITY>
0.0418006

>  <SCORE.RESTR.norm>
0.00167202

>  <SCORE.SYSTEM>
0

>  <SCORE.SYSTEM.CONST>
0

>  <SCORE.SYSTEM.DIHEDRAL>
0

>  <SCORE.SYSTEM.SOLV>
0

>  <SCORE.SYSTEM.norm>
0

>  <SCORE.heavy>
25

>  <SCORE.norm>
-0.367571

>  <RMSD>
23.264

$$$$
ligand
 OpenBabel11021811503D
libRbt.so/2013.1/901 2013/11/27
 25 27  0  0  0  0  0  0  0  0999 V2000
    1.6762   -4.6591   16.6421 N   0  0  0  0  0  0  0  0  0  0  0  0
    1.5491   -5.0717   15.2787 C   0  0  0  0  0  0  0  0  0  0  0  0
    2.4213   -5.7455   14.7444 O   0  0  0  0  0  0  0  0  0  0  0  0
   -9.0167   -2.9199    8.4301 N   0  0  0  0  0  0  0  0  0  0  0  0
   -7.7111   -3.9354   10.1706 N   0  0  0  0  0  0  0  0  0  0  0  0
   -7.9209   -3.7320    8.8495 C   0  0  0  0  0  0  0  0  0  0  0  0
   -7.1072   -4.2997    7.9092 N   0  0  0  0  0  0  0  0  0  0  0  0
   -6.0539   -5.0859    8.2483 C   0  0  0  0  0  0  0  0  0  0  0  0
   -5.7923   -5.3113    9.6210 C   0  0  0  0  0  0  0  0  0  0  0  0
   -5.2639   -5.6193    7.2572 O   0  0  0  0  0  0  0  0  0  0  0  0
   -4.3088   -7.3812    9.5062 C   0  0  0  0  0  0  0  0  0  0  0  0
   -4.7190   -6.1476   10.1330 N   0  0  0  0  0  0  0  0  0  0  0  0
   -3.1610   -7.5936    9.1303 O   0  0  0  0  0  0  0  0  0  0  0  0
   -4.1714   -5.7282   11.3520 C   0  0  2  0  0  0  0  0  0  0  0  0
   -5.2898   -5.6481   12.4227 C   0  0  0  0  0  0  0  0  0  0  0  0
   -6.6686   -4.7222   10.5862 C   0  0  0  0  0  0  0  0  0  0  0  0
   -6.4296   -4.9294   12.0171 N   0  0  0  0  0  0  0  0  0  0  0  0
   -3.4853   -4.3855   11.2016 C   0  0  0  0  0  0  0  0  0  0  0  0
   -3.1655   -3.6747   12.4086 N   0  0  0  0  0  0  0  0  0  0  0  0
    0.3263   -4.6814   14.5228 C   0  0  0  0  0  0  0  0  0  0  0  0
    0.3097   -3.5393   13.7340 C   0  0  0  0  0  0  0  0  0  0  0  0
   -0.8466   -3.2030   13.0407 C   0  0  0  0  0  0  0  0  0  0  0  0
   -1.9769   -4.0134   13.1264 C   0  0  0  0  0  0  0  0  0  0  0  0
   -1.9522   -5.1569   13.9056 C   0  0  0  0  0  0  0  0  0  0  0  0
   -0.7995   -5.4876   14.6080 C   0  0  0  0  0  0  0  0  0  0  0  0
  1  2  1  0  0  0  0
  2  3  2  0  0  0  0
  2 20  1  0  0  0  0
  4  6  1  0  0  0  0
  5  6  2  0  0  0  0
  5 16  1  0  0  0  0
  6  7  1  0  0  0  0
  7  8  1  0  0  0  0
  8  9  1  0  0  0  0
  8 10  2  0  0  0  0
  9 12  1  0  0  0  0
  9 16  2  0  0  0  0
 11 13  1  0  0  0  0
 11 12  1  0  0  0  0
 12 14  1  0  0  0  0
 14 15  1  0  0  0  0
 14 18  1  6  0  0  0
 15 17  1  0  0  0  0
 16 17  1  0  0  0  0
 18 19  1  0  0  0  0
 19 23  1  0  0  0  0
 20 21  2  0  0  0  0
 20 25  1  0  0  0  0
 21 22  1  0  0  0  0
 22 23  2  0  0  0  0
 23 24  1  0  0  0  0
 24 25  2  0  0  0  0
M  END
>  <CHROM.1>
123.13018016,165.16526176,82.11570245,102.96861321,94.44404683,-3.60970504
-4.95373321,11.48277542,0.48286098,-0.46463364,0.88136920

>  <Name>
ligand

>  <RI>
0

>  <Rbt.Current_Directory>
/home/itssahil/PROJECTS/Mol_Feturizer/New_Systems/rnas/4LVV

>  <Rbt.Executable>
rbdock ($Id: //depot/dev/client3/rdock/2013.1/src/exe/rbdock.cxx#4 $)

>  <Rbt.Library>
libRbt.so (2013.1, Build901 2013/11/27)

>  <Rbt.Parameter_File>
/export/apps/rDock/src/rDock_2013.1_src/data/scripts/dock_solv.prm

>  <Rbt.Receptor>
prm/blind_docking_20.prm

>  <SCORE>
-4.30207

>  <SCORE.INTER>
-3.53573

>  <SCORE.INTER.CONST>
1

>  <SCORE.INTER.POLAR>
0

>  <SCORE.INTER.ROT>
5

>  <SCORE.INTER.SOLV>
10.6731

>  <SCORE.INTER.VDW>
-12.8482

>  <SCORE.INTER.norm>
-0.141429

>  <SCORE.INTRA>
-0.77513

>  <SCORE.INTRA.DIHEDRAL>
0.438595

>  <SCORE.INTRA.DIHEDRAL.0>
3.94806

>  <SCORE.INTRA.POLAR>
0

>  <SCORE.INTRA.POLAR.0>
0

>  <SCORE.INTRA.REPUL>
0

>  <SCORE.INTRA.REPUL.0>
0

>  <SCORE.INTRA.SOLV>
0.165668

>  <SCORE.INTRA.SOLV.lig_0>
-70.9803

>  <SCORE.INTRA.VDW>
-1.07726

>  <SCORE.INTRA.VDW.0>
-0.709409

>  <SCORE.INTRA.norm>
-0.0310052

>  <SCORE.RESTR>
0.00878817

>  <SCORE.RESTR.CAVITY>
0.00878817

>  <SCORE.RESTR.norm>
0.000351527

>  <SCORE.SYSTEM>
0

>  <SCORE.SYSTEM.CONST>
0

>  <SCORE.SYSTEM.DIHEDRAL>
0

>  <SCORE.SYSTEM.SOLV>
0

>  <SCORE.SYSTEM.norm>
0

>  <SCORE.heavy>
25

>  <SCORE.norm>
-0.172083

>  <RMSD>
23.264

$$$$
ligand
 OpenBabel11021811503D
libRbt.so/2013.1/901 2013/11/27
 25 27  0  0  0  0  0  0  0  0999 V2000
   -8.8207   -3.4107    9.4687 N   0  0  0  0  0  0  0  0  0  0  0  0
   -8.8120   -2.5628   10.6203 C   0  0  0  0  0  0  0  0  0  0  0  0
   -9.5951   -1.6257   10.7139 O   0  0  0  0  0  0  0  0  0  0  0  0
    2.2804   -4.1772   15.7583 N   0  0  0  0  0  0  0  0  0  0  0  0
    0.3246   -5.3767   15.0503 N   0  0  0  0  0  0  0  0  0  0  0  0
    0.9094   -4.5327   15.9315 C   0  0  0  0  0  0  0  0  0  0  0  0
    0.2120   -4.0227   16.9907 N   0  0  0  0  0  0  0  0  0  0  0  0
   -1.0920   -4.3298   17.2096 C   0  0  0  0  0  0  0  0  0  0  0  0
   -1.7440   -5.1984   16.3019 C   0  0  0  0  0  0  0  0  0  0  0  0
   -1.7438   -3.7756   18.2862 O   0  0  0  0  0  0  0  0  0  0  0  0
   -3.7546   -5.9364   17.6843 C   0  0  0  0  0  0  0  0  0  0  0  0
   -3.1255   -5.6352   16.4209 N   0  0  0  0  0  0  0  0  0  0  0  0
   -4.9705   -6.0003   17.8302 O   0  0  0  0  0  0  0  0  0  0  0  0
   -3.7852   -5.8513   15.2044 C   0  0  2  0  0  0  0  0  0  0  0  0
   -3.0050   -6.8999   14.3704 C   0  0  0  0  0  0  0  0  0  0  0  0
   -0.9886   -5.7346   15.2116 C   0  0  0  0  0  0  0  0  0  0  0  0
   -1.6283   -6.6350   14.2485 N   0  0  0  0  0  0  0  0  0  0  0  0
   -3.9257   -4.5567   14.4295 C   0  0  0  0  0  0  0  0  0  0  0  0
   -5.0577   -3.7279   14.7391 N   0  0  0  0  0  0  0  0  0  0  0  0
   -7.8432   -2.8503   11.7146 C   0  0  0  0  0  0  0  0  0  0  0  0
   -8.1037   -2.4558   13.0197 C   0  0  0  0  0  0  0  0  0  0  0  0
   -7.1798   -2.7399   14.0181 C   0  0  0  0  0  0  0  0  0  0  0  0
   -6.0066   -3.4272   13.7135 C   0  0  0  0  0  0  0  0  0  0  0  0
   -5.7562   -3.8280   12.4127 C   0  0  0  0  0  0  0  0  0  0  0  0
   -6.6747   -3.5343   11.4120 C   0  0  0  0  0  0  0  0  0  0  0  0
  1  2  1  0  0  0  0
  2  3  2  0  0  0  0
  2 20  1  0  0  0  0
  4  6  1  0  0  0  0
  5  6  2  0  0  0  0
  5 16  1  0  0  0  0
  6  7  1  0  0  0  0
  7  8  1  0  0  0  0
  8  9  1  0  0  0  0
  8 10  2  0  0  0  0
  9 12  1  0  0  0  0
  9 16  2  0  0  0  0
 11 13  1  0  0  0  0
 11 12  1  0  0  0  0
 12 14  1  0  0  0  0
 14 15  1  0  0  0  0
 14 18  1  6  0  0  0
 15 17  1  0  0  0  0
 16 17  1  0  0  0  0
 18 19  1  0  0  0  0
 19 23  1  0  0  0  0
 20 21  2  0  0  0  0
 20 25  1  0  0  0  0
 21 22  1  0  0  0  0
 22 23  2  0  0  0  0
 23 24  1  0  0  0  0
 24 25  2  0  0  0  0
M  END
>  <CHROM.1>
162.50385838,-85.35634587,-119.74846513,173.53231495,-154.23152874,-3.96591330
-4.37897228,14.57649764,-2.52711063,-0.12586739,1.81434593

>  <Name>
ligand

>  <RI>
0

>  <Rbt.Current_Directory>
/home/itssahil/PROJECTS/Mol_Feturizer/New_Systems/rnas/4LVV

>  <Rbt.Executable>
rbdock ($Id: //depot/dev/client3/rdock/2013.1/src/exe/rbdock.cxx#4 $)

>  <Rbt.Library>
libRbt.so (2013.1, Build901 2013/11/27)

>  <Rbt.Parameter_File>
/export/apps/rDock/src/rDock_2013.1_src/data/scripts/dock_solv.prm

>  <Rbt.Receptor>
prm/blind_docking_20.prm

>  <SCORE>
-8.3645

>  <SCORE.INTER>
-10.0489

>  <SCORE.INTER.CONST>
1

>  <SCORE.INTER.POLAR>
0

>  <SCORE.INTER.ROT>
5

>  <SCORE.INTER.SOLV>
16.8345

>  <SCORE.INTER.VDW>
-19.2441

>  <SCORE.INTER.norm>
-0.401955

>  <SCORE.INTRA>
1.42786

>  <SCORE.INTRA.DIHEDRAL>
2.38371

>  <SCORE.INTRA.DIHEDRAL.0>
3.94806

>  <SCORE.INTRA.POLAR>
0

>  <SCORE.INTRA.POLAR.0>
0

>  <SCORE.INTRA.REPUL>
0

>  <SCORE.INTRA.REPUL.0>
0

>  <SCORE.INTRA.SOLV>
-0.145808

>  <SCORE.INTRA.SOLV.lig_0>
-70.9803

>  <SCORE.INTRA.VDW>
0.308914

>  <SCORE.INTRA.VDW.0>
-0.709409

>  <SCORE.INTRA.norm>
0.0571145

>  <SCORE.RESTR>
0.256501

>  <SCORE.RESTR.CAVITY>
0.256501

>  <SCORE.RESTR.norm>
0.01026

>  <SCORE.SYSTEM>
0

>  <SCORE.SYSTEM.CONST>
0

>  <SCORE.SYSTEM.DIHEDRAL>
0

>  <SCORE.SYSTEM.SOLV>
0

>  <SCORE.SYSTEM.norm>
0

>  <SCORE.heavy>
25

>  <SCORE.norm>
-0.33458

>  <RMSD>
23.273

$$$$
ligand
 OpenBabel11021811503D
libRbt.so/2013.1/901 2013/11/27
 25 27  0  0  0  0  0  0  0  0999 V2000
   -8.7032   -3.3331    9.2833 N   0  0  0  0  0  0  0  0  0  0  0  0
   -8.7821   -2.5767   10.4945 C   0  0  0  0  0  0  0  0  0  0  0  0
   -9.6235   -1.6970   10.6297 O   0  0  0  0  0  0  0  0  0  0  0  0
    2.3509   -4.4903   15.0356 N   0  0  0  0  0  0  0  0  0  0  0  0
    0.2720   -5.6343   14.6691 N   0  0  0  0  0  0  0  0  0  0  0  0
    0.9894   -4.7371   15.3841 C   0  0  0  0  0  0  0  0  0  0  0  0
    0.4351   -4.0706   16.4409 N   0  0  0  0  0  0  0  0  0  0  0  0
   -0.8524   -4.2687   16.8222 C   0  0  0  0  0  0  0  0  0  0  0  0
   -1.6407   -5.1890   16.0906 C   0  0  0  0  0  0  0  0  0  0  0  0
   -1.3574   -3.5593   17.8866 O   0  0  0  0  0  0  0  0  0  0  0  0
   -3.5292   -5.6418   17.7418 C   0  0  0  0  0  0  0  0  0  0  0  0
   -3.0226   -5.5218   16.3958 N   0  0  0  0  0  0  0  0  0  0  0  0
   -4.4981   -5.0123   18.1528 O   0  0  0  0  0  0  0  0  0  0  0  0
   -3.8174   -5.8283   15.2841 C   0  0  2  0  0  0  0  0  0  0  0  0
   -3.1849   -7.0095   14.5041 C   0  0  0  0  0  0  0  0  0  0  0  0
   -1.0335   -5.8885   15.0003 C   0  0  0  0  0  0  0  0  0  0  0  0
   -1.8170   -6.8472   14.2163 N   0  0  0  0  0  0  0  0  0  0  0  0
   -3.9722   -4.6205   14.3821 C   0  0  0  0  0  0  0  0  0  0  0  0
   -5.0717   -3.7367   14.6543 N   0  0  0  0  0  0  0  0  0  0  0  0
   -7.8320   -2.8900   11.5981 C   0  0  0  0  0  0  0  0  0  0  0  0
   -8.2165   -3.6916   12.6642 C   0  0  0  0  0  0  0  0  0  0  0  0
   -7.3062   -3.9658   13.6776 C   0  0  0  0  0  0  0  0  0  0  0  0
   -6.0130   -3.4505   13.6176 C   0  0  0  0  0  0  0  0  0  0  0  0
   -5.6309   -2.6606   12.5473 C   0  0  0  0  0  0  0  0  0  0  0  0
   -6.5444   -2.3770   11.5391 C   0  0  0  0  0  0  0  0  0  0  0  0
  1  2  1  0  0  0  0
  2  3  2  0  0  0  0
  2 20  1  0  0  0  0
  4  6  1  0  0  0  0
  5  6  2  0  0  0  0
  5 16  1  0  0  0  0
  6  7  1  0  0  0  0
  7  8  1  0  0  0  0
  8  9  1  0  0  0  0
  8 10  2  0  0  0  0
  9 12  1  0  0  0  0
  9 16  2  0  0  0  0
 11 13  1  0  0  0  0
 11 12  1  0  0  0  0
 12 14  1  0  0  0  0
 14 15  1  0  0  0  0
 14 18  1  6  0  0  0
 15 17  1  0  0  0  0
 16 17  1  0  0  0  0
 18 19  1  0  0  0  0
 19 23  1  0  0  0  0
 20 21  2  0  0  0  0
 20 25  1  0  0  0  0
 21 22  1  0  0  0  0
 22 23  2  0  0  0  0
 23 24  1  0  0  0  0
 24 25  2  0  0  0  0
M  END
>  <CHROM.1>
125.22488627,-89.10869337,-124.13254307,108.86362701,-98.65007245,-3.90100113
-4.36392637,14.41788305,-2.54722018,-0.14095065,1.79717434

>  <Name>
ligand

>  <RI>
0

>  <Rbt.Current_Directory>
/home/itssahil/PROJECTS/Mol_Feturizer/New_Systems/rnas/4LVV

>  <Rbt.Executable>
rbdock ($Id: //depot/dev/client3/rdock/2013.1/src/exe/rbdock.cxx#4 $)

>  <Rbt.Library>
libRbt.so (2013.1, Build901 2013/11/27)

>  <Rbt.Parameter_File>
/export/apps/rDock/src/rDock_2013.1_src/data/scripts/dock_solv.prm

>  <Rbt.Receptor>
prm/blind_docking_20.prm

>  <SCORE>
-9.11499

>  <SCORE.INTER>
-9.56272

>  <SCORE.INTER.CONST>
1

>  <SCORE.INTER.POLAR>
0

>  <SCORE.INTER.ROT>
5

>  <SCORE.INTER.SOLV>
16.4105

>  <SCORE.INTER.VDW>
-18.7786

>  <SCORE.INTER.norm>
-0.382509

>  <SCORE.INTRA>
0.26542

>  <SCORE.INTRA.DIHEDRAL>
2.94912

>  <SCORE.INTRA.DIHEDRAL.0>
3.94806

>  <SCORE.INTRA.POLAR>
0

>  <SCORE.INTRA.POLAR.0>
0

>  <SCORE.INTRA.REPUL>
0

>  <SCORE.INTRA.REPUL.0>
0

>  <SCORE.INTRA.SOLV>
-0.104371

>  <SCORE.INTRA.SOLV.lig_0>
-70.9803

>  <SCORE.INTRA.VDW>
-1.15696

>  <SCORE.INTRA.VDW.0>
-0.709409

>  <SCORE.INTRA.norm>
0.0106168

>  <SCORE.RESTR>
0.182315

>  <SCORE.RESTR.CAVITY>
0.182315

>  <SCORE.RESTR.norm>
0.0072926

>  <SCORE.SYSTEM>
0

>  <SCORE.SYSTEM.CONST>
0

>  <SCORE.SYSTEM.DIHEDRAL>
0

>  <SCORE.SYSTEM.SOLV>
0

>  <SCORE.SYSTEM.norm>
0

>  <SCORE.heavy>
25

>  <SCORE.norm>
-0.364599

>  <RMSD>
23.332

$$$$
ligand
 OpenBabel11021811503D
libRbt.so/2013.1/901 2013/11/27
 25 27  0  0  0  0  0  0  0  0999 V2000
    1.2011   -4.8326   14.9300 N   0  0  0  0  0  0  0  0  0  0  0  0
    0.0828   -4.4569   15.7385 C   0  0  0  0  0  0  0  0  0  0  0  0
    0.2437   -4.0730   16.8903 O   0  0  0  0  0  0  0  0  0  0  0  0
   -3.1973   -6.8475    9.1507 N   0  0  0  0  0  0  0  0  0  0  0  0
   -3.8747   -4.8369   10.2748 N   0  0  0  0  0  0  0  0  0  0  0  0
   -4.1974   -6.0608    9.7966 C   0  0  0  0  0  0  0  0  0  0  0  0
   -5.4675   -6.5524    9.9126 N   0  0  0  0  0  0  0  0  0  0  0  0
   -6.4609   -5.8473   10.5114 C   0  0  0  0  0  0  0  0  0  0  0  0
   -6.1601   -4.5681   11.0375 C   0  0  0  0  0  0  0  0  0  0  0  0
   -7.7162   -6.4001   10.6086 O   0  0  0  0  0  0  0  0  0  0  0  0
   -8.4922   -3.5594   11.2432 C   0  0  0  0  0  0  0  0  0  0  0  0
   -7.1234   -3.6902   11.6816 N   0  0  0  0  0  0  0  0  0  0  0  0
   -8.8436   -2.7808   10.3634 O   0  0  0  0  0  0  0  0  0  0  0  0
   -6.6019   -2.8870   12.7036 C   0  0  2  0  0  0  0  0  0  0  0  0
   -5.4424   -2.0232   12.1440 C   0  0  0  0  0  0  0  0  0  0  0  0
   -4.8286   -4.0668   10.8876 C   0  0  0  0  0  0  0  0  0  0  0  0
   -4.4767   -2.7481   11.4214 N   0  0  0  0  0  0  0  0  0  0  0  0
   -6.1186   -3.7350   13.8628 C   0  0  0  0  0  0  0  0  0  0  0  0
   -5.1700   -4.7720   13.5646 N   0  0  0  0  0  0  0  0  0  0  0  0
   -1.2831   -4.5245   15.1481 C   0  0  0  0  0  0  0  0  0  0  0  0
   -1.5094   -4.1540   13.8297 C   0  0  0  0  0  0  0  0  0  0  0  0
   -2.7953   -4.2293   13.3084 C   0  0  0  0  0  0  0  0  0  0  0  0
   -3.8475   -4.6859   14.0997 C   0  0  0  0  0  0  0  0  0  0  0  0
   -3.6152   -5.0644   15.4104 C   0  0  0  0  0  0  0  0  0  0  0  0
   -2.3313   -4.9787   15.9354 C   0  0  0  0  0  0  0  0  0  0  0  0
  1  2  1  0  0  0  0
  2  3  2  0  0  0  0
  2 20  1  0  0  0  0
  4  6  1  0  0  0  0
  5  6  2  0  0  0  0
  5 16  1  0  0  0  0
  6  7  1  0  0  0  0
  7  8  1  0  0  0  0
  8  9  1  0  0  0  0
  8 10  2  0  0  0  0
  9 12  1  0  0  0  0
  9 16  2  0  0  0  0
 11 13  1  0  0  0  0
 11 12  1  0  0  0  0
 12 14  1  0  0  0  0
 14 15  1  0  0  0  0
 14 18  1  1  0  0  0
 15 17  1  0  0  0  0
 16 17  1  0  0  0  0
 18 19  1  0  0  0  0
 19 23  1  0  0  0  0
 20 21  2  0  0  0  0
 20 25  1  0  0  0  0
 21 22  1  0  0  0  0
 22 23  2  0  0  0  0
 23 24  1  0  0  0  0
 24 25  2  0  0  0  0
M  END
>  <CHROM.1>
-86.33077573,54.61089589,114.71961375,-100.12224798,-38.75457537,-4.39814442
-4.47900357,12.53457705,-0.52825577,0.38235108,-2.12558655

>  <Name>
ligand

>  <RI>
0

>  <Rbt.Current_Directory>
/home/itssahil/PROJECTS/Mol_Feturizer/New_Systems/rnas/4LVV

>  <Rbt.Executable>
rbdock ($Id: //depot/dev/client3/rdock/2013.1/src/exe/rbdock.cxx#4 $)

>  <Rbt.Library>
libRbt.so (2013.1, Build901 2013/11/27)

>  <Rbt.Parameter_File>
/export/apps/rDock/src/rDock_2013.1_src/data/scripts/dock_solv.prm

>  <Rbt.Receptor>
prm/blind_docking_20.prm

>  <SCORE>
-4.62834

>  <SCORE.INTER>
-4.26549

>  <SCORE.INTER.CONST>
1

>  <SCORE.INTER.POLAR>
0

>  <SCORE.INTER.ROT>
5

>  <SCORE.INTER.SOLV>
12.7466

>  <SCORE.INTER.VDW>
-14.0258

>  <SCORE.INTER.norm>
-0.17062

>  <SCORE.INTRA>
-0.362844

>  <SCORE.INTRA.DIHEDRAL>
0.450232

>  <SCORE.INTRA.DIHEDRAL.0>
3.94806

>  <SCORE.INTRA.POLAR>
0

>  <SCORE.INTRA.POLAR.0>
0

>  <SCORE.INTRA.REPUL>
0

>  <SCORE.INTRA.REPUL.0>
0

>  <SCORE.INTRA.SOLV>
2.81642

>  <SCORE.INTRA.SOLV.lig_0>
-70.9803

>  <SCORE.INTRA.VDW>
-1.99617

>  <SCORE.INTRA.VDW.0>
-0.709409

>  <SCORE.INTRA.norm>
-0.0145138

>  <SCORE.RESTR>
0

>  <SCORE.RESTR.CAVITY>
0

>  <SCORE.RESTR.norm>
0

>  <SCORE.SYSTEM>
0

>  <SCORE.SYSTEM.CONST>
0

>  <SCORE.SYSTEM.DIHEDRAL>
0

>  <SCORE.SYSTEM.SOLV>
0

>  <SCORE.SYSTEM.norm>
0

>  <SCORE.heavy>
25

>  <SCORE.norm>
-0.185133

>  <RMSD>
23.350

$$$$
ligand
 OpenBabel11021811503D
libRbt.so/2013.1/901 2013/11/27
 25 27  0  0  0  0  0  0  0  0999 V2000
    1.0708   -4.9264   14.9240 N   0  0  0  0  0  0  0  0  0  0  0  0
   -0.0264   -4.5479   15.7597 C   0  0  0  0  0  0  0  0  0  0  0  0
    0.1646   -4.1540   16.9036 O   0  0  0  0  0  0  0  0  0  0  0  0
   -3.1408   -6.8147    9.2117 N   0  0  0  0  0  0  0  0  0  0  0  0
   -3.8756   -4.8098   10.3098 N   0  0  0  0  0  0  0  0  0  0  0  0
   -4.1668   -6.0426    9.8342 C   0  0  0  0  0  0  0  0  0  0  0  0
   -5.4295   -6.5571    9.9307 N   0  0  0  0  0  0  0  0  0  0  0  0
   -6.4464   -5.8668   10.5068 C   0  0  0  0  0  0  0  0  0  0  0  0
   -6.1791   -4.5789   11.0295 C   0  0  0  0  0  0  0  0  0  0  0  0
   -7.6929   -6.4424   10.5852 O   0  0  0  0  0  0  0  0  0  0  0  0
   -8.5328   -3.6126   11.1864 C   0  0  0  0  0  0  0  0  0  0  0  0
   -7.1700   -3.7150   11.6502 N   0  0  0  0  0  0  0  0  0  0  0  0
   -8.8865   -2.8314   10.3098 O   0  0  0  0  0  0  0  0  0  0  0  0
   -6.6820   -2.8956   12.6760 C   0  0  2  0  0  0  0  0  0  0  0  0
   -5.5289   -2.0139   12.1314 C   0  0  0  0  0  0  0  0  0  0  0  0
   -4.8546   -4.0537   10.9002 C   0  0  0  0  0  0  0  0  0  0  0  0
   -4.5369   -2.7253   11.4312 N   0  0  0  0  0  0  0  0  0  0  0  0
   -6.2041   -3.7269   13.8494 C   0  0  0  0  0  0  0  0  0  0  0  0
   -5.2751   -4.7857   13.5664 N   0  0  0  0  0  0  0  0  0  0  0  0
   -1.4077   -4.6251   15.2076 C   0  0  0  0  0  0  0  0  0  0  0  0
   -2.4648   -5.0685   15.9902 C   0  0  0  0  0  0  0  0  0  0  0  0
   -3.7419   -5.1280   15.4456 C   0  0  0  0  0  0  0  0  0  0  0  0
   -3.9617   -4.7331   14.1275 C   0  0  0  0  0  0  0  0  0  0  0  0
   -2.9064   -4.2815   13.3544 C   0  0  0  0  0  0  0  0  0  0  0  0
   -1.6272   -4.2323   13.8952 C   0  0  0  0  0  0  0  0  0  0  0  0
  1  2  1  0  0  0  0
  2  3  2  0  0  0  0
  2 20  1  0  0  0  0
  4  6  1  0  0  0  0
  5  6  2  0  0  0  0
  5 16  1  0  0  0  0
  6  7  1  0  0  0  0
  7  8  1  0  0  0  0
  8  9  1  0  0  0  0
  8 10  2  0  0  0  0
  9 12  1  0  0  0  0
  9 16  2  0  0  0  0
 11 13  1  0  0  0  0
 11 12  1  0  0  0  0
 12 14  1  0  0  0  0
 14 15  1  0  0  0  0
 14 18  1  1  0  0  0
 15 17  1  0  0  0  0
 16 17  1  0  0  0  0
 18 19  1  0  0  0  0
 19 23  1  0  0  0  0
 20 21  2  0  0  0  0
 20 25  1  0  0  0  0
 21 22  1  0  0  0  0
 22 23  2  0  0  0  0
 23 24  1  0  0  0  0
 24 25  2  0  0  0  0
M  END
>  <CHROM.1>
-87.51604318,51.98233669,116.83832827,80.57282352,140.70169180,-4.45556545
-4.51029282,12.54319715,-0.53289958,0.39066994,-2.10800556

>  <Name>
ligand

>  <RI>
0

>  <Rbt.Current_Directory>
/home/itssahil/PROJECTS/Mol_Feturizer/New_Systems/rnas/4LVV

>  <Rbt.Executable>
rbdock ($Id: //depot/dev/client3/rdock/2013.1/src/exe/rbdock.cxx#4 $)

>  <Rbt.Library>
libRbt.so (2013.1, Build901 2013/11/27)

>  <Rbt.Parameter_File>
/export/apps/rDock/src/rDock_2013.1_src/data/scripts/dock_solv.prm

>  <Rbt.Receptor>
prm/blind_docking_20.prm

>  <SCORE>
-4.65044

>  <SCORE.INTER>
-4.27952

>  <SCORE.INTER.CONST>
1

>  <SCORE.INTER.POLAR>
0

>  <SCORE.INTER.ROT>
5

>  <SCORE.INTER.SOLV>
12.7964

>  <SCORE.INTER.VDW>
-14.0518

>  <SCORE.INTER.norm>
-0.171181

>  <SCORE.INTRA>
-0.370929

>  <SCORE.INTRA.DIHEDRAL>
0.535516

>  <SCORE.INTRA.DIHEDRAL.0>
3.94806

>  <SCORE.INTRA.POLAR>
0

>  <SCORE.INTRA.POLAR.0>
0

>  <SCORE.INTRA.REPUL>
0

>  <SCORE.INTRA.REPUL.0>
0

>  <SCORE.INTRA.SOLV>
2.8134

>  <SCORE.INTRA.SOLV.lig_0>
-70.9803

>  <SCORE.INTRA.VDW>
-2.04539

>  <SCORE.INTRA.VDW.0>
-0.709409

>  <SCORE.INTRA.norm>
-0.0148372

>  <SCORE.RESTR>
0

>  <SCORE.RESTR.CAVITY>
0

>  <SCORE.RESTR.norm>
0

>  <SCORE.SYSTEM>
0

>  <SCORE.SYSTEM.CONST>
0

>  <SCORE.SYSTEM.DIHEDRAL>
0

>  <SCORE.SYSTEM.SOLV>
0

>  <SCORE.SYSTEM.norm>
0

>  <SCORE.heavy>
25

>  <SCORE.norm>
-0.186018

>  <RMSD>
23.351

$$$$
ligand
 OpenBabel11021811503D
libRbt.so/2013.1/901 2013/11/27
 25 27  0  0  0  0  0  0  0  0999 V2000
    0.2609   -4.0873   17.0509 N   0  0  0  0  0  0  0  0  0  0  0  0
    0.0637   -4.5512   15.7125 C   0  0  0  0  0  0  0  0  0  0  0  0
    1.0144   -4.9032   15.0253 O   0  0  0  0  0  0  0  0  0  0  0  0
   -3.1380   -6.7438    9.1735 N   0  0  0  0  0  0  0  0  0  0  0  0
   -3.8472   -4.7436   10.2968 N   0  0  0  0  0  0  0  0  0  0  0  0
   -4.1517   -5.9705    9.8143 C   0  0  0  0  0  0  0  0  0  0  0  0
   -5.4165   -6.4777    9.9211 N   0  0  0  0  0  0  0  0  0  0  0  0
   -6.4223   -5.7859   10.5147 C   0  0  0  0  0  0  0  0  0  0  0  0
   -6.1406   -4.5041   11.0450 C   0  0  0  0  0  0  0  0  0  0  0  0
   -7.6714   -6.3541   10.6027 O   0  0  0  0  0  0  0  0  0  0  0  0
   -8.4861   -3.5242   11.2372 C   0  0  0  0  0  0  0  0  0  0  0  0
   -7.1187   -3.6391   11.6843 N   0  0  0  0  0  0  0  0  0  0  0  0
   -8.8354   -2.7744   10.3319 O   0  0  0  0  0  0  0  0  0  0  0  0
   -6.6137   -2.8315   12.7112 C   0  0  2  0  0  0  0  0  0  0  0  0
   -5.4612   -1.9527   12.1606 C   0  0  0  0  0  0  0  0  0  0  0  0
   -4.8143   -3.9863   10.9047 C   0  0  0  0  0  0  0  0  0  0  0  0
   -4.4820   -2.6644   11.4431 N   0  0  0  0  0  0  0  0  0  0  0  0
   -6.1277   -3.6757   13.8720 C   0  0  0  0  0  0  0  0  0  0  0  0
   -5.2079   -4.7373   13.5696 N   0  0  0  0  0  0  0  0  0  0  0  0
   -1.3234   -4.6151   15.1733 C   0  0  0  0  0  0  0  0  0  0  0  0
   -2.3736   -5.0697   15.9589 C   0  0  0  0  0  0  0  0  0  0  0  0
   -3.6563   -5.1165   15.4266 C   0  0  0  0  0  0  0  0  0  0  0  0
   -3.8887   -4.6978   14.1180 C   0  0  0  0  0  0  0  0  0  0  0  0
   -2.8402   -4.2352   13.3420 C   0  0  0  0  0  0  0  0  0  0  0  0
   -1.5554   -4.1988   13.8704 C   0  0  0  0  0  0  0  0  0  0  0  0
  1  2  1  0  0  0  0
  2  3  2  0  0  0  0
  2 20  1  0  0  0  0
  4  6  1  0  0  0  0
  5  6  2  0  0  0  0
  5 16  1  0  0  0  0
  6  7  1  0  0  0  0
  7  8  1  0  0  0  0
  8  9  1  0  0  0  0
  8 10  2  0  0  0  0
  9 12  1  0  0  0  0
  9 16  2  0  0  0  0
 11 13  1  0  0  0  0
 11 12  1  0  0  0  0
 12 14  1  0  0  0  0
 14 15  1  0  0  0  0
 14 18  1  1  0  0  0
 15 17  1  0  0  0  0
 16 17  1  0  0  0  0
 18 19  1  0  0  0  0
 19 23  1  0  0  0  0
 20 21  2  0  0  0  0
 20 25  1  0  0  0  0
 21 22  1  0  0  0  0
 22 23  2  0  0  0  0
 23 24  1  0  0  0  0
 24 25  2  0  0  0  0
M  END
>  <CHROM.1>
-84.30684740,52.03586885,116.91745189,81.07510752,-41.16291124,-4.40096132
-4.46077889,12.54337737,0.52427655,-0.39294346,1.03573316

>  <Name>
ligand

>  <RI>
0

>  <Rbt.Current_Directory>
/home/itssahil/PROJECTS/Mol_Feturizer/New_Systems/rnas/4LVV

>  <Rbt.Executable>
rbdock ($Id: //depot/dev/client3/rdock/2013.1/src/exe/rbdock.cxx#4 $)

>  <Rbt.Library>
libRbt.so (2013.1, Build901 2013/11/27)

>  <Rbt.Parameter_File>
/export/apps/rDock/src/rDock_2013.1_src/data/scripts/dock_solv.prm

>  <Rbt.Receptor>
prm/blind_docking_20.prm

>  <SCORE>
-4.6677

>  <SCORE.INTER>
-4.31279

>  <SCORE.INTER.CONST>
1

>  <SCORE.INTER.POLAR>
0

>  <SCORE.INTER.ROT>
5

>  <SCORE.INTER.SOLV>
12.7258

>  <SCORE.INTER.VDW>
-14.0505

>  <SCORE.INTER.norm>
-0.172512

>  <SCORE.INTRA>
-0.354909

>  <SCORE.INTRA.DIHEDRAL>
0.580788

>  <SCORE.INTRA.DIHEDRAL.0>
3.94806

>  <SCORE.INTRA.POLAR>
0

>  <SCORE.INTRA.POLAR.0>
0

>  <SCORE.INTRA.REPUL>
0

>  <SCORE.INTRA.REPUL.0>
0

>  <SCORE.INTRA.SOLV>
2.81897

>  <SCORE.INTRA.SOLV.lig_0>
-70.9803

>  <SCORE.INTRA.VDW>
-2.05479

>  <SCORE.INTRA.VDW.0>
-0.709409

>  <SCORE.INTRA.norm>
-0.0141964

>  <SCORE.RESTR>
0

>  <SCORE.RESTR.CAVITY>
0

>  <SCORE.RESTR.norm>
0

>  <SCORE.SYSTEM>
0

>  <SCORE.SYSTEM.CONST>
0

>  <SCORE.SYSTEM.DIHEDRAL>
0

>  <SCORE.SYSTEM.SOLV>
0

>  <SCORE.SYSTEM.norm>
0

>  <SCORE.heavy>
25

>  <SCORE.norm>
-0.186708

>  <RMSD>
23.354

$$$$
ligand
 OpenBabel11021811503D
libRbt.so/2013.1/901 2013/11/27
 25 27  0  0  0  0  0  0  0  0999 V2000
    0.2844   -4.0842   17.0728 N   0  0  0  0  0  0  0  0  0  0  0  0
    0.1368   -4.4110   15.6884 C   0  0  0  0  0  0  0  0  0  0  0  0
    1.1172   -4.6403   14.9911 O   0  0  0  0  0  0  0  0  0  0  0  0
   -3.1376   -6.7270    9.1218 N   0  0  0  0  0  0  0  0  0  0  0  0
   -3.8398   -4.7421   10.2762 N   0  0  0  0  0  0  0  0  0  0  0  0
   -4.1467   -5.9635    9.7812 C   0  0  0  0  0  0  0  0  0  0  0  0
   -5.4097   -6.4741    9.8931 N   0  0  0  0  0  0  0  0  0  0  0  0
   -6.4112   -5.7913   10.5042 C   0  0  0  0  0  0  0  0  0  0  0  0
   -6.1267   -4.5158   11.0479 C   0  0  0  0  0  0  0  0  0  0  0  0
   -7.6586   -6.3628   10.5963 O   0  0  0  0  0  0  0  0  0  0  0  0
   -8.4719   -3.5423   11.2734 C   0  0  0  0  0  0  0  0  0  0  0  0
   -7.1004   -3.6606   11.7068 N   0  0  0  0  0  0  0  0  0  0  0  0
   -8.8260   -2.8042   10.3604 O   0  0  0  0  0  0  0  0  0  0  0  0
   -6.5874   -2.8650   12.7390 C   0  0  2  0  0  0  0  0  0  0  0  0
   -5.4413   -1.9774   12.1892 C   0  0  0  0  0  0  0  0  0  0  0  0
   -4.8026   -3.9941   10.9022 C   0  0  0  0  0  0  0  0  0  0  0  0
   -4.4675   -2.6785   11.4541 N   0  0  0  0  0  0  0  0  0  0  0  0
   -6.0897   -3.7228   13.8848 C   0  0  0  0  0  0  0  0  0  0  0  0
   -5.1362   -4.7497   13.5677 N   0  0  0  0  0  0  0  0  0  0  0  0
   -1.2347   -4.4848   15.1118 C   0  0  0  0  0  0  0  0  0  0  0  0
   -1.4756   -4.1170   13.7952 C   0  0  0  0  0  0  0  0  0  0  0  0
   -2.7663   -4.1981   13.2870 C   0  0  0  0  0  0  0  0  0  0  0  0
   -3.8088   -4.6577   14.0894 C   0  0  0  0  0  0  0  0  0  0  0  0
   -3.5618   -5.0334   15.3983 C   0  0  0  0  0  0  0  0  0  0  0  0
   -2.2731   -4.9419   15.9102 C   0  0  0  0  0  0  0  0  0  0  0  0
  1  2  1  0  0  0  0
  2  3  2  0  0  0  0
  2 20  1  0  0  0  0
  4  6  1  0  0  0  0
  5  6  2  0  0  0  0
  5 16  1  0  0  0  0
  6  7  1  0  0  0  0
  7  8  1  0  0  0  0
  8  9  1  0  0  0  0
  8 10  2  0  0  0  0
  9 12  1  0  0  0  0
  9 16  2  0  0  0  0
 11 13  1  0  0  0  0
 11 12  1  0  0  0  0
 12 14  1  0  0  0  0
 14 15  1  0  0  0  0
 14 18  1  1  0  0  0
 15 17  1  0  0  0  0
 16 17  1  0  0  0  0
 18 19  1  0  0  0  0
 19 23  1  0  0  0  0
 20 21  2  0  0  0  0
 20 25  1  0  0  0  0
 21 22  1  0  0  0  0
 22 23  2  0  0  0  0
 23 24  1  0  0  0  0
 24 25  2  0  0  0  0
M  END
>  <CHROM.1>
-82.59695637,54.09447614,114.46177652,-100.73164936,146.66831947,-4.36213899
-4.43364009,12.53203870,0.53329035,-0.36797599,1.03752775

>  <Name>
ligand

>  <RI>
0

>  <Rbt.Current_Directory>
/home/itssahil/PROJECTS/Mol_Feturizer/New_Systems/rnas/4LVV

>  <Rbt.Executable>
rbdock ($Id: //depot/dev/client3/rdock/2013.1/src/exe/rbdock.cxx#4 $)

>  <Rbt.Library>
libRbt.so (2013.1, Build901 2013/11/27)

>  <Rbt.Parameter_File>
/export/apps/rDock/src/rDock_2013.1_src/data/scripts/dock_solv.prm

>  <Rbt.Receptor>
prm/blind_docking_20.prm

>  <SCORE>
-4.56708

>  <SCORE.INTER>
-4.20701

>  <SCORE.INTER.CONST>
1

>  <SCORE.INTER.POLAR>
0

>  <SCORE.INTER.ROT>
5

>  <SCORE.INTER.SOLV>
12.6234

>  <SCORE.INTER.VDW>
-13.9458

>  <SCORE.INTER.norm>
-0.16828

>  <SCORE.INTRA>
-0.360072

>  <SCORE.INTRA.DIHEDRAL>
0.422461

>  <SCORE.INTRA.DIHEDRAL.0>
3.94806

>  <SCORE.INTRA.POLAR>
0

>  <SCORE.INTRA.POLAR.0>
0

>  <SCORE.INTRA.REPUL>
0

>  <SCORE.INTRA.REPUL.0>
0

>  <SCORE.INTRA.SOLV>
2.83734

>  <SCORE.INTRA.SOLV.lig_0>
-70.9803

>  <SCORE.INTRA.VDW>
-1.98997

>  <SCORE.INTRA.VDW.0>
-0.709409

>  <SCORE.INTRA.norm>
-0.0144029

>  <SCORE.RESTR>
0

>  <SCORE.RESTR.CAVITY>
0

>  <SCORE.RESTR.norm>
0

>  <SCORE.SYSTEM>
0

>  <SCORE.SYSTEM.CONST>
0

>  <SCORE.SYSTEM.DIHEDRAL>
0

>  <SCORE.SYSTEM.SOLV>
0

>  <SCORE.SYSTEM.norm>
0

>  <SCORE.heavy>
25

>  <SCORE.norm>
-0.182683

>  <RMSD>
23.364

$$$$
ligand
 OpenBabel11021811503D
libRbt.so/2013.1/901 2013/11/27
 25 27  0  0  0  0  0  0  0  0999 V2000
    1.1274   -4.8829   14.9753 N   0  0  0  0  0  0  0  0  0  0  0  0
    0.0224   -4.5267   15.8104 C   0  0  0  0  0  0  0  0  0  0  0  0
    0.2029   -4.1589   16.9647 O   0  0  0  0  0  0  0  0  0  0  0  0
   -3.1384   -6.7609    9.1832 N   0  0  0  0  0  0  0  0  0  0  0  0
   -3.8413   -4.7560   10.3020 N   0  0  0  0  0  0  0  0  0  0  0  0
   -4.1510   -5.9807    9.8172 C   0  0  0  0  0  0  0  0  0  0  0  0
   -5.4200   -6.4791    9.9152 N   0  0  0  0  0  0  0  0  0  0  0  0
   -6.4250   -5.7803   10.5019 C   0  0  0  0  0  0  0  0  0  0  0  0
   -6.1381   -4.5007   11.0345 C   0  0  0  0  0  0  0  0  0  0  0  0
   -7.6787   -6.3399   10.5813 O   0  0  0  0  0  0  0  0  0  0  0  0
   -8.4779   -3.5045   11.2108 C   0  0  0  0  0  0  0  0  0  0  0  0
   -7.1145   -3.6290   11.6673 N   0  0  0  0  0  0  0  0  0  0  0  0
   -8.8188   -2.7382   10.3161 O   0  0  0  0  0  0  0  0  0  0  0  0
   -6.6109   -2.8252   12.6978 C   0  0  2  0  0  0  0  0  0  0  0  0
   -5.4486   -1.9543   12.1554 C   0  0  0  0  0  0  0  0  0  0  0  0
   -4.8073   -3.9921   10.9034 C   0  0  0  0  0  0  0  0  0  0  0  0
   -4.4695   -2.6727   11.4444 N   0  0  0  0  0  0  0  0  0  0  0  0
   -6.1388   -3.6730   13.8617 C   0  0  0  0  0  0  0  0  0  0  0  0
   -5.2074   -4.7269   13.5687 N   0  0  0  0  0  0  0  0  0  0  0  0
   -1.3541   -4.5944   15.2452 C   0  0  0  0  0  0  0  0  0  0  0  0
   -2.4168   -5.0564   16.0093 C   0  0  0  0  0  0  0  0  0  0  0  0
   -3.6892   -5.1066   15.4529 C   0  0  0  0  0  0  0  0  0  0  0  0
   -3.8988   -4.6839   14.1417 C   0  0  0  0  0  0  0  0  0  0  0  0
   -2.8380   -4.2140   13.3873 C   0  0  0  0  0  0  0  0  0  0  0  0
   -1.5634   -4.1741   13.9397 C   0  0  0  0  0  0  0  0  0  0  0  0
  1  2  1  0  0  0  0
  2  3  2  0  0  0  0
  2 20  1  0  0  0  0
  4  6  1  0  0  0  0
  5  6  2  0  0  0  0
  5 16  1  0  0  0  0
  6  7  1  0  0  0  0
  7  8  1  0  0  0  0
  8  9  1  0  0  0  0
  8 10  2  0  0  0  0
  9 12  1  0  0  0  0
  9 16  2  0  0  0  0
 11 13  1  0  0  0  0
 11 12  1  0  0  0  0
 12 14  1  0  0  0  0
 14 15  1  0  0  0  0
 14 18  1  1  0  0  0
 15 17  1  0  0  0  0
 16 17  1  0  0  0  0
 18 19  1  0  0  0  0
 19 23  1  0  0  0  0
 20 21  2  0  0  0  0
 20 25  1  0  0  0  0
 21 22  1  0  0  0  0
 22 23  2  0  0  0  0
 23 24  1  0  0  0  0
 24 25  2  0  0  0  0
M  END
>  <CHROM.1>
-85.37443936,53.03382690,117.07127083,80.84370423,140.81459533,-4.40737235
-4.45136013,12.55793315,-0.53625383,0.39748402,-2.10369711

>  <Name>
ligand

>  <RI>
0

>  <Rbt.Current_Directory>
/home/itssahil/PROJECTS/Mol_Feturizer/New_Systems/rnas/4LVV

>  <Rbt.Executable>
rbdock ($Id: //depot/dev/client3/rdock/2013.1/src/exe/rbdock.cxx#4 $)

>  <Rbt.Library>
libRbt.so (2013.1, Build901 2013/11/27)

>  <Rbt.Parameter_File>
/export/apps/rDock/src/rDock_2013.1_src/data/scripts/dock_solv.prm

>  <Rbt.Receptor>
prm/blind_docking_20.prm

>  <SCORE>
-4.65471

>  <SCORE.INTER>
-4.28217

>  <SCORE.INTER.CONST>
1

>  <SCORE.INTER.POLAR>
0

>  <SCORE.INTER.ROT>
5

>  <SCORE.INTER.SOLV>
12.7383

>  <SCORE.INTER.VDW>
-14.0342

>  <SCORE.INTER.norm>
-0.171287

>  <SCORE.INTRA>
-0.372543

>  <SCORE.INTRA.DIHEDRAL>
0.482559

>  <SCORE.INTRA.DIHEDRAL.0>
3.94806

>  <SCORE.INTRA.POLAR>
0

>  <SCORE.INTRA.POLAR.0>
0

>  <SCORE.INTRA.REPUL>
0

>  <SCORE.INTRA.REPUL.0>
0

>  <SCORE.INTRA.SOLV>
2.80741

>  <SCORE.INTRA.SOLV.lig_0>
-70.9803

>  <SCORE.INTRA.VDW>
-2.01753

>  <SCORE.INTRA.VDW.0>
-0.709409

>  <SCORE.INTRA.norm>
-0.0149017

>  <SCORE.RESTR>
0

>  <SCORE.RESTR.CAVITY>
0

>  <SCORE.RESTR.norm>
0

>  <SCORE.SYSTEM>
0

>  <SCORE.SYSTEM.CONST>
0

>  <SCORE.SYSTEM.DIHEDRAL>
0

>  <SCORE.SYSTEM.SOLV>
0

>  <SCORE.SYSTEM.norm>
0

>  <SCORE.heavy>
25

>  <SCORE.norm>
-0.186189

>  <RMSD>
23.365

$$$$
ligand
 OpenBabel11021811503D
libRbt.so/2013.1/901 2013/11/27
 25 27  0  0  0  0  0  0  0  0999 V2000
    0.2781   -4.0565   17.0007 N   0  0  0  0  0  0  0  0  0  0  0  0
    0.1190   -4.2913   15.5990 C   0  0  0  0  0  0  0  0  0  0  0  0
    1.0954   -4.4124   14.8696 O   0  0  0  0  0  0  0  0  0  0  0  0
   -3.2300   -6.7556    9.0885 N   0  0  0  0  0  0  0  0  0  0  0  0
   -3.9226   -4.7743   10.2548 N   0  0  0  0  0  0  0  0  0  0  0  0
   -4.2340   -5.9935    9.7575 C   0  0  0  0  0  0  0  0  0  0  0  0
   -5.4967   -6.5034    9.8759 N   0  0  0  0  0  0  0  0  0  0  0  0
   -6.4934   -5.8221   10.4962 C   0  0  0  0  0  0  0  0  0  0  0  0
   -6.2041   -4.5488   11.0427 C   0  0  0  0  0  0  0  0  0  0  0  0
   -7.7407   -6.3927   10.5946 O   0  0  0  0  0  0  0  0  0  0  0  0
   -8.5468   -3.5740   11.2875 C   0  0  0  0  0  0  0  0  0  0  0  0
   -7.1726   -3.6951   11.7112 N   0  0  0  0  0  0  0  0  0  0  0  0
   -8.9040   -2.8450   10.3684 O   0  0  0  0  0  0  0  0  0  0  0  0
   -6.6519   -2.9038   12.7429 C   0  0  2  0  0  0  0  0  0  0  0  0
   -5.5087   -2.0152   12.1887 C   0  0  0  0  0  0  0  0  0  0  0  0
   -4.8805   -4.0278   10.8900 C   0  0  0  0  0  0  0  0  0  0  0  0
   -4.5405   -2.7145   11.4444 N   0  0  0  0  0  0  0  0  0  0  0  0
   -6.1473   -3.7662   13.8821 C   0  0  0  0  0  0  0  0  0  0  0  0
   -5.1749   -4.7735   13.5598 N   0  0  0  0  0  0  0  0  0  0  0  0
   -1.2583   -4.4036   15.0430 C   0  0  0  0  0  0  0  0  0  0  0  0
   -1.5182   -4.0976   13.7143 C   0  0  0  0  0  0  0  0  0  0  0  0
   -2.8140   -4.2133   13.2259 C   0  0  0  0  0  0  0  0  0  0  0  0
   -3.8424   -4.6459   14.0607 C   0  0  0  0  0  0  0  0  0  0  0  0
   -3.5765   -4.9602   15.3820 C   0  0  0  0  0  0  0  0  0  0  0  0
   -2.2829   -4.8339   15.8737 C   0  0  0  0  0  0  0  0  0  0  0  0
  1  2  1  0  0  0  0
  2  3  2  0  0  0  0
  2 20  1  0  0  0  0
  4  6  1  0  0  0  0
  5  6  2  0  0  0  0
  5 16  1  0  0  0  0
  6  7  1  0  0  0  0
  7  8  1  0  0  0  0
  8  9  1  0  0  0  0
  8 10  2  0  0  0  0
  9 12  1  0  0  0  0
  9 16  2  0  0  0  0
 11 13  1  0  0  0  0
 11 12  1  0  0  0  0
 12 14  1  0  0  0  0
 14 15  1  0  0  0  0
 14 18  1  1  0  0  0
 15 17  1  0  0  0  0
 16 17  1  0  0  0  0
 18 19  1  0  0  0  0
 19 23  1  0  0  0  0
 20 21  2  0  0  0  0
 20 25  1  0  0  0  0
 21 22  1  0  0  0  0
 22 23  2  0  0  0  0
 23 24  1  0  0  0  0
 24 25  2  0  0  0  0
M  END
>  <CHROM.1>
-81.64511695,55.42515359,112.73166971,-102.94805824,153.94654192,-4.41936630
-4.42918978,12.50498457,0.53417579,-0.34587722,1.03087922

>  <Name>
ligand

>  <RI>
0

>  <Rbt.Current_Directory>
/home/itssahil/PROJECTS/Mol_Feturizer/New_Systems/rnas/4LVV

>  <Rbt.Executable>
rbdock ($Id: //depot/dev/client3/rdock/2013.1/src/exe/rbdock.cxx#4 $)

>  <Rbt.Library>
libRbt.so (2013.1, Build901 2013/11/27)

>  <Rbt.Parameter_File>
/export/apps/rDock/src/rDock_2013.1_src/data/scripts/dock_solv.prm

>  <Rbt.Receptor>
prm/blind_docking_20.prm

>  <SCORE>
-4.45974

>  <SCORE.INTER>
-4.13931

>  <SCORE.INTER.CONST>
1

>  <SCORE.INTER.POLAR>
0

>  <SCORE.INTER.ROT>
5

>  <SCORE.INTER.SOLV>
12.5682

>  <SCORE.INTER.VDW>
-13.8823

>  <SCORE.INTER.norm>
-0.165572

>  <SCORE.INTRA>
-0.324296

>  <SCORE.INTRA.DIHEDRAL>
0.357251

>  <SCORE.INTRA.DIHEDRAL.0>
3.94806

>  <SCORE.INTRA.POLAR>
0

>  <SCORE.INTRA.POLAR.0>
0

>  <SCORE.INTRA.REPUL>
0

>  <SCORE.INTRA.REPUL.0>
0

>  <SCORE.INTRA.SOLV>
2.84876

>  <SCORE.INTRA.SOLV.lig_0>
-70.9803

>  <SCORE.INTRA.VDW>
-1.9273

>  <SCORE.INTRA.VDW.0>
-0.709409

>  <SCORE.INTRA.norm>
-0.0129718

>  <SCORE.RESTR>
0.00386366

>  <SCORE.RESTR.CAVITY>
0.00386366

>  <SCORE.RESTR.norm>
0.000154546

>  <SCORE.SYSTEM>
0

>  <SCORE.SYSTEM.CONST>
0

>  <SCORE.SYSTEM.DIHEDRAL>
0

>  <SCORE.SYSTEM.SOLV>
0

>  <SCORE.SYSTEM.norm>
0

>  <SCORE.heavy>
25

>  <SCORE.norm>
-0.17839

>  <RMSD>
23.403

$$$$
ligand
 OpenBabel11021811503D
libRbt.so/2013.1/901 2013/11/27
 25 27  0  0  0  0  0  0  0  0999 V2000
   -8.0382    2.5770   26.6281 N   0  0  0  0  0  0  0  0  0  0  0  0
   -6.6425    2.5226   26.9353 C   0  0  0  0  0  0  0  0  0  0  0  0
   -5.9879    3.5504   27.0586 O   0  0  0  0  0  0  0  0  0  0  0  0
   -9.7703   -1.4580   31.6236 N   0  0  0  0  0  0  0  0  0  0  0  0
   -7.4568   -1.9611   31.2243 N   0  0  0  0  0  0  0  0  0  0  0  0
   -8.7505   -2.3557   31.1875 C   0  0  0  0  0  0  0  0  0  0  0  0
   -9.0965   -3.6033   30.7492 N   0  0  0  0  0  0  0  0  0  0  0  0
   -8.1699   -4.5015   30.3281 C   0  0  0  0  0  0  0  0  0  0  0  0
   -6.8064   -4.1217   30.3378 C   0  0  0  0  0  0  0  0  0  0  0  0
   -8.5806   -5.7375   29.8870 O   0  0  0  0  0  0  0  0  0  0  0  0
   -5.6608   -6.3963   30.2270 C   0  0  0  0  0  0  0  0  0  0  0  0
   -5.7042   -4.9825   29.9405 N   0  0  0  0  0  0  0  0  0  0  0  0
   -5.6388   -7.2575   29.3543 O   0  0  0  0  0  0  0  0  0  0  0  0
   -4.6210   -4.3219   29.3470 C   0  0  2  0  0  0  0  0  0  0  0  0
   -4.0792   -3.2399   30.3161 C   0  0  0  0  0  0  0  0  0  0  0  0
   -6.4668   -2.8176   30.8183 C   0  0  0  0  0  0  0  0  0  0  0  0
   -5.0666   -2.3858   30.8413 N   0  0  0  0  0  0  0  0  0  0  0  0
   -5.0278   -3.6959   28.0284 C   0  0  0  0  0  0  0  0  0  0  0  0
   -4.2323   -2.5987   27.5514 N   0  0  0  0  0  0  0  0  0  0  0  0
   -6.0009    1.1911   27.1203 C   0  0  0  0  0  0  0  0  0  0  0  0
   -5.4472    0.8296   28.3407 C   0  0  0  0  0  0  0  0  0  0  0  0
   -4.8566   -0.4204   28.4812 C   0  0  0  0  0  0  0  0  0  0  0  0
   -4.8320   -1.3093   27.4084 C   0  0  0  0  0  0  0  0  0  0  0  0
   -5.3949   -0.9486   26.1966 C   0  0  0  0  0  0  0  0  0  0  0  0
   -5.9758    0.3056   26.0525 C   0  0  0  0  0  0  0  0  0  0  0  0
  1  2  1  0  0  0  0
  2  3  2  0  0  0  0
  2 20  1  0  0  0  0
  4  6  1  0  0  0  0
  5  6  2  0  0  0  0
  5 16  1  0  0  0  0
  6  7  1  0  0  0  0
  7  8  1  0  0  0  0
  8  9  1  0  0  0  0
  8 10  2  0  0  0  0
  9 12  1  0  0  0  0
  9 16  2  0  0  0  0
 11 13  1  0  0  0  0
 11 12  1  0  0  0  0
 12 14  1  0  0  0  0
 14 15  1  0  0  0  0
 14 18  1  6  0  0  0
 15 17  1  0  0  0  0
 16 17  1  0  0  0  0
 18 19  1  0  0  0  0
 19 23  1  0  0  0  0
 20 21  2  0  0  0  0
 20 25  1  0  0  0  0
 21 22  1  0  0  0  0
 22 23  2  0  0  0  0
 23 24  1  0  0  0  0
 24 25  2  0  0  0  0
M  END
>  <CHROM.1>
117.54517624,157.19632541,-116.74426688,88.02254079,-116.95532844,-6.34609811
-2.20812617,29.07090772,1.50099865,0.57403794,-0.39373744

>  <Name>
ligand

>  <RI>
0

>  <Rbt.Current_Directory>
/home/itssahil/PROJECTS/Mol_Feturizer/New_Systems/rnas/4LVV

>  <Rbt.Executable>
rbdock ($Id: //depot/dev/client3/rdock/2013.1/src/exe/rbdock.cxx#4 $)

>  <Rbt.Library>
libRbt.so (2013.1, Build901 2013/11/27)

>  <Rbt.Parameter_File>
/export/apps/rDock/src/rDock_2013.1_src/data/scripts/dock_solv.prm

>  <Rbt.Receptor>
prm/blind_docking_100.prm

>  <SCORE>
-10.2863

>  <SCORE.INTER>
-10.2991

>  <SCORE.INTER.CONST>
1

>  <SCORE.INTER.POLAR>
0

>  <SCORE.INTER.ROT>
5

>  <SCORE.INTER.SOLV>
9.86688

>  <SCORE.INTER.VDW>
-17.0884

>  <SCORE.INTER.norm>
-0.411965

>  <SCORE.INTRA>
0.0128617

>  <SCORE.INTRA.DIHEDRAL>
2.19472

>  <SCORE.INTRA.DIHEDRAL.0>
3.94806

>  <SCORE.INTRA.POLAR>
0

>  <SCORE.INTRA.POLAR.0>
0

>  <SCORE.INTRA.REPUL>
0

>  <SCORE.INTRA.REPUL.0>
0

>  <SCORE.INTRA.SOLV>
0.79963

>  <SCORE.INTRA.SOLV.lig_0>
-70.9803

>  <SCORE.INTRA.VDW>
-1.48431

>  <SCORE.INTRA.VDW.0>
-0.709409

>  <SCORE.INTRA.norm>
0.00051447

>  <SCORE.RESTR>
0

>  <SCORE.RESTR.CAVITY>
0

>  <SCORE.RESTR.norm>
0

>  <SCORE.SYSTEM>
0

>  <SCORE.SYSTEM.CONST>
0

>  <SCORE.SYSTEM.DIHEDRAL>
0

>  <SCORE.SYSTEM.SOLV>
0

>  <SCORE.SYSTEM.norm>
0

>  <SCORE.heavy>
25

>  <SCORE.norm>
-0.411451

>  <RMSD>
23.407

$$$$
ligand
 OpenBabel11021811503D
libRbt.so/2013.1/901 2013/11/27
 25 27  0  0  0  0  0  0  0  0999 V2000
    2.5462   -4.8760   13.6456 N   0  0  0  0  0  0  0  0  0  0  0  0
    1.5357   -4.9743   14.6528 C   0  0  0  0  0  0  0  0  0  0  0  0
    1.8293   -5.2486   15.8098 O   0  0  0  0  0  0  0  0  0  0  0  0
   -9.5955   -1.4851   10.0018 N   0  0  0  0  0  0  0  0  0  0  0  0
   -8.4241   -2.8713   11.5738 N   0  0  0  0  0  0  0  0  0  0  0  0
   -8.7437   -2.5933   10.2888 C   0  0  0  0  0  0  0  0  0  0  0  0
   -8.2727   -3.3621    9.2614 N   0  0  0  0  0  0  0  0  0  0  0  0
   -7.4643   -4.4316    9.4739 C   0  0  0  0  0  0  0  0  0  0  0  0
   -7.0952   -4.7470   10.8036 C   0  0  0  0  0  0  0  0  0  0  0  0
   -7.0126   -5.1598    8.3985 O   0  0  0  0  0  0  0  0  0  0  0  0
   -6.3240   -7.1624   10.5410 C   0  0  0  0  0  0  0  0  0  0  0  0
   -6.2590   -5.8730   11.1860 N   0  0  0  0  0  0  0  0  0  0  0  0
   -7.3390   -7.5945   10.0053 O   0  0  0  0  0  0  0  0  0  0  0  0
   -5.4494   -5.6554   12.3080 C   0  0  2  0  0  0  0  0  0  0  0  0
   -6.3351   -5.2635   13.5186 C   0  0  0  0  0  0  0  0  0  0  0  0
   -7.6156   -3.9394   11.8637 C   0  0  0  0  0  0  0  0  0  0  0  0
   -7.2545   -4.2316   13.2536 N   0  0  0  0  0  0  0  0  0  0  0  0
   -4.4229   -4.5756   12.0313 C   0  0  0  0  0  0  0  0  0  0  0  0
   -3.8557   -3.9046   13.1680 N   0  0  0  0  0  0  0  0  0  0  0  0
    0.1181   -4.7196   14.2729 C   0  0  0  0  0  0  0  0  0  0  0  0
   -0.8967   -5.5675   14.6948 C   0  0  0  0  0  0  0  0  0  0  0  0
   -2.2093   -5.3018   14.3240 C   0  0  0  0  0  0  0  0  0  0  0  0
   -2.5060   -4.1852   13.5450 C   0  0  0  0  0  0  0  0  0  0  0  0
   -1.4922   -3.3367   13.1356 C   0  0  0  0  0  0  0  0  0  0  0  0
   -0.1780   -3.6082   13.4971 C   0  0  0  0  0  0  0  0  0  0  0  0
  1  2  1  0  0  0  0
  2  3  2  0  0  0  0
  2 20  1  0  0  0  0
  4  6  1  0  0  0  0
  5  6  2  0  0  0  0
  5 16  1  0  0  0  0
  6  7  1  0  0  0  0
  7  8  1  0  0  0  0
  8  9  1  0  0  0  0
  8 10  2  0  0  0  0
  9 12  1  0  0  0  0
  9 16  2  0  0  0  0
 11 13  1  0  0  0  0
 11 12  1  0  0  0  0
 12 14  1  0  0  0  0
 14 15  1  0  0  0  0
 14 18  1  6  0  0  0
 15 17  1  0  0  0  0
 16 17  1  0  0  0  0
 18 19  1  0  0  0  0
 19 23  1  0  0  0  0
 20 21  2  0  0  0  0
 20 25  1  0  0  0  0
 21 22  1  0  0  0  0
 22 23  2  0  0  0  0
 23 24  1  0  0  0  0
 24 25  2  0  0  0  0
M  END
>  <CHROM.1>
-27.92699956,158.20632645,107.11944267,-82.69107280,134.31851477,-4.57821687
-4.62738496,12.15804744,-0.08781711,0.44427412,-2.78985606

>  <Name>
ligand

>  <RI>
0

>  <Rbt.Current_Directory>
/home/itssahil/PROJECTS/Mol_Feturizer/New_Systems/rnas/4LVV

>  <Rbt.Executable>
rbdock ($Id: //depot/dev/client3/rdock/2013.1/src/exe/rbdock.cxx#4 $)

>  <Rbt.Library>
libRbt.so (2013.1, Build901 2013/11/27)

>  <Rbt.Parameter_File>
/export/apps/rDock/src/rDock_2013.1_src/data/scripts/dock_solv.prm

>  <Rbt.Receptor>
prm/blind_docking_20.prm

>  <SCORE>
-1.13599

>  <SCORE.INTER>
-1.5465

>  <SCORE.INTER.CONST>
1

>  <SCORE.INTER.POLAR>
0

>  <SCORE.INTER.ROT>
5

>  <SCORE.INTER.SOLV>
17.9878

>  <SCORE.INTER.VDW>
-13.9603

>  <SCORE.INTER.norm>
-0.0618602

>  <SCORE.INTRA>
0.400613

>  <SCORE.INTRA.DIHEDRAL>
2.05617

>  <SCORE.INTRA.DIHEDRAL.0>
3.94806

>  <SCORE.INTRA.POLAR>
0

>  <SCORE.INTRA.POLAR.0>
0

>  <SCORE.INTRA.REPUL>
0

>  <SCORE.INTRA.REPUL.0>
0

>  <SCORE.INTRA.SOLV>
0.388545

>  <SCORE.INTRA.SOLV.lig_0>
-70.9803

>  <SCORE.INTRA.VDW>
-0.821745

>  <SCORE.INTRA.VDW.0>
-0.709409

>  <SCORE.INTRA.norm>
0.0160245

>  <SCORE.RESTR>
0.00990396

>  <SCORE.RESTR.CAVITY>
0.00990396

>  <SCORE.RESTR.norm>
0.000396158

>  <SCORE.SYSTEM>
0

>  <SCORE.SYSTEM.CONST>
0

>  <SCORE.SYSTEM.DIHEDRAL>
0

>  <SCORE.SYSTEM.SOLV>
0

>  <SCORE.SYSTEM.norm>
0

>  <SCORE.heavy>
25

>  <SCORE.norm>
-0.0454395

>  <RMSD>
23.433

$$$$
ligand
 OpenBabel11021811503D
libRbt.so/2013.1/901 2013/11/27
 25 27  0  0  0  0  0  0  0  0999 V2000
    0.8134   -4.1425   16.8387 N   0  0  0  0  0  0  0  0  0  0  0  0
   -0.4467   -4.6516   17.2841 C   0  0  0  0  0  0  0  0  0  0  0  0
   -0.5937   -5.0385   18.4368 O   0  0  0  0  0  0  0  0  0  0  0  0
   -7.8469   -3.9167    7.4843 N   0  0  0  0  0  0  0  0  0  0  0  0
   -7.8765   -3.0773    9.7337 N   0  0  0  0  0  0  0  0  0  0  0  0
   -7.8064   -4.1358    8.8938 C   0  0  0  0  0  0  0  0  0  0  0  0
   -7.7079   -5.4123    9.3725 N   0  0  0  0  0  0  0  0  0  0  0  0
   -7.6712   -5.6820   10.7023 C   0  0  0  0  0  0  0  0  0  0  0  0
   -7.7276   -4.6005   11.6138 C   0  0  0  0  0  0  0  0  0  0  0  0
   -7.5591   -6.9864   11.1230 O   0  0  0  0  0  0  0  0  0  0  0  0
   -8.4060   -5.7991   13.7589 C   0  0  0  0  0  0  0  0  0  0  0  0
   -7.7230   -4.7363   13.0612 N   0  0  0  0  0  0  0  0  0  0  0  0
   -9.3471   -5.6055   14.5208 O   0  0  0  0  0  0  0  0  0  0  0  0
   -7.0931   -3.6933   13.7519 C   0  0  2  0  0  0  0  0  0  0  0  0
   -7.7665   -2.3463   13.3836 C   0  0  0  0  0  0  0  0  0  0  0  0
   -7.8495   -3.2749   11.0897 C   0  0  0  0  0  0  0  0  0  0  0  0
   -7.9079   -2.1284   12.0006 N   0  0  0  0  0  0  0  0  0  0  0  0
   -5.6127   -3.6504   13.4311 C   0  0  0  0  0  0  0  0  0  0  0  0
   -4.8532   -4.8434   13.6837 N   0  0  0  0  0  0  0  0  0  0  0  0
   -1.5850   -4.6871   16.3240 C   0  0  0  0  0  0  0  0  0  0  0  0
   -1.4133   -4.3074   14.9999 C   0  0  0  0  0  0  0  0  0  0  0  0
   -2.4952   -4.3526   14.1290 C   0  0  0  0  0  0  0  0  0  0  0  0
   -3.7401   -4.7883   14.5785 C   0  0  0  0  0  0  0  0  0  0  0  0
   -3.9039   -5.1761   15.8969 C   0  0  0  0  0  0  0  0  0  0  0  0
   -2.8249   -5.1205   16.7709 C   0  0  0  0  0  0  0  0  0  0  0  0
  1  2  1  0  0  0  0
  2  3  2  0  0  0  0
  2 20  1  0  0  0  0
  4  6  1  0  0  0  0
  5  6  2  0  0  0  0
  5 16  1  0  0  0  0
  6  7  1  0  0  0  0
  7  8  1  0  0  0  0
  8  9  1  0  0  0  0
  8 10  2  0  0  0  0
  9 12  1  0  0  0  0
  9 16  2  0  0  0  0
 11 13  1  0  0  0  0
 11 12  1  0  0  0  0
 12 14  1  0  0  0  0
 14 15  1  0  0  0  0
 14 18  1  6  0  0  0
 15 17  1  0  0  0  0
 16 17  1  0  0  0  0
 18 19  1  0  0  0  0
 19 23  1  0  0  0  0
 20 21  2  0  0  0  0
 20 25  1  0  0  0  0
 21 22  1  0  0  0  0
 22 23  2  0  0  0  0
 23 24  1  0  0  0  0
 24 25  2  0  0  0  0
M  END
>  <CHROM.1>
-115.49481790,-56.74049857,-121.55700153,-82.98666016,3.68004624,-5.55627698
-4.50476847,13.30315286,-0.72261323,-0.13841357,-1.36863859

>  <Name>
ligand

>  <RI>
0

>  <Rbt.Current_Directory>
/home/itssahil/PROJECTS/Mol_Feturizer/New_Systems/rnas/4LVV

>  <Rbt.Executable>
rbdock ($Id: //depot/dev/client3/rdock/2013.1/src/exe/rbdock.cxx#4 $)

>  <Rbt.Library>
libRbt.so (2013.1, Build901 2013/11/27)

>  <Rbt.Parameter_File>
/export/apps/rDock/src/rDock_2013.1_src/data/scripts/dock_solv.prm

>  <Rbt.Receptor>
prm/blind_docking_20.prm

>  <SCORE>
-7.88269

>  <SCORE.INTER>
-7.7722

>  <SCORE.INTER.CONST>
1

>  <SCORE.INTER.POLAR>
0

>  <SCORE.INTER.ROT>
5

>  <SCORE.INTER.SOLV>
16.8472

>  <SCORE.INTER.VDW>
-17.7305

>  <SCORE.INTER.norm>
-0.310888

>  <SCORE.INTRA>
-0.699368

>  <SCORE.INTRA.DIHEDRAL>
0.530788

>  <SCORE.INTRA.DIHEDRAL.0>
3.94806

>  <SCORE.INTRA.POLAR>
0

>  <SCORE.INTRA.POLAR.0>
0

>  <SCORE.INTRA.REPUL>
0

>  <SCORE.INTRA.REPUL.0>
0

>  <SCORE.INTRA.SOLV>
-0.0838105

>  <SCORE.INTRA.SOLV.lig_0>
-70.9803

>  <SCORE.INTRA.VDW>
-0.922857

>  <SCORE.INTRA.VDW.0>
-0.709409

>  <SCORE.INTRA.norm>
-0.0279747

>  <SCORE.RESTR>
0.588878

>  <SCORE.RESTR.CAVITY>
0.588878

>  <SCORE.RESTR.norm>
0.0235551

>  <SCORE.SYSTEM>
0

>  <SCORE.SYSTEM.CONST>
0

>  <SCORE.SYSTEM.DIHEDRAL>
0

>  <SCORE.SYSTEM.SOLV>
0

>  <SCORE.SYSTEM.norm>
0

>  <SCORE.heavy>
25

>  <SCORE.norm>
-0.315308

>  <RMSD>
23.450

$$$$
ligand
 OpenBabel11021811503D
libRbt.so/2013.1/901 2013/11/27
 25 27  0  0  0  0  0  0  0  0999 V2000
   -8.6684   -3.2642    8.8391 N   0  0  0  0  0  0  0  0  0  0  0  0
   -8.8050   -2.4258    9.9896 C   0  0  0  0  0  0  0  0  0  0  0  0
   -9.6045   -1.4979    9.9969 O   0  0  0  0  0  0  0  0  0  0  0  0
    1.8844   -4.5296   15.8302 N   0  0  0  0  0  0  0  0  0  0  0  0
   -0.0894   -5.3922   14.7692 N   0  0  0  0  0  0  0  0  0  0  0  0
    0.4956   -4.8555   15.8650 C   0  0  0  0  0  0  0  0  0  0  0  0
   -0.2189   -4.6295   17.0081 N   0  0  0  0  0  0  0  0  0  0  0  0
   -1.5405   -4.9249   17.1018 C   0  0  0  0  0  0  0  0  0  0  0  0
   -2.1925   -5.4747   15.9722 C   0  0  0  0  0  0  0  0  0  0  0  0
   -2.2084   -4.6635   18.2751 O   0  0  0  0  0  0  0  0  0  0  0  0
   -4.2771   -6.4753   17.0452 C   0  0  0  0  0  0  0  0  0  0  0  0
   -3.5929   -5.8630   15.9318 N   0  0  0  0  0  0  0  0  0  0  0  0
   -3.9212   -7.5339   17.5517 O   0  0  0  0  0  0  0  0  0  0  0  0
   -4.2170   -5.7004   14.6885 C   0  0  2  0  0  0  0  0  0  0  0  0
   -3.4482   -6.5096   13.6125 C   0  0  0  0  0  0  0  0  0  0  0  0
   -1.4200   -5.7197   14.7932 C   0  0  0  0  0  0  0  0  0  0  0  0
   -2.0590   -6.2852   13.6017 N   0  0  0  0  0  0  0  0  0  0  0  0
   -4.2810   -4.2360   14.3044 C   0  0  0  0  0  0  0  0  0  0  0  0
   -5.5321   -3.5596   14.5083 N   0  0  0  0  0  0  0  0  0  0  0  0
   -7.9682   -2.7119   11.1882 C   0  0  0  0  0  0  0  0  0  0  0  0
   -8.5057   -2.6432   12.4661 C   0  0  0  0  0  0  0  0  0  0  0  0
   -7.6987   -2.9168   13.5638 C   0  0  0  0  0  0  0  0  0  0  0  0
   -6.3631   -3.2701   13.3821 C   0  0  0  0  0  0  0  0  0  0  0  0
   -5.8344   -3.3478   12.1054 C   0  0  0  0  0  0  0  0  0  0  0  0
   -6.6382   -3.0635   11.0080 C   0  0  0  0  0  0  0  0  0  0  0  0
  1  2  1  0  0  0  0
  2  3  2  0  0  0  0
  2 20  1  0  0  0  0
  4  6  1  0  0  0  0
  5  6  2  0  0  0  0
  5 16  1  0  0  0  0
  6  7  1  0  0  0  0
  7  8  1  0  0  0  0
  8  9  1  0  0  0  0
  8 10  2  0  0  0  0
  9 12  1  0  0  0  0
  9 16  2  0  0  0  0
 11 13  1  0  0  0  0
 11 12  1  0  0  0  0
 12 14  1  0  0  0  0
 14 15  1  0  0  0  0
 14 18  1  6  0  0  0
 15 17  1  0  0  0  0
 16 17  1  0  0  0  0
 18 19  1  0  0  0  0
 19 23  1  0  0  0  0
 20 21  2  0  0  0  0
 20 25  1  0  0  0  0
 21 22  1  0  0  0  0
 22 23  2  0  0  0  0
 23 24  1  0  0  0  0
 24 25  2  0  0  0  0
M  END
>  <CHROM.1>
-58.97014882,-100.69754765,-104.69375288,164.51037739,-138.06277601,-4.22878060
-4.50433036,14.20314856,-2.43221216,-0.05211998,1.98529733

>  <Name>
ligand

>  <RI>
0

>  <Rbt.Current_Directory>
/home/itssahil/PROJECTS/Mol_Feturizer/New_Systems/rnas/4LVV

>  <Rbt.Executable>
rbdock ($Id: //depot/dev/client3/rdock/2013.1/src/exe/rbdock.cxx#4 $)

>  <Rbt.Library>
libRbt.so (2013.1, Build901 2013/11/27)

>  <Rbt.Parameter_File>
/export/apps/rDock/src/rDock_2013.1_src/data/scripts/dock_solv.prm

>  <Rbt.Receptor>
prm/blind_docking_20.prm

>  <SCORE>
-6.47052

>  <SCORE.INTER>
-8.22215

>  <SCORE.INTER.CONST>
1

>  <SCORE.INTER.POLAR>
0

>  <SCORE.INTER.ROT>
5

>  <SCORE.INTER.SOLV>
12.9888

>  <SCORE.INTER.VDW>
-16.7444

>  <SCORE.INTER.norm>
-0.328886

>  <SCORE.INTRA>
1.70362

>  <SCORE.INTRA.DIHEDRAL>
4.36306

>  <SCORE.INTRA.DIHEDRAL.0>
3.94806

>  <SCORE.INTRA.POLAR>
0

>  <SCORE.INTRA.POLAR.0>
0

>  <SCORE.INTRA.REPUL>
0

>  <SCORE.INTRA.REPUL.0>
0

>  <SCORE.INTRA.SOLV>
-0.528776

>  <SCORE.INTRA.SOLV.lig_0>
-70.9803

>  <SCORE.INTRA.VDW>
-0.213522

>  <SCORE.INTRA.VDW.0>
-0.709409

>  <SCORE.INTRA.norm>
0.0681449

>  <SCORE.RESTR>
0.0480146

>  <SCORE.RESTR.CAVITY>
0.0480146

>  <SCORE.RESTR.norm>
0.00192058

>  <SCORE.SYSTEM>
0

>  <SCORE.SYSTEM.CONST>
0

>  <SCORE.SYSTEM.DIHEDRAL>
0

>  <SCORE.SYSTEM.SOLV>
0

>  <SCORE.SYSTEM.norm>
0

>  <SCORE.heavy>
25

>  <SCORE.norm>
-0.258821

>  <RMSD>
23.469

$$$$
ligand
 OpenBabel11021811503D
libRbt.so/2013.1/901 2013/11/27
 25 27  0  0  0  0  0  0  0  0999 V2000
    0.6381   -4.4281   16.9748 N   0  0  0  0  0  0  0  0  0  0  0  0
    0.9174   -4.8253   15.6296 C   0  0  0  0  0  0  0  0  0  0  0  0
    2.0001   -5.3154   15.3333 O   0  0  0  0  0  0  0  0  0  0  0  0
   -9.5250   -2.4400    8.5035 N   0  0  0  0  0  0  0  0  0  0  0  0
   -8.5016   -3.3338   10.4832 N   0  0  0  0  0  0  0  0  0  0  0  0
   -8.5442   -3.2637    9.1326 C   0  0  0  0  0  0  0  0  0  0  0  0
   -7.6704   -3.9766    8.3602 N   0  0  0  0  0  0  0  0  0  0  0  0
   -6.7207   -4.7809    8.9021 C   0  0  0  0  0  0  0  0  0  0  0  0
   -6.6342   -4.8703   10.3121 C   0  0  0  0  0  0  0  0  0  0  0  0
   -5.8621   -5.4639    8.0731 O   0  0  0  0  0  0  0  0  0  0  0  0
   -5.2966   -7.0227   10.5881 C   0  0  0  0  0  0  0  0  0  0  0  0
   -5.6879   -5.7066   11.0324 N   0  0  0  0  0  0  0  0  0  0  0  0
   -4.1269   -7.3641   10.4498 O   0  0  0  0  0  0  0  0  0  0  0  0
   -5.2552   -5.1893   12.2599 C   0  0  2  0  0  0  0  0  0  0  0  0
   -6.4801   -4.9285   13.1737 C   0  0  0  0  0  0  0  0  0  0  0  0
   -7.5715   -4.1297   11.0995 C   0  0  0  0  0  0  0  0  0  0  0  0
   -7.5128   -4.1935   12.5624 N   0  0  0  0  0  0  0  0  0  0  0  0
   -4.4635   -3.9130   12.0585 C   0  0  0  0  0  0  0  0  0  0  0  0
   -3.0900   -4.0504   11.6601 N   0  0  0  0  0  0  0  0  0  0  0  0
   -0.1403   -4.6480   14.5958 C   0  0  0  0  0  0  0  0  0  0  0  0
   -1.1946   -5.5450   14.4931 C   0  0  0  0  0  0  0  0  0  0  0  0
   -2.1658   -5.3512   13.5184 C   0  0  0  0  0  0  0  0  0  0  0  0
   -2.0888   -4.2571   12.6588 C   0  0  0  0  0  0  0  0  0  0  0  0
   -1.0415   -3.3595   12.7720 C   0  0  0  0  0  0  0  0  0  0  0  0
   -0.0640   -3.5591   13.7395 C   0  0  0  0  0  0  0  0  0  0  0  0
  1  2  1  0  0  0  0
  2  3  2  0  0  0  0
  2 20  1  0  0  0  0
  4  6  1  0  0  0  0
  5  6  2  0  0  0  0
  5 16  1  0  0  0  0
  6  7  1  0  0  0  0
  7  8  1  0  0  0  0
  8  9  1  0  0  0  0
  8 10  2  0  0  0  0
  9 12  1  0  0  0  0
  9 16  2  0  0  0  0
 11 13  1  0  0  0  0
 11 12  1  0  0  0  0
 12 14  1  0  0  0  0
 14 15  1  0  0  0  0
 14 18  1  6  0  0  0
 15 17  1  0  0  0  0
 16 17  1  0  0  0  0
 18 19  1  0  0  0  0
 19 23  1  0  0  0  0
 20 21  2  0  0  0  0
 20 25  1  0  0  0  0
 21 22  1  0  0  0  0
 22 23  2  0  0  0  0
 23 24  1  0  0  0  0
 24 25  2  0  0  0  0
M  END
>  <CHROM.1>
127.38546233,-79.94728725,-84.67772020,58.17386348,-78.77388113,-4.28058062
-4.67487781,11.88867781,0.41828754,-0.43777993,0.91071557

>  <Name>
ligand

>  <RI>
0

>  <Rbt.Current_Directory>
/home/itssahil/PROJECTS/Mol_Feturizer/New_Systems/rnas/4LVV

>  <Rbt.Executable>
rbdock ($Id: //depot/dev/client3/rdock/2013.1/src/exe/rbdock.cxx#4 $)

>  <Rbt.Library>
libRbt.so (2013.1, Build901 2013/11/27)

>  <Rbt.Parameter_File>
/export/apps/rDock/src/rDock_2013.1_src/data/scripts/dock_solv.prm

>  <Rbt.Receptor>
prm/blind_docking_20.prm

>  <SCORE>
-2.6418

>  <SCORE.INTER>
-1.84665

>  <SCORE.INTER.CONST>
1

>  <SCORE.INTER.POLAR>
0

>  <SCORE.INTER.ROT>
5

>  <SCORE.INTER.SOLV>
9.53775

>  <SCORE.INTER.VDW>
-11.3437

>  <SCORE.INTER.norm>
-0.0738658

>  <SCORE.INTRA>
-0.817723

>  <SCORE.INTRA.DIHEDRAL>
0.983011

>  <SCORE.INTRA.DIHEDRAL.0>
3.94806

>  <SCORE.INTRA.POLAR>
0

>  <SCORE.INTRA.POLAR.0>
0

>  <SCORE.INTRA.REPUL>
0

>  <SCORE.INTRA.REPUL.0>
0

>  <SCORE.INTRA.SOLV>
0.0800267

>  <SCORE.INTRA.SOLV.lig_0>
-70.9803

>  <SCORE.INTRA.VDW>
-1.34924

>  <SCORE.INTRA.VDW.0>
-0.709409

>  <SCORE.INTRA.norm>
-0.0327089

>  <SCORE.RESTR>
0.0225634

>  <SCORE.RESTR.CAVITY>
0.0225634

>  <SCORE.RESTR.norm>
0.000902536

>  <SCORE.SYSTEM>
0

>  <SCORE.SYSTEM.CONST>
0

>  <SCORE.SYSTEM.DIHEDRAL>
0

>  <SCORE.SYSTEM.SOLV>
0

>  <SCORE.SYSTEM.norm>
0

>  <SCORE.heavy>
25

>  <SCORE.norm>
-0.105672

>  <RMSD>
23.475

$$$$
ligand
 OpenBabel11021811503D
libRbt.so/2013.1/901 2013/11/27
 25 27  0  0  0  0  0  0  0  0999 V2000
   -0.6294   -4.2085   17.6670 N   0  0  0  0  0  0  0  0  0  0  0  0
   -0.6617   -4.6454   16.3056 C   0  0  0  0  0  0  0  0  0  0  0  0
    0.3632   -5.0026   15.7381 O   0  0  0  0  0  0  0  0  0  0  0  0
   -3.0284   -6.8346    9.4501 N   0  0  0  0  0  0  0  0  0  0  0  0
   -3.7658   -4.8002   10.4908 N   0  0  0  0  0  0  0  0  0  0  0  0
   -4.0752   -5.9935    9.9329 C   0  0  0  0  0  0  0  0  0  0  0  0
   -5.3740   -6.4026    9.8146 N   0  0  0  0  0  0  0  0  0  0  0  0
   -6.4111   -5.6427   10.2500 C   0  0  0  0  0  0  0  0  0  0  0  0
   -6.1282   -4.3936   10.8527 C   0  0  0  0  0  0  0  0  0  0  0  0
   -7.6959   -6.1137   10.1143 O   0  0  0  0  0  0  0  0  0  0  0  0
   -8.3934   -3.2377   10.6770 C   0  0  0  0  0  0  0  0  0  0  0  0
   -7.1329   -3.4639   11.3423 N   0  0  0  0  0  0  0  0  0  0  0  0
   -8.5146   -2.5077    9.6990 O   0  0  0  0  0  0  0  0  0  0  0  0
   -6.7490   -2.7112   12.4594 C   0  0  2  0  0  0  0  0  0  0  0  0
   -5.4585   -1.9171   12.1312 C   0  0  0  0  0  0  0  0  0  0  0  0
   -4.7625   -3.9783   10.9485 C   0  0  0  0  0  0  0  0  0  0  0  0
   -4.4283   -2.6932   11.5686 N   0  0  0  0  0  0  0  0  0  0  0  0
   -6.5288   -3.6055   13.6627 C   0  0  0  0  0  0  0  0  0  0  0  0
   -5.6176   -4.7048   13.5036 N   0  0  0  0  0  0  0  0  0  0  0  0
   -1.9696   -4.6750   15.5933 C   0  0  0  0  0  0  0  0  0  0  0  0
   -3.1319   -5.0518   16.2519 C   0  0  0  0  0  0  0  0  0  0  0  0
   -4.3365   -5.0682   15.5593 C   0  0  0  0  0  0  0  0  0  0  0  0
   -4.3793   -4.6965   14.2170 C   0  0  0  0  0  0  0  0  0  0  0  0
   -3.2195   -4.3112   13.5675 C   0  0  0  0  0  0  0  0  0  0  0  0
   -2.0128   -4.3053   14.2568 C   0  0  0  0  0  0  0  0  0  0  0  0
  1  2  1  0  0  0  0
  2  3  2  0  0  0  0
  2 20  1  0  0  0  0
  4  6  1  0  0  0  0
  5  6  2  0  0  0  0
  5 16  1  0  0  0  0
  6  7  1  0  0  0  0
  7  8  1  0  0  0  0
  8  9  1  0  0  0  0
  8 10  2  0  0  0  0
  9 12  1  0  0  0  0
  9 16  2  0  0  0  0
 11 13  1  0  0  0  0
 11 12  1  0  0  0  0
 12 14  1  0  0  0  0
 14 15  1  0  0  0  0
 14 18  1  1  0  0  0
 15 17  1  0  0  0  0
 16 17  1  0  0  0  0
 18 19  1  0  0  0  0
 19 23  1  0  0  0  0
 20 21  2  0  0  0  0
 20 25  1  0  0  0  0
 21 22  1  0  0  0  0
 22 23  2  0  0  0  0
 23 24  1  0  0  0  0
 24 25  2  0  0  0  0
M  END
>  <CHROM.1>
-80.13474380,54.08059159,112.39514469,79.97252260,-37.47038019,-4.62296867
-4.42170296,12.57648679,0.63893360,-0.50192282,1.07550074

>  <Name>
ligand

>  <RI>
0

>  <Rbt.Current_Directory>
/home/itssahil/PROJECTS/Mol_Feturizer/New_Systems/rnas/4LVV

>  <Rbt.Executable>
rbdock ($Id: //depot/dev/client3/rdock/2013.1/src/exe/rbdock.cxx#4 $)

>  <Rbt.Library>
libRbt.so (2013.1, Build901 2013/11/27)

>  <Rbt.Parameter_File>
/export/apps/rDock/src/rDock_2013.1_src/data/scripts/dock_solv.prm

>  <Rbt.Receptor>
prm/blind_docking_20.prm

>  <SCORE>
-4.11197

>  <SCORE.INTER>
-3.80306

>  <SCORE.INTER.CONST>
1

>  <SCORE.INTER.POLAR>
0

>  <SCORE.INTER.ROT>
5

>  <SCORE.INTER.SOLV>
13.0423

>  <SCORE.INTER.VDW>
-13.8161

>  <SCORE.INTER.norm>
-0.152122

>  <SCORE.INTRA>
-0.308905

>  <SCORE.INTRA.DIHEDRAL>
0.454839

>  <SCORE.INTRA.DIHEDRAL.0>
3.94806

>  <SCORE.INTRA.POLAR>
0

>  <SCORE.INTRA.POLAR.0>
0

>  <SCORE.INTRA.REPUL>
0

>  <SCORE.INTRA.REPUL.0>
0

>  <SCORE.INTRA.SOLV>
2.89588

>  <SCORE.INTRA.SOLV.lig_0>
-70.9803

>  <SCORE.INTRA.VDW>
-1.98427

>  <SCORE.INTRA.VDW.0>
-0.709409

>  <SCORE.INTRA.norm>
-0.0123562

>  <SCORE.RESTR>
0

>  <SCORE.RESTR.CAVITY>
0

>  <SCORE.RESTR.norm>
0

>  <SCORE.SYSTEM>
0

>  <SCORE.SYSTEM.CONST>
0

>  <SCORE.SYSTEM.DIHEDRAL>
0

>  <SCORE.SYSTEM.SOLV>
0

>  <SCORE.SYSTEM.norm>
0

>  <SCORE.heavy>
25

>  <SCORE.norm>
-0.164479

>  <RMSD>
23.496

$$$$
ligand
 OpenBabel11021811503D
libRbt.so/2013.1/901 2013/11/27
 25 27  0  0  0  0  0  0  0  0999 V2000
   -2.0656   -4.2437   18.5949 N   0  0  0  0  0  0  0  0  0  0  0  0
   -2.0197   -5.2210   17.5518 C   0  0  0  0  0  0  0  0  0  0  0  0
   -1.1629   -6.0963   17.5511 O   0  0  0  0  0  0  0  0  0  0  0  0
   -3.0549   -6.5510    9.3162 N   0  0  0  0  0  0  0  0  0  0  0  0
   -3.9548   -4.7456   10.6185 N   0  0  0  0  0  0  0  0  0  0  0  0
   -4.1697   -5.8146    9.8174 C   0  0  0  0  0  0  0  0  0  0  0  0
   -5.4362   -6.1951    9.4716 N   0  0  0  0  0  0  0  0  0  0  0  0
   -6.5340   -5.5296    9.9127 C   0  0  0  0  0  0  0  0  0  0  0  0
   -6.3518   -4.4140   10.7648 C   0  0  0  0  0  0  0  0  0  0  0  0
   -7.7831   -5.9676    9.5402 O   0  0  0  0  0  0  0  0  0  0  0  0
   -8.6063   -3.2464   10.5362 C   0  0  0  0  0  0  0  0  0  0  0  0
   -7.4276   -3.5918   11.2940 N   0  0  0  0  0  0  0  0  0  0  0  0
   -8.7832   -2.1401   10.0375 O   0  0  0  0  0  0  0  0  0  0  0  0
   -7.1943   -3.0596   12.5683 C   0  0  2  0  0  0  0  0  0  0  0  0
   -5.8924   -2.2179   12.5485 C   0  0  0  0  0  0  0  0  0  0  0  0
   -5.0164   -4.0233   11.0977 C   0  0  0  0  0  0  0  0  0  0  0  0
   -4.7861   -2.8756   11.9794 N   0  0  0  0  0  0  0  0  0  0  0  0
   -7.0965   -4.1617   13.6037 C   0  0  0  0  0  0  0  0  0  0  0  0
   -5.9980   -5.0795   13.4813 N   0  0  0  0  0  0  0  0  0  0  0  0
   -3.0451   -5.1661   16.4728 C   0  0  0  0  0  0  0  0  0  0  0  0
   -2.7577   -4.5864   15.2447 C   0  0  0  0  0  0  0  0  0  0  0  0
   -3.7360   -4.5517   14.2584 C   0  0  0  0  0  0  0  0  0  0  0  0
   -4.9919   -5.1065   14.4960 C   0  0  0  0  0  0  0  0  0  0  0  0
   -5.2703   -5.6930   15.7183 C   0  0  0  0  0  0  0  0  0  0  0  0
   -4.2959   -5.7180   16.7088 C   0  0  0  0  0  0  0  0  0  0  0  0
  1  2  1  0  0  0  0
  2  3  2  0  0  0  0
  2 20  1  0  0  0  0
  4  6  1  0  0  0  0
  5  6  2  0  0  0  0
  5 16  1  0  0  0  0
  6  7  1  0  0  0  0
  7  8  1  0  0  0  0
  8  9  1  0  0  0  0
  8 10  2  0  0  0  0
  9 12  1  0  0  0  0
  9 16  2  0  0  0  0
 11 13  1  0  0  0  0
 11 12  1  0  0  0  0
 12 14  1  0  0  0  0
 14 15  1  0  0  0  0
 14 18  1  1  0  0  0
 15 17  1  0  0  0  0
 16 17  1  0  0  0  0
 18 19  1  0  0  0  0
 19 23  1  0  0  0  0
 20 21  2  0  0  0  0
 20 25  1  0  0  0  0
 21 22  1  0  0  0  0
 22 23  2  0  0  0  0
 23 24  1  0  0  0  0
 24 25  2  0  0  0  0
M  END
>  <CHROM.1>
-103.95285261,64.72503542,114.43561249,-105.54729054,99.13134605,-5.15315806
-4.61730501,12.85950017,0.88632385,-0.57133803,1.28843925

>  <Name>
ligand

>  <RI>
0

>  <Rbt.Current_Directory>
/home/itssahil/PROJECTS/Mol_Feturizer/New_Systems/rnas/4LVV

>  <Rbt.Executable>
rbdock ($Id: //depot/dev/client3/rdock/2013.1/src/exe/rbdock.cxx#4 $)

>  <Rbt.Library>
libRbt.so (2013.1, Build901 2013/11/27)

>  <Rbt.Parameter_File>
/export/apps/rDock/src/rDock_2013.1_src/data/scripts/dock_solv.prm

>  <Rbt.Receptor>
prm/blind_docking_20.prm

>  <SCORE>
-3.12111

>  <SCORE.INTER>
-2.70532

>  <SCORE.INTER.CONST>
1

>  <SCORE.INTER.POLAR>
0

>  <SCORE.INTER.ROT>
5

>  <SCORE.INTER.SOLV>
12.648

>  <SCORE.INTER.VDW>
-12.9529

>  <SCORE.INTER.norm>
-0.108213

>  <SCORE.INTRA>
-0.419764

>  <SCORE.INTRA.DIHEDRAL>
0.487892

>  <SCORE.INTRA.DIHEDRAL.0>
3.94806

>  <SCORE.INTRA.POLAR>
0

>  <SCORE.INTRA.POLAR.0>
0

>  <SCORE.INTRA.REPUL>
0

>  <SCORE.INTRA.REPUL.0>
0

>  <SCORE.INTRA.SOLV>
2.67544

>  <SCORE.INTRA.SOLV.lig_0>
-70.9803

>  <SCORE.INTRA.VDW>
-2.00143

>  <SCORE.INTRA.VDW.0>
-0.709409

>  <SCORE.INTRA.norm>
-0.0167905

>  <SCORE.RESTR>
0.00397195

>  <SCORE.RESTR.CAVITY>
0.00397195

>  <SCORE.RESTR.norm>
0.000158878

>  <SCORE.SYSTEM>
0

>  <SCORE.SYSTEM.CONST>
0

>  <SCORE.SYSTEM.DIHEDRAL>
0

>  <SCORE.SYSTEM.SOLV>
0

>  <SCORE.SYSTEM.norm>
0

>  <SCORE.heavy>
25

>  <SCORE.norm>
-0.124844

>  <RMSD>
23.518

$$$$
ligand
 OpenBabel11021811503D
libRbt.so/2013.1/901 2013/11/27
 25 27  0  0  0  0  0  0  0  0999 V2000
    0.0867   -4.3366   16.0970 N   0  0  0  0  0  0  0  0  0  0  0  0
   -1.1118   -4.8806   16.6563 C   0  0  0  0  0  0  0  0  0  0  0  0
   -1.1226   -5.3327   17.7945 O   0  0  0  0  0  0  0  0  0  0  0  0
   -3.0304   -6.8017    9.4407 N   0  0  0  0  0  0  0  0  0  0  0  0
   -3.8025   -4.8060   10.5298 N   0  0  0  0  0  0  0  0  0  0  0  0
   -4.0933   -5.9666    9.8978 C   0  0  0  0  0  0  0  0  0  0  0  0
   -5.3879   -6.3477    9.6808 N   0  0  0  0  0  0  0  0  0  0  0  0
   -6.4392   -5.5916   10.0875 C   0  0  0  0  0  0  0  0  0  0  0  0
   -6.1768   -4.3769   10.7652 C   0  0  0  0  0  0  0  0  0  0  0  0
   -7.7196   -6.0340    9.8510 O   0  0  0  0  0  0  0  0  0  0  0  0
   -8.4105   -3.1760   10.5061 C   0  0  0  0  0  0  0  0  0  0  0  0
   -7.1969   -3.4542   11.2360 N   0  0  0  0  0  0  0  0  0  0  0  0
   -8.4609   -2.3979    9.5596 O   0  0  0  0  0  0  0  0  0  0  0  0
   -6.8726   -2.7610   12.4090 C   0  0  2  0  0  0  0  0  0  0  0  0
   -5.5533   -1.9744   12.1987 C   0  0  0  0  0  0  0  0  0  0  0  0
   -4.8141   -3.9896   10.9642 C   0  0  0  0  0  0  0  0  0  0  0  0
   -4.5010   -2.7406   11.6640 N   0  0  0  0  0  0  0  0  0  0  0  0
   -6.7400   -3.7140   13.5797 C   0  0  0  0  0  0  0  0  0  0  0  0
   -5.8083   -4.7986   13.4387 N   0  0  0  0  0  0  0  0  0  0  0  0
   -2.3542   -4.8720   15.8346 C   0  0  0  0  0  0  0  0  0  0  0  0
   -3.5848   -5.1781   16.3992 C   0  0  0  0  0  0  0  0  0  0  0  0
   -4.7254   -5.1605   15.6057 C   0  0  0  0  0  0  0  0  0  0  0  0
   -4.6362   -4.8253   14.2561 C   0  0  0  0  0  0  0  0  0  0  0  0
   -3.4086   -4.5104   13.7001 C   0  0  0  0  0  0  0  0  0  0  0  0
   -2.2661   -4.5388   14.4908 C   0  0  0  0  0  0  0  0  0  0  0  0
  1  2  1  0  0  0  0
  2  3  2  0  0  0  0
  2 20  1  0  0  0  0
  4  6  1  0  0  0  0
  5  6  2  0  0  0  0
  5 16  1  0  0  0  0
  6  7  1  0  0  0  0
  7  8  1  0  0  0  0
  8  9  1  0  0  0  0
  8 10  2  0  0  0  0
  9 12  1  0  0  0  0
  9 16  2  0  0  0  0
 11 13  1  0  0  0  0
 11 12  1  0  0  0  0
 12 14  1  0  0  0  0
 14 15  1  0  0  0  0
 14 18  1  1  0  0  0
 15 17  1  0  0  0  0
 16 17  1  0  0  0  0
 18 19  1  0  0  0  0
 19 23  1  0  0  0  0
 20 21  2  0  0  0  0
 20 25  1  0  0  0  0
 21 22  1  0  0  0  0
 22 23  2  0  0  0  0
 23 24  1  0  0  0  0
 24 25  2  0  0  0  0
M  END
>  <CHROM.1>
-80.24055057,55.77538614,112.90915496,74.36238217,-169.17983945,-4.78804572
-4.48292245,12.60573475,-0.72062656,0.53355250,-1.98085785

>  <Name>
ligand

>  <RI>
0

>  <Rbt.Current_Directory>
/home/itssahil/PROJECTS/Mol_Feturizer/New_Systems/rnas/4LVV

>  <Rbt.Executable>
rbdock ($Id: //depot/dev/client3/rdock/2013.1/src/exe/rbdock.cxx#4 $)

>  <Rbt.Library>
libRbt.so (2013.1, Build901 2013/11/27)

>  <Rbt.Parameter_File>
/export/apps/rDock/src/rDock_2013.1_src/data/scripts/dock_solv.prm

>  <Rbt.Receptor>
prm/blind_docking_20.prm

>  <SCORE>
-3.73743

>  <SCORE.INTER>
-3.54351

>  <SCORE.INTER.CONST>
1

>  <SCORE.INTER.POLAR>
0

>  <SCORE.INTER.ROT>
5

>  <SCORE.INTER.SOLV>
12.5342

>  <SCORE.INTER.VDW>
-13.4737

>  <SCORE.INTER.norm>
-0.14174

>  <SCORE.INTRA>
-0.193926

>  <SCORE.INTRA.DIHEDRAL>
0.389298

>  <SCORE.INTRA.DIHEDRAL.0>
3.94806

>  <SCORE.INTRA.POLAR>
0

>  <SCORE.INTRA.POLAR.0>
0

>  <SCORE.INTRA.REPUL>
0

>  <SCORE.INTRA.REPUL.0>
0

>  <SCORE.INTRA.SOLV>
2.84736

>  <SCORE.INTRA.SOLV.lig_0>
-70.9803

>  <SCORE.INTRA.VDW>
-1.81225

>  <SCORE.INTRA.VDW.0>
-0.709409

>  <SCORE.INTRA.norm>
-0.00775703

>  <SCORE.RESTR>
0

>  <SCORE.RESTR.CAVITY>
0

>  <SCORE.RESTR.norm>
0

>  <SCORE.SYSTEM>
0

>  <SCORE.SYSTEM.CONST>
0

>  <SCORE.SYSTEM.DIHEDRAL>
0

>  <SCORE.SYSTEM.SOLV>
0

>  <SCORE.SYSTEM.norm>
0

>  <SCORE.heavy>
25

>  <SCORE.norm>
-0.149497

>  <RMSD>
23.534

$$$$
ligand
 OpenBabel11021811503D
libRbt.so/2013.1/901 2013/11/27
 25 27  0  0  0  0  0  0  0  0999 V2000
    1.3455   -3.2094   14.3411 N   0  0  0  0  0  0  0  0  0  0  0  0
    0.7048   -4.4859   14.2677 C   0  0  0  0  0  0  0  0  0  0  0  0
    1.3630   -5.5187   14.2838 O   0  0  0  0  0  0  0  0  0  0  0  0
   -7.2842   -4.4045    7.4585 N   0  0  0  0  0  0  0  0  0  0  0  0
   -7.5723   -3.3860    9.6137 N   0  0  0  0  0  0  0  0  0  0  0  0
   -7.3973   -4.5075    8.8772 C   0  0  0  0  0  0  0  0  0  0  0  0
   -7.3372   -5.7386    9.4682 N   0  0  0  0  0  0  0  0  0  0  0  0
   -7.4447   -5.8986   10.8118 C   0  0  0  0  0  0  0  0  0  0  0  0
   -7.6144   -4.7481   11.6187 C   0  0  0  0  0  0  0  0  0  0  0  0
   -7.3645   -7.1619   11.3491 O   0  0  0  0  0  0  0  0  0  0  0  0
   -8.5118   -5.7824   13.7689 C   0  0  0  0  0  0  0  0  0  0  0  0
   -7.7684   -4.7657   13.0642 N   0  0  0  0  0  0  0  0  0  0  0  0
   -9.3801   -5.5267   14.5962 O   0  0  0  0  0  0  0  0  0  0  0  0
   -7.2312   -3.6571   13.7306 C   0  0  2  0  0  0  0  0  0  0  0  0
   -7.8756   -2.3588   13.1804 C   0  0  0  0  0  0  0  0  0  0  0  0
   -7.6932   -3.4722   10.9762 C   0  0  0  0  0  0  0  0  0  0  0  0
   -7.8656   -2.2570   11.7769 N   0  0  0  0  0  0  0  0  0  0  0  0
   -5.7250   -3.6095   13.5710 C   0  0  0  0  0  0  0  0  0  0  0  0
   -4.9792   -4.7376   14.0561 N   0  0  0  0  0  0  0  0  0  0  0  0
   -0.7817   -4.5381   14.1885 C   0  0  0  0  0  0  0  0  0  0  0  0
   -1.4449   -4.2165   13.0122 C   0  0  0  0  0  0  0  0  0  0  0  0
   -2.8326   -4.2759   12.9706 C   0  0  0  0  0  0  0  0  0  0  0  0
   -3.5523   -4.6680   14.0975 C   0  0  0  0  0  0  0  0  0  0  0  0
   -2.8861   -4.9981   15.2648 C   0  0  0  0  0  0  0  0  0  0  0  0
   -1.4989   -4.9281   15.3102 C   0  0  0  0  0  0  0  0  0  0  0  0
  1  2  1  0  0  0  0
  2  3  2  0  0  0  0
  2 20  1  0  0  0  0
  4  6  1  0  0  0  0
  5  6  2  0  0  0  0
  5 16  1  0  0  0  0
  6  7  1  0  0  0  0
  7  8  1  0  0  0  0
  8  9  1  0  0  0  0
  8 10  2  0  0  0  0
  9 12  1  0  0  0  0
  9 16  2  0  0  0  0
 11 13  1  0  0  0  0
 11 12  1  0  0  0  0
 12 14  1  0  0  0  0
 14 15  1  0  0  0  0
 14 18  1  6  0  0  0
 15 17  1  0  0  0  0
 16 17  1  0  0  0  0
 18 19  1  0  0  0  0
 19 23  1  0  0  0  0
 20 21  2  0  0  0  0
 20 25  1  0  0  0  0
 21 22  1  0  0  0  0
 22 23  2  0  0  0  0
 23 24  1  0  0  0  0
 24 25  2  0  0  0  0
M  END
>  <CHROM.1>
-129.28228099,-59.35155257,-171.54578301,-50.96241366,74.85947388,-5.22378398
-4.53789247,12.62207895,-0.39246020,-0.02321875,-1.53966042

>  <Name>
ligand

>  <RI>
0

>  <Rbt.Current_Directory>
/home/itssahil/PROJECTS/Mol_Feturizer/New_Systems/rnas/4LVV

>  <Rbt.Executable>
rbdock ($Id: //depot/dev/client3/rdock/2013.1/src/exe/rbdock.cxx#4 $)

>  <Rbt.Library>
libRbt.so (2013.1, Build901 2013/11/27)

>  <Rbt.Parameter_File>
/export/apps/rDock/src/rDock_2013.1_src/data/scripts/dock_solv.prm

>  <Rbt.Receptor>
prm/blind_docking_20.prm

>  <SCORE>
-9.14407

>  <SCORE.INTER>
-8.59866

>  <SCORE.INTER.CONST>
1

>  <SCORE.INTER.POLAR>
0

>  <SCORE.INTER.ROT>
5

>  <SCORE.INTER.SOLV>
16.9144

>  <SCORE.INTER.VDW>
-18.3039

>  <SCORE.INTER.norm>
-0.343946

>  <SCORE.INTRA>
-1.24504

>  <SCORE.INTRA.DIHEDRAL>
-0.516329

>  <SCORE.INTRA.DIHEDRAL.0>
3.94806

>  <SCORE.INTRA.POLAR>
0

>  <SCORE.INTRA.POLAR.0>
0

>  <SCORE.INTRA.REPUL>
0

>  <SCORE.INTRA.REPUL.0>
0

>  <SCORE.INTRA.SOLV>
-0.138685

>  <SCORE.INTRA.SOLV.lig_0>
-70.9803

>  <SCORE.INTRA.VDW>
-0.91753

>  <SCORE.INTRA.VDW.0>
-0.709409

>  <SCORE.INTRA.norm>
-0.0498015

>  <SCORE.RESTR>
0.699628

>  <SCORE.RESTR.CAVITY>
0.699628

>  <SCORE.RESTR.norm>
0.0279851

>  <SCORE.SYSTEM>
0

>  <SCORE.SYSTEM.CONST>
0

>  <SCORE.SYSTEM.DIHEDRAL>
0

>  <SCORE.SYSTEM.SOLV>
0

>  <SCORE.SYSTEM.norm>
0

>  <SCORE.heavy>
25

>  <SCORE.norm>
-0.365763

>  <RMSD>
23.552

$$$$
ligand
 OpenBabel11021811503D
libRbt.so/2013.1/901 2013/11/27
 25 27  0  0  0  0  0  0  0  0999 V2000
    1.3368   -3.1678   14.3144 N   0  0  0  0  0  0  0  0  0  0  0  0
    0.7044   -4.4504   14.2970 C   0  0  0  0  0  0  0  0  0  0  0  0
    1.3685   -5.4770   14.3683 O   0  0  0  0  0  0  0  0  0  0  0  0
   -7.3686   -4.3496    7.4827 N   0  0  0  0  0  0  0  0  0  0  0  0
   -7.6293   -3.3553    9.6526 N   0  0  0  0  0  0  0  0  0  0  0  0
   -7.4628   -4.4684    8.9015 C   0  0  0  0  0  0  0  0  0  0  0  0
   -7.3936   -5.7059    9.4780 N   0  0  0  0  0  0  0  0  0  0  0  0
   -7.4831   -5.8809   10.8211 C   0  0  0  0  0  0  0  0  0  0  0  0
   -7.6433   -4.7396   11.6428 C   0  0  0  0  0  0  0  0  0  0  0  0
   -7.3945   -7.1500   11.3432 O   0  0  0  0  0  0  0  0  0  0  0  0
   -8.5110   -5.7987   13.7931 C   0  0  0  0  0  0  0  0  0  0  0  0
   -7.7781   -4.7734   13.0899 N   0  0  0  0  0  0  0  0  0  0  0  0
   -9.4481   -5.5570   14.5463 O   0  0  0  0  0  0  0  0  0  0  0  0
   -7.2333   -3.6716   13.7614 C   0  0  2  0  0  0  0  0  0  0  0  0
   -7.8863   -2.3680   13.2342 C   0  0  0  0  0  0  0  0  0  0  0  0
   -7.7320   -3.4568   11.0156 C   0  0  0  0  0  0  0  0  0  0  0  0
   -7.8950   -2.2507   11.8319 N   0  0  0  0  0  0  0  0  0  0  0  0
   -5.7294   -3.6204   13.5825 C   0  0  0  0  0  0  0  0  0  0  0  0
   -4.9757   -4.7514   14.0482 N   0  0  0  0  0  0  0  0  0  0  0  0
   -0.7810   -4.5158   14.2079 C   0  0  0  0  0  0  0  0  0  0  0  0
   -1.4384   -4.2131   13.0234 C   0  0  0  0  0  0  0  0  0  0  0  0
   -2.8253   -4.2844   12.9726 C   0  0  0  0  0  0  0  0  0  0  0  0
   -3.5498   -4.6695   14.0989 C   0  0  0  0  0  0  0  0  0  0  0  0
   -2.8893   -4.9808   15.2746 C   0  0  0  0  0  0  0  0  0  0  0  0
   -1.5030   -4.8988   15.3290 C   0  0  0  0  0  0  0  0  0  0  0  0
  1  2  1  0  0  0  0
  2  3  2  0  0  0  0
  2 20  1  0  0  0  0
  4  6  1  0  0  0  0
  5  6  2  0  0  0  0
  5 16  1  0  0  0  0
  6  7  1  0  0  0  0
  7  8  1  0  0  0  0
  8  9  1  0  0  0  0
  8 10  2  0  0  0  0
  9 12  1  0  0  0  0
  9 16  2  0  0  0  0
 11 13  1  0  0  0  0
 11 12  1  0  0  0  0
 12 14  1  0  0  0  0
 14 15  1  0  0  0  0
 14 18  1  6  0  0  0
 15 17  1  0  0  0  0
 16 17  1  0  0  0  0
 18 19  1  0  0  0  0
 19 23  1  0  0  0  0
 20 21  2  0  0  0  0
 20 25  1  0  0  0  0
 21 22  1  0  0  0  0
 22 23  2  0  0  0  0
 23 24  1  0  0  0  0
 24 25  2  0  0  0  0
M  END
>  <CHROM.1>
-122.63857007,-59.50800786,-170.19328925,-52.80625264,72.75925401,-5.24494531
-4.52635170,12.64024405,-0.39101093,-0.03163824,-1.52539552

>  <Name>
ligand

>  <RI>
0

>  <Rbt.Current_Directory>
/home/itssahil/PROJECTS/Mol_Feturizer/New_Systems/rnas/4LVV

>  <Rbt.Executable>
rbdock ($Id: //depot/dev/client3/rdock/2013.1/src/exe/rbdock.cxx#4 $)

>  <Rbt.Library>
libRbt.so (2013.1, Build901 2013/11/27)

>  <Rbt.Parameter_File>
/export/apps/rDock/src/rDock_2013.1_src/data/scripts/dock_solv.prm

>  <Rbt.Receptor>
prm/blind_docking_20.prm

>  <SCORE>
-9.13138

>  <SCORE.INTER>
-8.53354

>  <SCORE.INTER.CONST>
1

>  <SCORE.INTER.POLAR>
0

>  <SCORE.INTER.ROT>
5

>  <SCORE.INTER.SOLV>
17.0218

>  <SCORE.INTER.VDW>
-18.2963

>  <SCORE.INTER.norm>
-0.341342

>  <SCORE.INTRA>
-1.29528

>  <SCORE.INTRA.DIHEDRAL>
-0.551131

>  <SCORE.INTRA.DIHEDRAL.0>
3.94806

>  <SCORE.INTRA.POLAR>
0

>  <SCORE.INTRA.POLAR.0>
0

>  <SCORE.INTRA.REPUL>
0

>  <SCORE.INTRA.REPUL.0>
0

>  <SCORE.INTRA.SOLV>
-0.142016

>  <SCORE.INTRA.SOLV.lig_0>
-70.9803

>  <SCORE.INTRA.VDW>
-0.948709

>  <SCORE.INTRA.VDW.0>
-0.709409

>  <SCORE.INTRA.norm>
-0.0518113

>  <SCORE.RESTR>
0.697445

>  <SCORE.RESTR.CAVITY>
0.697445

>  <SCORE.RESTR.norm>
0.0278978

>  <SCORE.SYSTEM>
0

>  <SCORE.SYSTEM.CONST>
0

>  <SCORE.SYSTEM.DIHEDRAL>
0

>  <SCORE.SYSTEM.SOLV>
0

>  <SCORE.SYSTEM.norm>
0

>  <SCORE.heavy>
25

>  <SCORE.norm>
-0.365255

>  <RMSD>
23.559

$$$$
ligand
 OpenBabel11021811503D
libRbt.so/2013.1/901 2013/11/27
 25 27  0  0  0  0  0  0  0  0999 V2000
    1.2266   -4.8192   15.4861 N   0  0  0  0  0  0  0  0  0  0  0  0
    0.0540   -4.4635   16.2235 C   0  0  0  0  0  0  0  0  0  0  0  0
    0.1336   -4.1075   17.3927 O   0  0  0  0  0  0  0  0  0  0  0  0
   -7.6937   -3.9442    7.4563 N   0  0  0  0  0  0  0  0  0  0  0  0
   -7.8812   -3.0837    9.6901 N   0  0  0  0  0  0  0  0  0  0  0  0
   -7.7228   -4.1471    8.8685 C   0  0  0  0  0  0  0  0  0  0  0  0
   -7.6004   -5.4136    9.3677 N   0  0  0  0  0  0  0  0  0  0  0  0
   -7.6268   -5.6682   10.7007 C   0  0  0  0  0  0  0  0  0  0  0  0
   -7.7765   -4.5806   11.5942 C   0  0  0  0  0  0  0  0  0  0  0  0
   -7.4867   -6.9626   11.1431 O   0  0  0  0  0  0  0  0  0  0  0  0
   -8.5248   -5.7836   13.7135 C   0  0  0  0  0  0  0  0  0  0  0  0
   -7.8468   -4.7013   13.0413 N   0  0  0  0  0  0  0  0  0  0  0  0
   -9.4529   -5.6110   14.4962 O   0  0  0  0  0  0  0  0  0  0  0  0
   -7.2980   -3.6268   13.7526 C   0  0  2  0  0  0  0  0  0  0  0  0
   -8.0028   -2.3118   13.3312 C   0  0  0  0  0  0  0  0  0  0  0  0
   -7.9216   -3.2663   11.0478 C   0  0  0  0  0  0  0  0  0  0  0  0
   -8.0758   -2.1139   11.9399 N   0  0  0  0  0  0  0  0  0  0  0  0
   -5.8050   -3.5276   13.5131 C   0  0  0  0  0  0  0  0  0  0  0  0
   -5.0337   -4.7280   13.6815 N   0  0  0  0  0  0  0  0  0  0  0  0
   -1.2673   -4.5171   15.5380 C   0  0  0  0  0  0  0  0  0  0  0  0
   -1.4043   -4.1035   14.2200 C   0  0  0  0  0  0  0  0  0  0  0  0
   -2.6506   -4.1669   13.6087 C   0  0  0  0  0  0  0  0  0  0  0  0
   -3.7520   -4.6542   14.3095 C   0  0  0  0  0  0  0  0  0  0  0  0
   -3.6083   -5.0755   15.6199 C   0  0  0  0  0  0  0  0  0  0  0  0
   -2.3644   -5.0019   16.2352 C   0  0  0  0  0  0  0  0  0  0  0  0
  1  2  1  0  0  0  0
  2  3  2  0  0  0  0
  2 20  1  0  0  0  0
  4  6  1  0  0  0  0
  5  6  2  0  0  0  0
  5 16  1  0  0  0  0
  6  7  1  0  0  0  0
  7  8  1  0  0  0  0
  8  9  1  0  0  0  0
  8 10  2  0  0  0  0
  9 12  1  0  0  0  0
  9 16  2  0  0  0  0
 11 13  1  0  0  0  0
 11 12  1  0  0  0  0
 12 14  1  0  0  0  0
 14 15  1  0  0  0  0
 14 18  1  6  0  0  0
 15 17  1  0  0  0  0
 16 17  1  0  0  0  0
 18 19  1  0  0  0  0
 19 23  1  0  0  0  0
 20 21  2  0  0  0  0
 20 25  1  0  0  0  0
 21 22  1  0  0  0  0
 22 23  2  0  0  0  0
 23 24  1  0  0  0  0
 24 25  2  0  0  0  0
M  END
>  <CHROM.1>
-120.95873366,-50.11571012,-139.98080993,-76.57667227,-39.33653325,-5.49444060
-4.43151168,13.03304874,-0.61147174,-0.04879039,-1.47641940

>  <Name>
ligand

>  <RI>
0

>  <Rbt.Current_Directory>
/home/itssahil/PROJECTS/Mol_Feturizer/New_Systems/rnas/4LVV

>  <Rbt.Executable>
rbdock ($Id: //depot/dev/client3/rdock/2013.1/src/exe/rbdock.cxx#4 $)

>  <Rbt.Library>
libRbt.so (2013.1, Build901 2013/11/27)

>  <Rbt.Parameter_File>
/export/apps/rDock/src/rDock_2013.1_src/data/scripts/dock_solv.prm

>  <Rbt.Receptor>
prm/blind_docking_20.prm

>  <SCORE>
-8.45427

>  <SCORE.INTER>
-8.31581

>  <SCORE.INTER.CONST>
1

>  <SCORE.INTER.POLAR>
0

>  <SCORE.INTER.ROT>
5

>  <SCORE.INTER.SOLV>
16.9859

>  <SCORE.INTER.VDW>
-18.1392

>  <SCORE.INTER.norm>
-0.332632

>  <SCORE.INTRA>
-0.722221

>  <SCORE.INTRA.DIHEDRAL>
0.617325

>  <SCORE.INTRA.DIHEDRAL.0>
3.94806

>  <SCORE.INTRA.POLAR>
0

>  <SCORE.INTRA.POLAR.0>
0

>  <SCORE.INTRA.REPUL>
0

>  <SCORE.INTRA.REPUL.0>
0

>  <SCORE.INTRA.SOLV>
0.0874763

>  <SCORE.INTRA.SOLV.lig_0>
-70.9803

>  <SCORE.INTRA.VDW>
-1.07462

>  <SCORE.INTRA.VDW.0>
-0.709409

>  <SCORE.INTRA.norm>
-0.0288889

>  <SCORE.RESTR>
0.583765

>  <SCORE.RESTR.CAVITY>
0.583765

>  <SCORE.RESTR.norm>
0.0233506

>  <SCORE.SYSTEM>
0

>  <SCORE.SYSTEM.CONST>
0

>  <SCORE.SYSTEM.DIHEDRAL>
0

>  <SCORE.SYSTEM.SOLV>
0

>  <SCORE.SYSTEM.norm>
0

>  <SCORE.heavy>
25

>  <SCORE.norm>
-0.338171

>  <RMSD>
23.579

$$$$
ligand
 OpenBabel11021811503D
libRbt.so/2013.1/901 2013/11/27
 25 27  0  0  0  0  0  0  0  0999 V2000
   -1.3008   -5.6187   17.8725 N   0  0  0  0  0  0  0  0  0  0  0  0
   -1.2642   -4.9139   16.6286 C   0  0  0  0  0  0  0  0  0  0  0  0
   -0.2415   -4.3514   16.2574 O   0  0  0  0  0  0  0  0  0  0  0  0
   -3.0734   -6.8980    9.4009 N   0  0  0  0  0  0  0  0  0  0  0  0
   -3.7741   -4.8791   10.4956 N   0  0  0  0  0  0  0  0  0  0  0  0
   -4.1039   -6.0052    9.8218 C   0  0  0  0  0  0  0  0  0  0  0  0
   -5.4066   -6.2971    9.5285 N   0  0  0  0  0  0  0  0  0  0  0  0
   -6.4280   -5.4829    9.8977 C   0  0  0  0  0  0  0  0  0  0  0  0
   -6.1255   -4.3019   10.6170 C   0  0  0  0  0  0  0  0  0  0  0  0
   -7.7194   -5.8364    9.5842 O   0  0  0  0  0  0  0  0  0  0  0  0
   -8.2611   -2.9537   10.2705 C   0  0  0  0  0  0  0  0  0  0  0  0
   -7.1086   -3.3249   11.0558 N   0  0  0  0  0  0  0  0  0  0  0  0
   -9.1928   -3.7179   10.0433 O   0  0  0  0  0  0  0  0  0  0  0  0
   -6.8041   -2.6783   12.2604 C   0  0  2  0  0  0  0  0  0  0  0  0
   -5.4281   -1.9748   12.1380 C   0  0  0  0  0  0  0  0  0  0  0  0
   -4.7535   -4.0079   10.8960 C   0  0  0  0  0  0  0  0  0  0  0  0
   -4.3995   -2.7965   11.6408 N   0  0  0  0  0  0  0  0  0  0  0  0
   -6.7954   -3.6617   13.4133 C   0  0  0  0  0  0  0  0  0  0  0  0
   -5.8934   -4.7758   13.3168 N   0  0  0  0  0  0  0  0  0  0  0  0
   -2.4896   -4.8903   15.7820 C   0  0  0  0  0  0  0  0  0  0  0  0
   -3.7362   -5.1720   16.3237 C   0  0  0  0  0  0  0  0  0  0  0  0
   -4.8603   -5.1408   15.5074 C   0  0  0  0  0  0  0  0  0  0  0  0
   -4.7385   -4.8164   14.1577 C   0  0  0  0  0  0  0  0  0  0  0  0
   -3.4949   -4.5257   13.6245 C   0  0  0  0  0  0  0  0  0  0  0  0
   -2.3691   -4.5677   14.4381 C   0  0  0  0  0  0  0  0  0  0  0  0
  1  2  1  0  0  0  0
  2  3  2  0  0  0  0
  2 20  1  0  0  0  0
  4  6  1  0  0  0  0
  5  6  2  0  0  0  0
  5 16  1  0  0  0  0
  6  7  1  0  0  0  0
  7  8  1  0  0  0  0
  8  9  1  0  0  0  0
  8 10  2  0  0  0  0
  9 12  1  0  0  0  0
  9 16  2  0  0  0  0
 11 13  1  0  0  0  0
 11 12  1  0  0  0  0
 12 14  1  0  0  0  0
 14 15  1  0  0  0  0
 14 18  1  1  0  0  0
 15 17  1  0  0  0  0
 16 17  1  0  0  0  0
 18 19  1  0  0  0  0
 19 23  1  0  0  0  0
 20 21  2  0  0  0  0
 20 25  1  0  0  0  0
 21 22  1  0  0  0  0
 22 23  2  0  0  0  0
 23 24  1  0  0  0  0
 24 25  2  0  0  0  0
M  END
>  <CHROM.1>
68.08395446,57.94131200,108.59834785,75.58859946,19.36108263,-4.85143033
-4.52739832,12.53381351,0.75660959,-0.48851896,1.19645852

>  <Name>
ligand

>  <RI>
0

>  <Rbt.Current_Directory>
/home/itssahil/PROJECTS/Mol_Feturizer/New_Systems/rnas/4LVV

>  <Rbt.Executable>
rbdock ($Id: //depot/dev/client3/rdock/2013.1/src/exe/rbdock.cxx#4 $)

>  <Rbt.Library>
libRbt.so (2013.1, Build901 2013/11/27)

>  <Rbt.Parameter_File>
/export/apps/rDock/src/rDock_2013.1_src/data/scripts/dock_solv.prm

>  <Rbt.Receptor>
prm/blind_docking_20.prm

>  <SCORE>
-2.8858

>  <SCORE.INTER>
-3.20612

>  <SCORE.INTER.CONST>
1

>  <SCORE.INTER.POLAR>
0

>  <SCORE.INTER.ROT>
5

>  <SCORE.INTER.SOLV>
13.1439

>  <SCORE.INTER.VDW>
-13.452

>  <SCORE.INTER.norm>
-0.128245

>  <SCORE.INTRA>
0.317504

>  <SCORE.INTRA.DIHEDRAL>
0.442725

>  <SCORE.INTRA.DIHEDRAL.0>
3.94806

>  <SCORE.INTRA.POLAR>
0

>  <SCORE.INTRA.POLAR.0>
0

>  <SCORE.INTRA.REPUL>
0

>  <SCORE.INTRA.REPUL.0>
0

>  <SCORE.INTRA.SOLV>
3.2238

>  <SCORE.INTRA.SOLV.lig_0>
-70.9803

>  <SCORE.INTRA.VDW>
-1.51576

>  <SCORE.INTRA.VDW.0>
-0.709409

>  <SCORE.INTRA.norm>
0.0127001

>  <SCORE.RESTR>
0.00281768

>  <SCORE.RESTR.CAVITY>
0.00281768

>  <SCORE.RESTR.norm>
0.000112707

>  <SCORE.SYSTEM>
0

>  <SCORE.SYSTEM.CONST>
0

>  <SCORE.SYSTEM.DIHEDRAL>
0

>  <SCORE.SYSTEM.SOLV>
0

>  <SCORE.SYSTEM.norm>
0

>  <SCORE.heavy>
25

>  <SCORE.norm>
-0.115432

>  <RMSD>
23.580

$$$$
ligand
 OpenBabel11021811503D
libRbt.so/2013.1/901 2013/11/27
 25 27  0  0  0  0  0  0  0  0999 V2000
   -1.2358   -5.6664   17.7692 N   0  0  0  0  0  0  0  0  0  0  0  0
   -1.2537   -4.8764   16.5772 C   0  0  0  0  0  0  0  0  0  0  0  0
   -0.2678   -4.2344   16.2366 O   0  0  0  0  0  0  0  0  0  0  0  0
   -3.1130   -6.8378    9.3589 N   0  0  0  0  0  0  0  0  0  0  0  0
   -3.8092   -4.8400   10.4945 N   0  0  0  0  0  0  0  0  0  0  0  0
   -4.1413   -5.9501    9.7958 C   0  0  0  0  0  0  0  0  0  0  0  0
   -5.4443   -6.2305    9.4923 N   0  0  0  0  0  0  0  0  0  0  0  0
   -6.4636   -5.4203    9.8758 C   0  0  0  0  0  0  0  0  0  0  0  0
   -6.1587   -4.2562   10.6211 C   0  0  0  0  0  0  0  0  0  0  0  0
   -7.7554   -5.7618    9.5509 O   0  0  0  0  0  0  0  0  0  0  0  0
   -8.2879   -2.8923   10.2972 C   0  0  0  0  0  0  0  0  0  0  0  0
   -7.1393   -3.2849   11.0779 N   0  0  0  0  0  0  0  0  0  0  0  0
   -9.2174   -3.6506   10.0428 O   0  0  0  0  0  0  0  0  0  0  0  0
   -6.8361   -2.6655   12.2970 C   0  0  2  0  0  0  0  0  0  0  0  0
   -5.4568   -1.9650   12.1939 C   0  0  0  0  0  0  0  0  0  0  0  0
   -4.7864   -3.9738   10.9106 C   0  0  0  0  0  0  0  0  0  0  0  0
   -4.4300   -2.7800   11.6823 N   0  0  0  0  0  0  0  0  0  0  0  0
   -6.8348   -3.6735   13.4285 C   0  0  0  0  0  0  0  0  0  0  0  0
   -5.9226   -4.7782   13.3203 N   0  0  0  0  0  0  0  0  0  0  0  0
   -2.4896   -4.8614   15.7460 C   0  0  0  0  0  0  0  0  0  0  0  0
   -3.7373   -5.0639   16.3195 C   0  0  0  0  0  0  0  0  0  0  0  0
   -4.8713   -5.0431   15.5167 C   0  0  0  0  0  0  0  0  0  0  0  0
   -4.7578   -4.8079   14.1479 C   0  0  0  0  0  0  0  0  0  0  0  0
   -3.5126   -4.5959   13.5823 C   0  0  0  0  0  0  0  0  0  0  0  0
   -2.3773   -4.6276   14.3831 C   0  0  0  0  0  0  0  0  0  0  0  0
  1  2  1  0  0  0  0
  2  3  2  0  0  0  0
  2 20  1  0  0  0  0
  4  6  1  0  0  0  0
  5  6  2  0  0  0  0
  5 16  1  0  0  0  0
  6  7  1  0  0  0  0
  7  8  1  0  0  0  0
  8  9  1  0  0  0  0
  8 10  2  0  0  0  0
  9 12  1  0  0  0  0
  9 16  2  0  0  0  0
 11 13  1  0  0  0  0
 11 12  1  0  0  0  0
 12 14  1  0  0  0  0
 14 15  1  0  0  0  0
 14 18  1  1  0  0  0
 15 17  1  0  0  0  0
 16 17  1  0  0  0  0
 18 19  1  0  0  0  0
 19 23  1  0  0  0  0
 20 21  2  0  0  0  0
 20 25  1  0  0  0  0
 21 22  1  0  0  0  0
 22 23  2  0  0  0  0
 23 24  1  0  0  0  0
 24 25  2  0  0  0  0
M  END
>  <CHROM.1>
67.54625037,58.84417647,106.75131744,71.09290318,28.51946974,-4.87334386
-4.49218752,12.52401149,0.75060692,-0.48322893,1.19806050

>  <Name>
ligand

>  <RI>
0

>  <Rbt.Current_Directory>
/home/itssahil/PROJECTS/Mol_Feturizer/New_Systems/rnas/4LVV

>  <Rbt.Executable>
rbdock ($Id: //depot/dev/client3/rdock/2013.1/src/exe/rbdock.cxx#4 $)

>  <Rbt.Library>
libRbt.so (2013.1, Build901 2013/11/27)

>  <Rbt.Parameter_File>
/export/apps/rDock/src/rDock_2013.1_src/data/scripts/dock_solv.prm

>  <Rbt.Receptor>
prm/blind_docking_20.prm

>  <SCORE>
-2.85266

>  <SCORE.INTER>
-3.08664

>  <SCORE.INTER.CONST>
1

>  <SCORE.INTER.POLAR>
0

>  <SCORE.INTER.ROT>
5

>  <SCORE.INTER.SOLV>
13.1972

>  <SCORE.INTER.VDW>
-13.3902

>  <SCORE.INTER.norm>
-0.123466

>  <SCORE.INTRA>
0.233986

>  <SCORE.INTRA.DIHEDRAL>
0.389145

>  <SCORE.INTRA.DIHEDRAL.0>
3.94806

>  <SCORE.INTRA.POLAR>
0

>  <SCORE.INTRA.POLAR.0>
0

>  <SCORE.INTRA.REPUL>
0

>  <SCORE.INTRA.REPUL.0>
0

>  <SCORE.INTRA.SOLV>
3.23222

>  <SCORE.INTRA.SOLV.lig_0>
-70.9803

>  <SCORE.INTRA.VDW>
-1.5767

>  <SCORE.INTRA.VDW.0>
-0.709409

>  <SCORE.INTRA.norm>
0.00935942

>  <SCORE.RESTR>
0

>  <SCORE.RESTR.CAVITY>
0

>  <SCORE.RESTR.norm>
0

>  <SCORE.SYSTEM>
0

>  <SCORE.SYSTEM.CONST>
0

>  <SCORE.SYSTEM.DIHEDRAL>
0

>  <SCORE.SYSTEM.SOLV>
0

>  <SCORE.SYSTEM.norm>
0

>  <SCORE.heavy>
25

>  <SCORE.norm>
-0.114106

>  <RMSD>
23.615

$$$$
ligand
 OpenBabel11021811503D
libRbt.so/2013.1/901 2013/11/27
 25 27  0  0  0  0  0  0  0  0999 V2000
   -9.4133   -2.5793    8.6607 N   0  0  0  0  0  0  0  0  0  0  0  0
   -8.2686   -3.3969    8.9189 C   0  0  0  0  0  0  0  0  0  0  0  0
   -7.7226   -4.0139    8.0127 O   0  0  0  0  0  0  0  0  0  0  0  0
    1.4608   -3.5402   14.6498 N   0  0  0  0  0  0  0  0  0  0  0  0
   -0.5566   -4.5668   13.8489 N   0  0  0  0  0  0  0  0  0  0  0  0
    0.1747   -4.1092   14.8913 C   0  0  0  0  0  0  0  0  0  0  0  0
   -0.2932   -4.1921   16.1730 N   0  0  0  0  0  0  0  0  0  0  0  0
   -1.5057   -4.7285   16.4639 C   0  0  0  0  0  0  0  0  0  0  0  0
   -2.3074   -5.2055   15.3994 C   0  0  0  0  0  0  0  0  0  0  0  0
   -1.9270   -4.7732   17.7722 O   0  0  0  0  0  0  0  0  0  0  0  0
   -3.9392   -6.7134   16.6491 C   0  0  0  0  0  0  0  0  0  0  0  0
   -3.6126   -5.8257   15.5591 N   0  0  0  0  0  0  0  0  0  0  0  0
   -3.0939   -7.3287   17.2900 O   0  0  0  0  0  0  0  0  0  0  0  0
   -4.5133   -5.5879   14.5132 C   0  0  2  0  0  0  0  0  0  0  0  0
   -3.8956   -6.0726   13.1764 C   0  0  0  0  0  0  0  0  0  0  0  0
   -1.7888   -5.1254   14.0684 C   0  0  0  0  0  0  0  0  0  0  0  0
   -2.5895   -5.6058   12.9389 N   0  0  0  0  0  0  0  0  0  0  0  0
   -4.8674   -4.1168   14.4303 C   0  0  0  0  0  0  0  0  0  0  0  0
   -6.2511   -3.7868   14.2287 N   0  0  0  0  0  0  0  0  0  0  0  0
   -7.7403   -3.4714   10.3096 C   0  0  0  0  0  0  0  0  0  0  0  0
   -7.7170   -2.3482   11.1248 C   0  0  0  0  0  0  0  0  0  0  0  0
   -7.2184   -2.4510   12.4178 C   0  0  0  0  0  0  0  0  0  0  0  0
   -6.7574   -3.6756   12.8968 C   0  0  0  0  0  0  0  0  0  0  0  0
   -6.7926   -4.7952   12.0839 C   0  0  0  0  0  0  0  0  0  0  0  0
   -7.2808   -4.6903   10.7871 C   0  0  0  0  0  0  0  0  0  0  0  0
  1  2  1  0  0  0  0
  2  3  2  0  0  0  0
  2 20  1  0  0  0  0
  4  6  1  0  0  0  0
  5  6  2  0  0  0  0
  5 16  1  0  0  0  0
  6  7  1  0  0  0  0
  7  8  1  0  0  0  0
  8  9  1  0  0  0  0
  8 10  2  0  0  0  0
  9 12  1  0  0  0  0
  9 16  2  0  0  0  0
 11 13  1  0  0  0  0
 11 12  1  0  0  0  0
 12 14  1  0  0  0  0
 14 15  1  0  0  0  0
 14 18  1  6  0  0  0
 15 17  1  0  0  0  0
 16 17  1  0  0  0  0
 18 19  1  0  0  0  0
 19 23  1  0  0  0  0
 20 21  2  0  0  0  0
 20 25  1  0  0  0  0
 21 22  1  0  0  0  0
 22 23  2  0  0  0  0
 23 24  1  0  0  0  0
 24 25  2  0  0  0  0
M  END
>  <CHROM.1>
-22.26484016,-136.25402382,-88.97066132,-115.26634285,-38.29769604,-4.27764800
-4.55400866,13.55748348,-2.40450830,0.14490256,2.00291243

>  <Name>
ligand

>  <RI>
0

>  <Rbt.Current_Directory>
/home/itssahil/PROJECTS/Mol_Feturizer/New_Systems/rnas/4LVV

>  <Rbt.Executable>
rbdock ($Id: //depot/dev/client3/rdock/2013.1/src/exe/rbdock.cxx#4 $)

>  <Rbt.Library>
libRbt.so (2013.1, Build901 2013/11/27)

>  <Rbt.Parameter_File>
/export/apps/rDock/src/rDock_2013.1_src/data/scripts/dock_solv.prm

>  <Rbt.Receptor>
prm/blind_docking_20.prm

>  <SCORE>
-3.38363

>  <SCORE.INTER>
-4.18218

>  <SCORE.INTER.CONST>
1

>  <SCORE.INTER.POLAR>
0

>  <SCORE.INTER.ROT>
5

>  <SCORE.INTER.SOLV>
10.5274

>  <SCORE.INTER.VDW>
-13.2306

>  <SCORE.INTER.norm>
-0.167287

>  <SCORE.INTRA>
0.798545

>  <SCORE.INTRA.DIHEDRAL>
4.43962

>  <SCORE.INTRA.DIHEDRAL.0>
3.94806

>  <SCORE.INTRA.POLAR>
0

>  <SCORE.INTRA.POLAR.0>
0

>  <SCORE.INTRA.REPUL>
0

>  <SCORE.INTRA.REPUL.0>
0

>  <SCORE.INTRA.SOLV>
-0.486849

>  <SCORE.INTRA.SOLV.lig_0>
-70.9803

>  <SCORE.INTRA.VDW>
-1.17784

>  <SCORE.INTRA.VDW.0>
-0.709409

>  <SCORE.INTRA.norm>
0.0319418

>  <SCORE.RESTR>
0

>  <SCORE.RESTR.CAVITY>
0

>  <SCORE.RESTR.norm>
0

>  <SCORE.SYSTEM>
0

>  <SCORE.SYSTEM.CONST>
0

>  <SCORE.SYSTEM.DIHEDRAL>
0

>  <SCORE.SYSTEM.SOLV>
0

>  <SCORE.SYSTEM.norm>
0

>  <SCORE.heavy>
25

>  <SCORE.norm>
-0.135345

>  <RMSD>
23.691

$$$$
ligand
 OpenBabel11021811503D
libRbt.so/2013.1/901 2013/11/27
 25 27  0  0  0  0  0  0  0  0999 V2000
   -3.2411   -3.6848   27.4036 N   0  0  0  0  0  0  0  0  0  0  0  0
   -3.1806   -2.2678   27.5876 C   0  0  0  0  0  0  0  0  0  0  0  0
   -2.4688   -1.5734   26.8726 O   0  0  0  0  0  0  0  0  0  0  0  0
  -11.8510   -1.5568   27.2195 N   0  0  0  0  0  0  0  0  0  0  0  0
  -11.1069   -1.7078   29.4974 N   0  0  0  0  0  0  0  0  0  0  0  0
  -10.8266   -1.8170   28.1782 C   0  0  0  0  0  0  0  0  0  0  0  0
   -9.5815   -2.1822   27.7483 N   0  0  0  0  0  0  0  0  0  0  0  0
   -8.5699   -2.4479   28.6135 C   0  0  0  0  0  0  0  0  0  0  0  0
   -8.8190   -2.3309   30.0019 C   0  0  0  0  0  0  0  0  0  0  0  0
   -7.3353   -2.7991   28.1201 O   0  0  0  0  0  0  0  0  0  0  0  0
   -6.8821   -3.6796   30.9651 C   0  0  0  0  0  0  0  0  0  0  0  0
   -7.8438   -2.6065   31.0443 N   0  0  0  0  0  0  0  0  0  0  0  0
   -7.0587   -4.6909   30.2943 O   0  0  0  0  0  0  0  0  0  0  0  0
   -7.9691   -1.8189   32.1958 C   0  0  2  0  0  0  0  0  0  0  0  0
   -9.3906   -1.9917   32.7901 C   0  0  0  0  0  0  0  0  0  0  0  0
  -10.1348   -1.9656   30.4286 C   0  0  0  0  0  0  0  0  0  0  0  0
  -10.4319   -1.8311   31.8573 N   0  0  0  0  0  0  0  0  0  0  0  0
   -7.6992   -0.3608   31.8840 C   0  0  0  0  0  0  0  0  0  0  0  0
   -6.3255    0.0342   31.7381 N   0  0  0  0  0  0  0  0  0  0  0  0
   -4.0137   -1.6476   28.6553 C   0  0  0  0  0  0  0  0  0  0  0  0
   -5.0393   -0.7674   28.3388 C   0  0  0  0  0  0  0  0  0  0  0  0
   -5.7989   -0.2063   29.3581 C   0  0  0  0  0  0  0  0  0  0  0  0
   -5.5413   -0.5350   30.6875 C   0  0  0  0  0  0  0  0  0  0  0  0
   -4.5247   -1.4215   30.9976 C   0  0  0  0  0  0  0  0  0  0  0  0
   -3.7576   -1.9742   29.9791 C   0  0  0  0  0  0  0  0  0  0  0  0
  1  2  1  0  0  0  0
  2  3  2  0  0  0  0
  2 20  1  0  0  0  0
  4  6  1  0  0  0  0
  5  6  2  0  0  0  0
  5 16  1  0  0  0  0
  6  7  1  0  0  0  0
  7  8  1  0  0  0  0
  8  9  1  0  0  0  0
  8 10  2  0  0  0  0
  9 12  1  0  0  0  0
  9 16  2  0  0  0  0
 11 13  1  0  0  0  0
 11 12  1  0  0  0  0
 12 14  1  0  0  0  0
 14 15  1  0  0  0  0
 14 18  1  6  0  0  0
 15 17  1  0  0  0  0
 16 17  1  0  0  0  0
 18 19  1  0  0  0  0
 19 23  1  0  0  0  0
 20 21  2  0  0  0  0
 20 25  1  0  0  0  0
 21 22  1  0  0  0  0
 22 23  2  0  0  0  0
 23 24  1  0  0  0  0
 24 25  2  0  0  0  0
M  END
>  <CHROM.1>
-25.28331550,-77.73101124,62.56992618,69.55118782,-115.22769064,-7.19784880
-1.95534163,29.69157619,0.24425514,-0.04012633,-1.75248255

>  <Name>
ligand

>  <RI>
0

>  <Rbt.Current_Directory>
/home/itssahil/PROJECTS/Mol_Feturizer/New_Systems/rnas/4LVV

>  <Rbt.Executable>
rbdock ($Id: //depot/dev/client3/rdock/2013.1/src/exe/rbdock.cxx#4 $)

>  <Rbt.Library>
libRbt.so (2013.1, Build901 2013/11/27)

>  <Rbt.Parameter_File>
/export/apps/rDock/src/rDock_2013.1_src/data/scripts/dock_solv.prm

>  <Rbt.Receptor>
prm/blind_docking_80.prm

>  <SCORE>
-11.116

>  <SCORE.INTER>
-8.20748

>  <SCORE.INTER.CONST>
1

>  <SCORE.INTER.POLAR>
0

>  <SCORE.INTER.ROT>
5

>  <SCORE.INTER.SOLV>
11.8794

>  <SCORE.INTER.VDW>
-16.3648

>  <SCORE.INTER.norm>
-0.328299

>  <SCORE.INTRA>
-2.90855

>  <SCORE.INTRA.DIHEDRAL>
0.520933

>  <SCORE.INTRA.DIHEDRAL.0>
3.94806

>  <SCORE.INTRA.POLAR>
0

>  <SCORE.INTRA.POLAR.0>
0

>  <SCORE.INTRA.REPUL>
0

>  <SCORE.INTRA.REPUL.0>
0

>  <SCORE.INTRA.SOLV>
0.449097

>  <SCORE.INTRA.SOLV.lig_0>
-70.9803

>  <SCORE.INTRA.VDW>
-3.39357

>  <SCORE.INTRA.VDW.0>
-0.709409

>  <SCORE.INTRA.norm>
-0.116342

>  <SCORE.RESTR>
0

>  <SCORE.RESTR.CAVITY>
0

>  <SCORE.RESTR.norm>
0

>  <SCORE.SYSTEM>
0

>  <SCORE.SYSTEM.CONST>
0

>  <SCORE.SYSTEM.DIHEDRAL>
0

>  <SCORE.SYSTEM.SOLV>
0

>  <SCORE.SYSTEM.norm>
0

>  <SCORE.heavy>
25

>  <SCORE.norm>
-0.444641

>  <RMSD>
23.718

$$$$
ligand
 OpenBabel11021811503D
libRbt.so/2013.1/901 2013/11/27
 25 27  0  0  0  0  0  0  0  0999 V2000
   -5.3274   -6.7375   25.8212 N   0  0  0  0  0  0  0  0  0  0  0  0
   -5.1629   -6.0783   27.0797 C   0  0  0  0  0  0  0  0  0  0  0  0
   -5.0616   -6.7234   28.1159 O   0  0  0  0  0  0  0  0  0  0  0  0
  -12.0127   -1.4483   27.1136 N   0  0  0  0  0  0  0  0  0  0  0  0
  -10.3053    0.2273   26.9078 N   0  0  0  0  0  0  0  0  0  0  0  0
  -10.7803   -0.8700   27.5412 C   0  0  0  0  0  0  0  0  0  0  0  0
  -10.1048   -1.4279   28.5904 N   0  0  0  0  0  0  0  0  0  0  0  0
   -8.9317   -0.9181   29.0447 C   0  0  0  0  0  0  0  0  0  0  0  0
   -8.3941    0.2212   28.3993 C   0  0  0  0  0  0  0  0  0  0  0  0
   -8.2925   -1.5309   30.0968 O   0  0  0  0  0  0  0  0  0  0  0  0
   -6.7551    1.0588   30.1629 C   0  0  0  0  0  0  0  0  0  0  0  0
   -7.1637    0.8903   28.7891 N   0  0  0  0  0  0  0  0  0  0  0  0
   -5.9959    0.2856   30.7370 O   0  0  0  0  0  0  0  0  0  0  0  0
   -6.4419    1.4639   27.7347 C   0  0  2  0  0  0  0  0  0  0  0  0
   -7.3403    2.4794   26.9830 C   0  0  0  0  0  0  0  0  0  0  0  0
   -9.1282    0.7989   27.3157 C   0  0  0  0  0  0  0  0  0  0  0  0
   -8.6037    1.9770   26.6198 N   0  0  0  0  0  0  0  0  0  0  0  0
   -5.9374    0.3977   26.7834 C   0  0  0  0  0  0  0  0  0  0  0  0
   -4.8233   -0.3967   27.2216 N   0  0  0  0  0  0  0  0  0  0  0  0
   -5.0994   -4.5904   27.1063 C   0  0  0  0  0  0  0  0  0  0  0  0
   -6.2423   -3.8244   26.9222 C   0  0  0  0  0  0  0  0  0  0  0  0
   -6.1498   -2.4383   26.9536 C   0  0  0  0  0  0  0  0  0  0  0  0
   -4.9209   -1.8220   27.1811 C   0  0  0  0  0  0  0  0  0  0  0  0
   -3.7860   -2.5900   27.3748 C   0  0  0  0  0  0  0  0  0  0  0  0
   -3.8762   -3.9762   27.3325 C   0  0  0  0  0  0  0  0  0  0  0  0
  1  2  1  0  0  0  0
  2  3  2  0  0  0  0
  2 20  1  0  0  0  0
  4  6  1  0  0  0  0
  5  6  2  0  0  0  0
  5 16  1  0  0  0  0
  6  7  1  0  0  0  0
  7  8  1  0  0  0  0
  8  9  1  0  0  0  0
  8 10  2  0  0  0  0
  9 12  1  0  0  0  0
  9 16  2  0  0  0  0
 11 13  1  0  0  0  0
 11 12  1  0  0  0  0
 12 14  1  0  0  0  0
 14 15  1  0  0  0  0
 14 18  1  6  0  0  0
 15 17  1  0  0  0  0
 16 17  1  0  0  0  0
 18 19  1  0  0  0  0
 19 23  1  0  0  0  0
 20 21  2  0  0  0  0
 20 25  1  0  0  0  0
 21 22  1  0  0  0  0
 22 23  2  0  0  0  0
 23 24  1  0  0  0  0
 24 25  2  0  0  0  0
M  END
>  <CHROM.1>
94.84020673,-74.76206415,127.60264978,-11.51600234,74.24442436,-7.08766383
-1.39058918,27.80960971,0.99612592,0.04782714,-2.96656643

>  <Name>
ligand

>  <RI>
0

>  <Rbt.Current_Directory>
/home/itssahil/PROJECTS/Mol_Feturizer/New_Systems/rnas/4LVV

>  <Rbt.Executable>
rbdock ($Id: //depot/dev/client3/rdock/2013.1/src/exe/rbdock.cxx#4 $)

>  <Rbt.Library>
libRbt.so (2013.1, Build901 2013/11/27)

>  <Rbt.Parameter_File>
/export/apps/rDock/src/rDock_2013.1_src/data/scripts/dock_solv.prm

>  <Rbt.Receptor>
prm/blind_docking_40.prm

>  <SCORE>
-9.70855

>  <SCORE.INTER>
-9.32549

>  <SCORE.INTER.CONST>
1

>  <SCORE.INTER.POLAR>
0

>  <SCORE.INTER.ROT>
5

>  <SCORE.INTER.SOLV>
12.44

>  <SCORE.INTER.VDW>
-17.297

>  <SCORE.INTER.norm>
-0.37302

>  <SCORE.INTRA>
-0.383056

>  <SCORE.INTRA.DIHEDRAL>
1.38493

>  <SCORE.INTRA.DIHEDRAL.0>
3.94806

>  <SCORE.INTRA.POLAR>
0

>  <SCORE.INTRA.POLAR.0>
0

>  <SCORE.INTRA.REPUL>
0

>  <SCORE.INTRA.REPUL.0>
0

>  <SCORE.INTRA.SOLV>
0.228207

>  <SCORE.INTRA.SOLV.lig_0>
-70.9803

>  <SCORE.INTRA.VDW>
-1.18962

>  <SCORE.INTRA.VDW.0>
-0.709409

>  <SCORE.INTRA.norm>
-0.0153222

>  <SCORE.RESTR>
0

>  <SCORE.RESTR.CAVITY>
0

>  <SCORE.RESTR.norm>
0

>  <SCORE.SYSTEM>
0

>  <SCORE.SYSTEM.CONST>
0

>  <SCORE.SYSTEM.DIHEDRAL>
0

>  <SCORE.SYSTEM.SOLV>
0

>  <SCORE.SYSTEM.norm>
0

>  <SCORE.heavy>
25

>  <SCORE.norm>
-0.388342

>  <RMSD>
23.720

$$$$
ligand
 OpenBabel11021811503D
libRbt.so/2013.1/901 2013/11/27
 25 27  0  0  0  0  0  0  0  0999 V2000
    1.4267   -5.3745   14.3159 N   0  0  0  0  0  0  0  0  0  0  0  0
    0.6243   -4.1956   14.2077 C   0  0  0  0  0  0  0  0  0  0  0  0
    1.1437   -3.0881   14.1451 O   0  0  0  0  0  0  0  0  0  0  0  0
   -7.6370   -4.0294    7.4405 N   0  0  0  0  0  0  0  0  0  0  0  0
   -7.8423   -3.1402    9.6614 N   0  0  0  0  0  0  0  0  0  0  0  0
   -7.6862   -4.2150    8.8544 C   0  0  0  0  0  0  0  0  0  0  0  0
   -7.5853   -5.4769    9.3701 N   0  0  0  0  0  0  0  0  0  0  0  0
   -7.6315   -5.7152   10.7056 C   0  0  0  0  0  0  0  0  0  0  0  0
   -7.7795   -4.6153   11.5842 C   0  0  0  0  0  0  0  0  0  0  0  0
   -7.5124   -7.0058   11.1649 O   0  0  0  0  0  0  0  0  0  0  0  0
   -8.5687   -5.7841   13.7078 C   0  0  0  0  0  0  0  0  0  0  0  0
   -7.8695   -4.7179   13.0316 N   0  0  0  0  0  0  0  0  0  0  0  0
   -9.4705   -5.5888   14.5155 O   0  0  0  0  0  0  0  0  0  0  0  0
   -7.3170   -3.6415   13.7371 C   0  0  2  0  0  0  0  0  0  0  0  0
   -8.0007   -2.3234   13.2913 C   0  0  0  0  0  0  0  0  0  0  0  0
   -7.9020   -3.3061   11.0206 C   0  0  0  0  0  0  0  0  0  0  0  0
   -8.0538   -2.1413   11.8969 N   0  0  0  0  0  0  0  0  0  0  0  0
   -5.8200   -3.5627   13.5156 C   0  0  0  0  0  0  0  0  0  0  0  0
   -5.0388   -4.7022   13.9100 N   0  0  0  0  0  0  0  0  0  0  0  0
   -0.8573   -4.3396   14.1548 C   0  0  0  0  0  0  0  0  0  0  0  0
   -1.5847   -4.6514   15.2952 C   0  0  0  0  0  0  0  0  0  0  0  0
   -2.9661   -4.7779   15.2128 C   0  0  0  0  0  0  0  0  0  0  0  0
   -3.6175   -4.5805   13.9969 C   0  0  0  0  0  0  0  0  0  0  0  0
   -2.8891   -4.2592   12.8648 C   0  0  0  0  0  0  0  0  0  0  0  0
   -1.5065   -4.1435   12.9445 C   0  0  0  0  0  0  0  0  0  0  0  0
  1  2  1  0  0  0  0
  2  3  2  0  0  0  0
  2 20  1  0  0  0  0
  4  6  1  0  0  0  0
  5  6  2  0  0  0  0
  5 16  1  0  0  0  0
  6  7  1  0  0  0  0
  7  8  1  0  0  0  0
  8  9  1  0  0  0  0
  8 10  2  0  0  0  0
  9 12  1  0  0  0  0
  9 16  2  0  0  0  0
 11 13  1  0  0  0  0
 11 12  1  0  0  0  0
 12 14  1  0  0  0  0
 14 15  1  0  0  0  0
 14 18  1  6  0  0  0
 15 17  1  0  0  0  0
 16 17  1  0  0  0  0
 18 19  1  0  0  0  0
 19 23  1  0  0  0  0
 20 21  2  0  0  0  0
 20 25  1  0  0  0  0
 21 22  1  0  0  0  0
 22 23  2  0  0  0  0
 23 24  1  0  0  0  0
 24 25  2  0  0  0  0
M  END
>  <CHROM.1>
-123.84806824,-59.75013965,-166.55958730,118.45193272,74.53978911,-5.35743943
-4.38838276,12.57635631,-0.38480356,-0.05636095,-1.48153213

>  <Name>
ligand

>  <RI>
0

>  <Rbt.Current_Directory>
/home/itssahil/PROJECTS/Mol_Feturizer/New_Systems/rnas/4LVV

>  <Rbt.Executable>
rbdock ($Id: //depot/dev/client3/rdock/2013.1/src/exe/rbdock.cxx#4 $)

>  <Rbt.Library>
libRbt.so (2013.1, Build901 2013/11/27)

>  <Rbt.Parameter_File>
/export/apps/rDock/src/rDock_2013.1_src/data/scripts/dock_solv.prm

>  <Rbt.Receptor>
prm/blind_docking_20.prm

>  <SCORE>
-8.85274

>  <SCORE.INTER>
-8.14467

>  <SCORE.INTER.CONST>
1

>  <SCORE.INTER.POLAR>
0

>  <SCORE.INTER.ROT>
5

>  <SCORE.INTER.SOLV>
18.1175

>  <SCORE.INTER.VDW>
-18.4023

>  <SCORE.INTER.norm>
-0.325787

>  <SCORE.INTRA>
-1.32796

>  <SCORE.INTRA.DIHEDRAL>
-0.473958

>  <SCORE.INTRA.DIHEDRAL.0>
3.94806

>  <SCORE.INTRA.POLAR>
0

>  <SCORE.INTRA.POLAR.0>
0

>  <SCORE.INTRA.REPUL>
0

>  <SCORE.INTRA.REPUL.0>
0

>  <SCORE.INTRA.SOLV>
-0.145436

>  <SCORE.INTRA.SOLV.lig_0>
-70.9803

>  <SCORE.INTRA.VDW>
-1.01826

>  <SCORE.INTRA.VDW.0>
-0.709409

>  <SCORE.INTRA.norm>
-0.0531183

>  <SCORE.RESTR>
0.619896

>  <SCORE.RESTR.CAVITY>
0.619896

>  <SCORE.RESTR.norm>
0.0247958

>  <SCORE.SYSTEM>
0

>  <SCORE.SYSTEM.CONST>
0

>  <SCORE.SYSTEM.DIHEDRAL>
0

>  <SCORE.SYSTEM.SOLV>
0

>  <SCORE.SYSTEM.norm>
0

>  <SCORE.heavy>
25

>  <SCORE.norm>
-0.354109

>  <RMSD>
23.732

$$$$
ligand
 OpenBabel11021811503D
libRbt.so/2013.1/901 2013/11/27
 25 27  0  0  0  0  0  0  0  0999 V2000
    1.2188   -3.0285   14.2559 N   0  0  0  0  0  0  0  0  0  0  0  0
    0.6347   -4.3314   14.1753 C   0  0  0  0  0  0  0  0  0  0  0  0
    1.3370   -5.3347   14.1937 O   0  0  0  0  0  0  0  0  0  0  0  0
   -7.7120   -3.9555    7.4684 N   0  0  0  0  0  0  0  0  0  0  0  0
   -7.8841   -3.0890    9.7010 N   0  0  0  0  0  0  0  0  0  0  0  0
   -7.7375   -4.1553    8.8810 C   0  0  0  0  0  0  0  0  0  0  0  0
   -7.6235   -5.4218    9.3824 N   0  0  0  0  0  0  0  0  0  0  0  0
   -7.6471   -5.6733   10.7161 C   0  0  0  0  0  0  0  0  0  0  0  0
   -7.7845   -4.5827   11.6079 C   0  0  0  0  0  0  0  0  0  0  0  0
   -7.5158   -6.9680   11.1606 O   0  0  0  0  0  0  0  0  0  0  0  0
   -8.5346   -5.7752   13.7324 C   0  0  0  0  0  0  0  0  0  0  0  0
   -7.8504   -4.6999   13.0554 N   0  0  0  0  0  0  0  0  0  0  0  0
   -9.4599   -5.5936   14.5164 O   0  0  0  0  0  0  0  0  0  0  0  0
   -7.2902   -3.6284   13.7625 C   0  0  2  0  0  0  0  0  0  0  0  0
   -7.9858   -2.3086   13.3409 C   0  0  0  0  0  0  0  0  0  0  0  0
   -7.9210   -3.2685   11.0593 C   0  0  0  0  0  0  0  0  0  0  0  0
   -8.0624   -2.1130   11.9495 N   0  0  0  0  0  0  0  0  0  0  0  0
   -5.7973   -3.5419   13.5172 C   0  0  0  0  0  0  0  0  0  0  0  0
   -5.0275   -4.7350   13.7365 N   0  0  0  0  0  0  0  0  0  0  0  0
   -0.8476   -4.4479   14.0857 C   0  0  0  0  0  0  0  0  0  0  0  0
   -1.6109   -4.7206   15.2126 C   0  0  0  0  0  0  0  0  0  0  0  0
   -2.9918   -4.8222   15.0958 C   0  0  0  0  0  0  0  0  0  0  0  0
   -3.6068   -4.6388   13.8590 C   0  0  0  0  0  0  0  0  0  0  0  0
   -2.8425   -4.3565   12.7402 C   0  0  0  0  0  0  0  0  0  0  0  0
   -1.4605   -4.2658   12.8545 C   0  0  0  0  0  0  0  0  0  0  0  0
  1  2  1  0  0  0  0
  2  3  2  0  0  0  0
  2 20  1  0  0  0  0
  4  6  1  0  0  0  0
  5  6  2  0  0  0  0
  5 16  1  0  0  0  0
  6  7  1  0  0  0  0
  7  8  1  0  0  0  0
  8  9  1  0  0  0  0
  8 10  2  0  0  0  0
  9 12  1  0  0  0  0
  9 16  2  0  0  0  0
 11 13  1  0  0  0  0
 11 12  1  0  0  0  0
 12 14  1  0  0  0  0
 14 15  1  0  0  0  0
 14 18  1  6  0  0  0
 15 17  1  0  0  0  0
 16 17  1  0  0  0  0
 18 19  1  0  0  0  0
 19 23  1  0  0  0  0
 20 21  2  0  0  0  0
 20 25  1  0  0  0  0
 21 22  1  0  0  0  0
 22 23  2  0  0  0  0
 23 24  1  0  0  0  0
 24 25  2  0  0  0  0
M  END
>  <CHROM.1>
-120.83130174,-52.51623198,-164.02551904,108.08626607,-98.46124923,-5.35880338
-4.40225070,12.55950071,-0.37612143,-0.03776542,-1.48019365

>  <Name>
ligand

>  <RI>
0

>  <Rbt.Current_Directory>
/home/itssahil/PROJECTS/Mol_Feturizer/New_Systems/rnas/4LVV

>  <Rbt.Executable>
rbdock ($Id: //depot/dev/client3/rdock/2013.1/src/exe/rbdock.cxx#4 $)

>  <Rbt.Library>
libRbt.so (2013.1, Build901 2013/11/27)

>  <Rbt.Parameter_File>
/export/apps/rDock/src/rDock_2013.1_src/data/scripts/dock_solv.prm

>  <Rbt.Receptor>
prm/blind_docking_20.prm

>  <SCORE>
-8.53168

>  <SCORE.INTER>
-7.81012

>  <SCORE.INTER.CONST>
1

>  <SCORE.INTER.POLAR>
0

>  <SCORE.INTER.ROT>
5

>  <SCORE.INTER.SOLV>
17.2867

>  <SCORE.INTER.VDW>
-17.9023

>  <SCORE.INTER.norm>
-0.312405

>  <SCORE.INTRA>
-1.30122

>  <SCORE.INTRA.DIHEDRAL>
-0.284144

>  <SCORE.INTRA.DIHEDRAL.0>
3.94806

>  <SCORE.INTRA.POLAR>
0

>  <SCORE.INTRA.POLAR.0>
0

>  <SCORE.INTRA.REPUL>
0

>  <SCORE.INTRA.REPUL.0>
0

>  <SCORE.INTRA.SOLV>
0.00798435

>  <SCORE.INTRA.SOLV.lig_0>
-70.9803

>  <SCORE.INTRA.VDW>
-1.16314

>  <SCORE.INTRA.VDW.0>
-0.709409

>  <SCORE.INTRA.norm>
-0.0520489

>  <SCORE.RESTR>
0.579663

>  <SCORE.RESTR.CAVITY>
0.579663

>  <SCORE.RESTR.norm>
0.0231865

>  <SCORE.SYSTEM>
0

>  <SCORE.SYSTEM.CONST>
0

>  <SCORE.SYSTEM.DIHEDRAL>
0

>  <SCORE.SYSTEM.SOLV>
0

>  <SCORE.SYSTEM.norm>
0

>  <SCORE.heavy>
25

>  <SCORE.norm>
-0.341267

>  <RMSD>
23.734

$$$$
ligand
 OpenBabel11021811503D
libRbt.so/2013.1/901 2013/11/27
 25 27  0  0  0  0  0  0  0  0999 V2000
  -10.3361   -0.8497   31.7014 N   0  0  0  0  0  0  0  0  0  0  0  0
   -9.6829   -1.9373   32.3617 C   0  0  0  0  0  0  0  0  0  0  0  0
  -10.0499   -2.3086   33.4696 O   0  0  0  0  0  0  0  0  0  0  0  0
   -7.2904    1.7570   27.3123 N   0  0  0  0  0  0  0  0  0  0  0  0
   -5.5170    0.1438   27.1786 N   0  0  0  0  0  0  0  0  0  0  0  0
   -6.4179    0.8142   27.9335 C   0  0  0  0  0  0  0  0  0  0  0  0
   -6.4995    0.6111   29.2827 N   0  0  0  0  0  0  0  0  0  0  0  0
   -5.6921   -0.2680   29.9290 C   0  0  0  0  0  0  0  0  0  0  0  0
   -4.7458   -0.9997   29.1722 C   0  0  0  0  0  0  0  0  0  0  0  0
   -5.8298   -0.4378   31.2867 O   0  0  0  0  0  0  0  0  0  0  0  0
   -3.1427   -1.7687   30.9990 C   0  0  0  0  0  0  0  0  0  0  0  0
   -3.8007   -1.9544   29.7281 N   0  0  0  0  0  0  0  0  0  0  0  0
   -2.7316   -2.6990   31.6842 O   0  0  0  0  0  0  0  0  0  0  0  0
   -3.4836   -3.0306   28.8896 C   0  0  2  0  0  0  0  0  0  0  0  0
   -2.9154   -2.4948   27.5503 C   0  0  0  0  0  0  0  0  0  0  0  0
   -4.6660   -0.7566   27.7646 C   0  0  0  0  0  0  0  0  0  0  0  0
   -3.7014   -1.4961   26.9459 N   0  0  0  0  0  0  0  0  0  0  0  0
   -4.7017   -3.8966   28.6393 C   0  0  0  0  0  0  0  0  0  0  0  0
   -5.3106   -4.5165   29.7834 N   0  0  0  0  0  0  0  0  0  0  0  0
   -8.5566   -2.6234   31.6692 C   0  0  0  0  0  0  0  0  0  0  0  0
   -8.7378   -3.2154   30.4269 C   0  0  0  0  0  0  0  0  0  0  0  0
   -7.6666   -3.8470   29.8067 C   0  0  0  0  0  0  0  0  0  0  0  0
   -6.4165   -3.8745   30.4218 C   0  0  0  0  0  0  0  0  0  0  0  0
   -6.2380   -3.2735   31.6556 C   0  0  0  0  0  0  0  0  0  0  0  0
   -7.3118   -2.6514   32.2811 C   0  0  0  0  0  0  0  0  0  0  0  0
  1  2  1  0  0  0  0
  2  3  2  0  0  0  0
  2 20  1  0  0  0  0
  4  6  1  0  0  0  0
  5  6  2  0  0  0  0
  5 16  1  0  0  0  0
  6  7  1  0  0  0  0
  7  8  1  0  0  0  0
  8  9  1  0  0  0  0
  8 10  2  0  0  0  0
  9 12  1  0  0  0  0
  9 16  2  0  0  0  0
 11 13  1  0  0  0  0
 11 12  1  0  0  0  0
 12 14  1  0  0  0  0
 14 15  1  0  0  0  0
 14 18  1  6  0  0  0
 15 17  1  0  0  0  0
 16 17  1  0  0  0  0
 18 19  1  0  0  0  0
 19 23  1  0  0  0  0
 20 21  2  0  0  0  0
 20 25  1  0  0  0  0
 21 22  1  0  0  0  0
 22 23  2  0  0  0  0
 23 24  1  0  0  0  0
 24 25  2  0  0  0  0
M  END
>  <CHROM.1>
154.09706166,-60.98719432,95.04447195,72.38700696,-58.26182363,-6.01062489
-1.80392872,29.93176771,2.67393186,-0.43044845,2.42602090

>  <Name>
ligand

>  <RI>
0

>  <Rbt.Current_Directory>
/home/itssahil/PROJECTS/Mol_Feturizer/New_Systems/rnas/4LVV

>  <Rbt.Executable>
rbdock ($Id: //depot/dev/client3/rdock/2013.1/src/exe/rbdock.cxx#4 $)

>  <Rbt.Library>
libRbt.so (2013.1, Build901 2013/11/27)

>  <Rbt.Parameter_File>
/export/apps/rDock/src/rDock_2013.1_src/data/scripts/dock_solv.prm

>  <Rbt.Receptor>
prm/blind_docking_40.prm

>  <SCORE>
-11.2732

>  <SCORE.INTER>
-8.57569

>  <SCORE.INTER.CONST>
1

>  <SCORE.INTER.POLAR>
0

>  <SCORE.INTER.ROT>
5

>  <SCORE.INTER.SOLV>
10.9626

>  <SCORE.INTER.VDW>
-16.3047

>  <SCORE.INTER.norm>
-0.343027

>  <SCORE.INTRA>
-2.69747

>  <SCORE.INTRA.DIHEDRAL>
-0.0952532

>  <SCORE.INTRA.DIHEDRAL.0>
3.94806

>  <SCORE.INTRA.POLAR>
0

>  <SCORE.INTRA.POLAR.0>
0

>  <SCORE.INTRA.REPUL>
0

>  <SCORE.INTRA.REPUL.0>
0

>  <SCORE.INTRA.SOLV>
0.911572

>  <SCORE.INTRA.SOLV.lig_0>
-70.9803

>  <SCORE.INTRA.VDW>
-3.10563

>  <SCORE.INTRA.VDW.0>
-0.709409

>  <SCORE.INTRA.norm>
-0.107899

>  <SCORE.RESTR>
0

>  <SCORE.RESTR.CAVITY>
0

>  <SCORE.RESTR.norm>
0

>  <SCORE.SYSTEM>
0

>  <SCORE.SYSTEM.CONST>
0

>  <SCORE.SYSTEM.DIHEDRAL>
0

>  <SCORE.SYSTEM.SOLV>
0

>  <SCORE.SYSTEM.norm>
0

>  <SCORE.heavy>
25

>  <SCORE.norm>
-0.450926

>  <RMSD>
23.774

$$$$
ligand
 OpenBabel11021811503D
libRbt.so/2013.1/901 2013/11/27
 25 27  0  0  0  0  0  0  0  0999 V2000
  -12.6056   -2.9475   24.3425 N   0  0  0  0  0  0  0  0  0  0  0  0
  -12.6317   -1.9719   25.3880 C   0  0  0  0  0  0  0  0  0  0  0  0
  -13.6082   -1.2498   25.5463 O   0  0  0  0  0  0  0  0  0  0  0  0
   -1.4958   -3.9310   30.3526 N   0  0  0  0  0  0  0  0  0  0  0  0
   -2.7625   -2.6259   28.7850 N   0  0  0  0  0  0  0  0  0  0  0  0
   -2.6627   -3.7338   29.5554 C   0  0  0  0  0  0  0  0  0  0  0  0
   -3.6562   -4.6724   29.5752 N   0  0  0  0  0  0  0  0  0  0  0  0
   -4.7856   -4.5416   28.8337 C   0  0  0  0  0  0  0  0  0  0  0  0
   -4.9344   -3.3892   28.0253 C   0  0  0  0  0  0  0  0  0  0  0  0
   -5.7554   -5.5139   28.9048 O   0  0  0  0  0  0  0  0  0  0  0  0
   -6.7516   -4.1529   26.4088 C   0  0  0  0  0  0  0  0  0  0  0  0
   -6.0736   -3.1251   27.1616 N   0  0  0  0  0  0  0  0  0  0  0  0
   -6.1697   -5.1010   25.8926 O   0  0  0  0  0  0  0  0  0  0  0  0
   -6.4094   -1.7726   27.0212 C   0  0  2  0  0  0  0  0  0  0  0  0
   -5.1864   -0.9879   26.4806 C   0  0  0  0  0  0  0  0  0  0  0  0
   -3.8733   -2.4299   28.0064 C   0  0  0  0  0  0  0  0  0  0  0  0
   -3.9907   -1.2221   27.1847 N   0  0  0  0  0  0  0  0  0  0  0  0
   -6.8696   -1.1910   28.3426 C   0  0  0  0  0  0  0  0  0  0  0  0
   -8.1290   -1.6523   28.8578 N   0  0  0  0  0  0  0  0  0  0  0  0
  -11.4546   -1.8609   26.2940 C   0  0  0  0  0  0  0  0  0  0  0  0
  -11.0996   -0.6422   26.8558 C   0  0  0  0  0  0  0  0  0  0  0  0
   -9.9963   -0.5721   27.6978 C   0  0  0  0  0  0  0  0  0  0  0  0
   -9.2597   -1.7192   27.9862 C   0  0  0  0  0  0  0  0  0  0  0  0
   -9.6239   -2.9340   27.4322 C   0  0  0  0  0  0  0  0  0  0  0  0
  -10.7205   -3.0025   26.5813 C   0  0  0  0  0  0  0  0  0  0  0  0
  1  2  1  0  0  0  0
  2  3  2  0  0  0  0
  2 20  1  0  0  0  0
  4  6  1  0  0  0  0
  5  6  2  0  0  0  0
  5 16  1  0  0  0  0
  6  7  1  0  0  0  0
  7  8  1  0  0  0  0
  8  9  1  0  0  0  0
  8 10  2  0  0  0  0
  9 12  1  0  0  0  0
  9 16  2  0  0  0  0
 11 13  1  0  0  0  0
 11 12  1  0  0  0  0
 12 14  1  0  0  0  0
 14 15  1  0  0  0  0
 14 18  1  1  0  0  0
 15 17  1  0  0  0  0
 16 17  1  0  0  0  0
 18 19  1  0  0  0  0
 19 23  1  0  0  0  0
 20 21  2  0  0  0  0
 20 25  1  0  0  0  0
 21 22  1  0  0  0  0
 22 23  2  0  0  0  0
 23 24  1  0  0  0  0
 24 25  2  0  0  0  0
M  END
>  <CHROM.1>
-36.51041737,-69.00103815,-46.64762939,-80.59281406,148.73812290,-7.17603955
-2.71911867,27.48803476,2.99186198,-0.34624108,0.12890600

>  <Name>
ligand

>  <RI>
0

>  <Rbt.Current_Directory>
/home/itssahil/PROJECTS/Mol_Feturizer/New_Systems/rnas/4LVV

>  <Rbt.Executable>
rbdock ($Id: //depot/dev/client3/rdock/2013.1/src/exe/rbdock.cxx#4 $)

>  <Rbt.Library>
libRbt.so (2013.1, Build901 2013/11/27)

>  <Rbt.Parameter_File>
/export/apps/rDock/src/rDock_2013.1_src/data/scripts/dock_solv.prm

>  <Rbt.Receptor>
prm/blind_docking_100.prm

>  <SCORE>
-11.0108

>  <SCORE.INTER>
-9.33875

>  <SCORE.INTER.CONST>
1

>  <SCORE.INTER.POLAR>
0

>  <SCORE.INTER.ROT>
5

>  <SCORE.INTER.SOLV>
9.13447

>  <SCORE.INTER.VDW>
-16.204

>  <SCORE.INTER.norm>
-0.37355

>  <SCORE.INTRA>
-1.67209

>  <SCORE.INTRA.DIHEDRAL>
-0.144737

>  <SCORE.INTRA.DIHEDRAL.0>
3.94806

>  <SCORE.INTRA.POLAR>
0

>  <SCORE.INTRA.POLAR.0>
0

>  <SCORE.INTRA.REPUL>
0

>  <SCORE.INTRA.REPUL.0>
0

>  <SCORE.INTRA.SOLV>
0.113483

>  <SCORE.INTRA.SOLV.lig_0>
-70.9803

>  <SCORE.INTRA.VDW>
-1.65646

>  <SCORE.INTRA.VDW.0>
-0.709409

>  <SCORE.INTRA.norm>
-0.0668835

>  <SCORE.RESTR>
0

>  <SCORE.RESTR.CAVITY>
0

>  <SCORE.RESTR.norm>
0

>  <SCORE.SYSTEM>
0

>  <SCORE.SYSTEM.CONST>
0

>  <SCORE.SYSTEM.DIHEDRAL>
0

>  <SCORE.SYSTEM.SOLV>
0

>  <SCORE.SYSTEM.norm>
0

>  <SCORE.heavy>
25

>  <SCORE.norm>
-0.440434

>  <RMSD>
23.793

$$$$
ligand
 OpenBabel11021811503D
libRbt.so/2013.1/901 2013/11/27
 25 27  0  0  0  0  0  0  0  0999 V2000
   -7.9157   -3.9047    8.0201 N   0  0  0  0  0  0  0  0  0  0  0  0
   -8.5424   -3.2339    9.1168 C   0  0  0  0  0  0  0  0  0  0  0  0
   -9.5431   -2.5495    8.9429 O   0  0  0  0  0  0  0  0  0  0  0  0
    1.4523   -3.4712   14.4128 N   0  0  0  0  0  0  0  0  0  0  0  0
   -0.5930   -4.4109   13.5768 N   0  0  0  0  0  0  0  0  0  0  0  0
    0.1857   -4.0895   14.6356 C   0  0  0  0  0  0  0  0  0  0  0  0
   -0.2157   -4.3562   15.9147 N   0  0  0  0  0  0  0  0  0  0  0  0
   -1.4066   -4.9478   16.1873 C   0  0  0  0  0  0  0  0  0  0  0  0
   -2.2565   -5.2867   15.1074 C   0  0  0  0  0  0  0  0  0  0  0  0
   -1.7605   -5.1797   17.4957 O   0  0  0  0  0  0  0  0  0  0  0  0
   -3.8081   -6.9796   16.2141 C   0  0  0  0  0  0  0  0  0  0  0  0
   -3.5458   -5.9447   15.2431 N   0  0  0  0  0  0  0  0  0  0  0  0
   -4.0564   -6.7471   17.3923 O   0  0  0  0  0  0  0  0  0  0  0  0
   -4.5007   -5.5798   14.2856 C   0  0  2  0  0  0  0  0  0  0  0  0
   -3.9469   -5.8650   12.8659 C   0  0  0  0  0  0  0  0  0  0  0  0
   -1.8069   -5.0150   13.7767 C   0  0  0  0  0  0  0  0  0  0  0  0
   -2.6591   -5.3482   12.6319 N   0  0  0  0  0  0  0  0  0  0  0  0
   -4.8729   -4.1175   14.4249 C   0  0  0  0  0  0  0  0  0  0  0  0
   -6.2648   -3.7819   14.3061 N   0  0  0  0  0  0  0  0  0  0  0  0
   -7.9654   -3.3964   10.4804 C   0  0  0  0  0  0  0  0  0  0  0  0
   -8.3263   -4.4688   11.2844 C   0  0  0  0  0  0  0  0  0  0  0  0
   -7.7694   -4.5924   12.5514 C   0  0  0  0  0  0  0  0  0  0  0  0
   -6.8455   -3.6538   13.0064 C   0  0  0  0  0  0  0  0  0  0  0  0
   -6.4806   -2.5921   12.1971 C   0  0  0  0  0  0  0  0  0  0  0  0
   -7.0457   -2.4620   10.9342 C   0  0  0  0  0  0  0  0  0  0  0  0
  1  2  1  0  0  0  0
  2  3  2  0  0  0  0
  2 20  1  0  0  0  0
  4  6  1  0  0  0  0
  5  6  2  0  0  0  0
  5 16  1  0  0  0  0
  6  7  1  0  0  0  0
  7  8  1  0  0  0  0
  8  9  1  0  0  0  0
  8 10  2  0  0  0  0
  9 12  1  0  0  0  0
  9 16  2  0  0  0  0
 11 13  1  0  0  0  0
 11 12  1  0  0  0  0
 12 14  1  0  0  0  0
 14 15  1  0  0  0  0
 14 18  1  6  0  0  0
 15 17  1  0  0  0  0
 16 17  1  0  0  0  0
 18 19  1  0  0  0  0
 19 23  1  0  0  0  0
 20 21  2  0  0  0  0
 20 25  1  0  0  0  0
 21 22  1  0  0  0  0
 22 23  2  0  0  0  0
 23 24  1  0  0  0  0
 24 25  2  0  0  0  0
M  END
>  <CHROM.1>
80.39539413,-137.74571014,-81.06795870,110.57170899,-86.07641829,-4.37412763
-4.51525586,13.46813150,-2.45775519,0.13295174,2.03112147

>  <Name>
ligand

>  <RI>
0

>  <Rbt.Current_Directory>
/home/itssahil/PROJECTS/Mol_Feturizer/New_Systems/rnas/4LVV

>  <Rbt.Executable>
rbdock ($Id: //depot/dev/client3/rdock/2013.1/src/exe/rbdock.cxx#4 $)

>  <Rbt.Library>
libRbt.so (2013.1, Build901 2013/11/27)

>  <Rbt.Parameter_File>
/export/apps/rDock/src/rDock_2013.1_src/data/scripts/dock_solv.prm

>  <Rbt.Receptor>
prm/blind_docking_20.prm

>  <SCORE>
-3.60378

>  <SCORE.INTER>
-3.91554

>  <SCORE.INTER.CONST>
1

>  <SCORE.INTER.POLAR>
0

>  <SCORE.INTER.ROT>
5

>  <SCORE.INTER.SOLV>
10.1663

>  <SCORE.INTER.VDW>
-12.9325

>  <SCORE.INTER.norm>
-0.156622

>  <SCORE.INTRA>
0.311046

>  <SCORE.INTRA.DIHEDRAL>
3.96178

>  <SCORE.INTRA.DIHEDRAL.0>
3.94806

>  <SCORE.INTRA.POLAR>
0

>  <SCORE.INTRA.POLAR.0>
0

>  <SCORE.INTRA.REPUL>
0

>  <SCORE.INTRA.REPUL.0>
0

>  <SCORE.INTRA.SOLV>
-0.457042

>  <SCORE.INTRA.SOLV.lig_0>
-70.9803

>  <SCORE.INTRA.VDW>
-1.44132

>  <SCORE.INTRA.VDW.0>
-0.709409

>  <SCORE.INTRA.norm>
0.0124419

>  <SCORE.RESTR>
0.000708441

>  <SCORE.RESTR.CAVITY>
0.000708441

>  <SCORE.RESTR.norm>
2.83376e-05

>  <SCORE.SYSTEM>
0

>  <SCORE.SYSTEM.CONST>
0

>  <SCORE.SYSTEM.DIHEDRAL>
0

>  <SCORE.SYSTEM.SOLV>
0

>  <SCORE.SYSTEM.norm>
0

>  <SCORE.heavy>
25

>  <SCORE.norm>
-0.144151

>  <RMSD>
23.802

$$$$
ligand
 OpenBabel11021811503D
libRbt.so/2013.1/901 2013/11/27
 25 27  0  0  0  0  0  0  0  0999 V2000
   -0.7782   -5.0357   14.6057 N   0  0  0  0  0  0  0  0  0  0  0  0
   -1.2449   -4.1385   13.5944 C   0  0  0  0  0  0  0  0  0  0  0  0
   -0.9094   -2.9606   13.5991 O   0  0  0  0  0  0  0  0  0  0  0  0
   -5.0596   -4.7287   15.0316 N   0  0  0  0  0  0  0  0  0  0  0  0
   -6.0052   -5.5976   13.0029 N   0  0  0  0  0  0  0  0  0  0  0  0
   -5.5880   -4.5296   13.7212 C   0  0  0  0  0  0  0  0  0  0  0  0
   -5.6736   -3.2619   13.2170 N   0  0  0  0  0  0  0  0  0  0  0  0
   -6.1727   -3.0110   11.9799 C   0  0  0  0  0  0  0  0  0  0  0  0
   -6.6066   -4.1032   11.1911 C   0  0  0  0  0  0  0  0  0  0  0  0
   -6.2221   -1.7150   11.5228 O   0  0  0  0  0  0  0  0  0  0  0  0
   -8.0762   -2.9198    9.4770 C   0  0  0  0  0  0  0  0  0  0  0  0
   -7.1844   -3.9871    9.8621 N   0  0  0  0  0  0  0  0  0  0  0  0
   -9.2964   -2.9982    9.5708 O   0  0  0  0  0  0  0  0  0  0  0  0
   -6.9008   -5.0522    8.9979 C   0  0  2  0  0  0  0  0  0  0  0  0
   -7.3867   -6.3799    9.6342 C   0  0  0  0  0  0  0  0  0  0  0  0
   -6.5248   -5.4189   11.7472 C   0  0  0  0  0  0  0  0  0  0  0  0
   -6.9612   -6.5761   10.9611 N   0  0  0  0  0  0  0  0  0  0  0  0
   -5.4175   -5.1216    8.6958 C   0  0  0  0  0  0  0  0  0  0  0  0
   -4.6392   -6.0653    9.4493 N   0  0  0  0  0  0  0  0  0  0  0  0
   -2.1345   -4.6668   12.5229 C   0  0  0  0  0  0  0  0  0  0  0  0
   -2.8316   -5.8546   12.6959 C   0  0  0  0  0  0  0  0  0  0  0  0
   -3.6541   -6.3203   11.6773 C   0  0  0  0  0  0  0  0  0  0  0  0
   -3.7882   -5.5934   10.4960 C   0  0  0  0  0  0  0  0  0  0  0  0
   -3.0994   -4.4042   10.3323 C   0  0  0  0  0  0  0  0  0  0  0  0
   -2.2681   -3.9439   11.3464 C   0  0  0  0  0  0  0  0  0  0  0  0
  1  2  1  0  0  0  0
  2  3  2  0  0  0  0
  2 20  1  0  0  0  0
  4  6  1  0  0  0  0
  5  6  2  0  0  0  0
  5 16  1  0  0  0  0
  6  7  1  0  0  0  0
  7  8  1  0  0  0  0
  8  9  1  0  0  0  0
  8 10  2  0  0  0  0
  9 12  1  0  0  0  0
  9 16  2  0  0  0  0
 11 13  1  0  0  0  0
 11 12  1  0  0  0  0
 12 14  1  0  0  0  0
 14 15  1  0  0  0  0
 14 18  1  1  0  0  0
 15 17  1  0  0  0  0
 16 17  1  0  0  0  0
 18 19  1  0  0  0  0
 19 23  1  0  0  0  0
 20 21  2  0  0  0  0
 20 25  1  0  0  0  0
 21 22  1  0  0  0  0
 22 23  2  0  0  0  0
 23 24  1  0  0  0  0
 24 25  2  0  0  0  0
M  END
>  <CHROM.1>
-91.65617102,98.52718078,-104.82000301,141.87069721,19.67900438,-5.04542491
-4.52788188,11.53957657,-0.43004247,0.38344849,-2.20676917

>  <Name>
ligand

>  <RI>
0

>  <Rbt.Current_Directory>
/home/itssahil/PROJECTS/Mol_Feturizer/New_Systems/rnas/4LVV

>  <Rbt.Executable>
rbdock ($Id: //depot/dev/client3/rdock/2013.1/src/exe/rbdock.cxx#4 $)

>  <Rbt.Library>
libRbt.so (2013.1, Build901 2013/11/27)

>  <Rbt.Parameter_File>
/export/apps/rDock/src/rDock_2013.1_src/data/scripts/dock_solv.prm

>  <Rbt.Receptor>
prm/blind_docking_20.prm

>  <SCORE>
1.81768

>  <SCORE.INTER>
0.825675

>  <SCORE.INTER.CONST>
1

>  <SCORE.INTER.POLAR>
0

>  <SCORE.INTER.ROT>
5

>  <SCORE.INTER.SOLV>
11.2131

>  <SCORE.INTER.VDW>
-10.1206

>  <SCORE.INTER.norm>
0.033027

>  <SCORE.INTRA>
0.935582

>  <SCORE.INTRA.DIHEDRAL>
3.929

>  <SCORE.INTRA.DIHEDRAL.0>
3.94806

>  <SCORE.INTRA.POLAR>
0

>  <SCORE.INTRA.POLAR.0>
0

>  <SCORE.INTRA.REPUL>
0

>  <SCORE.INTRA.REPUL.0>
0

>  <SCORE.INTRA.SOLV>
3.36078

>  <SCORE.INTRA.SOLV.lig_0>
-70.9803

>  <SCORE.INTRA.VDW>
-2.70931

>  <SCORE.INTRA.VDW.0>
-0.709409

>  <SCORE.INTRA.norm>
0.0374233

>  <SCORE.RESTR>
0.0564259

>  <SCORE.RESTR.CAVITY>
0.0564259

>  <SCORE.RESTR.norm>
0.00225704

>  <SCORE.SYSTEM>
0

>  <SCORE.SYSTEM.CONST>
0

>  <SCORE.SYSTEM.DIHEDRAL>
0

>  <SCORE.SYSTEM.SOLV>
0

>  <SCORE.SYSTEM.norm>
0

>  <SCORE.heavy>
25

>  <SCORE.norm>
0.0727073

>  <RMSD>
23.966

$$$$
ligand
 OpenBabel11021811503D
libRbt.so/2013.1/901 2013/11/27
 25 27  0  0  0  0  0  0  0  0999 V2000
   -2.1050   -1.4227   26.7803 N   0  0  0  0  0  0  0  0  0  0  0  0
   -3.3420   -2.0857   27.0555 C   0  0  0  0  0  0  0  0  0  0  0  0
   -3.3909   -3.3059   27.1504 O   0  0  0  0  0  0  0  0  0  0  0  0
  -11.5428   -4.8209   24.8499 N   0  0  0  0  0  0  0  0  0  0  0  0
  -11.7181   -2.9816   26.3834 N   0  0  0  0  0  0  0  0  0  0  0  0
  -10.9815   -3.9923   25.8670 C   0  0  0  0  0  0  0  0  0  0  0  0
   -9.7124   -4.2396   26.3103 N   0  0  0  0  0  0  0  0  0  0  0  0
   -9.1287   -3.4892   27.2792 C   0  0  0  0  0  0  0  0  0  0  0  0
   -9.8615   -2.4131   27.8348 C   0  0  0  0  0  0  0  0  0  0  0  0
   -7.8442   -3.7794   27.6751 O   0  0  0  0  0  0  0  0  0  0  0  0
   -8.5761   -2.0072   29.9985 C   0  0  0  0  0  0  0  0  0  0  0  0
   -9.3782   -1.5411   28.8930 N   0  0  0  0  0  0  0  0  0  0  0  0
   -7.9239   -1.2577   30.7174 O   0  0  0  0  0  0  0  0  0  0  0  0
   -9.8374   -0.2195   28.8273 C   0  0  2  0  0  0  0  0  0  0  0  0
  -11.3876   -0.2075   28.8458 C   0  0  0  0  0  0  0  0  0  0  0  0
  -11.1946   -2.1852   27.3683 C   0  0  0  0  0  0  0  0  0  0  0  0
  -11.9847   -1.0794   27.9165 N   0  0  0  0  0  0  0  0  0  0  0  0
   -9.3173    0.4710   27.5828 C   0  0  0  0  0  0  0  0  0  0  0  0
   -8.0252    1.0931   27.6707 N   0  0  0  0  0  0  0  0  0  0  0  0
   -4.5698   -1.2633   27.2423 C   0  0  0  0  0  0  0  0  0  0  0  0
   -5.1082   -1.0624   28.5058 C   0  0  0  0  0  0  0  0  0  0  0  0
   -6.2542   -0.2891   28.6465 C   0  0  0  0  0  0  0  0  0  0  0  0
   -6.8509    0.2909   27.5289 C   0  0  0  0  0  0  0  0  0  0  0  0
   -6.3043    0.0966   26.2723 C   0  0  0  0  0  0  0  0  0  0  0  0
   -5.1646   -0.6857   26.1299 C   0  0  0  0  0  0  0  0  0  0  0  0
  1  2  1  0  0  0  0
  2  3  2  0  0  0  0
  2 20  1  0  0  0  0
  4  6  1  0  0  0  0
  5  6  2  0  0  0  0
  5 16  1  0  0  0  0
  6  7  1  0  0  0  0
  7  8  1  0  0  0  0
  8  9  1  0  0  0  0
  8 10  2  0  0  0  0
  9 12  1  0  0  0  0
  9 16  2  0  0  0  0
 11 13  1  0  0  0  0
 11 12  1  0  0  0  0
 12 14  1  0  0  0  0
 14 15  1  0  0  0  0
 14 18  1  6  0  0  0
 15 17  1  0  0  0  0
 16 17  1  0  0  0  0
 18 19  1  0  0  0  0
 19 23  1  0  0  0  0
 20 21  2  0  0  0  0
 20 25  1  0  0  0  0
 21 22  1  0  0  0  0
 22 23  2  0  0  0  0
 23 24  1  0  0  0  0
 24 25  2  0  0  0  0
M  END
>  <CHROM.1>
163.16672712,-86.46056514,81.44202058,-90.46838711,-105.13496405,-8.08447627
-1.72811795,27.60808415,-0.13387811,-0.07524248,-2.54434233

>  <Name>
ligand

>  <RI>
0

>  <Rbt.Current_Directory>
/home/itssahil/PROJECTS/Mol_Feturizer/New_Systems/rnas/4LVV

>  <Rbt.Executable>
rbdock ($Id: //depot/dev/client3/rdock/2013.1/src/exe/rbdock.cxx#4 $)

>  <Rbt.Library>
libRbt.so (2013.1, Build901 2013/11/27)

>  <Rbt.Parameter_File>
/export/apps/rDock/src/rDock_2013.1_src/data/scripts/dock_solv.prm

>  <Rbt.Receptor>
prm/blind_docking_60.prm

>  <SCORE>
-10.6816

>  <SCORE.INTER>
-9.6955

>  <SCORE.INTER.CONST>
1

>  <SCORE.INTER.POLAR>
0

>  <SCORE.INTER.ROT>
5

>  <SCORE.INTER.SOLV>
13.3999

>  <SCORE.INTER.VDW>
-17.8636

>  <SCORE.INTER.norm>
-0.38782

>  <SCORE.INTRA>
-1.39159

>  <SCORE.INTRA.DIHEDRAL>
1.63237

>  <SCORE.INTRA.DIHEDRAL.0>
3.94806

>  <SCORE.INTRA.POLAR>
0

>  <SCORE.INTRA.POLAR.0>
0

>  <SCORE.INTRA.REPUL>
0

>  <SCORE.INTRA.REPUL.0>
0

>  <SCORE.INTRA.SOLV>
0.206522

>  <SCORE.INTRA.SOLV.lig_0>
-70.9803

>  <SCORE.INTRA.VDW>
-2.31103

>  <SCORE.INTRA.VDW.0>
-0.709409

>  <SCORE.INTRA.norm>
-0.0556634

>  <SCORE.RESTR>
0.405437

>  <SCORE.RESTR.CAVITY>
0.405437

>  <SCORE.RESTR.norm>
0.0162175

>  <SCORE.SYSTEM>
0

>  <SCORE.SYSTEM.CONST>
0

>  <SCORE.SYSTEM.DIHEDRAL>
0

>  <SCORE.SYSTEM.SOLV>
0

>  <SCORE.SYSTEM.norm>
0

>  <SCORE.heavy>
25

>  <SCORE.norm>
-0.427266

>  <RMSD>
24.023

$$$$
ligand
 OpenBabel11021811503D
libRbt.so/2013.1/901 2013/11/27
 25 27  0  0  0  0  0  0  0  0999 V2000
  -14.5265   -2.2911   25.4381 N   0  0  0  0  0  0  0  0  0  0  0  0
  -13.9659   -2.3408   26.7528 C   0  0  0  0  0  0  0  0  0  0  0  0
  -14.6548   -2.1018   27.7368 O   0  0  0  0  0  0  0  0  0  0  0  0
   -2.1657   -4.8844   31.0965 N   0  0  0  0  0  0  0  0  0  0  0  0
   -4.4915   -5.2922   30.6606 N   0  0  0  0  0  0  0  0  0  0  0  0
   -3.5173   -4.4309   31.0349 C   0  0  0  0  0  0  0  0  0  0  0  0
   -3.8071   -3.1365   31.3648 N   0  0  0  0  0  0  0  0  0  0  0  0
   -5.0741   -2.6508   31.3305 C   0  0  0  0  0  0  0  0  0  0  0  0
   -6.1199   -3.5166   30.9302 C   0  0  0  0  0  0  0  0  0  0  0  0
   -5.3015   -1.3357   31.6621 O   0  0  0  0  0  0  0  0  0  0  0  0
   -8.1570   -2.2795   31.8347 C   0  0  0  0  0  0  0  0  0  0  0  0
   -7.5244   -3.1460   30.8695 N   0  0  0  0  0  0  0  0  0  0  0  0
   -7.8160   -2.2235   33.0113 O   0  0  0  0  0  0  0  0  0  0  0  0
   -8.2607   -3.7788   29.8599 C   0  0  2  0  0  0  0  0  0  0  0  0
   -8.1620   -5.3163   30.0320 C   0  0  0  0  0  0  0  0  0  0  0  0
   -5.7950   -4.8721   30.6078 C   0  0  0  0  0  0  0  0  0  0  0  0
   -6.8490   -5.7988   30.1861 N   0  0  0  0  0  0  0  0  0  0  0  0
   -7.7626   -3.3662   28.4896 C   0  0  0  0  0  0  0  0  0  0  0  0
   -8.5055   -3.8374   27.3536 N   0  0  0  0  0  0  0  0  0  0  0  0
  -12.5300   -2.7062   26.9061 C   0  0  0  0  0  0  0  0  0  0  0  0
  -11.5595   -1.7283   27.0760 C   0  0  0  0  0  0  0  0  0  0  0  0
  -10.2286   -2.1019   27.2171 C   0  0  0  0  0  0  0  0  0  0  0  0
   -9.8725   -3.4490   27.2011 C   0  0  0  0  0  0  0  0  0  0  0  0
  -10.8449   -4.4209   27.0423 C   0  0  0  0  0  0  0  0  0  0  0  0
  -12.1746   -4.0471   26.8900 C   0  0  0  0  0  0  0  0  0  0  0  0
  1  2  1  0  0  0  0
  2  3  2  0  0  0  0
  2 20  1  0  0  0  0
  4  6  1  0  0  0  0
  5  6  2  0  0  0  0
  5 16  1  0  0  0  0
  6  7  1  0  0  0  0
  7  8  1  0  0  0  0
  8  9  1  0  0  0  0
  8 10  2  0  0  0  0
  9 12  1  0  0  0  0
  9 16  2  0  0  0  0
 11 13  1  0  0  0  0
 11 12  1  0  0  0  0
 12 14  1  0  0  0  0
 14 15  1  0  0  0  0
 14 18  1  6  0  0  0
 15 17  1  0  0  0  0
 16 17  1  0  0  0  0
 18 19  1  0  0  0  0
 19 23  1  0  0  0  0
 20 21  2  0  0  0  0
 20 25  1  0  0  0  0
 21 22  1  0  0  0  0
 22 23  2  0  0  0  0
 23 24  1  0  0  0  0
 24 25  2  0  0  0  0
M  END
>  <CHROM.1>
-31.39098980,-174.24886260,61.76209515,54.03103102,98.79054981,-8.34612184
-3.38080436,29.38477894,-2.86776698,-0.43443297,0.84756450

>  <Name>
ligand

>  <RI>
0

>  <Rbt.Current_Directory>
/home/itssahil/PROJECTS/Mol_Feturizer/New_Systems/rnas/4LVV

>  <Rbt.Executable>
rbdock ($Id: //depot/dev/client3/rdock/2013.1/src/exe/rbdock.cxx#4 $)

>  <Rbt.Library>
libRbt.so (2013.1, Build901 2013/11/27)

>  <Rbt.Parameter_File>
/export/apps/rDock/src/rDock_2013.1_src/data/scripts/dock_solv.prm

>  <Rbt.Receptor>
prm/blind_docking_60.prm

>  <SCORE>
-9.72442

>  <SCORE.INTER>
-8.29791

>  <SCORE.INTER.CONST>
1

>  <SCORE.INTER.POLAR>
0

>  <SCORE.INTER.ROT>
5

>  <SCORE.INTER.SOLV>
9.59112

>  <SCORE.INTER.VDW>
-15.6623

>  <SCORE.INTER.norm>
-0.331916

>  <SCORE.INTRA>
-1.42651

>  <SCORE.INTRA.DIHEDRAL>
-0.377998

>  <SCORE.INTRA.DIHEDRAL.0>
3.94806

>  <SCORE.INTRA.POLAR>
0

>  <SCORE.INTRA.POLAR.0>
0

>  <SCORE.INTRA.REPUL>
0

>  <SCORE.INTRA.REPUL.0>
0

>  <SCORE.INTRA.SOLV>
-0.130187

>  <SCORE.INTRA.SOLV.lig_0>
-70.9803

>  <SCORE.INTRA.VDW>
-1.17242

>  <SCORE.INTRA.VDW.0>
-0.709409

>  <SCORE.INTRA.norm>
-0.0570604

>  <SCORE.RESTR>
0

>  <SCORE.RESTR.CAVITY>
0

>  <SCORE.RESTR.norm>
0

>  <SCORE.SYSTEM>
0

>  <SCORE.SYSTEM.CONST>
0

>  <SCORE.SYSTEM.DIHEDRAL>
0

>  <SCORE.SYSTEM.SOLV>
0

>  <SCORE.SYSTEM.norm>
0

>  <SCORE.heavy>
25

>  <SCORE.norm>
-0.388977

>  <RMSD>
24.131

$$$$
ligand
 OpenBabel11021811503D
libRbt.so/2013.1/901 2013/11/27
 25 27  0  0  0  0  0  0  0  0999 V2000
   -2.5190   -2.6644   32.5584 N   0  0  0  0  0  0  0  0  0  0  0  0
   -3.3079   -2.2297   31.4475 C   0  0  0  0  0  0  0  0  0  0  0  0
   -2.7885   -2.0005   30.3622 O   0  0  0  0  0  0  0  0  0  0  0  0
   -7.4106    2.8953   26.6475 N   0  0  0  0  0  0  0  0  0  0  0  0
   -9.0062    1.2862   27.4413 N   0  0  0  0  0  0  0  0  0  0  0  0
   -7.7138    1.6548   27.2841 C   0  0  0  0  0  0  0  0  0  0  0  0
   -6.6933    0.8543   27.7156 N   0  0  0  0  0  0  0  0  0  0  0  0
   -6.9207   -0.3386   28.3222 C   0  0  0  0  0  0  0  0  0  0  0  0
   -8.2597   -0.7535   28.5182 C   0  0  0  0  0  0  0  0  0  0  0  0
   -5.8527   -1.0944   28.7455 O   0  0  0  0  0  0  0  0  0  0  0  0
   -7.9479   -3.2520   28.9165 C   0  0  0  0  0  0  0  0  0  0  0  0
   -8.6558   -2.0122   29.1282 N   0  0  0  0  0  0  0  0  0  0  0  0
   -8.0667   -3.9274   27.8999 O   0  0  0  0  0  0  0  0  0  0  0  0
   -9.8490   -1.9660   29.8603 C   0  0  2  0  0  0  0  0  0  0  0  0
  -11.0004   -1.4761   28.9450 C   0  0  0  0  0  0  0  0  0  0  0  0
   -9.3106    0.0922   28.0414 C   0  0  0  0  0  0  0  0  0  0  0  0
  -10.7101   -0.3006   28.2279 N   0  0  0  0  0  0  0  0  0  0  0  0
   -9.7077   -1.0583   31.0654 C   0  0  0  0  0  0  0  0  0  0  0  0
   -8.9147   -1.5432   32.1609 N   0  0  0  0  0  0  0  0  0  0  0  0
   -4.7784   -2.0769   31.6290 C   0  0  0  0  0  0  0  0  0  0  0  0
   -5.6005   -3.1880   31.7572 C   0  0  0  0  0  0  0  0  0  0  0  0
   -6.9684   -3.0116   31.9262 C   0  0  0  0  0  0  0  0  0  0  0  0
   -7.5092   -1.7285   31.9796 C   0  0  0  0  0  0  0  0  0  0  0  0
   -6.6842   -0.6235   31.8621 C   0  0  0  0  0  0  0  0  0  0  0  0
   -5.3175   -0.7996   31.6819 C   0  0  0  0  0  0  0  0  0  0  0  0
  1  2  1  0  0  0  0
  2  3  2  0  0  0  0
  2 20  1  0  0  0  0
  4  6  1  0  0  0  0
  5  6  2  0  0  0  0
  5 16  1  0  0  0  0
  6  7  1  0  0  0  0
  7  8  1  0  0  0  0
  8  9  1  0  0  0  0
  8 10  2  0  0  0  0
  9 12  1  0  0  0  0
  9 16  2  0  0  0  0
 11 13  1  0  0  0  0
 11 12  1  0  0  0  0
 12 14  1  0  0  0  0
 14 15  1  0  0  0  0
 14 18  1  1  0  0  0
 15 17  1  0  0  0  0
 16 17  1  0  0  0  0
 18 19  1  0  0  0  0
 19 23  1  0  0  0  0
 20 21  2  0  0  0  0
 20 25  1  0  0  0  0
 21 22  1  0  0  0  0
 22 23  2  0  0  0  0
 23 24  1  0  0  0  0
 24 25  2  0  0  0  0
M  END
>  <CHROM.1>
-78.05804737,-72.86525489,66.44305994,-109.24975271,-71.75430549,-7.26697106
-1.18849369,29.70883527,-0.69838745,-0.16330866,-0.79423010

>  <Name>
ligand

>  <RI>
0

>  <Rbt.Current_Directory>
/home/itssahil/PROJECTS/Mol_Feturizer/New_Systems/rnas/4LVV

>  <Rbt.Executable>
rbdock ($Id: //depot/dev/client3/rdock/2013.1/src/exe/rbdock.cxx#4 $)

>  <Rbt.Library>
libRbt.so (2013.1, Build901 2013/11/27)

>  <Rbt.Parameter_File>
/export/apps/rDock/src/rDock_2013.1_src/data/scripts/dock_solv.prm

>  <Rbt.Receptor>
prm/blind_docking_80.prm

>  <SCORE>
-7.62939

>  <SCORE.INTER>
-4.3618

>  <SCORE.INTER.CONST>
1

>  <SCORE.INTER.POLAR>
0

>  <SCORE.INTER.ROT>
5

>  <SCORE.INTER.SOLV>
11.9685

>  <SCORE.INTER.VDW>
-13.8307

>  <SCORE.INTER.norm>
-0.174472

>  <SCORE.INTRA>
-3.26759

>  <SCORE.INTRA.DIHEDRAL>
-0.248444

>  <SCORE.INTRA.DIHEDRAL.0>
3.94806

>  <SCORE.INTRA.POLAR>
0

>  <SCORE.INTRA.POLAR.0>
0

>  <SCORE.INTRA.REPUL>
0

>  <SCORE.INTRA.REPUL.0>
0

>  <SCORE.INTRA.SOLV>
0.676511

>  <SCORE.INTRA.SOLV.lig_0>
-70.9803

>  <SCORE.INTRA.VDW>
-3.48163

>  <SCORE.INTRA.VDW.0>
-0.709409

>  <SCORE.INTRA.norm>
-0.130704

>  <SCORE.RESTR>
0

>  <SCORE.RESTR.CAVITY>
0

>  <SCORE.RESTR.norm>
0

>  <SCORE.SYSTEM>
0

>  <SCORE.SYSTEM.CONST>
0

>  <SCORE.SYSTEM.DIHEDRAL>
0

>  <SCORE.SYSTEM.SOLV>
0

>  <SCORE.SYSTEM.norm>
0

>  <SCORE.heavy>
25

>  <SCORE.norm>
-0.305176

>  <RMSD>
24.477

$$$$
ligand
 OpenBabel11021811503D
libRbt.so/2013.1/901 2013/11/27
 25 27  0  0  0  0  0  0  0  0999 V2000
   -7.4646    4.6225   27.6220 N   0  0  0  0  0  0  0  0  0  0  0  0
   -7.6821    3.5551   26.6955 C   0  0  0  0  0  0  0  0  0  0  0  0
   -8.1336    3.7774   25.5788 O   0  0  0  0  0  0  0  0  0  0  0  0
   -9.8008    0.0475   34.1385 N   0  0  0  0  0  0  0  0  0  0  0  0
   -8.0288   -1.3561   33.3291 N   0  0  0  0  0  0  0  0  0  0  0  0
   -9.2634   -0.8318   33.1514 C   0  0  0  0  0  0  0  0  0  0  0  0
  -10.0090   -1.1381   32.0475 N   0  0  0  0  0  0  0  0  0  0  0  0
   -9.5527   -1.9728   31.0791 C   0  0  0  0  0  0  0  0  0  0  0  0
   -8.2596   -2.5307   31.2210 C   0  0  0  0  0  0  0  0  0  0  0  0
  -10.3445   -2.2335   29.9855 O   0  0  0  0  0  0  0  0  0  0  0  0
   -8.3877   -4.4904   29.5957 C   0  0  0  0  0  0  0  0  0  0  0  0
   -7.6496   -3.4568   30.2809 N   0  0  0  0  0  0  0  0  0  0  0  0
   -8.6318   -4.4568   28.3944 O   0  0  0  0  0  0  0  0  0  0  0  0
   -6.2582   -3.3489   30.1616 C   0  0  2  0  0  0  0  0  0  0  0  0
   -5.6013   -3.5505   31.5514 C   0  0  0  0  0  0  0  0  0  0  0  0
   -7.5055   -2.2105   32.3938 C   0  0  0  0  0  0  0  0  0  0  0  0
   -6.1616   -2.7656   32.5762 N   0  0  0  0  0  0  0  0  0  0  0  0
   -5.8691   -2.0038   29.5822 C   0  0  0  0  0  0  0  0  0  0  0  0
   -6.2536   -1.7404   28.2231 N   0  0  0  0  0  0  0  0  0  0  0  0
   -7.3331    2.1667   27.1070 C   0  0  0  0  0  0  0  0  0  0  0  0
   -8.3075    1.2944   27.5720 C   0  0  0  0  0  0  0  0  0  0  0  0
   -7.9496    0.0052   27.9473 C   0  0  0  0  0  0  0  0  0  0  0  0
   -6.6242   -0.4128   27.8453 C   0  0  0  0  0  0  0  0  0  0  0  0
   -5.6579    0.4571   27.3709 C   0  0  0  0  0  0  0  0  0  0  0  0
   -6.0137    1.7499   27.0059 C   0  0  0  0  0  0  0  0  0  0  0  0
  1  2  1  0  0  0  0
  2  3  2  0  0  0  0
  2 20  1  0  0  0  0
  4  6  1  0  0  0  0
  5  6  2  0  0  0  0
  5 16  1  0  0  0  0
  6  7  1  0  0  0  0
  7  8  1  0  0  0  0
  8  9  1  0  0  0  0
  8 10  2  0  0  0  0
  9 12  1  0  0  0  0
  9 16  2  0  0  0  0
 11 13  1  0  0  0  0
 11 12  1  0  0  0  0
 12 14  1  0  0  0  0
 14 15  1  0  0  0  0
 14 18  1  1  0  0  0
 15 17  1  0  0  0  0
 16 17  1  0  0  0  0
 18 19  1  0  0  0  0
 19 23  1  0  0  0  0
 20 21  2  0  0  0  0
 20 25  1  0  0  0  0
 21 22  1  0  0  0  0
 22 23  2  0  0  0  0
 23 24  1  0  0  0  0
 24 25  2  0  0  0  0
M  END
>  <CHROM.1>
109.38817644,-66.36633223,145.01641274,-89.42920766,98.53546923,-7.74159491
-0.89089871,29.70992715,1.38076929,1.04922919,-0.56388671

>  <Name>
ligand

>  <RI>
0

>  <Rbt.Current_Directory>
/home/itssahil/PROJECTS/Mol_Feturizer/New_Systems/rnas/4LVV

>  <Rbt.Executable>
rbdock ($Id: //depot/dev/client3/rdock/2013.1/src/exe/rbdock.cxx#4 $)

>  <Rbt.Library>
libRbt.so (2013.1, Build901 2013/11/27)

>  <Rbt.Parameter_File>
/export/apps/rDock/src/rDock_2013.1_src/data/scripts/dock_solv.prm

>  <Rbt.Receptor>
prm/blind_docking_80.prm

>  <SCORE>
-8.18947

>  <SCORE.INTER>
-6.67195

>  <SCORE.INTER.CONST>
1

>  <SCORE.INTER.POLAR>
0

>  <SCORE.INTER.ROT>
5

>  <SCORE.INTER.SOLV>
16.4658

>  <SCORE.INTER.VDW>
-16.8699

>  <SCORE.INTER.norm>
-0.266878

>  <SCORE.INTRA>
-1.51752

>  <SCORE.INTRA.DIHEDRAL>
0.340471

>  <SCORE.INTRA.DIHEDRAL.0>
3.94806

>  <SCORE.INTRA.POLAR>
0

>  <SCORE.INTRA.POLAR.0>
0

>  <SCORE.INTRA.REPUL>
0

>  <SCORE.INTRA.REPUL.0>
0

>  <SCORE.INTRA.SOLV>
0.34663

>  <SCORE.INTRA.SOLV.lig_0>
-70.9803

>  <SCORE.INTRA.VDW>
-1.86107

>  <SCORE.INTRA.VDW.0>
-0.709409

>  <SCORE.INTRA.norm>
-0.0607009

>  <SCORE.RESTR>
0

>  <SCORE.RESTR.CAVITY>
0

>  <SCORE.RESTR.norm>
0

>  <SCORE.SYSTEM>
0

>  <SCORE.SYSTEM.CONST>
0

>  <SCORE.SYSTEM.DIHEDRAL>
0

>  <SCORE.SYSTEM.SOLV>
0

>  <SCORE.SYSTEM.norm>
0

>  <SCORE.heavy>
25

>  <SCORE.norm>
-0.327579

>  <RMSD>
25.271

$$$$
ligand
 OpenBabel11021811503D
libRbt.so/2013.1/901 2013/11/27
 25 27  0  0  0  0  0  0  0  0999 V2000
  -11.6947   -3.2232   23.4383 N   0  0  0  0  0  0  0  0  0  0  0  0
  -11.7114   -3.8895   24.7037 C   0  0  0  0  0  0  0  0  0  0  0  0
  -12.0866   -5.0519   24.7944 O   0  0  0  0  0  0  0  0  0  0  0  0
   -3.7998   -2.8350   31.8381 N   0  0  0  0  0  0  0  0  0  0  0  0
   -6.0903   -2.5248   32.4884 N   0  0  0  0  0  0  0  0  0  0  0  0
   -5.0193   -2.0962   31.7813 C   0  0  0  0  0  0  0  0  0  0  0  0
   -5.0824   -0.9617   31.0215 N   0  0  0  0  0  0  0  0  0  0  0  0
   -6.2128   -0.2153   30.9339 C   0  0  0  0  0  0  0  0  0  0  0  0
   -7.3597   -0.6384   31.6476 C   0  0  0  0  0  0  0  0  0  0  0  0
   -6.2186    0.9098   30.1433 O   0  0  0  0  0  0  0  0  0  0  0  0
   -8.7328    1.5090   31.6906 C   0  0  0  0  0  0  0  0  0  0  0  0
   -8.6292    0.0697   31.6695 N   0  0  0  0  0  0  0  0  0  0  0  0
   -8.8040    2.1917   30.6744 O   0  0  0  0  0  0  0  0  0  0  0  0
   -9.7614   -0.7477   31.7786 C   0  0  2  0  0  0  0  0  0  0  0  0
   -9.6551   -1.6125   33.0609 C   0  0  0  0  0  0  0  0  0  0  0  0
   -7.2641   -1.8183   32.4509 C   0  0  0  0  0  0  0  0  0  0  0  0
   -8.4302   -2.2906   33.2024 N   0  0  0  0  0  0  0  0  0  0  0  0
   -9.9096   -1.6301   30.5556 C   0  0  0  0  0  0  0  0  0  0  0  0
   -9.9884   -0.9735   29.2801 N   0  0  0  0  0  0  0  0  0  0  0  0
  -11.2470   -3.1489   25.9097 C   0  0  0  0  0  0  0  0  0  0  0  0
  -10.2370   -3.6581   26.7143 C   0  0  0  0  0  0  0  0  0  0  0  0
   -9.8258   -2.9423   27.8321 C   0  0  0  0  0  0  0  0  0  0  0  0
  -10.4141   -1.7161   28.1356 C   0  0  0  0  0  0  0  0  0  0  0  0
  -11.4132   -1.2073   27.3243 C   0  0  0  0  0  0  0  0  0  0  0  0
  -11.8325   -1.9281   26.2126 C   0  0  0  0  0  0  0  0  0  0  0  0
  1  2  1  0  0  0  0
  2  3  2  0  0  0  0
  2 20  1  0  0  0  0
  4  6  1  0  0  0  0
  5  6  2  0  0  0  0
  5 16  1  0  0  0  0
  6  7  1  0  0  0  0
  7  8  1  0  0  0  0
  8  9  1  0  0  0  0
  8 10  2  0  0  0  0
  9 12  1  0  0  0  0
  9 16  2  0  0  0  0
 11 13  1  0  0  0  0
 11 12  1  0  0  0  0
 12 14  1  0  0  0  0
 14 15  1  0  0  0  0
 14 18  1  6  0  0  0
 15 17  1  0  0  0  0
 16 17  1  0  0  0  0
 18 19  1  0  0  0  0
 19 23  1  0  0  0  0
 20 21  2  0  0  0  0
 20 25  1  0  0  0  0
 21 22  1  0  0  0  0
 22 23  2  0  0  0  0
 23 24  1  0  0  0  0
 24 25  2  0  0  0  0
M  END
>  <CHROM.1>
90.74372069,-56.93821915,-166.56085185,-50.36335634,-124.70066136,-8.82683346
-1.56946156,29.61629593,-2.30859802,-0.56034323,0.76087721

>  <Name>
ligand

>  <RI>
0

>  <Rbt.Current_Directory>
/home/itssahil/PROJECTS/Mol_Feturizer/New_Systems/rnas/4LVV

>  <Rbt.Executable>
rbdock ($Id: //depot/dev/client3/rdock/2013.1/src/exe/rbdock.cxx#4 $)

>  <Rbt.Library>
libRbt.so (2013.1, Build901 2013/11/27)

>  <Rbt.Parameter_File>
/export/apps/rDock/src/rDock_2013.1_src/data/scripts/dock_solv.prm

>  <Rbt.Receptor>
prm/blind_docking_100.prm

>  <SCORE>
-9.02575

>  <SCORE.INTER>
-8.03268

>  <SCORE.INTER.CONST>
1

>  <SCORE.INTER.POLAR>
0

>  <SCORE.INTER.ROT>
5

>  <SCORE.INTER.SOLV>
12.4992

>  <SCORE.INTER.VDW>
-16.4549

>  <SCORE.INTER.norm>
-0.321307

>  <SCORE.INTRA>
-0.993077

>  <SCORE.INTRA.DIHEDRAL>
-0.340586

>  <SCORE.INTRA.DIHEDRAL.0>
3.94806

>  <SCORE.INTRA.POLAR>
0

>  <SCORE.INTRA.POLAR.0>
0

>  <SCORE.INTRA.REPUL>
0

>  <SCORE.INTRA.REPUL.0>
0

>  <SCORE.INTRA.SOLV>
0.52207

>  <SCORE.INTRA.SOLV.lig_0>
-70.9803

>  <SCORE.INTRA.VDW>
-1.08382

>  <SCORE.INTRA.VDW.0>
-0.709409

>  <SCORE.INTRA.norm>
-0.0397231

>  <SCORE.RESTR>
0

>  <SCORE.RESTR.CAVITY>
0

>  <SCORE.RESTR.norm>
0

>  <SCORE.SYSTEM>
0

>  <SCORE.SYSTEM.CONST>
0

>  <SCORE.SYSTEM.DIHEDRAL>
0

>  <SCORE.SYSTEM.SOLV>
0

>  <SCORE.SYSTEM.norm>
0

>  <SCORE.heavy>
25

>  <SCORE.norm>
-0.36103

>  <RMSD>
25.529

$$$$
ligand
 OpenBabel11021811503D
libRbt.so/2013.1/901 2013/11/27
 25 27  0  0  0  0  0  0  0  0999 V2000
   -6.9827    6.4436   25.5702 N   0  0  0  0  0  0  0  0  0  0  0  0
   -8.0174    5.4572   25.6157 C   0  0  0  0  0  0  0  0  0  0  0  0
   -9.1599    5.7318   25.2704 O   0  0  0  0  0  0  0  0  0  0  0  0
  -10.1250   -0.8746   31.2453 N   0  0  0  0  0  0  0  0  0  0  0  0
   -7.9182   -1.2181   30.3635 N   0  0  0  0  0  0  0  0  0  0  0  0
   -9.2570   -1.3476   30.2162 C   0  0  0  0  0  0  0  0  0  0  0  0
   -9.7919   -1.9331   29.1029 N   0  0  0  0  0  0  0  0  0  0  0  0
   -9.0161   -2.4068   28.0948 C   0  0  0  0  0  0  0  0  0  0  0  0
   -7.6108   -2.2772   28.2046 C   0  0  0  0  0  0  0  0  0  0  0  0
   -9.6132   -2.9751   26.9941 O   0  0  0  0  0  0  0  0  0  0  0  0
   -6.8227   -3.9924   26.4913 C   0  0  0  0  0  0  0  0  0  0  0  0
   -6.6554   -2.7579   27.2198 N   0  0  0  0  0  0  0  0  0  0  0  0
   -6.1747   -5.0057   26.7301 O   0  0  0  0  0  0  0  0  0  0  0  0
   -5.4915   -1.9882   27.0990 C   0  0  2  0  0  0  0  0  0  0  0  0
   -4.7822   -1.9010   28.4748 C   0  0  0  0  0  0  0  0  0  0  0  0
   -7.0733   -1.6781   29.3873 C   0  0  0  0  0  0  0  0  0  0  0  0
   -5.6237   -1.5231   29.5374 N   0  0  0  0  0  0  0  0  0  0  0  0
   -5.8134   -0.6012   26.5803 C   0  0  0  0  0  0  0  0  0  0  0  0
   -6.6268    0.2379   27.4161 N   0  0  0  0  0  0  0  0  0  0  0  0
   -7.6766    4.0820   26.0753 C   0  0  0  0  0  0  0  0  0  0  0  0
   -8.3577    2.9767   25.5843 C   0  0  0  0  0  0  0  0  0  0  0  0
   -8.0152    1.7067   26.0326 C   0  0  0  0  0  0  0  0  0  0  0  0
   -6.9869    1.5432   26.9585 C   0  0  0  0  0  0  0  0  0  0  0  0
   -6.3034    2.6473   27.4372 C   0  0  0  0  0  0  0  0  0  0  0  0
   -6.6530    3.9184   26.9975 C   0  0  0  0  0  0  0  0  0  0  0  0
  1  2  1  0  0  0  0
  2  3  2  0  0  0  0
  2 20  1  0  0  0  0
  4  6  1  0  0  0  0
  5  6  2  0  0  0  0
  5 16  1  0  0  0  0
  6  7  1  0  0  0  0
  7  8  1  0  0  0  0
  8  9  1  0  0  0  0
  8 10  2  0  0  0  0
  9 12  1  0  0  0  0
  9 16  2  0  0  0  0
 11 13  1  0  0  0  0
 11 12  1  0  0  0  0
 12 14  1  0  0  0  0
 14 15  1  0  0  0  0
 14 18  1  1  0  0  0
 15 17  1  0  0  0  0
 16 17  1  0  0  0  0
 18 19  1  0  0  0  0
 19 23  1  0  0  0  0
 20 21  2  0  0  0  0
 20 25  1  0  0  0  0
 21 22  1  0  0  0  0
 22 23  2  0  0  0  0
 23 24  1  0  0  0  0
 24 25  2  0  0  0  0
M  END
>  <CHROM.1>
-105.61013363,64.21003337,-178.45822026,78.65258864,-149.15188213,-7.46552257
-0.00033532,27.54192947,-1.62962768,-0.67255091,2.80701958

>  <Name>
ligand

>  <RI>
0

>  <Rbt.Current_Directory>
/home/itssahil/PROJECTS/Mol_Feturizer/New_Systems/rnas/4LVV

>  <Rbt.Executable>
rbdock ($Id: //depot/dev/client3/rdock/2013.1/src/exe/rbdock.cxx#4 $)

>  <Rbt.Library>
libRbt.so (2013.1, Build901 2013/11/27)

>  <Rbt.Parameter_File>
/export/apps/rDock/src/rDock_2013.1_src/data/scripts/dock_solv.prm

>  <Rbt.Receptor>
prm/blind_docking_40.prm

>  <SCORE>
-11.6193

>  <SCORE.INTER>
-11.2171

>  <SCORE.INTER.CONST>
1

>  <SCORE.INTER.POLAR>
0

>  <SCORE.INTER.ROT>
5

>  <SCORE.INTER.SOLV>
11.0442

>  <SCORE.INTER.VDW>
-18.0928

>  <SCORE.INTER.norm>
-0.448683

>  <SCORE.INTRA>
-0.402252

>  <SCORE.INTRA.DIHEDRAL>
-0.691823

>  <SCORE.INTRA.DIHEDRAL.0>
3.94806

>  <SCORE.INTRA.POLAR>
0

>  <SCORE.INTRA.POLAR.0>
0

>  <SCORE.INTRA.REPUL>
0

>  <SCORE.INTRA.REPUL.0>
0

>  <SCORE.INTRA.SOLV>
2.13504

>  <SCORE.INTRA.SOLV.lig_0>
-70.9803

>  <SCORE.INTRA.VDW>
-1.12386

>  <SCORE.INTRA.VDW.0>
-0.709409

>  <SCORE.INTRA.norm>
-0.0160901

>  <SCORE.RESTR>
0

>  <SCORE.RESTR.CAVITY>
0

>  <SCORE.RESTR.norm>
0

>  <SCORE.SYSTEM>
0

>  <SCORE.SYSTEM.CONST>
0

>  <SCORE.SYSTEM.DIHEDRAL>
0

>  <SCORE.SYSTEM.SOLV>
0

>  <SCORE.SYSTEM.norm>
0

>  <SCORE.heavy>
25

>  <SCORE.norm>
-0.464773

>  <RMSD>
25.689

$$$$
