@<TRIPOS>MOLECULE
4LVV_rdock.pdb
 1913 2142 0 0 0
SMALL
GASTEIGER

@<TRIPOS>ATOM
      1  P         12.3300  -43.4630   25.3390 P.3     1  G1          0.1280
      2  C5'       14.5820  -42.9870   24.0450 C.3     1  G1          0.1795
      3  O5'       13.1990  -42.7030   24.2310 O.3     1  G1         -0.3259
      4  C4'       14.9240  -43.2530   22.5940 C.3     1  G1          0.1772
      5  O4'       14.4270  -44.5590   22.1890 O.3     1  G1         -0.3307
      6  C3'       14.3300  -42.3060   21.5620 C.3     1  G1          0.1860
      7  O3'       15.0190  -41.0760   21.4470 O.3     1  G1         -0.3112
      8  C2'       14.3780  -43.1310   20.2900 C.3     1  G1          0.2309
      9  O2'       15.6910  -43.1350   19.7540 O.3     1  G1         -0.2156
     10  C1'       14.0460  -44.5270   20.8270 C.3     1  G1          0.2408
     11  N1        10.1500  -45.0730   17.6820 N.ar    1  G1         -0.1709
     12  C2        11.4840  -44.8380   17.4120 C.ar    1  G1          0.2606
     13  N2        11.8550  -44.7240   16.1270 N.pl3   1  G1         -0.0859
     14  N3        12.4040  -44.7170   18.3490 N.ar    1  G1         -0.1918
     15  C4        11.8820  -44.8540   19.5830 C.ar    1  G1          0.1723
     16  C5        10.5730  -45.0850   19.9660 C.ar    1  G1          0.1748
     17  C6         9.5920  -45.2190   18.9580 C.ar    1  G1          0.3023
     18  O6         8.3840  -45.4340   19.1090 O.2     1  G1         -0.2633
     19  N7        10.4570  -45.1580   21.3460 N.ar    1  G1         -0.2173
     20  C8        11.6870  -44.9710   21.7680 C.ar    1  G1          0.1817
     21  N9        12.5980  -44.7890   20.7450 N.ar    1  G1         -0.2693
     22  OP1       13.1830  -43.9100   26.4790 O.3     1  G1         -0.1955
     23  OP2       11.1300  -42.6280   25.6120 O.co2   1  G1         -0.7863
     24  P         14.1920  -39.7410   21.0900 P.3     2  G2          0.2141
     25  C5'       14.8680  -39.9570   18.5620 C.3     2  G2          0.1812
     26  O5'       13.8410  -39.8900   19.5400 O.3     2  G2         -0.3114
     27  C4'       14.2990  -40.1110   17.1750 C.3     2  G2          0.1773
     28  O4'       13.6380  -41.4030   17.0540 O.3     2  G2         -0.3307
     29  C3'       13.2160  -39.1180   16.7850 C.3     2  G2          0.1860
     30  O3'       13.7170  -37.8500   16.4000 O.3     2  G2         -0.3112
     31  C2'       12.4870  -39.8520   15.6710 C.3     2  G2          0.2309
     32  O2'       13.2440  -39.8070   14.4690 O.3     2  G2         -0.2156
     33  C1'       12.5040  -41.2830   16.2140 C.3     2  G2          0.2408
     34  N1         7.5270  -42.2260   16.0920 N.ar    2  G2         -0.1709
     35  C2         8.4020  -41.9980   15.0470 C.ar    2  G2          0.2606
     36  N2         7.8920  -42.0220   13.7950 N.pl3   2  G2         -0.0859
     37  N3         9.6940  -41.7590   15.2220 N.ar    2  G2         -0.1918
     38  C4        10.0370  -41.7730   16.5290 C.ar    2  G2          0.1723
     39  C5         9.2450  -41.9890   17.6400 C.ar    2  G2          0.1748
     40  C6         7.8620  -42.2450   17.4510 C.ar    2  G2          0.3023
     41  O6         6.9940  -42.4630   18.3110 O.2     2  G2         -0.2633
     42  N7        10.0010  -41.9050   18.8040 N.ar    2  G2         -0.2173
     43  C8        11.2160  -41.6510   18.3880 C.ar    2  G2          0.1817
     44  N9        11.3010  -41.5640   17.0200 N.ar    2  G2         -0.2693
     45  OP1       15.1120  -38.5790   21.2450 O.2     2  G2         -0.5172
     46  OP2       12.9150  -39.8260   21.8630 O.co2   2  G2         -0.4373
     47  P         12.8140  -36.5380   16.6160 P.3     3  A3          0.2141
     48  C5'       11.9000  -36.6120   14.1630 C.3     3  A3          0.1812
     49  O5'       11.6370  -36.6960   15.5530 O.3     3  A3         -0.3114
     50  C4'       10.6790  -36.9710   13.3550 C.3     3  A3          0.1773
     51  O4'       10.2320  -38.3120   13.6990 O.3     3  A3         -0.3307
     52  C3'        9.4380  -36.1200   13.5750 C.3     3  A3          0.1860
     53  O3'        9.4840  -34.8710   12.9090 O.3     3  A3         -0.3112
     54  C2'        8.3400  -37.0440   13.0750 C.3     3  A3          0.2309
     55  O2'        8.3950  -37.1450   11.6590 O.3     3  A3         -0.2156
     56  C1'        8.8190  -38.3720   13.6430 C.3     3  A3          0.2408
     57  N1         4.7390  -39.6730   16.5010 N.ar    3  A3         -0.2040
     58  C2         4.9120  -39.5620   15.1750 C.ar    3  A3          0.2016
     59  N3         6.0090  -39.2120   14.5040 N.ar    3  A3         -0.2048
     60  C4         7.0300  -38.9610   15.3460 C.ar    3  A3          0.1692
     61  C5         7.0070  -39.0280   16.7280 C.ar    3  A3          0.1518
     62  C6         5.7870  -39.4050   17.3240 C.ar    3  A3          0.1919
     63  N6         5.6090  -39.5160   18.6470 N.pl3   3  A3         -0.1054
     64  N7         8.2500  -38.6900   17.2560 N.ar    3  A3         -0.2193
     65  C8         8.9840  -38.4250   16.1970 C.ar    3  A3          0.1816
     66  N9         8.3070  -38.5820   15.0080 N.ar    3  A3         -0.2693
     67  OP1       13.6620  -35.3900   16.2100 O.2     3  A3         -0.5172
     68  OP2       12.1810  -36.5820   17.9660 O.co2   3  A3         -0.4373
     69  P          8.6770  -33.6020   13.4910 P.3     4  G4          0.2141
     70  C5'        6.4320  -34.1570   12.2550 C.3     4  G4          0.1812
     71  O5'        7.1390  -34.0500   13.4840 O.3     4  G4         -0.3114
     72  C4'        5.0580  -34.7680   12.4110 C.3     4  G4          0.1773
     73  O4'        5.1080  -36.0110   13.1650 O.3     4  G4         -0.3307
     74  C3'        4.0170  -33.9480   13.1470 C.3     4  G4          0.1860
     75  O3'        3.4950  -32.8990   12.3490 O.3     4  G4         -0.3112
     76  C2'        2.9820  -35.0070   13.4960 C.3     4  G4          0.2309
     77  O2'        2.2320  -35.3510   12.3400 O.3     4  G4         -0.2156
     78  C1'        3.8840  -36.1970   13.8490 C.3     4  G4          0.2408
     79  N1         1.9670  -37.5030   18.3740 N.ar    4  G4         -0.1709
     80  C2         1.4170  -37.6110   17.1000 C.ar    4  G4          0.2606
     81  N2         0.1810  -38.1390   17.0180 N.pl3   4  G4         -0.0859
     82  N3         2.0320  -37.2230   15.9830 N.ar    4  G4         -0.1918
     83  C4         3.2610  -36.7170   16.2440 C.ar    4  G4          0.1723
     84  C5         3.9020  -36.5610   17.4630 C.ar    4  G4          0.1748
     85  C6         3.2380  -36.9730   18.6560 C.ar    4  G4          0.3023
     86  O6         3.6610  -36.9090   19.8280 O.2     4  G4         -0.2633
     87  N7         5.1620  -36.0010   17.2850 N.ar    4  G4         -0.2173
     88  C8         5.2620  -35.8330   15.9890 C.ar    4  G4          0.1817
     89  N9         4.1430  -36.2540   15.3020 N.ar    4  G4         -0.2693
     90  OP1        8.8750  -32.5500   12.4590 O.2     4  G4         -0.5172
     91  OP2        9.0720  -33.3390   14.9060 O.co2   4  G4         -0.4373
     92  P          2.9230  -31.5520   13.0190 P.3     5  A5          0.2141
     93  C5'        0.5090  -32.3340   12.3270 C.3     5  A5          0.1812
     94  O5'        1.4040  -31.9060   13.3400 O.3     5  A5         -0.3114
     95  C4'       -0.7580  -32.8780   12.9360 C.3     5  A5          0.1773
     96  O4'       -0.4330  -34.0200   13.7620 O.3     5  A5         -0.3307
     97  C3'       -1.4940  -31.9300   13.8680 C.3     5  A5          0.1860
     98  O3'       -2.3560  -31.0570   13.1570 O.3     5  A5         -0.3112
     99  C2'       -2.2280  -32.8670   14.8260 C.3     5  A5          0.2309
    100  O2'       -3.4770  -33.2830   14.2900 O.3     5  A5         -0.2156
    101  C1'       -1.2900  -34.0800   14.8790 C.3     5  A5          0.2408
    102  N1        -0.9730  -35.4430   19.8640 N.ar    5  A5         -0.2040
    103  C2        -1.9800  -35.5310   18.9800 C.ar    5  A5          0.2016
    104  N3        -1.9960  -35.1620   17.6980 N.ar    5  A5         -0.2048
    105  C4        -0.8110  -34.6360   17.3310 C.ar    5  A5          0.1692
    106  C5         0.3100  -34.4820   18.1270 C.ar    5  A5          0.1518
    107  C6         0.2090  -34.9110   19.4580 C.ar    5  A5          0.1919
    108  N6         1.2260  -34.8270   20.3210 N.pl3   5  A5         -0.1054
    109  N7         1.3520  -33.9030   17.4160 N.ar    5  A5         -0.2193
    110  C8         0.8510  -33.7180   16.2150 C.ar    5  A5          0.1816
    111  N9        -0.4580  -34.1280   16.0960 N.ar    5  A5         -0.2693
    112  OP1        2.9780  -30.4810   11.9890 O.2     5  A5         -0.5172
    113  OP2        3.6120  -31.3420   14.3190 O.co2   5  A5         -0.4373
    114  P         -2.2330  -29.4660   13.3330 P.3     6  G6          0.2141
    115  C5'       -4.3360  -29.5540   14.8800 C.3     6  G6          0.1812
    116  O5'       -2.9720  -29.2080   14.7170 O.3     6  G6         -0.3114
    117  C4'       -4.6410  -29.7760   16.3330 C.3     6  G6          0.1773
    118  O4'       -3.8710  -30.9120   16.7920 O.3     6  G6         -0.3307
    119  C3'       -4.2310  -28.6560   17.2760 C.3     6  G6          0.1860
    120  O3'       -5.1700  -27.5940   17.3240 O.3     6  G6         -0.3112
    121  C2'       -4.0630  -29.3880   18.6010 C.3     6  G6          0.2309
    122  O2'       -5.3260  -29.6610   19.1950 O.3     6  G6         -0.2156
    123  C1'       -3.4690  -30.7140   18.1320 C.3     6  G6          0.2408
    124  N1         0.4200  -32.0940   20.9980 N.ar    6  G6         -0.1709
    125  C2        -0.9350  -32.2550   21.2050 C.ar    6  G6          0.2606
    126  N2        -1.3190  -32.8680   22.3490 N.pl3   6  G6         -0.0859
    127  N3        -1.8450  -31.8280   20.3430 N.ar    6  G6         -0.1918
    128  C4        -1.2870  -31.2290   19.2670 C.ar    6  G6          0.1723
    129  C5         0.0440  -31.0230   18.9690 C.ar    6  G6          0.1748
    130  C6         1.0250  -31.4770   19.8980 C.ar    6  G6          0.3023
    131  O6         2.2690  -31.3880   19.8400 O.2     6  G6         -0.2633
    132  N7         0.1680  -30.3700   17.7480 N.ar    6  G6         -0.2173
    133  C8        -1.0660  -30.2060   17.3340 C.ar    6  G6          0.1817
    134  N9        -1.9950  -30.7140   18.2110 N.ar    6  G6         -0.2693
    135  OP1       -3.0420  -28.7990   12.2690 O.2     6  G6         -0.5172
    136  OP2       -0.7970  -29.1000   13.4940 O.co2   6  G6         -0.4373
    137  P         -4.6800  -26.0770   17.5590 P.3     7  U7          0.2141
    138  C5'       -5.8330  -26.0830   19.9240 C.3     7  U7          0.1812
    139  O5'       -4.6520  -25.9090   19.1510 O.3     7  U7         -0.3114
    140  C4'       -5.7290  -25.4430   21.2920 C.3     7  U7          0.1773
    141  O4'       -4.5070  -25.8660   21.9610 O.3     7  U7         -0.3307
    142  C3'       -5.6470  -23.9230   21.3500 C.3     7  U7          0.1860
    143  O3'       -6.8820  -23.2640   21.1300 O.3     7  U7         -0.3112
    144  C2'       -5.0810  -23.7060   22.7440 C.3     7  U7          0.2309
    145  O2'       -6.0560  -23.9940   23.7360 O.3     7  U7         -0.2156
    146  C1'       -4.0340  -24.8170   22.7880 C.3     7  U7          0.2420
    147  N1        -2.7500  -24.3100   22.2580 N.ar    7  U7         -0.2534
    148  C2        -2.1060  -23.4160   23.0860 C.ar    7  U7          0.3546
    149  O2        -2.5220  -23.0870   24.1880 O.2     7  U7         -0.2443
    150  N3        -0.9380  -22.9200   22.5930 N.ar    7  U7         -0.1530
    151  C4        -0.3560  -23.2000   21.3830 C.ar    7  U7          0.2846
    152  O4         0.7160  -22.6460   21.1320 O.2     7  U7         -0.2650
    153  C5        -1.0930  -24.1110   20.5550 C.ar    7  U7          0.0814
    154  C6        -2.2470  -24.6290   21.0120 C.ar    7  U7          0.0870
    155  OP1       -5.7480  -25.1960   17.0100 O.2     7  U7         -0.5172
    156  OP2       -3.2780  -25.9060   17.0820 O.co2   7  U7         -0.4373
    157  P         -6.9250  -21.7580   20.5440 P.3     8  A8          0.2141
    158  C5'       -7.0290  -20.7980   22.9750 C.3     8  A8          0.1812
    159  O5'       -6.3660  -20.8450   21.7230 O.3     8  A8         -0.3114
    160  C4'       -6.2960  -19.8960   23.9310 C.3     8  A8          0.1773
    161  O4'       -4.9850  -20.4520   24.2070 O.3     8  A8         -0.3307
    162  C3'       -6.0040  -18.4920   23.4240 C.3     8  A8          0.1860
    163  O3'       -7.1120  -17.6240   23.5790 O.3     8  A8         -0.3112
    164  C2'       -4.7990  -18.0890   24.2530 C.3     8  A8          0.2309
    165  O2'       -5.2170  -17.7620   25.5640 O.3     8  A8         -0.2156
    166  C1'       -4.0390  -19.4140   24.3380 C.3     8  A8          0.2408
    167  N1         0.7410  -18.3670   22.7260 N.ar    8  A8         -0.2040
    168  C2         0.1020  -18.0720   23.8700 C.ar    8  A8          0.2016
    169  N3        -1.1410  -18.3830   24.2250 N.ar    8  A8         -0.2048
    170  C4        -1.7610  -19.0620   23.2460 C.ar    8  A8          0.1692
    171  C5        -1.2370  -19.4360   22.0240 C.ar    8  A8          0.1518
    172  C6         0.0960  -19.0610   21.7590 C.ar    8  A8          0.1919
    173  N6         0.7410  -19.3520   20.6080 N.pl3   8  A8         -0.1054
    174  N7        -2.1750  -20.1540   21.2740 N.ar    8  A8         -0.2193
    175  C8        -3.2320  -20.1940   22.0490 C.ar    8  A8          0.1816
    176  N9        -3.0470  -19.5500   23.2550 N.ar    8  A8         -0.2693
    177  OP1       -8.3700  -21.4800   20.3650 O.3     8  A8         -0.4373
    178  OP2       -5.9530  -21.5810   19.4290 O.co2   8  A8         -0.5172
    179  P         -7.4560  -16.5190   22.4570 P.3     9  G9          0.2141
    180  C5'       -5.6460  -14.9050   21.4920 C.3     9  G9          0.1812
    181  O5'       -6.2780  -15.4750   22.6220 O.3     9  G9         -0.3114
    182  C4'       -4.1540  -14.8890   21.6780 C.3     9  G9          0.1773
    183  O4'       -3.6490  -16.2520   21.6070 O.3     9  G9         -0.3307
    184  C3'       -3.3740  -14.1540   20.6070 C.3     9  G9          0.1860
    185  O3'       -3.3610  -12.7530   20.8030 O.3     9  G9         -0.3112
    186  C2'       -2.0050  -14.8130   20.6940 C.3     9  G9          0.2309
    187  O2'       -1.3030  -14.3280   21.8270 O.3     9  G9         -0.2156
    188  C1'       -2.3990  -16.2690   20.9530 C.3     9  G9          0.2408
    189  N1        -0.3080  -18.0380   16.6340 N.ar    9  G9         -0.1709
    190  C2         0.2810  -17.3240   17.6440 C.ar    9  G9          0.2606
    191  N2         1.5780  -17.0360   17.4760 N.pl3   9  G9         -0.0859
    192  N3        -0.3500  -16.9100   18.7340 N.ar    9  G9         -0.1918
    193  C4        -1.6410  -17.3010   18.7230 C.ar    9  G9          0.1723
    194  C5        -2.3180  -18.0130   17.7660 C.ar    9  G9          0.1748
    195  C6        -1.6350  -18.4540   16.6070 C.ar    9  G9          0.3023
    196  O6        -2.0910  -19.1220   15.6540 O.2     9  G9         -0.2633
    197  N7        -3.6440  -18.2010   18.1250 N.ar    9  G9         -0.2173
    198  C8        -3.7500  -17.6020   19.2790 C.ar    9  G9          0.1817
    199  N9        -2.5740  -17.0330   19.6990 N.ar    9  G9         -0.2693
    200  OP1       -8.6980  -15.8360   22.8950 O.3     9  G9         -0.4373
    201  OP2       -7.4140  -17.1080   21.0870 O.co2   9  G9         -0.5172
    202  P         -3.3670  -11.7500   19.5390 P.3    10  A10         0.2141
    203  C5'       -0.7530  -11.7640   19.5120 C.3    10  A10         0.1812
    204  O5'       -1.9720  -12.0490   18.8400 O.3    10  A10        -0.3114
    205  C4'        0.4060  -12.0790   18.6150 C.3    10  A10         0.1773
    206  O4'        0.3890  -13.4880   18.3040 O.3    10  A10        -0.3307
    207  C3'        0.3510  -11.4040   17.2600 C.3    10  A10         0.1860
    208  O3'        0.8430  -10.0790   17.3140 O.3    10  A10        -0.3112
    209  C2'        1.1700  -12.3400   16.3860 C.3    10  A10         0.2309
    210  O2'        2.5510  -12.1320   16.6190 O.3    10  A10        -0.2156
    211  C1'        0.8010  -13.6970   16.9730 C.3    10  A10         0.2408
    212  N1        -0.7090  -16.2720   12.7620 N.ar   10  A10        -0.2040
    213  C2         0.4700  -15.7350   13.1010 C.ar   10  A10         0.2016
    214  N3         0.7990  -15.0710   14.2050 N.ar   10  A10        -0.2048
    215  C4        -0.2590  -14.9800   15.0330 C.ar   10  A10         0.1692
    216  C5        -1.5370  -15.4710   14.8160 C.ar   10  A10         0.1518
    217  C6        -1.7570  -16.1520   13.6060 C.ar   10  A10         0.1919
    218  N6        -2.9300  -16.6870   13.2440 N.pl3  10  A10        -0.1054
    219  N7        -2.3700  -15.1850   15.8970 N.ar   10  A10        -0.2193
    220  C8        -1.5870  -14.5340   16.7250 C.ar   10  A10         0.1816
    221  N9        -0.3020  -14.3660   16.2610 N.ar   10  A10        -0.2693
    222  OP1       -3.2820  -10.3800   20.0810 O.3    10  A10        -0.4373
    223  OP2       -4.4420  -12.1600   18.6010 O.co2  10  A10        -0.5172
    224  P          0.2140   -8.9520   16.3660 P.3    11  U11         0.2141
    225  C5'        2.2090   -9.1550   14.6960 C.3    11  U11         0.1812
    226  O5'        0.8200   -9.2940   14.9360 O.3    11  U11        -0.3114
    227  C4'        2.5650   -9.6870   13.3370 C.3    11  U11         0.1773
    228  O4'        2.3210  -11.1210   13.2800 O.3    11  U11        -0.3307
    229  C3'        1.7380   -9.1460   12.1900 C.3    11  U11         0.1860
    230  O3'        2.1270   -7.8400   11.8020 O.3    11  U11        -0.3112
    231  C2'        1.9550  -10.2080   11.1250 C.3    11  U11         0.2309
    232  O2'        3.2620  -10.0830   10.5880 O.3    11  U11        -0.2156
    233  C1'        1.9190  -11.4800   11.9780 C.3    11  U11         0.2420
    234  N1         0.5590  -12.0460   12.0490 N.ar   11  U11        -0.2534
    235  C2         0.1290  -12.7610   10.9600 C.ar   11  U11         0.3546
    236  O2         0.8360  -12.9310    9.9850 O.2    11  U11        -0.2443
    237  N3        -1.1460  -13.2640   11.0470 N.ar   11  U11        -0.1530
    238  C4        -2.0160  -13.1130   12.1000 C.ar   11  U11         0.2846
    239  O4        -3.1370  -13.6220   12.0370 O.2    11  U11        -0.2650
    240  C5        -1.5030  -12.3450   13.1920 C.ar   11  U11         0.0814
    241  C6        -0.2610  -11.8550   13.1310 C.ar   11  U11         0.0870
    242  OP1        0.7940   -7.6670   16.8190 O.3    11  U11        -0.4373
    243  OP2       -1.2490   -9.1670   16.2320 O.co2  11  U11        -0.5172
    244  P          1.0500   -6.8020   11.2020 P.3    12  G12         0.2141
    245  C5'        1.5790   -7.4620    8.7310 C.3    12  G12         0.1812
    246  O5'        0.6480   -7.4300    9.7970 O.3    12  G12        -0.3114
    247  C4'        1.0770   -8.3010    7.5860 C.3    12  G12         0.1773
    248  O4'        0.7610   -9.6300    8.0530 O.3    12  G12        -0.3307
    249  C3'       -0.2040   -7.8430    6.9170 C.3    12  G12         0.1860
    250  O3'        0.0140   -6.7680    6.0190 O.3    12  G12        -0.3112
    251  C2'       -0.6900   -9.1230    6.2440 C.3    12  G12         0.2309
    252  O2'        0.0360   -9.3620    5.0510 O.3    12  G12        -0.2156
    253  C1'       -0.2710  -10.1800    7.2630 C.3    12  G12         0.2408
    254  N1        -4.6330  -12.7230    7.6270 N.ar   12  G12        -0.1709
    255  C2        -3.8060  -12.5530    6.5410 C.ar   12  G12         0.2606
    256  N2        -4.1980  -13.1360    5.3970 N.pl3  12  G12        -0.0859
    257  N3        -2.6830  -11.8570    6.5680 N.ar   12  G12        -0.1918
    258  C4        -2.4530  -11.3500    7.7940 C.ar   12  G12         0.1723
    259  C5        -3.2070  -11.4630    8.9430 C.ar   12  G12         0.1748
    260  C6        -4.4110  -12.2040    8.9060 C.ar   12  G12         0.3023
    261  O6        -5.2170  -12.4150    9.8320 O.2    12  G12        -0.2633
    262  N7        -2.6070  -10.7740    9.9950 N.ar   12  G12        -0.2173
    263  C8        -1.5200  -10.2600    9.4760 C.ar   12  G12         0.1817
    264  N9        -1.3750  -10.5780    8.1480 N.ar   12  G12        -0.2693
    265  OP1        1.8180   -5.5410   11.0220 O.2    12  G12        -0.5172
    266  OP2       -0.2020   -6.7630   11.9910 O.co2  12  G12        -0.4373
    267  P         -1.1640   -5.7260    5.6660 P.3    13  A13         0.2141
    268  C5'       -1.5100   -7.0890    3.4640 C.3    13  A13         0.1812
    269  O5'       -2.0760   -6.5450    4.6460 O.3    13  A13        -0.3114
    270  C4'       -2.5050   -7.9270    2.7060 C.3    13  A13         0.1773
    271  O4'       -2.7160   -9.1800    3.4020 O.3    13  A13        -0.3307
    272  C3'       -3.9010   -7.3380    2.5630 C.3    13  A13         0.1860
    273  O3'       -3.9850   -6.4020    1.5010 O.3    13  A13        -0.3112
    274  C2'       -4.7670   -8.5780    2.3660 C.3    13  A13         0.2309
    275  O2'       -4.6660   -9.0580    1.0310 O.3    13  A13        -0.2156
    276  C1'       -4.0680   -9.5750    3.2890 C.3    13  A13         0.2408
    277  N1        -7.7290  -11.2970    6.5150 N.ar   13  A13        -0.2040
    278  C2        -7.5280  -11.5120    5.2040 C.ar   13  A13         0.2016
    279  N3        -6.5690  -11.0440    4.4080 N.ar   13  A13        -0.2048
    280  C4        -5.7380  -10.2510    5.1080 C.ar   13  A13         0.1692
    281  C5        -5.8200   -9.9330    6.4530 C.ar   13  A13         0.1518
    282  C6        -6.8720  -10.4940    7.1810 C.ar   13  A13         0.1919
    283  N6        -7.0520  -10.2540    8.4850 N.pl3  13  A13        -0.1054
    284  N7        -4.7960   -9.0860    6.8400 N.ar   13  A13        -0.2193
    285  C8        -4.1190   -8.9070    5.7320 C.ar   13  A13         0.1816
    286  N9        -4.6330   -9.5770    4.6490 N.ar   13  A13        -0.2693
    287  OP1       -0.5060   -4.5960    4.9540 O.2    13  A13        -0.5172
    288  OP2       -1.9750   -5.4180    6.8790 O.co2  13  A13        -0.4373
    289  P         -4.9630   -5.1270    1.5880 P.3    14  U14         0.2141
    290  C5'       -6.8210   -6.3000    0.1710 C.3    14  U14         0.1812
    291  O5'       -6.4180   -5.7570    1.4170 O.3    14  U14        -0.3114
    292  C4'       -8.0830   -7.1180    0.2970 C.3    14  U14         0.1773
    293  O4'       -7.8870   -8.1870    1.2540 O.3    14  U14        -0.3307
    294  C3'       -9.3170   -6.3950    0.8140 C.3    14  U14         0.1860
    295  O3'       -9.9680   -5.6090   -0.1670 O.3    14  U14        -0.3112
    296  C2'      -10.1720   -7.5390    1.3260 C.3    14  U14         0.2309
    297  O2'      -10.8060   -8.2030    0.2470 O.3    14  U14        -0.2156
    298  C1'       -9.1070   -8.4650    1.9130 C.3    14  U14         0.2420
    299  N1        -8.9330   -8.2240    3.3630 N.ar   14  U14        -0.2534
    300  C2        -9.9290   -8.6890    4.2020 C.ar   14  U14         0.3546
    301  O2       -10.9120   -9.2930    3.7990 O.2    14  U14        -0.2443
    302  N3        -9.7300   -8.4270    5.5330 N.ar   14  U14        -0.1530
    303  C4        -8.6600   -7.7690    6.0940 C.ar   14  U14         0.2846
    304  O4        -8.6230   -7.6210    7.3150 O.2    14  U14        -0.2650
    305  C5        -7.6750   -7.3110    5.1620 C.ar   14  U14         0.0814
    306  C6        -7.8440   -7.5440    3.8580 C.ar   14  U14         0.0870
    307  OP1       -4.6330   -4.3110    0.3910 O.2    14  U14        -0.5172
    308  OP2       -4.8740   -4.4860    2.9220 O.co2  14  U14        -0.4373
    309  P        -10.7730   -4.2890    0.2660 P.3    15  U15         0.2141
    310  C5'      -12.9940   -5.6790    0.4550 C.3    15  U15         0.1812
    311  O5'      -12.0290   -4.8450    1.0810 O.3    15  U15        -0.3114
    312  C4'      -14.0180   -6.1880    1.4410 C.3    15  U15         0.1773
    313  O4'      -13.3770   -7.0650    2.4100 O.3    15  U15        -0.3307
    314  C3'      -14.7160   -5.1400    2.3040 C.3    15  U15         0.1860
    315  O3'      -15.7680   -4.4580    1.6320 O.3    15  U15        -0.3112
    316  C2'      -15.1800   -5.9630    3.5030 C.3    15  U15         0.2309
    317  O2'      -16.3320   -6.7300    3.1800 O.3    15  U15        -0.2156
    318  C1'      -14.0030   -6.9270    3.6750 C.3    15  U15         0.2420
    319  N1       -13.0140   -6.4200    4.6610 N.ar   15  U15        -0.2534
    320  C2       -13.2600   -6.7070    5.9860 C.ar   15  U15         0.3546
    321  O2       -14.2340   -7.3550    6.3360 O.2    15  U15        -0.2443
    322  N3       -12.3220   -6.2190    6.8700 N.ar   15  U15        -0.1530
    323  C4       -11.1890   -5.4870    6.5640 C.ar   15  U15         0.2846
    324  O4       -10.4370   -5.1150    7.4670 O.2    15  U15        -0.2650
    325  C5       -11.0050   -5.2210    5.1700 C.ar   15  U15         0.0814
    326  C6       -11.9050   -5.6860    4.2980 C.ar   15  U15         0.0870
    327  OP1      -11.2480   -3.6820   -1.0090 O.2    15  U15        -0.5172
    328  OP2       -9.9320   -3.4600    1.1780 O.co2  15  U15        -0.4373
    329  P        -16.1790   -2.9520    2.0460 P.3    16  C16         0.2141
    330  C5'      -18.1900   -3.8920    3.4570 C.3    16  C16         0.1812
    331  O5'      -16.9940   -3.1210    3.4070 O.3    16  C16        -0.3114
    332  C4'      -18.6460   -4.1110    4.8780 C.3    16  C16         0.1773
    333  O4'      -17.6870   -4.9550    5.5610 O.3    16  C16        -0.3307
    334  C3'      -18.7290   -2.8650    5.7470 C.3    16  C16         0.1860
    335  O3'      -19.9280   -2.1320    5.5670 O.3    16  C16        -0.3112
    336  C2'      -18.5580   -3.4210    7.1530 C.3    16  C16         0.2309
    337  O2'      -19.7790   -3.9640    7.6280 O.3    16  C16        -0.2156
    338  C1'      -17.5680   -4.5610    6.9120 C.3    16  C16         0.2420
    339  N1       -16.1740   -4.1280    7.1600 N.ar   16  C16        -0.2535
    340  C2       -15.6490   -4.2820    8.4440 C.ar   16  C16         0.3532
    341  O2       -16.3610   -4.7900    9.3220 O.2    16  C16        -0.2443
    342  N3       -14.3770   -3.8820    8.6940 N.ar   16  C16        -0.1739
    343  C4       -13.6470   -3.3380    7.7090 C.ar   16  C16         0.1759
    344  N4       -12.4000   -2.9530    7.9820 N.pl3  16  C16        -0.1070
    345  C5       -14.1600   -3.1620    6.3940 C.ar   16  C16         0.0566
    346  C6       -15.4160   -3.5680    6.1710 C.ar   16  C16         0.0850
    347  OP1      -17.1090   -2.4410    1.0040 O.2    16  C16        -0.5172
    348  OP2      -14.9590   -2.1600    2.3570 O.co2  16  C16        -0.4373
    349  P        -20.0300   -0.6120    6.0770 P.3    17  G17         0.2141
    350  C5'      -19.4550    0.0950    8.5380 C.3    17  G17         0.1812
    351  O5'      -20.1720   -0.7570    7.6560 O.3    17  G17        -0.3114
    352  C4'      -19.2540   -0.5600    9.8830 C.3    17  G17         0.1773
    353  O4'      -18.1850   -1.5400    9.7960 O.3    17  G17        -0.3307
    354  C3'      -18.8220    0.3670   11.0080 C.3    17  G17         0.1860
    355  O3'      -19.9160    1.0460   11.5950 O.3    17  G17        -0.3112
    356  C2'      -18.0970   -0.5760   11.9630 C.3    17  G17         0.2309
    357  O2'      -19.0200   -1.3300   12.7400 O.3    17  G17        -0.2156
    358  C1'      -17.4120   -1.5240   10.9800 C.3    17  G17         0.2408
    359  N1       -12.7510   -0.3670   12.7180 N.ar   17  G17        -0.1709
    360  C2       -13.8640   -0.7660   13.4180 C.ar   17  G17         0.2606
    361  N2       -13.7120   -0.8670   14.7510 N.pl3  17  G17        -0.0859
    362  N3       -15.0290   -1.0400   12.8490 N.ar   17  G17        -0.1918
    363  C4       -14.9970   -0.8770   11.5010 C.ar   17  G17         0.1723
    364  C5       -13.9370   -0.4760   10.7030 C.ar   17  G17         0.1748
    365  C6       -12.6900   -0.1810   11.3360 C.ar   17  G17         0.3023
    366  O6       -11.6210    0.1910   10.8240 O.2    17  G17        -0.2633
    367  N7       -14.3130   -0.4360    9.3560 N.ar   17  G17        -0.2173
    368  C8       -15.5700   -0.8020    9.3660 C.ar   17  G17         0.1817
    369  N9       -16.0470   -1.0770   10.6310 N.ar   17  G17        -0.2693
    370  OP1      -21.2970   -0.0510    5.5460 O.2    17  G17        -0.5172
    371  OP2      -18.7470    0.0880    5.8130 O.co2  17  G17        -0.4373
    372  P        -19.8250    2.6220   11.9120 P.3    18  C18         0.2141
    373  C5'      -19.0820    2.0160   14.3560 C.3    18  C18         0.1812
    374  O5'      -18.8260    2.7130   13.1510 O.3    18  C18        -0.3114
    375  C4'      -17.9420    2.1880   15.3270 C.3    18  C18         0.1773
    376  O4'      -16.8110    1.3850   14.8910 O.3    18  C18        -0.3307
    377  C3'      -17.3650    3.5980   15.4340 C.3    18  C18         0.1860
    378  O3'      -18.1190    4.4600   16.2640 O.3    18  C18        -0.3112
    379  C2'      -15.9560    3.3320   15.9430 C.3    18  C18         0.2309
    380  O2'      -15.9730    3.0070   17.3300 O.3    18  C18        -0.2156
    381  C1'      -15.6030    2.0680   15.1610 C.3    18  C18         0.2420
    382  N1       -14.9280    2.3780   13.8740 N.ar   18  C18        -0.2535
    383  C2       -13.5670    2.6700   13.9280 C.ar   18  C18         0.3532
    384  O2       -13.0060    2.6640   15.0330 O.2    18  C18        -0.2443
    385  N3       -12.8920    2.9490   12.7920 N.ar   18  C18        -0.1739
    386  C4       -13.5260    2.9410   11.6260 C.ar   18  C18         0.1759
    387  N4       -12.7890    3.2170   10.5520 N.pl3  18  C18        -0.1070
    388  C5       -14.9230    2.6490   11.5220 C.ar   18  C18         0.0566
    389  C6       -15.5770    2.3760   12.6680 C.ar   18  C18         0.0850
    390  OP1      -21.1730    3.0060   12.3930 O.3    18  C18        -0.4373
    391  OP2      -19.2020    3.3010   10.7440 O.co2  18  C18        -0.5172
    392  P        -18.1460    6.0390   15.9650 P.3    19  G19         0.2141
    393  C5'      -16.2620    6.2610   17.7500 C.3    19  G19         0.1812
    394  O5'      -16.6990    6.4980   16.4230 O.3    19  G19        -0.3114
    395  C4'      -14.8390    6.7110   17.9190 C.3    19  G19         0.1773
    396  O4'      -13.9490    5.8430   17.1690 O.3    19  G19        -0.3307
    397  C3'      -14.5310    8.0960   17.3780 C.3    19  G19         0.1860
    398  O3'      -14.9140    9.1120   18.2800 O.3    19  G19        -0.3112
    399  C2'      -13.0300    8.0280   17.1580 C.3    19  G19         0.2309
    400  O2'      -12.3610    8.1120   18.4090 O.3    19  G19        -0.2156
    401  C1'      -12.8740    6.6020   16.6490 C.3    19  G19         0.2408
    402  N1       -10.2050    7.1610   12.3430 N.ar   19  G19        -0.1709
    403  C2        -9.8270    7.3980   13.6430 C.ar   19  G19         0.2606
    404  N2        -8.5740    7.8430   13.8260 N.pl3  19  G19        -0.0859
    405  N3       -10.6210    7.2250   14.6900 N.ar   19  G19        -0.1918
    406  C4       -11.8460    6.7840   14.3240 C.ar   19  G19         0.1723
    407  C5       -12.3220    6.5160   13.0630 C.ar   19  G19         0.1748
    408  C6       -11.4610    6.6980   11.9450 C.ar   19  G19         0.3023
    409  O6       -11.7110    6.5030   10.7430 O.2    19  G19        -0.2633
    410  N7       -13.6420    6.0780   13.1190 N.ar   19  G19        -0.2173
    411  C8       -13.9400    6.0790   14.3930 C.ar   19  G19         0.1817
    412  N9       -12.8980    6.5100   15.1780 N.ar   19  G19        -0.2693
    413  OP1      -19.1640    6.6210   16.8770 O.3    19  G19        -0.4373
    414  OP2      -18.2520    6.2890   14.5130 O.co2  19  G19        -0.5172
    415  P        -15.3600   10.5630   17.7620 P.3    20  U20         0.2141
    416  C5'      -12.9340   11.5660   17.8480 C.3    20  U20         0.1812
    417  O5'      -14.0530   11.1630   17.0770 O.3    20  U20        -0.3114
    418  C4'      -11.7750   11.9110   16.9540 C.3    20  U20         0.1773
    419  O4'      -11.4140   10.7530   16.1550 O.3    20  U20        -0.3307
    420  C3'      -12.0360   12.9950   15.9190 C.3    20  U20         0.1860
    421  O3'      -11.9500   14.3110   16.4590 O.3    20  U20        -0.3112
    422  C2'      -10.9760   12.6970   14.8630 C.3    20  U20         0.2309
    423  O2'       -9.7020   13.1330   15.3100 O.3    20  U20        -0.2156
    424  C1'      -10.9510   11.1710   14.8830 C.3    20  U20         0.2420
    425  N1       -11.7890   10.5580   13.8280 N.ar   20  U20        -0.2534
    426  C2       -11.1990   10.3280   12.5890 C.ar   20  U20         0.3546
    427  O2       -10.0400   10.6200   12.3130 O.2    20  U20        -0.2443
    428  N3       -12.0150    9.7400   11.6570 N.ar   20  U20        -0.1530
    429  C4       -13.3330    9.3620   11.8130 C.ar   20  U20         0.2846
    430  O4       -13.9220    8.8340   10.8600 O.2    20  U20        -0.2650
    431  C5       -13.8730    9.6280   13.1150 C.ar   20  U20         0.0814
    432  C6       -13.1010   10.1930   14.0590 C.ar   20  U20         0.0870
    433  OP1      -15.6200   11.2770   19.0320 O.3    20  U20        -0.4373
    434  OP2      -16.3620   10.4910   16.6520 O.co2  20  U20        -0.5172
    435  P        -13.1350   15.3820   16.2410 P.3    21  U21         0.2141
    436  C5'      -13.3390   16.3660   18.6610 C.3    21  U21         0.1812
    437  O5'      -13.8330   15.4750   17.6650 O.3    21  U21        -0.3114
    438  C4'      -14.1100   16.2030   19.9420 C.3    21  U21         0.1773
    439  O4'      -15.4940   16.5550   19.6870 O.3    21  U21        -0.3307
    440  C3'      -14.1300   14.7750   20.4890 C.3    21  U21         0.1860
    441  O3'      -14.2060   14.7960   21.9100 O.3    21  U21        -0.3112
    442  C2'      -15.4400   14.2220   19.9480 C.3    21  U21         0.2309
    443  O2'      -15.9870   13.1790   20.7300 O.3    21  U21        -0.2156
    444  C1'      -16.3330   15.4530   19.9740 C.3    21  U21         0.2420
    445  N1       -17.4020   15.4130   18.9710 N.ar   21  U21        -0.2534
    446  C2       -18.6860   15.4480   19.4710 C.ar   21  U21         0.3546
    447  O2       -18.9040   15.5250   20.6690 O.2    21  U21        -0.2443
    448  N3       -19.6820   15.3990   18.5300 N.ar   21  U21        -0.1530
    449  C4       -19.5070   15.3080   17.1670 C.ar   21  U21         0.2846
    450  O4       -20.5060   15.2800   16.4450 O.2    21  U21        -0.2650
    451  C5       -18.1460   15.2640   16.7220 C.ar   21  U21         0.0814
    452  C6       -17.1510   15.3180   17.6180 C.ar   21  U21         0.0870
    453  OP1      -14.1580   14.9070   15.2810 O.2    21  U21        -0.5172
    454  OP2      -12.4850   16.7070   16.0100 O.co2  21  U21        -0.4373
    455  P        -12.8800   14.6300   22.7900 P.3    22  A22         0.2141
    456  C5'      -13.1340   12.0330   22.3330 C.3    22  A22         0.1812
    457  O5'      -12.3100   13.1920   22.3740 O.3    22  A22        -0.3114
    458  C4'      -12.2930   10.7830   22.2570 C.3    22  A22         0.1773
    459  O4'      -11.6070   10.7180   20.9650 O.3    22  A22        -0.3307
    460  C3'      -11.1930   10.6770   23.3220 C.3    22  A22         0.1860
    461  O3'      -11.0480    9.3010   23.6660 O.3    22  A22        -0.3112
    462  C2'       -9.9550   11.1240   22.5460 C.3    22  A22         0.2309
    463  O2'       -8.7160   10.7120   23.0840 O.3    22  A22        -0.2156
    464  C1'      -10.2350   10.4750   21.2010 C.3    22  A22         0.2408
    465  N1        -8.5280    9.2250   16.5150 N.ar   22  A22        -0.2040
    466  C2        -9.3850    8.6240   17.3520 C.ar   22  A22         0.2016
    467  N3        -9.7800    9.0300   18.5580 N.ar   22  A22        -0.2048
    468  C4        -9.1940   10.1950   18.9100 C.ar   22  A22         0.1692
    469  C5        -8.2870   10.9260   18.1560 C.ar   22  A22         0.1518
    470  C6        -7.9520   10.3950   16.8880 C.ar   22  A22         0.1919
    471  N6        -7.0890   10.9530   16.0310 N.pl3  22  A22        -0.1054
    472  N7        -7.9030   12.0720   18.8530 N.ar   22  A22        -0.2193
    473  C8        -8.5700   12.0140   19.9860 C.ar   22  A22         0.1816
    474  N9        -9.3910   10.9110   20.0770 N.ar   22  A22        -0.2693
    475  OP1      -13.3030   14.5890   24.2210 O.3    22  A22        -0.4373
    476  OP2      -11.8720   15.6080   22.3140 O.co2  22  A22        -0.5172
    477  P        -10.7430    8.8510   25.1740 P.3    23  A23         0.2141
    478  C5'      -12.7010    7.1210   25.4860 C.3    23  A23         0.1812
    479  O5'      -11.3240    7.3660   25.2420 O.3    23  A23        -0.3114
    480  C4'      -13.3160    6.2400   24.4250 C.3    23  A23         0.1773
    481  O4'      -13.2050    6.8850   23.1320 O.3    23  A23        -0.3307
    482  C3'      -12.6840    4.8760   24.1900 C.3    23  A23         0.1860
    483  O3'      -13.0330    3.8930   25.1580 O.3    23  A23        -0.3112
    484  C2'      -13.1760    4.5410   22.7890 C.3    23  A23         0.2309
    485  O2'      -14.5430    4.1690   22.8160 O.3    23  A23        -0.2156
    486  C1'      -13.0930    5.9050   22.1170 C.3    23  A23         0.2408
    487  N1       -10.2690    4.4750   18.0580 N.ar   23  A23        -0.2040
    488  C2       -11.4900    4.1110   18.4910 C.ar   23  A23         0.2016
    489  N3       -12.1640    4.5200   19.5660 N.ar   23  A23        -0.2048
    490  C4       -11.4460    5.4240   20.2520 C.ar   23  A23         0.1692
    491  C5       -10.1790    5.8980   19.9340 C.ar   23  A23         0.1518
    492  C6        -9.5720    5.3850   18.7730 C.ar   23  A23         0.1919
    493  N6        -8.3510    5.7390   18.3580 N.pl3  23  A23        -0.1054
    494  N7        -9.7570    6.8270   20.8720 N.ar   23  A23        -0.2193
    495  C8       -10.7600    6.8950   21.7230 C.ar   23  A23         0.1816
    496  N9       -11.8160    6.0770   21.4010 N.ar   23  A23        -0.2693
    497  OP1      -11.5210    9.7630   26.0610 O.3    23  A23        -0.4373
    498  OP2       -9.2590    8.7060   25.2920 O.co2  23  A23        -0.5172
    499  P        -11.9000    2.9210   25.7680 P.3    24  G24         0.2141
    500  C5'      -12.0360    1.2030   23.7980 C.3    24  G24         0.1812
    501  O5'      -11.2900    2.1780   24.4980 O.3    24  G24        -0.3114
    502  C4'      -11.3560    0.8170   22.5100 C.3    24  G24         0.1773
    503  O4'      -11.2210    1.9870   21.6450 O.3    24  G24        -0.3307
    504  C3'       -9.9390    0.2850   22.6180 C.3    24  G24         0.1860
    505  O3'       -9.8770   -1.0690   23.0610 O.3    24  G24        -0.3112
    506  C2'       -9.4190    0.5110   21.2000 C.3    24  G24         0.2309
    507  O2'       -9.9830   -0.4390   20.3070 O.3    24  G24        -0.2156
    508  C1'      -10.0320    1.8830   20.8870 C.3    24  G24         0.2408
    509  N1        -5.8090    4.4570   19.7930 N.ar   24  G24        -0.1709
    510  C2        -6.4470    3.5010   19.0510 C.ar   24  G24         0.2606
    511  N2        -5.8760    3.2030   17.8720 N.pl3  24  G24        -0.0859
    512  N3        -7.5650    2.9040   19.4410 N.ar   24  G24        -0.1918
    513  C4        -7.9830    3.3520   20.6480 C.ar   24  G24         0.1723
    514  C5        -7.4210    4.3140   21.4600 C.ar   24  G24         0.1748
    515  C6        -6.2310    4.9510   21.0260 C.ar   24  G24         0.3023
    516  O6        -5.5790    5.8280   21.6050 O.2    24  G24        -0.2633
    517  N7        -8.1620    4.4950   22.6230 N.ar   24  G24        -0.2173
    518  C8        -9.1480    3.6610   22.4930 C.ar   24  G24         0.1817
    519  N9        -9.1100    2.9480   21.3150 N.ar   24  G24        -0.2693
    520  OP1      -12.5910    1.8880   26.5930 O.3    24  G24        -0.4373
    521  OP2      -10.7900    3.7030   26.3610 O.co2  24  G24        -0.5172
    522  P         -8.6320   -1.6020   23.9450 P.3    25  U25         0.2141
    523  C5'       -7.0700   -2.0690   21.8950 C.3    25  U25         0.1812
    524  O5'       -7.3550   -1.2870   23.0440 O.3    25  U25        -0.3114
    525  C4'       -5.8110   -1.5940   21.2310 C.3    25  U25         0.1773
    526  O4'       -5.9390   -0.1820   20.8960 O.3    25  U25        -0.3307
    527  C3'       -4.5650   -1.6490   22.0960 C.3    25  U25         0.1860
    528  O3'       -3.9970   -2.9460   22.1510 O.3    25  U25        -0.3112
    529  C2'       -3.6660   -0.6160   21.4290 C.3    25  U25         0.2309
    530  O2'       -3.0940   -1.1550   20.2460 O.3    25  U25        -0.2156
    531  C1'       -4.6870    0.4550   21.0290 C.3    25  U25         0.2420
    532  N1        -4.7920    1.5210   22.0510 N.ar   25  U25        -0.2534
    533  C2        -3.7770    2.4570   22.0650 C.ar   25  U25         0.3546
    534  O2        -2.8400    2.4410   21.2860 O.2    25  U25        -0.2443
    535  N3        -3.8870    3.4290   23.0190 N.ar   25  U25        -0.1530
    536  C4        -4.8850    3.5590   23.9500 C.ar   25  U25         0.2846
    537  O4        -4.8230    4.5010   24.7330 O.2    25  U25        -0.2650
    538  C5        -5.9000    2.5500   23.8920 C.ar   25  U25         0.0814
    539  C6        -5.8260    1.5900   22.9600 C.ar   25  U25         0.0870
    540  OP1       -8.7740   -3.0910   24.0110 O.2    25  U25        -0.5172
    541  OP2       -8.4660   -0.8510   25.2080 O.co2  25  U25        -0.4373
    542  P         -3.4730   -3.5460   23.5470 P.3    26  G26         0.2141
    543  C5'       -1.1080   -2.6770   22.9090 C.3    26  G26         0.1812
    544  O5'       -2.1680   -2.6980   23.8470 O.3    26  G26        -0.3114
    545  C4'       -0.1300   -1.5830   23.2250 C.3    26  G26         0.1773
    546  O4'       -0.7340   -0.2810   22.9930 O.3    26  G26        -0.3307
    547  C3'        0.3340   -1.5020   24.6650 C.3    26  G26         0.1860
    548  O3'        1.2940   -2.4800   25.0030 O.3    26  G26        -0.3112
    549  C2'        0.8540   -0.0750   24.7450 C.3    26  G26         0.2309
    550  O2'        2.1110    0.0270   24.0970 O.3    26  G26        -0.2156
    551  C1'       -0.1880    0.6630   23.8990 C.3    26  G26         0.2408
    552  N1        -1.2590    4.0130   27.5550 N.ar   26  G26        -0.1709
    553  C2        -0.0870    3.7830   26.8720 C.ar   26  G26         0.2606
    554  N2         0.9550    4.5550   27.2100 N.pl3  26  G26        -0.0859
    555  N3         0.0560    2.8700   25.9160 N.ar   26  G26        -0.1918
    556  C4        -1.0870    2.1920   25.6920 C.ar   26  G26         0.1723
    557  C5        -2.3080    2.3400   26.3100 C.ar   26  G26         0.1748
    558  C6        -2.4510    3.3190   27.3340 C.ar   26  G26         0.3023
    559  O6        -3.4600    3.5930   27.9990 O.2    26  G26        -0.2633
    560  N7        -3.2230    1.4330   25.7870 N.ar   26  G26        -0.2173
    561  C8        -2.5590    0.7650   24.8790 C.ar   26  G26         0.1817
    562  N9        -1.2560    1.1840   24.7690 N.ar   26  G26        -0.2693
    563  OP1       -3.0510   -4.9430   23.2840 O.2    26  G26        -0.5172
    564  OP2       -4.4650   -3.2510   24.6200 O.co2  26  G26        -0.4373
    565  P          1.3600   -3.0370   26.5130 P.3    27  U27         0.2141
    566  C5'        3.1250   -1.2550   27.2400 C.3    27  U27         0.1812
    567  O5'        1.8130   -1.7770   27.3640 O.3    27  U27        -0.3114
    568  C4'        3.3750   -0.1790   28.2560 C.3    27  U27         0.1773
    569  O4'        2.4290    0.9050   28.0700 O.3    27  U27        -0.3307
    570  C3'        3.1740   -0.5820   29.7060 C.3    27  U27         0.1860
    571  O3'        4.2720   -1.3030   30.2280 O.3    27  U27        -0.3112
    572  C2'        2.9520    0.7570   30.3830 C.3    27  U27         0.2309
    573  O2'        4.1860    1.4390   30.5050 O.3    27  U27        -0.2156
    574  C1'        2.1210    1.4870   29.3250 C.3    27  U27         0.2420
    575  N1         0.6650    1.3650   29.5750 N.ar   27  U27        -0.2534
    576  C2         0.1680    2.1160   30.6150 C.ar   27  U27         0.3546
    577  O2         0.8800    2.8420   31.3010 O.2    27  U27        -0.2443
    578  N3        -1.1850    1.9810   30.8280 N.ar   27  U27        -0.1530
    579  C4        -2.0680    1.1850   30.1230 C.ar   27  U27         0.2846
    580  O4        -3.2590    1.1970   30.4410 O.2    27  U27        -0.2650
    581  C5        -1.4840    0.4250   29.0640 C.ar   27  U27         0.0814
    582  C6        -0.1660    0.5480   28.8360 C.ar   27  U27         0.0870
    583  OP1        2.4300   -4.0740   26.5710 O.2    27  U27        -0.5172
    584  OP2       -0.0380   -3.3730   26.9170 O.co2  27  U27        -0.4373
    585  P          4.0200   -2.5120   31.2570 P.3    28  G28         0.2141
    586  C5'        4.8670   -0.9360   33.1520 C.3    28  G28         0.1812
    587  O5'        3.8310   -1.7500   32.6380 O.3    28  G28        -0.3114
    588  C4'        4.3990   -0.2070   34.3740 C.3    28  G28         0.1773
    589  O4'        3.3700    0.7480   34.0100 O.3    28  G28        -0.3307
    590  C3'        3.7260   -1.0810   35.4100 C.3    28  G28         0.1860
    591  O3'        4.6490   -1.7900   36.2120 O.3    28  G28        -0.3112
    592  C2'        2.8570   -0.0860   36.1650 C.3    28  G28         0.2309
    593  O2'        3.6500    0.7270   37.0110 O.3    28  G28        -0.2156
    594  C1'        2.3820    0.7980   35.0200 C.3    28  G28         0.2408
    595  N1        -2.6140    0.7520   35.7700 N.ar   28  G28        -0.1709
    596  C2        -1.6050    1.2590   36.5420 C.ar   28  G28         0.2606
    597  N2        -1.9860    1.8570   37.6880 N.pl3  28  G28        -0.0859
    598  N3        -0.3230    1.1790   36.2180 N.ar   28  G28        -0.1918
    599  C4        -0.1350    0.5750   35.0350 C.ar   28  G28         0.1723
    600  C5        -1.0640    0.0220   34.1850 C.ar   28  G28         0.1748
    601  C6        -2.4390    0.1050   34.5450 C.ar   28  G28         0.3023
    602  O6        -3.4430   -0.3050   33.9480 O.2    28  G28        -0.2633
    603  N7        -0.4270   -0.5360   33.0800 N.ar   28  G28        -0.2173
    604  C8         0.8490   -0.3150   33.2790 C.ar   28  G28         0.1817
    605  N9         1.0900    0.3530   34.4560 N.ar   28  G28        -0.2693
    606  OP1        5.2570   -3.3300   31.2680 O.3    28  G28        -0.4373
    607  OP2        2.7380   -3.1860   30.9270 O.co2  28  G28        -0.5172
    608  P          4.2960   -3.2860   36.6740 P.3    29  U29         0.2141
    609  C5'        3.7300   -2.3710   39.0650 C.3    29  U29         0.1812
    610  O5'        3.2970   -3.0350   37.8880 O.3    29  U29        -0.3114
    611  C4'        2.5720   -2.0910   39.9850 C.3    29  U29         0.1773
    612  O4'        1.6680   -1.1630   39.3380 O.3    29  U29        -0.3307
    613  C3'        1.6790   -3.2760   40.3440 C.3    29  U29         0.1860
    614  O3'        2.1980   -4.0920   41.3770 O.3    29  U29        -0.3112
    615  C2'        0.3790   -2.5900   40.7260 C.3    29  U29         0.2309
    616  O2'        0.4990   -1.9970   42.0150 O.3    29  U29        -0.2156
    617  C1'        0.3340   -1.4680   39.6910 C.3    29  U29         0.2420
    618  N1        -0.4080   -1.8870   38.4820 N.ar   29  U29        -0.2534
    619  C2        -1.7700   -1.7080   38.5770 C.ar   29  U29         0.3546
    620  O2        -2.3020   -1.2350   39.5760 O.2    29  U29        -0.2443
    621  N3        -2.4800   -2.0960   37.4680 N.ar   29  U29        -0.1530
    622  C4        -1.9730   -2.6370   36.3090 C.ar   29  U29         0.2846
    623  O4        -2.7650   -2.9310   35.4140 O.2    29  U29        -0.2650
    624  C5        -0.5460   -2.7980   36.2890 C.ar   29  U29         0.0814
    625  C6         0.1770   -2.4260   37.3590 C.ar   29  U29         0.0870
    626  OP1        5.5530   -3.8990   37.1560 O.3    29  U29        -0.4373
    627  OP2        3.4640   -3.9800   35.6670 O.co2  29  U29        -0.5172
    628  P          1.8010   -5.6560   41.4500 P.3    30  G30         0.2141
    629  C5'       -0.1330   -5.0960   43.1000 C.3    30  G30         0.1812
    630  O5'        0.2710   -5.6680   41.8680 O.3    30  G30        -0.3114
    631  C4'       -1.6320   -5.0480   43.1950 C.3    30  G30         0.1773
    632  O4'       -2.1580   -4.1220   42.2130 O.3    30  G30        -0.3307
    633  C3'       -2.3450   -6.3460   42.8780 C.3    30  G30         0.1860
    634  O3'       -2.3140   -7.2590   43.9700 O.3    30  G30        -0.3112
    635  C2'       -3.7360   -5.8550   42.5080 C.3    30  G30         0.2309
    636  O2'       -4.4430   -5.4580   43.6730 O.3    30  G30        -0.2156
    637  C1'       -3.3990   -4.5890   41.7300 C.3    30  G30         0.2408
    638  N1        -6.0280   -5.4720   37.4880 N.ar   30  G30        -0.1709
    639  C2        -6.4670   -5.1930   38.7610 C.ar   30  G30         0.2606
    640  N2        -7.7960   -5.1420   38.9260 N.pl3  30  G30        -0.0859
    641  N3        -5.6610   -4.9780   39.7920 N.ar   30  G30        -0.1918
    642  C4        -4.3590   -5.0670   39.4400 C.ar   30  G30         0.1723
    643  C5        -3.8180   -5.3490   38.2050 C.ar   30  G30         0.1748
    644  C6        -4.6930   -5.5780   37.1010 C.ar   30  G30         0.3023
    645  O6        -4.4210   -5.8380   35.9110 O.2    30  G30        -0.2633
    646  N7        -2.4270   -5.3410   38.2840 N.ar   30  G30        -0.2173
    647  C8        -2.1560   -5.0670   39.5360 C.ar   30  G30         0.1817
    648  N9        -3.2920   -4.8740   40.2850 N.ar   30  G30        -0.2693
    649  OP1        2.5950   -6.2070   42.5770 O.3    30  G30        -0.4373
    650  OP2        1.8880   -6.2790   40.1090 O.co2  30  G30        -0.5172
    651  P         -2.5470   -8.8400   43.7460 P.3    31  U31         0.2141
    652  C5'       -5.0820   -8.5540   44.2730 C.3    31  U31         0.1812
    653  O5'       -4.0810   -8.9420   43.3550 O.3    31  U31        -0.3114
    654  C4'       -6.4370   -8.6740   43.6440 C.3    31  U31         0.1773
    655  O4'       -6.5240   -7.7990   42.4950 O.3    31  U31        -0.3307
    656  C3'       -6.7600  -10.0490   43.0930 C.3    31  U31         0.1860
    657  O3'       -7.2200  -10.9020   44.1250 O.3    31  U31        -0.3112
    658  C2'       -7.8070   -9.7450   42.0360 C.3    31  U31         0.2309
    659  O2'       -9.0660   -9.5180   42.6510 O.3    31  U31        -0.2156
    660  C1'       -7.3080   -8.4040   41.4900 C.3    31  U31         0.2420
    661  N1        -6.4900   -8.5430   40.2620 N.ar   31  U31        -0.2534
    662  C2        -7.1800   -8.6900   39.0780 C.ar   31  U31         0.3546
    663  O2        -8.4000   -8.7370   39.0340 O.2    31  U31        -0.2443
    664  N3        -6.3900   -8.7930   37.9530 N.ar   31  U31        -0.1530
    665  C4        -5.0100   -8.7590   37.9040 C.ar   31  U31         0.2846
    666  O4        -4.4490   -8.8800   36.8120 O.2    31  U31        -0.2650
    667  C5        -4.3610   -8.5890   39.1760 C.ar   31  U31         0.0814
    668  C6        -5.1110   -8.4920   40.2830 C.ar   31  U31         0.0870
    669  OP1       -2.3570   -9.4640   45.0900 O.3    31  U31        -0.4373
    670  OP2       -1.7920   -9.3340   42.5620 O.co2  31  U31        -0.5172
    671  P         -7.2220  -12.4940   43.9570 P.3    32  G32         0.2141
    672  C5'       -8.3440  -13.6880   41.9210 C.3    32  G32         0.1812
    673  O5'       -8.4360  -12.7270   42.9540 O.3    32  G32        -0.3114
    674  C4'       -9.3300  -13.3900   40.8300 C.3    32  G32         0.1773
    675  O4'       -8.9880  -12.1320   40.1850 O.3    32  G32        -0.3307
    676  C3'       -9.3520  -14.3940   39.6950 C.3    32  G32         0.1860
    677  O3'      -10.1340  -15.5300   40.0060 O.3    32  G32        -0.3112
    678  C2'       -9.8950  -13.5730   38.5420 C.3    32  G32         0.2309
    679  O2'      -11.2910  -13.3830   38.7000 O.3    32  G32        -0.2156
    680  C1'       -9.2160  -12.2320   38.7950 C.3    32  G32         0.2408
    681  N1        -6.7770  -12.0450   34.3240 N.ar   32  G32        -0.1709
    682  C2        -8.1240  -12.1650   34.5770 C.ar   32  G32         0.2606
    683  N2        -8.9050  -12.2470   33.4870 N.pl3  32  G32        -0.0859
    684  N3        -8.6550  -12.2090   35.7960 N.ar   32  G32        -0.1918
    685  C4        -7.7010  -12.1170   36.7460 C.ar   32  G32         0.1723
    686  C5        -6.3320  -11.9860   36.5980 C.ar   32  G32         0.1748
    687  C6        -5.7760  -11.9320   35.2900 C.ar   32  G32         0.3023
    688  O6        -4.5800  -11.8150   34.9570 O.2    32  G32        -0.2633
    689  N7        -5.7010  -11.9290   37.8330 N.ar   32  G32        -0.2173
    690  C8        -6.6830  -12.0130   38.6910 C.ar   32  G32         0.1817
    691  N9        -7.9180  -12.1260   38.1040 N.ar   32  G32        -0.2693
    692  OP1       -7.6360  -13.0250   45.2890 O.3    32  G32        -0.4373
    693  OP2       -5.9530  -12.9550   43.3190 O.co2  32  G32        -0.5172
    694  P         -9.7330  -16.9630   39.4240 P.3    33  A33         0.2141
    695  C5'      -11.4750  -16.5420   37.5110 C.3    33  A33         0.1812
    696  O5'      -10.1380  -16.8540   37.8840 O.3    33  A33        -0.3114
    697  C4'      -11.6420  -16.4940   36.0130 C.3    33  A33         0.1773
    698  O4'      -10.9410  -15.3420   35.4690 O.3    33  A33        -0.3307
    699  C3'      -11.0640  -17.6720   35.2490 C.3    33  A33         0.1860
    700  O3'      -11.9300  -18.7820   35.2390 O.3    33  A33        -0.3112
    701  C2'      -10.8250  -17.0880   33.8700 C.3    33  A33         0.2309
    702  O2'      -12.0570  -16.9780   33.1760 O.3    33  A33        -0.2156
    703  C1'      -10.3600  -15.6780   34.2240 C.3    33  A33         0.2408
    704  N1        -5.7300  -15.1470   31.9150 N.ar   33  A33        -0.2040
    705  C2        -6.9760  -15.2470   31.4200 C.ar   33  A33         0.2016
    706  N3        -8.1420  -15.3930   32.0610 N.ar   33  A33        -0.2048
    707  C4        -7.9460  -15.4390   33.3890 C.ar   33  A33         0.1692
    708  C5        -6.7280  -15.3540   34.0470 C.ar   33  A33         0.1518
    709  C6        -5.5680  -15.1950   33.2540 C.ar   33  A33         0.1919
    710  N6        -4.3270  -15.0930   33.7490 N.pl3  33  A33        -0.1054
    711  N7        -6.9120  -15.4520   35.4180 N.ar   33  A33        -0.2193
    712  C8        -8.2070  -15.5810   35.5630 C.ar   33  A33         0.1816
    713  N9        -8.8970  -15.5800   34.3740 N.ar   33  A33        -0.2693
    714  OP1      -10.6580  -17.9250   40.0690 O.3    33  A33        -0.4373
    715  OP2       -8.2610  -17.1860   39.5550 O.co2  33  A33        -0.5172
    716  P        -11.3410  -20.2660   35.0880 P.3    34  A34         0.2141
    717  C5'      -11.9630  -20.1490   32.5580 C.3    34  A34         0.1812
    718  O5'      -10.9680  -20.3520   33.5400 O.3    34  A34        -0.3114
    719  C4'      -11.3630  -20.0670   31.1790 C.3    34  A34         0.1773
    720  O4'      -10.5920  -18.8450   31.0300 O.3    34  A34        -0.3307
    721  C3'      -10.3830  -21.1670   30.8060 C.3    34  A34         0.1860
    722  O3'      -11.0480  -22.3710   30.4600 O.3    34  A34        -0.3112
    723  C2'       -9.6080  -20.5200   29.6650 C.3    34  A34         0.2309
    724  O2'      -10.4080  -20.4910   28.5030 O.3    34  A34        -0.2156
    725  C1'       -9.4900  -19.0780   30.1720 C.3    34  A34         0.2408
    726  N1        -4.4900  -17.8900   30.0450 N.ar   34  A34        -0.2040
    727  C2        -5.4060  -17.9560   29.0600 C.ar   34  A34         0.2016
    728  N3        -6.6980  -18.2720   29.1600 N.ar   34  A34        -0.2048
    729  C4        -7.0240  -18.5400   30.4470 C.ar   34  A34         0.1692
    730  C5        -6.1910  -18.5090   31.5490 C.ar   34  A34         0.1518
    731  C6        -4.8540  -18.1640   31.3220 C.ar   34  A34         0.1919
    732  N6        -3.9520  -18.0920   32.3160 N.pl3  34  A34        -0.1054
    733  N7        -6.8720  -18.8380   32.7120 N.ar   34  A34        -0.2193
    734  C8        -8.0970  -19.0650   32.3010 C.ar   34  A34         0.1816
    735  N9        -8.2520  -18.8880   30.9460 N.ar   34  A34        -0.2693
    736  OP1      -12.4860  -21.1580   35.3920 O.2    34  A34        -0.5172
    737  OP2      -10.0620  -20.4050   35.8320 O.co2  34  A34        -0.4373
    738  P        -10.2560  -23.7600   30.2970 P.3    35  U35         0.2141
    739  C5'       -7.9860  -24.0010   28.9960 C.3    35  U35         0.1812
    740  O5'       -9.2990  -23.4740   29.0560 O.3    35  U35        -0.3114
    741  C4'       -7.1760  -23.2820   27.9460 C.3    35  U35         0.1773
    742  O4'       -6.8310  -21.9610   28.4310 O.3    35  U35        -0.3307
    743  C3'       -5.8420  -23.9180   27.5910 C.3    35  U35         0.1860
    744  O3'       -5.9870  -24.9320   26.6090 O.3    35  U35        -0.3112
    745  C2'       -5.0270  -22.7230   27.1020 C.3    35  U35         0.2309
    746  O2'       -5.3960  -22.3990   25.7740 O.3    35  U35        -0.2156
    747  C1'       -5.5310  -21.6090   28.0170 C.3    35  U35         0.2420
    748  N1        -4.6890  -21.4600   29.2300 N.ar   35  U35        -0.2534
    749  C2        -3.4360  -20.8940   29.1070 C.ar   35  U35         0.3546
    750  O2        -2.9600  -20.4870   28.0530 O.2    35  U35        -0.2443
    751  N3        -2.7360  -20.8140   30.2750 N.ar   35  U35        -0.1530
    752  C4        -3.1390  -21.2140   31.5310 C.ar   35  U35         0.2846
    753  O4        -2.3630  -21.0710   32.4760 O.2    35  U35        -0.2650
    754  C5        -4.4520  -21.7820   31.5890 C.ar   35  U35         0.0814
    755  C6        -5.1580  -21.8760   30.4540 C.ar   35  U35         0.0870
    756  OP1      -11.2820  -24.7570   29.8920 O.2    35  U35        -0.5172
    757  OP2       -9.4200  -24.0790   31.4820 O.co2  35  U35        -0.4373
    758  P         -5.8500  -26.4930   26.9800 P.3    36  G36         0.2141
    759  C5'       -5.3610  -28.4440   25.2610 C.3    36  G36         0.1812
    760  O5'       -5.1550  -27.0950   25.6860 O.3    36  G36        -0.3114
    761  C4'       -5.2120  -28.5050   23.7660 C.3    36  G36         0.1773
    762  O4'       -3.8730  -28.0750   23.4050 O.3    36  G36        -0.3307
    763  C3'       -5.4500  -29.8530   23.0780 C.3    36  G36         0.1860
    764  O3'       -6.3600  -29.6750   21.9910 O.3    36  G36        -0.3112
    765  C2'       -4.0610  -30.2330   22.5370 C.3    36  G36         0.2309
    766  O2'       -4.0890  -30.9400   21.3150 O.3    36  G36        -0.2156
    767  C1'       -3.4040  -28.8720   22.3480 C.3    36  G36         0.2408
    768  N1         0.6850  -27.6260   19.6730 N.ar   36  G36        -0.1709
    769  C2        -0.6460  -27.4420   19.3850 C.ar   36  G36         0.2606
    770  N2        -0.9220  -26.8330   18.2110 N.pl3  36  G36        -0.0859
    771  N3        -1.6210  -27.8280   20.1980 N.ar   36  G36        -0.1918
    772  C4        -1.1500  -28.4060   21.3280 C.ar   36  G36         0.1723
    773  C5         0.1550  -28.6440   21.7070 C.ar   36  G36         0.1748
    774  C6         1.1900  -28.2370   20.8210 C.ar   36  G36         0.3023
    775  O6         2.4150  -28.3260   20.9470 O.2    36  G36        -0.2633
    776  N7         0.1930  -29.2740   22.9510 N.ar   36  G36        -0.2173
    777  C8        -1.0630  -29.4140   23.2950 C.ar   36  G36         0.1817
    778  N9        -1.9330  -28.8910   22.3530 N.ar   36  G36        -0.2693
    779  OP1       -7.2190  -27.0490   27.1400 O.2    36  G36        -0.5172
    780  OP2       -4.8810  -26.6730   28.0850 O.co2  36  G36        -0.4373
    781  P         -7.9160  -30.0690   22.1640 P.3    37  G37         0.2141
    782  C5'       -9.0810  -32.3390   22.7950 C.3    37  G37         0.1812
    783  O5'       -7.8900  -31.5580   22.7580 O.3    37  G37        -0.3114
    784  C4'       -8.9540  -33.5660   23.6710 C.3    37  G37         0.1773
    785  O4'       -7.9300  -34.4450   23.1450 O.3    37  G37        -0.3307
    786  C3'       -8.5410  -33.3350   25.1200 C.3    37  G37         0.1860
    787  O3'       -9.6300  -32.9660   25.9480 O.3    37  G37        -0.3112
    788  C2'       -7.9310  -34.6690   25.5080 C.3    37  G37         0.2309
    789  O2'       -8.9590  -35.6050   25.7850 O.3    37  G37        -0.2156
    790  C1'       -7.2500  -35.0820   24.2050 C.3    37  G37         0.2408
    791  N1        -2.6490  -35.5750   26.3040 N.ar   37  G37        -0.1709
    792  C2        -3.8380  -36.1670   26.6620 C.ar   37  G37         0.2606
    793  N2        -3.8100  -37.0030   27.7150 N.pl3  37  G37        -0.0859
    794  N3        -4.9760  -35.9520   26.0250 N.ar   37  G37        -0.1918
    795  C4        -4.8300  -35.0950   24.9920 C.ar   37  G37         0.1723
    796  C5        -3.6910  -34.4470   24.5490 C.ar   37  G37         0.1748
    797  C6        -2.4710  -34.6880   25.2370 C.ar   37  G37         0.3023
    798  O6        -1.3510  -34.2150   24.9970 O.2    37  G37        -0.2633
    799  N7        -3.9740  -33.6270   23.4530 N.ar   37  G37        -0.2173
    800  C8        -5.2580  -33.7970   23.2550 C.ar   37  G37         0.1817
    801  N9        -5.8360  -34.6660   24.1580 N.ar   37  G37        -0.2693
    802  OP1       -8.5280  -30.1630   20.8150 O.2    37  G37        -0.5172
    803  OP2       -8.4990  -29.1720   23.1910 O.co2  37  G37        -0.4373
    804  P         -9.3780  -32.1480   27.3130 P.3    38  G38         0.2141
    805  C5'       -9.4430  -34.0940   29.0820 C.3    38  G38         0.1812
    806  O5'       -8.6790  -33.1980   28.2880 O.3    38  G38        -0.3114
    807  C4'       -8.5920  -34.7270   30.1560 C.3    38  G38         0.1773
    808  O4'       -7.4970  -35.4480   29.5380 O.3    38  G38        -0.3307
    809  C3'       -7.8900  -33.7720   31.1140 C.3    38  G38         0.1860
    810  O3'       -8.7160  -33.2760   32.1500 O.3    38  G38        -0.3112
    811  C2'       -6.7330  -34.6130   31.6170 C.3    38  G38         0.2309
    812  O2'       -7.2000  -35.5850   32.5420 O.3    38  G38        -0.2156
    813  C1'       -6.3370  -35.3390   30.3380 C.3    38  G38         0.2408
    814  N1        -1.4860  -33.7180   30.0280 N.ar   38  G38        -0.1709
    815  C2        -2.0760  -34.5050   31.0000 C.ar   38  G38         0.2606
    816  N2        -1.2640  -34.8960   31.9910 N.pl3  38  G38        -0.0859
    817  N3        -3.3530  -34.8720   30.9940 N.ar   38  G38        -0.1918
    818  C4        -4.0020  -34.3830   29.9080 C.ar   38  G38         0.1723
    819  C5        -3.5020  -33.5810   28.8930 C.ar   38  G38         0.1748
    820  C6        -2.1370  -33.2010   28.9110 C.ar   38  G38         0.3023
    821  O6        -1.5090  -32.5160   28.0850 O.2    38  G38        -0.2633
    822  N7        -4.4910  -33.2850   27.9640 N.ar   38  G38        -0.2173
    823  C8        -5.5590  -33.8870   28.4140 C.ar   38  G38         0.1817
    824  N9        -5.3300  -34.5770   29.5830 N.ar   38  G38        -0.2693
    825  OP1      -10.7200  -31.8070   27.8470 O.3    38  G38        -0.4373
    826  OP2       -8.3740  -31.0800   27.0680 O.co2  38  G38        -0.5172
    827  P         -8.4660  -31.7920   32.7060 P.3    39  A39         0.2141
    828  C5'       -7.0980  -32.6660   34.7600 C.3    39  A39         0.1812
    829  O5'       -7.1240  -31.8960   33.5700 O.3    39  A39        -0.3114
    830  C4'       -5.7390  -32.6790   35.4200 C.3    39  A39         0.1773
    831  O4'       -4.7560  -33.3530   34.5830 O.3    39  A39        -0.3307
    832  C3'       -5.0980  -31.3370   35.7230 C.3    39  A39         0.1860
    833  O3'       -5.6510  -30.6990   36.8670 O.3    39  A39        -0.3112
    834  C2'       -3.6370  -31.7250   35.8910 C.3    39  A39         0.2309
    835  O2'       -3.4380  -32.3640   37.1420 O.3    39  A39        -0.2156
    836  C1'       -3.4840  -32.7840   34.7920 C.3    39  A39         0.2408
    837  N1         0.4350  -30.7240   32.1300 N.ar   39  A39        -0.2040
    838  C2         0.3650  -31.2580   33.3620 C.ar   39  A39         0.2016
    839  N3        -0.6870  -31.7840   33.9960 N.ar   39  A39        -0.2048
    840  C4        -1.7810  -31.7170   33.2240 C.ar   39  A39         0.1692
    841  C5        -1.8620  -31.1980   31.9420 C.ar   39  A39         0.1518
    842  C6        -0.6870  -30.6810   31.3730 C.ar   39  A39         0.1919
    843  N6        -0.6330  -30.1510   30.1350 N.pl3  39  A39        -0.1054
    844  N7        -3.1580  -31.3080   31.4520 N.ar   39  A39        -0.2193
    845  C8        -3.8180  -31.8750   32.4360 C.ar   39  A39         0.1816
    846  N9        -3.0430  -32.1670   33.5290 N.ar   39  A39        -0.2693
    847  OP1       -9.6260  -31.5280   33.6010 O.3    39  A39        -0.4373
    848  OP2       -8.1340  -30.9120   31.5500 O.co2  39  A39        -0.5172
    849  P         -5.8430  -29.1020   36.9030 P.3    40  U40         0.2141
    850  C5'       -3.4920  -28.8090   37.9850 C.3    40  U40         0.1812
    851  O5'       -4.3530  -28.5420   36.8910 O.3    40  U40        -0.3114
    852  C4'       -2.0570  -28.4610   37.6850 C.3    40  U40         0.1773
    853  O4'       -1.5830  -29.1910   36.5210 O.3    40  U40        -0.3307
    854  C3'       -1.7560  -27.0170   37.3400 C.3    40  U40         0.1860
    855  O3'       -1.7490  -26.1610   38.4690 O.3    40  U40        -0.3112
    856  C2'       -0.4020  -27.1410   36.6550 C.3    40  U40         0.2309
    857  O2'        0.6120  -27.3940   37.6220 O.3    40  U40        -0.2156
    858  C1'       -0.6070  -28.4240   35.8470 C.3    40  U40         0.2420
    859  N1        -1.0710  -28.1500   34.4600 N.ar   40  U40        -0.2534
    860  C2        -0.1350  -27.6230   33.5880 C.ar   40  U40         0.3546
    861  O2         1.0190  -27.3990   33.9280 O.2    40  U40        -0.2443
    862  N3        -0.5810  -27.3690   32.3080 N.ar   40  U40        -0.1530
    863  C4        -1.8520  -27.5980   31.8150 C.ar   40  U40         0.2846
    864  O4        -2.1010  -27.3270   30.6320 O.2    40  U40        -0.2650
    865  C5        -2.7750  -28.1440   32.7740 C.ar   40  U40         0.0814
    866  C6        -2.3580  -28.3910   34.0300 C.ar   40  U40         0.0870
    867  OP1       -6.4590  -28.7740   38.2210 O.3    40  U40        -0.4373
    868  OP2       -6.5250  -28.6760   35.6590 O.co2  40  U40        -0.5172
    869  P         -2.2320  -24.6380   38.3210 P.3    41  G41         0.2141
    870  C5'        0.2020  -23.8570   37.7350 C.3    41  G41         0.1812
    871  O5'       -1.1540  -23.9840   37.3430 O.3    41  G41        -0.3114
    872  C4'        1.0380  -23.3210   36.6040 C.3    41  G41         0.1773
    873  O4'        0.9600  -24.2020   35.4600 O.3    41  G41        -0.3307
    874  C3'        0.6200  -21.9750   36.0470 C.3    41  G41         0.1860
    875  O3'        1.0460  -20.9160   36.8820 O.3    41  G41        -0.3112
    876  C2'        1.2670  -21.9820   34.6690 C.3    41  G41         0.2309
    877  O2'        2.6510  -21.6870   34.7730 O.3    41  G41        -0.2156
    878  C1'        1.1210  -23.4530   34.2740 C.3    41  G41         0.2408
    879  N1        -0.4330  -23.5470   29.4520 N.ar   41  G41        -0.1709
    880  C2         0.8020  -23.2330   29.9680 C.ar   41  G41         0.2606
    881  N2         1.7500  -22.9030   29.0740 N.pl3  41  G41        -0.0859
    882  N3         1.0800  -23.2480   31.2670 N.ar   41  G41        -0.1918
    883  C4         0.0010  -23.5910   32.0060 C.ar   41  G41         0.1723
    884  C5        -1.2690  -23.9180   31.5790 C.ar   41  G41         0.1748
    885  C6        -1.5480  -23.8910   30.2000 C.ar   41  G41         0.3023
    886  O6        -2.6190  -24.1270   29.6450 O.2    41  G41        -0.2633
    887  N7        -2.0970  -24.2250   32.6470 N.ar   41  G41        -0.2173
    888  C8        -1.3160  -24.0710   33.6960 C.ar   41  G41         0.1817
    889  N9        -0.0310  -23.6950   33.3790 N.ar   41  G41        -0.2693
    890  OP1       -2.0960  -24.0230   39.6650 O.3    41  G41        -0.4373
    891  OP2       -3.5220  -24.6620   37.5740 O.co2  41  G41        -0.5172
    892  P          0.5440  -19.4000   36.6650 P.3    42  U42         0.2141
    893  C5'        3.0940  -18.9690   36.2740 C.3    42  U42         0.1812
    894  O5'        1.7460  -18.7310   35.8780 O.3    42  U42        -0.3114
    895  C4'        4.0530  -18.3460   35.2940 C.3    42  U42         0.1773
    896  O4'        3.8950  -19.0050   34.0000 O.3    42  U42        -0.3307
    897  C3'        3.8120  -16.8580   35.0490 C.3    42  U42         0.1860
    898  O3'        5.0510  -16.2050   34.7740 O.3    42  U42        -0.3112
    899  C2'        2.9490  -16.8700   33.7920 C.3    42  U42         0.2309
    900  O2'        2.9630  -15.6710   33.0460 O.3    42  U42        -0.2156
    901  C1'        3.5450  -18.0440   33.0180 C.3    42  U42         0.2420
    902  N1         2.6010  -18.6390   32.0610 N.ar   42  U42        -0.2534
    903  C2         2.9510  -18.6800   30.7130 C.ar   42  U42         0.3546
    904  O2         4.0220  -18.2900   30.2840 O.2    42  U42        -0.2443
    905  N3         2.0070  -19.2030   29.8620 N.ar   42  U42        -0.1530
    906  C4         0.7640  -19.6740   30.2310 C.ar   42  U42         0.2846
    907  O4         0.0210  -20.1200   29.3610 O.2    42  U42        -0.2650
    908  C5         0.4620  -19.6000   31.6300 C.ar   42  U42         0.0814
    909  C6         1.3680  -19.0860   32.4740 C.ar   42  U42         0.0870
    910  OP1        0.5330  -18.8060   38.0200 O.3    42  U42        -0.4373
    911  OP2       -0.6330  -19.3170   35.7520 O.co2  42  U42        -0.5172
    912  P          5.6980  -15.2080   35.8610 P.3    43  C43         0.2141
    913  C5'        5.9470  -13.0110   34.4370 C.3    43  C43         0.1812
    914  O5'        6.5460  -14.1830   34.9830 O.3    43  C43        -0.3114
    915  C4'        6.5300  -12.6720   33.0860 C.3    43  C43         0.1773
    916  O4'        7.9820  -12.7350   33.1790 O.3    43  C43        -0.3307
    917  C3'        6.1310  -13.6240   31.9580 C.3    43  C43         0.1860
    918  O3'        6.0470  -12.9060   30.7240 O.3    43  C43        -0.3112
    919  C2'        7.3030  -14.6050   31.9220 C.3    43  C43         0.2309
    920  O2'        7.4950  -15.2780   30.6930 O.3    43  C43        -0.2156
    921  C1'        8.4820  -13.6940   32.2640 C.3    43  C43         0.2420
    922  N1         9.6010  -14.4090   32.8980 N.ar   43  C43        -0.2535
    923  C2        10.7460  -14.6570   32.1350 C.ar   43  C43         0.3532
    924  O2        10.7780  -14.2470   30.9630 O.2    43  C43        -0.2443
    925  N3        11.7830  -15.3290   32.6910 N.ar   43  C43        -0.1739
    926  C4        11.7020  -15.7530   33.9550 C.ar   43  C43         0.1759
    927  N4        12.7540  -16.4120   34.4560 N.pl3  43  C43        -0.1070
    928  C5        10.5430  -15.5180   34.7570 C.ar   43  C43         0.0566
    929  C6         9.5250  -14.8520   34.1920 C.ar   43  C43         0.0850
    930  OP1        6.6170  -16.0200   36.7070 O.3    43  C43        -0.4373
    931  OP2        4.6200  -14.4040   36.4940 O.co2  43  C43        -0.5172
    932  P          4.7180  -12.0720   30.3550 P.3    44  G44         0.2141
    933  C5'        4.7210  -13.0610   27.9250 C.3    44  G44         0.1812
    934  O5'        4.0460  -12.8940   29.1620 O.3    44  G44        -0.3114
    935  C4'        3.9700  -13.9870   27.0000 C.3    44  G44         0.1773
    936  O4'        3.8900  -15.3150   27.5810 O.3    44  G44        -0.3307
    937  C3'        2.5210  -13.6270   26.7280 C.3    44  G44         0.1860
    938  O3'        2.3740  -12.6100   25.7670 O.3    44  G44        -0.3112
    939  C2'        1.9330  -14.9630   26.3020 C.3    44  G44         0.2309
    940  O2'        2.3310  -15.3030   24.9810 O.3    44  G44        -0.2156
    941  C1'        2.6410  -15.8980   27.2720 C.3    44  G44         0.2408
    942  N1        -1.7500  -17.4040   29.2510 N.ar   44  G44        -0.1709
    943  C2        -1.3180  -17.4460   27.9500 C.ar   44  G44         0.2606
    944  N2        -2.1600  -17.9710   27.0380 N.pl3  44  G44        -0.0859
    945  N3        -0.1290  -17.0180   27.5720 N.ar   44  G44        -0.1918
    946  C4         0.5990  -16.5270   28.6020 C.ar   44  G44         0.1723
    947  C5         0.2640  -16.4340   29.9340 C.ar   44  G44         0.1748
    948  C6        -1.0160  -16.9040   30.3280 C.ar   44  G44         0.3023
    949  O6        -1.5100  -16.9110   31.4610 O.2    44  G44        -0.2633
    950  N7         1.3040  -15.8640   30.6680 N.ar   44  G44        -0.2173
    951  C8         2.2370  -15.6230   29.7810 C.ar   44  G44         0.1817
    952  N9         1.8700  -16.0130   28.5160 N.ar   44  G44        -0.2693
    953  OP1        5.1770  -10.7740   29.8020 O.2    44  G44        -0.5172
    954  OP2        3.7740  -12.1200   31.5020 O.co2  44  G44        -0.4373
    955  P          1.3540  -11.4030   26.0310 P.3    45  U45         0.2141
    956  C5'       -0.5170  -12.7250   24.7650 C.3    45  U45         0.1812
    957  O5'       -0.0890  -12.0690   25.9490 O.3    45  U45        -0.3114
    958  C4'       -1.9230  -13.2500   24.9060 C.3    45  U45         0.1773
    959  O4'       -1.9440  -14.4260   25.7650 O.3    45  U45        -0.3307
    960  C3'       -2.9190  -12.3150   25.5660 C.3    45  U45         0.1860
    961  O3'       -3.3860  -11.2830   24.7140 O.3    45  U45        -0.3112
    962  C2'       -4.0020  -13.2820   26.0120 C.3    45  U45         0.2309
    963  O2'       -4.7790  -13.7080   24.9020 O.3    45  U45        -0.2156
    964  C1'       -3.1540  -14.4550   26.4970 C.3    45  U45         0.2420
    965  N1        -2.8470  -14.2840   27.9320 N.ar   45  U45        -0.2534
    966  C2        -3.8550  -14.6070   28.8180 C.ar   45  U45         0.3546
    967  O2        -4.9310  -15.0490   28.4500 O.2    45  U45        -0.2443
    968  N3        -3.5490  -14.4200   30.1420 N.ar   45  U45        -0.1530
    969  C4        -2.3630  -13.9130   30.6400 C.ar   45  U45         0.2846
    970  O4        -2.2180  -13.7840   31.8540 O.2    45  U45        -0.2650
    971  C5        -1.3790  -13.5840   29.6570 C.ar   45  U45         0.0814
    972  C6        -1.6520  -13.7730   28.3660 C.ar   45  U45         0.0870
    973  OP1        1.4860  -10.5210   24.8390 O.2    45  U45        -0.5172
    974  OP2        1.5050  -10.8830   27.4070 O.co2  45  U45        -0.4373
    975  P         -3.8530   -9.8750   25.3270 P.3    46  C46         0.2141
    976  C5'       -6.3280  -10.7690   25.2720 C.3    46  C46         0.1812
    977  O5'       -5.2610  -10.1810   26.0080 O.3    46  C46        -0.3114
    978  C4'       -7.4400  -11.1930   26.1970 C.3    46  C46         0.1773
    979  O4'       -6.9460  -12.2160   27.1060 O.3    46  C46        -0.3307
    980  C3'       -7.9690  -10.1000   27.1240 C.3    46  C46         0.1860
    981  O3'       -8.9230   -9.2580   26.4980 O.3    46  C46        -0.3112
    982  C2'       -8.5440  -10.8980   28.2790 C.3    46  C46         0.2309
    983  O2'       -9.8030  -11.4330   27.9120 O.3    46  C46        -0.2156
    984  C1'       -7.5400  -12.0540   28.3800 C.3    46  C46         0.2420
    985  N1        -6.4850  -11.7640   29.3830 N.ar   46  C46        -0.2535
    986  C2        -6.8220  -11.9520   30.7230 C.ar   46  C46         0.3532
    987  O2        -7.9560  -12.3620   30.9850 O.2    46  C46        -0.2443
    988  N3        -5.9180  -11.6990   31.6890 N.ar   46  C46        -0.1739
    989  C4        -4.7050  -11.2600   31.3540 C.ar   46  C46         0.1759
    990  N4        -3.8410  -11.0330   32.3400 N.pl3  46  C46        -0.1070
    991  C5        -4.3230  -11.0480   29.9940 C.ar   46  C46         0.0566
    992  C6        -5.2420  -11.3060   29.0490 C.ar   46  C46         0.0850
    993  OP1       -4.0800   -8.9640   24.1710 O.2    46  C46        -0.5172
    994  OP2       -2.9360   -9.4630   26.4260 O.co2  46  C46        -0.4373
    995  P         -9.1990   -7.7690   27.0450 P.3    47  A47         0.2141
    996  C5'      -11.3610   -8.5940   28.2910 C.3    47  A47         0.1812
    997  O5'      -10.0710   -7.9970   28.3630 O.3    47  A47        -0.3114
    998  C4'      -11.9900   -8.6960   29.6600 C.3    47  A47         0.1773
    999  O4'      -11.2710   -9.6740   30.4640 O.3    47  A47        -0.3307
   1000  C3'      -11.9450   -7.4300   30.4960 C.3    47  A47         0.1860
   1001  O3'      -12.9880   -6.5370   30.1750 O.3    47  A47        -0.3112
   1002  C2'      -12.0350   -7.9680   31.9140 C.3    47  A47         0.2309
   1003  O2'      -13.3580   -8.3930   32.1810 O.3    47  A47        -0.2156
   1004  C1'      -11.1820   -9.2220   31.8010 C.3    47  A47         0.2408
   1005  N1        -7.6660   -8.8820   35.5250 N.ar   47  A47        -0.2040
   1006  C2        -8.9890   -9.1230   35.5630 C.ar   47  A47         0.2016
   1007  N3        -9.8500   -9.1870   34.5440 N.ar   47  A47        -0.2048
   1008  C4        -9.2150   -8.9670   33.3750 C.ar   47  A47         0.1692
   1009  C5        -7.8720   -8.7060   33.1840 C.ar   47  A47         0.1518
   1010  C6        -7.0680   -8.6650   34.3270 C.ar   47  A47         0.1919
   1011  N6        -5.7500   -8.4400   34.2860 N.pl3  47  A47        -0.1054
   1012  N7        -7.5810   -8.5390   31.8320 N.ar   47  A47        -0.2193
   1013  C8        -8.7420   -8.7020   31.2380 C.ar   47  A47         0.1816
   1014  N9        -9.7670   -8.9660   32.1160 N.ar   47  A47        -0.2693
   1015  OP1      -10.0740   -7.1230   26.0360 O.2    47  A47        -0.5172
   1016  OP2       -7.9250   -7.1410   27.4890 O.co2  47  A47        -0.4373
   1017  P        -12.7580   -4.9550   30.3060 P.3    48  C48         0.2141
   1018  C5'      -13.9720   -4.8960   32.6340 C.3    48  C48         0.1812
   1019  O5'      -12.7930   -4.6960   31.8750 O.3    48  C48        -0.3114
   1020  C4'      -13.6550   -4.8830   34.1070 C.3    48  C48         0.1773
   1021  O4'      -12.6530   -5.9000   34.3810 O.3    48  C48        -0.3307
   1022  C3'      -13.0300   -3.6090   34.6490 C.3    48  C48         0.1860
   1023  O3'      -13.9720   -2.5750   34.8940 O.3    48  C48        -0.3112
   1024  C2'      -12.3100   -4.1070   35.8990 C.3    48  C48         0.2309
   1025  O2'      -13.2390   -4.3450   36.9450 O.3    48  C48        -0.2156
   1026  C1'      -11.8030   -5.4690   35.4240 C.3    48  C48         0.2420
   1027  N1       -10.3980   -5.4280   34.9410 N.ar   48  C48        -0.2535
   1028  C2        -9.4000   -5.5880   35.9060 C.ar   48  C48         0.3532
   1029  O2        -9.7390   -5.7390   37.0900 O.2    48  C48        -0.2443
   1030  N3        -8.0940   -5.5730   35.5330 N.ar   48  C48        -0.1739
   1031  C4        -7.7650   -5.4000   34.2490 C.ar   48  C48         0.1759
   1032  N4        -6.4620   -5.3940   33.9600 N.pl3  48  C48        -0.1070
   1033  C5        -8.7570   -5.2300   33.2380 C.ar   48  C48         0.0566
   1034  C6       -10.0470   -5.2540   33.6260 C.ar   48  C48         0.0850
   1035  OP1      -13.9210   -4.3330   29.6230 O.2    48  C48        -0.5172
   1036  OP2      -11.3680   -4.6180   29.8890 O.co2  48  C48        -0.4373
   1037  P        -13.4980   -1.0360   34.9500 P.3    49  A49         0.2141
   1038  C5'      -13.3650   -1.0910   37.5720 C.3    49  A49         0.1812
   1039  O5'      -12.7010   -0.9070   36.3300 O.3    49  A49        -0.3114
   1040  C4'      -12.4220   -0.9320   38.7410 C.3    49  A49         0.1773
   1041  O4'      -11.4920   -2.0480   38.7850 O.3    49  A49        -0.3307
   1042  C3'      -11.5160    0.2920   38.7300 C.3    49  A49         0.1860
   1043  O3'      -12.1650    1.4810   39.1510 O.3    49  A49        -0.3112
   1044  C2'      -10.3880   -0.1470   39.6500 C.3    49  A49         0.2309
   1045  O2'      -10.8400   -0.1730   40.9960 O.3    49  A49        -0.2156
   1046  C1'      -10.2230   -1.5960   39.2140 C.3    49  A49         0.2408
   1047  N1        -5.2930   -2.1300   37.7230 N.ar   49  A49        -0.2040
   1048  C2        -5.8460   -1.9490   38.9340 C.ar   49  A49         0.2016
   1049  N3        -7.1340   -1.8080   39.2520 N.ar   49  A49        -0.2048
   1050  C4        -7.9080   -1.8670   38.1500 C.ar   49  A49         0.1692
   1051  C5        -7.4820   -2.0450   36.8420 C.ar   49  A49         0.1518
   1052  C6        -6.0920   -2.1820   36.6280 C.ar   49  A49         0.1919
   1053  N6        -5.5270   -2.3630   35.4220 N.pl3  49  A49        -0.1054
   1054  N7        -8.5690   -2.0560   35.9760 N.ar   49  A49        -0.2193
   1055  C8        -9.6050   -1.8870   36.7600 C.ar   49  A49         0.1816
   1056  N9        -9.2800   -1.7560   38.0880 N.ar   49  A49        -0.2693
   1057  OP1      -14.7310   -0.2120   35.0400 O.3    49  A49        -0.4373
   1058  OP2      -12.5250   -0.7670   33.8640 O.co2  49  A49        -0.5172
   1059  P        -11.8970    2.8730   38.3900 P.3    50  C50         0.2141
   1060  C5'      -10.2450    3.5620   40.2760 C.3    50  C50         0.1812
   1061  O5'      -10.4570    3.3140   38.8980 O.3    50  C50        -0.3114
   1062  C4'       -8.7820    3.5330   40.6150 C.3    50  C50         0.1773
   1063  O4'       -8.2290    2.2180   40.3360 O.3    50  C50        -0.3307
   1064  C3'       -7.8920    4.4620   39.8140 C.3    50  C50         0.1860
   1065  O3'       -7.9860    5.8190   40.2150 O.3    50  C50        -0.3112
   1066  C2'       -6.5240    3.8310   40.0280 C.3    50  C50         0.2309
   1067  O2'       -6.0620    4.0680   41.3500 O.3    50  C50        -0.2156
   1068  C1'       -6.8810    2.3490   39.9240 C.3    50  C50         0.2420
   1069  N1        -6.7340    1.8780   38.5270 N.ar   50  C50        -0.2535
   1070  C2        -5.4510    1.5230   38.1190 C.ar   50  C50         0.3532
   1071  O2        -4.5430    1.5880   38.9610 O.2    50  C50        -0.2443
   1072  N3        -5.2340    1.1110   36.8480 N.ar   50  C50        -0.1739
   1073  C4        -6.2460    1.0630   35.9830 C.ar   50  C50         0.1759
   1074  N4        -6.0020    0.6530   34.7270 N.pl3  50  C50        -0.1070
   1075  C5        -7.5620    1.4350   36.3700 C.ar   50  C50         0.0566
   1076  C6        -7.7630    1.8370   37.6310 C.ar   50  C50         0.0850
   1077  OP1      -12.8930    3.8100   38.9530 O.3    50  C50        -0.4373
   1078  OP2      -11.8530    2.6810   36.9170 O.co2  50  C50        -0.5172
   1079  P         -7.7140    7.0160   39.1660 P.3    51  A51         0.2141
   1080  C5'       -5.2210    7.0780   39.9290 C.3    51  A51         0.1812
   1081  O5'       -6.1580    6.9320   38.8740 O.3    51  A51        -0.3114
   1082  C4'       -3.8250    6.8810   39.4080 C.3    51  A51         0.1773
   1083  O4'       -3.6610    5.5100   38.9620 O.3    51  A51        -0.3307
   1084  C3'       -3.4670    7.7030   38.1820 C.3    51  A51         0.1860
   1085  O3'       -3.1390    9.0480   38.4950 O.3    51  A51        -0.3112
   1086  C2'       -2.3190    6.9060   37.5840 C.3    51  A51         0.2309
   1087  O2'       -1.1270    7.1150   38.3300 O.3    51  A51        -0.2156
   1088  C1'       -2.7900    5.4740   37.8450 C.3    51  A51         0.2408
   1089  N1        -2.1960    3.2110   33.2670 N.ar   51  A51        -0.2040
   1090  C2        -1.3310    3.6530   34.1930 C.ar   51  A51         0.2016
   1091  N3        -1.5670    4.2400   35.3730 N.ar   51  A51        -0.2048
   1092  C4        -2.8890    4.3570   35.5760 C.ar   51  A51         0.1692
   1093  C5        -3.9020    3.9470   34.7300 C.ar   51  A51         0.1518
   1094  C6        -3.5190    3.3540   33.5160 C.ar   51  A51         0.1919
   1095  N6        -4.3940    2.9080   32.6090 N.pl3  51  A51        -0.1054
   1096  N7        -5.1470    4.2400   35.2760 N.ar   51  A51        -0.2193
   1097  C8        -4.8560    4.8120   36.4300 C.ar   51  A51         0.1816
   1098  N9        -3.5020    4.9040   36.6780 N.ar   51  A51        -0.2693
   1099  OP1       -7.9220    8.2770   39.9370 O.3    51  A51        -0.4373
   1100  OP2       -8.3980    6.7440   37.8770 O.co2  51  A51        -0.5172
   1101  P         -3.2760   10.2060   37.3810 P.3    52  A52         0.2141
   1102  C5'       -0.7220    9.9910   36.9290 C.3    52  A52         0.1812
   1103  O5'       -2.0390    9.9500   36.4160 O.3    52  A52        -0.3114
   1104  C4'        0.2840    9.6280   35.8750 C.3    52  A52         0.1773
   1105  O4'        0.1870    8.2130   35.5520 O.3    52  A52        -0.3307
   1106  C3'        0.1280   10.3160   34.5310 C.3    52  A52         0.1860
   1107  O3'        0.6290   11.6450   34.5380 O.3    52  A52        -0.3112
   1108  C2'        0.8940    9.3760   33.6080 C.3    52  A52         0.2309
   1109  O2'        2.2870    9.5540   33.7690 O.3    52  A52        -0.2156
   1110  C1'        0.5320    8.0110   34.1980 C.3    52  A52         0.2408
   1111  N1        -0.8620    5.3230   30.0940 N.ar   52  A52        -0.2040
   1112  C2         0.3380    5.7350   30.5380 C.ar   52  A52         0.2016
   1113  N3         0.6180    6.4420   31.6310 N.ar   52  A52        -0.2048
   1114  C4        -0.5100    6.7260   32.3130 C.ar   52  A52         0.1692
   1115  C5        -1.8030    6.3660   31.9950 C.ar   52  A52         0.1518
   1116  C6        -1.9730    5.6240   30.8160 C.ar   52  A52         0.1919
   1117  N6        -3.1760    5.2250   30.3860 N.pl3  52  A52        -0.1054
   1118  N7        -2.7040    6.8510   32.9360 N.ar   52  A52        -0.2193
   1119  C8        -1.9470    7.4770   33.8100 C.ar   52  A52         0.1816
   1120  N9        -0.6130    7.4220   33.4910 N.ar   52  A52        -0.2693
   1121  OP1       -3.0610   11.5130   38.0690 O.3    52  A52        -0.4373
   1122  OP2       -4.5150    9.9610   36.5930 O.co2  52  A52        -0.5172
   1123  P          0.0490   12.7870   33.5480 P.3    53  C53         0.2141
   1124  C5'        1.6960   12.0390   31.6720 C.3    53  C53         0.1812
   1125  O5'        0.3590   12.2340   32.0840 O.3    53  C53        -0.3114
   1126  C4'        1.7980   11.2230   30.4060 C.3    53  C53         0.1773
   1127  O4'        1.1370    9.9340   30.5210 O.3    53  C53        -0.3307
   1128  C3'        1.1970   11.7980   29.1470 C.3    53  C53         0.1860
   1129  O3'        1.9550   12.8840   28.6520 O.3    53  C53        -0.3112
   1130  C2'        1.1910   10.5790   28.2280 C.3    53  C53         0.2309
   1131  O2'        2.4900   10.3320   27.7190 O.3    53  C53        -0.2156
   1132  C1'        0.8520    9.4520   29.2190 C.3    53  C53         0.2420
   1133  N1        -0.5660    9.0380   29.0990 N.ar   53  C53        -0.2535
   1134  C2        -0.8180    8.0850   28.1040 C.ar   53  C53         0.3532
   1135  O2         0.1380    7.6470   27.4480 O.2    53  C53        -0.2443
   1136  N3        -2.0770    7.6540   27.8830 N.ar   53  C53        -0.1739
   1137  C4        -3.0650    8.1620   28.6170 C.ar   53  C53         0.1759
   1138  N4        -4.2870    7.7080   28.3510 N.pl3  53  C53        -0.1070
   1139  C5        -2.8510    9.1530   29.6300 C.ar   53  C53         0.0566
   1140  C6        -1.5900    9.5660   29.8370 C.ar   53  C53         0.0850
   1141  OP1        0.9010   13.9800   33.8200 O.3    53  C53        -0.4373
   1142  OP2       -1.4300   12.9430   33.6270 O.co2  53  C53        -0.5172
   1143  P          1.2950   14.0020   27.7070 P.3    54  G54         0.2141
   1144  C5'        0.6700   12.9370   25.4800 C.3    54  G54         0.1812
   1145  O5'        1.6830   13.4860   26.2740 O.3    54  G54        -0.3114
   1146  C4'        1.2280   12.1110   24.3710 C.3    54  G54         0.1773
   1147  O4'        0.9800   10.7210   24.6850 O.3    54  G54        -0.3307
   1148  C3'        0.5180   12.3710   23.0530 C.3    54  G54         0.1860
   1149  O3'        1.2230   13.3180   22.2700 O.3    54  G54        -0.3112
   1150  C2'        0.4080   11.0020   22.4120 C.3    54  G54         0.2309
   1151  O2'        1.6050   10.6930   21.7170 O.3    54  G54        -0.2156
   1152  C1'        0.3000   10.0980   23.6370 C.3    54  G54         0.2408
   1153  N1        -4.1100    7.7210   22.8430 N.ar   54  G54        -0.1709
   1154  C2        -2.9530    7.7050   22.1000 C.ar   54  G54         0.2606
   1155  N2        -2.9850    6.9390   20.9940 N.pl3  54  G54        -0.0859
   1156  N3        -1.8540    8.3710   22.4150 N.ar   54  G54        -0.1918
   1157  C4        -2.0290    9.0870   23.5420 C.ar   54  G54         0.1723
   1158  C5        -3.1380    9.1800   24.3660 C.ar   54  G54         0.1748
   1159  C6        -4.3050    8.4420   24.0170 C.ar   54  G54         0.3023
   1160  O6        -5.4000    8.3820   24.5970 O.2    54  G54        -0.2633
   1161  N7        -2.8880   10.0240   25.4430 N.ar   54  G54        -0.2173
   1162  C8        -1.6510   10.4180   25.2500 C.ar   54  G54         0.1817
   1163  N9        -1.0820    9.8980   24.1060 N.ar   54  G54        -0.2693
   1164  OP1        2.0250   15.2890   27.9220 O.3    54  G54        -0.4373
   1165  OP2       -0.1950   13.9310   27.7160 O.co2  54  G54        -0.5172
   1166  P          0.4340   14.4260   21.4240 P.3    55  A55         0.2141
   1167  C5'        0.2370   12.7020   19.4410 C.3    55  A55         0.1812
   1168  O5'       -0.4000   13.5820   20.3610 O.3    55  A55        -0.3114
   1169  C4'       -0.7090   12.2910   18.3420 C.3    55  A55         0.1773
   1170  O4'       -1.5580   11.2080   18.8080 O.3    55  A55        -0.3307
   1171  C3'       -1.6550   13.3910   17.8310 C.3    55  A55         0.1860
   1172  O3'       -1.7620   13.3060   16.4140 O.3    55  A55        -0.3112
   1173  C2'       -2.9990   13.0020   18.4460 C.3    55  A55         0.2309
   1174  O2'       -4.1390   13.4150   17.7150 O.3    55  A55        -0.2156
   1175  C1'       -2.8960   11.4910   18.4580 C.3    55  A55         0.2408
   1176  N1        -6.4180    7.8000   19.1140 N.ar   55  A55        -0.2040
   1177  C2        -5.6310    8.1160   18.0640 C.ar   55  A55         0.2016
   1178  N3        -4.7210    9.0940   17.9640 N.ar   55  A55        -0.2048
   1179  C4        -4.6530    9.8020   19.1060 C.ar   55  A55         0.1692
   1180  C5        -5.3880    9.6040   20.2570 C.ar   55  A55         0.1518
   1181  C6        -6.3130    8.5520   20.2450 C.ar   55  A55         0.1919
   1182  N6        -7.0700    8.2880   21.3120 N.pl3  55  A55        -0.1054
   1183  N7        -5.0570   10.5350   21.2400 N.ar   55  A55        -0.2193
   1184  C8        -4.1340   11.2670   20.6680 C.ar   55  A55         0.1816
   1185  N9        -3.8280   10.8620   19.3930 N.ar   55  A55        -0.2693
   1186  OP1        1.4880   15.2280   20.7340 O.2    55  A55        -0.5172
   1187  OP2       -0.5720   15.0930   22.2880 O.co2  55  A55        -0.4373
   1188  P         -0.7770   14.1760   15.4950 P.3    56  A56         0.2141
   1189  C5'       -2.6690   15.6640   14.4140 C.3    56  A56         0.1812
   1190  O5'       -1.6850   14.6360   14.2660 O.3    56  A56        -0.3114
   1191  C4'       -3.9130   15.3610   13.6040 C.3    56  A56         0.1773
   1192  O4'       -3.5410   15.1190   12.2140 O.3    56  A56        -0.3307
   1193  C3'       -4.6910   14.1210   14.0430 C.3    56  A56         0.1860
   1194  O3'       -6.0670   14.2990   13.7210 O.3    56  A56        -0.3112
   1195  C2'       -4.1300   13.0520   13.1170 C.3    56  A56         0.2309
   1196  O2'       -4.9410   11.9010   12.9670 O.3    56  A56        -0.2156
   1197  C1'       -4.0050   13.8480   11.8200 C.3    56  A56         0.2408
   1198  N1        -3.4160   12.1130    7.0160 N.ar   56  A56        -0.2040
   1199  C2        -4.4750   12.6340    7.6600 C.ar   56  A56         0.2016
   1200  N3        -4.5570   13.0640    8.9170 N.ar   56  A56        -0.2048
   1201  C4        -3.3720   12.9320    9.5470 C.ar   56  A56         0.1692
   1202  C5        -2.2040   12.4210    9.0180 C.ar   56  A56         0.1518
   1203  C6        -2.2380   12.0070    7.6780 C.ar   56  A56         0.1919
   1204  N6        -1.1880   11.4900    7.0320 N.pl3  56  A56        -0.1054
   1205  N7        -1.1930   12.4370    9.9670 N.ar   56  A56        -0.2193
   1206  C8        -1.7550   12.9550   11.0320 C.ar   56  A56         0.1816
   1207  N9        -3.0720   13.2810   10.8450 N.ar   56  A56        -0.2693
   1208  OP1        0.2340   13.1900   15.0170 O.2    56  A56        -0.5172
   1209  OP2       -0.4220   15.4270   16.2480 O.co2  56  A56        -0.4373
   1210  P         -6.9840   15.3030   14.5610 P.3    57  G57         0.2141
   1211  C5'       -7.5260   17.1860   12.8350 C.3    57  G57         0.1812
   1212  O5'       -6.7150   16.7270   13.9060 O.3    57  G57        -0.3114
   1213  C4'       -6.8020   17.1060   11.5160 C.3    57  G57         0.1773
   1214  O4'       -6.7200   15.7260   11.0870 O.3    57  G57        -0.3307
   1215  C3'       -7.4870   17.8060   10.3570 C.3    57  G57         0.1860
   1216  O3'       -7.2430   19.1920   10.3410 O.3    57  G57        -0.3112
   1217  C2'       -6.9460   17.0610    9.1490 C.3    57  G57         0.2309
   1218  O2'       -5.6050   17.4510    8.8970 O.3    57  G57        -0.2156
   1219  C1'       -6.9170   15.6410    9.6860 C.3    57  G57         0.2408
   1220  N1        -9.7260   12.8810    6.4460 N.ar   57  G57        -0.1709
   1221  C2        -8.5170   13.4970    6.2470 C.ar   57  G57         0.2606
   1222  N2        -7.9820   13.3450    5.0240 N.pl3  57  G57        -0.0859
   1223  N3        -7.8820   14.1960    7.1740 N.ar   57  G57        -0.1918
   1224  C4        -8.5680   14.2460    8.3210 C.ar   57  G57         0.1723
   1225  C5        -9.7820   13.6650    8.6240 C.ar   57  G57         0.1748
   1226  C6       -10.4510   12.9070    7.6310 C.ar   57  G57         0.3023
   1227  O6       -11.5390   12.3120    7.6930 O.2    57  G57        -0.2633
   1228  N7       -10.1450   13.9520    9.9290 N.ar   57  G57        -0.2173
   1229  C8        -9.1640   14.6830   10.3920 C.ar   57  G57         0.1817
   1230  N9        -8.1750   14.9080    9.4580 N.ar   57  G57        -0.2693
   1231  OP1       -6.4890   15.3170   15.9660 O.3    57  G57        -0.4373
   1232  OP2       -8.3980   14.9750   14.2310 O.co2  57  G57        -0.5172
   1233  P         -8.2550   20.1560    9.5590 P.3    58  C58         0.2141
   1234  C5'       -9.2320   19.6970    7.1670 C.3    58  C58         0.1812
   1235  O5'       -8.1660   19.5770    8.0840 O.3    58  C58        -0.3114
   1236  C4'       -8.9440   18.8740    5.9440 C.3    58  C58         0.1773
   1237  O4'       -8.9620   17.4690    6.2830 O.3    58  C58        -0.3307
   1238  C3'       -9.9550   19.0050    4.8270 C.3    58  C58         0.1860
   1239  O3'       -9.6710   20.1230    4.0250 O.3    58  C58        -0.3112
   1240  C2'       -9.8050   17.6980    4.0800 C.3    58  C58         0.2309
   1241  O2'       -8.6740   17.7560    3.2230 O.3    58  C58        -0.2156
   1242  C1'       -9.5180   16.7230    5.2260 C.3    58  C58         0.2420
   1243  N1       -10.7560   16.0780    5.7260 N.ar   58  C58        -0.2535
   1244  C2       -11.4020   15.1780    4.8990 C.ar   58  C58         0.3532
   1245  O2       -10.8980   14.9360    3.7960 O.2    58  C58        -0.2443
   1246  N3       -12.5350   14.5660    5.3250 N.ar   58  C58        -0.1739
   1247  C4       -13.0360   14.8510    6.5330 C.ar   58  C58         0.1759
   1248  N4       -14.1640   14.2310    6.8830 N.pl3  58  C58        -0.1070
   1249  C5       -12.4070   15.7900    7.4070 C.ar   58  C58         0.0566
   1250  C6       -11.2810   16.3720    6.9630 C.ar   58  C58         0.0850
   1251  OP1       -7.6730   21.5190    9.5890 O.2    58  C58        -0.5172
   1252  OP2       -9.6420   19.9580   10.0610 O.co2  58  C58        -0.4373
   1253  P        -10.8440   21.1120    3.5920 P.3    59  G59         0.2141
   1254  C5'      -10.8910   19.8980    1.2830 C.3    59  G59         0.1812
   1255  O5'      -11.5910   20.3040    2.4440 O.3    59  G59        -0.3114
   1256  C4'      -11.7160   18.9500    0.4550 C.3    59  G59         0.1773
   1257  O4'      -11.8200   17.6710    1.1200 O.3    59  G59        -0.3307
   1258  C3'      -13.1570   19.3590    0.2200 C.3    59  G59         0.1860
   1259  O3'      -13.2750   20.3260   -0.8050 O.3    59  G59        -0.3112
   1260  C2'      -13.8280   18.0290   -0.1130 C.3    59  G59         0.2309
   1261  O2'      -13.6260   17.6720   -1.4720 O.3    59  G59        -0.2156
   1262  C1'      -13.0530   17.0580    0.7940 C.3    59  G59         0.2408
   1263  N1       -16.8150   14.3440    2.6990 N.ar   59  G59        -0.1709
   1264  C2       -16.2510   14.2930    1.4480 C.ar   59  G59         0.2606
   1265  N2       -16.7730   13.3850    0.5840 N.pl3  59  G59        -0.0859
   1266  N3       -15.2420   15.0780    1.0950 N.ar   59  G59        -0.1918
   1267  C4       -14.8520   15.8980    2.0960 C.ar   59  G59         0.1723
   1268  C5       -15.3460   16.0200    3.3700 C.ar   59  G59         0.1748
   1269  C6       -16.4280   15.1880    3.7400 C.ar   59  G59         0.3023
   1270  O6       -17.0230   15.1370    4.8240 O.2    59  G59        -0.2633
   1271  N7       -14.6550   16.9980    4.0840 N.ar   59  G59        -0.2173
   1272  C8       -13.7640   17.4550    3.2370 C.ar   59  G59         0.1817
   1273  N9       -13.8250   16.8070    2.0230 N.ar   59  G59        -0.2693
   1274  OP1      -10.1410   22.2810    3.0000 O.2    59  G59        -0.5172
   1275  OP2      -11.7930   21.2960    4.7180 O.co2  59  G59        -0.4373
   1276  P        -14.2100   21.6200   -0.6190 P.3    60  A60         0.2141
   1277  C5'      -16.6980   21.7940    0.1830 C.3    60  A60         0.1812
   1278  O5'      -15.6300   20.9840   -0.2730 O.3    60  A60        -0.3114
   1279  C4'      -17.9830   21.3850   -0.4820 C.3    60  A60         0.1773
   1280  O4'      -17.8910   21.6580   -1.9000 O.3    60  A60        -0.3307
   1281  C3'      -18.3210   19.9030   -0.4100 C.3    60  A60         0.1860
   1282  O3'      -18.9550   19.5670    0.8070 O.3    60  A60        -0.3112
   1283  C2'      -19.2190   19.6990   -1.6240 C.3    60  A60         0.2309
   1284  O2'      -20.5460   20.1320   -1.3440 O.3    60  A60        -0.2156
   1285  C1'      -18.6160   20.6870   -2.6220 C.3    60  A60         0.2408
   1286  N1       -18.4160   17.5850   -6.6780 N.ar   60  A60        -0.2040
   1287  C2       -19.4140   17.9560   -5.8670 C.ar   60  A60         0.2016
   1288  N3       -19.3710   18.7640   -4.8150 N.ar   60  A60        -0.2048
   1289  C4       -18.1290   19.2160   -4.6090 C.ar   60  A60         0.1692
   1290  C5       -17.0060   18.9440   -5.3510 C.ar   60  A60         0.1518
   1291  C6       -17.1780   18.0820   -6.4440 C.ar   60  A60         0.1919
   1292  N6       -16.1830   17.7070   -7.2570 N.pl3  60  A60        -0.1054
   1293  N7       -15.9050   19.6210   -4.8400 N.ar   60  A60        -0.2193
   1294  C8       -16.3900   20.2840   -3.8140 C.ar   60  A60         0.1816
   1295  N9       -17.7290   20.0670   -3.6190 N.ar   60  A60        -0.2693
   1296  OP1      -14.2480   22.2430   -1.9630 O.2    60  A60        -0.5172
   1297  OP2      -13.7940   22.4200    0.5510 O.co2  60  A60        -0.4373
   1298  P        -18.4720   18.3090    1.6750 P.3    61  G61         0.2141
   1299  C5'      -20.4500   16.9130    0.6820 C.3    61  G61         0.1812
   1300  O5'      -19.0550   17.0560    0.8940 O.3    61  G61        -0.3114
   1301  C4'      -20.7150   15.9890   -0.4730 C.3    61  G61         0.1773
   1302  O4'      -20.1260   16.5420   -1.6690 O.3    61  G61        -0.3307
   1303  C3'      -20.1010   14.6010   -0.3540 C.3    61  G61         0.1860
   1304  O3'      -20.9640   13.7400    0.3670 O.3    61  G61        -0.3112
   1305  C2'      -19.9060   14.1840   -1.8110 C.3    61  G61         0.2309
   1306  O2'      -21.1300   13.7360   -2.3690 O.3    61  G61        -0.2156
   1307  C1'      -19.5860   15.5160   -2.4750 C.3    61  G61         0.2408
   1308  N1       -15.6240   15.2670   -5.7040 N.ar   61  G61        -0.1709
   1309  C2       -16.9230   14.8420   -5.8720 C.ar   61  G61         0.2606
   1310  N2       -17.2340   14.2590   -7.0440 N.pl3  61  G61        -0.0859
   1311  N3       -17.8620   14.9530   -4.9430 N.ar   61  G61        -0.1918
   1312  C4       -17.4120   15.5380   -3.8190 C.ar   61  G61         0.1723
   1313  C5       -16.1440   16.0050   -3.5600 C.ar   61  G61         0.1748
   1314  C6       -15.1320   15.8860   -4.5570 C.ar   61  G61         0.3023
   1315  O6       -13.9440   16.2670   -4.4930 O.2    61  G61        -0.2633
   1316  N7       -16.0830   16.5400   -2.2800 N.ar   61  G61        -0.2173
   1317  C8       -17.2930   16.3960   -1.7930 C.ar   61  G61         0.1817
   1318  N9       -18.1460   15.7810   -2.6760 N.ar   61  G61        -0.2693
   1319  OP1      -19.2030   18.4270    2.9670 O.3    61  G61        -0.4373
   1320  OP2      -16.9760   18.2030    1.6670 O.co2  61  G61        -0.5172
   1321  P        -20.4350   12.4250    1.1190 P.3    62  A62         0.2141
   1322  C5'      -21.4700   10.7560   -0.6030 C.3    62  A62         0.1812
   1323  O5'      -20.3130   11.3440   -0.0400 O.3    62  A62        -0.3114
   1324  C4'      -21.0920    9.8770   -1.7630 C.3    62  A62         0.1773
   1325  O4'      -20.5290   10.6970   -2.8150 O.3    62  A62        -0.3307
   1326  C3'      -20.0080    8.8540   -1.4680 C.3    62  A62         0.1860
   1327  O3'      -20.5100    7.6800   -0.8440 O.3    62  A62        -0.3112
   1328  C2'      -19.3780    8.6120   -2.8390 C.3    62  A62         0.2309
   1329  O2'      -20.1530    7.6980   -3.5960 O.3    62  A62        -0.2156
   1330  C1'      -19.4970    9.9960   -3.4790 C.3    62  A62         0.2408
   1331  N1       -15.1590   11.5980   -5.7660 N.ar   62  A62        -0.2040
   1332  C2       -16.1460   10.7940   -6.2140 C.ar   62  A62         0.2016
   1333  N3       -17.2520   10.4150   -5.5680 N.ar   62  A62        -0.2048
   1334  C4       -17.2880   10.9460   -4.3200 C.ar   62  A62         0.1692
   1335  C5       -16.3430   11.7770   -3.7320 C.ar   62  A62         0.1518
   1336  C6       -15.2260   12.1150   -4.5060 C.ar   62  A62         0.1919
   1337  N6       -14.2530   12.9130   -4.0380 N.pl3  62  A62        -0.1054
   1338  N7       -16.7110   12.1360   -2.4340 N.ar   62  A62        -0.2193
   1339  C8       -17.8610   11.5190   -2.2620 C.ar   62  A62         0.1816
   1340  N9       -18.2590   10.7830   -3.3580 N.ar   62  A62        -0.2693
   1341  OP1      -21.5600   12.0620    2.0320 O.3    62  A62        -0.4373
   1342  OP2      -19.0750   12.6510    1.6890 O.co2  62  A62        -0.5172
   1343  P        -19.5720    6.8490    0.1620 P.3    63  G63         0.2141
   1344  C5'      -16.9710    6.6070   -0.1110 C.3    63  G63         0.1812
   1345  O5'      -18.2550    6.6360   -0.7110 O.3    63  G63        -0.3114
   1346  C4'      -16.0170    7.5420   -0.8120 C.3    63  G63         0.1773
   1347  O4'      -16.4860    8.9070   -0.6640 O.3    63  G63        -0.3307
   1348  C3'      -14.5970    7.5540   -0.2570 C.3    63  G63         0.1860
   1349  O3'      -13.7930    6.5590   -0.8600 O.3    63  G63        -0.3112
   1350  C2'      -14.1190    8.9660   -0.5540 C.3    63  G63         0.2309
   1351  O2'      -13.7070    9.0700   -1.9080 O.3    63  G63        -0.2156
   1352  C1'      -15.4050    9.7650   -0.3760 C.3    63  G63         0.2408
   1353  N1       -13.7140   12.7530    3.3840 N.ar   63  G63        -0.1709
   1354  C2       -13.1820   12.5830    2.1210 C.ar   63  G63         0.2606
   1355  N2       -12.0770   13.3100    1.8500 N.pl3  63  G63        -0.0859
   1356  N3       -13.6980   11.7690    1.2060 N.ar   63  G63        -0.1918
   1357  C4       -14.8010   11.1400    1.6810 C.ar   63  G63         0.1723
   1358  C5       -15.4030   11.2380    2.9150 C.ar   63  G63         0.1748
   1359  C6       -14.8470   12.1070    3.8790 C.ar   63  G63         0.3023
   1360  O6       -15.2520   12.3190    5.0340 O.2    63  G63        -0.2633
   1361  N7       -16.5220   10.4190    3.0050 N.ar   63  G63        -0.2173
   1362  C8       -16.5960    9.8430    1.8460 C.ar   63  G63         0.1817
   1363  N9       -15.5790   10.2270    1.0050 N.ar   63  G63        -0.2693
   1364  OP1      -20.1950    5.5180    0.4160 O.2    63  G63        -0.5172
   1365  OP2      -19.2720    7.7120    1.3230 O.co2  63  G63        -0.4373
   1366  P        -12.6280    5.8300   -0.0240 P.3    64  C64         0.2141
   1367  C5'      -10.9450    7.5540   -1.0190 C.3    64  C64         0.1812
   1368  O5'      -11.5280    6.9620    0.1310 O.3    64  C64        -0.3114
   1369  C4'       -9.9290    8.5830   -0.6140 C.3    64  C64         0.1773
   1370  O4'      -10.5950    9.7120    0.0010 O.3    64  C64        -0.3307
   1371  C3'       -8.9430    8.1280    0.4450 C.3    64  C64         0.1860
   1372  O3'       -7.9050    7.3240   -0.0910 O.3    64  C64        -0.3112
   1373  C2'       -8.4710    9.4440    1.0320 C.3    64  C64         0.2309
   1374  O2'       -7.5400   10.0420    0.1500 O.3    64  C64        -0.2156
   1375  C1'       -9.7620   10.2690    1.0010 C.3    64  C64         0.2420
   1376  N1       -10.4940   10.2620    2.2940 N.ar   64  C64        -0.2535
   1377  C2       -10.1590   11.2050    3.2650 C.ar   64  C64         0.3532
   1378  O2        -9.2470   12.0110    3.0350 O.2    64  C64        -0.2443
   1379  N3       -10.8190   11.2350    4.4470 N.ar   64  C64        -0.1739
   1380  C4       -11.7980   10.3630    4.6920 C.ar   64  C64         0.1759
   1381  N4       -12.4110   10.4570    5.8870 N.pl3  64  C64        -0.1070
   1382  C5       -12.1780    9.3900    3.7250 C.ar   64  C64         0.0566
   1383  C6       -11.5090    9.3710    2.5520 C.ar   64  C64         0.0850
   1384  OP1      -12.0140    4.8290   -0.9250 O.2    64  C64        -0.5172
   1385  OP2      -13.1300    5.4650    1.3250 O.co2  64  C64        -0.4373
   1386  P         -7.0600    6.3430    0.8610 P.3    65  G65         0.2141
   1387  C5'       -5.8370    7.2010    3.0140 C.3    65  G65         0.1812
   1388  O5'       -6.1300    7.3770    1.6390 O.3    65  G65        -0.3114
   1389  C4'       -5.4530    8.5030    3.6530 C.3    65  G65         0.1773
   1390  O4'       -6.6320    9.3370    3.7810 O.3    65  G65        -0.3307
   1391  C3'       -4.9120    8.3950    5.0660 C.3    65  G65         0.1860
   1392  O3'       -3.5300    8.0930    5.0940 O.3    65  G65        -0.3112
   1393  C2'       -5.2490    9.7520    5.6670 C.3    65  G65         0.2309
   1394  O2'       -4.3030   10.7280    5.2480 O.3    65  G65        -0.2156
   1395  C1'       -6.5930   10.0500    4.9990 C.3    65  G65         0.2408
   1396  N1        -9.0650   10.4880    9.4550 N.ar   65  G65        -0.1709
   1397  C2        -7.9050   11.1100    9.0310 C.ar   65  G65         0.2606
   1398  N2        -7.3210   11.9470    9.9020 N.pl3  65  G65        -0.0859
   1399  N3        -7.3600   10.9130    7.8400 N.ar   65  G65        -0.1918
   1400  C4        -8.0670   10.0320    7.0920 C.ar   65  G65         0.1723
   1401  C5        -9.2370    9.3650    7.4120 C.ar   65  G65         0.1748
   1402  C6        -9.8200    9.5960    8.6940 C.ar   65  G65         0.3023
   1403  O6       -10.8560    9.1040    9.1730 O.2    65  G65        -0.2633
   1404  N7        -9.6460    8.5450    6.3580 N.ar   65  G65        -0.2173
   1405  C8        -8.7370    8.7260    5.4290 C.ar   65  G65         0.1817
   1406  N9        -7.7480    9.6170    5.8160 N.ar   65  G65        -0.2693
   1407  OP1       -6.2320    5.4600   -0.0050 O.2    65  G65        -0.5172
   1408  OP2       -7.9440    5.6980    1.8640 O.co2  65  G65        -0.4373
   1409  P         -3.0290    6.7570    5.8220 P.3    66  C66         0.2141
   1410  C5'       -2.3150    8.2780    7.8000 C.3    66  C66         0.1812
   1411  O5'       -3.0470    7.1530    7.3590 O.3    66  C66        -0.3114
   1412  C4'       -2.8470    8.8210    9.0970 C.3    66  C66         0.1773
   1413  O4'       -4.1690    9.4000    8.9140 O.3    66  C66        -0.3307
   1414  C3'       -3.0450    7.7970   10.2040 C.3    66  C66         0.1860
   1415  O3'       -1.8360    7.4720   10.8560 O.3    66  C66        -0.3112
   1416  C2'       -4.0420    8.4950   11.1060 C.3    66  C66         0.2309
   1417  O2'       -3.3880    9.5170   11.8400 O.3    66  C66        -0.2156
   1418  C1'       -4.9510    9.1620   10.0740 C.3    66  C66         0.2420
   1419  N1        -6.1040    8.2930    9.7270 N.ar   66  C66        -0.2535
   1420  C2        -7.1780    8.2720   10.6170 C.ar   66  C66         0.3532
   1421  O2        -7.1110    8.9620   11.6330 O.2    66  C66        -0.2443
   1422  N3        -8.2530    7.4950   10.3580 N.ar   66  C66        -0.1739
   1423  C4        -8.2890    6.7650    9.2530 C.ar   66  C66         0.1759
   1424  N4        -9.3830    6.0280    9.0510 N.pl3  66  C66        -0.1070
   1425  C5        -7.2120    6.7550    8.3220 C.ar   66  C66         0.0566
   1426  C6        -6.1520    7.5190    8.6010 C.ar   66  C66         0.0850
   1427  OP1       -1.6130    6.5470    5.4250 O.2    66  C66        -0.5172
   1428  OP2       -4.0420    5.7160    5.5910 O.co2  66  C66        -0.4373
   1429  P         -1.6100    6.0060   11.4850 P.3    67  G67         0.2141
   1430  C5'       -2.6450    6.8710   13.7520 C.3    67  G67         0.1812
   1431  O5'       -2.6870    5.9510   12.6610 O.3    67  G67        -0.3114
   1432  C4'       -3.5940    6.4370   14.8430 C.3    67  G67         0.1773
   1433  O4'       -4.9440    6.4110   14.2880 O.3    67  G67        -0.3307
   1434  C3'       -3.3240    5.0250   15.3740 C.3    67  G67         0.1860
   1435  O3'       -3.6670    4.9320   16.7600 O.3    67  G67        -0.3112
   1436  C2'       -4.2870    4.1780   14.5550 C.3    67  G67         0.2309
   1437  O2'       -4.6380    2.9500   15.1580 O.3    67  G67        -0.2156
   1438  C1'       -5.4850    5.1120   14.4220 C.3    67  G67         0.2408
   1439  N1       -10.1250    3.6660   12.9760 N.ar   67  G67        -0.1709
   1440  C2        -9.6430    3.9340   14.2350 C.ar   67  G67         0.2606
   1441  N2       -10.5240    3.7930   15.2420 N.pl3  67  G67        -0.0859
   1442  N3        -8.3990    4.3210   14.4870 N.ar   67  G67        -0.1918
   1443  C4        -7.6700    4.4060   13.3480 C.ar   67  G67         0.1723
   1444  C5        -8.0620    4.1380   12.0410 C.ar   67  G67         0.1748
   1445  C6        -9.4000    3.7320   11.7850 C.ar   67  G67         0.3023
   1446  O6        -9.9410    3.4290   10.6960 O.2    67  G67        -0.2633
   1447  N7        -7.0030    4.3340   11.1600 N.ar   67  G67        -0.2173
   1448  C8        -6.0120    4.7170   11.9410 C.ar   67  G67         0.1817
   1449  N9        -6.3470    4.7920   13.2750 N.ar   67  G67        -0.2693
   1450  OP1       -0.2240    6.0590   12.0290 O.3    67  G67        -0.4373
   1451  OP2       -2.0050    4.9230   10.5720 O.co2  67  G67        -0.5172
   1452  P         -2.5210    5.0980   17.8760 P.3    68  G68         0.2141
   1453  C5'       -2.0580    2.5270   18.0180 C.3    68  G68         0.1812
   1454  O5'       -1.6100    3.8160   17.6660 O.3    68  G68        -0.3114
   1455  C4'       -1.2140    1.4870   17.3320 C.3    68  G68         0.1773
   1456  O4'        0.0670    1.3830   17.9730 O.3    68  G68        -0.3307
   1457  C3'       -1.7680    0.0740   17.3060 C.3    68  G68         0.1860
   1458  O3'       -2.5640   -0.0670   16.1360 O.3    68  G68        -0.3112
   1459  C2'       -0.5200   -0.8340   17.3130 C.3    68  G68         0.2309
   1460  O2'       -0.2420   -1.3280   16.0120 O.3    68  G68        -0.2156
   1461  C1'        0.6140    0.1170   17.7390 C.3    68  G68         0.2408
   1462  N1         5.1910   -1.3460   19.4200 N.ar   68  G68        -0.1709
   1463  C2         4.7630   -1.0740   18.1420 C.ar   68  G68         0.2606
   1464  N2         5.6920   -1.2130   17.1820 N.pl3  68  G68        -0.0859
   1465  N3         3.5240   -0.7020   17.8320 N.ar   68  G68        -0.1918
   1466  C4         2.7310   -0.6190   18.9190 C.ar   68  G68         0.1723
   1467  C5         3.0630   -0.8660   20.2360 C.ar   68  G68         0.1748
   1468  C6         4.3940   -1.2680   20.5590 C.ar   68  G68         0.3023
   1469  O6         4.8760   -1.5330   21.6740 O.2    68  G68        -0.2633
   1470  N7         1.9620   -0.6650   21.0590 N.ar   68  G68        -0.2173
   1471  C8         1.0010   -0.3070   20.2420 C.ar   68  G68         0.1817
   1472  N9         1.3930   -0.2920   18.9240 N.ar   68  G68        -0.2693
   1473  OP1       -3.1520    5.0310   19.2220 O.3    68  G68        -0.4373
   1474  OP2       -1.6330    6.2510   17.5660 O.co2  68  G68        -0.5172
   1475  P         -3.6120   -1.2610   15.9180 P.3    69  U69         0.2141
   1476  C5'       -5.3960   -0.0490   17.4300 C.3    69  U69         0.1812
   1477  O5'       -5.0290   -0.5840   16.1730 O.3    69  U69        -0.3114
   1478  C4'       -6.8890    0.1030   17.4880 C.3    69  U69         0.1773
   1479  O4'       -7.2960    1.1080   16.5280 O.3    69  U69        -0.3307
   1480  C3'       -7.6780   -1.1320   17.0850 C.3    69  U69         0.1860
   1481  O3'       -7.7980   -2.0670   18.1520 O.3    69  U69        -0.3112
   1482  C2'       -9.0040   -0.5370   16.6270 C.3    69  U69         0.2309
   1483  O2'       -9.8050   -0.2010   17.7530 O.3    69  U69        -0.2156
   1484  C1'       -8.5420    0.7750   15.9760 C.3    69  U69         0.2420
   1485  N1        -8.3920    0.7050   14.5000 N.ar   69  U69        -0.2534
   1486  C2        -9.5080    0.5310   13.7110 C.ar   69  U69         0.3546
   1487  O2       -10.6230    0.3990   14.1830 O.2    69  U69        -0.2443
   1488  N3        -9.2740    0.5010   12.3500 N.ar   69  U69        -0.1530
   1489  C4        -8.0620    0.6280   11.7030 C.ar   69  U69         0.2846
   1490  O4        -8.0130    0.5810   10.4670 O.2    69  U69        -0.2650
   1491  C5        -6.9470    0.8210   12.5820 C.ar   69  U69         0.0814
   1492  C6        -7.1550    0.8480   13.9090 C.ar   69  U69         0.0870
   1493  OP1       -3.3380   -2.3450   16.8890 O.3    69  U69        -0.4373
   1494  OP2       -3.6420   -1.5440   14.4580 O.co2  69  U69        -0.5172
   1495  P         -7.8480   -3.6630   17.8840 P.3    70  G70         0.2141
   1496  C5'      -10.2570   -3.6900   18.8870 C.3    70  G70         0.1812
   1497  O5'       -9.3970   -3.9800   17.7930 O.3    70  G70        -0.3114
   1498  C4'      -11.6610   -4.1430   18.5840 C.3    70  G70         0.1773
   1499  O4'      -12.2860   -3.2080   17.6680 O.3    70  G70        -0.3307
   1500  C3'      -11.7660   -5.4770   17.8690 C.3    70  G70         0.1860
   1501  O3'      -11.6990   -6.5710   18.7610 O.3    70  G70        -0.3112
   1502  C2'      -13.1010   -5.3630   17.1590 C.3    70  G70         0.2309
   1503  O2'      -14.1510   -5.5260   18.0950 O.3    70  G70        -0.2156
   1504  C1'      -13.0850   -3.9040   16.7400 C.3    70  G70         0.2408
   1505  N1       -13.7120   -3.9830   11.6600 N.ar   70  G70        -0.1709
   1506  C2       -14.6090   -4.3210   12.6480 C.ar   70  G70         0.2606
   1507  N2       -15.8220   -4.7150   12.2200 N.pl3  70  G70        -0.0859
   1508  N3       -14.3410   -4.2770   13.9460 N.ar   70  G70        -0.1918
   1509  C4       -13.0810   -3.8620   14.1770 C.ar   70  G70         0.1723
   1510  C5       -12.1100   -3.4970   13.2630 C.ar   70  G70         0.1748
   1511  C6       -12.4060   -3.5430   11.8720 C.ar   70  G70         0.3023
   1512  O6       -11.6770   -3.2640   10.9000 O.2    70  G70        -0.2633
   1513  N7       -10.9400   -3.1260   13.9180 N.ar   70  G70        -0.2173
   1514  C8       -11.2120   -3.2560   15.1890 C.ar   70  G70         0.1817
   1515  N9       -12.4930   -3.7000   15.4120 N.ar   70  G70        -0.2693
   1516  OP1       -7.3560   -4.3210   19.1150 O.3    70  G70        -0.4373
   1517  OP2       -7.2520   -4.0240   16.5740 O.co2  70  G70        -0.5172
   1518  P        -11.3120   -8.0400   18.2330 P.3    71  A71         0.2141
   1519  C5'      -13.7890   -8.7020   17.6000 C.3    71  A71         0.1812
   1520  O5'      -12.4590   -8.4160   17.1900 O.3    71  A71        -0.3114
   1521  C4'      -14.6740   -8.9280   16.3970 C.3    71  A71         0.1773
   1522  O4'      -14.6540   -7.7470   15.5610 O.3    71  A71        -0.3307
   1523  C3'      -14.2630  -10.0550   15.4510 C.3    71  A71         0.1860
   1524  O3'      -14.7150  -11.3240   15.8980 O.3    71  A71        -0.3112
   1525  C2'      -14.9000   -9.6280   14.1360 C.3    71  A71         0.2309
   1526  O2'      -16.2910   -9.9130   14.1530 O.3    71  A71        -0.2156
   1527  C1'      -14.7320   -8.1130   14.1980 C.3    71  A71         0.2408
   1528  N1       -12.5400   -6.7000    9.7360 N.ar   71  A71        -0.2040
   1529  C2       -13.7850   -7.1030   10.0410 C.ar   71  A71         0.2016
   1530  N3       -14.2900   -7.4680   11.2240 N.ar   71  A71        -0.2048
   1531  C4       -13.3580   -7.3750   12.1880 C.ar   71  A71         0.1692
   1532  C5       -12.0390   -6.9730   12.0340 C.ar   71  A71         0.1518
   1533  C6       -11.6250   -6.6230   10.7370 C.ar   71  A71         0.1919
   1534  N6       -10.3770   -6.2250   10.4710 N.pl3  71  A71        -0.1054
   1535  N7       -11.3570   -7.0100   13.2440 N.ar   71  A71        -0.2193
   1536  C8       -12.2750   -7.4180   14.0920 C.ar   71  A71         0.1816
   1537  N9       -13.5050   -7.6560   13.5230 N.ar   71  A71        -0.2693
   1538  OP1      -11.4110   -8.9000   19.4350 O.3    71  A71        -0.4373
   1539  OP2      -10.0380   -7.9700   17.4570 O.co2  71  A71        -0.5172
   1540  P        -14.0510  -12.7120   15.4070 P.3    72  A72         0.2141
   1541  C5'      -15.8850  -13.1790   13.5980 C.3    72  A72         0.1812
   1542  O5'      -14.5320  -12.8830   13.9000 O.3    72  A72        -0.3114
   1543  C4'      -16.1430  -13.0960   12.1160 C.3    72  A72         0.1773
   1544  O4'      -15.8640  -11.7520   11.6460 O.3    72  A72        -0.3307
   1545  C3'      -15.2720  -13.9790   11.2390 C.3    72  A72         0.1860
   1546  O3'      -15.7250  -15.3200   11.1990 O.3    72  A72        -0.3112
   1547  C2'      -15.3360  -13.2650    9.8940 C.3    72  A72         0.2309
   1548  O2'      -16.5760  -13.5290    9.2550 O.3    72  A72        -0.2156
   1549  C1'      -15.3300  -11.8000   10.3380 C.3    72  A72         0.2408
   1550  N1       -11.4670   -9.4610    7.7730 N.ar   72  A72        -0.2040
   1551  C2       -12.6940   -9.8420    7.3840 C.ar   72  A72         0.2016
   1552  N3       -13.6540  -10.4370    8.0950 N.ar   72  A72        -0.2048
   1553  C4       -13.2550  -10.6540    9.3630 C.ar   72  A72         0.1692
   1554  C5       -12.0290  -10.3110    9.9080 C.ar   72  A72         0.1518
   1555  C6       -11.0970   -9.6840    9.0590 C.ar   72  A72         0.1919
   1556  N6        -9.8740   -9.3010    9.4560 N.pl3  72  A72        -0.1054
   1557  N7       -11.9660  -10.6920   11.2440 N.ar   72  A72        -0.2193
   1558  C8       -13.1360  -11.2400   11.4800 C.ar   72  A72         0.1816
   1559  N9       -13.9640  -11.2510   10.3860 N.ar   72  A72        -0.2693
   1560  OP1      -14.7490  -13.7120   16.2390 O.3    72  A72        -0.4373
   1561  OP2      -12.5640  -12.6600   15.4180 O.co2  72  A72        -0.5172
   1562  P        -14.6860  -16.5510   11.1870 P.3    73  U73         0.2141
   1563  C5'      -15.0620  -16.6130    8.5900 C.3    73  U73         0.1812
   1564  O5'      -14.1580  -16.5960    9.6840 O.3    73  U73        -0.3114
   1565  C4'      -14.3550  -16.2960    7.2950 C.3    73  U73         0.1773
   1566  O4'      -14.0250  -14.8840    7.2410 O.3    73  U73        -0.3307
   1567  C3'      -13.0190  -16.9890    7.0820 C.3    73  U73         0.1860
   1568  O3'      -13.1510  -18.3270    6.6440 O.3    73  U73        -0.3112
   1569  C2'      -12.3210  -16.0740    6.0810 C.3    73  U73         0.2309
   1570  O2'      -12.7860  -16.3030    4.7590 O.3    73  U73        -0.2156
   1571  C1'      -12.8120  -14.7000    6.5350 C.3    73  U73         0.2420
   1572  N1       -11.8320  -14.0350    7.4210 N.ar   73  U73        -0.2534
   1573  C2       -10.8000  -13.3680    6.7920 C.ar   73  U73         0.3546
   1574  O2       -10.6890  -13.3100    5.5770 O.2    73  U73        -0.2443
   1575  N3        -9.9080  -12.7580    7.6370 N.ar   73  U73        -0.1530
   1576  C4        -9.9490  -12.7680    9.0110 C.ar   73  U73         0.2846
   1577  O4        -9.0610  -12.1700    9.6130 O.2    73  U73        -0.2650
   1578  C5       -11.0440  -13.4890    9.5970 C.ar   73  U73         0.0814
   1579  C6       -11.9300  -14.0870    8.7950 C.ar   73  U73         0.0870
   1580  OP1      -15.5010  -17.7560   11.4850 O.2    73  U73        -0.5172
   1581  OP2      -13.5100  -16.2600   12.0380 O.co2  73  U73        -0.4373
   1582  P        -12.0390  -19.4140    7.0440 P.3    74  C74         0.2141
   1583  C5'      -10.7230  -19.0750    4.8100 C.3    74  C74         0.1812
   1584  O5'      -10.7490  -18.9540    6.2240 O.3    74  C74        -0.3114
   1585  C4'       -9.5400  -18.3700    4.1930 C.3    74  C74         0.1773
   1586  O4'       -9.5560  -16.9610    4.5340 O.3    74  C74        -0.3307
   1587  C3'       -8.1570  -18.8290    4.6220 C.3    74  C74         0.1860
   1588  O3'       -7.7550  -20.0390    3.9990 O.3    74  C74        -0.3112
   1589  C2'       -7.2890  -17.6340    4.2460 C.3    74  C74         0.2309
   1590  O2'       -7.0190  -17.6170    2.8510 O.3    74  C74        -0.2156
   1591  C1'       -8.2290  -16.4660    4.5660 C.3    74  C74         0.2420
   1592  N1        -7.9540  -15.8860    5.9010 N.ar   74  C74        -0.2535
   1593  C2        -6.9000  -14.9730    6.0090 C.ar   74  C74         0.3532
   1594  O2        -6.2450  -14.6770    4.9960 O.2    74  C74        -0.2443
   1595  N3        -6.6230  -14.4300    7.2170 N.ar   74  C74        -0.1739
   1596  C4        -7.3410  -14.7710    8.2910 C.ar   74  C74         0.1759
   1597  N4        -7.0200  -14.1990    9.4610 N.pl3  74  C74        -0.1070
   1598  C5        -8.4200  -15.7080    8.2120 C.ar   74  C74         0.0566
   1599  C6        -8.6860  -16.2380    7.0090 C.ar   74  C74         0.0850
   1600  OP1      -12.5240  -20.7000    6.4710 O.2    74  C74        -0.5172
   1601  OP2      -11.7480  -19.3260    8.5010 O.co2  74  C74        -0.4373
   1602  P         -6.6580  -20.9900    4.6930 P.3    75  A75         0.2141
   1603  C5'       -4.7600  -19.9570    3.2100 C.3    75  A75         0.1812
   1604  O5'       -5.2870  -20.1980    4.5050 O.3    75  A75        -0.3114
   1605  C4'       -3.5390  -19.0760    3.2640 C.3    75  A75         0.1773
   1606  O4'       -3.9120  -17.7380    3.6880 O.3    75  A75        -0.3307
   1607  C3'       -2.4650  -19.4950    4.2550 C.3    75  A75         0.1860
   1608  O3'       -1.6160  -20.5040    3.7410 O.3    75  A75        -0.3112
   1609  C2'       -1.7410  -18.1860    4.5360 C.3    75  A75         0.2309
   1610  O2'       -0.8620  -17.8680    3.4660 O.3    75  A75        -0.2156
   1611  C1'       -2.9050  -17.1950    4.5180 C.3    75  A75         0.2408
   1612  N1        -2.4790  -14.8770    9.1530 N.ar   75  A75        -0.2040
   1613  C2        -1.7040  -14.8390    8.0530 C.ar   75  A75         0.2016
   1614  N3        -1.8610  -15.4630    6.8810 N.ar   75  A75        -0.2048
   1615  C4        -2.9850  -16.2050    6.8870 C.ar   75  A75         0.1692
   1616  C5        -3.8890  -16.3340    7.9380 C.ar   75  A75         0.1518
   1617  C6        -3.6090  -15.6230    9.1220 C.ar   75  A75         0.1919
   1618  N6        -4.3860  -15.6550   10.2080 N.pl3  75  A75        -0.1054
   1619  N7        -4.9340  -17.1810    7.5870 N.ar   75  A75        -0.2193
   1620  C8        -4.6430  -17.5450    6.3550 C.ar   75  A75         0.1816
   1621  N9        -3.4810  -16.9900    5.8640 N.ar   75  A75        -0.2693
   1622  OP1       -6.5790  -22.2350    3.8880 O.2    75  A75        -0.5172
   1623  OP2       -6.9380  -21.0820    6.1510 O.co2  75  A75        -0.4373
   1624  P         -1.0540  -21.6620    4.7060 P.3    76  U76         0.2141
   1625  C5'        1.1850  -20.3310    4.8910 C.3    76  U76         0.1812
   1626  O5'        0.0940  -20.9500    5.5520 O.3    76  U76        -0.3114
   1627  C4'        1.9420  -19.4060    5.8080 C.3    76  U76         0.1773
   1628  O4'        1.1220  -18.2550    6.1670 O.3    76  U76        -0.3307
   1629  C3'        2.3520  -19.9770    7.1510 C.3    76  U76         0.1860
   1630  O3'        3.4580  -20.8690    7.0820 O.3    76  U76        -0.3112
   1631  C2'        2.6070  -18.7150    7.9640 C.3    76  U76         0.2309
   1632  O2'        3.8530  -18.1300    7.6070 O.3    76  U76        -0.2156
   1633  C1'        1.4730  -17.8100    7.4670 C.3    76  U76         0.2420
   1634  N1         0.2830  -17.9140    8.3480 N.ar   76  U76        -0.2534
   1635  C2         0.2830  -17.1970    9.5420 C.ar   76  U76         0.3546
   1636  O2         1.2110  -16.4670    9.8810 O.2    76  U76        -0.2443
   1637  N3        -0.8500  -17.3670   10.3210 N.ar   76  U76        -0.1530
   1638  C4        -1.9480  -18.1600   10.0280 C.ar   76  U76         0.2846
   1639  O4        -2.8890  -18.2200   10.8170 O.2    76  U76        -0.2650
   1640  C5        -1.8690  -18.8730    8.7840 C.ar   76  U76         0.0814
   1641  C6        -0.7810  -18.7290    8.0170 C.ar   76  U76         0.0870
   1642  OP1       -0.3830  -22.6580    3.8210 O.2    76  U76        -0.5172
   1643  OP2       -2.1530  -22.0760    5.6210 O.co2  76  U76        -0.4373
   1644  P          3.5410  -22.1340    8.0790 P.3    77  U77         0.2141
   1645  C5'        4.7330  -20.6370    9.8670 C.3    77  U77         0.1812
   1646  O5'        3.6410  -21.4710    9.5240 O.3    77  U77        -0.3114
   1647  C4'        4.5150  -19.9990   11.2130 C.3    77  U77         0.1773
   1648  O4'        3.3530  -19.1270   11.1830 O.3    77  U77        -0.3307
   1649  C3'        4.2000  -20.9540   12.3430 C.3    77  U77         0.1860
   1650  O3'        5.3420  -21.6330   12.8090 O.3    77  U77        -0.3112
   1651  C2'        3.5650  -20.0310   13.3690 C.3    77  U77         0.2309
   1652  O2'        4.5640  -19.2560   14.0090 O.3    77  U77        -0.2156
   1653  C1'        2.7450  -19.1070   12.4590 C.3    77  U77         0.2420
   1654  N1         1.3490  -19.5870   12.3490 N.ar   77  U77        -0.2534
   1655  C2         0.5430  -19.2960   13.4340 C.ar   77  U77         0.3546
   1656  O2         0.9400  -18.6550   14.4040 O.2    77  U77        -0.2443
   1657  N3        -0.7430  -19.7690   13.3390 N.ar   77  U77        -0.1530
   1658  C4        -1.3060  -20.5010   12.3140 C.ar   77  U77         0.2846
   1659  O4        -2.4950  -20.8680   12.3990 O.2    77  U77        -0.2650
   1660  C5        -0.3970  -20.7680   11.2360 C.ar   77  U77         0.0814
   1661  C6         0.8640  -20.3100   11.2950 C.ar   77  U77         0.0870
   1662  OP1        4.8440  -22.8060    7.8390 O.2    77  U77        -0.5172
   1663  OP2        2.2690  -22.9000    8.0290 O.co2  77  U77        -0.4373
   1664  P          5.2090  -23.1620   13.2610 P.3    78  G78         0.2141
   1665  C5'        5.1230  -22.3230   15.7210 C.3    78  G78         0.1812
   1666  O5'        4.5040  -23.0480   14.6790 O.3    78  G78        -0.3114
   1667  C4'        4.1630  -22.1110   16.8590 C.3    78  G78         0.1773
   1668  O4'        3.0740  -21.2540   16.4230 O.3    78  G78        -0.3307
   1669  C3'        3.4560  -23.3500   17.4040 C.3    78  G78         0.1860
   1670  O3'        4.2830  -24.1150   18.2800 O.3    78  G78        -0.3112
   1671  C2'        2.2540  -22.7310   18.0990 C.3    78  G78         0.2309
   1672  O2'        2.6740  -22.1570   19.3280 O.3    78  G78        -0.2156
   1673  C1'        1.9010  -21.5840   17.1300 C.3    78  G78         0.2408
   1674  N1        -3.0700  -22.1500   16.6630 N.ar   78  G78        -0.1709
   1675  C2        -2.3210  -21.6750   17.7190 C.ar   78  G78         0.2606
   1676  N2        -2.9860  -21.2950   18.8410 N.pl3  78  G78        -0.0859
   1677  N3        -1.0000  -21.5770   17.6730 N.ar   78  G78        -0.1918
   1678  C4        -0.4870  -21.9920   16.4980 C.ar   78  G78         0.1723
   1679  C5        -1.1360  -22.4820   15.3870 C.ar   78  G78         0.1748
   1680  C6        -2.5560  -22.5870   15.4310 C.ar   78  G78         0.3023
   1681  O6        -3.3160  -23.0110   14.5390 O.2    78  G78        -0.2633
   1682  N7        -0.2210  -22.7910   14.3830 N.ar   78  G78        -0.2173
   1683  C8         0.9500  -22.4830   14.9000 C.ar   78  G78         0.1817
   1684  N9         0.8490  -21.9950   16.1800 N.ar   78  G78        -0.2693
   1685  OP1        6.6000  -23.6420   13.4600 O.3    78  G78        -0.4373
   1686  OP2        4.2330  -23.8780   12.3930 O.co2  78  G78        -0.5172
   1687  P          4.0370  -25.6870   18.5450 P.3    79  C79         0.2141
   1688  C5'        3.0630  -25.0570   20.9080 C.3    79  C79         0.1812
   1689  O5'        4.0120  -25.7870   20.1310 O.3    79  C79        -0.3114
   1690  C4'        3.5080  -25.0000   22.3440 C.3    79  C79         0.1773
   1691  O4'        2.4360  -24.4780   23.1920 O.3    79  C79        -0.3307
   1692  C3'        3.9070  -26.3610   22.9460 C.3    79  C79         0.1860
   1693  O3'        5.0210  -26.1700   23.8230 O.3    79  C79        -0.3112
   1694  C2'        2.6740  -26.7120   23.7690 C.3    79  C79         0.2309
   1695  O2'        2.8710  -27.6690   24.7930 O.3    79  C79        -0.2156
   1696  C1'        2.3060  -25.3310   24.3060 C.3    79  C79         0.2420
   1697  N1         0.9780  -25.2450   24.9290 N.ar   79  C79        -0.2535
   1698  C2         0.8120  -24.4170   26.0480 C.ar   79  C79         0.3532
   1699  O2         1.7510  -23.6940   26.4290 O.2    79  C79        -0.2443
   1700  N3        -0.3910  -24.3760   26.6610 N.ar   79  C79        -0.1739
   1701  C4        -1.3790  -25.1580   26.2330 C.ar   79  C79         0.1759
   1702  N4        -2.5370  -25.1110   26.8910 N.pl3  79  C79        -0.1070
   1703  C5        -1.2310  -26.0350   25.1160 C.ar   79  C79         0.0566
   1704  C6        -0.0400  -26.0550   24.5100 C.ar   79  C79         0.0850
   1705  OP1        5.2570  -26.3790   18.0750 O.2    79  C79        -0.5172
   1706  OP2        2.7120  -26.1860   18.0870 O.co2  79  C79        -0.4373
   1707  P          6.2760  -27.1900   23.8090 P.3    80  A80         0.2141
   1708  C5'        7.8610  -25.9970   25.5670 C.3    80  A80         0.1812
   1709  O5'        6.9070  -27.0170   25.2710 O.3    80  A80        -0.3114
   1710  C4'        7.9550  -25.7500   27.0580 C.3    80  A80         0.1773
   1711  O4'        6.8530  -24.8970   27.4630 O.3    80  A80        -0.3307
   1712  C3'        7.8250  -26.9870   27.9480 C.3    80  A80         0.1860
   1713  O3'        9.0580  -27.6690   28.1350 O.3    80  A80        -0.3112
   1714  C2'        7.2320  -26.4260   29.2370 C.3    80  A80         0.2309
   1715  O2'        8.2370  -25.8040   30.0240 O.3    80  A80        -0.2156
   1716  C1'        6.3240  -25.3230   28.7000 C.3    80  A80         0.2408
   1717  N1         1.6500  -26.3670   30.7050 N.ar   80  A80        -0.2040
   1718  C2         2.7970  -25.9470   31.2670 C.ar   80  A80         0.2016
   1719  N3         3.9760  -25.7070   30.6950 N.ar   80  A80        -0.2048
   1720  C4         3.9210  -25.9220   29.3710 C.ar   80  A80         0.1692
   1721  C5         2.8130  -26.3320   28.6440 C.ar   80  A80         0.1518
   1722  C6         1.6230  -26.5680   29.3620 C.ar   80  A80         0.1919
   1723  N6         0.4810  -26.9710   28.7930 N.pl3  80  A80        -0.1054
   1724  N7         3.1280  -26.4490   27.2930 N.ar   80  A80        -0.2193
   1725  C8         4.3940  -26.1010   27.2340 C.ar   80  A80         0.1816
   1726  N9         4.9400  -25.7780   28.4580 N.ar   80  A80        -0.2693
   1727  OP1        7.2780  -26.7130   22.8330 O.2    80  A80        -0.5172
   1728  OP2        5.7730  -28.5920   23.6680 O.co2  80  A80        -0.4373
   1729  P          9.1050  -29.2770   28.2100 P.3    81  U81         0.2141
   1730  C5'        9.3610  -29.4100   30.8220 C.3    81  U81         0.1812
   1731  O5'        8.5580  -29.6040   29.6700 O.3    81  U81        -0.3114
   1732  C4'        8.6820  -29.9890   32.0390 C.3    81  U81         0.1773
   1733  O4'        7.4920  -29.2110   32.3360 O.3    81  U81        -0.3307
   1734  C3'        8.1710  -31.4120   31.8840 C.3    81  U81         0.1860
   1735  O3'        9.1720  -32.3790   32.1390 O.3    81  U81        -0.3112
   1736  C2'        7.0140  -31.4700   32.8710 C.3    81  U81         0.2309
   1737  O2'        7.5020  -31.6130   34.1980 O.3    81  U81        -0.2156
   1738  C1'        6.4450  -30.0620   32.7490 C.3    81  U81         0.2420
   1739  N1         5.3280  -29.9480   31.7800 N.ar   81  U81        -0.2534
   1740  C2         4.0640  -30.2970   32.2210 C.ar   81  U81         0.3546
   1741  O2         3.8510  -30.7370   33.3470 O.2    81  U81        -0.2443
   1742  N3         3.0560  -30.1310   31.2920 N.ar   81  U81        -0.1530
   1743  C4         3.1780  -29.6430   30.0000 C.ar   81  U81         0.2846
   1744  O4         2.1730  -29.5550   29.2860 O.2    81  U81        -0.2650
   1745  C5         4.5140  -29.2970   29.6250 C.ar   81  U81         0.0814
   1746  C6         5.5140  -29.4580   30.5080 C.ar   81  U81         0.0870
   1747  OP1       10.5350  -29.6740   28.1140 O.3    81  U81        -0.4373
   1748  OP2        8.1310  -29.8540   27.2400 O.co2  81  U81        -0.5172
   1749  P          9.2410  -33.6960   31.2390 P.3    82  C82         0.2141
   1750  C5'        7.5170  -35.3050   32.3060 C.3    82  C82         0.1812
   1751  O5'        7.7780  -34.3090   31.3510 O.3    82  C82        -0.3114
   1752  C4'        6.0600  -35.4140   32.6720 C.3    82  C82         0.1773
   1753  O4'        5.3440  -34.1580   32.5620 O.3    82  C82        -0.3307
   1754  C3'        5.1950  -36.3590   31.8730 C.3    82  C82         0.1860
   1755  O3'        5.5250  -37.7260   32.0980 O.3    82  C82        -0.3112
   1756  C2'        3.8170  -35.9670   32.3900 C.3    82  C82         0.2309
   1757  O2'        3.6540  -36.4180   33.7270 O.3    82  C82        -0.2156
   1758  C1'        3.9580  -34.4400   32.4620 C.3    82  C82         0.2420
   1759  N1         3.3550  -33.7990   31.2720 N.ar   82  C82        -0.2535
   1760  C2         1.9540  -33.7860   31.2540 C.ar   82  C82         0.3532
   1761  O2         1.3330  -34.2530   32.2320 O.2    82  C82        -0.2443
   1762  N3         1.2990  -33.2550   30.1910 N.ar   82  C82        -0.1739
   1763  C4         1.9770  -32.7570   29.1610 C.ar   82  C82         0.1759
   1764  N4         1.2530  -32.2580   28.1440 N.pl3  82  C82        -0.1070
   1765  C5         3.4090  -32.7700   29.1430 C.ar   82  C82         0.0566
   1766  C6         4.0550  -33.3020   30.2080 C.ar   82  C82         0.0850
   1767  OP1       10.1990  -34.6270   31.8890 O.3    82  C82        -0.4373
   1768  OP2        9.4020  -33.3230   29.8020 O.co2  82  C82        -0.5172
   1769  P          5.6530  -38.7740   30.8850 P.3    83  C83         0.2141
   1770  C5'        3.4620  -40.0480   31.4020 C.3    83  C83         0.1812
   1771  O5'        4.1520  -39.1670   30.5450 O.3    83  C83        -0.3114
   1772  C4'        1.9730  -39.8710   31.3200 C.3    83  C83         0.1773
   1773  O4'        1.6010  -38.4730   31.4320 O.3    83  C83        -0.3307
   1774  C3'        1.3080  -40.3050   30.0360 C.3    83  C83         0.1860
   1775  O3'        1.2190  -41.7180   29.9030 O.3    83  C83        -0.3112
   1776  C2'       -0.0340  -39.6050   30.1460 C.3    83  C83         0.2309
   1777  O2'       -0.8470  -40.2530   31.1120 O.3    83  C83        -0.2156
   1778  C1'        0.4010  -38.2510   30.7100 C.3    83  C83         0.2420
   1779  N1         0.6730  -37.3230   29.5900 N.ar   83  C83        -0.2535
   1780  C2        -0.4180  -36.7970   28.8950 C.ar   83  C83         0.3532
   1781  O2        -1.5640  -37.0650   29.2960 O.2    83  C83        -0.2443
   1782  N3        -0.1970  -35.9830   27.8240 N.ar   83  C83        -0.1739
   1783  C4         1.0550  -35.7100   27.4350 C.ar   83  C83         0.1759
   1784  N4         1.2460  -34.9090   26.3750 N.pl3  83  C83        -0.1070
   1785  C5         2.1840  -36.2510   28.1140 C.ar   83  C83         0.0566
   1786  C6         1.9460  -37.0490   29.1660 C.ar   83  C83         0.0850
   1787  OP1        6.2690  -39.9900   31.4810 O.3    83  C83        -0.4373
   1788  OP2        6.2670  -38.1230   29.6970 O.co2  83  C83        -0.5172
   1789  P          1.4330  -42.4110   28.4690 P.3    84  G84         0.2141
   1790  C5'       -1.1500  -42.4280   28.1350 C.3    84  G84         0.1812
   1791  O5'        0.1230  -42.0180   27.6570 O.3    84  G84        -0.3114
   1792  C4'       -2.2650  -41.7830   27.3540 C.3    84  G84         0.1773
   1793  O4'       -2.1610  -40.3400   27.4340 O.3    84  G84        -0.3307
   1794  C3'       -2.2750  -42.0700   25.8620 C.3    84  G84         0.1860
   1795  O3'       -2.8540  -43.3270   25.5670 O.3    84  G84        -0.3112
   1796  C2'       -3.0580  -40.8940   25.3000 C.3    84  G84         0.2309
   1797  O2'       -4.4540  -41.0930   25.4550 O.3    84  G84        -0.2156
   1798  C1'       -2.6160  -39.7590   26.2270 C.3    84  G84         0.2408
   1799  N1        -1.4240  -36.5280   22.5440 N.ar   84  G84        -0.1709
   1800  C2        -2.6360  -37.1090   22.8450 C.ar   84  G84         0.2606
   1801  N2        -3.6810  -36.7840   22.0650 N.pl3  84  G84        -0.0859
   1802  N3        -2.8060  -37.9500   23.8520 N.ar   84  G84        -0.1918
   1803  C4        -1.6550  -38.1580   24.5380 C.ar   84  G84         0.1723
   1804  C5        -0.3990  -37.6350   24.3140 C.ar   84  G84         0.1748
   1805  C6        -0.2250  -36.7360   23.2300 C.ar   84  G84         0.3023
   1806  O6         0.8110  -36.1670   22.8610 O.2    84  G84        -0.2633
   1807  N7         0.5130  -38.1240   25.2470 N.ar   84  G84        -0.2173
   1808  C8        -0.1990  -38.9230   26.0080 C.ar   84  G84         0.1817
   1809  N9        -1.5200  -38.9790   25.6300 N.ar   84  G84        -0.2693
   1810  OP1        1.3970  -43.8790   28.7320 O.3    84  G84        -0.4373
   1811  OP2        2.6100  -41.8040   27.7920 O.co2  84  G84        -0.5172
   1812  P         -2.3100  -44.2040   24.3410 P.3    85  C85         0.2141
   1813  C5'       -4.1930  -43.0990   22.8670 C.3    85  C85         0.1812
   1814  O5'       -2.8150  -43.4000   23.0560 O.3    85  C85        -0.3114
   1815  C4'       -4.4040  -42.2510   21.6340 C.3    85  C85         0.1773
   1816  O4'       -3.9260  -40.9050   21.8670 O.3    85  C85        -0.3307
   1817  C3'       -3.6550  -42.6980   20.3920 C.3    85  C85         0.1860
   1818  O3'       -4.3240  -43.7400   19.7110 O.3    85  C85        -0.3112
   1819  C2'       -3.5530  -41.4170   19.5810 C.3    85  C85         0.2309
   1820  O2'       -4.7720  -41.1570   18.9060 O.3    85  C85        -0.2156
   1821  C1'       -3.3850  -40.3710   20.6790 C.3    85  C85         0.2420
   1822  N1        -1.9660  -40.0380   20.9150 N.ar   85  C85        -0.2535
   1823  C2        -1.3260  -39.2020   19.9980 C.ar   85  C85         0.3532
   1824  O2        -1.9650  -38.7690   19.0180 O.2    85  C85        -0.2443
   1825  N3        -0.0240  -38.8890   20.1980 N.ar   85  C85        -0.1739
   1826  C4         0.6230  -39.3730   21.2650 C.ar   85  C85         0.1759
   1827  N4         1.9050  -39.0170   21.4210 N.pl3  85  C85        -0.1070
   1828  C5        -0.0130  -40.2230   22.2200 C.ar   85  C85         0.0566
   1829  C6        -1.2960  -40.5320   22.0030 C.ar   85  C85         0.0850
   1830  OP1       -3.0260  -45.5070   24.4190 O.3    85  C85        -0.4373
   1831  OP2       -0.8170  -44.1420   24.3330 O.co2  85  C85        -0.5172
   1832  P         -3.4840  -44.8570   18.9240 P.3    86  U86         0.2141
   1833  C5'       -3.6510  -43.4750   16.6970 C.3    86  U86         0.1812
   1834  O5'       -2.8290  -44.0520   17.7040 O.3    86  U86        -0.3114
   1835  C4'       -2.8460  -42.8930   15.5600 C.3    86  U86         0.1773
   1836  O4'       -2.2320  -41.6370   15.9650 O.3    86  U86        -0.3307
   1837  C3'       -1.6790  -43.7280   15.0500 C.3    86  U86         0.1860
   1838  O3'       -2.0890  -44.7680   14.1750 O.3    86  U86        -0.3112
   1839  C2'       -0.7970  -42.6770   14.3840 C.3    86  U86         0.2309
   1840  O2'       -1.3410  -42.3190   13.1250 O.3    86  U86        -0.2156
   1841  C1'       -0.9810  -41.4860   15.3270 C.3    86  U86         0.2420
   1842  N1         0.0750  -41.3940   16.3660 N.ar   86  U86        -0.2534
   1843  C2         1.2950  -40.8460   16.0030 C.ar   86  U86         0.3546
   1844  O2         1.5490  -40.4600   14.8740 O.2    86  U86        -0.2443
   1845  N3         2.2260  -40.7650   17.0100 N.ar   86  U86        -0.1530
   1846  C4         2.0730  -41.1760   18.3260 C.ar   86  U86         0.2846
   1847  O4         3.0220  -41.0370   19.1070 O.2    86  U86        -0.2650
   1848  C5         0.7830  -41.7320   18.6400 C.ar   86  U86         0.0814
   1849  C6        -0.1450  -41.8150   17.6680 C.ar   86  U86         0.0870
   1850  OP1       -4.4910  -45.8220   18.4080 O.2    86  U86        -0.5172
   1851  OP2       -2.3890  -45.3310   19.8040 O.co2  86  U86        -0.4373
   1852  P         -1.1960  -46.0950   13.9790 P.3    87  C87         0.2141
   1853  C5'       -0.0080  -45.1280   11.8620 C.3    87  C87         0.1812
   1854  O5'        0.0910  -45.5640   13.2040 O.3    87  C87        -0.3114
   1855  C4'        1.2730  -44.4940   11.4040 C.3    87  C87         0.1773
   1856  O4'        1.5810  -43.3630   12.2530 O.3    87  C87        -0.3307
   1857  C3'        2.5140  -45.3640   11.4890 C.3    87  C87         0.1860
   1858  O3'        2.6280  -46.2580   10.3940 O.3    87  C87        -0.3112
   1859  C2'        3.6340  -44.3340   11.5630 C.3    87  C87         0.2309
   1860  O2'        3.8870  -43.7820   10.2780 O.3    87  C87        -0.2156
   1861  C1'        2.9800  -43.2510   12.4190 C.3    87  C87         0.2420
   1862  N1         3.2910  -43.4000   13.8580 N.ar   87  C87        -0.2535
   1863  C2         4.5080  -42.8900   14.3160 C.ar   87  C87         0.3532
   1864  O2         5.2770  -42.3620   13.4910 O.2    87  C87        -0.2443
   1865  N3         4.8080  -42.9980   15.6400 N.ar   87  C87        -0.1739
   1866  C4         3.9440  -43.5820   16.4870 C.ar   87  C87         0.1759
   1867  N4         4.2860  -43.6610   17.7770 N.pl3  87  C87        -0.1070
   1868  C5         2.6900  -44.1060   16.0450 C.ar   87  C87         0.0566
   1869  C6         2.4090  -43.9860   14.7340 C.ar   87  C87         0.0850
   1870  OP1       -1.9690  -46.9700   13.0690 O.2    87  C87        -0.5172
   1871  OP2       -0.7240  -46.6500   15.2730 O.co2  87  C87        -0.4373
   1872  P          3.3510  -47.6750   10.5770 P.3    88  C88         0.2141
   1873  C5'        5.6320  -46.7030    9.7710 C.3    88  C88         0.1812
   1874  O5'        4.8750  -47.2860   10.8160 O.3    88  C88        -0.3114
   1875  C4'        7.0230  -46.3310   10.2190 C.3    88  C88         0.1773
   1876  O4'        6.9710  -45.2900   11.2240 O.3    88  C88        -0.3307
   1877  C3'        7.8330  -47.4110   10.9050 C.3    88  C88         0.1860
   1878  O3'        8.3310  -48.4050   10.0350 O.3    88  C88        -0.3112
   1879  C2'        8.9170  -46.5970   11.5830 C.3    88  C88         0.2309
   1880  O2'        9.8430  -46.1370   10.6100 O.3    88  C88        -0.2156
   1881  C1'        8.1020  -45.4000   12.0710 C.3    88  C88         0.2420
   1882  N1         7.6490  -45.5690   13.4720 N.ar   88  C88        -0.2535
   1883  C2         8.5710  -45.3020   14.5000 C.ar   88  C88         0.3532
   1884  O2         9.7240  -44.9480   14.2040 O.2    88  C88        -0.2443
   1885  N3         8.1900  -45.4270   15.7970 N.ar   88  C88        -0.1739
   1886  C4         6.9410  -45.8160   16.0830 C.ar   88  C88         0.1759
   1887  N4         6.6180  -45.9290   17.3740 N.pl3  88  C88        -0.1070
   1888  C5         5.9790  -46.0970   15.0610 C.ar   88  C88         0.0566
   1889  C6         6.3720  -45.9590   13.7830 C.ar   88  C88         0.0850
   1890  OP1        3.2840  -48.3320    9.2480 O.2    88  C88        -0.5172
   1891  OP2        2.8220  -48.3770   11.7780 O.co2  88  C88        -0.4373
   1892  P          8.6010  -49.8690   10.6220 P.3    89  A89         0.2141
   1893  C5'       11.0900  -49.4240   11.2870 C.3    89  A89         0.1813
   1894  O5'        9.7530  -49.6590   11.7030 O.3    89  A89        -0.3114
   1895  C4'       11.9850  -49.0850   12.4500 C.3    89  A89         0.1801
   1896  O4'       11.3650  -48.0450   13.2440 O.3    89  A89        -0.3306
   1897  C3'       12.2440  -50.1990   13.4520 C.3    89  A89         0.2161
   1898  O3'       13.2310  -51.1240   13.0240 O.3    89  A89        -0.2175
   1899  C2'       12.6240  -49.4260   14.7130 C.3    89  A89         0.2337
   1900  O2'       13.9750  -48.9940   14.6780 O.3    89  A89        -0.2155
   1901  C1'       11.7080  -48.2070   14.6060 C.3    89  A89         0.2409
   1902  N1         9.7020  -48.4480   19.3010 N.ar   89  A89        -0.2040
   1903  C2        10.9460  -48.1810   18.8610 C.ar   89  A89         0.2016
   1904  N3        11.3950  -48.1260   17.6070 N.ar   89  A89        -0.2048
   1905  C4        10.3980  -48.3940   16.7420 C.ar   89  A89         0.1692
   1906  C5         9.0810  -48.6860   17.0350 C.ar   89  A89         0.1518
   1907  C6         8.7300  -48.7080   18.3930 C.ar   89  A89         0.1919
   1908  N6         7.4890  -48.9730   18.8080 N.pl3  89  A89        -0.1054
   1909  N7         8.3440  -48.9100   15.8790 N.ar   89  A89        -0.2193
   1910  C8         9.2230  -48.7470   14.9140 C.ar   89  A89         0.1816
   1911  N9        10.4770  -48.4230   15.3760 N.ar   89  A89        -0.2693
   1912  OP1        9.1420  -50.6880    9.5050 O.2    89  A89        -0.5172
   1913  OP2        7.3800  -50.2990   11.3540 O.co2  89  A89        -0.4373
@<TRIPOS>BOND
     1  1292  1291    1
     2  1310  1309    1
     3  1286  1291   ar
     4  1286  1287   ar
     5  1291  1290   ar
     6  1332  1331   ar
     7  1332  1333   ar
     8  1309  1308   ar
     9  1309  1311   ar
    10  1287  1288   ar
    11  1331  1336   ar
    12  1308  1314   ar
    13  1333  1334   ar
    14  1290  1293   ar
    15  1290  1289   ar
    16  1311  1312   ar
    17  1293  1294   ar
    18  1288  1289   ar
    19  1289  1295   ar
    20  1314  1315    2
    21  1314  1313   ar
    22  1336  1337    1
    23  1336  1335   ar
    24  1334  1335   ar
    25  1334  1340   ar
    26  1312  1313   ar
    27  1312  1318   ar
    28  1294  1295   ar
    29  1335  1338   ar
    30  1295  1285    1
    31  1329  1328    1
    32  1313  1316   ar
    33  1330  1340    1
    34  1330  1328    1
    35  1330  1325    1
    36  1340  1339   ar
    37  1328  1326    1
    38  1325  1324    1
    39  1318  1307    1
    40  1318  1317   ar
    41  1285  1280    1
    42  1285  1283    1
    43  1307  1305    1
    44  1307  1302    1
    45  1338  1339   ar
    46  1306  1305    1
    47  1316  1317   ar
    48  1296  1276    2
    49  1351  1350    1
    50  1280  1279    1
    51  1305  1303    1
    52  1324  1326    1
    53  1324  1322    1
    54  1302  1301    1
    55  1283  1284    1
    56  1283  1281    1
    57  1261  1260    1
    58  1326  1327    1
    59  1367  1369    1
    60  1367  1368    1
    61   327   309    2
    62  1384  1366    2
    63  1349  1348    1
    64  1349  1366    1
    65  1327  1343    1
    66  1346  1347    1
    67  1346  1348    1
    68  1346  1344    1
    69  1259  1276    1
    70  1259  1258    1
    71  1345  1344    1
    72  1345  1343    1
    73  1347  1352    1
    74  1276  1278    1
    75  1276  1297    1
    76  1369  1370    1
    77  1369  1371    1
    78  1322  1323    1
    79  1350  1352    1
    80  1350  1348    1
    81  1279  1281    1
    82  1279  1277    1
    83  1301  1303    1
    84  1301  1299    1
    85  1281  1282    1
    86  1352  1363    1
    87  1303  1304    1
    88  1278  1277    1
    89   295   309    1
    90   295   294    1
    91  1260  1258    1
    92  1260  1262    1
    93  1372  1371    1
    94  1372  1386    1
    95  1323  1321    1
    96  1366  1368    1
    97  1366  1385    1
    98  1407  1386    2
    99  1370  1375    1
   100  1374  1373    1
   101  1343  1364    2
   102  1343  1365    1
   103   290   292    1
   104   290   291    1
   105  1258  1256    1
   106   297   296    1
   107   309   311    1
   108   309   328    1
   109   292   294    1
   110   292   293    1
   111  1304  1321    1
   112   307   289    2
   113  1371  1373    1
   114   310   311    1
   115   310   312    1
   116  1256  1257    1
   117  1256  1254    1
   118  1265  1264    1
   119  1299  1300    1
   120  1262  1257    1
   121  1262  1273    1
   122  1282  1298    1
   123   294   296    1
   124  1386  1388    1
   125  1386  1408    1
   126  1300  1298    1
   127  1375  1373    1
   128  1375  1376    1
   129   347   329    2
   130  1363  1357   ar
   131  1363  1362   ar
   132   275   274    1
   133  1266  1264   ar
   134  1266  1267   ar
   135  1321  1342    2
   136  1321  1341    1
   137  1356  1357   ar
   138  1356  1354   ar
   139   293   298    1
   140  1254  1255    1
   141   296   298    1
   142   291   289    1
   143   312   314    1
   144   312   313    1
   145  1264  1263   ar
   146   273   289    1
   147   273   272    1
   148   289   308    1
   149   315   329    1
   150   315   314    1
   151  1388  1387    1
   152  1320  1298    2
   153  1298  1319    1
   154  1357  1358   ar
   155  1362  1361   ar
   156  1355  1354    1
   157   298   299    1
   158  1273  1267   ar
   159  1273  1272   ar
   160   329   348    1
   161   329   331    1
   162  1267  1268   ar
   163  1354  1353   ar
   164  1376  1383   ar
   165  1376  1377   ar
   166   314   316    1
   167   274   272    1
   168   274   276    1
   169   313   318    1
   170  1255  1253    1
   171  1383  1382   ar
   172   272   270    1
   173  1263  1269   ar
   174   270   271    1
   175   270   268    1
   176  1590  1589    1
   177  1358  1361   ar
   178  1358  1359   ar
   179  1274  1253    2
   180  1387  1389    1
   181  1378  1377    2
   182   317   316    1
   183  1603  1605    1
   184  1603  1604    1
   185  1241  1240    1
   186  1272  1271   ar
   187  1605  1606    1
   188  1605  1607    1
   189  1377  1379   ar
   190   276   271    1
   191   276   286    1
   192   299   306   ar
   193   299   300   ar
   194  1268  1269   ar
   195  1268  1271   ar
   196  1353  1359   ar
   197   331   330    1
   198   330   332    1
   199   268   269    1
   200  1610  1609    1
   201   316   318    1
   202  1253  1239    1
   203  1253  1275    1
   204  1389  1390    1
   205  1389  1391    1
   206   318   319    1
   207  1606  1611    1
   208  1382  1380   ar
   209  1269  1270    2
   210  1608  1607    1
   211  1608  1624    1
   212  1390  1395    1
   213  1245  1244    2
   214   301   300    2
   215  1642  1624    2
   216   306   305   ar
   217  1359  1360    2
   218  1622  1602    2
   219  1588  1587    1
   220  1588  1602    1
   221  1239  1238    1
   222  1240  1238    1
   223  1240  1242    1
   224  1585  1586    1
   225  1585  1587    1
   226  1585  1583    1
   227   300   302   ar
   228  1589  1591    1
   229  1589  1587    1
   230  1607  1609    1
   231   326   319   ar
   232   326   325   ar
   233   279   280   ar
   234   279   278   ar
   235  1379  1380   ar
   236  1604  1602    1
   237  1611  1609    1
   238  1611  1621    1
   239  1586  1591    1
   240  1591  1592    1
   241   269   267    1
   242   286   280   ar
   243   286   285   ar
   244   319   320   ar
   245  1380  1381    1
   246  1602  1623    1
   247  1624  1626    1
   248  1624  1643    1
   249  1570  1569    1
   250  1583  1584    1
   251  1238  1236    1
   252   332   333    1
   253   332   334    1
   254  1625  1626    1
   255  1625  1627    1
   256  1244  1246   ar
   257  1244  1243   ar
   258   287   267    2
   259  1594  1593    2
   260  1395  1393    1
   261  1395  1406    1
   262  1222  1221    1
   263   252   251    1
   264  1391  1392    1
   265  1391  1393    1
   266  1392  1409    1
   267   280   281   ar
   268   305   303   ar
   269   325   323   ar
   270   278   277   ar
   271  1242  1243    1
   272  1242  1237    1
   273  1394  1393    1
   274  1246  1247   ar
   275   256   255    1
   276  1427  1409    2
   277  1405  1406   ar
   278  1405  1404   ar
   279   302   303   ar
   280   370   349    2
   281   333   338    1
   282   335   334    1
   283   335   349    1
   284  1574  1573    2
   285  1428  1409    1
   286   267   250    1
   287   267   288    1
   288  1243  1250   ar
   289   285   284   ar
   290   334   336    1
   291  1627  1628    1
   292  1627  1629    1
   293   371   349    1
   294  1406  1400   ar
   295  1409  1411    1
   296  1621  1620   ar
   297  1621  1615   ar
   298  1592  1593   ar
   299  1592  1599   ar
   300  1236  1237    1
   301  1236  1234    1
   302   320   321    2
   303   320   322   ar
   304  1593  1595   ar
   305   250   249    1
   306   349   351    1
   307  1569  1571    1
   308  1569  1567    1
   309   303   304    2
   310  1628  1633    1
   311   346   345   ar
   312   346   339   ar
   313  1584  1582    1
   314   251   249    1
   315   251   253    1
   316  1221  1220   ar
   317  1221  1223   ar
   318  1620  1619   ar
   319  1404  1401   ar
   320   345   343   ar
   321  1220  1226   ar
   322   281   284   ar
   323   281   282   ar
   324  1600  1582    2
   325   277   282   ar
   326  1247  1248    1
   327  1247  1249   ar
   328  1571  1566    1
   329  1571  1572    1
   330   255   257   ar
   331   255   254   ar
   332   323   322   ar
   333   323   324    2
   334   257   258   ar
   335  1568  1582    1
   336  1568  1567    1
   337  1573  1572   ar
   338  1573  1575   ar
   339  1614  1615   ar
   340  1614  1613   ar
   341  1615  1616   ar
   342   338   336    1
   343   338   339    1
   344   249   247    1
   345  1250  1249   ar
   346  1599  1598   ar
   347  1198  1199   ar
   348  1198  1203   ar
   349  1204  1203    1
   350  1582  1601    1
   351  1630  1629    1
   352  1630  1644    1
   353  1567  1565    1
   354  1400  1401   ar
   355  1400  1399   ar
   356  1629  1631    1
   357   336   337    1
   358   339   340   ar
   359  1234  1235    1
   360  1223  1224   ar
   361   282   283    1
   362  1595  1596   ar
   363  1566  1565    1
   364   253   248    1
   365   253   264    1
   366  1565  1563    1
   367  1411  1410    1
   368  1551  1550   ar
   369  1551  1552   ar
   370  1401  1402   ar
   371  1572  1579   ar
   372  1633  1631    1
   373  1633  1634    1
   374   247   248    1
   375   247   245    1
   376  1619  1616   ar
   377  1632  1631    1
   378   254   260   ar
   379  1226  1227    2
   380  1226  1225   ar
   381  1575  1576   ar
   382   351   350    1
   383  1199  1200   ar
   384  1203  1202   ar
   385   343   344    1
   386   343   342   ar
   387  1550  1555   ar
   388   258   264   ar
   389   258   259   ar
   390  1410  1412    1
   391  1662  1644    2
   392  1399  1397   ar
   393  1616  1617   ar
   394  1641  1634   ar
   395  1641  1640   ar
   396  1663  1644    1
   397  1613  1612   ar
   398  1644  1646    1
   399  1235  1233    1
   400  1552  1553   ar
   401   264   263   ar
   402  1598  1596   ar
   403  1596  1597    1
   404  1224  1225   ar
   405  1224  1230   ar
   406  1425  1426   ar
   407  1425  1423   ar
   408  1634  1635   ar
   409   340   342   ar
   410   340   341    2
   411   350   352    1
   412  1563  1564    1
   413  1426  1419   ar
   414  1225  1228   ar
   415  1402  1403    2
   416  1402  1396   ar
   417   245   246    1
   418  1640  1638   ar
   419  1579  1578   ar
   420  1218  1217    1
   421   260   259   ar
   422   260   261    2
   423  1413  1412    1
   424  1413  1418    1
   425  1200  1201   ar
   426   259   262   ar
   427  1576  1578   ar
   428  1576  1577    2
   429  1202  1201   ar
   430  1202  1205   ar
   431  1397  1396   ar
   432  1397  1398    1
   433  1424  1423    1
   434  1555  1556    1
   435  1555  1554   ar
   436  1412  1414    1
   437  1617  1612   ar
   438  1617  1618    1
   439  1217  1219    1
   440  1217  1215    1
   441  1890  1872    2
   442  1423  1422   ar
   443  1548  1547    1
   444   367   368   ar
   445   367   364   ar
   446  1553  1554   ar
   447  1553  1559   ar
   448   368   369   ar
   449  1230  1219    1
   450  1230  1229   ar
   451   263   262   ar
   452  1912  1892    2
   453  1646  1645    1
   454  1635  1636    2
   455  1635  1637   ar
   456  1201  1207   ar
   457  1233  1251    2
   458  1233  1252    1
   459  1233  1216    1
   460  1564  1562    1
   461  1219  1214    1
   462  1419  1418    1
   463  1419  1420   ar
   464  1528  1529   ar
   465  1528  1533   ar
   466  1873  1875    1
   467  1873  1874    1
   468   353   352    1
   469   353   358    1
   470   246   244    1
   471  1645  1647    1
   472   352   354    1
   473  1547  1549    1
   474  1547  1545    1
   475  1554  1557   ar
   476  1228  1229   ar
   477  1205  1206   ar
   478   236   235    2
   479  1638  1637   ar
   480  1638  1639    2
   481  1878  1892    1
   482  1878  1877    1
   483  1529  1530   ar
   484  1418  1416    1
   485  1414  1415    1
   486  1414  1416    1
   487  1875  1877    1
   488  1875  1876    1
   489  1860  1859    1
   490  1549  1559    1
   491  1549  1544    1
   492  1216  1215    1
   493  1215  1213    1
   494  1422  1420   ar
   495  1559  1558   ar
   496  1858  1872    1
   497  1858  1857    1
   498  1490  1489    2
   499  1534  1533    1
   500   387   386    1
   501  1451  1429    2
   502  1872  1874    1
   503  1872  1891    1
   504   232   231    1
   505  1880  1879    1
   506  1420  1421    2
   507  1892  1913    1
   508  1892  1894    1
   509   369   358    1
   510   369   363   ar
   511  1446  1445    2
   512   364   365   ar
   513   364   363   ar
   514  1533  1532   ar
   515   409   408    2
   516   391   372    2
   517   366   365    2
   518  1207  1206   ar
   519  1207  1197    1
   520  1415  1429    1
   521   430   429    2
   522  1512  1511    2
   523  1877  1879    1
   524   235   237   ar
   525   235   234   ar
   526   358   356    1
   527   354   355    1
   528   354   356    1
   529   265   244    2
   530   237   238   ar
   531  1214  1213    1
   532  1416  1417    1
   533   231   233    1
   534   231   229    1
   535  1447  1448   ar
   536  1447  1444   ar
   537  1648  1647    1
   538  1648  1653    1
   539  1562  1546    1
   540  1562  1580    2
   541  1562  1581    1
   542  1546  1545    1
   543   244   230    1
   544   244   266    1
   545  1647  1649    1
   546  1876  1881    1
   547  1530  1531   ar
   548  1660  1661   ar
   549  1660  1658   ar
   550  1545  1543    1
   551  1557  1558   ar
   552  1893  1894    1
   553  1893  1895    1
   554  1661  1654   ar
   555   365   359   ar
   556  1855  1857    1
   557  1855  1853    1
   558  1855  1856    1
   559  1429  1450    1
   560  1429  1431    1
   561  1857  1859    1
   562   363   362   ar
   563  1213  1211    1
   564   388   386   ar
   565   388   389   ar
   566  1859  1861    1
   567  1879  1881    1
   568   355   372    1
   569   386   385   ar
   570  1544  1543    1
   571   428   429   ar
   572   428   426   ar
   573    55    54    1
   574  1505  1511   ar
   575  1505  1506   ar
   576  1489  1488   ar
   577  1489  1491   ar
   578  1445  1444   ar
   579  1445  1439   ar
   580   230   229    1
   581   429   431   ar
   582  1197  1192    1
   583  1197  1195    1
   584  1853  1854    1
   585  1511  1510   ar
   586   372   390    1
   587   372   374    1
   588  1448  1449   ar
   589   408   402   ar
   590   408   407   ar
   591   356   357    1
   592   233   234    1
   593   233   228    1
   594   112    92    2
   595  1532  1531   ar
   596  1532  1535   ar
   597   239   238    2
   598  1444  1443   ar
   599   234   241   ar
   600  1881  1882    1
   601   238   240   ar
   602  1543  1541    1
   603  1531  1537   ar
   604   229   227    1
   605  1192  1191    1
   606  1507  1506    1
   607  1856  1861    1
   608    70    72    1
   609    70    71    1
   610   135   114    2
   611   427   426    2
   612  1658  1659    2
   613  1658  1657   ar
   614    93    95    1
   615    93    94    1
   616    77    76    1
   617   402   403   ar
   618  1649  1650    1
   619  1649  1651    1
   620    75    92    1
   621    75    74    1
   622  1654  1653    1
   623  1654  1655   ar
   624  1488  1486   ar
   625  1686  1664    2
   626    72    74    1
   627    72    73    1
   628  1861  1862    1
   629  1895  1896    1
   630  1895  1897    1
   631    90    69    2
   632  1653  1651    1
   633  1491  1492   ar
   634   426   425   ar
   635  1506  1508   ar
   636  1431  1430    1
   637   389   382   ar
   638   359   360   ar
   639   212   213   ar
   640   212   217   ar
   641   385   383   ar
   642  1650  1664    1
   643  1211  1212    1
   644   362   360   ar
   645    53    69    1
   646    53    52    1
   647    95    96    1
   648    95    97    1
   649  1196  1195    1
   650  1439  1440   ar
   651    92    94    1
   652    92   113    1
   653  1898  1897    1
   654   407   410   ar
   655   407   406   ar
   656  1870  1852    2
   657    54    52    1
   658    54    56    1
   659   213   214   ar
   660   431   432   ar
   661  1195  1193    1
   662   410   411   ar
   663  1840  1839    1
   664   241   240   ar
   665    74    76    1
   666   374   373    1
   667    98   114    1
   668    98    97    1
   669    73    78    1
   670  1854  1852    1
   671   218   217    1
   672  1896  1901    1
   673  1535  1536   ar
   674  1664  1685    1
   675  1664  1666    1
   676  1510  1513   ar
   677  1510  1509   ar
   678  1449  1443   ar
   679  1449  1438    1
   680   228   227    1
   681   114   136    1
   682   114   116    1
   683   227   225    1
   684  1657  1655   ar
   685  1443  1442   ar
   686    50    52    1
   687    50    51    1
   688    50    48    1
   689  1651  1652    1
   690   360   361    1
   691  1655  1656    2
   692  1897  1899    1
   693  1882  1889   ar
   694  1882  1883   ar
   695    71    69    1
   696    69    91    1
   697  1864  1863    2
   698    76    78    1
   699  1537  1536   ar
   700  1537  1527    1
   701  1541  1542    1
   702  1191  1193    1
   703  1191  1189    1
   704   217   216   ar
   705    56    51    1
   706    56    66    1
   707   403   404    1
   708   403   405   ar
   709  1486  1487    2
   710  1486  1485   ar
   711  1194  1193    1
   712  1194  1210    1
   713  1430  1432    1
   714    96   101    1
   715  1889  1888   ar
   716    36    35    1
   717   425   432   ar
   718   425   424    1
   719    78    89    1
   720  1862  1863   ar
   721  1862  1869   ar
   722    97    99    1
   723   382   383   ar
   724   382   381    1
   725  1542  1540    1
   726  1212  1210    1
   727  1492  1485   ar
   728  1513  1514   ar
   729   383   384    2
   730  1508  1509   ar
   731  1852  1838    1
   732  1852  1871    1
   733  1525  1526    1
   734  1525  1527    1
   735  1525  1523    1
   736    48    49    1
   737  1838  1837    1
   738  1509  1515   ar
   739  1527  1522    1
   740  1884  1883    2
   741   214   215   ar
   742  1232  1210    2
   743  1440  1442   ar
   744  1440  1441    1
   745  1190  1189    1
   746  1190  1188    1
   747  1433  1438    1
   748  1433  1432    1
   749   100    99    1
   750  1863  1865   ar
   751   406   405   ar
   752   406   412   ar
   753   373   375    1
   754  1682  1683   ar
   755  1682  1679   ar
   756  1839  1837    1
   757  1839  1841    1
   758   411   412   ar
   759  1438  1436    1
   760  1494  1475    2
   761    32    31    1
   762  1485  1484    1
   763  1883  1885   ar
   764    59    58   ar
   765    59    60   ar
   766   414   392    2
   767  1681  1680    2
   768  1436  1437    1
   769  1436  1434    1
   770  1210  1231    1
   771  1901  1899    1
   772  1901  1911    1
   773  1900  1899    1
   774  1666  1665    1
   775   225   226    1
   776   116   115    1
   777  1869  1868   ar
   778   216   215   ar
   779   216   219   ar
   780    99   101    1
   781  1432  1434    1
   782   422   424    1
   783   422   423    1
   784   422   420    1
   785  1844  1843    2
   786   101   111    1
   787   115   117    1
   788   424   419    1
   789   376   381    1
   790   376   375    1
   791  1683  1684   ar
   792  1910  1911   ar
   793  1910  1909   ar
   794   226   224    1
   795    66    60   ar
   796    66    65   ar
   797  1208  1188    2
   798   215   221   ar
   799    35    37   ar
   800    35    34   ar
   801  1837  1835    1
   802  1888  1886   ar
   803   381   379    1
   804    58    57   ar
   805   412   401    1
   806  1514  1515   ar
   807    37    38   ar
   808   453   435    2
   809    89    88   ar
   810    89    83   ar
   811   375   377    1
   812  1841  1836    1
   813  1841  1842    1
   814    60    61   ar
   815  1434  1435    1
   816  1911  1905   ar
   817  1679  1680   ar
   818  1679  1678   ar
   819  1540  1561    2
   820  1540  1524    1
   821  1540  1560    1
   822  1515  1504    1
   823  1680  1674   ar
   824   377   379    1
   825   377   378    1
   826  1523  1524    1
   827  1523  1521    1
   828  1188  1209    1
   829  1188  1172    1
   830    49    47    1
   831  1835  1836    1
   832  1835  1833    1
   833  1522  1521    1
   834  1865  1866   ar
   835   196   195    2
   836    31    33    1
   837    31    29    1
   838  1665  1667    1
   839  1885  1886   ar
   840  1909  1906   ar
   841   219   220   ar
   842  1475  1458    1
   843  1475  1477    1
   844  1475  1493    1
   845   420   421    1
   846   420   418    1
   847   379   380    1
   848   392   378    1
   849   392   394    1
   850   392   413    1
   851  1484  1479    1
   852  1484  1482    1
   853    82    83   ar
   854    82    80   ar
   855    88    87   ar
   856  1843  1842   ar
   857  1843  1845   ar
   858   454   435    1
   859  1460  1459    1
   860   471   470    1
   861  1868  1866   ar
   862  1886  1887    1
   863    34    40   ar
   864   111   110   ar
   865   111   105   ar
   866    13    12    1
   867  1458  1457    1
   868   419   418    1
   869  1477  1476    1
   870  1684  1678   ar
   871  1684  1673    1
   872    65    64   ar
   873    67    47    2
   874    33    44    1
   875    33    28    1
   876   110   109   ar
   877   243   224    2
   878   435   421    1
   879   435   437    1
   880    83    84   ar
   881   221   220   ar
   882   221   211    1
   883   117   118    1
   884   117   119    1
   885  1842  1849   ar
   886   224   242    1
   887   224   208    1
   888   209   210    1
   889   209   211    1
   890   209   207    1
   891  1521  1519    1
   892    30    47    1
   893    30    29    1
   894  1172  1171    1
   895   394   393    1
   896  1668  1667    1
   897  1668  1673    1
   898   450   449    2
   899  1866  1867    1
   900  1678  1677   ar
   901    57    62   ar
   902   465   470   ar
   903   465   466   ar
   904  1479  1478    1
   905    38    44   ar
   906    38    39   ar
   907  1517  1495    2
   908   195   189   ar
   909   195   194   ar
   910    47    68    1
   911  1482  1480    1
   912  1482  1483    1
   913   189   190   ar
   914   401   399    1
   915   401   396    1
   916   434   415    2
   917  1674  1675   ar
   918  1833  1834    1
   919   451   449   ar
   920   451   452   ar
   921    61    64   ar
   922    61    62   ar
   923  1504  1502    1
   924  1504  1499    1
   925  1905  1906   ar
   926  1905  1904   ar
   927  1435  1452    1
   928    29    27    1
   929   118   123    1
   930  1667  1669    1
   931   470   469   ar
   932   418   416    1
   933   211   206    1
   934   155   137    2
   935  1845  1846   ar
   936    81    80    1
   937    44    43   ar
   938  1906  1907   ar
   939    28    27    1
   940   417   415    1
   941   417   416    1
   942   156   137    1
   943  1480  1478    1
   944  1480  1481    1
   945    80    79   ar
   946  1673  1671    1
   947   399   397    1
   948   399   400    1
   949  1502  1500    1
   950  1502  1503    1
   951   449   448   ar
   952   396   395    1
   953    27    25    1
   954  1464  1463    1
   955  1520  1519    1
   956  1520  1518    1
   957   207   208    1
   958   207   205    1
   959   119   120    1
   960   119   121    1
   961    87    84   ar
   962  1457  1459    1
   963  1457  1455    1
   964  1459  1461    1
   965   120   137    1
   966    62    63    1
   967   105   104   ar
   968   105   106   ar
   969  1455  1456    1
   970  1455  1453    1
   971   133   132   ar
   972   133   134   ar
   973   466   467   ar
   974   397   395    1
   975   397   398    1
   976  1669  1671    1
   977  1669  1670    1
   978    12    11   ar
   979    12    14   ar
   980   109   106   ar
   981  1476  1478    1
   982    40    39   ar
   983    40    41    2
   984  1539  1518    2
   985    84    85   ar
   986   191   190    1
   987   137   139    1
   988  1474  1452    2
   989  1904  1903   ar
   990   452   445   ar
   991    39    42   ar
   992   190   192   ar
   993   437   436    1
   994  1454  1452    1
   995  1454  1453    1
   996  1849  1848   ar
   997  1499  1498    1
   998  1677  1675   ar
   999    11    17   ar
  1000   104   103   ar
  1001  1834  1832    1
  1002  1174  1173    1
  1003  1675  1676    1
  1004  1461  1456    1
  1005  1461  1472    1
  1006   132   129   ar
  1007   393   395    1
  1008   415   398    1
  1009   415   433    1
  1010   194   197   ar
  1011   194   193   ar
  1012  1497  1495    1
  1013  1497  1496    1
  1014  1171  1169    1
  1015  1171  1173    1
  1016  1465  1463   ar
  1017  1465  1466   ar
  1018  1500  1498    1
  1019  1500  1501    1
  1020   511   510    1
  1021  1452  1473    1
  1022  1495  1481    1
  1023  1495  1516    1
  1024  1178  1177   ar
  1025  1178  1179   ar
  1026   487   488   ar
  1027   487   492   ar
  1028  1177  1176   ar
  1029  1705  1687    2
  1030  1706  1687    1
  1031  1671  1672    1
  1032   197   198   ar
  1033   106   107   ar
  1034   123   134    1
  1035   123   121    1
  1036  1463  1462   ar
  1037   469   472   ar
  1038   469   468   ar
  1039   770   769    1
  1040   134   128   ar
  1041  1518  1501    1
  1042  1518  1538    1
  1043  1670  1687    1
  1044   206   205    1
  1045  1846  1848   ar
  1046  1846  1847    2
  1047  1169  1170    1
  1048  1169  1167    1
  1049    14    15   ar
  1050   493   492    1
  1051    79    85   ar
  1052    43    42   ar
  1053  1907  1908    1
  1054  1907  1902   ar
  1055  1850  1832    2
  1056  1173  1175    1
  1057  1175  1170    1
  1058  1175  1185    1
  1059   488   489   ar
  1060   448   446   ar
  1061  1687  1689    1
  1062   467   468   ar
  1063    25    26    1
  1064  1498  1496    1
  1065   121   122    1
  1066   223   202    2
  1067   205   203    1
  1068    85    86    2
  1069   436   438    1
  1070   193   192   ar
  1071   193   199   ar
  1072   492   491   ar
  1073   204   203    1
  1074   204   202    1
  1075   472   473   ar
  1076  1903  1902   ar
  1077  1820  1819    1
  1078   468   474   ar
  1079  1466  1472   ar
  1080  1466  1467   ar
  1081  1472  1471   ar
  1082  1832  1818    1
  1083  1832  1851    1
  1084    17    18    2
  1085    17    16   ar
  1086   129   128   ar
  1087   129   130   ar
  1088   445   446   ar
  1089   445   444    1
  1090   103   102   ar
  1091  1824  1823    2
  1092   510   512   ar
  1093   510   509   ar
  1094  1179  1185   ar
  1095  1179  1180   ar
  1096  1176  1181   ar
  1097   139   138    1
  1098   128   127   ar
  1099   198   199   ar
  1100   769   768   ar
  1101   769   771   ar
  1102  1185  1184   ar
  1103  1462  1468   ar
  1104   178   157    2
  1105  1167  1168    1
  1106   512   513   ar
  1107   107   102   ar
  1108   107   108    1
  1109   446   447    2
  1110   202   222    1
  1111   202   185    1
  1112    26    24    1
  1113   489   490   ar
  1114  1819  1817    1
  1115  1819  1821    1
  1116    15    16   ar
  1117    15    21   ar
  1118   768   774   ar
  1119   439   438    1
  1120   439   444    1
  1121   199   188    1
  1122  1818  1817    1
  1123     9     8    1
  1124   509   515   ar
  1125   131   130    2
  1126   130   124   ar
  1127   138   140    1
  1128   491   490   ar
  1129   491   494   ar
  1130   438   440    1
  1131   442   444    1
  1132   442   440    1
  1133   442   443    1
  1134    16    19   ar
  1135   473   474   ar
  1136  1823  1825   ar
  1137  1823  1822   ar
  1138   474   464    1
  1139  1689  1688    1
  1140   771   772   ar
  1141  1825  1826   ar
  1142  1467  1468   ar
  1143  1467  1470   ar
  1144  1471  1470   ar
  1145  1181  1180   ar
  1146  1181  1182    1
  1147   530   529    1
  1148   490   496   ar
  1149  1180  1183   ar
  1150     8    10    1
  1151     8     6    1
  1152   507   506    1
  1153   127   125   ar
  1154  1168  1166    1
  1155   177   157    1
  1156  1817  1815    1
  1157   440   441    1
  1158   157   143    1
  1159   157   159    1
  1160   153   154   ar
  1161   153   151   ar
  1162  1468  1469    2
  1163   184   186    1
  1164   184   185    1
  1165   184   182    1
  1166   173   172    1
  1167   513   519   ar
  1168   513   514   ar
  1169  1184  1183   ar
  1170  1821  1822    1
  1171  1821  1816    1
  1172   186   188    1
  1173   186   187    1
  1174  1186  1166    2
  1175    21    10    1
  1176    21    20   ar
  1177   802   781    2
  1178   774   775    2
  1179   774   773   ar
  1180    10     5    1
  1181   494   495   ar
  1182   508   506    1
  1183   508   519    1
  1184   508   503    1
  1185   526   531    1
  1186   526   525    1
  1187  1688  1690    1
  1188  1822  1829   ar
  1189   188   183    1
  1190   459   464    1
  1191   459   458    1
  1192  1155  1154    1
  1193   124   125   ar
  1194   154   147   ar
  1195   515   514   ar
  1196   515   516    2
  1197   531   529    1
  1198   531   532    1
  1199   201   179    2
  1200    24    45    2
  1201    24     7    1
  1202    24    46    1
  1203   143   142    1
  1204   152   151    2
  1205   506   504    1
  1206   464   462    1
  1207   125   126    1
  1208   525   523    1
  1209   525   527    1
  1210  1826  1827    1
  1211  1826  1828   ar
  1212   174   171   ar
  1213   174   175   ar
  1214   534   533    2
  1215   140   142    1
  1216   140   141    1
  1217   519   518   ar
  1218   766   765    1
  1219   772   773   ar
  1220   772   778   ar
  1221    19    20   ar
  1222   142   144    1
  1223   151   150   ar
  1224   496   495   ar
  1225   496   486    1
  1226  1166  1149    1
  1227  1166  1187    1
  1228   529   527    1
  1229     7     6    1
  1230   514   517   ar
  1231   180   182    1
  1232   180   181    1
  1233     6     4    1
  1234   183   182    1
  1235  1815  1816    1
  1236  1815  1813    1
  1237   503   502    1
  1238   773   776   ar
  1239  1151  1150    1
  1240   159   158    1
  1241   172   171   ar
  1242   172   167   ar
  1243   523   524    1
  1244   441   455    1
  1245   141   146    1
  1246   764   781    1
  1247   764   763    1
  1248  1829  1828   ar
  1249   171   170   ar
  1250   175   176   ar
  1251   532   533   ar
  1252   532   539   ar
  1253   533   535   ar
  1254  1801  1800    1
  1255   527   528    1
  1256  1154  1156   ar
  1257  1154  1153   ar
  1258   486   484    1
  1259   486   481    1
  1260   528   542    1
  1261   781   783    1
  1262   781   803    1
  1263     5     4    1
  1264   458   456    1
  1265   458   460    1
  1266   147   146    1
  1267   147   148   ar
  1268  1149  1148    1
  1269   476   455    2
  1270   456   457    1
  1271  1690  1692    1
  1272  1690  1691    1
  1273   767   778    1
  1274   767   765    1
  1275   767   762    1
  1276   778   777   ar
  1277   457   455    1
  1278  1150  1148    1
  1279  1150  1152    1
  1280  1156  1157   ar
  1281   179   181    1
  1282   179   200    1
  1283   179   163    1
  1284   518   517   ar
  1285   502   504    1
  1286   502   500    1
  1287   765   763    1
  1288  1799  1800   ar
  1289  1799  1805   ar
  1290   462   463    1
  1291   462   460    1
  1292   150   148   ar
  1293     4     2    1
  1294   504   505    1
  1295   167   168   ar
  1296   144   146    1
  1297   144   145    1
  1298   783   782    1
  1299   484   485    1
  1300   484   482    1
  1301   455   475    1
  1302   782   784    1
  1303  1727  1707    2
  1304  1153  1159   ar
  1305  1800  1802   ar
  1306  1806  1805    2
  1307  1813  1814    1
  1308   543   545    1
  1309   543   544    1
  1310  1692  1694    1
  1311  1692  1693    1
  1312   776   777   ar
  1313   539   538   ar
  1314   158   160    1
  1315   546   545    1
  1316   546   551    1
  1317   535   536   ar
  1318   524   522    1
  1319  1148  1146    1
  1320  1814  1812    1
  1321   505   522    1
  1322   763   761    1
  1323   148   149    2
  1324   481   480    1
  1325   785   784    1
  1326   785   790    1
  1327  1691  1696    1
  1328   545   547    1
  1329  1805  1804   ar
  1330   170   176   ar
  1331   170   169   ar
  1332   800   799   ar
  1333   800   801   ar
  1334   176   166    1
  1335   563   542    2
  1336   460   461    1
  1337   762   761    1
  1338   162   163    1
  1339   162   160    1
  1340   162   164    1
  1341   799   796   ar
  1342  1157  1163   ar
  1343  1157  1158   ar
  1344   542   544    1
  1345   542   564    1
  1346  1152  1163    1
  1347  1152  1147    1
  1348   461   477    1
  1349  1728  1707    1
  1350   784   786    1
  1351   761   759    1
  1352  1694  1696    1
  1353  1694  1695    1
  1354   500   501    1
  1355  1707  1693    1
  1356  1707  1709    1
  1357  1802  1803   ar
  1358   168   169   ar
  1359   538   536   ar
  1360   551   549    1
  1361   551   562    1
  1362   160   161    1
  1363   522   540    2
  1364   522   541    1
  1365   536   537    2
  1366  1159  1158   ar
  1367  1159  1160    2
  1368     2     3    1
  1369   550   549    1
  1370  1163  1162   ar
  1371   801   790    1
  1372   801   795   ar
  1373   993   975    2
  1374   482   480    1
  1375   482   483    1
  1376   790   788    1
  1377   161   166    1
  1378     3     1    1
  1379   164   166    1
  1380   164   165    1
  1381  1696  1697    1
  1382  1804  1803   ar
  1383  1804  1807   ar
  1384  1831  1812    2
  1385  1812  1830    1
  1386  1812  1795    1
  1387  1158  1161   ar
  1388  1146  1147    1
  1389  1146  1144    1
  1390   480   478    1
  1391   501   499    1
  1392  1704  1697   ar
  1393  1704  1703   ar
  1394  1803  1809   ar
  1395   796   795   ar
  1396   796   797   ar
  1397   547   549    1
  1398   547   548    1
  1399   961   975    1
  1400   961   960    1
  1401   956   958    1
  1402   956   957    1
  1403   562   561   ar
  1404   562   556   ar
  1405   973   955    2
  1406   561   560   ar
  1407   963   962    1
  1408   958   960    1
  1409   958   959    1
  1410  1697  1698   ar
  1411   940   939    1
  1412   795   794   ar
  1413   798   797    2
  1414   548   565    1
  1415  1703  1701   ar
  1416   786   788    1
  1417   786   787    1
  1418   483   499    1
  1419   477   479    1
  1420   477   498    2
  1421   477   497    1
  1422   797   791   ar
  1423   479   478    1
  1424  1807  1808   ar
  1425  1162  1161   ar
  1426   759   760    1
  1427  1709  1708    1
  1428   976   977    1
  1429   976   978    1
  1430  1796  1797    1
  1431  1796  1794    1
  1432  1796  1798    1
  1433   975   977    1
  1434   975   994    1
  1435     1    23    1
  1436     1    22    1
  1437  1144  1145    1
  1438   788   789    1
  1439   960   962    1
  1440  1708  1710    1
  1441  1795  1794    1
  1442  1809  1808   ar
  1443  1809  1798    1
  1444   760   758    1
  1445   556   555   ar
  1446   556   557   ar
  1447   959   964    1
  1448   938   955    1
  1449   938   937    1
  1450   499   521    2
  1451   499   520    1
  1452   746   745    1
  1453   560   557   ar
  1454  1794  1792    1
  1455   555   553   ar
  1456   787   804    1
  1457   957   955    1
  1458   962   964    1
  1459   794   792   ar
  1460   955   974    1
  1461  1015   995    2
  1462  1698  1699    2
  1463  1698  1700   ar
  1464   978   979    1
  1465   978   980    1
  1466  1798  1793    1
  1467  1701  1700   ar
  1468  1701  1702    1
  1469  1145  1143    1
  1470   939   937    1
  1471   939   941    1
  1472   791   792   ar
  1473   557   558   ar
  1474  1784  1783    1
  1475   964   965    1
  1476   981   995    1
  1477   981   980    1
  1478   565   583    2
  1479   565   584    1
  1480   565   567    1
  1481   744   758    1
  1482   744   743    1
  1483   792   793    1
  1484   937   935    1
  1485   553   554    1
  1486   553   552   ar
  1487   758   779    2
  1488   758   780    1
  1489   935   936    1
  1490   935   933    1
  1491   944   943    1
  1492   995  1016    1
  1493   995   997    1
  1494  1710  1711    1
  1495  1710  1712    1
  1496   826   804    2
  1497   745   743    1
  1498   745   747    1
  1499   979   984    1
  1500   980   982    1
  1501  1725  1724   ar
  1502  1725  1726   ar
  1503  1748  1729    2
  1504   566   567    1
  1505   566   568    1
  1506   941   936    1
  1507   941   952    1
  1508  1724  1721   ar
  1509   804   825    1
  1510   804   806    1
  1511   558   552   ar
  1512   558   559    2
  1513  1792  1793    1
  1514  1792  1790    1
  1515  1783  1782   ar
  1516  1783  1785   ar
  1517  1135  1134    2
  1518  1711  1716    1
  1519   945   943   ar
  1520   945   946   ar
  1521   743   741    1
  1522  1791  1790    1
  1523  1791  1789    1
  1524  1143  1165    2
  1525  1143  1164    1
  1526  1143  1129    1
  1527  1131  1130    1
  1528  1811  1789    2
  1529  1782  1780   ar
  1530  1136  1134   ar
  1531  1136  1137   ar
  1532   983   982    1
  1533   933   934    1
  1534   965   972   ar
  1535   965   966   ar
  1536   741   742    1
  1537   741   739    1
  1538  1712  1713    1
  1539  1712  1714    1
  1540   943   942   ar
  1541   822   823   ar
  1542   822   819   ar
  1543   747   742    1
  1544   747   748    1
  1545   750   749    2
  1546   569   568    1
  1547   569   574    1
  1548   821   820    2
  1549  1134  1133   ar
  1550  1785  1786   ar
  1551  1747  1729    1
  1552  1713  1729    1
  1553  1764  1763    1
  1554  1729  1731    1
  1555  1130  1128    1
  1556  1130  1132    1
  1557   568   570    1
  1558   982   984    1
  1559   806   805    1
  1560   996   997    1
  1561   996   998    1
  1562  1138  1137    1
  1563   972   971   ar
  1564   984   985    1
  1565   823   824   ar
  1566   967   966    2
  1567  1726  1716    1
  1568  1726  1720   ar
  1569  1789  1810    1
  1570  1789  1775    1
  1571   724   723    1
  1572   952   946   ar
  1573   952   951   ar
  1574   946   947   ar
  1575  1137  1139   ar
  1576  1721  1722   ar
  1577  1721  1720   ar
  1578  1129  1128    1
  1579  1716  1714    1
  1580  1723  1722    1
  1581   966   968   ar
  1582   582   581   ar
  1583   582   575   ar
  1584   819   820   ar
  1585   819   818   ar
  1586  1780  1781    2
  1587  1780  1779   ar
  1588   820   814   ar
  1589   739   740    1
  1590   992   985   ar
  1591   992   991   ar
  1592   740   738    1
  1593   727   728   ar
  1594   727   726   ar
  1595   581   579   ar
  1596   881   880    1
  1597   805   807    1
  1598  1133  1132    1
  1599  1133  1140   ar
  1600   749   748   ar
  1601   749   751   ar
  1602  1765  1763   ar
  1603  1765  1766   ar
  1604  1128  1126    1
  1605   728   729   ar
  1606  1763  1762   ar
  1607   934   932    1
  1608  1786  1779   ar
  1609  1132  1127    1
  1610   748   755   ar
  1611  1714  1715    1
  1612   942   948   ar
  1613  1744  1743    2
  1614   574   575    1
  1615   574   572    1
  1616   907   906    2
  1617  1722  1717   ar
  1618  1720  1719   ar
  1619   985   986   ar
  1620   879   880   ar
  1621   879   885   ar
  1622   808   807    1
  1623   808   813    1
  1624   575   576   ar
  1625   824   818   ar
  1626   824   813    1
  1627  1779  1778    1
  1628  1035  1017    2
  1629  1745  1743   ar
  1630  1745  1746   ar
  1631  1139  1140   ar
  1632   886   885    2
  1633   971   969   ar
  1634   998   999    1
  1635   998  1000    1
  1636   723   725    1
  1637   723   721    1
  1638  1731  1730    1
  1639  1788  1769    2
  1640   570   571    1
  1641   570   572    1
  1642   951   950   ar
  1643  1768  1749    2
  1644   953   932    2
  1645   905   906   ar
  1646   905   903   ar
  1647  1036  1017    1
  1648   756   738    2
  1649  1775  1774    1
  1650   818   817   ar
  1651   947   948   ar
  1652   947   950   ar
  1653   880   882   ar
  1654   991   989   ar
  1655  1743  1742   ar
  1656   814   815   ar
  1657  1774  1776    1
  1658  1774  1772    1
  1659   726   731   ar
  1660  1111  1112   ar
  1661  1111  1116   ar
  1662   579   580    2
  1663   579   578   ar
  1664   843   842    1
  1665   968   969   ar
  1666  1776  1778    1
  1667  1776  1777    1
  1668   807   809    1
  1669   725   735    1
  1670   725   720    1
  1671  1001  1017    1
  1672  1001  1000    1
  1673  1762  1760   ar
  1674   885   884   ar
  1675  1766  1759   ar
  1676   571   585    1
  1677   906   908   ar
  1678   751   752   ar
  1679   904   903    2
  1680   738   722    1
  1681   738   757    1
  1682  1017  1019    1
  1683   948   949    2
  1684   813   811    1
  1685   932   918    1
  1686   932   954    1
  1687   572   573    1
  1688  1117  1116    1
  1689  1126  1127    1
  1690  1126  1124    1
  1691   729   735   ar
  1692   729   730   ar
  1693   755   754   ar
  1694   722   721    1
  1695   999  1004    1
  1696  1000  1002    1
  1697  1746  1739   ar
  1698  1112  1113   ar
  1699  1771  1769    1
  1700  1771  1770    1
  1701   576   578   ar
  1702   576   577    2
  1703   864   863    2
  1704   969   970    2
  1705   920   919    1
  1706  1719  1718   ar
  1707  1717  1718   ar
  1708  1778  1773    1
  1709   903   902   ar
  1710   986   987    2
  1711   986   988   ar
  1712   918   917    1
  1713   721   719    1
  1714  1116  1115   ar
  1715  1730  1732    1
  1716  1769  1787    1
  1717  1769  1755    1
  1718   607   585    2
  1719   735   734   ar
  1720   924   923    2
  1721   817   815   ar
  1722   815   816    1
  1723   720   719    1
  1724   809   811    1
  1725   809   810    1
  1726   719   717    1
  1727  1013  1012   ar
  1728  1013  1014   ar
  1729  1749  1751    1
  1730  1749  1767    1
  1731  1749  1735    1
  1732  1760  1759   ar
  1733  1760  1761    2
  1734   585   606    1
  1735   585   587    1
  1736   882   883   ar
  1737  1759  1758    1
  1738  1742  1740   ar
  1739  1772  1770    1
  1740  1772  1773    1
  1741   731   730   ar
  1742   731   732    1
  1743  1751  1750    1
  1744   989   988   ar
  1745   989   990    1
  1746   842   841   ar
  1747   842   837   ar
  1748   705   704   ar
  1749   705   706   ar
  1750   844   841   ar
  1751   844   845   ar
  1752   752   754   ar
  1753   752   753    2
  1754   730   733   ar
  1755   848   827    2
  1756   884   883   ar
  1757   884   887   ar
  1758   811   812    1
  1759   908   909   ar
  1760  1113  1114   ar
  1761  1124  1125    1
  1762  1739  1740   ar
  1763  1739  1738    1
  1764  1004  1002    1
  1765  1004  1014    1
  1766   863   862   ar
  1767   863   865   ar
  1768  1012  1009   ar
  1769  1754  1755    1
  1770  1754  1756    1
  1771  1754  1752    1
  1772  1019  1018    1
  1773  1734  1732    1
  1774  1734  1735    1
  1775  1734  1736    1
  1776  1002  1003    1
  1777   704   709   ar
  1778   919   917    1
  1779   919   921    1
  1780   841   840   ar
  1781   917   915    1
  1782  1115  1114   ar
  1783  1115  1118   ar
  1784   883   889   ar
  1785  1732  1733    1
  1786   706   707   ar
  1787   902   909   ar
  1788   902   901    1
  1789  1125  1123    1
  1790  1014  1008   ar
  1791   837   838   ar
  1792   923   925   ar
  1793   923   922   ar
  1794   810   827    1
  1795  1740  1741    2
  1796   921   922    1
  1797   921   916    1
  1798   734   733   ar
  1799  1750  1752    1
  1800   862   860   ar
  1801  1114  1120   ar
  1802  1733  1738    1
  1803  1756  1758    1
  1804  1756  1757    1
  1805   845   846   ar
  1806  1758  1753    1
  1807   717   718    1
  1808  1753  1752    1
  1809  1095  1094    1
  1810  1018  1020    1
  1811   587   586    1
  1812   887   888   ar
  1813   925   926   ar
  1814   827   829    1
  1815   827   847    1
  1816  1738  1736    1
  1817   865   866   ar
  1818  1736  1737    1
  1819   922   929   ar
  1820  1118  1119   ar
  1821   901   899    1
  1822   901   896    1
  1823   900   899    1
  1824   603   604   ar
  1825   603   600   ar
  1826   915   916    1
  1827   915   913    1
  1828   586   588    1
  1829   702   701    1
  1830  1009  1008   ar
  1831  1009  1010   ar
  1832   840   846   ar
  1833   840   839   ar
  1834  1033  1034   ar
  1835  1033  1031   ar
  1836   709   710    1
  1837   709   708   ar
  1838  1089  1094   ar
  1839  1089  1090   ar
  1840   604   605   ar
  1841   838   839   ar
  1842  1008  1007   ar
  1843   889   888   ar
  1844   889   878    1
  1845   707   708   ar
  1846   707   713   ar
  1847   683   682    1
  1848  1120  1119   ar
  1849  1120  1110    1
  1850  1094  1093   ar
  1851   846   836    1
  1852   718   716    1
  1853  1123  1142    2
  1854  1123  1141    1
  1855  1123  1107    1
  1856   829   828    1
  1857   860   861    2
  1858   860   859   ar
  1859  1108  1109    1
  1860  1108  1110    1
  1861  1108  1106    1
  1862  1034  1027   ar
  1863   899   897    1
  1864  1058  1037    2
  1865   701   703    1
  1866   701   699    1
  1867   602   601    2
  1868   926   927    1
  1869   926   928   ar
  1870  1032  1031    1
  1871   896   895    1
  1872   589   588    1
  1873   589   594    1
  1874   866   859   ar
  1875   708   711   ar
  1876  1020  1021    1
  1877  1020  1022    1
  1878   600   601   ar
  1879   600   599   ar
  1880   929   928   ar
  1881  1090  1091   ar
  1882  1110  1105    1
  1883   703   713    1
  1884   703   698    1
  1885  1031  1030   ar
  1886   878   876    1
  1887   878   873    1
  1888  1011  1010    1
  1889   681   682   ar
  1890   681   687   ar
  1891  1010  1005   ar
  1892   713   712   ar
  1893   588   590    1
  1894  1021  1026    1
  1895   913   914    1
  1896   605   594    1
  1897   605   599   ar
  1898   859   858    1
  1899  1106  1107    1
  1900  1106  1104    1
  1901  1007  1006   ar
  1902   601   595   ar
  1903   682   684   ar
  1904   831   836    1
  1905   831   830    1
  1906  1022  1023    1
  1907  1022  1024    1
  1908   876   877    1
  1909   876   874    1
  1910  1074  1073    1
  1911  1093  1096   ar
  1912  1093  1092   ar
  1913   828   830    1
  1914   898   897    1
  1915   898   912    1
  1916   836   834    1
  1917  1023  1037    1
  1918  1027  1026    1
  1919  1027  1028   ar
  1920  1037  1057    1
  1921  1037  1039    1
  1922   688   687    2
  1923   914   912    1
  1924   594   592    1
  1925   599   598   ar
  1926   897   895    1
  1927   716   700    1
  1928   716   736    2
  1929   716   737    1
  1930   700   699    1
  1931   699   697    1
  1932  1096  1097   ar
  1933   687   686   ar
  1934   895   893    1
  1935  1091  1092   ar
  1936   590   592    1
  1937   590   591    1
  1938   623   622    2
  1939   711   712   ar
  1940   830   832    1
  1941  1053  1052    1
  1942  1026  1024    1
  1943   873   872    1
  1944   698   697    1
  1945  1005  1006   ar
  1946  1030  1028   ar
  1947  1105  1104    1
  1948  1092  1098   ar
  1949   868   849    2
  1950   627   608    2
  1951   832   834    1
  1952   832   833    1
  1953   911   892    2
  1954   595   596   ar
  1955   684   685   ar
  1956   858   853    1
  1957   858   856    1
  1958   912   931    2
  1959   912   930    1
  1960  1104  1102    1
  1961   894   893    1
  1962   894   892    1
  1963   834   835    1
  1964  1024  1025    1
  1965  1028  1029    2
  1966   645   644    2
  1967  1054  1055   ar
  1968  1054  1051   ar
  1969  1073  1075   ar
  1970  1073  1072   ar
  1971   697   695    1
  1972   874   872    1
  1973   874   875    1
  1974   592   593    1
  1975   591   608    1
  1976   598   596   ar
  1977   624   622   ar
  1978   624   625   ar
  1979   622   621   ar
  1980  1039  1038    1
  1981  1075  1076   ar
  1982  1103  1102    1
  1983  1103  1101    1
  1984  1097  1098   ar
  1985   853   852    1
  1986   596   597    1
  1987  1122  1101    2
  1988   686   685   ar
  1989   686   689   ar
  1990   872   870    1
  1991  1052  1051   ar
  1992  1052  1047   ar
  1993   856   854    1
  1994   856   857    1
  1995   892   875    1
  1996   892   910    1
  1997   608   626    1
  1998   608   610    1
  1999  1098  1088    1
  2000   685   691   ar
  2001  1055  1056   ar
  2002   666   665    2
  2003  1051  1050   ar
  2004  1072  1070   ar
  2005   833   849    1
  2006   851   849    1
  2007   851   850    1
  2008   849   867    1
  2009  1078  1059    2
  2010   644   638   ar
  2011   644   643   ar
  2012   854   852    1
  2013   854   855    1
  2014   871   870    1
  2015   871   869    1
  2016   625   618   ar
  2017  1101  1121    1
  2018  1101  1085    1
  2019   621   619   ar
  2020   638   639   ar
  2021   695   696    1
  2022  1038  1040    1
  2023   891   869    2
  2024  1086  1088    1
  2025  1086  1084    1
  2026  1086  1087    1
  2027  1076  1069   ar
  2028   852   850    1
  2029  1047  1048   ar
  2030   689   690   ar
  2031  1088  1083    1
  2032  1100  1079    2
  2033   696   694    1
  2034   610   609    1
  2035   665   664   ar
  2036   665   667   ar
  2037   664   662   ar
  2038  1056  1050   ar
  2039  1056  1046    1
  2040   691   690   ar
  2041   691   680    1
  2042  1070  1069   ar
  2043  1070  1071    2
  2044  1050  1049   ar
  2045  1084  1085    1
  2046  1084  1082    1
  2047   643   646   ar
  2048   643   642   ar
  2049   646   647   ar
  2050   869   855    1
  2051   869   890    1
  2052  1059  1061    1
  2053  1059  1077    1
  2054  1059  1043    1
  2055   618   619   ar
  2056   618   617    1
  2057  1069  1068    1
  2058   678   679    1
  2059   678   680    1
  2060   678   676    1
  2061   619   620    2
  2062  1042  1040    1
  2063  1042  1043    1
  2064  1042  1044    1
  2065  1040  1041    1
  2066   639   640    1
  2067   639   641   ar
  2068  1041  1046    1
  2069   680   675    1
  2070  1081  1079    1
  2071  1081  1080    1
  2072  1061  1060    1
  2073  1048  1049   ar
  2074  1083  1082    1
  2075   663   662    2
  2076   609   611    1
  2077   662   661   ar
  2078  1079  1099    1
  2079  1079  1065    1
  2080   667   668   ar
  2081  1046  1044    1
  2082   612   617    1
  2083   612   611    1
  2084  1082  1080    1
  2085   694   715    2
  2086   694   677    1
  2087   694   714    1
  2088   642   641   ar
  2089   642   648   ar
  2090   647   648   ar
  2091  1044  1045    1
  2092   617   615    1
  2093   676   677    1
  2094   676   674    1
  2095  1064  1066    1
  2096  1064  1065    1
  2097  1064  1062    1
  2098  1068  1066    1
  2099  1068  1063    1
  2100   611   613    1
  2101  1066  1067    1
  2102   650   628    2
  2103   675   674    1
  2104   661   668   ar
  2105   661   660    1
  2106  1060  1062    1
  2107   648   637    1
  2108  1063  1062    1
  2109   613   615    1
  2110   613   614    1
  2111   615   616    1
  2112   674   672    1
  2113   614   628    1
  2114   628   630    1
  2115   628   649    1
  2116   660   658    1
  2117   660   655    1
  2118   637   632    1
  2119   637   635    1
  2120   630   629    1
  2121   672   673    1
  2122   658   659    1
  2123   658   656    1
  2124   632   631    1
  2125   655   654    1
  2126   635   633    1
  2127   635   636    1
  2128   670   651    2
  2129   633   631    1
  2130   633   634    1
  2131   673   671    1
  2132   656   654    1
  2133   656   657    1
  2134   629   631    1
  2135   693   671    2
  2136   653   651    1
  2137   653   652    1
  2138   654   652    1
  2139   651   634    1
  2140   651   669    1
  2141   671   657    1
  2142   671   692    1
