ligand
 OpenBabel11021811463D
libRbt.so/2013.1/901 2013/11/27
 27 28  0  0  0  0  0  0  0  0999 V2000
  -12.2344   37.3048   -2.0778 C   0  0  0  0  0  0  0  0  0  0  0  0
   -8.1511   41.5290   -4.6399 C   0  0  0  0  0  0  0  0  0  0  0  0
   -7.1519   41.2224   -7.4475 C   0  0  0  0  0  0  0  0  0  0  0  0
   -6.6222   42.6528   -7.3290 C   0  0  0  0  0  0  0  0  0  0  0  0
   -5.1931   42.6612   -7.2868 O   0  0  0  0  0  0  0  0  0  0  0  0
   -4.3484   42.2041   -8.5743 P   0  0  1  0  0  0  0  0  0  0  0  0
   -4.1168   44.7738   -9.7140 P   0  0  2  0  0  0  0  0  0  0  0  0
   -5.1412   38.5899   -5.5826 C   0  0  0  0  0  0  0  0  0  0  0  0
  -10.2514   38.0447   -3.3845 N   0  0  0  0  0  0  0  0  0  0  0  0
   -2.7817   42.1425   -8.2445 O   0  5  0  0  0  0  0  0  0  0  0  0
   -4.9952   45.6353   -8.8962 O   0  0  0  0  0  0  0  0  0  0  0  0
   -5.5907   38.7148   -4.2747 C   0  0  0  0  0  0  0  0  0  0  0  0
  -10.8618   37.9688   -2.1918 C   0  0  0  0  0  0  0  0  0  0  0  0
   -4.7677   40.7401   -9.1169 O   0  0  0  0  0  0  0  0  0  0  0  0
   -4.0132   45.3034  -11.2255 O   0  5  0  0  0  0  0  0  0  0  0  0
   -6.5677   39.6635   -3.9698 N   0  0  0  0  0  0  0  0  0  0  0  0
  -10.2781   38.4712   -1.0941 N   0  0  0  0  0  0  0  0  0  0  0  0
   -4.5869   43.2472   -9.7996 O   0  0  0  0  0  0  0  0  0  0  0  0
   -2.6224   44.7909   -9.1567 O   0  0  0  0  0  0  0  0  0  0  0  0
   -7.0792   40.4848   -4.9817 C   0  0  1  0  0  0  0  0  0  0  0  0
   -9.0765   39.0560   -1.1739 C   0  0  0  0  0  0  0  0  0  0  0  0
   -8.5071   39.5487   -0.0787 N   0  0  0  0  0  0  0  0  0  0  0  0
   -6.6277   40.3583   -6.2945 C   0  0  2  0  0  0  0  0  0  0  0  0
   -8.4227   39.1452   -2.3969 C   0  0  0  0  0  0  0  0  0  0  0  0
   -5.6567   39.4068   -6.5815 C   0  0  0  0  0  0  0  0  0  0  0  0
   -9.0639   38.6135   -3.5098 C   0  0  0  0  0  0  0  0  0  0  0  0
   -7.0464   39.7997   -2.5740 C   0  0  0  0  0  0  0  0  0  0  0  0
  1 13  1  0  0  0  0
  3  4  1  0  0  0  0
  4  5  1  0  0  0  0
  6  5  1  1  0  0  0
  6 10  1  0  0  0  0
  6 14  2  0  0  0  0
  6 18  1  0  0  0  0
  7 11  1  1  0  0  0
  7 15  1  0  0  0  0
  7 19  2  0  0  0  0
  7 18  1  0  0  0  0
  8 25  1  0  0  0  0
  8 12  1  0  0  0  0
  9 26  2  0  0  0  0
  9 13  1  0  0  0  0
 12 16  1  0  0  0  0
 13 17  2  0  0  0  0
 16 20  1  0  0  0  0
 16 27  1  0  0  0  0
 17 21  1  0  0  0  0
 20  2  1  6  0  0  0
 20 23  1  0  0  0  0
 21 22  1  0  0  0  0
 21 24  2  0  0  0  0
 23  3  1  1  0  0  0
 23 25  1  0  0  0  0
 24 27  1  0  0  0  0
 24 26  1  0  0  0  0
M  CHG  2  10  -1  15  -1
M  END
>  <CHROM.1>
56.42162911,66.47970899,-173.81991319,64.60520968,-77.06024026,72.41486806
176.20013935,-103.22376795,-6.42037584,41.19595144,-6.07994556,2.19811766
-0.49684942,2.53843533

>  <Name>
ligand

>  <RI>
0

>  <Rbt.Current_Directory>
/home/itssahil/PROJECTS/Mol_Feturizer/New_Systems/rnas/3D2V

>  <Rbt.Executable>
rbdock ($Id: //depot/dev/client3/rdock/2013.1/src/exe/rbdock.cxx#4 $)

>  <Rbt.Library>
libRbt.so (2013.1, Build901 2013/11/27)

>  <Rbt.Parameter_File>
/export/apps/rDock/src/rDock_2013.1_src/data/scripts/dock_solv.prm

>  <Rbt.Receptor>
prm/pocket_docking_2.prm

>  <SCORE>
-15.1378

>  <SCORE.INTER>
-14.2183

>  <SCORE.INTER.CONST>
1

>  <SCORE.INTER.POLAR>
0

>  <SCORE.INTER.ROT>
8

>  <SCORE.INTER.SOLV>
23.2822

>  <SCORE.INTER.VDW>
-26.173

>  <SCORE.INTER.norm>
-0.526604

>  <SCORE.INTRA>
-0.923348

>  <SCORE.INTRA.DIHEDRAL>
-1.84395

>  <SCORE.INTRA.DIHEDRAL.0>
7.82666

>  <SCORE.INTRA.POLAR>
0

>  <SCORE.INTRA.POLAR.0>
0

>  <SCORE.INTRA.REPUL>
0

>  <SCORE.INTRA.REPUL.0>
0

>  <SCORE.INTRA.SOLV>
0.230401

>  <SCORE.INTRA.SOLV.lig_0>
-83.2758

>  <SCORE.INTRA.VDW>
-0.116576

>  <SCORE.INTRA.VDW.0>
-3.26816

>  <SCORE.INTRA.norm>
-0.0341981

>  <SCORE.RESTR>
0.0038242

>  <SCORE.RESTR.CAVITY>
0.0038242

>  <SCORE.RESTR.norm>
0.000141637

>  <SCORE.SYSTEM>
0

>  <SCORE.SYSTEM.CONST>
0

>  <SCORE.SYSTEM.DIHEDRAL>
0

>  <SCORE.SYSTEM.SOLV>
0

>  <SCORE.SYSTEM.norm>
0

>  <SCORE.heavy>
27

>  <SCORE.norm>
-0.56066

>  <RMSD>
0.776

$$$$
ligand
 OpenBabel11021811463D
libRbt.so/2013.1/901 2013/11/27
 27 28  0  0  0  0  0  0  0  0999 V2000
  -12.8549   37.5818   -2.0077 C   0  0  0  0  0  0  0  0  0  0  0  0
   -8.2968   41.2416   -4.7171 C   0  0  0  0  0  0  0  0  0  0  0  0
   -7.5543   40.9074   -7.6002 C   0  0  0  0  0  0  0  0  0  0  0  0
   -6.8150   42.2364   -7.4331 C   0  0  0  0  0  0  0  0  0  0  0  0
   -5.3997   42.0348   -7.4591 O   0  0  0  0  0  0  0  0  0  0  0  0
   -4.6953   41.4509   -8.7793 P   0  0  1  0  0  0  0  0  0  0  0  0
   -3.4891   43.9044   -9.4735 P   0  0  2  0  0  0  0  0  0  0  0  0
   -5.9193   37.8775   -5.9886 C   0  0  0  0  0  0  0  0  0  0  0  0
  -10.8456   37.9752   -3.4202 N   0  0  0  0  0  0  0  0  0  0  0  0
   -4.2435   39.9284   -8.5670 O   0  5  0  0  0  0  0  0  0  0  0  0
   -2.3661   44.4374  -10.2718 O   0  0  0  0  0  0  0  0  0  0  0  0
   -6.2526   38.0128   -4.6474 C   0  0  0  0  0  0  0  0  0  0  0  0
  -11.4049   38.0266   -2.2014 C   0  0  0  0  0  0  0  0  0  0  0  0
   -5.6637   41.4729  -10.0736 O   0  0  0  0  0  0  0  0  0  0  0  0
   -3.6119   44.6498   -8.0575 O   0  5  0  0  0  0  0  0  0  0  0  0
   -7.0254   39.0997   -4.2360 N   0  0  0  0  0  0  0  0  0  0  0  0
  -10.7025   38.4659   -1.1470 N   0  0  0  0  0  0  0  0  0  0  0  0
   -3.3859   42.3401   -9.1550 O   0  0  0  0  0  0  0  0  0  0  0  0
   -4.8820   44.1592  -10.2075 O   0  0  0  0  0  0  0  0  0  0  0  0
   -7.4501   40.0464   -5.1759 C   0  0  1  0  0  0  0  0  0  0  0  0
   -9.4316   38.8593   -1.2968 C   0  0  0  0  0  0  0  0  0  0  0  0
   -8.7450   39.2910   -0.2440 N   0  0  0  0  0  0  0  0  0  0  0  0
   -7.1154   39.9094   -6.5221 C   0  0  1  0  0  0  0  0  0  0  0  0
   -8.8289   38.8136   -2.5480 C   0  0  0  0  0  0  0  0  0  0  0  0
   -6.3479   38.8199   -6.9155 C   0  0  0  0  0  0  0  0  0  0  0  0
   -9.5932   38.3537   -3.6142 C   0  0  0  0  0  0  0  0  0  0  0  0
   -7.3796   39.2467   -2.8046 C   0  0  0  0  0  0  0  0  0  0  0  0
  1 13  1  0  0  0  0
  3  4  1  0  0  0  0
  4  5  1  0  0  0  0
  6  5  1  1  0  0  0
  6 10  1  0  0  0  0
  6 14  2  0  0  0  0
  6 18  1  0  0  0  0
  7 11  1  6  0  0  0
  7 15  1  0  0  0  0
  7 19  2  0  0  0  0
  7 18  1  0  0  0  0
  8 25  1  0  0  0  0
  8 12  1  0  0  0  0
  9 26  2  0  0  0  0
  9 13  1  0  0  0  0
 12 16  1  0  0  0  0
 13 17  2  0  0  0  0
 16 20  1  0  0  0  0
 16 27  1  0  0  0  0
 17 21  1  0  0  0  0
 20  2  1  6  0  0  0
 20 23  1  0  0  0  0
 21 22  1  0  0  0  0
 21 24  2  0  0  0  0
 23  3  1  6  0  0  0
 23 25  1  0  0  0  0
 24 27  1  0  0  0  0
 24 26  1  0  0  0  0
M  CHG  2  10  -1  15  -1
M  END
>  <CHROM.1>
56.28338330,62.75814062,-106.57816856,-59.71064350,-157.80942138,70.16456617
-179.33486716,-102.44708505,-6.68187477,40.67815568,-6.17078934,2.94427803
-0.93799052,-2.80057686

>  <Name>
ligand

>  <RI>
0

>  <Rbt.Current_Directory>
/home/itssahil/PROJECTS/Mol_Feturizer/New_Systems/rnas/3D2V

>  <Rbt.Executable>
rbdock ($Id: //depot/dev/client3/rdock/2013.1/src/exe/rbdock.cxx#4 $)

>  <Rbt.Library>
libRbt.so (2013.1, Build901 2013/11/27)

>  <Rbt.Parameter_File>
/export/apps/rDock/src/rDock_2013.1_src/data/scripts/dock_solv.prm

>  <Rbt.Receptor>
prm/pocket_docking_2.prm

>  <SCORE>
-15.8039

>  <SCORE.INTER>
-17.2761

>  <SCORE.INTER.CONST>
1

>  <SCORE.INTER.POLAR>
0

>  <SCORE.INTER.ROT>
8

>  <SCORE.INTER.SOLV>
20.4695

>  <SCORE.INTER.VDW>
-27.2739

>  <SCORE.INTER.norm>
-0.639856

>  <SCORE.INTRA>
1.4521

>  <SCORE.INTRA.DIHEDRAL>
0.301125

>  <SCORE.INTRA.DIHEDRAL.0>
7.82666

>  <SCORE.INTRA.POLAR>
0

>  <SCORE.INTRA.POLAR.0>
0

>  <SCORE.INTRA.REPUL>
0

>  <SCORE.INTRA.REPUL.0>
0

>  <SCORE.INTRA.SOLV>
2.85514

>  <SCORE.INTRA.SOLV.lig_0>
-83.2758

>  <SCORE.INTRA.VDW>
-0.126033

>  <SCORE.INTRA.VDW.0>
-3.26816

>  <SCORE.INTRA.norm>
0.0537814

>  <SCORE.RESTR>
0.0201368

>  <SCORE.RESTR.CAVITY>
0.0201368

>  <SCORE.RESTR.norm>
0.000745807

>  <SCORE.SYSTEM>
0

>  <SCORE.SYSTEM.CONST>
0

>  <SCORE.SYSTEM.DIHEDRAL>
0

>  <SCORE.SYSTEM.SOLV>
0

>  <SCORE.SYSTEM.norm>
0

>  <SCORE.heavy>
27

>  <SCORE.norm>
-0.585329

>  <RMSD>
1.222

$$$$
ligand
 OpenBabel11021811463D
libRbt.so/2013.1/901 2013/11/27
 27 28  0  0  0  0  0  0  0  0999 V2000
  -12.2465   37.4537   -2.7969 C   0  0  0  0  0  0  0  0  0  0  0  0
   -7.5568   42.1294   -3.7817 C   0  0  0  0  0  0  0  0  0  0  0  0
   -6.4248   42.5438   -6.5244 C   0  0  0  0  0  0  0  0  0  0  0  0
   -7.0902   42.1868   -7.8549 C   0  0  0  0  0  0  0  0  0  0  0  0
   -6.1747   41.4970   -8.7095 O   0  0  0  0  0  0  0  0  0  0  0  0
   -4.9785   42.2995   -9.4202 P   0  0  1  0  0  0  0  0  0  0  0  0
   -2.9927   44.1771   -8.7221 P   0  0  2  0  0  0  0  0  0  0  0  0
   -5.0443   39.1278   -5.5884 C   0  0  0  0  0  0  0  0  0  0  0  0
  -10.0624   38.1606   -3.7545 N   0  0  0  0  0  0  0  0  0  0  0  0
   -4.0059   41.3030  -10.2128 O   0  5  0  0  0  0  0  0  0  0  0  0
   -3.5105   45.3348   -9.4799 O   0  0  0  0  0  0  0  0  0  0  0  0
   -5.5590   38.9151   -4.3164 C   0  0  0  0  0  0  0  0  0  0  0  0
  -10.8404   38.0402   -2.6677 C   0  0  0  0  0  0  0  0  0  0  0  0
   -5.5005   43.3912  -10.4922 O   0  0  0  0  0  0  0  0  0  0  0  0
   -1.8823   43.3744   -9.5579 O   0  5  0  0  0  0  0  0  0  0  0  0
   -6.3754   39.8849   -3.7327 N   0  0  0  0  0  0  0  0  0  0  0  0
  -10.3958   38.4305   -1.4643 N   0  0  0  0  0  0  0  0  0  0  0  0
   -4.1091   43.1087   -8.3085 O   0  0  0  0  0  0  0  0  0  0  0  0
   -2.2572   44.6514   -7.3887 O   0  0  0  0  0  0  0  0  0  0  0  0
   -6.6612   41.0647   -4.4301 C   0  0  1  0  0  0  0  0  0  0  0  0
   -9.1674   38.9461   -1.3313 C   0  0  0  0  0  0  0  0  0  0  0  0
   -8.7371   39.3277   -0.1331 N   0  0  0  0  0  0  0  0  0  0  0  0
   -6.1444   41.2771   -5.7072 C   0  0  1  0  0  0  0  0  0  0  0  0
   -8.3416   39.0791   -2.4408 C   0  0  0  0  0  0  0  0  0  0  0  0
   -5.3357   40.3002   -6.2750 C   0  0  0  0  0  0  0  0  0  0  0  0
   -8.8424   38.6642   -3.6695 C   0  0  0  0  0  0  0  0  0  0  0  0
   -6.9232   39.6604   -2.3742 C   0  0  0  0  0  0  0  0  0  0  0  0
  1 13  1  0  0  0  0
  3  4  1  0  0  0  0
  4  5  1  0  0  0  0
  6  5  1  1  0  0  0
  6 10  1  0  0  0  0
  6 14  2  0  0  0  0
  6 18  1  0  0  0  0
  7 11  1  6  0  0  0
  7 15  1  0  0  0  0
  7 19  2  0  0  0  0
  7 18  1  0  0  0  0
  8 25  1  0  0  0  0
  8 12  1  0  0  0  0
  9 26  2  0  0  0  0
  9 13  1  0  0  0  0
 12 16  1  0  0  0  0
 13 17  2  0  0  0  0
 16 20  1  0  0  0  0
 16 27  1  0  0  0  0
 17 21  1  0  0  0  0
 20  2  1  6  0  0  0
 20 23  1  0  0  0  0
 21 22  1  0  0  0  0
 21 24  2  0  0  0  0
 23  3  1  6  0  0  0
 23 25  1  0  0  0  0
 24 27  1  0  0  0  0
 24 26  1  0  0  0  0
M  CHG  2  10  -1  15  -1
M  END
>  <CHROM.1>
-68.49911306,-73.30155715,174.64069702,-170.41946140,61.81569176,-121.39141859
-170.56655072,-95.78376589,-6.24186136,41.23016318,-6.06252984,2.31381757
0.57599037,1.71870221

>  <Name>
ligand

>  <RI>
0

>  <Rbt.Current_Directory>
/home/itssahil/PROJECTS/Mol_Feturizer/New_Systems/rnas/3D2V

>  <Rbt.Executable>
rbdock ($Id: //depot/dev/client3/rdock/2013.1/src/exe/rbdock.cxx#4 $)

>  <Rbt.Library>
libRbt.so (2013.1, Build901 2013/11/27)

>  <Rbt.Parameter_File>
/export/apps/rDock/src/rDock_2013.1_src/data/scripts/dock_solv.prm

>  <Rbt.Receptor>
prm/pocket_docking_2.prm

>  <SCORE>
-13.8335

>  <SCORE.INTER>
-13.1271

>  <SCORE.INTER.CONST>
1

>  <SCORE.INTER.POLAR>
0

>  <SCORE.INTER.ROT>
8

>  <SCORE.INTER.SOLV>
17.2825

>  <SCORE.INTER.VDW>
-23.4456

>  <SCORE.INTER.norm>
-0.486188

>  <SCORE.INTRA>
-0.853469

>  <SCORE.INTRA.DIHEDRAL>
-1.30253

>  <SCORE.INTRA.DIHEDRAL.0>
7.82666

>  <SCORE.INTRA.POLAR>
0

>  <SCORE.INTRA.POLAR.0>
0

>  <SCORE.INTRA.REPUL>
0

>  <SCORE.INTRA.REPUL.0>
0

>  <SCORE.INTRA.SOLV>
0.0867195

>  <SCORE.INTRA.SOLV.lig_0>
-83.2758

>  <SCORE.INTRA.VDW>
-0.245563

>  <SCORE.INTRA.VDW.0>
-3.26816

>  <SCORE.INTRA.norm>
-0.0316099

>  <SCORE.RESTR>
0.147058

>  <SCORE.RESTR.CAVITY>
0.147058

>  <SCORE.RESTR.norm>
0.00544658

>  <SCORE.SYSTEM>
0

>  <SCORE.SYSTEM.CONST>
0

>  <SCORE.SYSTEM.DIHEDRAL>
0

>  <SCORE.SYSTEM.SOLV>
0

>  <SCORE.SYSTEM.norm>
0

>  <SCORE.heavy>
27

>  <SCORE.norm>
-0.512351

>  <RMSD>
1.431

$$$$
ligand
 OpenBabel11021811463D
libRbt.so/2013.1/901 2013/11/27
 27 28  0  0  0  0  0  0  0  0999 V2000
  -12.5155   37.3727   -2.0902 C   0  0  0  0  0  0  0  0  0  0  0  0
   -7.1592   41.5137   -4.5354 C   0  0  0  0  0  0  0  0  0  0  0  0
   -5.8909   40.7318   -7.1345 C   0  0  0  0  0  0  0  0  0  0  0  0
   -4.5676   40.5691   -7.8848 C   0  0  0  0  0  0  0  0  0  0  0  0
   -4.2346   41.7680   -8.5891 O   0  0  0  0  0  0  0  0  0  0  0  0
   -3.6085   43.0175   -7.7975 P   0  0  1  0  0  0  0  0  0  0  0  0
   -3.8663   44.9118   -9.8715 P   0  0  2  0  0  0  0  0  0  0  0  0
   -5.4073   37.6053   -5.0269 C   0  0  0  0  0  0  0  0  0  0  0  0
  -10.4829   38.1010   -3.3252 N   0  0  0  0  0  0  0  0  0  0  0  0
   -3.9433   42.9358   -6.2327 O   0  5  0  0  0  0  0  0  0  0  0  0
   -4.1980   46.3291  -10.1238 O   0  0  0  0  0  0  0  0  0  0  0  0
   -5.9906   37.9469   -3.8139 C   0  0  0  0  0  0  0  0  0  0  0  0
  -11.1042   37.9584   -2.1442 C   0  0  0  0  0  0  0  0  0  0  0  0
   -1.9992   43.1034   -7.9253 O   0  0  0  0  0  0  0  0  0  0  0  0
   -4.6535   43.9349  -10.8723 O   0  5  0  0  0  0  0  0  0  0  0  0
   -6.5611   39.2106   -3.6556 N   0  0  0  0  0  0  0  0  0  0  0  0
  -10.4977   38.3256   -1.0061 N   0  0  0  0  0  0  0  0  0  0  0  0
   -4.2035   44.4108   -8.3901 O   0  0  0  0  0  0  0  0  0  0  0  0
   -2.3188   44.6322  -10.1379 O   0  0  0  0  0  0  0  0  0  0  0  0
   -6.5333   40.1239   -4.7164 C   0  0  1  0  0  0  0  0  0  0  0  0
   -9.2620   38.8400   -1.0332 C   0  0  0  0  0  0  0  0  0  0  0  0
   -8.6703   39.1987    0.1016 N   0  0  0  0  0  0  0  0  0  0  0  0
   -5.9480   39.7799   -5.9338 C   0  0  1  0  0  0  0  0  0  0  0  0
   -8.5964   38.9958   -2.2430 C   0  0  0  0  0  0  0  0  0  0  0  0
   -5.3871   38.5166   -6.0757 C   0  0  0  0  0  0  0  0  0  0  0  0
   -9.2621   38.6044   -3.3989 C   0  0  0  0  0  0  0  0  0  0  0  0
   -7.1816   39.5774   -2.3608 C   0  0  0  0  0  0  0  0  0  0  0  0
  1 13  1  0  0  0  0
  3  4  1  0  0  0  0
  4  5  1  0  0  0  0
  6  5  1  6  0  0  0
  6 10  1  0  0  0  0
  6 14  2  0  0  0  0
  6 18  1  0  0  0  0
  7 11  1  6  0  0  0
  7 15  1  0  0  0  0
  7 19  2  0  0  0  0
  7 18  1  0  0  0  0
  8 25  1  0  0  0  0
  8 12  1  0  0  0  0
  9 26  2  0  0  0  0
  9 13  1  0  0  0  0
 12 16  1  0  0  0  0
 13 17  2  0  0  0  0
 16 20  1  0  0  0  0
 16 27  1  0  0  0  0
 17 21  1  0  0  0  0
 20  2  1  6  0  0  0
 20 23  1  0  0  0  0
 21 22  1  0  0  0  0
 21 24  2  0  0  0  0
 23  3  1  6  0  0  0
 23 25  1  0  0  0  0
 24 27  1  0  0  0  0
 24 26  1  0  0  0  0
M  CHG  2  10  -1  15  -1
M  END
>  <CHROM.1>
-154.54813005,78.29184375,-21.27359517,-66.92121968,-165.34582806,142.98505788
160.81602264,-80.40317057,-6.09770977,41.12864850,-5.87598595,2.18051439
-0.33288650,2.47287131

>  <Name>
ligand

>  <RI>
0

>  <Rbt.Current_Directory>
/home/itssahil/PROJECTS/Mol_Feturizer/New_Systems/rnas/3D2V

>  <Rbt.Executable>
rbdock ($Id: //depot/dev/client3/rdock/2013.1/src/exe/rbdock.cxx#4 $)

>  <Rbt.Library>
libRbt.so (2013.1, Build901 2013/11/27)

>  <Rbt.Parameter_File>
/export/apps/rDock/src/rDock_2013.1_src/data/scripts/dock_solv.prm

>  <Rbt.Receptor>
prm/pocket_docking_2.prm

>  <SCORE>
-14.9927

>  <SCORE.INTER>
-18.0749

>  <SCORE.INTER.CONST>
1

>  <SCORE.INTER.POLAR>
0

>  <SCORE.INTER.ROT>
8

>  <SCORE.INTER.SOLV>
20.2665

>  <SCORE.INTER.VDW>
-27.7388

>  <SCORE.INTER.norm>
-0.669442

>  <SCORE.INTRA>
3.0228

>  <SCORE.INTRA.DIHEDRAL>
3.11718

>  <SCORE.INTRA.DIHEDRAL.0>
7.82666

>  <SCORE.INTRA.POLAR>
0

>  <SCORE.INTRA.POLAR.0>
0

>  <SCORE.INTRA.REPUL>
0

>  <SCORE.INTRA.REPUL.0>
0

>  <SCORE.INTRA.SOLV>
1.40791

>  <SCORE.INTRA.SOLV.lig_0>
-83.2758

>  <SCORE.INTRA.VDW>
0.760258

>  <SCORE.INTRA.VDW.0>
-3.26816

>  <SCORE.INTRA.norm>
0.111956

>  <SCORE.RESTR>
0.0594541

>  <SCORE.RESTR.CAVITY>
0.0594541

>  <SCORE.RESTR.norm>
0.002202

>  <SCORE.SYSTEM>
0

>  <SCORE.SYSTEM.CONST>
0

>  <SCORE.SYSTEM.DIHEDRAL>
0

>  <SCORE.SYSTEM.SOLV>
0

>  <SCORE.SYSTEM.norm>
0

>  <SCORE.heavy>
27

>  <SCORE.norm>
-0.555284

>  <RMSD>
1.444

$$$$
ligand
 OpenBabel11021811463D
libRbt.so/2013.1/901 2013/11/27
 27 28  0  0  0  0  0  0  0  0999 V2000
  -12.6328   37.1812   -2.3271 C   0  0  0  0  0  0  0  0  0  0  0  0
   -6.8913   41.5292   -4.7292 C   0  0  0  0  0  0  0  0  0  0  0  0
   -5.2445   40.4080   -6.9666 C   0  0  0  0  0  0  0  0  0  0  0  0
   -4.1779   41.4492   -6.6220 C   0  0  0  0  0  0  0  0  0  0  0  0
   -4.5737   42.7472   -7.0723 O   0  0  0  0  0  0  0  0  0  0  0  0
   -4.5202   43.1058   -8.6371 P   0  0  1  0  0  0  0  0  0  0  0  0
   -2.5232   44.2515  -10.2667 P   0  0  2  0  0  0  0  0  0  0  0  0
   -5.4487   37.4699   -4.5630 C   0  0  0  0  0  0  0  0  0  0  0  0
  -10.7190   38.2423   -3.5097 N   0  0  0  0  0  0  0  0  0  0  0  0
   -5.2656   41.9887   -9.5110 O   0  5  0  0  0  0  0  0  0  0  0  0
   -2.7625   45.6689   -9.9256 O   0  0  0  0  0  0  0  0  0  0  0  0
   -6.2110   37.9694   -3.5153 C   0  0  0  0  0  0  0  0  0  0  0  0
  -11.2721   37.8784   -2.3424 C   0  0  0  0  0  0  0  0  0  0  0  0
   -5.2267   44.5175   -8.9856 O   0  0  0  0  0  0  0  0  0  0  0  0
   -3.3004   43.8280  -11.6055 O   0  5  0  0  0  0  0  0  0  0  0  0
   -6.6813   39.2822   -3.5704 N   0  0  0  0  0  0  0  0  0  0  0  0
  -10.6413   38.1208   -1.1842 N   0  0  0  0  0  0  0  0  0  0  0  0
   -2.9750   43.2167   -9.1335 O   0  0  0  0  0  0  0  0  0  0  0  0
   -0.9798   43.9917  -10.5737 O   0  0  0  0  0  0  0  0  0  0  0  0
   -6.3743   40.0849   -4.6756 C   0  0  1  0  0  0  0  0  0  0  0  0
   -9.4491   38.7298   -1.1774 C   0  0  0  0  0  0  0  0  0  0  0  0
   -8.8327   38.9630   -0.0233 N   0  0  0  0  0  0  0  0  0  0  0  0
   -5.6095   39.5825   -5.7271 C   0  0  2  0  0  0  0  0  0  0  0  0
   -8.8542   39.1144   -2.3728 C   0  0  0  0  0  0  0  0  0  0  0  0
   -5.1515   38.2724   -5.6578 C   0  0  0  0  0  0  0  0  0  0  0  0
   -9.5430   38.8461   -3.5501 C   0  0  0  0  0  0  0  0  0  0  0  0
   -7.4927   39.8173   -2.4519 C   0  0  0  0  0  0  0  0  0  0  0  0
  1 13  1  0  0  0  0
  3  4  1  0  0  0  0
  4  5  1  0  0  0  0
  6  5  1  1  0  0  0
  6 10  1  0  0  0  0
  6 14  2  0  0  0  0
  6 18  1  0  0  0  0
  7 11  1  1  0  0  0
  7 15  1  0  0  0  0
  7 19  2  0  0  0  0
  7 18  1  0  0  0  0
  8 25  1  0  0  0  0
  8 12  1  0  0  0  0
  9 26  2  0  0  0  0
  9 13  1  0  0  0  0
 12 16  1  0  0  0  0
 13 17  2  0  0  0  0
 16 20  1  0  0  0  0
 16 27  1  0  0  0  0
 17 21  1  0  0  0  0
 20  2  1  6  0  0  0
 20 23  1  0  0  0  0
 21 22  1  0  0  0  0
 21 24  2  0  0  0  0
 23  3  1  1  0  0  0
 23 25  1  0  0  0  0
 24 27  1  0  0  0  0
 24 26  1  0  0  0  0
M  CHG  2  10  -1  15  -1
M  END
>  <CHROM.1>
-129.18587022,-74.13763670,50.61372824,-146.15918410,60.90369218,73.40452129
138.78878157,-67.41466776,-6.05158843,41.04098566,-6.10630085,2.18720873
-0.19301856,2.33652896

>  <Name>
ligand

>  <RI>
0

>  <Rbt.Current_Directory>
/home/itssahil/PROJECTS/Mol_Feturizer/New_Systems/rnas/3D2V

>  <Rbt.Executable>
rbdock ($Id: //depot/dev/client3/rdock/2013.1/src/exe/rbdock.cxx#4 $)

>  <Rbt.Library>
libRbt.so (2013.1, Build901 2013/11/27)

>  <Rbt.Parameter_File>
/export/apps/rDock/src/rDock_2013.1_src/data/scripts/dock_solv.prm

>  <Rbt.Receptor>
prm/pocket_docking_2.prm

>  <SCORE>
-13.6607

>  <SCORE.INTER>
-16.5908

>  <SCORE.INTER.CONST>
1

>  <SCORE.INTER.POLAR>
0

>  <SCORE.INTER.ROT>
8

>  <SCORE.INTER.SOLV>
23.585

>  <SCORE.INTER.VDW>
-27.8555

>  <SCORE.INTER.norm>
-0.614473

>  <SCORE.INTRA>
2.91606

>  <SCORE.INTRA.DIHEDRAL>
5.1039

>  <SCORE.INTRA.DIHEDRAL.0>
7.82666

>  <SCORE.INTRA.POLAR>
0

>  <SCORE.INTRA.POLAR.0>
0

>  <SCORE.INTRA.REPUL>
0

>  <SCORE.INTRA.REPUL.0>
0

>  <SCORE.INTRA.SOLV>
0.0881428

>  <SCORE.INTRA.SOLV.lig_0>
-83.2758

>  <SCORE.INTRA.VDW>
0.320035

>  <SCORE.INTRA.VDW.0>
-3.26816

>  <SCORE.INTRA.norm>
0.108002

>  <SCORE.RESTR>
0.0140453

>  <SCORE.RESTR.CAVITY>
0.0140453

>  <SCORE.RESTR.norm>
0.000520198

>  <SCORE.SYSTEM>
0

>  <SCORE.SYSTEM.CONST>
0

>  <SCORE.SYSTEM.DIHEDRAL>
0

>  <SCORE.SYSTEM.SOLV>
0

>  <SCORE.SYSTEM.norm>
0

>  <SCORE.heavy>
27

>  <SCORE.norm>
-0.505951

>  <RMSD>
1.497

$$$$
ligand
 OpenBabel11021811463D
libRbt.so/2013.1/901 2013/11/27
 27 28  0  0  0  0  0  0  0  0999 V2000
  -12.8645   37.3201   -2.6856 C   0  0  0  0  0  0  0  0  0  0  0  0
   -7.3826   41.9369   -3.8725 C   0  0  0  0  0  0  0  0  0  0  0  0
   -5.8454   41.6072   -6.4227 C   0  0  0  0  0  0  0  0  0  0  0  0
   -6.9353   41.5487   -7.4948 C   0  0  0  0  0  0  0  0  0  0  0  0
   -6.7365   42.5707   -8.4746 O   0  0  0  0  0  0  0  0  0  0  0  0
   -5.4199   42.5569   -9.3946 P   0  0  1  0  0  0  0  0  0  0  0  0
   -3.2920   44.2655   -8.6810 P   0  0  2  0  0  0  0  0  0  0  0  0
   -5.5547   38.1574   -4.8525 C   0  0  0  0  0  0  0  0  0  0  0  0
  -10.8200   38.4259   -3.5712 N   0  0  0  0  0  0  0  0  0  0  0  0
   -5.2140   41.1263  -10.0860 O   0  5  0  0  0  0  0  0  0  0  0  0
   -4.1394   45.4726   -8.7662 O   0  0  0  0  0  0  0  0  0  0  0  0
   -6.2633   38.2882   -3.6655 C   0  0  0  0  0  0  0  0  0  0  0  0
  -11.4756   37.9344   -2.5084 C   0  0  0  0  0  0  0  0  0  0  0  0
   -5.4717   43.6472  -10.5871 O   0  0  0  0  0  0  0  0  0  0  0  0
   -2.3905   44.0840   -9.9963 O   0  5  0  0  0  0  0  0  0  0  0  0
   -6.8584   39.5105   -3.3497 N   0  0  0  0  0  0  0  0  0  0  0  0
  -10.9231   37.9764   -1.2873 N   0  0  0  0  0  0  0  0  0  0  0  0
   -4.1069   42.9011   -8.4979 O   0  0  0  0  0  0  0  0  0  0  0  0
   -2.2579   44.3791   -7.4720 O   0  0  0  0  0  0  0  0  0  0  0  0
   -6.7291   40.5940   -4.2268 C   0  0  1  0  0  0  0  0  0  0  0  0
   -9.7077   38.5100   -1.1124 C   0  0  0  0  0  0  0  0  0  0  0  0
   -9.1696   38.5443    0.1023 N   0  0  0  0  0  0  0  0  0  0  0  0
   -6.0179   40.4616   -5.4183 C   0  0  1  0  0  0  0  0  0  0  0  0
   -9.0074   39.0235   -2.1972 C   0  0  0  0  0  0  0  0  0  0  0  0
   -5.4341   39.2370   -5.7190 C   0  0  0  0  0  0  0  0  0  0  0  0
   -9.6175   38.9619   -3.4448 C   0  0  0  0  0  0  0  0  0  0  0  0
   -7.6126   39.6522   -2.0821 C   0  0  0  0  0  0  0  0  0  0  0  0
  1 13  1  0  0  0  0
  3  4  1  0  0  0  0
  4  5  1  0  0  0  0
  6  5  1  1  0  0  0
  6 10  1  0  0  0  0
  6 14  2  0  0  0  0
  6 18  1  0  0  0  0
  7 11  1  6  0  0  0
  7 15  1  0  0  0  0
  7 19  2  0  0  0  0
  7 18  1  0  0  0  0
  8 25  1  0  0  0  0
  8 12  1  0  0  0  0
  9 26  2  0  0  0  0
  9 13  1  0  0  0  0
 12 16  1  0  0  0  0
 13 17  2  0  0  0  0
 16 20  1  0  0  0  0
 16 27  1  0  0  0  0
 17 21  1  0  0  0  0
 20  2  1  6  0  0  0
 20 23  1  0  0  0  0
 21 22  1  0  0  0  0
 21 24  2  0  0  0  0
 23  3  1  6  0  0  0
 23 25  1  0  0  0  0
 24 27  1  0  0  0  0
 24 26  1  0  0  0  0
M  CHG  2  10  -1  15  -1
M  END
>  <CHROM.1>
-176.84910522,63.65843961,51.31517725,-111.63357566,45.81576606,-93.49500854
152.52971210,-78.19927580,-6.61318074,41.07918638,-5.89095958,2.23308686
0.43838243,1.89471676

>  <Name>
ligand

>  <RI>
0

>  <Rbt.Current_Directory>
/home/itssahil/PROJECTS/Mol_Feturizer/New_Systems/rnas/3D2V

>  <Rbt.Executable>
rbdock ($Id: //depot/dev/client3/rdock/2013.1/src/exe/rbdock.cxx#4 $)

>  <Rbt.Library>
libRbt.so (2013.1, Build901 2013/11/27)

>  <Rbt.Parameter_File>
/export/apps/rDock/src/rDock_2013.1_src/data/scripts/dock_solv.prm

>  <Rbt.Receptor>
prm/pocket_docking_2.prm

>  <SCORE>
-14.8401

>  <SCORE.INTER>
-14.9255

>  <SCORE.INTER.CONST>
1

>  <SCORE.INTER.POLAR>
0

>  <SCORE.INTER.ROT>
8

>  <SCORE.INTER.SOLV>
18.9877

>  <SCORE.INTER.VDW>
-25.2129

>  <SCORE.INTER.norm>
-0.552797

>  <SCORE.INTRA>
0.0680353

>  <SCORE.INTRA.DIHEDRAL>
0.163482

>  <SCORE.INTRA.DIHEDRAL.0>
7.82666

>  <SCORE.INTRA.POLAR>
0

>  <SCORE.INTRA.POLAR.0>
0

>  <SCORE.INTRA.REPUL>
0

>  <SCORE.INTRA.REPUL.0>
0

>  <SCORE.INTRA.SOLV>
-0.485255

>  <SCORE.INTRA.SOLV.lig_0>
-83.2758

>  <SCORE.INTRA.VDW>
0.228922

>  <SCORE.INTRA.VDW.0>
-3.26816

>  <SCORE.INTRA.norm>
0.00251983

>  <SCORE.RESTR>
0.0173532

>  <SCORE.RESTR.CAVITY>
0.0173532

>  <SCORE.RESTR.norm>
0.000642713

>  <SCORE.SYSTEM>
0

>  <SCORE.SYSTEM.CONST>
0

>  <SCORE.SYSTEM.DIHEDRAL>
0

>  <SCORE.SYSTEM.SOLV>
0

>  <SCORE.SYSTEM.norm>
0

>  <SCORE.heavy>
27

>  <SCORE.norm>
-0.549634

>  <RMSD>
1.538

$$$$
ligand
 OpenBabel11021811463D
libRbt.so/2013.1/901 2013/11/27
 27 28  0  0  0  0  0  0  0  0999 V2000
  -12.6999   37.0964   -2.1917 C   0  0  0  0  0  0  0  0  0  0  0  0
   -7.9057   40.6881   -6.4126 C   0  0  0  0  0  0  0  0  0  0  0  0
   -5.9894   39.0551   -8.0362 C   0  0  0  0  0  0  0  0  0  0  0  0
   -4.8770   40.0524   -8.3659 C   0  0  0  0  0  0  0  0  0  0  0  0
   -5.0476   41.2636   -7.6255 O   0  0  0  0  0  0  0  0  0  0  0  0
   -3.9738   42.4498   -7.7667 P   0  0  1  0  0  0  0  0  0  0  0  0
   -2.8271   43.9654   -9.8510 P   0  0  2  0  0  0  0  0  0  0  0  0
   -5.4015   37.7320   -4.5213 C   0  0  0  0  0  0  0  0  0  0  0  0
  -11.2230   38.2845   -3.8025 N   0  0  0  0  0  0  0  0  0  0  0  0
   -4.2681   43.6228   -6.7157 O   0  5  0  0  0  0  0  0  0  0  0  0
   -2.4222   45.0810   -8.9713 O   0  0  0  0  0  0  0  0  0  0  0  0
   -6.2833   38.4775   -3.7499 C   0  0  0  0  0  0  0  0  0  0  0  0
  -11.4613   37.9262   -2.5313 C   0  0  0  0  0  0  0  0  0  0  0  0
   -2.4552   41.9609   -7.5056 O   0  0  0  0  0  0  0  0  0  0  0  0
   -3.3132   44.4932  -11.2866 O   0  5  0  0  0  0  0  0  0  0  0  0
   -7.0968   39.4319   -4.3623 N   0  0  0  0  0  0  0  0  0  0  0  0
  -10.6211   38.2898   -1.5516 N   0  0  0  0  0  0  0  0  0  0  0  0
   -4.0178   43.0686   -9.2706 O   0  0  0  0  0  0  0  0  0  0  0  0
   -1.5939   42.9995  -10.1512 O   0  0  0  0  0  0  0  0  0  0  0  0
   -7.0111   39.6345   -5.7450 C   0  0  1  0  0  0  0  0  0  0  0  0
   -9.5313   39.0161   -1.8295 C   0  0  0  0  0  0  0  0  0  0  0  0
   -8.7049   39.3689   -0.8503 N   0  0  0  0  0  0  0  0  0  0  0  0
   -6.1260   38.8853   -6.5185 C   0  0  1  0  0  0  0  0  0  0  0  0
   -9.2610   39.3977   -3.1380 C   0  0  0  0  0  0  0  0  0  0  0  0
   -5.3253   37.9371   -5.8935 C   0  0  0  0  0  0  0  0  0  0  0  0
  -10.1588   39.0015   -4.1226 C   0  0  0  0  0  0  0  0  0  0  0  0
   -8.0364   40.2299   -3.5400 C   0  0  0  0  0  0  0  0  0  0  0  0
  1 13  1  0  0  0  0
  3  4  1  0  0  0  0
  4  5  1  0  0  0  0
  6  5  1  1  0  0  0
  6 10  1  0  0  0  0
  6 14  2  0  0  0  0
  6 18  1  0  0  0  0
  7 11  1  1  0  0  0
  7 15  1  0  0  0  0
  7 19  2  0  0  0  0
  7 18  1  0  0  0  0
  8 25  1  0  0  0  0
  8 12  1  0  0  0  0
  9 26  2  0  0  0  0
  9 13  1  0  0  0  0
 12 16  1  0  0  0  0
 13 17  2  0  0  0  0
 16 20  1  0  0  0  0
 16 27  1  0  0  0  0
 17 21  1  0  0  0  0
 20  2  1  6  0  0  0
 20 23  1  0  0  0  0
 21 22  1  0  0  0  0
 21 24  2  0  0  0  0
 23  3  1  6  0  0  0
 23 25  1  0  0  0  0
 24 27  1  0  0  0  0
 24 26  1  0  0  0  0
M  CHG  2  10  -1  15  -1
M  END
>  <CHROM.1>
-50.82514515,178.04590368,-172.91696427,-162.85473982,-50.89263950,92.88652688
112.65554760,-75.84587259,-6.16804607,40.74864921,-6.20202262,2.50969994
-0.64171720,2.90671293

>  <Name>
ligand

>  <RI>
0

>  <Rbt.Current_Directory>
/home/itssahil/PROJECTS/Mol_Feturizer/New_Systems/rnas/3D2V

>  <Rbt.Executable>
rbdock ($Id: //depot/dev/client3/rdock/2013.1/src/exe/rbdock.cxx#4 $)

>  <Rbt.Library>
libRbt.so (2013.1, Build901 2013/11/27)

>  <Rbt.Parameter_File>
/export/apps/rDock/src/rDock_2013.1_src/data/scripts/dock_solv.prm

>  <Rbt.Receptor>
prm/pocket_docking_2.prm

>  <SCORE>
-18.6009

>  <SCORE.INTER>
-16.7184

>  <SCORE.INTER.CONST>
1

>  <SCORE.INTER.POLAR>
0

>  <SCORE.INTER.ROT>
8

>  <SCORE.INTER.SOLV>
22.7614

>  <SCORE.INTER.VDW>
-27.666

>  <SCORE.INTER.norm>
-0.619198

>  <SCORE.INTRA>
-1.90535

>  <SCORE.INTRA.DIHEDRAL>
-1.6219

>  <SCORE.INTRA.DIHEDRAL.0>
7.82666

>  <SCORE.INTRA.POLAR>
0

>  <SCORE.INTRA.POLAR.0>
0

>  <SCORE.INTRA.REPUL>
0

>  <SCORE.INTRA.REPUL.0>
0

>  <SCORE.INTRA.SOLV>
-0.891306

>  <SCORE.INTRA.SOLV.lig_0>
-83.2758

>  <SCORE.INTRA.VDW>
-0.648746

>  <SCORE.INTRA.VDW.0>
-3.26816

>  <SCORE.INTRA.norm>
-0.0705686

>  <SCORE.RESTR>
0.0227767

>  <SCORE.RESTR.CAVITY>
0.0227767

>  <SCORE.RESTR.norm>
0.000843581

>  <SCORE.SYSTEM>
0

>  <SCORE.SYSTEM.CONST>
0

>  <SCORE.SYSTEM.DIHEDRAL>
0

>  <SCORE.SYSTEM.SOLV>
0

>  <SCORE.SYSTEM.norm>
0

>  <SCORE.heavy>
27

>  <SCORE.norm>
-0.688923

>  <RMSD>
1.589

$$$$
ligand
 OpenBabel11021811473D
libRbt.so/2013.1/901 2013/11/27
 27 28  0  0  0  0  0  0  0  0999 V2000
  -12.3058   37.6450   -1.7747 C   0  0  0  0  0  0  0  0  0  0  0  0
   -8.0612   41.5412   -4.4093 C   0  0  0  0  0  0  0  0  0  0  0  0
   -7.4467   41.4527   -7.3402 C   0  0  0  0  0  0  0  0  0  0  0  0
   -6.5387   41.5750   -8.5654 C   0  0  0  0  0  0  0  0  0  0  0  0
   -5.2281   41.9999   -8.1835 O   0  0  0  0  0  0  0  0  0  0  0  0
   -4.0893   42.1944   -9.2994 P   0  0  1  0  0  0  0  0  0  0  0  0
   -2.5315   43.8061   -7.5871 P   0  0  2  0  0  0  0  0  0  0  0  0
   -5.5223   38.4517   -6.0203 C   0  0  0  0  0  0  0  0  0  0  0  0
  -10.3523   38.1373   -3.2337 N   0  0  0  0  0  0  0  0  0  0  0  0
   -3.8973   40.8609  -10.1666 O   0  5  0  0  0  0  0  0  0  0  0  0
   -3.5227   44.8805   -7.8006 O   0  0  0  0  0  0  0  0  0  0  0  0
   -5.7947   38.4738   -4.6589 C   0  0  0  0  0  0  0  0  0  0  0  0
  -10.8762   38.1391   -1.9982 C   0  0  0  0  0  0  0  0  0  0  0  0
   -4.4241   43.3836  -10.3422 O   0  0  0  0  0  0  0  0  0  0  0  0
   -1.0296   44.3501   -7.7422 O   0  5  0  0  0  0  0  0  0  0  0  0
   -6.6196   39.4715   -4.1375 N   0  0  0  0  0  0  0  0  0  0  0  0
  -10.1561   38.5716   -0.9530 N   0  0  0  0  0  0  0  0  0  0  0  0
   -2.6726   42.5710   -8.5939 O   0  0  0  0  0  0  0  0  0  0  0  0
   -2.6223   43.2337   -6.1011 O   0  0  0  0  0  0  0  0  0  0  0  0
   -7.1575   40.4441   -4.9888 C   0  0  1  0  0  0  0  0  0  0  0  0
   -8.9026   39.0076   -1.1288 C   0  0  0  0  0  0  0  0  0  0  0  0
   -8.1979   39.4321   -0.0849 N   0  0  0  0  0  0  0  0  0  0  0  0
   -6.8839   40.4209   -6.3554 C   0  0  2  0  0  0  0  0  0  0  0  0
   -8.3364   39.0136   -2.3978 C   0  0  0  0  0  0  0  0  0  0  0  0
   -6.0631   39.4190   -6.8587 C   0  0  0  0  0  0  0  0  0  0  0  0
   -9.1182   38.5590   -3.4536 C   0  0  0  0  0  0  0  0  0  0  0  0
   -6.9090   39.4977   -2.6845 C   0  0  0  0  0  0  0  0  0  0  0  0
  1 13  1  0  0  0  0
  3  4  1  0  0  0  0
  4  5  1  0  0  0  0
  6  5  1  1  0  0  0
  6 10  1  0  0  0  0
  6 14  2  0  0  0  0
  6 18  1  0  0  0  0
  7 11  1  6  0  0  0
  7 15  1  0  0  0  0
  7 19  2  0  0  0  0
  7 18  1  0  0  0  0
  8 25  1  0  0  0  0
  8 12  1  0  0  0  0
  9 26  2  0  0  0  0
  9 13  1  0  0  0  0
 12 16  1  0  0  0  0
 13 17  2  0  0  0  0
 16 20  1  0  0  0  0
 16 27  1  0  0  0  0
 17 21  1  0  0  0  0
 20  2  1  6  0  0  0
 20 23  1  0  0  0  0
 21 22  1  0  0  0  0
 21 24  2  0  0  0  0
 23  3  1  1  0  0  0
 23 25  1  0  0  0  0
 24 27  1  0  0  0  0
 24 26  1  0  0  0  0
M  CHG  2  10  -1  15  -1
M  END
>  <CHROM.1>
-60.45289734,179.70494391,-55.08593503,-54.48113913,-25.90993894,154.65209035
-176.14845840,-105.47763917,-6.08967980,40.95343340,-5.83140440,2.45547402
0.62494098,1.56042676

>  <Name>
ligand

>  <RI>
0

>  <Rbt.Current_Directory>
/home/itssahil/PROJECTS/Mol_Feturizer/New_Systems/rnas/3D2V

>  <Rbt.Executable>
rbdock ($Id: //depot/dev/client3/rdock/2013.1/src/exe/rbdock.cxx#4 $)

>  <Rbt.Library>
libRbt.so (2013.1, Build901 2013/11/27)

>  <Rbt.Parameter_File>
/export/apps/rDock/src/rDock_2013.1_src/data/scripts/dock_solv.prm

>  <Rbt.Receptor>
prm/pocket_docking_3.prm

>  <SCORE>
-16.3809

>  <SCORE.INTER>
-15.4831

>  <SCORE.INTER.CONST>
1

>  <SCORE.INTER.POLAR>
0

>  <SCORE.INTER.ROT>
8

>  <SCORE.INTER.SOLV>
18.8408

>  <SCORE.INTER.VDW>
-25.5357

>  <SCORE.INTER.norm>
-0.573448

>  <SCORE.INTRA>
-0.897802

>  <SCORE.INTRA.DIHEDRAL>
-1.0987

>  <SCORE.INTRA.DIHEDRAL.0>
7.82666

>  <SCORE.INTRA.POLAR>
0

>  <SCORE.INTRA.POLAR.0>
0

>  <SCORE.INTRA.REPUL>
0

>  <SCORE.INTRA.REPUL.0>
0

>  <SCORE.INTRA.SOLV>
-2.89756

>  <SCORE.INTRA.SOLV.lig_0>
-83.2758

>  <SCORE.INTRA.VDW>
1.10033

>  <SCORE.INTRA.VDW.0>
-3.26816

>  <SCORE.INTRA.norm>
-0.0332519

>  <SCORE.RESTR>
0

>  <SCORE.RESTR.CAVITY>
0

>  <SCORE.RESTR.norm>
0

>  <SCORE.SYSTEM>
0

>  <SCORE.SYSTEM.CONST>
0

>  <SCORE.SYSTEM.DIHEDRAL>
0

>  <SCORE.SYSTEM.SOLV>
0

>  <SCORE.SYSTEM.norm>
0

>  <SCORE.heavy>
27

>  <SCORE.norm>
-0.6067

>  <RMSD>
1.634

$$$$
ligand
 OpenBabel11021811463D
libRbt.so/2013.1/901 2013/11/27
 27 28  0  0  0  0  0  0  0  0999 V2000
  -12.7237   37.0757   -2.2276 C   0  0  0  0  0  0  0  0  0  0  0  0
   -7.8605   40.6964   -6.3450 C   0  0  0  0  0  0  0  0  0  0  0  0
   -5.9778   39.0697   -8.0138 C   0  0  0  0  0  0  0  0  0  0  0  0
   -4.8758   40.0879   -8.3130 C   0  0  0  0  0  0  0  0  0  0  0  0
   -4.9976   41.2302   -7.4618 O   0  0  0  0  0  0  0  0  0  0  0  0
   -4.0888   42.5284   -7.7240 P   0  0  1  0  0  0  0  0  0  0  0  0
   -3.6900   44.4598   -9.7406 P   0  0  2  0  0  0  0  0  0  0  0  0
   -5.4207   37.6359   -4.5374 C   0  0  0  0  0  0  0  0  0  0  0  0
  -11.1749   38.2009   -3.8157 N   0  0  0  0  0  0  0  0  0  0  0  0
   -4.2410   43.5895   -6.5333 O   0  5  0  0  0  0  0  0  0  0  0  0
   -2.2958   44.1260  -10.0977 O   0  0  0  0  0  0  0  0  0  0  0  0
   -6.2871   38.3778   -3.7455 C   0  0  0  0  0  0  0  0  0  0  0  0
  -11.4708   37.8932   -2.5434 C   0  0  0  0  0  0  0  0  0  0  0  0
   -2.5138   42.1830   -7.8413 O   0  0  0  0  0  0  0  0  0  0  0  0
   -3.7543   45.6479   -8.6636 O   0  5  0  0  0  0  0  0  0  0  0  0
   -7.0798   39.3661   -4.3309 N   0  0  0  0  0  0  0  0  0  0  0  0
  -10.6759   38.2969   -1.5418 N   0  0  0  0  0  0  0  0  0  0  0  0
   -4.5205   43.2409   -9.1213 O   0  0  0  0  0  0  0  0  0  0  0  0
   -4.4909   44.9971  -11.0110 O   0  0  0  0  0  0  0  0  0  0  0  0
   -6.9888   39.6057   -5.7073 C   0  0  1  0  0  0  0  0  0  0  0  0
   -9.5744   39.0132   -1.7986 C   0  0  0  0  0  0  0  0  0  0  0  0
   -8.7932   39.4061   -0.7977 N   0  0  0  0  0  0  0  0  0  0  0  0
   -6.1191   38.8601   -6.5015 C   0  0  1  0  0  0  0  0  0  0  0  0
   -9.2448   39.3428   -3.1077 C   0  0  0  0  0  0  0  0  0  0  0  0
   -5.3391   37.8780   -5.9033 C   0  0  0  0  0  0  0  0  0  0  0  0
  -10.0970   38.9063   -4.1155 C   0  0  0  0  0  0  0  0  0  0  0  0
   -8.0030   40.1603   -3.4866 C   0  0  0  0  0  0  0  0  0  0  0  0
  1 13  1  0  0  0  0
  3  4  1  0  0  0  0
  4  5  1  0  0  0  0
  6  5  1  1  0  0  0
  6 10  1  0  0  0  0
  6 14  2  0  0  0  0
  6 18  1  0  0  0  0
  7 11  1  6  0  0  0
  7 15  1  0  0  0  0
  7 19  2  0  0  0  0
  7 18  1  0  0  0  0
  8 25  1  0  0  0  0
  8 12  1  0  0  0  0
  9 26  2  0  0  0  0
  9 13  1  0  0  0  0
 12 16  1  0  0  0  0
 13 17  2  0  0  0  0
 16 20  1  0  0  0  0
 16 27  1  0  0  0  0
 17 21  1  0  0  0  0
 20  2  1  6  0  0  0
 20 23  1  0  0  0  0
 21 22  1  0  0  0  0
 21 24  2  0  0  0  0
 23  3  1  6  0  0  0
 23 25  1  0  0  0  0
 24 27  1  0  0  0  0
 24 26  1  0  0  0  0
M  CHG  2  10  -1  15  -1
M  END
>  <CHROM.1>
-45.88532481,-171.21029381,-171.80534378,-172.86926255,62.34536463,90.98556523
117.48330531,-75.81406741,-6.38580705,40.87120633,-6.14845525,2.34554375
-0.53949785,2.73855720

>  <Name>
ligand

>  <RI>
0

>  <Rbt.Current_Directory>
/home/itssahil/PROJECTS/Mol_Feturizer/New_Systems/rnas/3D2V

>  <Rbt.Executable>
rbdock ($Id: //depot/dev/client3/rdock/2013.1/src/exe/rbdock.cxx#4 $)

>  <Rbt.Library>
libRbt.so (2013.1, Build901 2013/11/27)

>  <Rbt.Parameter_File>
/export/apps/rDock/src/rDock_2013.1_src/data/scripts/dock_solv.prm

>  <Rbt.Receptor>
prm/pocket_docking_2.prm

>  <SCORE>
-18.8783

>  <SCORE.INTER>
-17.3735

>  <SCORE.INTER.CONST>
1

>  <SCORE.INTER.POLAR>
0

>  <SCORE.INTER.ROT>
8

>  <SCORE.INTER.SOLV>
19.0659

>  <SCORE.INTER.VDW>
-26.871

>  <SCORE.INTER.norm>
-0.643462

>  <SCORE.INTRA>
-1.55383

>  <SCORE.INTRA.DIHEDRAL>
-1.335

>  <SCORE.INTRA.DIHEDRAL.0>
7.82666

>  <SCORE.INTRA.POLAR>
0

>  <SCORE.INTRA.POLAR.0>
0

>  <SCORE.INTRA.REPUL>
0

>  <SCORE.INTRA.REPUL.0>
0

>  <SCORE.INTRA.SOLV>
-0.611667

>  <SCORE.INTRA.SOLV.lig_0>
-83.2758

>  <SCORE.INTRA.VDW>
-0.580491

>  <SCORE.INTRA.VDW.0>
-3.26816

>  <SCORE.INTRA.norm>
-0.0575491

>  <SCORE.RESTR>
0.0490283

>  <SCORE.RESTR.CAVITY>
0.0490283

>  <SCORE.RESTR.norm>
0.00181586

>  <SCORE.SYSTEM>
0

>  <SCORE.SYSTEM.CONST>
0

>  <SCORE.SYSTEM.DIHEDRAL>
0

>  <SCORE.SYSTEM.SOLV>
0

>  <SCORE.SYSTEM.norm>
0

>  <SCORE.heavy>
27

>  <SCORE.norm>
-0.699196

>  <RMSD>
1.639

$$$$
ligand
 OpenBabel11021811463D
libRbt.so/2013.1/901 2013/11/27
 27 28  0  0  0  0  0  0  0  0999 V2000
  -12.5841   37.1226   -2.4656 C   0  0  0  0  0  0  0  0  0  0  0  0
   -6.9719   41.6497   -4.5312 C   0  0  0  0  0  0  0  0  0  0  0  0
   -5.3817   40.7786   -6.9161 C   0  0  0  0  0  0  0  0  0  0  0  0
   -4.3793   40.1385   -7.8785 C   0  0  0  0  0  0  0  0  0  0  0  0
   -3.7663   41.1314   -8.7047 O   0  0  0  0  0  0  0  0  0  0  0  0
   -4.6363   41.9048   -9.8115 P   0  0  1  0  0  0  0  0  0  0  0  0
   -3.5438   44.4911   -9.5398 P   0  0  2  0  0  0  0  0  0  0  0  0
   -5.3998   37.6424   -4.7679 C   0  0  0  0  0  0  0  0  0  0  0  0
  -10.5812   38.0971   -3.5728 N   0  0  0  0  0  0  0  0  0  0  0  0
   -5.0263   40.9312  -11.0227 O   0  5  0  0  0  0  0  0  0  0  0  0
   -2.5567   45.4196  -10.1281 O   0  0  0  0  0  0  0  0  0  0  0  0
   -6.1347   38.0251   -3.6537 C   0  0  0  0  0  0  0  0  0  0  0  0
  -11.2208   37.8138   -2.4276 C   0  0  0  0  0  0  0  0  0  0  0  0
   -6.0218   42.4963   -9.2250 O   0  0  0  0  0  0  0  0  0  0  0  0
   -3.0961   44.0036   -8.0777 O   0  5  0  0  0  0  0  0  0  0  0  0
   -6.6470   39.3211   -3.5784 N   0  0  0  0  0  0  0  0  0  0  0  0
  -10.6746   38.1319   -1.2450 N   0  0  0  0  0  0  0  0  0  0  0  0
   -3.7969   43.1673  -10.4015 O   0  0  0  0  0  0  0  0  0  0  0  0
   -4.9515   45.2118   -9.3325 O   0  0  0  0  0  0  0  0  0  0  0  0
   -6.4091   40.2245   -4.6211 C   0  0  1  0  0  0  0  0  0  0  0  0
   -9.4816   38.7371   -1.1915 C   0  0  0  0  0  0  0  0  0  0  0  0
   -8.9494   39.0458   -0.0134 N   0  0  0  0  0  0  0  0  0  0  0  0
   -5.6716   39.8392   -5.7395 C   0  0  2  0  0  0  0  0  0  0  0  0
   -8.7981   39.0391   -2.3630 C   0  0  0  0  0  0  0  0  0  0  0  0
   -5.1711   38.5443   -5.7999 C   0  0  0  0  0  0  0  0  0  0  0  0
   -9.4010   38.6940   -3.5671 C   0  0  0  0  0  0  0  0  0  0  0  0
   -7.4293   39.7317   -2.3887 C   0  0  0  0  0  0  0  0  0  0  0  0
  1 13  1  0  0  0  0
  3  4  1  0  0  0  0
  4  5  1  0  0  0  0
  6  5  1  1  0  0  0
  6 10  1  0  0  0  0
  6 14  2  0  0  0  0
  6 18  1  0  0  0  0
  7 11  1  6  0  0  0
  7 15  1  0  0  0  0
  7 19  2  0  0  0  0
  7 18  1  0  0  0  0
  8 25  1  0  0  0  0
  8 12  1  0  0  0  0
  9 26  2  0  0  0  0
  9 13  1  0  0  0  0
 12 16  1  0  0  0  0
 13 17  2  0  0  0  0
 16 20  1  0  0  0  0
 16 27  1  0  0  0  0
 17 21  1  0  0  0  0
 20  2  1  6  0  0  0
 20 23  1  0  0  0  0
 21 22  1  0  0  0  0
 21 24  2  0  0  0  0
 23  3  1  1  0  0  0
 23 25  1  0  0  0  0
 24 27  1  0  0  0  0
 24 26  1  0  0  0  0
M  CHG  2  10  -1  15  -1
M  END
>  <CHROM.1>
-160.54193744,-68.26169559,-70.49176649,-72.45448908,168.97438141,171.35877965
150.58015804,-70.67296945,-6.30179489,40.81277101,-6.20056776,-3.11250833
1.00530141,0.56409678

>  <Name>
ligand

>  <RI>
0

>  <Rbt.Current_Directory>
/home/itssahil/PROJECTS/Mol_Feturizer/New_Systems/rnas/3D2V

>  <Rbt.Executable>
rbdock ($Id: //depot/dev/client3/rdock/2013.1/src/exe/rbdock.cxx#4 $)

>  <Rbt.Library>
libRbt.so (2013.1, Build901 2013/11/27)

>  <Rbt.Parameter_File>
/export/apps/rDock/src/rDock_2013.1_src/data/scripts/dock_solv.prm

>  <Rbt.Receptor>
prm/pocket_docking_2.prm

>  <SCORE>
-16.3248

>  <SCORE.INTER>
-19.5124

>  <SCORE.INTER.CONST>
1

>  <SCORE.INTER.POLAR>
0

>  <SCORE.INTER.ROT>
8

>  <SCORE.INTER.SOLV>
18.0423

>  <SCORE.INTER.VDW>
-27.9557

>  <SCORE.INTER.norm>
-0.72268

>  <SCORE.INTRA>
2.66372

>  <SCORE.INTRA.DIHEDRAL>
-0.395641

>  <SCORE.INTRA.DIHEDRAL.0>
7.82666

>  <SCORE.INTRA.POLAR>
0

>  <SCORE.INTRA.POLAR.0>
0

>  <SCORE.INTRA.REPUL>
0

>  <SCORE.INTRA.REPUL.0>
0

>  <SCORE.INTRA.SOLV>
1.83196

>  <SCORE.INTRA.SOLV.lig_0>
-83.2758

>  <SCORE.INTRA.VDW>
1.94556

>  <SCORE.INTRA.VDW.0>
-3.26816

>  <SCORE.INTRA.norm>
0.0986562

>  <SCORE.RESTR>
0.523819

>  <SCORE.RESTR.CAVITY>
0.523819

>  <SCORE.RESTR.norm>
0.0194007

>  <SCORE.SYSTEM>
0

>  <SCORE.SYSTEM.CONST>
0

>  <SCORE.SYSTEM.DIHEDRAL>
0

>  <SCORE.SYSTEM.SOLV>
0

>  <SCORE.SYSTEM.norm>
0

>  <SCORE.heavy>
27

>  <SCORE.norm>
-0.604623

>  <RMSD>
1.640

$$$$
ligand
 OpenBabel11021811473D
libRbt.so/2013.1/901 2013/11/27
 27 28  0  0  0  0  0  0  0  0999 V2000
  -12.8789   37.3108   -3.1520 C   0  0  0  0  0  0  0  0  0  0  0  0
   -7.1650   41.9749   -3.3597 C   0  0  0  0  0  0  0  0  0  0  0  0
   -5.4727   41.9140   -5.8311 C   0  0  0  0  0  0  0  0  0  0  0  0
   -6.7650   42.6392   -6.2114 C   0  0  0  0  0  0  0  0  0  0  0  0
   -6.5468   43.5133   -7.3216 O   0  0  0  0  0  0  0  0  0  0  0  0
   -6.1870   42.9056   -8.7642 P   0  0  1  0  0  0  0  0  0  0  0  0
   -3.4926   43.7399   -8.7495 P   0  0  2  0  0  0  0  0  0  0  0  0
   -5.5016   38.2604   -4.7817 C   0  0  0  0  0  0  0  0  0  0  0  0
  -10.7359   38.4012   -3.7892 N   0  0  0  0  0  0  0  0  0  0  0  0
   -7.0034   41.5551   -9.0415 O   0  5  0  0  0  0  0  0  0  0  0  0
   -3.5875   44.5601   -7.5245 O   0  0  0  0  0  0  0  0  0  0  0  0
   -6.2838   38.2659   -3.6344 C   0  0  0  0  0  0  0  0  0  0  0  0
  -11.4999   37.8799   -2.8168 C   0  0  0  0  0  0  0  0  0  0  0  0
   -6.5320   43.9157   -9.9784 O   0  0  0  0  0  0  0  0  0  0  0  0
   -3.6441   44.6361  -10.0723 O   0  5  0  0  0  0  0  0  0  0  0  0
   -6.8255   39.4675   -3.1758 N   0  0  0  0  0  0  0  0  0  0  0  0
  -11.0648   37.8527   -1.5487 N   0  0  0  0  0  0  0  0  0  0  0  0
   -4.5947   42.5852   -8.8554 O   0  0  0  0  0  0  0  0  0  0  0  0
   -2.0577   43.0533   -8.8662 O   0  0  0  0  0  0  0  0  0  0  0  0
   -6.5695   40.6557   -3.8707 C   0  0  1  0  0  0  0  0  0  0  0  0
   -9.8602   38.3459   -1.2358 C   0  0  0  0  0  0  0  0  0  0  0  0
   -9.4390   38.3117    0.0243 N   0  0  0  0  0  0  0  0  0  0  0  0
   -5.7846   40.6491   -5.0226 C   0  0  1  0  0  0  0  0  0  0  0  0
   -9.0492   38.8891   -2.2248 C   0  0  0  0  0  0  0  0  0  0  0  0
   -5.2553   39.4437   -5.4673 C   0  0  0  0  0  0  0  0  0  0  0  0
   -9.5395   38.8993   -3.5256 C   0  0  0  0  0  0  0  0  0  0  0  0
   -7.6582   39.4753   -1.9501 C   0  0  0  0  0  0  0  0  0  0  0  0
  1 13  1  0  0  0  0
  3  4  1  0  0  0  0
  4  5  1  0  0  0  0
  6  5  1  1  0  0  0
  6 10  1  0  0  0  0
  6 14  2  0  0  0  0
  6 18  1  0  0  0  0
  7 11  1  1  0  0  0
  7 15  1  0  0  0  0
  7 19  2  0  0  0  0
  7 18  1  0  0  0  0
  8 25  1  0  0  0  0
  8 12  1  0  0  0  0
  9 26  2  0  0  0  0
  9 13  1  0  0  0  0
 12 16  1  0  0  0  0
 13 17  2  0  0  0  0
 16 20  1  0  0  0  0
 16 27  1  0  0  0  0
 17 21  1  0  0  0  0
 20  2  1  6  0  0  0
 20 23  1  0  0  0  0
 21 22  1  0  0  0  0
 21 24  2  0  0  0  0
 23  3  1  6  0  0  0
 23 25  1  0  0  0  0
 24 27  1  0  0  0  0
 24 26  1  0  0  0  0
M  CHG  2  10  -1  15  -1
M  END
>  <CHROM.1>
-159.55870685,66.54458339,37.72378191,-63.14602972,55.69197860,-53.75383847
156.96573764,-74.73606430,-6.80058640,41.08355416,-5.68816041,2.17034760
0.23519549,2.08235231

>  <Name>
ligand

>  <RI>
0

>  <Rbt.Current_Directory>
/home/itssahil/PROJECTS/Mol_Feturizer/New_Systems/rnas/3D2V

>  <Rbt.Executable>
rbdock ($Id: //depot/dev/client3/rdock/2013.1/src/exe/rbdock.cxx#4 $)

>  <Rbt.Library>
libRbt.so (2013.1, Build901 2013/11/27)

>  <Rbt.Parameter_File>
/export/apps/rDock/src/rDock_2013.1_src/data/scripts/dock_solv.prm

>  <Rbt.Receptor>
prm/pocket_docking_2.prm

>  <SCORE>
-10.1658

>  <SCORE.INTER>
-12.2038

>  <SCORE.INTER.CONST>
1

>  <SCORE.INTER.POLAR>
0

>  <SCORE.INTER.ROT>
8

>  <SCORE.INTER.SOLV>
22.738

>  <SCORE.INTER.VDW>
-24.6485

>  <SCORE.INTER.norm>
-0.451991

>  <SCORE.INTRA>
1.05509

>  <SCORE.INTRA.DIHEDRAL>
-0.214589

>  <SCORE.INTRA.DIHEDRAL.0>
7.82666

>  <SCORE.INTRA.POLAR>
0

>  <SCORE.INTRA.POLAR.0>
0

>  <SCORE.INTRA.REPUL>
0

>  <SCORE.INTRA.REPUL.0>
0

>  <SCORE.INTRA.SOLV>
-1.00772

>  <SCORE.INTRA.SOLV.lig_0>
-83.2758

>  <SCORE.INTRA.VDW>
1.66625

>  <SCORE.INTRA.VDW.0>
-3.26816

>  <SCORE.INTRA.norm>
0.0390775

>  <SCORE.RESTR>
0.982897

>  <SCORE.RESTR.CAVITY>
0.982897

>  <SCORE.RESTR.norm>
0.0364036

>  <SCORE.SYSTEM>
0

>  <SCORE.SYSTEM.CONST>
0

>  <SCORE.SYSTEM.DIHEDRAL>
0

>  <SCORE.SYSTEM.SOLV>
0

>  <SCORE.SYSTEM.norm>
0

>  <SCORE.heavy>
27

>  <SCORE.norm>
-0.37651

>  <RMSD>
1.652

$$$$
ligand
 OpenBabel11021811473D
libRbt.so/2013.1/901 2013/11/27
 27 28  0  0  0  0  0  0  0  0999 V2000
  -12.7989   37.1345   -2.4727 C   0  0  0  0  0  0  0  0  0  0  0  0
   -8.0437   41.5527   -4.4961 C   0  0  0  0  0  0  0  0  0  0  0  0
   -6.5520   41.0424   -7.0436 C   0  0  0  0  0  0  0  0  0  0  0  0
   -6.5663   40.2059   -8.3245 C   0  0  0  0  0  0  0  0  0  0  0  0
   -5.2523   40.1077   -8.8794 O   0  0  0  0  0  0  0  0  0  0  0  0
   -4.7995   41.1053  -10.0541 P   0  0  1  0  0  0  0  0  0  0  0  0
   -5.1718   43.6883   -8.9835 P   0  0  2  0  0  0  0  0  0  0  0  0
   -5.3621   38.1932   -4.8261 C   0  0  0  0  0  0  0  0  0  0  0  0
  -10.8322   38.2370   -3.5235 N   0  0  0  0  0  0  0  0  0  0  0  0
   -3.2323   41.4269   -9.9660 O   0  5  0  0  0  0  0  0  0  0  0  0
   -4.5747   43.2364   -7.7100 O   0  0  0  0  0  0  0  0  0  0  0  0
   -6.0441   38.4109   -3.6363 C   0  0  0  0  0  0  0  0  0  0  0  0
  -11.4343   37.8204   -2.3988 C   0  0  0  0  0  0  0  0  0  0  0  0
   -5.0693   40.5053  -11.5308 O   0  0  0  0  0  0  0  0  0  0  0  0
   -6.4701   44.5987   -8.7357 O   0  5  0  0  0  0  0  0  0  0  0  0
   -6.9152   39.4962   -3.5303 N   0  0  0  0  0  0  0  0  0  0  0  0
  -10.8494   38.0000   -1.2057 N   0  0  0  0  0  0  0  0  0  0  0  0
   -5.6288   42.5013   -9.9537 O   0  0  0  0  0  0  0  0  0  0  0  0
   -4.1554   44.6129   -9.7934 O   0  0  0  0  0  0  0  0  0  0  0  0
   -7.0872   40.3587   -4.6196 C   0  0  1  0  0  0  0  0  0  0  0  0
   -9.6546   38.5982   -1.1209 C   0  0  0  0  0  0  0  0  0  0  0  0
   -9.0838   38.7690    0.0672 N   0  0  0  0  0  0  0  0  0  0  0  0
   -6.4025   40.1390   -5.8138 C   0  0  2  0  0  0  0  0  0  0  0  0
   -9.0095   39.0365   -2.2709 C   0  0  0  0  0  0  0  0  0  0  0  0
   -5.5413   39.0522   -5.9036 C   0  0  0  0  0  0  0  0  0  0  0  0
   -9.6519   38.8324   -3.4867 C   0  0  0  0  0  0  0  0  0  0  0  0
   -7.6416   39.7312   -2.2603 C   0  0  0  0  0  0  0  0  0  0  0  0
  1 13  1  0  0  0  0
  3  4  1  0  0  0  0
  4  5  1  0  0  0  0
  6  5  1  1  0  0  0
  6 10  1  0  0  0  0
  6 14  2  0  0  0  0
  6 18  1  0  0  0  0
  7 11  1  1  0  0  0
  7 15  1  0  0  0  0
  7 19  2  0  0  0  0
  7 18  1  0  0  0  0
  8 25  1  0  0  0  0
  8 12  1  0  0  0  0
  9 26  2  0  0  0  0
  9 13  1  0  0  0  0
 12 16  1  0  0  0  0
 13 17  2  0  0  0  0
 16 20  1  0  0  0  0
 16 27  1  0  0  0  0
 17 21  1  0  0  0  0
 20  2  1  6  0  0  0
 20 23  1  0  0  0  0
 21 22  1  0  0  0  0
 21 24  2  0  0  0  0
 23  3  1  1  0  0  0
 23 25  1  0  0  0  0
 24 27  1  0  0  0  0
 24 26  1  0  0  0  0
M  CHG  2  10  -1  15  -1
M  END
>  <CHROM.1>
-93.74931594,-96.59179891,147.81367748,83.95286934,-35.15185673,-140.74081068
152.19620438,-91.84956490,-6.90925947,40.54236018,-6.16944653,-2.89278914
1.01785293,0.20050404

>  <Name>
ligand

>  <RI>
0

>  <Rbt.Current_Directory>
/home/itssahil/PROJECTS/Mol_Feturizer/New_Systems/rnas/3D2V

>  <Rbt.Executable>
rbdock ($Id: //depot/dev/client3/rdock/2013.1/src/exe/rbdock.cxx#4 $)

>  <Rbt.Library>
libRbt.so (2013.1, Build901 2013/11/27)

>  <Rbt.Parameter_File>
/export/apps/rDock/src/rDock_2013.1_src/data/scripts/dock_solv.prm

>  <Rbt.Receptor>
prm/pocket_docking_3.prm

>  <SCORE>
-12.5457

>  <SCORE.INTER>
-16.3404

>  <SCORE.INTER.CONST>
1

>  <SCORE.INTER.POLAR>
0

>  <SCORE.INTER.ROT>
8

>  <SCORE.INTER.SOLV>
23.052

>  <SCORE.INTER.VDW>
-27.5109

>  <SCORE.INTER.norm>
-0.6052

>  <SCORE.INTRA>
3.79281

>  <SCORE.INTRA.DIHEDRAL>
8.54308

>  <SCORE.INTRA.DIHEDRAL.0>
7.82666

>  <SCORE.INTRA.POLAR>
0

>  <SCORE.INTRA.POLAR.0>
0

>  <SCORE.INTRA.REPUL>
0

>  <SCORE.INTRA.REPUL.0>
0

>  <SCORE.INTRA.SOLV>
-1.04888

>  <SCORE.INTRA.SOLV.lig_0>
-83.2758

>  <SCORE.INTRA.VDW>
0.0457147

>  <SCORE.INTRA.VDW.0>
-3.26816

>  <SCORE.INTRA.norm>
0.140475

>  <SCORE.RESTR>
0.00194367

>  <SCORE.RESTR.CAVITY>
0.00194367

>  <SCORE.RESTR.norm>
7.19879e-05

>  <SCORE.SYSTEM>
0

>  <SCORE.SYSTEM.CONST>
0

>  <SCORE.SYSTEM.DIHEDRAL>
0

>  <SCORE.SYSTEM.SOLV>
0

>  <SCORE.SYSTEM.norm>
0

>  <SCORE.heavy>
27

>  <SCORE.norm>
-0.464654

>  <RMSD>
1.711

$$$$
ligand
 OpenBabel11021811473D
libRbt.so/2013.1/901 2013/11/27
 27 28  0  0  0  0  0  0  0  0999 V2000
  -11.9962   37.6189   -1.9812 C   0  0  0  0  0  0  0  0  0  0  0  0
   -6.5184   41.3854   -5.1894 C   0  0  0  0  0  0  0  0  0  0  0  0
   -5.3569   40.2030   -7.6851 C   0  0  0  0  0  0  0  0  0  0  0  0
   -4.0720   41.0335   -7.6856 C   0  0  0  0  0  0  0  0  0  0  0  0
   -4.1246   42.0463   -8.6934 O   0  0  0  0  0  0  0  0  0  0  0  0
   -2.9222   43.1019   -8.8353 P   0  0  1  0  0  0  0  0  0  0  0  0
   -4.4018   44.9512  -10.3674 P   0  0  2  0  0  0  0  0  0  0  0  0
   -5.1151   37.3092   -5.2319 C   0  0  0  0  0  0  0  0  0  0  0  0
  -10.0781   38.2825   -3.4191 N   0  0  0  0  0  0  0  0  0  0  0  0
   -2.0111   43.1195   -7.5175 O   0  5  0  0  0  0  0  0  0  0  0  0
   -3.7459   44.6589  -11.6585 O   0  0  0  0  0  0  0  0  0  0  0  0
   -5.6506   37.8371   -4.0645 C   0  0  0  0  0  0  0  0  0  0  0  0
  -10.5872   38.1778   -2.1819 C   0  0  0  0  0  0  0  0  0  0  0  0
   -1.9392   42.7757  -10.0766 O   0  0  0  0  0  0  0  0  0  0  0  0
   -4.7860   46.5042  -10.2396 O   0  5  0  0  0  0  0  0  0  0  0  0
   -6.1084   39.1554   -4.0514 N   0  0  0  0  0  0  0  0  0  0  0  0
   -9.8703   38.5598   -1.1151 N   0  0  0  0  0  0  0  0  0  0  0  0
   -3.5156   44.5961   -9.0839 O   0  0  0  0  0  0  0  0  0  0  0  0
   -5.7819   44.1622  -10.2376 O   0  0  0  0  0  0  0  0  0  0  0  0
   -6.0166   39.9350   -5.2107 C   0  0  1  0  0  0  0  0  0  0  0  0
   -8.6347   39.0512   -1.2707 C   0  0  0  0  0  0  0  0  0  0  0  0
   -7.9330   39.4248   -0.2056 N   0  0  0  0  0  0  0  0  0  0  0  0
   -5.4794   39.4039   -6.3822 C   0  0  2  0  0  0  0  0  0  0  0  0
   -8.0840   39.1676   -2.5412 C   0  0  0  0  0  0  0  0  0  0  0  0
   -5.0308   38.0888   -6.3790 C   0  0  0  0  0  0  0  0  0  0  0  0
   -8.8619   38.7621   -3.6195 C   0  0  0  0  0  0  0  0  0  0  0  0
   -6.6776   39.7210   -2.8056 C   0  0  0  0  0  0  0  0  0  0  0  0
  1 13  1  0  0  0  0
  3  4  1  0  0  0  0
  4  5  1  0  0  0  0
  6  5  1  1  0  0  0
  6 10  1  0  0  0  0
  6 14  2  0  0  0  0
  6 18  1  0  0  0  0
  7 11  1  6  0  0  0
  7 15  1  0  0  0  0
  7 19  2  0  0  0  0
  7 18  1  0  0  0  0
  8 25  1  0  0  0  0
  8 12  1  0  0  0  0
  9 26  2  0  0  0  0
  9 13  1  0  0  0  0
 12 16  1  0  0  0  0
 13 17  2  0  0  0  0
 16 20  1  0  0  0  0
 16 27  1  0  0  0  0
 17 21  1  0  0  0  0
 20  2  1  6  0  0  0
 20 23  1  0  0  0  0
 21 22  1  0  0  0  0
 21 24  2  0  0  0  0
 23  3  1  1  0  0  0
 23 25  1  0  0  0  0
 24 27  1  0  0  0  0
 24 26  1  0  0  0  0
M  CHG  2  10  -1  15  -1
M  END
>  <CHROM.1>
-163.79362171,176.56778209,-16.84020724,-61.54318327,-56.46168254,84.57224496
152.52500761,-74.55517627,-5.81125770,41.17555714,-6.34721116,2.12641056
-0.39524590,2.44956001

>  <Name>
ligand

>  <RI>
0

>  <Rbt.Current_Directory>
/home/itssahil/PROJECTS/Mol_Feturizer/New_Systems/rnas/3D2V

>  <Rbt.Executable>
rbdock ($Id: //depot/dev/client3/rdock/2013.1/src/exe/rbdock.cxx#4 $)

>  <Rbt.Library>
libRbt.so (2013.1, Build901 2013/11/27)

>  <Rbt.Parameter_File>
/export/apps/rDock/src/rDock_2013.1_src/data/scripts/dock_solv.prm

>  <Rbt.Receptor>
prm/pocket_docking_3.prm

>  <SCORE>
-20.4789

>  <SCORE.INTER>
-19.5764

>  <SCORE.INTER.CONST>
1

>  <SCORE.INTER.POLAR>
0

>  <SCORE.INTER.ROT>
8

>  <SCORE.INTER.SOLV>
20.67

>  <SCORE.INTER.VDW>
-28.8742

>  <SCORE.INTER.norm>
-0.725051

>  <SCORE.INTRA>
-0.902531

>  <SCORE.INTRA.DIHEDRAL>
0.322671

>  <SCORE.INTRA.DIHEDRAL.0>
7.82666

>  <SCORE.INTRA.POLAR>
0

>  <SCORE.INTRA.POLAR.0>
0

>  <SCORE.INTRA.REPUL>
0

>  <SCORE.INTRA.REPUL.0>
0

>  <SCORE.INTRA.SOLV>
-2.0571

>  <SCORE.INTRA.SOLV.lig_0>
-83.2758

>  <SCORE.INTRA.VDW>
-0.0353162

>  <SCORE.INTRA.VDW.0>
-3.26816

>  <SCORE.INTRA.norm>
-0.0334271

>  <SCORE.RESTR>
0

>  <SCORE.RESTR.CAVITY>
0

>  <SCORE.RESTR.norm>
0

>  <SCORE.SYSTEM>
0

>  <SCORE.SYSTEM.CONST>
0

>  <SCORE.SYSTEM.DIHEDRAL>
0

>  <SCORE.SYSTEM.SOLV>
0

>  <SCORE.SYSTEM.norm>
0

>  <SCORE.heavy>
27

>  <SCORE.norm>
-0.758478

>  <RMSD>
1.714

$$$$
ligand
 OpenBabel11021811473D
libRbt.so/2013.1/901 2013/11/27
 27 28  0  0  0  0  0  0  0  0999 V2000
  -12.8259   37.3354   -3.1611 C   0  0  0  0  0  0  0  0  0  0  0  0
   -5.8954   41.7262   -3.0441 C   0  0  0  0  0  0  0  0  0  0  0  0
   -4.2245   41.3831   -5.5069 C   0  0  0  0  0  0  0  0  0  0  0  0
   -4.8973   42.1059   -6.6754 C   0  0  0  0  0  0  0  0  0  0  0  0
   -4.5880   41.4624   -7.9141 O   0  0  0  0  0  0  0  0  0  0  0  0
   -5.4472   41.7960   -9.2296 P   0  0  1  0  0  0  0  0  0  0  0  0
   -3.8612   43.9864  -10.0315 P   0  0  2  0  0  0  0  0  0  0  0  0
   -5.9656   38.0147   -5.2362 C   0  0  0  0  0  0  0  0  0  0  0  0
  -10.6820   38.3606   -3.8959 N   0  0  0  0  0  0  0  0  0  0  0  0
   -4.9779   40.8959  -10.4691 O   0  5  0  0  0  0  0  0  0  0  0  0
   -3.9186   45.3972  -10.4663 O   0  0  0  0  0  0  0  0  0  0  0  0
   -6.7484   38.1526   -4.0976 C   0  0  0  0  0  0  0  0  0  0  0  0
  -11.4352   37.9064   -2.8823 C   0  0  0  0  0  0  0  0  0  0  0  0
   -7.0298   41.5301   -9.0339 O   0  0  0  0  0  0  0  0  0  0  0  0
   -3.2613   43.0395  -11.1801 O   0  5  0  0  0  0  0  0  0  0  0  0
   -6.7289   39.3552   -3.3898 N   0  0  0  0  0  0  0  0  0  0  0  0
  -10.9790   37.9481   -1.6220 N   0  0  0  0  0  0  0  0  0  0  0  0
   -5.2782   43.3648   -9.6256 O   0  0  0  0  0  0  0  0  0  0  0  0
   -2.8804   43.8131   -8.7858 O   0  0  0  0  0  0  0  0  0  0  0  0
   -5.9157   40.4071   -3.8285 C   0  0  1  0  0  0  0  0  0  0  0  0
   -9.7638   38.4441   -1.3582 C   0  0  0  0  0  0  0  0  0  0  0  0
   -9.3218   38.4785   -0.1053 N   0  0  0  0  0  0  0  0  0  0  0  0
   -5.1306   40.2678   -4.9719 C   0  0  1  0  0  0  0  0  0  0  0  0
   -8.9636   38.9186   -2.3904 C   0  0  0  0  0  0  0  0  0  0  0  0
   -5.1640   39.0649   -5.6666 C   0  0  0  0  0  0  0  0  0  0  0  0
   -9.4757   38.8587   -3.6814 C   0  0  0  0  0  0  0  0  0  0  0  0
   -7.5618   39.5029   -2.1731 C   0  0  0  0  0  0  0  0  0  0  0  0
  1 13  1  0  0  0  0
  3  4  1  0  0  0  0
  4  5  1  0  0  0  0
  6  5  1  1  0  0  0
  6 10  1  0  0  0  0
  6 14  2  0  0  0  0
  6 18  1  0  0  0  0
  7 11  1  6  0  0  0
  7 15  1  0  0  0  0
  7 19  2  0  0  0  0
  7 18  1  0  0  0  0
  8 25  1  0  0  0  0
  8 12  1  0  0  0  0
  9 26  2  0  0  0  0
  9 13  1  0  0  0  0
 12 16  1  0  0  0  0
 13 17  2  0  0  0  0
 16 20  1  0  0  0  0
 16 27  1  0  0  0  0
 17 21  1  0  0  0  0
 20  2  1  6  0  0  0
 20 23  1  0  0  0  0
 21 22  1  0  0  0  0
 21 24  2  0  0  0  0
 23  3  1  6  0  0  0
 23 25  1  0  0  0  0
 24 27  1  0  0  0  0
 24 26  1  0  0  0  0
M  CHG  2  10  -1  15  -1
M  END
>  <CHROM.1>
-88.61259624,164.89669702,-176.61248635,62.57207661,175.21322818,-100.29473213
154.27165468,-43.28554667,-6.50006814,40.77340875,-6.11085154,2.19904602
0.43193258,1.85392748

>  <Name>
ligand

>  <RI>
0

>  <Rbt.Current_Directory>
/home/itssahil/PROJECTS/Mol_Feturizer/New_Systems/rnas/3D2V

>  <Rbt.Executable>
rbdock ($Id: //depot/dev/client3/rdock/2013.1/src/exe/rbdock.cxx#4 $)

>  <Rbt.Library>
libRbt.so (2013.1, Build901 2013/11/27)

>  <Rbt.Parameter_File>
/export/apps/rDock/src/rDock_2013.1_src/data/scripts/dock_solv.prm

>  <Rbt.Receptor>
prm/pocket_docking_2.prm

>  <SCORE>
-12.6491

>  <SCORE.INTER>
-15.0994

>  <SCORE.INTER.CONST>
1

>  <SCORE.INTER.POLAR>
0

>  <SCORE.INTER.ROT>
8

>  <SCORE.INTER.SOLV>
21.3894

>  <SCORE.INTER.VDW>
-26.1294

>  <SCORE.INTER.norm>
-0.559238

>  <SCORE.INTRA>
0.864375

>  <SCORE.INTRA.DIHEDRAL>
1.02654

>  <SCORE.INTRA.DIHEDRAL.0>
7.82666

>  <SCORE.INTRA.POLAR>
0

>  <SCORE.INTRA.POLAR.0>
0

>  <SCORE.INTRA.REPUL>
0

>  <SCORE.INTRA.REPUL.0>
0

>  <SCORE.INTRA.SOLV>
0.627257

>  <SCORE.INTRA.SOLV.lig_0>
-83.2758

>  <SCORE.INTRA.VDW>
0.0374747

>  <SCORE.INTRA.VDW.0>
-3.26816

>  <SCORE.INTRA.norm>
0.0320139

>  <SCORE.RESTR>
1.58594

>  <SCORE.RESTR.CAVITY>
1.58594

>  <SCORE.RESTR.norm>
0.0587384

>  <SCORE.SYSTEM>
0

>  <SCORE.SYSTEM.CONST>
0

>  <SCORE.SYSTEM.DIHEDRAL>
0

>  <SCORE.SYSTEM.SOLV>
0

>  <SCORE.SYSTEM.norm>
0

>  <SCORE.heavy>
27

>  <SCORE.norm>
-0.468485

>  <RMSD>
1.719

$$$$
ligand
 OpenBabel11021811463D
libRbt.so/2013.1/901 2013/11/27
 27 28  0  0  0  0  0  0  0  0999 V2000
  -12.5875   37.5184   -1.6453 C   0  0  0  0  0  0  0  0  0  0  0  0
   -8.0730   41.6067   -4.6424 C   0  0  0  0  0  0  0  0  0  0  0  0
   -7.1602   41.1971   -7.4663 C   0  0  0  0  0  0  0  0  0  0  0  0
   -6.2826   42.4478   -7.3857 C   0  0  0  0  0  0  0  0  0  0  0  0
   -5.5454   42.6275   -8.5975 O   0  0  0  0  0  0  0  0  0  0  0  0
   -4.4549   41.5359   -9.0441 P   0  0  1  0  0  0  0  0  0  0  0  0
   -2.5893   43.5819   -9.5821 P   0  0  2  0  0  0  0  0  0  0  0  0
   -5.6743   38.1816   -5.6916 C   0  0  0  0  0  0  0  0  0  0  0  0
  -10.4962   38.6648   -0.9387 N   0  0  0  0  0  0  0  0  0  0  0  0
   -3.7299   40.8896   -7.7698 O   0  5  0  0  0  0  0  0  0  0  0  0
   -1.5725   44.0389  -10.5516 O   0  0  0  0  0  0  0  0  0  0  0  0
   -6.0872   38.3518   -4.3768 C   0  0  0  0  0  0  0  0  0  0  0  0
  -11.1909   38.0749   -1.9238 C   0  0  0  0  0  0  0  0  0  0  0  0
   -5.0944   40.3128   -9.8859 O   0  0  0  0  0  0  0  0  0  0  0  0
   -1.9494   43.3275   -8.1325 O   0  5  0  0  0  0  0  0  0  0  0  0
   -6.8669   39.4584   -4.0375 N   0  0  0  0  0  0  0  0  0  0  0  0
  -10.6709   37.9678   -3.1551 N   0  0  0  0  0  0  0  0  0  0  0  0
   -3.3297   42.2254   -9.9953 O   0  0  0  0  0  0  0  0  0  0  0  0
   -3.7078   44.6973   -9.3607 O   0  0  0  0  0  0  0  0  0  0  0  0
   -7.2184   40.3896   -5.0221 C   0  0  1  0  0  0  0  0  0  0  0  0
   -9.4497   38.4493   -3.4183 C   0  0  0  0  0  0  0  0  0  0  0  0
   -8.9456   38.3390   -4.6430 N   0  0  0  0  0  0  0  0  0  0  0  0
   -6.8038   40.2176   -6.3418 C   0  0  1  0  0  0  0  0  0  0  0  0
   -8.7111   39.0665   -2.4161 C   0  0  0  0  0  0  0  0  0  0  0  0
   -6.0305   39.1088   -6.6633 C   0  0  0  0  0  0  0  0  0  0  0  0
   -9.2866   39.1546   -1.1537 C   0  0  0  0  0  0  0  0  0  0  0  0
   -7.3060   39.6427   -2.6343 C   0  0  0  0  0  0  0  0  0  0  0  0
  1 13  1  0  0  0  0
  3  4  1  0  0  0  0
  4  5  1  0  0  0  0
  6  5  1  1  0  0  0
  6 10  1  0  0  0  0
  6 14  2  0  0  0  0
  6 18  1  0  0  0  0
  7 11  1  6  0  0  0
  7 15  1  0  0  0  0
  7 19  2  0  0  0  0
  7 18  1  0  0  0  0
  8 25  1  0  0  0  0
  8 12  1  0  0  0  0
  9 26  2  0  0  0  0
  9 13  1  0  0  0  0
 12 16  1  0  0  0  0
 13 17  2  0  0  0  0
 16 20  1  0  0  0  0
 16 27  1  0  0  0  0
 17 21  1  0  0  0  0
 20  2  1  6  0  0  0
 20 23  1  0  0  0  0
 21 22  1  0  0  0  0
 21 24  2  0  0  0  0
 23  3  1  6  0  0  0
 23 25  1  0  0  0  0
 24 27  1  0  0  0  0
 24 26  1  0  0  0  0
M  CHG  2  10  -1  15  -1
M  END
>  <CHROM.1>
121.52286201,-63.77675429,-33.75178070,49.68112113,178.40715887,77.37039981
0.41517461,-95.00282633,-6.29628524,40.71961168,-6.26207267,3.13304647,0.89086889
0.58096755

>  <Name>
ligand

>  <RI>
0

>  <Rbt.Current_Directory>
/home/itssahil/PROJECTS/Mol_Feturizer/New_Systems/rnas/3D2V

>  <Rbt.Executable>
rbdock ($Id: //depot/dev/client3/rdock/2013.1/src/exe/rbdock.cxx#4 $)

>  <Rbt.Library>
libRbt.so (2013.1, Build901 2013/11/27)

>  <Rbt.Parameter_File>
/export/apps/rDock/src/rDock_2013.1_src/data/scripts/dock_solv.prm

>  <Rbt.Receptor>
prm/pocket_docking_2.prm

>  <SCORE>
-12.8251

>  <SCORE.INTER>
-19.2804

>  <SCORE.INTER.CONST>
1

>  <SCORE.INTER.POLAR>
0

>  <SCORE.INTER.ROT>
8

>  <SCORE.INTER.SOLV>
15.9883

>  <SCORE.INTER.VDW>
-27.1164

>  <SCORE.INTER.norm>
-0.71409

>  <SCORE.INTRA>
6.45534

>  <SCORE.INTRA.DIHEDRAL>
4.06561

>  <SCORE.INTRA.DIHEDRAL.0>
7.82666

>  <SCORE.INTRA.POLAR>
0

>  <SCORE.INTRA.POLAR.0>
0

>  <SCORE.INTRA.REPUL>
0

>  <SCORE.INTRA.REPUL.0>
0

>  <SCORE.INTRA.SOLV>
8.43413

>  <SCORE.INTRA.SOLV.lig_0>
-83.2758

>  <SCORE.INTRA.VDW>
0.20547

>  <SCORE.INTRA.VDW.0>
-3.26816

>  <SCORE.INTRA.norm>
0.239087

>  <SCORE.RESTR>
0

>  <SCORE.RESTR.CAVITY>
0

>  <SCORE.RESTR.norm>
0

>  <SCORE.SYSTEM>
0

>  <SCORE.SYSTEM.CONST>
0

>  <SCORE.SYSTEM.DIHEDRAL>
0

>  <SCORE.SYSTEM.SOLV>
0

>  <SCORE.SYSTEM.norm>
0

>  <SCORE.heavy>
27

>  <SCORE.norm>
-0.475003

>  <RMSD>
1.749

$$$$
ligand
 OpenBabel11021811463D
libRbt.so/2013.1/901 2013/11/27
 27 28  0  0  0  0  0  0  0  0999 V2000
  -12.9569   37.1077   -2.5036 C   0  0  0  0  0  0  0  0  0  0  0  0
   -7.3964   41.8936   -3.9310 C   0  0  0  0  0  0  0  0  0  0  0  0
   -5.6418   41.3928   -6.3071 C   0  0  0  0  0  0  0  0  0  0  0  0
   -6.4801   41.1508   -7.5638 C   0  0  0  0  0  0  0  0  0  0  0  0
   -6.0773   42.0291   -8.6176 O   0  0  0  0  0  0  0  0  0  0  0  0
   -4.6451   41.8387   -9.3193 P   0  0  1  0  0  0  0  0  0  0  0  0
   -4.1462   44.5342   -9.9839 P   0  0  2  0  0  0  0  0  0  0  0  0
   -5.5533   38.0406   -4.5167 C   0  0  0  0  0  0  0  0  0  0  0  0
  -11.0400   38.0009   -1.1941 N   0  0  0  0  0  0  0  0  0  0  0  0
   -3.4628   41.8821   -8.2388 O   0  5  0  0  0  0  0  0  0  0  0  0
   -2.9328   44.7405   -9.1668 O   0  0  0  0  0  0  0  0  0  0  0  0
   -6.3635   38.2510   -3.4088 C   0  0  0  0  0  0  0  0  0  0  0  0
  -11.5983   37.8012   -2.3980 C   0  0  0  0  0  0  0  0  0  0  0  0
   -4.5082   40.4312  -10.1028 O   0  0  0  0  0  0  0  0  0  0  0  0
   -5.4675   45.0116   -9.2080 O   0  5  0  0  0  0  0  0  0  0  0  0
   -6.9634   39.4970   -3.2208 N   0  0  0  0  0  0  0  0  0  0  0  0
  -10.9745   38.2050   -3.5142 N   0  0  0  0  0  0  0  0  0  0  0  0
   -4.3981   43.0147  -10.4159 O   0  0  0  0  0  0  0  0  0  0  0  0
   -4.0950   45.4145  -11.3129 O   0  0  0  0  0  0  0  0  0  0  0  0
   -6.7369   40.5242   -4.1448 C   0  0  1  0  0  0  0  0  0  0  0  0
   -9.7846   38.8142   -3.4418 C   0  0  0  0  0  0  0  0  0  0  0  0
   -9.1768   39.2118   -4.5549 N   0  0  0  0  0  0  0  0  0  0  0  0
   -5.9238   40.3118   -5.2569 C   0  0  1  0  0  0  0  0  0  0  0  0
   -9.1865   39.0349   -2.2071 C   0  0  0  0  0  0  0  0  0  0  0  0
   -5.3366   39.0645   -5.4307 C   0  0  0  0  0  0  0  0  0  0  0  0
   -9.8661   38.5986   -1.0756 C   0  0  0  0  0  0  0  0  0  0  0  0
   -7.8261   39.7237   -2.0376 C   0  0  0  0  0  0  0  0  0  0  0  0
  1 13  1  0  0  0  0
  3  4  1  0  0  0  0
  4  5  1  0  0  0  0
  6  5  1  1  0  0  0
  6 10  1  0  0  0  0
  6 14  2  0  0  0  0
  6 18  1  0  0  0  0
  7 11  1  1  0  0  0
  7 15  1  0  0  0  0
  7 19  2  0  0  0  0
  7 18  1  0  0  0  0
  8 25  1  0  0  0  0
  8 12  1  0  0  0  0
  9 26  2  0  0  0  0
  9 13  1  0  0  0  0
 12 16  1  0  0  0  0
 13 17  2  0  0  0  0
 16 20  1  0  0  0  0
 16 27  1  0  0  0  0
 17 21  1  0  0  0  0
 20  2  1  6  0  0  0
 20 23  1  0  0  0  0
 21 22  1  0  0  0  0
 21 24  2  0  0  0  0
 23  3  1  6  0  0  0
 23 25  1  0  0  0  0
 24 27  1  0  0  0  0
 24 26  1  0  0  0  0
M  CHG  2  10  -1  15  -1
M  END
>  <CHROM.1>
-171.23097847,69.16078600,-55.90614321,70.04655239,61.88671012,-102.40045311
-28.97286897,-74.83098974,-6.66118876,40.94708013,-6.21260909,2.14626052
-0.14636357,2.28466249

>  <Name>
ligand

>  <RI>
0

>  <Rbt.Current_Directory>
/home/itssahil/PROJECTS/Mol_Feturizer/New_Systems/rnas/3D2V

>  <Rbt.Executable>
rbdock ($Id: //depot/dev/client3/rdock/2013.1/src/exe/rbdock.cxx#4 $)

>  <Rbt.Library>
libRbt.so (2013.1, Build901 2013/11/27)

>  <Rbt.Parameter_File>
/export/apps/rDock/src/rDock_2013.1_src/data/scripts/dock_solv.prm

>  <Rbt.Receptor>
prm/pocket_docking_2.prm

>  <SCORE>
-16.3559

>  <SCORE.INTER>
-17.7771

>  <SCORE.INTER.CONST>
1

>  <SCORE.INTER.POLAR>
0

>  <SCORE.INTER.ROT>
8

>  <SCORE.INTER.SOLV>
17.055

>  <SCORE.INTER.VDW>
-26.4698

>  <SCORE.INTER.norm>
-0.658413

>  <SCORE.INTRA>
1.41205

>  <SCORE.INTRA.DIHEDRAL>
-1.72798

>  <SCORE.INTRA.DIHEDRAL.0>
7.82666

>  <SCORE.INTRA.POLAR>
0

>  <SCORE.INTRA.POLAR.0>
0

>  <SCORE.INTRA.REPUL>
0

>  <SCORE.INTRA.REPUL.0>
0

>  <SCORE.INTRA.SOLV>
4.65485

>  <SCORE.INTRA.SOLV.lig_0>
-83.2758

>  <SCORE.INTRA.VDW>
-0.0513867

>  <SCORE.INTRA.VDW.0>
-3.26816

>  <SCORE.INTRA.norm>
0.0522981

>  <SCORE.RESTR>
0.00916905

>  <SCORE.RESTR.CAVITY>
0.00916905

>  <SCORE.RESTR.norm>
0.000339594

>  <SCORE.SYSTEM>
0

>  <SCORE.SYSTEM.CONST>
0

>  <SCORE.SYSTEM.DIHEDRAL>
0

>  <SCORE.SYSTEM.SOLV>
0

>  <SCORE.SYSTEM.norm>
0

>  <SCORE.heavy>
27

>  <SCORE.norm>
-0.605775

>  <RMSD>
1.752

$$$$
ligand
 OpenBabel11021811463D
libRbt.so/2013.1/901 2013/11/27
 27 28  0  0  0  0  0  0  0  0999 V2000
  -12.7938   37.4622   -1.7345 C   0  0  0  0  0  0  0  0  0  0  0  0
   -5.5516   41.1035   -4.4012 C   0  0  0  0  0  0  0  0  0  0  0  0
   -4.5410   39.9059   -6.9546 C   0  0  0  0  0  0  0  0  0  0  0  0
   -5.1945   40.6119   -8.1441 C   0  0  0  0  0  0  0  0  0  0  0  0
   -4.2421   41.4225   -8.8370 O   0  0  0  0  0  0  0  0  0  0  0  0
   -3.5400   42.6567   -8.0863 P   0  0  1  0  0  0  0  0  0  0  0  0
   -3.4706   44.1820  -10.4580 P   0  0  2  0  0  0  0  0  0  0  0  0
   -7.0653   37.3132   -5.7897 C   0  0  0  0  0  0  0  0  0  0  0  0
  -11.0245   38.2612   -3.2898 N   0  0  0  0  0  0  0  0  0  0  0  0
   -4.6214   43.5562   -7.3190 O   0  5  0  0  0  0  0  0  0  0  0  0
   -3.6588   45.6471  -10.4318 O   0  0  0  0  0  0  0  0  0  0  0  0
   -7.5479   37.8505   -4.6038 C   0  0  0  0  0  0  0  0  0  0  0  0
  -11.4090   38.0429   -2.0227 C   0  0  0  0  0  0  0  0  0  0  0  0
   -2.4554   42.1895   -6.9822 O   0  0  0  0  0  0  0  0  0  0  0  0
   -4.8712   43.4101  -10.5928 O   0  5  0  0  0  0  0  0  0  0  0  0
   -7.0609   39.0793   -4.1559 N   0  0  0  0  0  0  0  0  0  0  0  0
  -10.5880   38.3300   -1.0021 N   0  0  0  0  0  0  0  0  0  0  0  0
   -2.7486   43.5881   -9.1599 O   0  0  0  0  0  0  0  0  0  0  0  0
   -2.6195   43.7392  -11.7321 O   0  0  0  0  0  0  0  0  0  0  0  0
   -6.0861   39.7541   -4.9005 C   0  0  1  0  0  0  0  0  0  0  0  0
   -9.3716   38.8387   -1.2345 C   0  0  0  0  0  0  0  0  0  0  0  0
   -8.5659   39.1175   -0.2149 N   0  0  0  0  0  0  0  0  0  0  0  0
   -5.6026   39.2141   -6.0912 C   0  0  2  0  0  0  0  0  0  0  0  0
   -8.9491   39.0718   -2.5376 C   0  0  0  0  0  0  0  0  0  0  0  0
   -6.1002   37.9912   -6.5244 C   0  0  0  0  0  0  0  0  0  0  0  0
   -9.8320   38.7621   -3.5657 C   0  0  0  0  0  0  0  0  0  0  0  0
   -7.5732   39.6527   -2.8891 C   0  0  0  0  0  0  0  0  0  0  0  0
  1 13  1  0  0  0  0
  3  4  1  0  0  0  0
  4  5  1  0  0  0  0
  6  5  1  6  0  0  0
  6 10  1  0  0  0  0
  6 14  2  0  0  0  0
  6 18  1  0  0  0  0
  7 11  1  1  0  0  0
  7 15  1  0  0  0  0
  7 19  2  0  0  0  0
  7 18  1  0  0  0  0
  8 25  1  0  0  0  0
  8 12  1  0  0  0  0
  9 26  2  0  0  0  0
  9 13  1  0  0  0  0
 12 16  1  0  0  0  0
 13 17  2  0  0  0  0
 16 20  1  0  0  0  0
 16 27  1  0  0  0  0
 17 21  1  0  0  0  0
 20  2  1  6  0  0  0
 20 23  1  0  0  0  0
 21 22  1  0  0  0  0
 21 24  2  0  0  0  0
 23  3  1  1  0  0  0
 23 25  1  0  0  0  0
 24 27  1  0  0  0  0
 24 26  1  0  0  0  0
M  CHG  2  10  -1  15  -1
M  END
>  <CHROM.1>
171.28492700,-62.60653561,-47.70059545,53.59179913,110.94987836,-100.71194370
145.77056368,-22.31119954,-6.15563126,40.82491814,-6.16446775,2.20472931
0.22222589,2.01949032

>  <Name>
ligand

>  <RI>
0

>  <Rbt.Current_Directory>
/home/itssahil/PROJECTS/Mol_Feturizer/New_Systems/rnas/3D2V

>  <Rbt.Executable>
rbdock ($Id: //depot/dev/client3/rdock/2013.1/src/exe/rbdock.cxx#4 $)

>  <Rbt.Library>
libRbt.so (2013.1, Build901 2013/11/27)

>  <Rbt.Parameter_File>
/export/apps/rDock/src/rDock_2013.1_src/data/scripts/dock_solv.prm

>  <Rbt.Receptor>
prm/pocket_docking_2.prm

>  <SCORE>
-14.1801

>  <SCORE.INTER>
-17.9284

>  <SCORE.INTER.CONST>
1

>  <SCORE.INTER.POLAR>
0

>  <SCORE.INTER.ROT>
8

>  <SCORE.INTER.SOLV>
21.2332

>  <SCORE.INTER.VDW>
-27.9634

>  <SCORE.INTER.norm>
-0.664016

>  <SCORE.INTRA>
2.81419

>  <SCORE.INTRA.DIHEDRAL>
0.177925

>  <SCORE.INTRA.DIHEDRAL.0>
7.82666

>  <SCORE.INTRA.POLAR>
0

>  <SCORE.INTRA.POLAR.0>
0

>  <SCORE.INTRA.REPUL>
0

>  <SCORE.INTRA.REPUL.0>
0

>  <SCORE.INTRA.SOLV>
1.70041

>  <SCORE.INTRA.SOLV.lig_0>
-83.2758

>  <SCORE.INTRA.VDW>
1.87502

>  <SCORE.INTRA.VDW.0>
-3.26816

>  <SCORE.INTRA.norm>
0.104229

>  <SCORE.RESTR>
0.934155

>  <SCORE.RESTR.CAVITY>
0.934155

>  <SCORE.RESTR.norm>
0.0345983

>  <SCORE.SYSTEM>
0

>  <SCORE.SYSTEM.CONST>
0

>  <SCORE.SYSTEM.DIHEDRAL>
0

>  <SCORE.SYSTEM.SOLV>
0

>  <SCORE.SYSTEM.norm>
0

>  <SCORE.heavy>
27

>  <SCORE.norm>
-0.525188

>  <RMSD>
1.765

$$$$
ligand
 OpenBabel11021811473D
libRbt.so/2013.1/901 2013/11/27
 27 28  0  0  0  0  0  0  0  0999 V2000
  -12.3720   37.2910   -2.1360 C   0  0  0  0  0  0  0  0  0  0  0  0
   -7.1297   41.1402   -6.0990 C   0  0  0  0  0  0  0  0  0  0  0  0
   -5.2955   39.5021   -7.8101 C   0  0  0  0  0  0  0  0  0  0  0  0
   -4.1707   40.5365   -7.8830 C   0  0  0  0  0  0  0  0  0  0  0  0
   -4.5252   41.7210   -7.1649 O   0  0  0  0  0  0  0  0  0  0  0  0
   -3.5333   42.9844   -7.1591 P   0  0  1  0  0  0  0  0  0  0  0  0
   -2.9659   43.7329   -9.8189 P   0  0  2  0  0  0  0  0  0  0  0  0
   -5.2185   37.6178   -4.5094 C   0  0  0  0  0  0  0  0  0  0  0  0
  -10.7963   38.4011   -3.7083 N   0  0  0  0  0  0  0  0  0  0  0  0
   -3.7387   43.8733   -5.8420 O   0  5  0  0  0  0  0  0  0  0  0  0
   -3.3147   44.6968  -10.8826 O   0  0  0  0  0  0  0  0  0  0  0  0
   -6.0655   38.3623   -3.6991 C   0  0  0  0  0  0  0  0  0  0  0  0
  -11.1027   38.0876   -2.4399 C   0  0  0  0  0  0  0  0  0  0  0  0
   -1.9732   42.5622   -7.1972 O   0  0  0  0  0  0  0  0  0  0  0  0
   -3.1957   42.2183  -10.2973 O   0  5  0  0  0  0  0  0  0  0  0  0
   -6.6873   39.5005   -4.2144 N   0  0  0  0  0  0  0  0  0  0  0  0
  -10.3041   38.4672   -1.4319 N   0  0  0  0  0  0  0  0  0  0  0  0
   -3.8024   43.9133   -8.4673 O   0  0  0  0  0  0  0  0  0  0  0  0
   -1.4177   43.8287   -9.4479 O   0  0  0  0  0  0  0  0  0  0  0  0
   -6.4458   39.8854   -5.5387 C   0  0  1  0  0  0  0  0  0  0  0  0
   -9.1884   39.1649   -1.6783 C   0  0  0  0  0  0  0  0  0  0  0  0
   -8.4037   39.5339   -0.6710 N   0  0  0  0  0  0  0  0  0  0  0  0
   -5.5958   39.1372   -6.3515 C   0  0  1  0  0  0  0  0  0  0  0  0
   -8.8478   39.5000   -2.9830 C   0  0  0  0  0  0  0  0  0  0  0  0
   -4.9870   38.0051   -5.8237 C   0  0  0  0  0  0  0  0  0  0  0  0
   -9.7043   39.0888   -3.9978 C   0  0  0  0  0  0  0  0  0  0  0  0
   -7.5894   40.2974   -3.3501 C   0  0  0  0  0  0  0  0  0  0  0  0
  1 13  1  0  0  0  0
  3  4  1  0  0  0  0
  4  5  1  0  0  0  0
  6  5  1  1  0  0  0
  6 10  1  0  0  0  0
  6 14  2  0  0  0  0
  6 18  1  0  0  0  0
  7 11  1  6  0  0  0
  7 15  1  0  0  0  0
  7 19  2  0  0  0  0
  7 18  1  0  0  0  0
  8 25  1  0  0  0  0
  8 12  1  0  0  0  0
  9 26  2  0  0  0  0
  9 13  1  0  0  0  0
 12 16  1  0  0  0  0
 13 17  2  0  0  0  0
 16 20  1  0  0  0  0
 16 27  1  0  0  0  0
 17 21  1  0  0  0  0
 20  2  1  6  0  0  0
 20 23  1  0  0  0  0
 21 22  1  0  0  0  0
 21 24  2  0  0  0  0
 23  3  1  6  0  0  0
 23 25  1  0  0  0  0
 24 27  1  0  0  0  0
 24 26  1  0  0  0  0
M  CHG  2  10  -1  15  -1
M  END
>  <CHROM.1>
-58.84981940,-176.86468405,-153.69176551,-93.54486737,-177.87692098,84.28054112
118.30501051,-66.42718944,-5.84745044,40.88458657,-5.97400234,2.73457048
-0.79807420,-3.04188624

>  <Name>
ligand

>  <RI>
0

>  <Rbt.Current_Directory>
/home/itssahil/PROJECTS/Mol_Feturizer/New_Systems/rnas/3D2V

>  <Rbt.Executable>
rbdock ($Id: //depot/dev/client3/rdock/2013.1/src/exe/rbdock.cxx#4 $)

>  <Rbt.Library>
libRbt.so (2013.1, Build901 2013/11/27)

>  <Rbt.Parameter_File>
/export/apps/rDock/src/rDock_2013.1_src/data/scripts/dock_solv.prm

>  <Rbt.Receptor>
prm/pocket_docking_7.prm

>  <SCORE>
-18.424

>  <SCORE.INTER>
-19.3601

>  <SCORE.INTER.CONST>
1

>  <SCORE.INTER.POLAR>
0

>  <SCORE.INTER.ROT>
8

>  <SCORE.INTER.SOLV>
18.2803

>  <SCORE.INTER.VDW>
-27.9335

>  <SCORE.INTER.norm>
-0.717039

>  <SCORE.INTRA>
0.936048

>  <SCORE.INTRA.DIHEDRAL>
-0.231031

>  <SCORE.INTRA.DIHEDRAL.0>
7.82666

>  <SCORE.INTRA.POLAR>
0

>  <SCORE.INTRA.POLAR.0>
0

>  <SCORE.INTRA.REPUL>
0

>  <SCORE.INTRA.REPUL.0>
0

>  <SCORE.INTRA.SOLV>
2.17699

>  <SCORE.INTRA.SOLV.lig_0>
-83.2758

>  <SCORE.INTRA.VDW>
-0.0369331

>  <SCORE.INTRA.VDW.0>
-3.26816

>  <SCORE.INTRA.norm>
0.0346684

>  <SCORE.RESTR>
0

>  <SCORE.RESTR.CAVITY>
0

>  <SCORE.RESTR.norm>
0

>  <SCORE.SYSTEM>
0

>  <SCORE.SYSTEM.CONST>
0

>  <SCORE.SYSTEM.DIHEDRAL>
0

>  <SCORE.SYSTEM.SOLV>
0

>  <SCORE.SYSTEM.norm>
0

>  <SCORE.heavy>
27

>  <SCORE.norm>
-0.682371

>  <RMSD>
1.769

$$$$
ligand
 OpenBabel11021811473D
libRbt.so/2013.1/901 2013/11/27
 27 28  0  0  0  0  0  0  0  0999 V2000
  -13.0191   37.6321   -1.7171 C   0  0  0  0  0  0  0  0  0  0  0  0
   -7.5175   41.9296   -4.3627 C   0  0  0  0  0  0  0  0  0  0  0  0
   -7.4064   42.2509   -7.3392 C   0  0  0  0  0  0  0  0  0  0  0  0
   -6.9210   42.1126   -8.7835 C   0  0  0  0  0  0  0  0  0  0  0  0
   -5.5393   42.4650   -8.8888 O   0  0  0  0  0  0  0  0  0  0  0  0
   -4.4094   41.4538   -8.3591 P   0  0  1  0  0  0  0  0  0  0  0  0
   -2.5577   42.7571  -10.0410 P   0  0  2  0  0  0  0  0  0  0  0  0
   -7.6056   38.4756   -6.9412 C   0  0  0  0  0  0  0  0  0  0  0  0
  -11.1870   37.9163   -3.3754 N   0  0  0  0  0  0  0  0  0  0  0  0
   -4.5630   41.1894   -6.7863 O   0  5  0  0  0  0  0  0  0  0  0  0
   -2.7938   41.9040  -11.2238 O   0  0  0  0  0  0  0  0  0  0  0  0
   -7.6588   38.3040   -5.5642 C   0  0  0  0  0  0  0  0  0  0  0  0
  -11.6054   38.0633   -2.1088 C   0  0  0  0  0  0  0  0  0  0  0  0
   -4.4665   40.0088   -9.0818 O   0  0  0  0  0  0  0  0  0  0  0  0
   -1.0193   43.2012   -9.9320 O   0  5  0  0  0  0  0  0  0  0  0  0
   -7.6341   39.4221   -4.7293 N   0  0  0  0  0  0  0  0  0  0  0  0
  -10.7933   38.5865   -1.1789 N   0  0  0  0  0  0  0  0  0  0  0  0
   -2.9302   42.0667   -8.6469 O   0  0  0  0  0  0  0  0  0  0  0  0
   -3.3840   44.1174  -10.1450 O   0  0  0  0  0  0  0  0  0  0  0  0
   -7.5479   40.7038   -5.2860 C   0  0  1  0  0  0  0  0  0  0  0  0
   -9.5520   38.9696   -1.5026 C   0  0  0  0  0  0  0  0  0  0  0  0
   -8.7555   39.4851   -0.5719 N   0  0  0  0  0  0  0  0  0  0  0  0
   -7.4951   40.8751   -6.6683 C   0  0  1  0  0  0  0  0  0  0  0  0
   -9.0942   38.8258   -2.8067 C   0  0  0  0  0  0  0  0  0  0  0  0
   -7.5237   39.7515   -7.4854 C   0  0  0  0  0  0  0  0  0  0  0  0
   -9.9690   38.2809   -3.7396 C   0  0  0  0  0  0  0  0  0  0  0  0
   -7.6881   39.2403   -3.2597 C   0  0  0  0  0  0  0  0  0  0  0  0
  1 13  1  0  0  0  0
  3  4  1  0  0  0  0
  4  5  1  0  0  0  0
  6  5  1  6  0  0  0
  6 10  1  0  0  0  0
  6 14  2  0  0  0  0
  6 18  1  0  0  0  0
  7 11  1  6  0  0  0
  7 15  1  0  0  0  0
  7 19  2  0  0  0  0
  7 18  1  0  0  0  0
  8 25  1  0  0  0  0
  8 12  1  0  0  0  0
  9 26  2  0  0  0  0
  9 13  1  0  0  0  0
 12 16  1  0  0  0  0
 13 17  2  0  0  0  0
 16 20  1  0  0  0  0
 16 27  1  0  0  0  0
 17 21  1  0  0  0  0
 20  2  1  6  0  0  0
 20 23  1  0  0  0  0
 21 22  1  0  0  0  0
 21 24  2  0  0  0  0
 23  3  1  6  0  0  0
 23 25  1  0  0  0  0
 24 27  1  0  0  0  0
 24 26  1  0  0  0  0
M  CHG  2  10  -1  15  -1
M  END
>  <CHROM.1>
-102.21805820,75.09627219,-61.46136846,-43.60332066,-55.46955723,161.90999007
-160.06093188,-73.25281038,-6.59011745,40.62465066,-6.36777972,2.45676467
0.56583011,1.48199341

>  <Name>
ligand

>  <RI>
0

>  <Rbt.Current_Directory>
/home/itssahil/PROJECTS/Mol_Feturizer/New_Systems/rnas/3D2V

>  <Rbt.Executable>
rbdock ($Id: //depot/dev/client3/rdock/2013.1/src/exe/rbdock.cxx#4 $)

>  <Rbt.Library>
libRbt.so (2013.1, Build901 2013/11/27)

>  <Rbt.Parameter_File>
/export/apps/rDock/src/rDock_2013.1_src/data/scripts/dock_solv.prm

>  <Rbt.Receptor>
prm/pocket_docking_3.prm

>  <SCORE>
-15.761

>  <SCORE.INTER>
-18.4294

>  <SCORE.INTER.CONST>
1

>  <SCORE.INTER.POLAR>
0

>  <SCORE.INTER.ROT>
8

>  <SCORE.INTER.SOLV>
23.6651

>  <SCORE.INTER.VDW>
-29.108

>  <SCORE.INTER.norm>
-0.682571

>  <SCORE.INTRA>
2.66335

>  <SCORE.INTRA.DIHEDRAL>
3.31811

>  <SCORE.INTRA.DIHEDRAL.0>
7.82666

>  <SCORE.INTRA.POLAR>
0

>  <SCORE.INTRA.POLAR.0>
0

>  <SCORE.INTRA.REPUL>
0

>  <SCORE.INTRA.REPUL.0>
0

>  <SCORE.INTRA.SOLV>
0.845435

>  <SCORE.INTRA.SOLV.lig_0>
-83.2758

>  <SCORE.INTRA.VDW>
0.581582

>  <SCORE.INTRA.VDW.0>
-3.26816

>  <SCORE.INTRA.norm>
0.0986427

>  <SCORE.RESTR>
0.00504373

>  <SCORE.RESTR.CAVITY>
0.00504373

>  <SCORE.RESTR.norm>
0.000186805

>  <SCORE.SYSTEM>
0

>  <SCORE.SYSTEM.CONST>
0

>  <SCORE.SYSTEM.DIHEDRAL>
0

>  <SCORE.SYSTEM.SOLV>
0

>  <SCORE.SYSTEM.norm>
0

>  <SCORE.heavy>
27

>  <SCORE.norm>
-0.583742

>  <RMSD>
1.782

$$$$
ligand
 OpenBabel11021811473D
libRbt.so/2013.1/901 2013/11/27
 27 28  0  0  0  0  0  0  0  0999 V2000
  -12.1093   37.5662   -2.0113 C   0  0  0  0  0  0  0  0  0  0  0  0
   -6.6102   41.6092   -4.7352 C   0  0  0  0  0  0  0  0  0  0  0  0
   -5.5181   40.7761   -7.3976 C   0  0  0  0  0  0  0  0  0  0  0  0
   -4.4649   40.2927   -8.3965 C   0  0  0  0  0  0  0  0  0  0  0  0
   -4.2305   41.2812   -9.4026 O   0  0  0  0  0  0  0  0  0  0  0  0
   -3.4730   42.6468   -9.0264 P   0  0  1  0  0  0  0  0  0  0  0  0
   -5.1212   44.4234  -10.4699 P   0  0  2  0  0  0  0  0  0  0  0  0
   -5.2680   37.5634   -5.3808 C   0  0  0  0  0  0  0  0  0  0  0  0
  -10.1313   38.2283   -3.3664 N   0  0  0  0  0  0  0  0  0  0  0  0
   -2.8411   42.5701   -7.5561 O   0  5  0  0  0  0  0  0  0  0  0  0
   -4.1082   44.8082  -11.4740 O   0  0  0  0  0  0  0  0  0  0  0  0
   -5.7714   37.9282   -4.1391 C   0  0  0  0  0  0  0  0  0  0  0  0
  -10.6887   38.1143   -2.1510 C   0  0  0  0  0  0  0  0  0  0  0  0
   -2.2600   42.9947  -10.0369 O   0  0  0  0  0  0  0  0  0  0  0  0
   -6.0849   45.6533  -10.1034 O   0  5  0  0  0  0  0  0  0  0  0  0
   -6.2095   39.2368   -3.9308 N   0  0  0  0  0  0  0  0  0  0  0  0
  -10.0102   38.4774   -1.0530 N   0  0  0  0  0  0  0  0  0  0  0  0
   -4.5111   43.8979   -9.0876 O   0  0  0  0  0  0  0  0  0  0  0  0
   -6.0845   43.2864  -11.0385 O   0  0  0  0  0  0  0  0  0  0  0  0
   -6.1303   40.1704   -4.9711 C   0  0  1  0  0  0  0  0  0  0  0  0
   -8.7653   38.9591   -1.1552 C   0  0  0  0  0  0  0  0  0  0  0  0
   -8.1019   39.3141   -0.0595 N   0  0  0  0  0  0  0  0  0  0  0  0
   -5.6253   39.8032   -6.2173 C   0  0  2  0  0  0  0  0  0  0  0  0
   -8.1649   39.0849   -2.4020 C   0  0  0  0  0  0  0  0  0  0  0  0
   -5.1961   38.4955   -6.4088 C   0  0  0  0  0  0  0  0  0  0  0  0
   -8.9041   38.6989   -3.5142 C   0  0  0  0  0  0  0  0  0  0  0  0
   -6.7445   39.6281   -2.6055 C   0  0  0  0  0  0  0  0  0  0  0  0
  1 13  1  0  0  0  0
  3  4  1  0  0  0  0
  4  5  1  0  0  0  0
  6  5  1  6  0  0  0
  6 10  1  0  0  0  0
  6 14  2  0  0  0  0
  6 18  1  0  0  0  0
  7 11  1  6  0  0  0
  7 15  1  0  0  0  0
  7 19  2  0  0  0  0
  7 18  1  0  0  0  0
  8 25  1  0  0  0  0
  8 12  1  0  0  0  0
  9 26  2  0  0  0  0
  9 13  1  0  0  0  0
 12 16  1  0  0  0  0
 13 17  2  0  0  0  0
 16 20  1  0  0  0  0
 16 27  1  0  0  0  0
 17 21  1  0  0  0  0
 20  2  1  6  0  0  0
 20 23  1  0  0  0  0
 21 22  1  0  0  0  0
 21 24  2  0  0  0  0
 23  3  1  1  0  0  0
 23 25  1  0  0  0  0
 24 27  1  0  0  0  0
 24 26  1  0  0  0  0
M  CHG  2  10  -1  15  -1
M  END
>  <CHROM.1>
-172.14566788,70.22734660,10.43284637,-69.06448413,-56.32649244,157.54704218
161.06542253,-75.77884819,-6.14702590,40.99331920,-6.37906439,2.06998936
-0.32636982,2.32168068

>  <Name>
ligand

>  <RI>
0

>  <Rbt.Current_Directory>
/home/itssahil/PROJECTS/Mol_Feturizer/New_Systems/rnas/3D2V

>  <Rbt.Executable>
rbdock ($Id: //depot/dev/client3/rdock/2013.1/src/exe/rbdock.cxx#4 $)

>  <Rbt.Library>
libRbt.so (2013.1, Build901 2013/11/27)

>  <Rbt.Parameter_File>
/export/apps/rDock/src/rDock_2013.1_src/data/scripts/dock_solv.prm

>  <Rbt.Receptor>
prm/pocket_docking_3.prm

>  <SCORE>
-18.0421

>  <SCORE.INTER>
-19.3225

>  <SCORE.INTER.CONST>
1

>  <SCORE.INTER.POLAR>
0

>  <SCORE.INTER.ROT>
8

>  <SCORE.INTER.SOLV>
19.0979

>  <SCORE.INTER.VDW>
-28.181

>  <SCORE.INTER.norm>
-0.715648

>  <SCORE.INTRA>
1.28036

>  <SCORE.INTRA.DIHEDRAL>
0.469848

>  <SCORE.INTRA.DIHEDRAL.0>
7.82666

>  <SCORE.INTRA.POLAR>
0

>  <SCORE.INTRA.POLAR.0>
0

>  <SCORE.INTRA.REPUL>
0

>  <SCORE.INTRA.REPUL.0>
0

>  <SCORE.INTRA.SOLV>
-0.86696

>  <SCORE.INTRA.SOLV.lig_0>
-83.2758

>  <SCORE.INTRA.VDW>
1.47892

>  <SCORE.INTRA.VDW.0>
-3.26816

>  <SCORE.INTRA.norm>
0.0474207

>  <SCORE.RESTR>
0

>  <SCORE.RESTR.CAVITY>
0

>  <SCORE.RESTR.norm>
0

>  <SCORE.SYSTEM>
0

>  <SCORE.SYSTEM.CONST>
0

>  <SCORE.SYSTEM.DIHEDRAL>
0

>  <SCORE.SYSTEM.SOLV>
0

>  <SCORE.SYSTEM.norm>
0

>  <SCORE.heavy>
27

>  <SCORE.norm>
-0.668228

>  <RMSD>
1.783

$$$$
ligand
 OpenBabel11021811463D
libRbt.so/2013.1/901 2013/11/27
 27 28  0  0  0  0  0  0  0  0999 V2000
  -12.3218   37.5634   -2.2312 C   0  0  0  0  0  0  0  0  0  0  0  0
   -5.8663   41.5507   -4.1479 C   0  0  0  0  0  0  0  0  0  0  0  0
   -4.5117   40.6226   -6.6537 C   0  0  0  0  0  0  0  0  0  0  0  0
   -4.8933   40.1916   -8.0712 C   0  0  0  0  0  0  0  0  0  0  0  0
   -4.3969   41.1243   -9.0345 O   0  0  0  0  0  0  0  0  0  0  0  0
   -4.9930   42.6147   -9.0914 P   0  0  1  0  0  0  0  0  0  0  0  0
   -2.7326   44.2611   -8.7223 P   0  0  2  0  0  0  0  0  0  0  0  0
   -5.4562   37.3411   -4.9832 C   0  0  0  0  0  0  0  0  0  0  0  0
  -10.2495   38.2975   -3.3948 N   0  0  0  0  0  0  0  0  0  0  0  0
   -5.0187   43.1690  -10.5945 O   0  5  0  0  0  0  0  0  0  0  0  0
   -1.8415   43.3095   -9.4172 O   0  0  0  0  0  0  0  0  0  0  0  0
   -6.0881   37.7495   -3.8161 C   0  0  0  0  0  0  0  0  0  0  0  0
  -10.8862   38.0898   -2.2319 C   0  0  0  0  0  0  0  0  0  0  0  0
   -6.5075   42.7104   -8.5340 O   0  0  0  0  0  0  0  0  0  0  0  0
   -2.0082   44.9300   -7.4560 O   0  5  0  0  0  0  0  0  0  0  0  0
   -6.2244   39.1121   -3.5471 N   0  0  0  0  0  0  0  0  0  0  0  0
  -10.2741   38.3400   -1.0654 N   0  0  0  0  0  0  0  0  0  0  0  0
   -4.0906   43.6138   -8.1782 O   0  0  0  0  0  0  0  0  0  0  0  0
   -3.1233   45.4776   -9.6770 O   0  0  0  0  0  0  0  0  0  0  0  0
   -5.7167   40.0534   -4.4507 C   0  0  1  0  0  0  0  0  0  0  0  0
   -9.0173   38.8009   -1.0457 C   0  0  0  0  0  0  0  0  0  0  0  0
   -8.4204   39.0435    0.1167 N   0  0  0  0  0  0  0  0  0  0  0  0
   -5.0830   39.6425   -5.6223 C   0  0  2  0  0  0  0  0  0  0  0  0
   -8.3356   39.0221   -2.2362 C   0  0  0  0  0  0  0  0  0  0  0  0
   -4.9582   38.2820   -5.8762 C   0  0  0  0  0  0  0  0  0  0  0  0
   -9.0077   38.7517   -3.4226 C   0  0  0  0  0  0  0  0  0  0  0  0
   -6.8962   39.5493   -2.3008 C   0  0  0  0  0  0  0  0  0  0  0  0
  1 13  1  0  0  0  0
  3  4  1  0  0  0  0
  4  5  1  0  0  0  0
  6  5  1  1  0  0  0
  6 10  1  0  0  0  0
  6 14  2  0  0  0  0
  6 18  1  0  0  0  0
  7 11  1  6  0  0  0
  7 15  1  0  0  0  0
  7 19  2  0  0  0  0
  7 18  1  0  0  0  0
  8 25  1  0  0  0  0
  8 12  1  0  0  0  0
  9 26  2  0  0  0  0
  9 13  1  0  0  0  0
 12 16  1  0  0  0  0
 13 17  2  0  0  0  0
 16 20  1  0  0  0  0
 16 27  1  0  0  0  0
 17 21  1  0  0  0  0
 20  2  1  6  0  0  0
 20 23  1  0  0  0  0
 21 22  1  0  0  0  0
 21 24  2  0  0  0  0
 23  3  1  1  0  0  0
 23 25  1  0  0  0  0
 24 27  1  0  0  0  0
 24 26  1  0  0  0  0
M  CHG  2  10  -1  15  -1
M  END
>  <CHROM.1>
178.26558575,-67.25600808,-146.29607004,82.11266964,-45.49283757,-135.23553718
153.68273156,-59.35866622,-5.95061949,40.91128305,-5.86960981,2.19493228
0.32449960,1.99181851

>  <Name>
ligand

>  <RI>
0

>  <Rbt.Current_Directory>
/home/itssahil/PROJECTS/Mol_Feturizer/New_Systems/rnas/3D2V

>  <Rbt.Executable>
rbdock ($Id: //depot/dev/client3/rdock/2013.1/src/exe/rbdock.cxx#4 $)

>  <Rbt.Library>
libRbt.so (2013.1, Build901 2013/11/27)

>  <Rbt.Parameter_File>
/export/apps/rDock/src/rDock_2013.1_src/data/scripts/dock_solv.prm

>  <Rbt.Receptor>
prm/pocket_docking_2.prm

>  <SCORE>
-17.8798

>  <SCORE.INTER>
-18.6961

>  <SCORE.INTER.CONST>
1

>  <SCORE.INTER.POLAR>
0

>  <SCORE.INTER.ROT>
8

>  <SCORE.INTER.SOLV>
17.6065

>  <SCORE.INTER.VDW>
-27.2662

>  <SCORE.INTER.norm>
-0.692447

>  <SCORE.INTRA>
0.232297

>  <SCORE.INTRA.DIHEDRAL>
0.0891625

>  <SCORE.INTRA.DIHEDRAL.0>
7.82666

>  <SCORE.INTRA.POLAR>
0

>  <SCORE.INTRA.POLAR.0>
0

>  <SCORE.INTRA.REPUL>
0

>  <SCORE.INTRA.REPUL.0>
0

>  <SCORE.INTRA.SOLV>
-1.04382

>  <SCORE.INTRA.SOLV.lig_0>
-83.2758

>  <SCORE.INTRA.VDW>
0.709626

>  <SCORE.INTRA.VDW.0>
-3.26816

>  <SCORE.INTRA.norm>
0.00860359

>  <SCORE.RESTR>
0.583999

>  <SCORE.RESTR.CAVITY>
0.583999

>  <SCORE.RESTR.norm>
0.0216296

>  <SCORE.SYSTEM>
0

>  <SCORE.SYSTEM.CONST>
0

>  <SCORE.SYSTEM.DIHEDRAL>
0

>  <SCORE.SYSTEM.SOLV>
0

>  <SCORE.SYSTEM.norm>
0

>  <SCORE.heavy>
27

>  <SCORE.norm>
-0.662214

>  <RMSD>
1.787

$$$$
ligand
 OpenBabel11021811473D
libRbt.so/2013.1/901 2013/11/27
 27 28  0  0  0  0  0  0  0  0999 V2000
  -13.0725   37.6373   -1.5836 C   0  0  0  0  0  0  0  0  0  0  0  0
   -7.6894   41.3623   -5.1554 C   0  0  0  0  0  0  0  0  0  0  0  0
   -7.6957   41.1521   -8.1439 C   0  0  0  0  0  0  0  0  0  0  0  0
   -6.2469   41.4866   -8.5040 C   0  0  0  0  0  0  0  0  0  0  0  0
   -5.4805   41.7494   -7.3260 O   0  0  0  0  0  0  0  0  0  0  0  0
   -4.1664   42.6691   -7.4108 P   0  0  1  0  0  0  0  0  0  0  0  0
   -2.1506   43.2608   -9.2930 P   0  0  2  0  0  0  0  0  0  0  0  0
   -7.8631   37.5071   -7.0774 C   0  0  0  0  0  0  0  0  0  0  0  0
  -11.3358   37.6888   -3.3636 N   0  0  0  0  0  0  0  0  0  0  0  0
   -4.5512   44.2240   -7.4431 O   0  5  0  0  0  0  0  0  0  0  0  0
   -0.9958   43.3865   -8.3802 O   0  0  0  0  0  0  0  0  0  0  0  0
   -7.8618   37.5818   -5.6908 C   0  0  0  0  0  0  0  0  0  0  0  0
  -11.6746   37.9815   -2.0985 C   0  0  0  0  0  0  0  0  0  0  0  0
   -3.1693   42.4623   -6.1551 O   0  0  0  0  0  0  0  0  0  0  0  0
   -2.8261   44.6862   -9.5889 O   0  5  0  0  0  0  0  0  0  0  0  0
   -7.8094   38.8297   -5.0683 N   0  0  0  0  0  0  0  0  0  0  0  0
  -10.7962   38.5753   -1.2776 N   0  0  0  0  0  0  0  0  0  0  0  0
   -3.3173   42.3098   -8.7511 O   0  0  0  0  0  0  0  0  0  0  0  0
   -1.6940   42.7056  -10.7168 O   0  0  0  0  0  0  0  0  0  0  0  0
   -7.7505   39.9926   -5.8456 C   0  0  1  0  0  0  0  0  0  0  0  0
   -9.5675   38.8841   -1.7102 C   0  0  0  0  0  0  0  0  0  0  0  0
   -8.7049   39.4708   -0.8867 N   0  0  0  0  0  0  0  0  0  0  0  0
   -7.7523   39.9167   -7.2375 C   0  0  1  0  0  0  0  0  0  0  0  0
   -9.1915   38.5893   -3.0151 C   0  0  0  0  0  0  0  0  0  0  0  0
   -7.8079   38.6665   -7.8414 C   0  0  0  0  0  0  0  0  0  0  0  0
  -10.1332   37.9756   -3.8331 C   0  0  0  0  0  0  0  0  0  0  0  0
   -7.8053   38.9107   -3.5887 C   0  0  0  0  0  0  0  0  0  0  0  0
  1 13  1  0  0  0  0
  3  4  1  0  0  0  0
  4  5  1  0  0  0  0
  6  5  1  1  0  0  0
  6 10  1  0  0  0  0
  6 14  2  0  0  0  0
  6 18  1  0  0  0  0
  7 11  1  1  0  0  0
  7 15  1  0  0  0  0
  7 19  2  0  0  0  0
  7 18  1  0  0  0  0
  8 25  1  0  0  0  0
  8 12  1  0  0  0  0
  9 26  2  0  0  0  0
  9 13  1  0  0  0  0
 12 16  1  0  0  0  0
 13 17  2  0  0  0  0
 16 20  1  0  0  0  0
 16 27  1  0  0  0  0
 17 21  1  0  0  0  0
 20  2  1  6  0  0  0
 20 23  1  0  0  0  0
 21 22  1  0  0  0  0
 21 24  2  0  0  0  0
 23  3  1  6  0  0  0
 23 25  1  0  0  0  0
 24 27  1  0  0  0  0
 24 26  1  0  0  0  0
M  CHG  2  10  -1  15  -1
M  END
>  <CHROM.1>
-59.60935689,-155.23980971,79.49654450,165.89584545,64.15661729,92.22656446
-164.51723061,-73.36812814,-6.49116629,40.74011165,-6.13673386,-2.72151053
-0.70320610,-1.85919011

>  <Name>
ligand

>  <RI>
0

>  <Rbt.Current_Directory>
/home/itssahil/PROJECTS/Mol_Feturizer/New_Systems/rnas/3D2V

>  <Rbt.Executable>
rbdock ($Id: //depot/dev/client3/rdock/2013.1/src/exe/rbdock.cxx#4 $)

>  <Rbt.Library>
libRbt.so (2013.1, Build901 2013/11/27)

>  <Rbt.Parameter_File>
/export/apps/rDock/src/rDock_2013.1_src/data/scripts/dock_solv.prm

>  <Rbt.Receptor>
prm/pocket_docking_8.prm

>  <SCORE>
-17.2097

>  <SCORE.INTER>
-17.2725

>  <SCORE.INTER.CONST>
1

>  <SCORE.INTER.POLAR>
0

>  <SCORE.INTER.ROT>
8

>  <SCORE.INTER.SOLV>
19.583

>  <SCORE.INTER.VDW>
-26.976

>  <SCORE.INTER.norm>
-0.639722

>  <SCORE.INTRA>
0.0627851

>  <SCORE.INTRA.DIHEDRAL>
0.883655

>  <SCORE.INTRA.DIHEDRAL.0>
7.82666

>  <SCORE.INTRA.POLAR>
0

>  <SCORE.INTRA.POLAR.0>
0

>  <SCORE.INTRA.REPUL>
0

>  <SCORE.INTRA.REPUL.0>
0

>  <SCORE.INTRA.SOLV>
-0.607334

>  <SCORE.INTRA.SOLV.lig_0>
-83.2758

>  <SCORE.INTRA.VDW>
-0.0753754

>  <SCORE.INTRA.VDW.0>
-3.26816

>  <SCORE.INTRA.norm>
0.00232537

>  <SCORE.RESTR>
0

>  <SCORE.RESTR.CAVITY>
0

>  <SCORE.RESTR.norm>
0

>  <SCORE.SYSTEM>
0

>  <SCORE.SYSTEM.CONST>
0

>  <SCORE.SYSTEM.DIHEDRAL>
0

>  <SCORE.SYSTEM.SOLV>
0

>  <SCORE.SYSTEM.norm>
0

>  <SCORE.heavy>
27

>  <SCORE.norm>
-0.637397

>  <RMSD>
1.787

$$$$
ligand
 OpenBabel11021811463D
libRbt.so/2013.1/901 2013/11/27
 27 28  0  0  0  0  0  0  0  0999 V2000
  -12.4931   37.6970   -1.5765 C   0  0  0  0  0  0  0  0  0  0  0  0
   -8.2290   41.5471   -4.2483 C   0  0  0  0  0  0  0  0  0  0  0  0
   -7.5625   41.6271   -7.1680 C   0  0  0  0  0  0  0  0  0  0  0  0
   -6.7591   41.6755   -8.4691 C   0  0  0  0  0  0  0  0  0  0  0  0
   -5.4358   42.1606   -8.2289 O   0  0  0  0  0  0  0  0  0  0  0  0
   -4.3904   42.2785   -9.4428 P   0  0  1  0  0  0  0  0  0  0  0  0
   -2.9877   44.6281   -8.7586 P   0  0  2  0  0  0  0  0  0  0  0  0
   -5.6205   38.5830   -5.9793 C   0  0  0  0  0  0  0  0  0  0  0  0
  -10.3311   38.7254   -0.9018 N   0  0  0  0  0  0  0  0  0  0  0  0
   -3.9915   40.8316  -10.0034 O   0  5  0  0  0  0  0  0  0  0  0  0
   -3.5137   45.3948   -9.9067 O   0  0  0  0  0  0  0  0  0  0  0  0
   -5.9168   38.5269   -4.6238 C   0  0  0  0  0  0  0  0  0  0  0  0
  -11.0617   38.1486   -1.8684 C   0  0  0  0  0  0  0  0  0  0  0  0
   -4.9704   43.1196  -10.6957 O   0  0  0  0  0  0  0  0  0  0  0  0
   -1.4562   44.9988   -8.4542 O   0  5  0  0  0  0  0  0  0  0  0  0
   -6.7642   39.4840   -4.0638 N   0  0  0  0  0  0  0  0  0  0  0  0
  -10.5476   37.9632   -3.0929 N   0  0  0  0  0  0  0  0  0  0  0  0
   -3.0411   43.0405   -8.9475 O   0  0  0  0  0  0  0  0  0  0  0  0
   -3.7826   44.9849   -7.4226 O   0  0  0  0  0  0  0  0  0  0  0  0
   -7.3005   40.4950   -4.8704 C   0  0  1  0  0  0  0  0  0  0  0  0
   -9.2964   38.3522   -3.3676 C   0  0  0  0  0  0  0  0  0  0  0  0
   -8.7984   38.1649   -4.5855 N   0  0  0  0  0  0  0  0  0  0  0  0
   -7.0028   40.5501   -6.2310 C   0  0  1  0  0  0  0  0  0  0  0  0
   -8.5201   38.9540   -2.3847 C   0  0  0  0  0  0  0  0  0  0  0  0
   -6.1598   39.5878   -6.7732 C   0  0  0  0  0  0  0  0  0  0  0  0
   -9.0910   39.1253   -1.1288 C   0  0  0  0  0  0  0  0  0  0  0  0
   -7.0792   39.4269   -2.6170 C   0  0  0  0  0  0  0  0  0  0  0  0
  1 13  1  0  0  0  0
  3  4  1  0  0  0  0
  4  5  1  0  0  0  0
  6  5  1  1  0  0  0
  6 10  1  0  0  0  0
  6 14  2  0  0  0  0
  6 18  1  0  0  0  0
  7 11  1  6  0  0  0
  7 15  1  0  0  0  0
  7 19  2  0  0  0  0
  7 18  1  0  0  0  0
  8 25  1  0  0  0  0
  8 12  1  0  0  0  0
  9 26  2  0  0  0  0
  9 13  1  0  0  0  0
 12 16  1  0  0  0  0
 13 17  2  0  0  0  0
 16 20  1  0  0  0  0
 16 27  1  0  0  0  0
 17 21  1  0  0  0  0
 20  2  1  6  0  0  0
 20 23  1  0  0  0  0
 21 22  1  0  0  0  0
 21 24  2  0  0  0  0
 23  3  1  6  0  0  0
 23 25  1  0  0  0  0
 24 27  1  0  0  0  0
 24 26  1  0  0  0  0
M  CHG  2  10  -1  15  -1
M  END
>  <CHROM.1>
-68.14385568,178.97428955,-67.05093039,-77.20419553,-49.14093927,163.49392099
14.69942006,-107.35523874,-6.36277422,41.12575569,-6.21652155,2.76907821
0.88701240,1.12830660

>  <Name>
ligand

>  <RI>
0

>  <Rbt.Current_Directory>
/home/itssahil/PROJECTS/Mol_Feturizer/New_Systems/rnas/3D2V

>  <Rbt.Executable>
rbdock ($Id: //depot/dev/client3/rdock/2013.1/src/exe/rbdock.cxx#4 $)

>  <Rbt.Library>
libRbt.so (2013.1, Build901 2013/11/27)

>  <Rbt.Parameter_File>
/export/apps/rDock/src/rDock_2013.1_src/data/scripts/dock_solv.prm

>  <Rbt.Receptor>
prm/pocket_docking_2.prm

>  <SCORE>
-12.7041

>  <SCORE.INTER>
-15.3614

>  <SCORE.INTER.CONST>
1

>  <SCORE.INTER.POLAR>
0

>  <SCORE.INTER.ROT>
8

>  <SCORE.INTER.SOLV>
12.9605

>  <SCORE.INTER.VDW>
-23.4944

>  <SCORE.INTER.norm>
-0.568941

>  <SCORE.INTRA>
2.56168

>  <SCORE.INTRA.DIHEDRAL>
-1.67937

>  <SCORE.INTRA.DIHEDRAL.0>
7.82666

>  <SCORE.INTRA.POLAR>
0

>  <SCORE.INTRA.POLAR.0>
0

>  <SCORE.INTRA.REPUL>
0

>  <SCORE.INTRA.REPUL.0>
0

>  <SCORE.INTRA.SOLV>
3.41988

>  <SCORE.INTRA.SOLV.lig_0>
-83.2758

>  <SCORE.INTRA.VDW>
1.69142

>  <SCORE.INTRA.VDW.0>
-3.26816

>  <SCORE.INTRA.norm>
0.094877

>  <SCORE.RESTR>
0.0956698

>  <SCORE.RESTR.CAVITY>
0.0956698

>  <SCORE.RESTR.norm>
0.00354332

>  <SCORE.SYSTEM>
0

>  <SCORE.SYSTEM.CONST>
0

>  <SCORE.SYSTEM.DIHEDRAL>
0

>  <SCORE.SYSTEM.SOLV>
0

>  <SCORE.SYSTEM.norm>
0

>  <SCORE.heavy>
27

>  <SCORE.norm>
-0.470521

>  <RMSD>
1.790

$$$$
ligand
 OpenBabel11021811473D
libRbt.so/2013.1/901 2013/11/27
 27 28  0  0  0  0  0  0  0  0999 V2000
  -11.9017   37.6816   -1.9373 C   0  0  0  0  0  0  0  0  0  0  0  0
   -6.3415   42.5913   -3.1614 C   0  0  0  0  0  0  0  0  0  0  0  0
   -5.3027   42.7199   -5.9685 C   0  0  0  0  0  0  0  0  0  0  0  0
   -4.5345   42.5044   -7.2739 C   0  0  0  0  0  0  0  0  0  0  0  0
   -5.3364   41.7954   -8.2217 O   0  0  0  0  0  0  0  0  0  0  0  0
   -4.8765   41.7090   -9.7583 P   0  0  1  0  0  0  0  0  0  0  0  0
   -5.0064   44.3389  -10.7697 P   0  0  2  0  0  0  0  0  0  0  0  0
   -5.2576   38.9852   -5.2607 C   0  0  0  0  0  0  0  0  0  0  0  0
   -9.8976   38.6420   -3.0547 N   0  0  0  0  0  0  0  0  0  0  0  0
   -3.2907   41.8902   -9.8972 O   0  5  0  0  0  0  0  0  0  0  0  0
   -3.9787   44.4737  -11.8225 O   0  0  0  0  0  0  0  0  0  0  0  0
   -5.7376   38.9028   -3.9604 C   0  0  0  0  0  0  0  0  0  0  0  0
  -10.4992   38.2899   -1.9079 C   0  0  0  0  0  0  0  0  0  0  0  0
   -5.2457   40.2947  -10.4490 O   0  0  0  0  0  0  0  0  0  0  0  0
   -4.4258   44.7299   -9.3255 O   0  5  0  0  0  0  0  0  0  0  0  0
   -6.0922   40.0696   -3.2818 N   0  0  0  0  0  0  0  0  0  0  0  0
   -9.8807   38.4666   -0.7314 N   0  0  0  0  0  0  0  0  0  0  0  0
   -5.6160   42.8666  -10.6299 O   0  0  0  0  0  0  0  0  0  0  0  0
   -6.2185   45.3439  -11.0242 O   0  0  0  0  0  0  0  0  0  0  0  0
   -5.9534   41.3111   -3.9139 C   0  0  1  0  0  0  0  0  0  0  0  0
   -8.6525   38.9974   -0.6855 C   0  0  0  0  0  0  0  0  0  0  0  0
   -8.0487   39.1660    0.4865 N   0  0  0  0  0  0  0  0  0  0  0  0
   -5.4719   41.3927   -5.2195 C   0  0  2  0  0  0  0  0  0  0  0  0
   -8.0072   39.3681   -1.8590 C   0  0  0  0  0  0  0  0  0  0  0  0
   -5.1262   40.2212   -5.8819 C   0  0  0  0  0  0  0  0  0  0  0  0
   -8.6848   39.1696   -3.0564 C   0  0  0  0  0  0  0  0  0  0  0  0
   -6.6021   39.9833   -1.8931 C   0  0  0  0  0  0  0  0  0  0  0  0
  1 13  1  0  0  0  0
  3  4  1  0  0  0  0
  4  5  1  0  0  0  0
  6  5  1  1  0  0  0
  6 10  1  0  0  0  0
  6 14  2  0  0  0  0
  6 18  1  0  0  0  0
  7 11  1  6  0  0  0
  7 15  1  0  0  0  0
  7 19  2  0  0  0  0
  7 18  1  0  0  0  0
  8 25  1  0  0  0  0
  8 12  1  0  0  0  0
  9 26  2  0  0  0  0
  9 13  1  0  0  0  0
 12 16  1  0  0  0  0
 13 17  2  0  0  0  0
 16 20  1  0  0  0  0
 16 27  1  0  0  0  0
 17 21  1  0  0  0  0
 20  2  1  6  0  0  0
 20 23  1  0  0  0  0
 21 22  1  0  0  0  0
 21 24  2  0  0  0  0
 23  3  1  1  0  0  0
 23 25  1  0  0  0  0
 24 27  1  0  0  0  0
 24 26  1  0  0  0  0
M  CHG  2  10  -1  15  -1
M  END
>  <CHROM.1>
70.58389974,167.46946682,24.66743649,87.21783248,83.55160536,170.17267350
170.80192858,-70.59787890,-6.32156513,41.25589728,-6.19218858,2.02766869
0.52322335,1.80370036

>  <Name>
ligand

>  <RI>
0

>  <Rbt.Current_Directory>
/home/itssahil/PROJECTS/Mol_Feturizer/New_Systems/rnas/3D2V

>  <Rbt.Executable>
rbdock ($Id: //depot/dev/client3/rdock/2013.1/src/exe/rbdock.cxx#4 $)

>  <Rbt.Library>
libRbt.so (2013.1, Build901 2013/11/27)

>  <Rbt.Parameter_File>
/export/apps/rDock/src/rDock_2013.1_src/data/scripts/dock_solv.prm

>  <Rbt.Receptor>
prm/pocket_docking_3.prm

>  <SCORE>
-12.279

>  <SCORE.INTER>
-14.9547

>  <SCORE.INTER.CONST>
1

>  <SCORE.INTER.POLAR>
0

>  <SCORE.INTER.ROT>
8

>  <SCORE.INTER.SOLV>
21.7394

>  <SCORE.INTER.VDW>
-26.1496

>  <SCORE.INTER.norm>
-0.553879

>  <SCORE.INTRA>
2.67573

>  <SCORE.INTRA.DIHEDRAL>
1.9007

>  <SCORE.INTRA.DIHEDRAL.0>
7.82666

>  <SCORE.INTRA.POLAR>
0

>  <SCORE.INTRA.POLAR.0>
0

>  <SCORE.INTRA.REPUL>
0

>  <SCORE.INTRA.REPUL.0>
0

>  <SCORE.INTRA.SOLV>
-0.0567034

>  <SCORE.INTRA.SOLV.lig_0>
-83.2758

>  <SCORE.INTRA.VDW>
1.75373

>  <SCORE.INTRA.VDW.0>
-3.26816

>  <SCORE.INTRA.norm>
0.0991011

>  <SCORE.RESTR>
0

>  <SCORE.RESTR.CAVITY>
0

>  <SCORE.RESTR.norm>
0

>  <SCORE.SYSTEM>
0

>  <SCORE.SYSTEM.CONST>
0

>  <SCORE.SYSTEM.DIHEDRAL>
0

>  <SCORE.SYSTEM.SOLV>
0

>  <SCORE.SYSTEM.norm>
0

>  <SCORE.heavy>
27

>  <SCORE.norm>
-0.454778

>  <RMSD>
1.793

$$$$
ligand
 OpenBabel11021811463D
libRbt.so/2013.1/901 2013/11/27
 27 28  0  0  0  0  0  0  0  0999 V2000
  -11.9075   37.4993   -2.3668 C   0  0  0  0  0  0  0  0  0  0  0  0
   -6.9484   41.6268   -5.7104 C   0  0  0  0  0  0  0  0  0  0  0  0
   -5.7885   40.5714   -8.2630 C   0  0  0  0  0  0  0  0  0  0  0  0
   -4.6028   41.5346   -8.3467 C   0  0  0  0  0  0  0  0  0  0  0  0
   -4.2004   41.7250   -9.7054 O   0  0  0  0  0  0  0  0  0  0  0  0
   -3.5653   43.1264  -10.1665 P   0  0  1  0  0  0  0  0  0  0  0  0
   -3.9817   44.9768   -8.0787 P   0  0  2  0  0  0  0  0  0  0  0  0
   -5.0644   37.7505   -5.8198 C   0  0  0  0  0  0  0  0  0  0  0  0
  -10.0868   38.3170   -3.8512 N   0  0  0  0  0  0  0  0  0  0  0  0
   -2.3375   42.9010  -11.1709 O   0  5  0  0  0  0  0  0  0  0  0  0
   -4.9654   45.6786   -8.9286 O   0  0  0  0  0  0  0  0  0  0  0  0
   -5.5961   38.2202   -4.6261 C   0  0  0  0  0  0  0  0  0  0  0  0
  -10.5473   38.1574   -2.6009 C   0  0  0  0  0  0  0  0  0  0  0  0
   -4.6245   44.0779  -10.9323 O   0  0  0  0  0  0  0  0  0  0  0  0
   -3.0076   46.0089   -7.3292 O   0  5  0  0  0  0  0  0  0  0  0  0
   -6.2094   39.4734   -4.5911 N   0  0  0  0  0  0  0  0  0  0  0  0
   -9.8243   38.5708   -1.5500 N   0  0  0  0  0  0  0  0  0  0  0  0
   -3.0382   43.9558   -8.8700 O   0  0  0  0  0  0  0  0  0  0  0  0
   -4.7102   44.1631   -6.9164 O   0  0  0  0  0  0  0  0  0  0  0  0
   -6.2759   40.2477   -5.7556 C   0  0  1  0  0  0  0  0  0  0  0  0
   -8.6310   39.1489   -1.7350 C   0  0  0  0  0  0  0  0  0  0  0  0
   -7.9225   39.5528   -0.6855 N   0  0  0  0  0  0  0  0  0  0  0  0
   -5.7422   39.7752   -6.9535 C   0  0  1  0  0  0  0  0  0  0  0  0
   -8.1308   39.3236   -3.0196 C   0  0  0  0  0  0  0  0  0  0  0  0
   -5.1377   38.5242   -6.9717 C   0  0  0  0  0  0  0  0  0  0  0  0
   -8.9135   38.8827   -4.0805 C   0  0  0  0  0  0  0  0  0  0  0  0
   -6.7750   39.9770   -3.3174 C   0  0  0  0  0  0  0  0  0  0  0  0
  1 13  1  0  0  0  0
  3  4  1  0  0  0  0
  4  5  1  0  0  0  0
  6  5  1  1  0  0  0
  6 10  1  0  0  0  0
  6 14  2  0  0  0  0
  6 18  1  0  0  0  0
  7 11  1  6  0  0  0
  7 15  1  0  0  0  0
  7 19  2  0  0  0  0
  7 18  1  0  0  0  0
  8 25  1  0  0  0  0
  8 12  1  0  0  0  0
  9 26  2  0  0  0  0
  9 13  1  0  0  0  0
 12 16  1  0  0  0  0
 13 17  2  0  0  0  0
 16 20  1  0  0  0  0
 16 27  1  0  0  0  0
 17 21  1  0  0  0  0
 20  2  1  6  0  0  0
 20 23  1  0  0  0  0
 21 22  1  0  0  0  0
 21 24  2  0  0  0  0
 23  3  1  6  0  0  0
 23 25  1  0  0  0  0
 24 27  1  0  0  0  0
 24 26  1  0  0  0  0
M  CHG  2  10  -1  15  -1
M  END
>  <CHROM.1>
148.67399136,149.03520546,139.30450063,-89.98317551,-32.92865882,85.52700831
152.58401406,-78.12846593,-5.93379932,41.33159403,-6.42694790,2.84468929
-0.98031896,-2.80952789

>  <Name>
ligand

>  <RI>
0

>  <Rbt.Current_Directory>
/home/itssahil/PROJECTS/Mol_Feturizer/New_Systems/rnas/3D2V

>  <Rbt.Executable>
rbdock ($Id: //depot/dev/client3/rdock/2013.1/src/exe/rbdock.cxx#4 $)

>  <Rbt.Library>
libRbt.so (2013.1, Build901 2013/11/27)

>  <Rbt.Parameter_File>
/export/apps/rDock/src/rDock_2013.1_src/data/scripts/dock_solv.prm

>  <Rbt.Receptor>
prm/pocket_docking_2.prm

>  <SCORE>
-9.03411

>  <SCORE.INTER>
-13.8139

>  <SCORE.INTER.CONST>
1

>  <SCORE.INTER.POLAR>
0

>  <SCORE.INTER.ROT>
8

>  <SCORE.INTER.SOLV>
12.017

>  <SCORE.INTER.VDW>
-22.1483

>  <SCORE.INTER.norm>
-0.511626

>  <SCORE.INTRA>
3.99461

>  <SCORE.INTRA.DIHEDRAL>
8.119

>  <SCORE.INTRA.DIHEDRAL.0>
7.82666

>  <SCORE.INTRA.POLAR>
0

>  <SCORE.INTRA.POLAR.0>
0

>  <SCORE.INTRA.REPUL>
0

>  <SCORE.INTRA.REPUL.0>
0

>  <SCORE.INTRA.SOLV>
-0.27414

>  <SCORE.INTRA.SOLV.lig_0>
-83.2758

>  <SCORE.INTRA.VDW>
0.072176

>  <SCORE.INTRA.VDW.0>
-3.26816

>  <SCORE.INTRA.norm>
0.147948

>  <SCORE.RESTR>
0.785182

>  <SCORE.RESTR.CAVITY>
0.785182

>  <SCORE.RESTR.norm>
0.0290808

>  <SCORE.SYSTEM>
0

>  <SCORE.SYSTEM.CONST>
0

>  <SCORE.SYSTEM.DIHEDRAL>
0

>  <SCORE.SYSTEM.SOLV>
0

>  <SCORE.SYSTEM.norm>
0

>  <SCORE.heavy>
27

>  <SCORE.norm>
-0.334597

>  <RMSD>
1.804

$$$$
ligand
 OpenBabel11021811473D
libRbt.so/2013.1/901 2013/11/27
 27 28  0  0  0  0  0  0  0  0999 V2000
  -12.3389   37.3131   -2.0277 C   0  0  0  0  0  0  0  0  0  0  0  0
   -7.2563   40.8627   -6.3063 C   0  0  0  0  0  0  0  0  0  0  0  0
   -5.4669   39.1334   -7.9745 C   0  0  0  0  0  0  0  0  0  0  0  0
   -4.6350   40.4004   -8.1829 C   0  0  0  0  0  0  0  0  0  0  0  0
   -4.5064   40.6979   -9.5754 O   0  0  0  0  0  0  0  0  0  0  0  0
   -3.9194   42.1181  -10.0429 P   0  0  1  0  0  0  0  0  0  0  0  0
   -4.7194   44.8228  -10.0670 P   0  0  2  0  0  0  0  0  0  0  0  0
   -5.1899   37.5129   -4.5469 C   0  0  0  0  0  0  0  0  0  0  0  0
  -10.7787   38.3175   -3.6843 N   0  0  0  0  0  0  0  0  0  0  0  0
   -2.4583   42.3671   -9.4345 O   0  5  0  0  0  0  0  0  0  0  0  0
   -3.3158   45.2817  -10.1132 O   0  0  0  0  0  0  0  0  0  0  0  0
   -6.0151   38.3011   -3.7556 C   0  0  0  0  0  0  0  0  0  0  0  0
  -11.0720   38.0863   -2.3953 C   0  0  0  0  0  0  0  0  0  0  0  0
   -3.7832   42.2471  -11.6486 O   0  0  0  0  0  0  0  0  0  0  0  0
   -5.6093   45.7442   -9.1001 O   0  5  0  0  0  0  0  0  0  0  0  0
   -6.6871   39.3833   -4.3256 N   0  0  0  0  0  0  0  0  0  0  0  0
  -10.2623   38.5281   -1.4220 N   0  0  0  0  0  0  0  0  0  0  0  0
   -4.9033   43.3184   -9.5553 O   0  0  0  0  0  0  0  0  0  0  0  0
   -5.4031   44.9338  -11.5037 O   0  0  0  0  0  0  0  0  0  0  0  0
   -6.5175   39.6690   -5.6856 C   0  0  1  0  0  0  0  0  0  0  0  0
   -9.1485   39.2065   -1.7242 C   0  0  0  0  0  0  0  0  0  0  0  0
   -8.3527   39.6378   -0.7510 N   0  0  0  0  0  0  0  0  0  0  0  0
   -5.6893   38.8769   -6.4793 C   0  0  1  0  0  0  0  0  0  0  0  0
   -8.8212   39.4569   -3.0513 C   0  0  0  0  0  0  0  0  0  0  0  0
   -5.0299   37.8015   -5.8967 C   0  0  0  0  0  0  0  0  0  0  0  0
   -9.6889   38.9832   -4.0286 C   0  0  0  0  0  0  0  0  0  0  0  0
   -7.5659   40.2268   -3.4818 C   0  0  0  0  0  0  0  0  0  0  0  0
  1 13  1  0  0  0  0
  3  4  1  0  0  0  0
  4  5  1  0  0  0  0
  6  5  1  1  0  0  0
  6 10  1  0  0  0  0
  6 14  2  0  0  0  0
  6 18  1  0  0  0  0
  7 11  1  6  0  0  0
  7 15  1  0  0  0  0
  7 19  2  0  0  0  0
  7 18  1  0  0  0  0
  8 25  1  0  0  0  0
  8 12  1  0  0  0  0
  9 26  2  0  0  0  0
  9 13  1  0  0  0  0
 12 16  1  0  0  0  0
 13 17  2  0  0  0  0
 16 20  1  0  0  0  0
 16 27  1  0  0  0  0
 17 21  1  0  0  0  0
 20  2  1  6  0  0  0
 20 23  1  0  0  0  0
 21 22  1  0  0  0  0
 21 24  2  0  0  0  0
 23  3  1  6  0  0  0
 23 25  1  0  0  0  0
 24 27  1  0  0  0  0
 24 26  1  0  0  0  0
M  CHG  2  10  -1  15  -1
M  END
>  <CHROM.1>
-175.80338722,168.47826553,57.35483698,-169.91183835,-42.31756366,70.53978552
119.45146699,-69.25106622,-6.34253929,40.91255285,-6.70938951,2.24190984
-0.64996121,2.60916188

>  <Name>
ligand

>  <RI>
0

>  <Rbt.Current_Directory>
/home/itssahil/PROJECTS/Mol_Feturizer/New_Systems/rnas/3D2V

>  <Rbt.Executable>
rbdock ($Id: //depot/dev/client3/rdock/2013.1/src/exe/rbdock.cxx#4 $)

>  <Rbt.Library>
libRbt.so (2013.1, Build901 2013/11/27)

>  <Rbt.Parameter_File>
/export/apps/rDock/src/rDock_2013.1_src/data/scripts/dock_solv.prm

>  <Rbt.Receptor>
prm/pocket_docking_3.prm

>  <SCORE>
-21.7218

>  <SCORE.INTER>
-20.4418

>  <SCORE.INTER.CONST>
1

>  <SCORE.INTER.POLAR>
0

>  <SCORE.INTER.ROT>
8

>  <SCORE.INTER.SOLV>
17.8944

>  <SCORE.INTER.VDW>
-28.526

>  <SCORE.INTER.norm>
-0.757104

>  <SCORE.INTRA>
-1.27997

>  <SCORE.INTRA.DIHEDRAL>
-1.27267

>  <SCORE.INTRA.DIHEDRAL.0>
7.82666

>  <SCORE.INTRA.POLAR>
0

>  <SCORE.INTRA.POLAR.0>
0

>  <SCORE.INTRA.REPUL>
0

>  <SCORE.INTRA.REPUL.0>
0

>  <SCORE.INTRA.SOLV>
-1.47292

>  <SCORE.INTRA.SOLV.lig_0>
-83.2758

>  <SCORE.INTRA.VDW>
0.0928186

>  <SCORE.INTRA.VDW.0>
-3.26816

>  <SCORE.INTRA.norm>
-0.0474064

>  <SCORE.RESTR>
0

>  <SCORE.RESTR.CAVITY>
0

>  <SCORE.RESTR.norm>
0

>  <SCORE.SYSTEM>
0

>  <SCORE.SYSTEM.CONST>
0

>  <SCORE.SYSTEM.DIHEDRAL>
0

>  <SCORE.SYSTEM.SOLV>
0

>  <SCORE.SYSTEM.norm>
0

>  <SCORE.heavy>
27

>  <SCORE.norm>
-0.80451

>  <RMSD>
1.806

$$$$
ligand
 OpenBabel11021811473D
libRbt.so/2013.1/901 2013/11/27
 27 28  0  0  0  0  0  0  0  0999 V2000
  -13.7979   37.3977   -1.9584 C   0  0  0  0  0  0  0  0  0  0  0  0
   -8.0466   41.4486   -4.5842 C   0  0  0  0  0  0  0  0  0  0  0  0
   -7.4510   41.1385   -7.5038 C   0  0  0  0  0  0  0  0  0  0  0  0
   -6.1159   41.8347   -7.2329 C   0  0  0  0  0  0  0  0  0  0  0  0
   -5.7324   42.6447   -8.3468 O   0  0  0  0  0  0  0  0  0  0  0  0
   -4.3568   43.4729   -8.3025 P   0  0  1  0  0  0  0  0  0  0  0  0
   -5.0450   44.5371  -10.8225 P   0  0  2  0  0  0  0  0  0  0  0  0
   -7.6514   37.5276   -6.3323 C   0  0  0  0  0  0  0  0  0  0  0  0
  -11.8315   37.7513   -3.4400 N   0  0  0  0  0  0  0  0  0  0  0  0
   -4.4845   44.7532   -7.3478 O   0  5  0  0  0  0  0  0  0  0  0  0
   -4.4862   45.0062  -12.1070 O   0  0  0  0  0  0  0  0  0  0  0  0
   -7.9283   37.6485   -4.9770 C   0  0  0  0  0  0  0  0  0  0  0  0
  -12.3555   37.8392   -2.2077 C   0  0  0  0  0  0  0  0  0  0  0  0
   -3.1130   42.6013   -7.7485 O   0  0  0  0  0  0  0  0  0  0  0  0
   -5.8239   45.7115  -10.0544 O   0  5  0  0  0  0  0  0  0  0  0  0
   -8.0600   38.9176   -4.4115 N   0  0  0  0  0  0  0  0  0  0  0  0
  -11.6242   38.3123   -1.1881 N   0  0  0  0  0  0  0  0  0  0  0  0
   -3.9546   43.9707   -9.7982 O   0  0  0  0  0  0  0  0  0  0  0  0
   -6.1310   43.3927  -11.0571 O   0  0  0  0  0  0  0  0  0  0  0  0
   -7.9042   40.0553   -5.2123 C   0  0  1  0  0  0  0  0  0  0  0  0
  -10.3593   38.7034   -1.3868 C   0  0  0  0  0  0  0  0  0  0  0  0
   -9.6437   39.1689   -0.3681 N   0  0  0  0  0  0  0  0  0  0  0  0
   -7.6267   39.9329   -6.5729 C   0  0  1  0  0  0  0  0  0  0  0  0
   -9.7929   38.6202   -2.6529 C   0  0  0  0  0  0  0  0  0  0  0  0
   -7.5016   38.6620   -7.1207 C   0  0  0  0  0  0  0  0  0  0  0  0
  -10.5864   38.1261   -3.6818 C   0  0  0  0  0  0  0  0  0  0  0  0
   -8.3529   39.0482   -2.9648 C   0  0  0  0  0  0  0  0  0  0  0  0
  1 13  1  0  0  0  0
  3  4  1  0  0  0  0
  4  5  1  0  0  0  0
  6  5  1  6  0  0  0
  6 10  1  0  0  0  0
  6 14  2  0  0  0  0
  6 18  1  0  0  0  0
  7 11  1  6  0  0  0
  7 15  1  0  0  0  0
  7 19  2  0  0  0  0
  7 18  1  0  0  0  0
  8 25  1  0  0  0  0
  8 12  1  0  0  0  0
  9 26  2  0  0  0  0
  9 13  1  0  0  0  0
 12 16  1  0  0  0  0
 13 17  2  0  0  0  0
 16 20  1  0  0  0  0
 16 27  1  0  0  0  0
 17 21  1  0  0  0  0
 20  2  1  6  0  0  0
 20 23  1  0  0  0  0
 21 22  1  0  0  0  0
 21 24  2  0  0  0  0
 23  3  1  6  0  0  0
 23 25  1  0  0  0  0
 24 27  1  0  0  0  0
 24 26  1  0  0  0  0
M  CHG  2  10  -1  15  -1
M  END
>  <CHROM.1>
160.40871198,-179.69924430,-74.70296903,41.09096789,176.97490766,72.91251271
-176.67478295,-71.27963146,-7.37304313,41.14984556,-6.37782744,2.27219530
0.58723056,1.81193008

>  <Name>
ligand

>  <RI>
0

>  <Rbt.Current_Directory>
/home/itssahil/PROJECTS/Mol_Feturizer/New_Systems/rnas/3D2V

>  <Rbt.Executable>
rbdock ($Id: //depot/dev/client3/rdock/2013.1/src/exe/rbdock.cxx#4 $)

>  <Rbt.Library>
libRbt.so (2013.1, Build901 2013/11/27)

>  <Rbt.Parameter_File>
/export/apps/rDock/src/rDock_2013.1_src/data/scripts/dock_solv.prm

>  <Rbt.Receptor>
prm/pocket_docking_3.prm

>  <SCORE>
-16.2221

>  <SCORE.INTER>
-16.3203

>  <SCORE.INTER.CONST>
1

>  <SCORE.INTER.POLAR>
0

>  <SCORE.INTER.ROT>
8

>  <SCORE.INTER.SOLV>
20.2951

>  <SCORE.INTER.VDW>
-26.5786

>  <SCORE.INTER.norm>
-0.604457

>  <SCORE.INTRA>
0.0857138

>  <SCORE.INTRA.DIHEDRAL>
-0.419735

>  <SCORE.INTRA.DIHEDRAL.0>
7.82666

>  <SCORE.INTRA.POLAR>
0

>  <SCORE.INTRA.POLAR.0>
0

>  <SCORE.INTRA.REPUL>
0

>  <SCORE.INTRA.REPUL.0>
0

>  <SCORE.INTRA.SOLV>
-0.0646186

>  <SCORE.INTRA.SOLV.lig_0>
-83.2758

>  <SCORE.INTRA.VDW>
0.327891

>  <SCORE.INTRA.VDW.0>
-3.26816

>  <SCORE.INTRA.norm>
0.00317458

>  <SCORE.RESTR>
0.0124719

>  <SCORE.RESTR.CAVITY>
0.0124719

>  <SCORE.RESTR.norm>
0.000461923

>  <SCORE.SYSTEM>
0

>  <SCORE.SYSTEM.CONST>
0

>  <SCORE.SYSTEM.DIHEDRAL>
0

>  <SCORE.SYSTEM.SOLV>
0

>  <SCORE.SYSTEM.norm>
0

>  <SCORE.heavy>
27

>  <SCORE.norm>
-0.60082

>  <RMSD>
1.861

$$$$
ligand
 OpenBabel11021811473D
libRbt.so/2013.1/901 2013/11/27
 27 28  0  0  0  0  0  0  0  0999 V2000
  -12.3275   37.2265   -2.1212 C   0  0  0  0  0  0  0  0  0  0  0  0
   -6.6076   41.6010   -5.3365 C   0  0  0  0  0  0  0  0  0  0  0  0
   -4.9030   40.1759   -7.3462 C   0  0  0  0  0  0  0  0  0  0  0  0
   -4.0197   41.3841   -7.0286 C   0  0  0  0  0  0  0  0  0  0  0  0
   -3.5912   42.0277   -8.2312 O   0  0  0  0  0  0  0  0  0  0  0  0
   -2.9002   43.4762   -8.1651 P   0  0  1  0  0  0  0  0  0  0  0  0
   -3.6252   43.8770  -10.8614 P   0  0  2  0  0  0  0  0  0  0  0  0
   -5.3916   37.5185   -4.6722 C   0  0  0  0  0  0  0  0  0  0  0  0
  -10.6282   38.3401   -3.5564 N   0  0  0  0  0  0  0  0  0  0  0  0
   -3.8548   44.5384   -7.4386 O   0  5  0  0  0  0  0  0  0  0  0  0
   -3.1224   43.1395  -12.0386 O   0  0  0  0  0  0  0  0  0  0  0  0
   -6.1823   38.1600   -3.7280 C   0  0  0  0  0  0  0  0  0  0  0  0
  -11.0266   38.0052   -2.3194 C   0  0  0  0  0  0  0  0  0  0  0  0
   -1.5034   43.4726   -7.3512 O   0  0  0  0  0  0  0  0  0  0  0  0
   -4.0646   45.3719  -11.2458 O   0  5  0  0  0  0  0  0  0  0  0  0
   -6.5793   39.4803   -3.9444 N   0  0  0  0  0  0  0  0  0  0  0  0
  -10.2928   38.3477   -1.2507 N   0  0  0  0  0  0  0  0  0  0  0  0
   -2.5695   44.0077   -9.6666 O   0  0  0  0  0  0  0  0  0  0  0  0
   -4.9387   43.1878  -10.2752 O   0  0  0  0  0  0  0  0  0  0  0  0
   -6.1709   40.1477   -5.1055 C   0  0  1  0  0  0  0  0  0  0  0  0
   -9.1507   39.0293   -1.4042 C   0  0  0  0  0  0  0  0  0  0  0  0
   -8.4309   39.3615   -0.3375 N   0  0  0  0  0  0  0  0  0  0  0  0
   -5.3776   39.5028   -6.0529 C   0  0  1  0  0  0  0  0  0  0  0  0
   -8.7153   39.3860   -2.6746 C   0  0  0  0  0  0  0  0  0  0  0  0
   -4.9936   38.1872   -5.8234 C   0  0  0  0  0  0  0  0  0  0  0  0
   -9.5070   39.0130   -3.7547 C   0  0  0  0  0  0  0  0  0  0  0  0
   -7.4209   40.1670   -2.9364 C   0  0  0  0  0  0  0  0  0  0  0  0
  1 13  1  0  0  0  0
  3  4  1  0  0  0  0
  4  5  1  0  0  0  0
  6  5  1  6  0  0  0
  6 10  1  0  0  0  0
  6 14  2  0  0  0  0
  6 18  1  0  0  0  0
  7 11  1  6  0  0  0
  7 15  1  0  0  0  0
  7 19  2  0  0  0  0
  7 18  1  0  0  0  0
  8 25  1  0  0  0  0
  8 12  1  0  0  0  0
  9 26  2  0  0  0  0
  9 13  1  0  0  0  0
 12 16  1  0  0  0  0
 13 17  2  0  0  0  0
 16 20  1  0  0  0  0
 16 27  1  0  0  0  0
 17 21  1  0  0  0  0
 20  2  1  6  0  0  0
 20 23  1  0  0  0  0
 21 22  1  0  0  0  0
 21 24  2  0  0  0  0
 23  3  1  6  0  0  0
 23 25  1  0  0  0  0
 24 27  1  0  0  0  0
 24 26  1  0  0  0  0
M  CHG  2  10  -1  15  -1
M  END
>  <CHROM.1>
-179.11029747,167.95171148,-56.84883455,44.32981139,-123.24350107,61.91548544
128.32978778,-56.66666687,-5.84209207,41.09925161,-6.23644808,2.17370749
0.13605219,2.09208198

>  <Name>
ligand

>  <RI>
0

>  <Rbt.Current_Directory>
/home/itssahil/PROJECTS/Mol_Feturizer/New_Systems/rnas/3D2V

>  <Rbt.Executable>
rbdock ($Id: //depot/dev/client3/rdock/2013.1/src/exe/rbdock.cxx#4 $)

>  <Rbt.Library>
libRbt.so (2013.1, Build901 2013/11/27)

>  <Rbt.Parameter_File>
/export/apps/rDock/src/rDock_2013.1_src/data/scripts/dock_solv.prm

>  <Rbt.Receptor>
prm/pocket_docking_2.prm

>  <SCORE>
-16.9975

>  <SCORE.INTER>
-19.5192

>  <SCORE.INTER.CONST>
1

>  <SCORE.INTER.POLAR>
0

>  <SCORE.INTER.ROT>
8

>  <SCORE.INTER.SOLV>
18.1718

>  <SCORE.INTER.VDW>
-28.0034

>  <SCORE.INTER.norm>
-0.722935

>  <SCORE.INTRA>
1.29264

>  <SCORE.INTRA.DIHEDRAL>
0.775583

>  <SCORE.INTRA.DIHEDRAL.0>
7.82666

>  <SCORE.INTRA.POLAR>
0

>  <SCORE.INTRA.POLAR.0>
0

>  <SCORE.INTRA.REPUL>
0

>  <SCORE.INTRA.REPUL.0>
0

>  <SCORE.INTRA.SOLV>
-0.0205223

>  <SCORE.INTRA.SOLV.lig_0>
-83.2758

>  <SCORE.INTRA.VDW>
0.915107

>  <SCORE.INTRA.VDW.0>
-3.26816

>  <SCORE.INTRA.norm>
0.0478755

>  <SCORE.RESTR>
1.22913

>  <SCORE.RESTR.CAVITY>
1.22913

>  <SCORE.RESTR.norm>
0.0455234

>  <SCORE.SYSTEM>
0

>  <SCORE.SYSTEM.CONST>
0

>  <SCORE.SYSTEM.DIHEDRAL>
0

>  <SCORE.SYSTEM.SOLV>
0

>  <SCORE.SYSTEM.norm>
0

>  <SCORE.heavy>
27

>  <SCORE.norm>
-0.629536

>  <RMSD>
1.888

$$$$
ligand
 OpenBabel11021811463D
libRbt.so/2013.1/901 2013/11/27
 27 28  0  0  0  0  0  0  0  0999 V2000
  -13.1374   37.3107   -2.1473 C   0  0  0  0  0  0  0  0  0  0  0  0
   -6.9143   38.0294   -5.1547 C   0  0  0  0  0  0  0  0  0  0  0  0
   -6.7087   39.6860   -7.6424 C   0  0  0  0  0  0  0  0  0  0  0  0
   -5.3447   40.2396   -8.0592 C   0  0  0  0  0  0  0  0  0  0  0  0
   -5.4063   41.6571   -8.2354 O   0  0  0  0  0  0  0  0  0  0  0  0
   -4.0860   42.4738   -8.6476 P   0  0  1  0  0  0  0  0  0  0  0  0
   -3.3371   45.1188   -9.2797 P   0  0  2  0  0  0  0  0  0  0  0  0
   -7.8414   42.2387   -5.0633 C   0  0  0  0  0  0  0  0  0  0  0  0
  -11.1408   37.9587   -3.4818 N   0  0  0  0  0  0  0  0  0  0  0  0
   -2.9282   42.2883   -7.5557 O   0  5  0  0  0  0  0  0  0  0  0  0
   -2.7091   44.7870  -10.5751 O   0  0  0  0  0  0  0  0  0  0  0  0
   -7.9427   41.4896   -3.8985 C   0  0  0  0  0  0  0  0  0  0  0  0
  -11.7108   37.8465   -2.2721 C   0  0  0  0  0  0  0  0  0  0  0  0
   -3.4688   42.0017  -10.0653 O   0  0  0  0  0  0  0  0  0  0  0  0
   -2.2469   45.2283   -8.1070 O   0  5  0  0  0  0  0  0  0  0  0  0
   -7.6390   40.1277   -3.9268 N   0  0  0  0  0  0  0  0  0  0  0  0
  -11.0395   38.2009   -1.1667 N   0  0  0  0  0  0  0  0  0  0  0  0
   -4.4284   44.0581   -8.7867 O   0  0  0  0  0  0  0  0  0  0  0  0
   -4.0414   46.5486   -9.3371 O   0  0  0  0  0  0  0  0  0  0  0  0
   -7.2435   39.5283   -5.1287 C   0  0  1  0  0  0  0  0  0  0  0  0
   -9.7895   38.6718   -1.2558 C   0  0  0  0  0  0  0  0  0  0  0  0
   -9.1335   39.0181   -0.1530 N   0  0  0  0  0  0  0  0  0  0  0  0
   -7.1417   40.2813   -6.2974 C   0  0  1  0  0  0  0  0  0  0  0  0
   -9.1762   38.7953   -2.4966 C   0  0  0  0  0  0  0  0  0  0  0  0
   -7.4448   41.6366   -6.2512 C   0  0  0  0  0  0  0  0  0  0  0  0
   -9.9082   38.4187   -3.6167 C   0  0  0  0  0  0  0  0  0  0  0  0
   -7.7492   39.3265   -2.6852 C   0  0  0  0  0  0  0  0  0  0  0  0
  1 13  1  0  0  0  0
  3  4  1  0  0  0  0
  4  5  1  0  0  0  0
  6  5  1  1  0  0  0
  6 10  1  0  0  0  0
  6 14  2  0  0  0  0
  6 18  1  0  0  0  0
  7 11  1  6  0  0  0
  7 15  1  0  0  0  0
  7 19  2  0  0  0  0
  7 18  1  0  0  0  0
  8 25  1  0  0  0  0
  8 12  1  0  0  0  0
  9 26  2  0  0  0  0
  9 13  1  0  0  0  0
 12 16  1  0  0  0  0
 13 17  2  0  0  0  0
 16 20  1  0  0  0  0
 16 27  1  0  0  0  0
 17 21  1  0  0  0  0
 20  2  1  1  0  0  0
 20 23  1  0  0  0  0
 21 22  1  0  0  0  0
 21 24  2  0  0  0  0
 23  3  1  1  0  0  0
 23 25  1  0  0  0  0
 24 27  1  0  0  0  0
 24 26  1  0  0  0  0
M  CHG  2  10  -1  15  -1
M  END
>  <CHROM.1>
-61.87385435,178.84400147,-59.49297538,-175.94059987,54.38593310,-112.29649780
-144.13411089,86.84130288,-6.57610866,41.22087652,-6.05420373,-3.05699459
0.91472085,0.59128414

>  <Name>
ligand

>  <RI>
0

>  <Rbt.Current_Directory>
/home/itssahil/PROJECTS/Mol_Feturizer/New_Systems/rnas/3D2V

>  <Rbt.Executable>
rbdock ($Id: //depot/dev/client3/rdock/2013.1/src/exe/rbdock.cxx#4 $)

>  <Rbt.Library>
libRbt.so (2013.1, Build901 2013/11/27)

>  <Rbt.Parameter_File>
/export/apps/rDock/src/rDock_2013.1_src/data/scripts/dock_solv.prm

>  <Rbt.Receptor>
prm/pocket_docking_2.prm

>  <SCORE>
-18.7138

>  <SCORE.INTER>
-16.8548

>  <SCORE.INTER.CONST>
1

>  <SCORE.INTER.POLAR>
0

>  <SCORE.INTER.ROT>
8

>  <SCORE.INTER.SOLV>
23.2366

>  <SCORE.INTER.VDW>
-27.9154

>  <SCORE.INTER.norm>
-0.624251

>  <SCORE.INTRA>
-1.87055

>  <SCORE.INTRA.DIHEDRAL>
-2.5482

>  <SCORE.INTRA.DIHEDRAL.0>
7.82666

>  <SCORE.INTRA.POLAR>
0

>  <SCORE.INTRA.POLAR.0>
0

>  <SCORE.INTRA.REPUL>
0

>  <SCORE.INTRA.REPUL.0>
0

>  <SCORE.INTRA.SOLV>
-0.782264

>  <SCORE.INTRA.SOLV.lig_0>
-83.2758

>  <SCORE.INTRA.VDW>
-0.205323

>  <SCORE.INTRA.VDW.0>
-3.26816

>  <SCORE.INTRA.norm>
-0.0692798

>  <SCORE.RESTR>
0.0115446

>  <SCORE.RESTR.CAVITY>
0.0115446

>  <SCORE.RESTR.norm>
0.000427579

>  <SCORE.SYSTEM>
0

>  <SCORE.SYSTEM.CONST>
0

>  <SCORE.SYSTEM.DIHEDRAL>
0

>  <SCORE.SYSTEM.SOLV>
0

>  <SCORE.SYSTEM.norm>
0

>  <SCORE.heavy>
27

>  <SCORE.norm>
-0.693103

>  <RMSD>
1.892

$$$$
ligand
 OpenBabel11021811473D
libRbt.so/2013.1/901 2013/11/27
 27 28  0  0  0  0  0  0  0  0999 V2000
  -12.4851   37.2533   -2.3049 C   0  0  0  0  0  0  0  0  0  0  0  0
   -6.7200   41.2419   -5.4100 C   0  0  0  0  0  0  0  0  0  0  0  0
   -5.0372   39.7616   -7.3980 C   0  0  0  0  0  0  0  0  0  0  0  0
   -3.7927   40.6368   -7.2364 C   0  0  0  0  0  0  0  0  0  0  0  0
   -4.1344   42.0226   -7.3201 O   0  0  0  0  0  0  0  0  0  0  0  0
   -4.3429   42.7136   -8.7550 P   0  0  1  0  0  0  0  0  0  0  0  0
   -2.8834   43.1370  -11.1314 P   0  0  2  0  0  0  0  0  0  0  0  0
   -5.3348   37.2485   -4.5614 C   0  0  0  0  0  0  0  0  0  0  0  0
  -10.6249   38.1901   -3.6649 N   0  0  0  0  0  0  0  0  0  0  0  0
   -5.6517   42.1458   -9.4844 O   0  5  0  0  0  0  0  0  0  0  0  0
   -2.9298   44.6131  -11.0927 O   0  0  0  0  0  0  0  0  0  0  0  0
   -6.1143   37.9163   -3.6262 C   0  0  0  0  0  0  0  0  0  0  0  0
  -11.1372   37.9613   -2.4458 C   0  0  0  0  0  0  0  0  0  0  0  0
   -4.5203   44.3179   -8.6632 O   0  0  0  0  0  0  0  0  0  0  0  0
   -4.0367   42.5354  -12.0714 O   0  5  0  0  0  0  0  0  0  0  0  0
   -6.5660   39.2076   -3.9021 N   0  0  0  0  0  0  0  0  0  0  0  0
  -10.4768   38.3489   -1.3450 N   0  0  0  0  0  0  0  0  0  0  0  0
   -3.0506   42.4358   -9.7033 O   0  0  0  0  0  0  0  0  0  0  0  0
   -1.5119   42.6260  -11.7653 O   0  0  0  0  0  0  0  0  0  0  0  0
   -6.2233   39.8202   -5.1135 C   0  0  1  0  0  0  0  0  0  0  0  0
   -9.2952   38.9699   -1.4482 C   0  0  0  0  0  0  0  0  0  0  0  0
   -8.6490   39.3477   -0.3500 N   0  0  0  0  0  0  0  0  0  0  0  0
   -5.4412   39.1488   -6.0519 C   0  0  1  0  0  0  0  0  0  0  0  0
   -8.7423   39.2164   -2.6990 C   0  0  0  0  0  0  0  0  0  0  0  0
   -5.0021   37.8625   -5.7627 C   0  0  0  0  0  0  0  0  0  0  0  0
   -9.4609   38.8001   -3.8138 C   0  0  0  0  0  0  0  0  0  0  0  0
   -7.3957   39.9225   -2.9038 C   0  0  0  0  0  0  0  0  0  0  0  0
  1 13  1  0  0  0  0
  3  4  1  0  0  0  0
  4  5  1  0  0  0  0
  6  5  1  1  0  0  0
  6 10  1  0  0  0  0
  6 14  2  0  0  0  0
  6 18  1  0  0  0  0
  7 11  1  1  0  0  0
  7 15  1  0  0  0  0
  7 19  2  0  0  0  0
  7 18  1  0  0  0  0
  8 25  1  0  0  0  0
  8 12  1  0  0  0  0
  9 26  2  0  0  0  0
  9 13  1  0  0  0  0
 12 16  1  0  0  0  0
 13 17  2  0  0  0  0
 16 20  1  0  0  0  0
 16 27  1  0  0  0  0
 17 21  1  0  0  0  0
 20  2  1  6  0  0  0
 20 23  1  0  0  0  0
 21 22  1  0  0  0  0
 21 24  2  0  0  0  0
 23  3  1  6  0  0  0
 23 25  1  0  0  0  0
 24 27  1  0  0  0  0
 24 26  1  0  0  0  0
M  CHG  2  10  -1  15  -1
M  END
>  <CHROM.1>
-106.71052935,-80.69747914,68.05239683,-172.71374713,56.39863509,84.02630358
134.47291785,-64.76804494,-6.00639620,40.65502616,-6.47438148,2.20285413
-0.33532210,2.32646566

>  <Name>
ligand

>  <RI>
0

>  <Rbt.Current_Directory>
/home/itssahil/PROJECTS/Mol_Feturizer/New_Systems/rnas/3D2V

>  <Rbt.Executable>
rbdock ($Id: //depot/dev/client3/rdock/2013.1/src/exe/rbdock.cxx#4 $)

>  <Rbt.Library>
libRbt.so (2013.1, Build901 2013/11/27)

>  <Rbt.Parameter_File>
/export/apps/rDock/src/rDock_2013.1_src/data/scripts/dock_solv.prm

>  <Rbt.Receptor>
prm/pocket_docking_3.prm

>  <SCORE>
-17.8757

>  <SCORE.INTER>
-19.6532

>  <SCORE.INTER.CONST>
1

>  <SCORE.INTER.POLAR>
0

>  <SCORE.INTER.ROT>
8

>  <SCORE.INTER.SOLV>
20.6778

>  <SCORE.INTER.VDW>
-28.9281

>  <SCORE.INTER.norm>
-0.727895

>  <SCORE.INTRA>
1.77482

>  <SCORE.INTRA.DIHEDRAL>
4.3581

>  <SCORE.INTRA.DIHEDRAL.0>
7.82666

>  <SCORE.INTRA.POLAR>
0

>  <SCORE.INTRA.POLAR.0>
0

>  <SCORE.INTRA.REPUL>
0

>  <SCORE.INTRA.REPUL.0>
0

>  <SCORE.INTRA.SOLV>
0.179019

>  <SCORE.INTRA.SOLV.lig_0>
-83.2758

>  <SCORE.INTRA.VDW>
-0.493738

>  <SCORE.INTRA.VDW.0>
-3.26816

>  <SCORE.INTRA.norm>
0.0657342

>  <SCORE.RESTR>
0.00266583

>  <SCORE.RESTR.CAVITY>
0.00266583

>  <SCORE.RESTR.norm>
9.87344e-05

>  <SCORE.SYSTEM>
0

>  <SCORE.SYSTEM.CONST>
0

>  <SCORE.SYSTEM.DIHEDRAL>
0

>  <SCORE.SYSTEM.SOLV>
0

>  <SCORE.SYSTEM.norm>
0

>  <SCORE.heavy>
27

>  <SCORE.norm>
-0.662062

>  <RMSD>
1.897

$$$$
ligand
 OpenBabel11021811473D
libRbt.so/2013.1/901 2013/11/27
 27 28  0  0  0  0  0  0  0  0999 V2000
  -12.5734   37.2697   -2.1934 C   0  0  0  0  0  0  0  0  0  0  0  0
   -8.0909   40.7690   -5.4606 C   0  0  0  0  0  0  0  0  0  0  0  0
   -6.8895   39.7166   -7.9953 C   0  0  0  0  0  0  0  0  0  0  0  0
   -6.3119   41.1255   -8.1439 C   0  0  0  0  0  0  0  0  0  0  0  0
   -4.9088   41.1286   -7.8691 O   0  0  0  0  0  0  0  0  0  0  0  0
   -4.0771   42.5004   -7.9501 P   0  0  1  0  0  0  0  0  0  0  0  0
   -3.4865   42.2624  -10.6980 P   0  0  2  0  0  0  0  0  0  0  0  0
   -5.2711   37.5096   -5.3570 C   0  0  0  0  0  0  0  0  0  0  0  0
  -10.5869   37.8433   -3.5762 N   0  0  0  0  0  0  0  0  0  0  0  0
   -4.6883   43.6050   -6.9635 O   0  5  0  0  0  0  0  0  0  0  0  0
   -3.7950   40.8177  -10.6809 O   0  0  0  0  0  0  0  0  0  0  0  0
   -5.8163   37.9815   -4.1704 C   0  0  0  0  0  0  0  0  0  0  0  0
  -11.1811   37.8757   -2.3734 C   0  0  0  0  0  0  0  0  0  0  0  0
   -2.5230   42.3212   -7.5427 O   0  0  0  0  0  0  0  0  0  0  0  0
   -1.9038   42.5275  -10.6740 O   0  5  0  0  0  0  0  0  0  0  0  0
   -6.7321   39.0342   -4.2038 N   0  0  0  0  0  0  0  0  0  0  0  0
  -10.5642   38.4363   -1.3231 N   0  0  0  0  0  0  0  0  0  0  0  0
   -4.1022   43.0813   -9.4695 O   0  0  0  0  0  0  0  0  0  0  0  0
   -4.0084   42.9409  -12.0438 O   0  0  0  0  0  0  0  0  0  0  0  0
   -7.0860   39.6092   -5.4303 C   0  0  1  0  0  0  0  0  0  0  0  0
   -9.3449   38.9717   -1.4611 C   0  0  0  0  0  0  0  0  0  0  0  0
   -8.7425   39.5229   -0.4124 N   0  0  0  0  0  0  0  0  0  0  0  0
   -6.5385   39.1344   -6.6210 C   0  0  2  0  0  0  0  0  0  0  0  0
   -8.7074   38.9488   -2.6956 C   0  0  0  0  0  0  0  0  0  0  0  0
   -5.6305   38.0838   -6.5703 C   0  0  0  0  0  0  0  0  0  0  0  0
   -9.3831   38.3599   -3.7582 C   0  0  0  0  0  0  0  0  0  0  0  0
   -7.3128   39.5406   -2.9380 C   0  0  0  0  0  0  0  0  0  0  0  0
  1 13  1  0  0  0  0
  3  4  1  0  0  0  0
  4  5  1  0  0  0  0
  6  5  1  1  0  0  0
  6 10  1  0  0  0  0
  6 14  2  0  0  0  0
  6 18  1  0  0  0  0
  7 11  1  1  0  0  0
  7 15  1  0  0  0  0
  7 19  2  0  0  0  0
  7 18  1  0  0  0  0
  8 25  1  0  0  0  0
  8 12  1  0  0  0  0
  9 26  2  0  0  0  0
  9 13  1  0  0  0  0
 12 16  1  0  0  0  0
 13 17  2  0  0  0  0
 16 20  1  0  0  0  0
 16 27  1  0  0  0  0
 17 21  1  0  0  0  0
 20  2  1  6  0  0  0
 20 23  1  0  0  0  0
 21 22  1  0  0  0  0
 21 24  2  0  0  0  0
 23  3  1  1  0  0  0
 23 25  1  0  0  0  0
 24 27  1  0  0  0  0
 24 26  1  0  0  0  0
M  CHG  2  10  -1  15  -1
M  END
>  <CHROM.1>
53.58212704,-179.57157619,57.43807184,-61.44281989,42.09202892,69.57346148
163.39683433,-98.79539996,-6.31083896,40.36901716,-6.33584475,2.41756147
0.65890550,1.45602657

>  <Name>
ligand

>  <RI>
0

>  <Rbt.Current_Directory>
/home/itssahil/PROJECTS/Mol_Feturizer/New_Systems/rnas/3D2V

>  <Rbt.Executable>
rbdock ($Id: //depot/dev/client3/rdock/2013.1/src/exe/rbdock.cxx#4 $)

>  <Rbt.Library>
libRbt.so (2013.1, Build901 2013/11/27)

>  <Rbt.Parameter_File>
/export/apps/rDock/src/rDock_2013.1_src/data/scripts/dock_solv.prm

>  <Rbt.Receptor>
prm/pocket_docking_4.prm

>  <SCORE>
-20.3507

>  <SCORE.INTER>
-18.0343

>  <SCORE.INTER.CONST>
1

>  <SCORE.INTER.POLAR>
0

>  <SCORE.INTER.ROT>
8

>  <SCORE.INTER.SOLV>
20.9488

>  <SCORE.INTER.VDW>
-27.9392

>  <SCORE.INTER.norm>
-0.667939

>  <SCORE.INTRA>
-2.31635

>  <SCORE.INTRA.DIHEDRAL>
-1.98699

>  <SCORE.INTRA.DIHEDRAL.0>
7.82666

>  <SCORE.INTRA.POLAR>
0

>  <SCORE.INTRA.POLAR.0>
0

>  <SCORE.INTRA.REPUL>
0

>  <SCORE.INTRA.REPUL.0>
0

>  <SCORE.INTRA.SOLV>
-2.42819

>  <SCORE.INTRA.SOLV.lig_0>
-83.2758

>  <SCORE.INTRA.VDW>
-0.10876

>  <SCORE.INTRA.VDW.0>
-3.26816

>  <SCORE.INTRA.norm>
-0.0857906

>  <SCORE.RESTR>
0

>  <SCORE.RESTR.CAVITY>
0

>  <SCORE.RESTR.norm>
0

>  <SCORE.SYSTEM>
0

>  <SCORE.SYSTEM.CONST>
0

>  <SCORE.SYSTEM.DIHEDRAL>
0

>  <SCORE.SYSTEM.SOLV>
0

>  <SCORE.SYSTEM.norm>
0

>  <SCORE.heavy>
27

>  <SCORE.norm>
-0.753729

>  <RMSD>
1.904

$$$$
ligand
 OpenBabel11021811463D
libRbt.so/2013.1/901 2013/11/27
 27 28  0  0  0  0  0  0  0  0999 V2000
  -13.1043   37.5205   -2.0430 C   0  0  0  0  0  0  0  0  0  0  0  0
   -5.1315   39.2452   -4.6276 C   0  0  0  0  0  0  0  0  0  0  0  0
   -5.0664   40.7361   -7.2254 C   0  0  0  0  0  0  0  0  0  0  0  0
   -4.1190   41.7421   -6.5690 C   0  0  0  0  0  0  0  0  0  0  0  0
   -2.9300   41.8998   -7.3473 O   0  0  0  0  0  0  0  0  0  0  0  0
   -2.9648   42.7622   -8.7019 P   0  0  1  0  0  0  0  0  0  0  0  0
   -4.3402   44.9862   -9.7595 P   0  0  2  0  0  0  0  0  0  0  0  0
   -8.7075   41.0792   -6.1882 C   0  0  0  0  0  0  0  0  0  0  0  0
  -11.1309   37.7222   -3.5437 N   0  0  0  0  0  0  0  0  0  0  0  0
   -1.5038   43.2987   -9.0822 O   0  5  0  0  0  0  0  0  0  0  0  0
   -3.2348   45.2132  -10.7130 O   0  0  0  0  0  0  0  0  0  0  0  0
   -8.7598   40.3934   -4.9820 C   0  0  0  0  0  0  0  0  0  0  0  0
  -11.6613   37.9366   -2.3298 C   0  0  0  0  0  0  0  0  0  0  0  0
   -3.4964   41.9180   -9.9741 O   0  0  0  0  0  0  0  0  0  0  0  0
   -4.8636   46.3642   -9.1248 O   0  5  0  0  0  0  0  0  0  0  0  0
   -7.6017   39.8027   -4.4745 N   0  0  0  0  0  0  0  0  0  0  0  0
  -10.9359   38.5145   -1.3613 N   0  0  0  0  0  0  0  0  0  0  0  0
   -3.9636   44.0347   -8.5299 O   0  0  0  0  0  0  0  0  0  0  0  0
   -5.6057   44.3517  -10.4943 O   0  0  0  0  0  0  0  0  0  0  0  0
   -6.4014   39.8998   -5.1888 C   0  0  1  0  0  0  0  0  0  0  0  0
   -9.6706   38.8854   -1.5933 C   0  0  0  0  0  0  0  0  0  0  0  0
   -8.9609   39.4556   -0.6250 N   0  0  0  0  0  0  0  0  0  0  0  0
   -6.3497   40.5889   -6.3994 C   0  0  2  0  0  0  0  0  0  0  0  0
   -9.0976   38.6723   -2.8412 C   0  0  0  0  0  0  0  0  0  0  0  0
   -7.5113   41.1736   -6.8890 C   0  0  0  0  0  0  0  0  0  0  0  0
   -9.8852   38.0723   -3.8171 C   0  0  0  0  0  0  0  0  0  0  0  0
   -7.6567   39.0684   -3.1887 C   0  0  0  0  0  0  0  0  0  0  0  0
  1 13  1  0  0  0  0
  3  4  1  0  0  0  0
  4  5  1  0  0  0  0
  6  5  1  1  0  0  0
  6 10  1  0  0  0  0
  6 14  2  0  0  0  0
  6 18  1  0  0  0  0
  7 11  1  6  0  0  0
  7 15  1  0  0  0  0
  7 19  2  0  0  0  0
  7 18  1  0  0  0  0
  8 25  1  0  0  0  0
  8 12  1  0  0  0  0
  9 26  2  0  0  0  0
  9 13  1  0  0  0  0
 12 16  1  0  0  0  0
 13 17  2  0  0  0  0
 16 20  1  0  0  0  0
 16 27  1  0  0  0  0
 17 21  1  0  0  0  0
 20  2  1  1  0  0  0
 20 23  1  0  0  0  0
 21 22  1  0  0  0  0
 21 24  2  0  0  0  0
 23  3  1  6  0  0  0
 23 25  1  0  0  0  0
 24 27  1  0  0  0  0
 24 26  1  0  0  0  0
M  CHG  2  10  -1  15  -1
M  END
>  <CHROM.1>
-179.03060285,75.75694908,157.12603620,-172.81387998,-36.14994815,-74.02035047
-131.94635804,19.31995659,-6.39823611,41.32519373,-6.28412149,2.22722123
-0.13790886,2.35343820

>  <Name>
ligand

>  <RI>
0

>  <Rbt.Current_Directory>
/home/itssahil/PROJECTS/Mol_Feturizer/New_Systems/rnas/3D2V

>  <Rbt.Executable>
rbdock ($Id: //depot/dev/client3/rdock/2013.1/src/exe/rbdock.cxx#4 $)

>  <Rbt.Library>
libRbt.so (2013.1, Build901 2013/11/27)

>  <Rbt.Parameter_File>
/export/apps/rDock/src/rDock_2013.1_src/data/scripts/dock_solv.prm

>  <Rbt.Receptor>
prm/pocket_docking_2.prm

>  <SCORE>
-16.5926

>  <SCORE.INTER>
-17.9132

>  <SCORE.INTER.CONST>
1

>  <SCORE.INTER.POLAR>
0

>  <SCORE.INTER.ROT>
8

>  <SCORE.INTER.SOLV>
20.0954

>  <SCORE.INTER.VDW>
-27.5739

>  <SCORE.INTER.norm>
-0.663452

>  <SCORE.INTRA>
0.795264

>  <SCORE.INTRA.DIHEDRAL>
0.218027

>  <SCORE.INTRA.DIHEDRAL.0>
7.82666

>  <SCORE.INTRA.POLAR>
0

>  <SCORE.INTRA.POLAR.0>
0

>  <SCORE.INTRA.REPUL>
0

>  <SCORE.INTRA.REPUL.0>
0

>  <SCORE.INTRA.SOLV>
-0.804671

>  <SCORE.INTRA.SOLV.lig_0>
-83.2758

>  <SCORE.INTRA.VDW>
1.08859

>  <SCORE.INTRA.VDW.0>
-3.26816

>  <SCORE.INTRA.norm>
0.0294542

>  <SCORE.RESTR>
0.52537

>  <SCORE.RESTR.CAVITY>
0.52537

>  <SCORE.RESTR.norm>
0.0194581

>  <SCORE.SYSTEM>
0

>  <SCORE.SYSTEM.CONST>
0

>  <SCORE.SYSTEM.DIHEDRAL>
0

>  <SCORE.SYSTEM.SOLV>
0

>  <SCORE.SYSTEM.norm>
0

>  <SCORE.heavy>
27

>  <SCORE.norm>
-0.61454

>  <RMSD>
1.917

$$$$
ligand
 OpenBabel11021811463D
libRbt.so/2013.1/901 2013/11/27
 27 28  0  0  0  0  0  0  0  0999 V2000
  -12.8115   37.3838   -1.9378 C   0  0  0  0  0  0  0  0  0  0  0  0
   -7.3615   41.3809   -4.9075 C   0  0  0  0  0  0  0  0  0  0  0  0
   -5.8417   40.2711   -7.2386 C   0  0  0  0  0  0  0  0  0  0  0  0
   -4.4285   40.0880   -7.7954 C   0  0  0  0  0  0  0  0  0  0  0  0
   -3.9204   41.3244   -8.3027 O   0  0  0  0  0  0  0  0  0  0  0  0
   -4.6480   42.0450   -9.5401 P   0  0  1  0  0  0  0  0  0  0  0  0
   -3.0359   44.3373   -9.2190 P   0  0  2  0  0  0  0  0  0  0  0  0
   -5.5379   37.4814   -4.6742 C   0  0  0  0  0  0  0  0  0  0  0  0
  -10.7675   38.4700   -1.0271 N   0  0  0  0  0  0  0  0  0  0  0  0
   -4.9856   40.9950  -10.7022 O   0  5  0  0  0  0  0  0  0  0  0  0
   -3.3580   44.2035   -7.7834 O   0  0  0  0  0  0  0  0  0  0  0  0
   -6.2384   37.9764   -3.5822 C   0  0  0  0  0  0  0  0  0  0  0  0
  -11.4270   38.0114   -2.1022 C   0  0  0  0  0  0  0  0  0  0  0  0
   -6.0441   42.7487   -9.1286 O   0  0  0  0  0  0  0  0  0  0  0  0
   -3.5219   45.7510   -9.8030 O   0  5  0  0  0  0  0  0  0  0  0  0
   -6.8320   39.2371   -3.6586 N   0  0  0  0  0  0  0  0  0  0  0  0
  -10.8823   38.0982   -3.3244 N   0  0  0  0  0  0  0  0  0  0  0  0
   -3.6928   43.2129  -10.1483 O   0  0  0  0  0  0  0  0  0  0  0  0
   -1.4590   44.3018   -9.4553 O   0  0  0  0  0  0  0  0  0  0  0  0
   -6.7095   39.9935   -4.8304 C   0  0  1  0  0  0  0  0  0  0  0  0
   -9.6712   38.6448   -3.4883 C   0  0  0  0  0  0  0  0  0  0  0  0
   -9.1423   38.7270   -4.7048 N   0  0  0  0  0  0  0  0  0  0  0  0
   -6.0065   39.4955   -5.9262 C   0  0  1  0  0  0  0  0  0  0  0  0
   -8.9689   39.1291   -2.3914 C   0  0  0  0  0  0  0  0  0  0  0  0
   -5.4240   38.2373   -5.8346 C   0  0  0  0  0  0  0  0  0  0  0  0
   -9.5691   39.0175   -1.1425 C   0  0  0  0  0  0  0  0  0  0  0  0
   -7.5776   39.7677   -2.4931 C   0  0  0  0  0  0  0  0  0  0  0  0
  1 13  1  0  0  0  0
  3  4  1  0  0  0  0
  4  5  1  0  0  0  0
  6  5  1  1  0  0  0
  6 10  1  0  0  0  0
  6 14  2  0  0  0  0
  6 18  1  0  0  0  0
  7 11  1  1  0  0  0
  7 15  1  0  0  0  0
  7 19  2  0  0  0  0
  7 18  1  0  0  0  0
  8 25  1  0  0  0  0
  8 12  1  0  0  0  0
  9 26  2  0  0  0  0
  9 13  1  0  0  0  0
 12 16  1  0  0  0  0
 13 17  2  0  0  0  0
 16 20  1  0  0  0  0
 16 27  1  0  0  0  0
 17 21  1  0  0  0  0
 20  2  1  6  0  0  0
 20 23  1  0  0  0  0
 21 22  1  0  0  0  0
 21 24  2  0  0  0  0
 23  3  1  6  0  0  0
 23 25  1  0  0  0  0
 24 27  1  0  0  0  0
 24 26  1  0  0  0  0
M  CHG  2  10  -1  15  -1
M  END
>  <CHROM.1>
-138.42803261,-62.90706739,-45.66731604,-51.14682476,0.83147431,140.27172969
-27.71465091,-77.78786777,-6.30325732,40.78155285,-6.24320960,2.51271777
-0.74303474,2.95520517

>  <Name>
ligand

>  <RI>
0

>  <Rbt.Current_Directory>
/home/itssahil/PROJECTS/Mol_Feturizer/New_Systems/rnas/3D2V

>  <Rbt.Executable>
rbdock ($Id: //depot/dev/client3/rdock/2013.1/src/exe/rbdock.cxx#4 $)

>  <Rbt.Library>
libRbt.so (2013.1, Build901 2013/11/27)

>  <Rbt.Parameter_File>
/export/apps/rDock/src/rDock_2013.1_src/data/scripts/dock_solv.prm

>  <Rbt.Receptor>
prm/pocket_docking_2.prm

>  <SCORE>
-14.0523

>  <SCORE.INTER>
-19.3481

>  <SCORE.INTER.CONST>
1

>  <SCORE.INTER.POLAR>
0

>  <SCORE.INTER.ROT>
8

>  <SCORE.INTER.SOLV>
14.619

>  <SCORE.INTER.VDW>
-26.7051

>  <SCORE.INTER.norm>
-0.716598

>  <SCORE.INTRA>
5.17881

>  <SCORE.INTRA.DIHEDRAL>
4.56872

>  <SCORE.INTRA.DIHEDRAL.0>
7.82666

>  <SCORE.INTRA.POLAR>
0

>  <SCORE.INTRA.POLAR.0>
0

>  <SCORE.INTRA.REPUL>
0

>  <SCORE.INTRA.REPUL.0>
0

>  <SCORE.INTRA.SOLV>
3.71742

>  <SCORE.INTRA.SOLV.lig_0>
-83.2758

>  <SCORE.INTRA.VDW>
1.03574

>  <SCORE.INTRA.VDW.0>
-3.26816

>  <SCORE.INTRA.norm>
0.191808

>  <SCORE.RESTR>
0.116974

>  <SCORE.RESTR.CAVITY>
0.116974

>  <SCORE.RESTR.norm>
0.00433239

>  <SCORE.SYSTEM>
0

>  <SCORE.SYSTEM.CONST>
0

>  <SCORE.SYSTEM.DIHEDRAL>
0

>  <SCORE.SYSTEM.SOLV>
0

>  <SCORE.SYSTEM.norm>
0

>  <SCORE.heavy>
27

>  <SCORE.norm>
-0.520457

>  <RMSD>
1.932

$$$$
ligand
 OpenBabel11021811473D
libRbt.so/2013.1/901 2013/11/27
 27 28  0  0  0  0  0  0  0  0999 V2000
  -12.5316   37.0754   -2.1758 C   0  0  0  0  0  0  0  0  0  0  0  0
   -7.5928   40.4964   -6.5514 C   0  0  0  0  0  0  0  0  0  0  0  0
   -5.5874   38.7769   -7.9646 C   0  0  0  0  0  0  0  0  0  0  0  0
   -5.0947   40.1729   -8.3509 C   0  0  0  0  0  0  0  0  0  0  0  0
   -3.9744   40.5541   -7.5485 O   0  0  0  0  0  0  0  0  0  0  0  0
   -3.3221   42.0119   -7.7199 P   0  0  1  0  0  0  0  0  0  0  0  0
   -2.0107   43.5095   -9.7183 P   0  0  2  0  0  0  0  0  0  0  0  0
   -5.2231   37.6423   -4.3548 C   0  0  0  0  0  0  0  0  0  0  0  0
  -11.0921   38.2413   -3.8359 N   0  0  0  0  0  0  0  0  0  0  0  0
   -4.3474   43.1591   -7.2730 O   0  5  0  0  0  0  0  0  0  0  0  0
   -2.6212   44.8237   -9.4306 O   0  0  0  0  0  0  0  0  0  0  0  0
   -6.1473   38.4289   -3.6801 C   0  0  0  0  0  0  0  0  0  0  0  0
  -11.3017   37.9010   -2.5548 C   0  0  0  0  0  0  0  0  0  0  0  0
   -1.9842   42.2126   -6.8348 O   0  0  0  0  0  0  0  0  0  0  0  0
   -1.7200   43.3250  -11.2859 O   0  5  0  0  0  0  0  0  0  0  0  0
   -6.9173   39.3503   -4.3913 N   0  0  0  0  0  0  0  0  0  0  0  0
  -10.4402   38.2790   -1.5993 N   0  0  0  0  0  0  0  0  0  0  0  0
   -2.9018   42.2581   -9.2720 O   0  0  0  0  0  0  0  0  0  0  0  0
   -0.5902   43.3724   -9.0060 O   0  0  0  0  0  0  0  0  0  0  0  0
   -6.7457   39.4788   -5.7749 C   0  0  1  0  0  0  0  0  0  0  0  0
   -9.3575   39.0019   -1.9116 C   0  0  0  0  0  0  0  0  0  0  0  0
   -8.5098   39.3691   -0.9562 N   0  0  0  0  0  0  0  0  0  0  0  0
   -5.8180   38.6884   -6.4514 C   0  0  2  0  0  0  0  0  0  0  0  0
   -9.1167   39.3650   -3.2311 C   0  0  0  0  0  0  0  0  0  0  0  0
   -5.0615   37.7740   -5.7286 C   0  0  0  0  0  0  0  0  0  0  0  0
  -10.0359   38.9543   -4.1897 C   0  0  0  0  0  0  0  0  0  0  0  0
   -7.9021   40.1922   -3.6722 C   0  0  0  0  0  0  0  0  0  0  0  0
  1 13  1  0  0  0  0
  3  4  1  0  0  0  0
  4  5  1  0  0  0  0
  6  5  1  1  0  0  0
  6 10  1  0  0  0  0
  6 14  2  0  0  0  0
  6 18  1  0  0  0  0
  7 11  1  1  0  0  0
  7 15  1  0  0  0  0
  7 19  2  0  0  0  0
  7 18  1  0  0  0  0
  8 25  1  0  0  0  0
  8 12  1  0  0  0  0
  9 26  2  0  0  0  0
  9 13  1  0  0  0  0
 12 16  1  0  0  0  0
 13 17  2  0  0  0  0
 16 20  1  0  0  0  0
 16 27  1  0  0  0  0
 17 21  1  0  0  0  0
 20  2  1  6  0  0  0
 20 23  1  0  0  0  0
 21 22  1  0  0  0  0
 21 24  2  0  0  0  0
 23  3  1  1  0  0  0
 23 25  1  0  0  0  0
 24 27  1  0  0  0  0
 24 26  1  0  0  0  0
M  CHG  2  10  -1  15  -1
M  END
>  <CHROM.1>
51.56431385,-177.08796450,65.55467520,-169.62428403,-60.98694871,61.70005285
107.14184562,-72.54289015,-5.75973556,40.53081049,-6.16269357,2.56186014
-0.59287523,2.90476868

>  <Name>
ligand

>  <RI>
0

>  <Rbt.Current_Directory>
/home/itssahil/PROJECTS/Mol_Feturizer/New_Systems/rnas/3D2V

>  <Rbt.Executable>
rbdock ($Id: //depot/dev/client3/rdock/2013.1/src/exe/rbdock.cxx#4 $)

>  <Rbt.Library>
libRbt.so (2013.1, Build901 2013/11/27)

>  <Rbt.Parameter_File>
/export/apps/rDock/src/rDock_2013.1_src/data/scripts/dock_solv.prm

>  <Rbt.Receptor>
prm/pocket_docking_4.prm

>  <SCORE>
-21.6843

>  <SCORE.INTER>
-20.7546

>  <SCORE.INTER.CONST>
1

>  <SCORE.INTER.POLAR>
0

>  <SCORE.INTER.ROT>
8

>  <SCORE.INTER.SOLV>
25.4092

>  <SCORE.INTER.VDW>
-31.2395

>  <SCORE.INTER.norm>
-0.76869

>  <SCORE.INTRA>
-0.929696

>  <SCORE.INTRA.DIHEDRAL>
-2.09108

>  <SCORE.INTRA.DIHEDRAL.0>
7.82666

>  <SCORE.INTRA.POLAR>
0

>  <SCORE.INTRA.POLAR.0>
0

>  <SCORE.INTRA.REPUL>
0

>  <SCORE.INTRA.REPUL.0>
0

>  <SCORE.INTRA.SOLV>
-0.329009

>  <SCORE.INTRA.SOLV.lig_0>
-83.2758

>  <SCORE.INTRA.VDW>
0.280349

>  <SCORE.INTRA.VDW.0>
-3.26816

>  <SCORE.INTRA.norm>
-0.0344332

>  <SCORE.RESTR>
0

>  <SCORE.RESTR.CAVITY>
0

>  <SCORE.RESTR.norm>
0

>  <SCORE.SYSTEM>
0

>  <SCORE.SYSTEM.CONST>
0

>  <SCORE.SYSTEM.DIHEDRAL>
0

>  <SCORE.SYSTEM.SOLV>
0

>  <SCORE.SYSTEM.norm>
0

>  <SCORE.heavy>
27

>  <SCORE.norm>
-0.803123

>  <RMSD>
1.945

$$$$
ligand
 OpenBabel11021811473D
libRbt.so/2013.1/901 2013/11/27
 27 28  0  0  0  0  0  0  0  0999 V2000
  -12.8931   37.1017   -2.2295 C   0  0  0  0  0  0  0  0  0  0  0  0
   -7.8523   41.3539   -4.7111 C   0  0  0  0  0  0  0  0  0  0  0  0
   -6.3384   40.6587   -7.2011 C   0  0  0  0  0  0  0  0  0  0  0  0
   -5.0446   40.5067   -8.0034 C   0  0  0  0  0  0  0  0  0  0  0  0
   -5.1097   41.2612   -9.2161 O   0  0  0  0  0  0  0  0  0  0  0  0
   -4.9557   42.8596   -9.1773 P   0  0  1  0  0  0  0  0  0  0  0  0
   -2.9052   44.7702   -8.8592 P   0  0  2  0  0  0  0  0  0  0  0  0
   -5.4554   37.7748   -4.8871 C   0  0  0  0  0  0  0  0  0  0  0  0
  -10.9427   38.2386   -1.1851 N   0  0  0  0  0  0  0  0  0  0  0  0
   -5.2848   43.5059  -10.6060 O   0  5  0  0  0  0  0  0  0  0  0  0
   -1.4864   44.9397   -8.4839 O   0  0  0  0  0  0  0  0  0  0  0  0
   -6.1496   38.0777   -3.7232 C   0  0  0  0  0  0  0  0  0  0  0  0
  -11.5094   37.7487   -2.2985 C   0  0  0  0  0  0  0  0  0  0  0  0
   -5.9445   43.5631   -8.1092 O   0  0  0  0  0  0  0  0  0  0  0  0
   -3.8697   45.6605   -7.9357 O   0  5  0  0  0  0  0  0  0  0  0  0
   -6.9286   39.2343   -3.6671 N   0  0  0  0  0  0  0  0  0  0  0  0
  -10.8724   37.8210   -3.4762 N   0  0  0  0  0  0  0  0  0  0  0  0
   -3.4384   43.2657   -8.7537 O   0  0  0  0  0  0  0  0  0  0  0  0
   -3.1646   45.2736  -10.3502 O   0  0  0  0  0  0  0  0  0  0  0  0
   -6.9968   40.0814   -4.7798 C   0  0  1  0  0  0  0  0  0  0  0  0
   -9.6604   38.3841   -3.5566 C   0  0  0  0  0  0  0  0  0  0  0  0
   -9.0396   38.4517   -4.7298 N   0  0  0  0  0  0  0  0  0  0  0  0
   -6.3000   39.7761   -5.9478 C   0  0  2  0  0  0  0  0  0  0  0  0
   -9.0532   38.9008   -2.4186 C   0  0  0  0  0  0  0  0  0  0  0  0
   -5.5314   38.6193   -5.9879 C   0  0  0  0  0  0  0  0  0  0  0  0
   -9.7473   38.8035   -1.2181 C   0  0  0  0  0  0  0  0  0  0  0  0
   -7.6679   39.5602   -2.4249 C   0  0  0  0  0  0  0  0  0  0  0  0
  1 13  1  0  0  0  0
  3  4  1  0  0  0  0
  4  5  1  0  0  0  0
  6  5  1  6  0  0  0
  6 10  1  0  0  0  0
  6 14  2  0  0  0  0
  6 18  1  0  0  0  0
  7 11  1  1  0  0  0
  7 15  1  0  0  0  0
  7 19  2  0  0  0  0
  7 18  1  0  0  0  0
  8 25  1  0  0  0  0
  8 12  1  0  0  0  0
  9 26  2  0  0  0  0
  9 13  1  0  0  0  0
 12 16  1  0  0  0  0
 13 17  2  0  0  0  0
 16 20  1  0  0  0  0
 16 27  1  0  0  0  0
 17 21  1  0  0  0  0
 20  2  1  6  0  0  0
 20 23  1  0  0  0  0
 21 22  1  0  0  0  0
 21 24  2  0  0  0  0
 23  3  1  1  0  0  0
 23 25  1  0  0  0  0
 24 27  1  0  0  0  0
 24 26  1  0  0  0  0
M  CHG  2  10  -1  15  -1
M  END
>  <CHROM.1>
176.30447263,75.15195886,-171.25371008,169.76040910,-177.60831379,151.98168014
-16.05252193,-87.90648843,-6.46042294,41.05565768,-6.15922995,2.19674242
-0.08704289,2.37596004

>  <Name>
ligand

>  <RI>
0

>  <Rbt.Current_Directory>
/home/itssahil/PROJECTS/Mol_Feturizer/New_Systems/rnas/3D2V

>  <Rbt.Executable>
rbdock ($Id: //depot/dev/client3/rdock/2013.1/src/exe/rbdock.cxx#4 $)

>  <Rbt.Library>
libRbt.so (2013.1, Build901 2013/11/27)

>  <Rbt.Parameter_File>
/export/apps/rDock/src/rDock_2013.1_src/data/scripts/dock_solv.prm

>  <Rbt.Receptor>
prm/pocket_docking_2.prm

>  <SCORE>
-12.8557

>  <SCORE.INTER>
-18.5068

>  <SCORE.INTER.CONST>
1

>  <SCORE.INTER.POLAR>
0

>  <SCORE.INTER.ROT>
8

>  <SCORE.INTER.SOLV>
10.4363

>  <SCORE.INTER.VDW>
-24.75

>  <SCORE.INTER.norm>
-0.685438

>  <SCORE.INTRA>
5.64513

>  <SCORE.INTRA.DIHEDRAL>
-1.21089

>  <SCORE.INTRA.DIHEDRAL.0>
7.82666

>  <SCORE.INTRA.POLAR>
0

>  <SCORE.INTRA.POLAR.0>
0

>  <SCORE.INTRA.REPUL>
0

>  <SCORE.INTRA.REPUL.0>
0

>  <SCORE.INTRA.SOLV>
8.2958

>  <SCORE.INTRA.SOLV.lig_0>
-83.2758

>  <SCORE.INTRA.VDW>
2.10267

>  <SCORE.INTRA.VDW.0>
-3.26816

>  <SCORE.INTRA.norm>
0.209079

>  <SCORE.RESTR>
0.00596654

>  <SCORE.RESTR.CAVITY>
0.00596654

>  <SCORE.RESTR.norm>
0.000220983

>  <SCORE.SYSTEM>
0

>  <SCORE.SYSTEM.CONST>
0

>  <SCORE.SYSTEM.DIHEDRAL>
0

>  <SCORE.SYSTEM.SOLV>
0

>  <SCORE.SYSTEM.norm>
0

>  <SCORE.heavy>
27

>  <SCORE.norm>
-0.476138

>  <RMSD>
1.948

$$$$
ligand
 OpenBabel11021811473D
libRbt.so/2013.1/901 2013/11/27
 27 28  0  0  0  0  0  0  0  0999 V2000
  -12.1726   37.3752   -2.2582 C   0  0  0  0  0  0  0  0  0  0  0  0
   -5.7045   41.7027   -4.0462 C   0  0  0  0  0  0  0  0  0  0  0  0
   -4.1996   40.7358   -6.4495 C   0  0  0  0  0  0  0  0  0  0  0  0
   -5.0146   40.8132   -7.7419 C   0  0  0  0  0  0  0  0  0  0  0  0
   -4.5376   41.8700   -8.5784 O   0  0  0  0  0  0  0  0  0  0  0  0
   -5.3529   42.2785   -9.9007 P   0  0  1  0  0  0  0  0  0  0  0  0
   -5.1263   45.0900   -9.8838 P   0  0  2  0  0  0  0  0  0  0  0  0
   -5.3189   37.4817   -4.8343 C   0  0  0  0  0  0  0  0  0  0  0  0
  -10.1594   38.2885   -3.3984 N   0  0  0  0  0  0  0  0  0  0  0  0
   -5.2522   41.1340  -11.0174 O   0  5  0  0  0  0  0  0  0  0  0  0
   -6.5648   45.4246   -9.9230 O   0  0  0  0  0  0  0  0  0  0  0  0
   -6.0213   37.9081   -3.7150 C   0  0  0  0  0  0  0  0  0  0  0  0
  -10.7767   37.9989   -2.2425 C   0  0  0  0  0  0  0  0  0  0  0  0
   -6.9270   42.5199   -9.6222 O   0  0  0  0  0  0  0  0  0  0  0  0
   -4.2470   46.1746  -10.6752 O   0  5  0  0  0  0  0  0  0  0  0  0
   -6.1496   39.2745   -3.4615 N   0  0  0  0  0  0  0  0  0  0  0  0
  -10.1796   38.2517   -1.0688 N   0  0  0  0  0  0  0  0  0  0  0  0
   -4.7647   43.6653  -10.5150 O   0  0  0  0  0  0  0  0  0  0  0  0
   -4.5766   45.1112   -8.3867 O   0  0  0  0  0  0  0  0  0  0  0  0
   -5.5633   40.2012   -4.3319 C   0  0  1  0  0  0  0  0  0  0  0  0
   -8.9574   38.7971   -1.0348 C   0  0  0  0  0  0  0  0  0  0  0  0
   -8.3749   39.0413    0.1346 N   0  0  0  0  0  0  0  0  0  0  0  0
   -4.8588   39.7721   -5.4556 C   0  0  1  0  0  0  0  0  0  0  0  0
   -8.2962   39.1041   -2.2178 C   0  0  0  0  0  0  0  0  0  0  0  0
   -4.7430   38.4083   -5.6949 C   0  0  0  0  0  0  0  0  0  0  0  0
   -8.9518   38.8277   -3.4121 C   0  0  0  0  0  0  0  0  0  0  0  0
   -6.8967   39.7309   -2.2659 C   0  0  0  0  0  0  0  0  0  0  0  0
  1 13  1  0  0  0  0
  3  4  1  0  0  0  0
  4  5  1  0  0  0  0
  6  5  1  1  0  0  0
  6 10  1  0  0  0  0
  6 14  2  0  0  0  0
  6 18  1  0  0  0  0
  7 11  1  6  0  0  0
  7 15  1  0  0  0  0
  7 19  2  0  0  0  0
  7 18  1  0  0  0  0
  8 25  1  0  0  0  0
  8 12  1  0  0  0  0
  9 26  2  0  0  0  0
  9 13  1  0  0  0  0
 12 16  1  0  0  0  0
 13 17  2  0  0  0  0
 16 20  1  0  0  0  0
 16 27  1  0  0  0  0
 17 21  1  0  0  0  0
 20  2  1  6  0  0  0
 20 23  1  0  0  0  0
 21 22  1  0  0  0  0
 21 24  2  0  0  0  0
 23  3  1  6  0  0  0
 23 25  1  0  0  0  0
 24 27  1  0  0  0  0
 24 26  1  0  0  0  0
M  CHG  2  10  -1  15  -1
M  END
>  <CHROM.1>
170.21468123,-171.84965955,-69.75998120,-78.02272859,-61.73941892,-105.13219100
148.03984311,-53.00379247,-6.48460826,41.06411362,-6.19835725,1.97645937
-0.33272946,2.32632304

>  <Name>
ligand

>  <RI>
0

>  <Rbt.Current_Directory>
/home/itssahil/PROJECTS/Mol_Feturizer/New_Systems/rnas/3D2V

>  <Rbt.Executable>
rbdock ($Id: //depot/dev/client3/rdock/2013.1/src/exe/rbdock.cxx#4 $)

>  <Rbt.Library>
libRbt.so (2013.1, Build901 2013/11/27)

>  <Rbt.Parameter_File>
/export/apps/rDock/src/rDock_2013.1_src/data/scripts/dock_solv.prm

>  <Rbt.Receptor>
prm/pocket_docking_3.prm

>  <SCORE>
-19.8856

>  <SCORE.INTER>
-18.6014

>  <SCORE.INTER.CONST>
1

>  <SCORE.INTER.POLAR>
0

>  <SCORE.INTER.ROT>
8

>  <SCORE.INTER.SOLV>
21.8043

>  <SCORE.INTER.VDW>
-28.6024

>  <SCORE.INTER.norm>
-0.688941

>  <SCORE.INTRA>
-1.29725

>  <SCORE.INTRA.DIHEDRAL>
-1.34249

>  <SCORE.INTRA.DIHEDRAL.0>
7.82666

>  <SCORE.INTRA.POLAR>
0

>  <SCORE.INTRA.POLAR.0>
0

>  <SCORE.INTRA.REPUL>
0

>  <SCORE.INTRA.REPUL.0>
0

>  <SCORE.INTRA.SOLV>
-1.59611

>  <SCORE.INTRA.SOLV.lig_0>
-83.2758

>  <SCORE.INTRA.VDW>
0.17205

>  <SCORE.INTRA.VDW.0>
-3.26816

>  <SCORE.INTRA.norm>
-0.0480462

>  <SCORE.RESTR>
0.0130888

>  <SCORE.RESTR.CAVITY>
0.0130888

>  <SCORE.RESTR.norm>
0.00048477

>  <SCORE.SYSTEM>
0

>  <SCORE.SYSTEM.CONST>
0

>  <SCORE.SYSTEM.DIHEDRAL>
0

>  <SCORE.SYSTEM.SOLV>
0

>  <SCORE.SYSTEM.norm>
0

>  <SCORE.heavy>
27

>  <SCORE.norm>
-0.736503

>  <RMSD>
1.954

$$$$
ligand
 OpenBabel11021811473D
libRbt.so/2013.1/901 2013/11/27
 27 28  0  0  0  0  0  0  0  0999 V2000
  -12.9870   37.5840   -1.6422 C   0  0  0  0  0  0  0  0  0  0  0  0
   -6.6562   41.6926   -4.3675 C   0  0  0  0  0  0  0  0  0  0  0  0
   -6.9504   42.6769   -7.1817 C   0  0  0  0  0  0  0  0  0  0  0  0
   -5.7094   42.4711   -8.0525 C   0  0  0  0  0  0  0  0  0  0  0  0
   -6.0799   42.0836   -9.3779 O   0  0  0  0  0  0  0  0  0  0  0  0
   -4.9522   41.9041  -10.5075 P   0  0  1  0  0  0  0  0  0  0  0  0
   -2.6259   43.2244   -9.6122 P   0  0  2  0  0  0  0  0  0  0  0  0
   -8.7212   39.3155   -7.3122 C   0  0  0  0  0  0  0  0  0  0  0  0
  -11.2898   37.7815   -3.4498 N   0  0  0  0  0  0  0  0  0  0  0  0
   -4.0918   40.5757  -10.2581 O   0  5  0  0  0  0  0  0  0  0  0  0
   -2.7086   42.4284   -8.3704 O   0  0  0  0  0  0  0  0  0  0  0  0
   -8.5968   38.8406   -6.0133 C   0  0  0  0  0  0  0  0  0  0  0  0
  -11.6091   37.9928   -2.1636 C   0  0  0  0  0  0  0  0  0  0  0  0
   -5.5654   41.7884  -11.9988 O   0  0  0  0  0  0  0  0  0  0  0  0
   -2.3306   44.7712   -9.3024 O   0  5  0  0  0  0  0  0  0  0  0  0
   -7.9316   39.6115   -5.0588 N   0  0  0  0  0  0  0  0  0  0  0  0
  -10.7286   38.5613   -1.3272 N   0  0  0  0  0  0  0  0  0  0  0  0
   -3.9510   43.1863  -10.5077 O   0  0  0  0  0  0  0  0  0  0  0  0
   -1.4107   42.7361  -10.5225 O   0  0  0  0  0  0  0  0  0  0  0  0
   -7.3898   40.8507   -5.4206 C   0  0  1  0  0  0  0  0  0  0  0  0
   -9.5171   38.9258   -1.7652 C   0  0  0  0  0  0  0  0  0  0  0  0
   -8.6522   39.4867   -0.9263 N   0  0  0  0  0  0  0  0  0  0  0  0
   -7.5156   41.3268   -6.7246 C   0  0  1  0  0  0  0  0  0  0  0  0
   -9.1615   38.7156   -3.0919 C   0  0  0  0  0  0  0  0  0  0  0  0
   -8.1834   40.5481   -7.6619 C   0  0  0  0  0  0  0  0  0  0  0  0
  -10.1046   38.1255   -3.9254 C   0  0  0  0  0  0  0  0  0  0  0  0
   -7.7959   39.1048   -3.6729 C   0  0  0  0  0  0  0  0  0  0  0  0
  1 13  1  0  0  0  0
  3  4  1  0  0  0  0
  4  5  1  0  0  0  0
  6  5  1  1  0  0  0
  6 10  1  0  0  0  0
  6 14  2  0  0  0  0
  6 18  1  0  0  0  0
  7 11  1  1  0  0  0
  7 15  1  0  0  0  0
  7 19  2  0  0  0  0
  7 18  1  0  0  0  0
  8 25  1  0  0  0  0
  8 12  1  0  0  0  0
  9 26  2  0  0  0  0
  9 13  1  0  0  0  0
 12 16  1  0  0  0  0
 13 17  2  0  0  0  0
 16 20  1  0  0  0  0
 16 27  1  0  0  0  0
 17 21  1  0  0  0  0
 20  2  1  1  0  0  0
 20 23  1  0  0  0  0
 21 22  1  0  0  0  0
 21 24  2  0  0  0  0
 23  3  1  1  0  0  0
 23 25  1  0  0  0  0
 24 27  1  0  0  0  0
 24 26  1  0  0  0  0
M  CHG  2  10  -1  15  -1
M  END
>  <CHROM.1>
78.02584566,175.90356094,72.79622959,90.24120229,-29.02791120,106.43107250
-142.73229719,-53.45952708,-6.69479763,40.87884291,-6.78732065,2.40161625
0.56572183,1.55469496

>  <Name>
ligand

>  <RI>
0

>  <Rbt.Current_Directory>
/home/itssahil/PROJECTS/Mol_Feturizer/New_Systems/rnas/3D2V

>  <Rbt.Executable>
rbdock ($Id: //depot/dev/client3/rdock/2013.1/src/exe/rbdock.cxx#4 $)

>  <Rbt.Library>
libRbt.so (2013.1, Build901 2013/11/27)

>  <Rbt.Parameter_File>
/export/apps/rDock/src/rDock_2013.1_src/data/scripts/dock_solv.prm

>  <Rbt.Receptor>
prm/pocket_docking_4.prm

>  <SCORE>
-17.0107

>  <SCORE.INTER>
-17.7022

>  <SCORE.INTER.CONST>
1

>  <SCORE.INTER.POLAR>
0

>  <SCORE.INTER.ROT>
8

>  <SCORE.INTER.SOLV>
21.2008

>  <SCORE.INTER.VDW>
-27.8018

>  <SCORE.INTER.norm>
-0.655638

>  <SCORE.INTRA>
0.691495

>  <SCORE.INTRA.DIHEDRAL>
1.31084

>  <SCORE.INTRA.DIHEDRAL.0>
7.82666

>  <SCORE.INTRA.POLAR>
0

>  <SCORE.INTRA.POLAR.0>
0

>  <SCORE.INTRA.REPUL>
0

>  <SCORE.INTRA.REPUL.0>
0

>  <SCORE.INTRA.SOLV>
-1.72728

>  <SCORE.INTRA.SOLV.lig_0>
-83.2758

>  <SCORE.INTRA.VDW>
0.899716

>  <SCORE.INTRA.VDW.0>
-3.26816

>  <SCORE.INTRA.norm>
0.0256109

>  <SCORE.RESTR>
0

>  <SCORE.RESTR.CAVITY>
0

>  <SCORE.RESTR.norm>
0

>  <SCORE.SYSTEM>
0

>  <SCORE.SYSTEM.CONST>
0

>  <SCORE.SYSTEM.DIHEDRAL>
0

>  <SCORE.SYSTEM.SOLV>
0

>  <SCORE.SYSTEM.norm>
0

>  <SCORE.heavy>
27

>  <SCORE.norm>
-0.630027

>  <RMSD>
1.974

$$$$
ligand
 OpenBabel11021811463D
libRbt.so/2013.1/901 2013/11/27
 27 28  0  0  0  0  0  0  0  0999 V2000
  -12.6904   37.2531   -2.0114 C   0  0  0  0  0  0  0  0  0  0  0  0
   -7.3381   41.3268   -5.1315 C   0  0  0  0  0  0  0  0  0  0  0  0
   -5.7849   40.1742   -7.4194 C   0  0  0  0  0  0  0  0  0  0  0  0
   -4.3047   40.3905   -7.7400 C   0  0  0  0  0  0  0  0  0  0  0  0
   -4.1519   41.0848   -8.9805 O   0  0  0  0  0  0  0  0  0  0  0  0
   -4.5280   42.6432   -9.0809 P   0  0  1  0  0  0  0  0  0  0  0  0
   -3.0252   45.0282   -8.9836 P   0  0  2  0  0  0  0  0  0  0  0  0
   -5.4448   37.4706   -4.7688 C   0  0  0  0  0  0  0  0  0  0  0  0
  -10.6653   38.4068   -1.1425 N   0  0  0  0  0  0  0  0  0  0  0  0
   -4.7682   43.0820  -10.6030 O   0  5  0  0  0  0  0  0  0  0  0  0
   -4.2246   45.8755   -9.1451 O   0  0  0  0  0  0  0  0  0  0  0  0
   -6.1604   37.9859   -3.6962 C   0  0  0  0  0  0  0  0  0  0  0  0
  -11.3278   37.9197   -2.2030 C   0  0  0  0  0  0  0  0  0  0  0  0
   -5.8743   43.0210   -8.2695 O   0  0  0  0  0  0  0  0  0  0  0  0
   -2.2303   44.8618  -10.3679 O   0  5  0  0  0  0  0  0  0  0  0  0
   -6.7766   39.2325   -3.8145 N   0  0  0  0  0  0  0  0  0  0  0  0
  -10.8051   38.0117   -3.4344 N   0  0  0  0  0  0  0  0  0  0  0  0
   -3.3305   43.5495   -8.4554 O   0  0  0  0  0  0  0  0  0  0  0  0
   -1.9853   45.6981   -7.9768 O   0  0  0  0  0  0  0  0  0  0  0  0
   -6.6613   39.9546   -5.0084 C   0  0  1  0  0  0  0  0  0  0  0  0
   -9.6133   38.5921   -3.6221 C   0  0  0  0  0  0  0  0  0  0  0  0
   -9.1063   38.6792   -4.8476 N   0  0  0  0  0  0  0  0  0  0  0  0
   -5.9430   39.4363   -6.0847 C   0  0  1  0  0  0  0  0  0  0  0  0
   -8.9086   39.1064   -2.5406 C   0  0  0  0  0  0  0  0  0  0  0  0
   -5.3381   38.1925   -5.9513 C   0  0  0  0  0  0  0  0  0  0  0  0
   -9.4856   38.9882   -1.2814 C   0  0  0  0  0  0  0  0  0  0  0  0
   -7.5385   39.7847   -2.6697 C   0  0  0  0  0  0  0  0  0  0  0  0
  1 13  1  0  0  0  0
  3  4  1  0  0  0  0
  4  5  1  0  0  0  0
  6  5  1  1  0  0  0
  6 10  1  0  0  0  0
  6 14  2  0  0  0  0
  6 18  1  0  0  0  0
  7 11  1  6  0  0  0
  7 15  1  0  0  0  0
  7 19  2  0  0  0  0
  7 18  1  0  0  0  0
  8 25  1  0  0  0  0
  8 12  1  0  0  0  0
  9 26  2  0  0  0  0
  9 13  1  0  0  0  0
 12 16  1  0  0  0  0
 13 17  2  0  0  0  0
 16 20  1  0  0  0  0
 16 27  1  0  0  0  0
 17 21  1  0  0  0  0
 20  2  1  6  0  0  0
 20 23  1  0  0  0  0
 21 22  1  0  0  0  0
 21 24  2  0  0  0  0
 23  3  1  6  0  0  0
 23 25  1  0  0  0  0
 24 27  1  0  0  0  0
 24 26  1  0  0  0  0
M  CHG  2  10  -1  15  -1
M  END
>  <CHROM.1>
-179.68867825,71.77242804,-160.42125370,150.09317450,46.00124750,122.05590327
-29.69609801,-76.78610016,-6.23546683,41.04364538,-6.20509715,2.42291722
-0.68009573,2.92930556

>  <Name>
ligand

>  <RI>
0

>  <Rbt.Current_Directory>
/home/itssahil/PROJECTS/Mol_Feturizer/New_Systems/rnas/3D2V

>  <Rbt.Executable>
rbdock ($Id: //depot/dev/client3/rdock/2013.1/src/exe/rbdock.cxx#4 $)

>  <Rbt.Library>
libRbt.so (2013.1, Build901 2013/11/27)

>  <Rbt.Parameter_File>
/export/apps/rDock/src/rDock_2013.1_src/data/scripts/dock_solv.prm

>  <Rbt.Receptor>
prm/pocket_docking_2.prm

>  <SCORE>
-16.0011

>  <SCORE.INTER>
-18.9251

>  <SCORE.INTER.CONST>
1

>  <SCORE.INTER.POLAR>
0

>  <SCORE.INTER.ROT>
8

>  <SCORE.INTER.SOLV>
12.3232

>  <SCORE.INTER.VDW>
-25.6578

>  <SCORE.INTER.norm>
-0.700931

>  <SCORE.INTRA>
2.89889

>  <SCORE.INTRA.DIHEDRAL>
0.0735961

>  <SCORE.INTRA.DIHEDRAL.0>
7.82666

>  <SCORE.INTRA.POLAR>
0

>  <SCORE.INTRA.POLAR.0>
0

>  <SCORE.INTRA.REPUL>
0

>  <SCORE.INTRA.REPUL.0>
0

>  <SCORE.INTRA.SOLV>
4.91173

>  <SCORE.INTRA.SOLV.lig_0>
-83.2758

>  <SCORE.INTRA.VDW>
0.406227

>  <SCORE.INTRA.VDW.0>
-3.26816

>  <SCORE.INTRA.norm>
0.107366

>  <SCORE.RESTR>
0.0251124

>  <SCORE.RESTR.CAVITY>
0.0251124

>  <SCORE.RESTR.norm>
0.000930088

>  <SCORE.SYSTEM>
0

>  <SCORE.SYSTEM.CONST>
0

>  <SCORE.SYSTEM.DIHEDRAL>
0

>  <SCORE.SYSTEM.SOLV>
0

>  <SCORE.SYSTEM.norm>
0

>  <SCORE.heavy>
27

>  <SCORE.norm>
-0.592635

>  <RMSD>
2.016

$$$$
ligand
 OpenBabel11021811473D
libRbt.so/2013.1/901 2013/11/27
 27 28  0  0  0  0  0  0  0  0999 V2000
  -11.9917   37.6260   -1.9051 C   0  0  0  0  0  0  0  0  0  0  0  0
   -5.8080   41.1816   -5.1209 C   0  0  0  0  0  0  0  0  0  0  0  0
   -4.4662   39.6472   -7.3165 C   0  0  0  0  0  0  0  0  0  0  0  0
   -5.4635   39.4203   -8.4543 C   0  0  0  0  0  0  0  0  0  0  0  0
   -5.0441   40.1032   -9.6384 O   0  0  0  0  0  0  0  0  0  0  0  0
   -5.0465   41.7088   -9.6837 P   0  0  1  0  0  0  0  0  0  0  0  0
   -3.5325   43.8566   -8.6584 P   0  0  2  0  0  0  0  0  0  0  0  0
   -5.1865   36.9311   -4.7563 C   0  0  0  0  0  0  0  0  0  0  0  0
  -10.0801   38.2942   -3.3495 N   0  0  0  0  0  0  0  0  0  0  0  0
   -4.7844   42.2446  -11.1708 O   0  5  0  0  0  0  0  0  0  0  0  0
   -2.3422   44.1838   -7.8469 O   0  0  0  0  0  0  0  0  0  0  0  0
   -5.8111   37.6228   -3.7270 C   0  0  0  0  0  0  0  0  0  0  0  0
  -10.5845   38.1875   -2.1105 C   0  0  0  0  0  0  0  0  0  0  0  0
   -6.4477   42.3518   -9.1974 O   0  0  0  0  0  0  0  0  0  0  0  0
   -4.8415   44.6098   -8.1153 O   0  5  0  0  0  0  0  0  0  0  0  0
   -6.0159   38.9981   -3.8462 N   0  0  0  0  0  0  0  0  0  0  0  0
   -9.8642   38.5698   -1.0460 N   0  0  0  0  0  0  0  0  0  0  0  0
   -3.8912   42.2982   -8.7016 O   0  0  0  0  0  0  0  0  0  0  0  0
   -3.3516   44.3548  -10.1627 O   0  0  0  0  0  0  0  0  0  0  0  0
   -5.5833   39.6683   -4.9968 C   0  0  1  0  0  0  0  0  0  0  0  0
   -8.6301   39.0635   -1.2059 C   0  0  0  0  0  0  0  0  0  0  0  0
   -7.9251   39.4373   -0.1430 N   0  0  0  0  0  0  0  0  0  0  0  0
   -4.9569   38.9730   -6.0298 C   0  0  2  0  0  0  0  0  0  0  0  0
   -8.0843   39.1820   -2.4782 C   0  0  0  0  0  0  0  0  0  0  0  0
   -4.7634   37.6035   -5.8964 C   0  0  0  0  0  0  0  0  0  0  0  0
   -8.8656   38.7760   -3.5541 C   0  0  0  0  0  0  0  0  0  0  0  0
   -6.6799   39.7380   -2.7474 C   0  0  0  0  0  0  0  0  0  0  0  0
  1 13  1  0  0  0  0
  3  4  1  0  0  0  0
  4  5  1  0  0  0  0
  6  5  1  1  0  0  0
  6 10  1  0  0  0  0
  6 14  2  0  0  0  0
  6 18  1  0  0  0  0
  7 11  1  1  0  0  0
  7 15  1  0  0  0  0
  7 19  2  0  0  0  0
  7 18  1  0  0  0  0
  8 25  1  0  0  0  0
  8 12  1  0  0  0  0
  9 26  2  0  0  0  0
  9 13  1  0  0  0  0
 12 16  1  0  0  0  0
 13 17  2  0  0  0  0
 16 20  1  0  0  0  0
 16 27  1  0  0  0  0
 17 21  1  0  0  0  0
 20  2  1  6  0  0  0
 20 23  1  0  0  0  0
 21 22  1  0  0  0  0
 21 24  2  0  0  0  0
 23  3  1  1  0  0  0
 23 25  1  0  0  0  0
 24 27  1  0  0  0  0
 24 26  1  0  0  0  0
M  CHG  2  10  -1  15  -1
M  END
>  <CHROM.1>
177.09652837,-68.00071941,-170.27508349,172.81025320,-172.21077108,-100.33681572
142.09431740,-59.18843385,-6.05148252,40.55123428,-6.10818261,2.97128088
-1.04169629,-2.78067038

>  <Name>
ligand

>  <RI>
0

>  <Rbt.Current_Directory>
/home/itssahil/PROJECTS/Mol_Feturizer/New_Systems/rnas/3D2V

>  <Rbt.Executable>
rbdock ($Id: //depot/dev/client3/rdock/2013.1/src/exe/rbdock.cxx#4 $)

>  <Rbt.Library>
libRbt.so (2013.1, Build901 2013/11/27)

>  <Rbt.Parameter_File>
/export/apps/rDock/src/rDock_2013.1_src/data/scripts/dock_solv.prm

>  <Rbt.Receptor>
prm/pocket_docking_8.prm

>  <SCORE>
-20.4602

>  <SCORE.INTER>
-20.5822

>  <SCORE.INTER.CONST>
1

>  <SCORE.INTER.POLAR>
0

>  <SCORE.INTER.ROT>
8

>  <SCORE.INTER.SOLV>
14.7818

>  <SCORE.INTER.VDW>
-27.5821

>  <SCORE.INTER.norm>
-0.762304

>  <SCORE.INTRA>
0.122006

>  <SCORE.INTRA.DIHEDRAL>
-1.99322

>  <SCORE.INTRA.DIHEDRAL.0>
7.82666

>  <SCORE.INTRA.POLAR>
0

>  <SCORE.INTRA.POLAR.0>
0

>  <SCORE.INTRA.REPUL>
0

>  <SCORE.INTRA.REPUL.0>
0

>  <SCORE.INTRA.SOLV>
2.54919

>  <SCORE.INTRA.SOLV.lig_0>
-83.2758

>  <SCORE.INTRA.VDW>
-0.155975

>  <SCORE.INTRA.VDW.0>
-3.26816

>  <SCORE.INTRA.norm>
0.00451873

>  <SCORE.RESTR>
0

>  <SCORE.RESTR.CAVITY>
0

>  <SCORE.RESTR.norm>
0

>  <SCORE.SYSTEM>
0

>  <SCORE.SYSTEM.CONST>
0

>  <SCORE.SYSTEM.DIHEDRAL>
0

>  <SCORE.SYSTEM.SOLV>
0

>  <SCORE.SYSTEM.norm>
0

>  <SCORE.heavy>
27

>  <SCORE.norm>
-0.757785

>  <RMSD>
2.016

$$$$
ligand
 OpenBabel11021811473D
libRbt.so/2013.1/901 2013/11/27
 27 28  0  0  0  0  0  0  0  0999 V2000
  -12.5154   37.3673   -1.9982 C   0  0  0  0  0  0  0  0  0  0  0  0
   -7.0522   41.3949   -5.3659 C   0  0  0  0  0  0  0  0  0  0  0  0
   -5.4402   40.0635   -7.5116 C   0  0  0  0  0  0  0  0  0  0  0  0
   -4.0050   40.5872   -7.5930 C   0  0  0  0  0  0  0  0  0  0  0  0
   -3.6544   40.8946   -8.9446 O   0  0  0  0  0  0  0  0  0  0  0  0
   -4.2102   42.2346   -9.6341 P   0  0  1  0  0  0  0  0  0  0  0  0
   -3.0220   44.7904   -9.7443 P   0  0  2  0  0  0  0  0  0  0  0  0
   -5.3454   37.4898   -4.7156 C   0  0  0  0  0  0  0  0  0  0  0  0
  -10.4273   38.4557   -1.1969 N   0  0  0  0  0  0  0  0  0  0  0  0
   -3.8416   42.2772  -11.1928 O   0  5  0  0  0  0  0  0  0  0  0  0
   -4.0238   45.4193  -10.6293 O   0  0  0  0  0  0  0  0  0  0  0  0
   -6.0898   38.0885   -3.7078 C   0  0  0  0  0  0  0  0  0  0  0  0
  -11.1739   38.0601   -2.2395 C   0  0  0  0  0  0  0  0  0  0  0  0
   -5.8173   42.3771   -9.5318 O   0  0  0  0  0  0  0  0  0  0  0  0
   -1.7551   44.2575  -10.5730 O   0  5  0  0  0  0  0  0  0  0  0  0
   -6.6456   39.3510   -3.9193 N   0  0  0  0  0  0  0  0  0  0  0  0
  -10.7541   38.2668   -3.4961 N   0  0  0  0  0  0  0  0  0  0  0  0
   -3.5736   43.5435   -8.9076 O   0  0  0  0  0  0  0  0  0  0  0  0
   -2.4334   45.8490   -8.7065 O   0  0  0  0  0  0  0  0  0  0  0  0
   -6.4415   40.0049   -5.1403 C   0  0  1  0  0  0  0  0  0  0  0  0
   -9.5825   38.8721   -3.7273 C   0  0  0  0  0  0  0  0  0  0  0  0
   -9.1778   39.0732   -4.9771 N   0  0  0  0  0  0  0  0  0  0  0  0
   -5.6946   39.4029   -6.1515 C   0  0  2  0  0  0  0  0  0  0  0  0
   -8.7920   39.2932   -2.6649 C   0  0  0  0  0  0  0  0  0  0  0  0
   -5.1506   38.1444   -5.9257 C   0  0  0  0  0  0  0  0  0  0  0  0
   -9.2637   39.0575   -1.3786 C   0  0  0  0  0  0  0  0  0  0  0  0
   -7.4380   39.9922   -2.8437 C   0  0  0  0  0  0  0  0  0  0  0  0
  1 13  1  0  0  0  0
  3  4  1  0  0  0  0
  4  5  1  0  0  0  0
  6  5  1  1  0  0  0
  6 10  1  0  0  0  0
  6 14  2  0  0  0  0
  6 18  1  0  0  0  0
  7 11  1  6  0  0  0
  7 15  1  0  0  0  0
  7 19  2  0  0  0  0
  7 18  1  0  0  0  0
  8 25  1  0  0  0  0
  8 12  1  0  0  0  0
  9 26  2  0  0  0  0
  9 13  1  0  0  0  0
 12 16  1  0  0  0  0
 13 17  2  0  0  0  0
 16 20  1  0  0  0  0
 16 27  1  0  0  0  0
 17 21  1  0  0  0  0
 20  2  1  6  0  0  0
 20 23  1  0  0  0  0
 21 22  1  0  0  0  0
 21 24  2  0  0  0  0
 23  3  1  1  0  0  0
 23 25  1  0  0  0  0
 24 27  1  0  0  0  0
 24 26  1  0  0  0  0
M  CHG  2  10  -1  15  -1
M  END
>  <CHROM.1>
165.43950188,76.19211861,-172.91210864,136.02251803,58.19771749,104.92483944
-41.86892760,-71.60497145,-6.06031431,40.96225856,-6.52573587,2.34976254
-0.60474970,2.72874486

>  <Name>
ligand

>  <RI>
0

>  <Rbt.Current_Directory>
/home/itssahil/PROJECTS/Mol_Feturizer/New_Systems/rnas/3D2V

>  <Rbt.Executable>
rbdock ($Id: //depot/dev/client3/rdock/2013.1/src/exe/rbdock.cxx#4 $)

>  <Rbt.Library>
libRbt.so (2013.1, Build901 2013/11/27)

>  <Rbt.Parameter_File>
/export/apps/rDock/src/rDock_2013.1_src/data/scripts/dock_solv.prm

>  <Rbt.Receptor>
prm/pocket_docking_4.prm

>  <SCORE>
-18.9688

>  <SCORE.INTER>
-21.4589

>  <SCORE.INTER.CONST>
1

>  <SCORE.INTER.POLAR>
0

>  <SCORE.INTER.ROT>
8

>  <SCORE.INTER.SOLV>
15.373

>  <SCORE.INTER.VDW>
-28.3636

>  <SCORE.INTER.norm>
-0.794773

>  <SCORE.INTRA>
2.49007

>  <SCORE.INTRA.DIHEDRAL>
1.4108

>  <SCORE.INTRA.DIHEDRAL.0>
7.82666

>  <SCORE.INTRA.POLAR>
0

>  <SCORE.INTRA.POLAR.0>
0

>  <SCORE.INTRA.REPUL>
0

>  <SCORE.INTRA.REPUL.0>
0

>  <SCORE.INTRA.SOLV>
3.97282

>  <SCORE.INTRA.SOLV.lig_0>
-83.2758

>  <SCORE.INTRA.VDW>
-0.201744

>  <SCORE.INTRA.VDW.0>
-3.26816

>  <SCORE.INTRA.norm>
0.0922246

>  <SCORE.RESTR>
0

>  <SCORE.RESTR.CAVITY>
0

>  <SCORE.RESTR.norm>
0

>  <SCORE.SYSTEM>
0

>  <SCORE.SYSTEM.CONST>
0

>  <SCORE.SYSTEM.DIHEDRAL>
0

>  <SCORE.SYSTEM.SOLV>
0

>  <SCORE.SYSTEM.norm>
0

>  <SCORE.heavy>
27

>  <SCORE.norm>
-0.702548

>  <RMSD>
2.027

$$$$
ligand
 OpenBabel11021811473D
libRbt.so/2013.1/901 2013/11/27
 27 28  0  0  0  0  0  0  0  0999 V2000
  -12.9978   37.4943   -1.8374 C   0  0  0  0  0  0  0  0  0  0  0  0
   -7.1965   42.2393   -4.9307 C   0  0  0  0  0  0  0  0  0  0  0  0
   -7.2923   42.4639   -7.9167 C   0  0  0  0  0  0  0  0  0  0  0  0
   -6.0885   42.2038   -8.8242 C   0  0  0  0  0  0  0  0  0  0  0  0
   -5.8378   43.3308   -9.6676 O   0  0  0  0  0  0  0  0  0  0  0  0
   -4.6251   43.2928  -10.7202 P   0  0  1  0  0  0  0  0  0  0  0  0
   -2.9095   44.5412   -8.8616 P   0  0  2  0  0  0  0  0  0  0  0  0
   -8.5010   38.9069   -7.3349 C   0  0  0  0  0  0  0  0  0  0  0  0
  -11.4402   38.2450   -3.6256 N   0  0  0  0  0  0  0  0  0  0  0  0
   -4.6481   41.9401  -11.5785 O   0  5  0  0  0  0  0  0  0  0  0  0
   -3.8366   44.5453   -7.7115 O   0  0  0  0  0  0  0  0  0  0  0  0
   -8.4648   38.7815   -5.9525 C   0  0  0  0  0  0  0  0  0  0  0  0
  -11.6712   38.0874   -2.3130 C   0  0  0  0  0  0  0  0  0  0  0  0
   -4.6682   44.5155  -11.7770 O   0  0  0  0  0  0  0  0  0  0  0  0
   -2.9510   45.9344   -9.6573 O   0  5  0  0  0  0  0  0  0  0  0  0
   -8.0461   39.8613   -5.1736 N   0  0  0  0  0  0  0  0  0  0  0  0
  -10.7469   38.4462   -1.4103 N   0  0  0  0  0  0  0  0  0  0  0  0
   -3.2020   43.3951   -9.9386 O   0  0  0  0  0  0  0  0  0  0  0  0
   -1.3992   44.3766   -8.3759 O   0  0  0  0  0  0  0  0  0  0  0  0
   -7.6595   41.0563   -5.7922 C   0  0  1  0  0  0  0  0  0  0  0  0
   -9.5793   38.9670   -1.8075 C   0  0  0  0  0  0  0  0  0  0  0  0
   -8.6701   39.3172   -0.9035 N   0  0  0  0  0  0  0  0  0  0  0  0
   -7.6966   41.1813   -7.1800 C   0  0  1  0  0  0  0  0  0  0  0  0
   -9.3149   39.1382   -3.1609 C   0  0  0  0  0  0  0  0  0  0  0  0
   -8.1187   40.0977   -7.9405 C   0  0  0  0  0  0  0  0  0  0  0  0
  -10.3010   38.7551   -4.0628 C   0  0  0  0  0  0  0  0  0  0  0  0
   -8.0045   39.7280   -3.6984 C   0  0  0  0  0  0  0  0  0  0  0  0
  1 13  1  0  0  0  0
  3  4  1  0  0  0  0
  4  5  1  0  0  0  0
  6  5  1  1  0  0  0
  6 10  1  0  0  0  0
  6 14  2  0  0  0  0
  6 18  1  0  0  0  0
  7 11  1  1  0  0  0
  7 15  1  0  0  0  0
  7 19  2  0  0  0  0
  7 18  1  0  0  0  0
  8 25  1  0  0  0  0
  8 12  1  0  0  0  0
  9 26  2  0  0  0  0
  9 13  1  0  0  0  0
 12 16  1  0  0  0  0
 13 17  2  0  0  0  0
 16 20  1  0  0  0  0
 16 27  1  0  0  0  0
 17 21  1  0  0  0  0
 20  2  1  1  0  0  0
 20 23  1  0  0  0  0
 21 22  1  0  0  0  0
 21 24  2  0  0  0  0
 23  3  1  1  0  0  0
 23 25  1  0  0  0  0
 24 27  1  0  0  0  0
 24 26  1  0  0  0  0
M  CHG  2  10  -1  15  -1
M  END
>  <CHROM.1>
170.89311694,-179.59236603,48.78371710,-50.97479218,59.54594854,117.56418676
-176.59951636,-48.66350432,-6.78443681,41.53733601,-6.81814919,2.44252583
0.66968454,1.58945718

>  <Name>
ligand

>  <RI>
0

>  <Rbt.Current_Directory>
/home/itssahil/PROJECTS/Mol_Feturizer/New_Systems/rnas/3D2V

>  <Rbt.Executable>
rbdock ($Id: //depot/dev/client3/rdock/2013.1/src/exe/rbdock.cxx#4 $)

>  <Rbt.Library>
libRbt.so (2013.1, Build901 2013/11/27)

>  <Rbt.Parameter_File>
/export/apps/rDock/src/rDock_2013.1_src/data/scripts/dock_solv.prm

>  <Rbt.Receptor>
prm/pocket_docking_3.prm

>  <SCORE>
-17.4368

>  <SCORE.INTER>
-16.882

>  <SCORE.INTER.CONST>
1

>  <SCORE.INTER.POLAR>
0

>  <SCORE.INTER.ROT>
8

>  <SCORE.INTER.SOLV>
18.6671

>  <SCORE.INTER.VDW>
-26.4104

>  <SCORE.INTER.norm>
-0.625259

>  <SCORE.INTRA>
-0.554836

>  <SCORE.INTRA.DIHEDRAL>
-1.99234

>  <SCORE.INTRA.DIHEDRAL.0>
7.82666

>  <SCORE.INTRA.POLAR>
0

>  <SCORE.INTRA.POLAR.0>
0

>  <SCORE.INTRA.REPUL>
0

>  <SCORE.INTRA.REPUL.0>
0

>  <SCORE.INTRA.SOLV>
-2.18042

>  <SCORE.INTRA.SOLV.lig_0>
-83.2758

>  <SCORE.INTRA.VDW>
1.53155

>  <SCORE.INTRA.VDW.0>
-3.26816

>  <SCORE.INTRA.norm>
-0.0205495

>  <SCORE.RESTR>
0

>  <SCORE.RESTR.CAVITY>
0

>  <SCORE.RESTR.norm>
0

>  <SCORE.SYSTEM>
0

>  <SCORE.SYSTEM.CONST>
0

>  <SCORE.SYSTEM.DIHEDRAL>
0

>  <SCORE.SYSTEM.SOLV>
0

>  <SCORE.SYSTEM.norm>
0

>  <SCORE.heavy>
27

>  <SCORE.norm>
-0.645808

>  <RMSD>
2.029

$$$$
ligand
 OpenBabel11021811463D
libRbt.so/2013.1/901 2013/11/27
 27 28  0  0  0  0  0  0  0  0999 V2000
  -12.1557   37.3299   -2.0659 C   0  0  0  0  0  0  0  0  0  0  0  0
   -7.7806   41.5511   -5.9488 C   0  0  0  0  0  0  0  0  0  0  0  0
   -6.5193   40.3656   -8.3940 C   0  0  0  0  0  0  0  0  0  0  0  0
   -5.3370   41.2767   -8.7295 C   0  0  0  0  0  0  0  0  0  0  0  0
   -5.4918   41.8480  -10.0310 O   0  0  0  0  0  0  0  0  0  0  0  0
   -4.5355   43.0504  -10.4998 P   0  0  1  0  0  0  0  0  0  0  0  0
   -2.9348   43.4224   -8.2072 P   0  0  2  0  0  0  0  0  0  0  0  0
   -5.3707   37.9880   -5.6592 C   0  0  0  0  0  0  0  0  0  0  0  0
  -10.5938   38.4101   -3.6724 N   0  0  0  0  0  0  0  0  0  0  0  0
   -4.2762   42.9990  -12.0800 O   0  5  0  0  0  0  0  0  0  0  0  0
   -1.9550   44.5099   -8.0080 O   0  0  0  0  0  0  0  0  0  0  0  0
   -5.9466   38.5205   -4.5133 C   0  0  0  0  0  0  0  0  0  0  0  0
  -10.8781   38.1016   -2.3977 C   0  0  0  0  0  0  0  0  0  0  0  0
   -5.1516   44.5096  -10.1763 O   0  0  0  0  0  0  0  0  0  0  0  0
   -2.5349   42.1090   -7.3760 O   0  5  0  0  0  0  0  0  0  0  0  0
   -6.7299   39.6717   -4.6072 N   0  0  0  0  0  0  0  0  0  0  0  0
  -10.0500   38.4645   -1.4075 N   0  0  0  0  0  0  0  0  0  0  0  0
   -3.1054   42.9611   -9.7295 O   0  0  0  0  0  0  0  0  0  0  0  0
   -4.3737   43.8447   -7.6639 O   0  0  0  0  0  0  0  0  0  0  0  0
   -6.9211   40.2830   -5.8521 C   0  0  1  0  0  0  0  0  0  0  0  0
   -8.9264   39.1403   -1.6783 C   0  0  0  0  0  0  0  0  0  0  0  0
   -8.1124   39.4929   -0.6886 N   0  0  0  0  0  0  0  0  0  0  0  0
   -6.3430   39.7475   -7.0019 C   0  0  2  0  0  0  0  0  0  0  0  0
   -8.6083   39.4698   -2.9902 C   0  0  0  0  0  0  0  0  0  0  0  0
   -5.5684   38.5992   -6.8914 C   0  0  0  0  0  0  0  0  0  0  0  0
   -9.4951   39.0763   -3.9858 C   0  0  0  0  0  0  0  0  0  0  0  0
   -7.3429   40.2425   -3.3847 C   0  0  0  0  0  0  0  0  0  0  0  0
  1 13  1  0  0  0  0
  3  4  1  0  0  0  0
  4  5  1  0  0  0  0
  6  5  1  1  0  0  0
  6 10  1  0  0  0  0
  6 14  2  0  0  0  0
  6 18  1  0  0  0  0
  7 11  1  1  0  0  0
  7 15  1  0  0  0  0
  7 19  2  0  0  0  0
  7 18  1  0  0  0  0
  8 25  1  0  0  0  0
  8 12  1  0  0  0  0
  9 26  2  0  0  0  0
  9 13  1  0  0  0  0
 12 16  1  0  0  0  0
 13 17  2  0  0  0  0
 16 20  1  0  0  0  0
 16 27  1  0  0  0  0
 17 21  1  0  0  0  0
 20  2  1  6  0  0  0
 20 23  1  0  0  0  0
 21 22  1  0  0  0  0
 21 24  2  0  0  0  0
 23  3  1  1  0  0  0
 23 25  1  0  0  0  0
 24 27  1  0  0  0  0
 24 26  1  0  0  0  0
M  CHG  2  10  -1  15  -1
M  END
>  <CHROM.1>
179.57265921,168.25504422,148.30928755,-76.93222257,-120.18886735,95.94172634
138.60748450,-79.52225672,-6.20424874,40.99977785,-6.49899973,2.27756782
0.51298660,1.75744177

>  <Name>
ligand

>  <RI>
0

>  <Rbt.Current_Directory>
/home/itssahil/PROJECTS/Mol_Feturizer/New_Systems/rnas/3D2V

>  <Rbt.Executable>
rbdock ($Id: //depot/dev/client3/rdock/2013.1/src/exe/rbdock.cxx#4 $)

>  <Rbt.Library>
libRbt.so (2013.1, Build901 2013/11/27)

>  <Rbt.Parameter_File>
/export/apps/rDock/src/rDock_2013.1_src/data/scripts/dock_solv.prm

>  <Rbt.Receptor>
prm/pocket_docking_2.prm

>  <SCORE>
-11.718

>  <SCORE.INTER>
-14.8757

>  <SCORE.INTER.CONST>
1

>  <SCORE.INTER.POLAR>
0

>  <SCORE.INTER.ROT>
8

>  <SCORE.INTER.SOLV>
14.7185

>  <SCORE.INTER.VDW>
-23.7566

>  <SCORE.INTER.norm>
-0.550951

>  <SCORE.INTRA>
1.95374

>  <SCORE.INTRA.DIHEDRAL>
2.1345

>  <SCORE.INTRA.DIHEDRAL.0>
7.82666

>  <SCORE.INTRA.POLAR>
0

>  <SCORE.INTRA.POLAR.0>
0

>  <SCORE.INTRA.REPUL>
0

>  <SCORE.INTRA.REPUL.0>
0

>  <SCORE.INTRA.SOLV>
1.7094

>  <SCORE.INTRA.SOLV.lig_0>
-83.2758

>  <SCORE.INTRA.VDW>
0.0317839

>  <SCORE.INTRA.VDW.0>
-3.26816

>  <SCORE.INTRA.norm>
0.0723607

>  <SCORE.RESTR>
1.20393

>  <SCORE.RESTR.CAVITY>
1.20393

>  <SCORE.RESTR.norm>
0.0445901

>  <SCORE.SYSTEM>
0

>  <SCORE.SYSTEM.CONST>
0

>  <SCORE.SYSTEM.DIHEDRAL>
0

>  <SCORE.SYSTEM.SOLV>
0

>  <SCORE.SYSTEM.norm>
0

>  <SCORE.heavy>
27

>  <SCORE.norm>
-0.434

>  <RMSD>
2.042

$$$$
ligand
 OpenBabel11021811473D
libRbt.so/2013.1/901 2013/11/27
 27 28  0  0  0  0  0  0  0  0999 V2000
  -13.7125   37.3387   -1.8617 C   0  0  0  0  0  0  0  0  0  0  0  0
   -6.8464   41.4768   -3.1379 C   0  0  0  0  0  0  0  0  0  0  0  0
   -6.8652   43.1314   -5.6353 C   0  0  0  0  0  0  0  0  0  0  0  0
   -5.6651   43.0108   -6.5764 C   0  0  0  0  0  0  0  0  0  0  0  0
   -4.9662   44.2548   -6.6673 O   0  0  0  0  0  0  0  0  0  0  0  0
   -3.7497   44.4193   -7.7030 P   0  0  1  0  0  0  0  0  0  0  0  0
   -3.2506   43.9468  -10.4387 P   0  0  2  0  0  0  0  0  0  0  0  0
   -8.9992   40.1462   -6.6281 C   0  0  0  0  0  0  0  0  0  0  0  0
  -11.7980   37.6293   -3.4229 N   0  0  0  0  0  0  0  0  0  0  0  0
   -3.1161   45.8887   -7.6205 O   0  5  0  0  0  0  0  0  0  0  0  0
   -2.1402   44.9205  -10.4758 O   0  0  0  0  0  0  0  0  0  0  0  0
   -9.0042   39.3641   -5.4807 C   0  0  0  0  0  0  0  0  0  0  0  0
  -12.2815   37.7737   -2.1793 C   0  0  0  0  0  0  0  0  0  0  0  0
   -2.5443   43.3767   -7.4316 O   0  0  0  0  0  0  0  0  0  0  0  0
   -4.1286   44.0025  -11.7810 O   0  5  0  0  0  0  0  0  0  0  0  0
   -8.3106   39.7962   -4.3495 N   0  0  0  0  0  0  0  0  0  0  0  0
  -11.5197   38.2977   -1.2082 N   0  0  0  0  0  0  0  0  0  0  0  0
   -4.2683   44.1553   -9.2222 O   0  0  0  0  0  0  0  0  0  0  0  0
   -2.6967   42.4533  -10.3576 O   0  0  0  0  0  0  0  0  0  0  0  0
   -7.6106   41.0082   -4.3839 C   0  0  1  0  0  0  0  0  0  0  0  0
  -10.2643   38.6840   -1.4670 C   0  0  0  0  0  0  0  0  0  0  0  0
   -9.5181   39.2002   -0.4959 N   0  0  0  0  0  0  0  0  0  0  0  0
   -7.6065   41.7929   -5.5360 C   0  0  1  0  0  0  0  0  0  0  0  0
   -9.7394   38.5429   -2.7459 C   0  0  0  0  0  0  0  0  0  0  0  0
   -8.3047   41.3495   -6.6526 C   0  0  0  0  0  0  0  0  0  0  0  0
  -10.5637   37.9972   -3.7233 C   0  0  0  0  0  0  0  0  0  0  0  0
   -8.3129   38.9613   -3.1252 C   0  0  0  0  0  0  0  0  0  0  0  0
  1 13  1  0  0  0  0
  3  4  1  0  0  0  0
  4  5  1  0  0  0  0
  6  5  1  1  0  0  0
  6 10  1  0  0  0  0
  6 14  2  0  0  0  0
  6 18  1  0  0  0  0
  7 11  1  1  0  0  0
  7 15  1  0  0  0  0
  7 19  2  0  0  0  0
  7 18  1  0  0  0  0
  8 25  1  0  0  0  0
  8 12  1  0  0  0  0
  9 26  2  0  0  0  0
  9 13  1  0  0  0  0
 12 16  1  0  0  0  0
 13 17  2  0  0  0  0
 16 20  1  0  0  0  0
 16 27  1  0  0  0  0
 17 21  1  0  0  0  0
 20  2  1  1  0  0  0
 20 23  1  0  0  0  0
 21 22  1  0  0  0  0
 21 24  2  0  0  0  0
 23  3  1  1  0  0  0
 23 25  1  0  0  0  0
 24 27  1  0  0  0  0
 24 26  1  0  0  0  0
M  CHG  2  10  -1  15  -1
M  END
>  <CHROM.1>
-179.70679188,-174.22173176,-179.59308158,-167.11395127,-45.68722672,110.51127989
-130.49582122,-49.77517796,-6.80068939,41.62471350,-6.01582544,2.57970704
0.71054460,1.46438444

>  <Name>
ligand

>  <RI>
0

>  <Rbt.Current_Directory>
/home/itssahil/PROJECTS/Mol_Feturizer/New_Systems/rnas/3D2V

>  <Rbt.Executable>
rbdock ($Id: //depot/dev/client3/rdock/2013.1/src/exe/rbdock.cxx#4 $)

>  <Rbt.Library>
libRbt.so (2013.1, Build901 2013/11/27)

>  <Rbt.Parameter_File>
/export/apps/rDock/src/rDock_2013.1_src/data/scripts/dock_solv.prm

>  <Rbt.Receptor>
prm/pocket_docking_3.prm

>  <SCORE>
-17.0598

>  <SCORE.INTER>
-16.6089

>  <SCORE.INTER.CONST>
1

>  <SCORE.INTER.POLAR>
0

>  <SCORE.INTER.ROT>
8

>  <SCORE.INTER.SOLV>
20.5636

>  <SCORE.INTER.VDW>
-26.8605

>  <SCORE.INTER.norm>
-0.615144

>  <SCORE.INTRA>
-0.450906

>  <SCORE.INTRA.DIHEDRAL>
-1.88864

>  <SCORE.INTRA.DIHEDRAL.0>
7.82666

>  <SCORE.INTRA.POLAR>
0

>  <SCORE.INTRA.POLAR.0>
0

>  <SCORE.INTRA.REPUL>
0

>  <SCORE.INTRA.REPUL.0>
0

>  <SCORE.INTRA.SOLV>
-0.95184

>  <SCORE.INTRA.SOLV.lig_0>
-83.2758

>  <SCORE.INTRA.VDW>
0.969333

>  <SCORE.INTRA.VDW.0>
-3.26816

>  <SCORE.INTRA.norm>
-0.0167002

>  <SCORE.RESTR>
0

>  <SCORE.RESTR.CAVITY>
0

>  <SCORE.RESTR.norm>
0

>  <SCORE.SYSTEM>
0

>  <SCORE.SYSTEM.CONST>
0

>  <SCORE.SYSTEM.DIHEDRAL>
0

>  <SCORE.SYSTEM.SOLV>
0

>  <SCORE.SYSTEM.norm>
0

>  <SCORE.heavy>
27

>  <SCORE.norm>
-0.631845

>  <RMSD>
2.053

$$$$
ligand
 OpenBabel11021811473D
libRbt.so/2013.1/901 2013/11/27
 27 28  0  0  0  0  0  0  0  0999 V2000
  -12.9163   37.3270   -2.1009 C   0  0  0  0  0  0  0  0  0  0  0  0
   -8.0916   41.7168   -4.3485 C   0  0  0  0  0  0  0  0  0  0  0  0
   -6.9756   41.5514   -7.1239 C   0  0  0  0  0  0  0  0  0  0  0  0
   -5.7419   42.4519   -7.2111 C   0  0  0  0  0  0  0  0  0  0  0  0
   -4.6488   41.7555   -7.8149 O   0  0  0  0  0  0  0  0  0  0  0  0
   -3.3107   42.5502   -8.2120 P   0  0  1  0  0  0  0  0  0  0  0  0
   -1.7582   42.8790  -10.5440 P   0  0  2  0  0  0  0  0  0  0  0  0
   -5.7848   38.2887   -5.5787 C   0  0  0  0  0  0  0  0  0  0  0  0
  -10.8849   38.3982   -1.1454 N   0  0  0  0  0  0  0  0  0  0  0  0
   -3.5905   44.1223   -8.3430 O   0  5  0  0  0  0  0  0  0  0  0  0
   -1.1984   42.1569  -11.7049 O   0  0  0  0  0  0  0  0  0  0  0  0
   -6.2933   38.3447   -4.2878 C   0  0  0  0  0  0  0  0  0  0  0  0
  -11.5051   37.9018   -2.2270 C   0  0  0  0  0  0  0  0  0  0  0  0
   -2.1274   42.3770   -7.1241 O   0  0  0  0  0  0  0  0  0  0  0  0
   -0.6008   43.4292   -9.5779 O   0  5  0  0  0  0  0  0  0  0  0  0
   -7.0433   39.4525   -3.8903 N   0  0  0  0  0  0  0  0  0  0  0  0
  -10.8976   37.9045   -3.4224 N   0  0  0  0  0  0  0  0  0  0  0  0
   -2.7323   41.9995   -9.6293 O   0  0  0  0  0  0  0  0  0  0  0  0
   -2.5676   44.1710  -11.0124 O   0  0  0  0  0  0  0  0  0  0  0  0
   -7.2690   40.4992   -4.7923 C   0  0  1  0  0  0  0  0  0  0  0  0
   -9.6622   38.4038   -3.5526 C   0  0  0  0  0  0  0  0  0  0  0  0
   -9.0710   38.4027   -4.7430 N   0  0  0  0  0  0  0  0  0  0  0  0
   -6.7585   40.4419   -6.0881 C   0  0  1  0  0  0  0  0  0  0  0  0
   -8.9996   38.9257   -2.4484 C   0  0  0  0  0  0  0  0  0  0  0  0
   -6.0164   39.3304   -6.4686 C   0  0  0  0  0  0  0  0  0  0  0  0
   -9.6646   38.9015   -1.2279 C   0  0  0  0  0  0  0  0  0  0  0  0
   -7.5843   39.5147   -2.5122 C   0  0  0  0  0  0  0  0  0  0  0  0
  1 13  1  0  0  0  0
  3  4  1  0  0  0  0
  4  5  1  0  0  0  0
  6  5  1  1  0  0  0
  6 10  1  0  0  0  0
  6 14  2  0  0  0  0
  6 18  1  0  0  0  0
  7 11  1  6  0  0  0
  7 15  1  0  0  0  0
  7 19  2  0  0  0  0
  7 18  1  0  0  0  0
  8 25  1  0  0  0  0
  8 12  1  0  0  0  0
  9 26  2  0  0  0  0
  9 13  1  0  0  0  0
 12 16  1  0  0  0  0
 13 17  2  0  0  0  0
 16 20  1  0  0  0  0
 16 27  1  0  0  0  0
 17 21  1  0  0  0  0
 20  2  1  6  0  0  0
 20 23  1  0  0  0  0
 21 22  1  0  0  0  0
 21 24  2  0  0  0  0
 23  3  1  6  0  0  0
 23 25  1  0  0  0  0
 24 27  1  0  0  0  0
 24 26  1  0  0  0  0
M  CHG  2  10  -1  15  -1
M  END
>  <CHROM.1>
70.01385985,171.11435345,-20.38436938,157.95936968,172.63365379,99.74256566
0.24087219,-91.77631145,-5.92876852,40.81379973,-6.29629739,-2.97033888,0.80317185
0.32875598

>  <Name>
ligand

>  <RI>
0

>  <Rbt.Current_Directory>
/home/itssahil/PROJECTS/Mol_Feturizer/New_Systems/rnas/3D2V

>  <Rbt.Executable>
rbdock ($Id: //depot/dev/client3/rdock/2013.1/src/exe/rbdock.cxx#4 $)

>  <Rbt.Library>
libRbt.so (2013.1, Build901 2013/11/27)

>  <Rbt.Parameter_File>
/export/apps/rDock/src/rDock_2013.1_src/data/scripts/dock_solv.prm

>  <Rbt.Receptor>
prm/pocket_docking_4.prm

>  <SCORE>
-15.4154

>  <SCORE.INTER>
-19.8986

>  <SCORE.INTER.CONST>
1

>  <SCORE.INTER.POLAR>
0

>  <SCORE.INTER.ROT>
8

>  <SCORE.INTER.SOLV>
19.7198

>  <SCORE.INTER.VDW>
-28.7723

>  <SCORE.INTER.norm>
-0.736984

>  <SCORE.INTRA>
4.48318

>  <SCORE.INTRA.DIHEDRAL>
0.666395

>  <SCORE.INTRA.DIHEDRAL.0>
7.82666

>  <SCORE.INTRA.POLAR>
0

>  <SCORE.INTRA.POLAR.0>
0

>  <SCORE.INTRA.REPUL>
0

>  <SCORE.INTRA.REPUL.0>
0

>  <SCORE.INTRA.SOLV>
7.08945

>  <SCORE.INTRA.SOLV.lig_0>
-83.2758

>  <SCORE.INTRA.VDW>
0.605253

>  <SCORE.INTRA.VDW.0>
-3.26816

>  <SCORE.INTRA.norm>
0.166044

>  <SCORE.RESTR>
0

>  <SCORE.RESTR.CAVITY>
0

>  <SCORE.RESTR.norm>
0

>  <SCORE.SYSTEM>
0

>  <SCORE.SYSTEM.CONST>
0

>  <SCORE.SYSTEM.DIHEDRAL>
0

>  <SCORE.SYSTEM.SOLV>
0

>  <SCORE.SYSTEM.norm>
0

>  <SCORE.heavy>
27

>  <SCORE.norm>
-0.570941

>  <RMSD>
2.054

$$$$
ligand
 OpenBabel11021811463D
libRbt.so/2013.1/901 2013/11/27
 27 28  0  0  0  0  0  0  0  0999 V2000
  -12.9957   37.1489   -2.2548 C   0  0  0  0  0  0  0  0  0  0  0  0
   -5.8393   38.1421   -4.7560 C   0  0  0  0  0  0  0  0  0  0  0  0
   -5.5867   39.3710   -7.4765 C   0  0  0  0  0  0  0  0  0  0  0  0
   -4.3826   40.2957   -7.6660 C   0  0  0  0  0  0  0  0  0  0  0  0
   -4.7945   41.5630   -8.1841 O   0  0  0  0  0  0  0  0  0  0  0  0
   -3.9320   42.8801   -7.8656 P   0  0  1  0  0  0  0  0  0  0  0  0
   -3.4913   44.2188  -10.3090 P   0  0  2  0  0  0  0  0  0  0  0  0
   -8.1673   41.6131   -5.8138 C   0  0  0  0  0  0  0  0  0  0  0  0
  -11.0067   37.7924   -3.6027 N   0  0  0  0  0  0  0  0  0  0  0  0
   -4.2257   43.4182   -6.3854 O   0  5  0  0  0  0  0  0  0  0  0  0
   -3.3981   42.9800  -11.1086 O   0  0  0  0  0  0  0  0  0  0  0  0
   -8.2994   41.0598   -4.5470 C   0  0  0  0  0  0  0  0  0  0  0  0
  -11.5900   37.7337   -2.3955 C   0  0  0  0  0  0  0  0  0  0  0  0
   -2.3379   42.6292   -7.9620 O   0  0  0  0  0  0  0  0  0  0  0  0
   -2.0388   44.7851   -9.9278 O   0  5  0  0  0  0  0  0  0  0  0  0
   -7.5431   39.9384   -4.2029 N   0  0  0  0  0  0  0  0  0  0  0  0
  -10.9502   38.1843   -1.3067 N   0  0  0  0  0  0  0  0  0  0  0  0
   -4.2897   44.0550   -8.9325 O   0  0  0  0  0  0  0  0  0  0  0  0
   -4.1939   45.3835  -11.1419 O   0  0  0  0  0  0  0  0  0  0  0  0
   -6.6658   39.3776   -5.1388 C   0  0  1  0  0  0  0  0  0  0  0  0
   -9.7188   38.6994   -1.4099 C   0  0  0  0  0  0  0  0  0  0  0  0
   -9.0940   39.1412   -0.3233 N   0  0  0  0  0  0  0  0  0  0  0  0
   -6.5335   39.9340   -6.4100 C   0  0  2  0  0  0  0  0  0  0  0  0
   -9.0923   38.7693   -2.6482 C   0  0  0  0  0  0  0  0  0  0  0  0
   -7.2916   41.0521   -6.7354 C   0  0  0  0  0  0  0  0  0  0  0  0
   -9.7916   38.2930   -3.7512 C   0  0  0  0  0  0  0  0  0  0  0  0
   -7.6850   39.3454   -2.8524 C   0  0  0  0  0  0  0  0  0  0  0  0
  1 13  1  0  0  0  0
  3  4  1  0  0  0  0
  4  5  1  0  0  0  0
  6  5  1  6  0  0  0
  6 10  1  0  0  0  0
  6 14  2  0  0  0  0
  6 18  1  0  0  0  0
  7 11  1  6  0  0  0
  7 15  1  0  0  0  0
  7 19  2  0  0  0  0
  7 18  1  0  0  0  0
  8 25  1  0  0  0  0
  8 12  1  0  0  0  0
  9 26  2  0  0  0  0
  9 13  1  0  0  0  0
 12 16  1  0  0  0  0
 13 17  2  0  0  0  0
 16 20  1  0  0  0  0
 16 27  1  0  0  0  0
 17 21  1  0  0  0  0
 20  2  1  1  0  0  0
 20 23  1  0  0  0  0
 21 22  1  0  0  0  0
 21 24  2  0  0  0  0
 23  3  1  6  0  0  0
 23 25  1  0  0  0  0
 24 27  1  0  0  0  0
 24 26  1  0  0  0  0
M  CHG  2  10  -1  15  -1
M  END
>  <CHROM.1>
-64.63960426,152.22845742,-78.24820468,-89.96151061,51.47936987,-107.62301581
-150.45577047,65.20535604,-6.41707022,41.02711240,-6.18641637,2.22194912
0.11879869,2.12884320

>  <Name>
ligand

>  <RI>
0

>  <Rbt.Current_Directory>
/home/itssahil/PROJECTS/Mol_Feturizer/New_Systems/rnas/3D2V

>  <Rbt.Executable>
rbdock ($Id: //depot/dev/client3/rdock/2013.1/src/exe/rbdock.cxx#4 $)

>  <Rbt.Library>
libRbt.so (2013.1, Build901 2013/11/27)

>  <Rbt.Parameter_File>
/export/apps/rDock/src/rDock_2013.1_src/data/scripts/dock_solv.prm

>  <Rbt.Receptor>
prm/pocket_docking_2.prm

>  <SCORE>
-16.9366

>  <SCORE.INTER>
-17.1006

>  <SCORE.INTER.CONST>
1

>  <SCORE.INTER.POLAR>
0

>  <SCORE.INTER.ROT>
8

>  <SCORE.INTER.SOLV>
24.7825

>  <SCORE.INTER.VDW>
-28.5946

>  <SCORE.INTER.norm>
-0.633357

>  <SCORE.INTRA>
0.129568

>  <SCORE.INTRA.DIHEDRAL>
2.42818

>  <SCORE.INTRA.DIHEDRAL.0>
7.82666

>  <SCORE.INTRA.POLAR>
0

>  <SCORE.INTRA.POLAR.0>
0

>  <SCORE.INTRA.REPUL>
0

>  <SCORE.INTRA.REPUL.0>
0

>  <SCORE.INTRA.SOLV>
-1.38553

>  <SCORE.INTRA.SOLV.lig_0>
-83.2758

>  <SCORE.INTRA.VDW>
-0.391756

>  <SCORE.INTRA.VDW.0>
-3.26816

>  <SCORE.INTRA.norm>
0.00479882

>  <SCORE.RESTR>
0.0344423

>  <SCORE.RESTR.CAVITY>
0.0344423

>  <SCORE.RESTR.norm>
0.00127564

>  <SCORE.SYSTEM>
0

>  <SCORE.SYSTEM.CONST>
0

>  <SCORE.SYSTEM.DIHEDRAL>
0

>  <SCORE.SYSTEM.SOLV>
0

>  <SCORE.SYSTEM.norm>
0

>  <SCORE.heavy>
27

>  <SCORE.norm>
-0.627282

>  <RMSD>
2.064

$$$$
ligand
 OpenBabel11021811463D
libRbt.so/2013.1/901 2013/11/27
 27 28  0  0  0  0  0  0  0  0999 V2000
  -13.3997   37.3042   -1.9170 C   0  0  0  0  0  0  0  0  0  0  0  0
   -5.8229   38.1047   -4.6360 C   0  0  0  0  0  0  0  0  0  0  0  0
   -5.6458   39.2025   -7.4178 C   0  0  0  0  0  0  0  0  0  0  0  0
   -4.3596   39.9883   -7.1556 C   0  0  0  0  0  0  0  0  0  0  0  0
   -4.6175   41.3946   -7.1526 O   0  0  0  0  0  0  0  0  0  0  0  0
   -5.0644   42.1326   -8.5074 P   0  0  1  0  0  0  0  0  0  0  0  0
   -2.8251   43.8188   -8.8217 P   0  0  2  0  0  0  0  0  0  0  0  0
   -8.7031   40.9906   -6.0369 C   0  0  0  0  0  0  0  0  0  0  0  0
  -11.4326   37.6799   -3.3923 N   0  0  0  0  0  0  0  0  0  0  0  0
   -4.6173   41.2928   -9.7966 O   0  5  0  0  0  0  0  0  0  0  0  0
   -1.9662   42.9613   -7.9794 O   0  0  0  0  0  0  0  0  0  0  0  0
   -8.8033   40.4951   -4.7436 C   0  0  0  0  0  0  0  0  0  0  0  0
  -11.9631   37.7663   -2.1626 C   0  0  0  0  0  0  0  0  0  0  0  0
   -6.6644   42.3367   -8.6167 O   0  0  0  0  0  0  0  0  0  0  0  0
   -2.5284   45.3762   -8.5727 O   0  5  0  0  0  0  0  0  0  0  0  0
   -7.8690   39.5637   -4.2885 N   0  0  0  0  0  0  0  0  0  0  0  0
  -11.2435   38.2559   -1.1426 N   0  0  0  0  0  0  0  0  0  0  0  0
   -4.3939   43.6127   -8.5860 O   0  0  0  0  0  0  0  0  0  0  0  0
   -2.5309   43.5746  -10.3702 O   0  0  0  0  0  0  0  0  0  0  0  0
   -6.8456   39.1319   -5.1408 C   0  0  1  0  0  0  0  0  0  0  0  0
   -9.9839   38.6653   -1.3380 C   0  0  0  0  0  0  0  0  0  0  0  0
   -9.2799   39.1470   -0.3189 N   0  0  0  0  0  0  0  0  0  0  0  0
   -6.7455   39.6303   -6.4388 C   0  0  2  0  0  0  0  0  0  0  0  0
   -9.4109   38.5840   -2.6013 C   0  0  0  0  0  0  0  0  0  0  0  0
   -7.6822   40.5592   -6.8752 C   0  0  0  0  0  0  0  0  0  0  0  0
  -10.1924   38.0723   -3.6309 C   0  0  0  0  0  0  0  0  0  0  0  0
   -7.9763   39.0322   -2.9094 C   0  0  0  0  0  0  0  0  0  0  0  0
  1 13  1  0  0  0  0
  3  4  1  0  0  0  0
  4  5  1  0  0  0  0
  6  5  1  1  0  0  0
  6 10  1  0  0  0  0
  6 14  2  0  0  0  0
  6 18  1  0  0  0  0
  7 11  1  1  0  0  0
  7 15  1  0  0  0  0
  7 19  2  0  0  0  0
  7 18  1  0  0  0  0
  8 25  1  0  0  0  0
  8 12  1  0  0  0  0
  9 26  2  0  0  0  0
  9 13  1  0  0  0  0
 12 16  1  0  0  0  0
 13 17  2  0  0  0  0
 16 20  1  0  0  0  0
 16 27  1  0  0  0  0
 17 21  1  0  0  0  0
 20  2  1  1  0  0  0
 20 23  1  0  0  0  0
 21 22  1  0  0  0  0
 21 24  2  0  0  0  0
 23  3  1  6  0  0  0
 23 25  1  0  0  0  0
 24 27  1  0  0  0  0
 24 26  1  0  0  0  0
M  CHG  2  10  -1  15  -1
M  END
>  <CHROM.1>
-52.84378106,-66.75887913,-22.20240796,70.10673326,-46.42134749,-82.16087713
-147.52247598,47.95385976,-6.69235461,40.66025533,-5.98157176,2.36055611
0.38272108,1.85200809

>  <Name>
ligand

>  <RI>
0

>  <Rbt.Current_Directory>
/home/itssahil/PROJECTS/Mol_Feturizer/New_Systems/rnas/3D2V

>  <Rbt.Executable>
rbdock ($Id: //depot/dev/client3/rdock/2013.1/src/exe/rbdock.cxx#4 $)

>  <Rbt.Library>
libRbt.so (2013.1, Build901 2013/11/27)

>  <Rbt.Parameter_File>
/export/apps/rDock/src/rDock_2013.1_src/data/scripts/dock_solv.prm

>  <Rbt.Receptor>
prm/pocket_docking_2.prm

>  <SCORE>
-18.0642

>  <SCORE.INTER>
-18.3327

>  <SCORE.INTER.CONST>
1

>  <SCORE.INTER.POLAR>
0

>  <SCORE.INTER.ROT>
8

>  <SCORE.INTER.SOLV>
20.8211

>  <SCORE.INTER.VDW>
-28.0955

>  <SCORE.INTER.norm>
-0.678987

>  <SCORE.INTRA>
0.201559

>  <SCORE.INTRA.DIHEDRAL>
-0.0847405

>  <SCORE.INTRA.DIHEDRAL.0>
7.82666

>  <SCORE.INTRA.POLAR>
0

>  <SCORE.INTRA.POLAR.0>
0

>  <SCORE.INTRA.REPUL>
0

>  <SCORE.INTRA.REPUL.0>
0

>  <SCORE.INTRA.SOLV>
0.363068

>  <SCORE.INTRA.SOLV.lig_0>
-83.2758

>  <SCORE.INTRA.VDW>
0.0623955

>  <SCORE.INTRA.VDW.0>
-3.26816

>  <SCORE.INTRA.norm>
0.00746516

>  <SCORE.RESTR>
0.0669337

>  <SCORE.RESTR.CAVITY>
0.0669337

>  <SCORE.RESTR.norm>
0.00247903

>  <SCORE.SYSTEM>
0

>  <SCORE.SYSTEM.CONST>
0

>  <SCORE.SYSTEM.DIHEDRAL>
0

>  <SCORE.SYSTEM.SOLV>
0

>  <SCORE.SYSTEM.norm>
0

>  <SCORE.heavy>
27

>  <SCORE.norm>
-0.669043

>  <RMSD>
2.073

$$$$
ligand
 OpenBabel11021811473D
libRbt.so/2013.1/901 2013/11/27
 27 28  0  0  0  0  0  0  0  0999 V2000
  -12.0480   37.5163   -2.0258 C   0  0  0  0  0  0  0  0  0  0  0  0
   -5.7091   41.5973   -4.9333 C   0  0  0  0  0  0  0  0  0  0  0  0
   -4.2074   40.1575   -7.0890 C   0  0  0  0  0  0  0  0  0  0  0  0
   -4.9602   39.8794   -8.3915 C   0  0  0  0  0  0  0  0  0  0  0  0
   -6.1249   40.7030   -8.4886 O   0  0  0  0  0  0  0  0  0  0  0  0
   -5.9757   42.2731   -8.7928 P   0  0  1  0  0  0  0  0  0  0  0  0
   -4.8366   43.9581  -10.7472 P   0  0  2  0  0  0  0  0  0  0  0  0
   -5.3303   37.3037   -4.8426 C   0  0  0  0  0  0  0  0  0  0  0  0
  -10.2375   38.4650   -3.4432 N   0  0  0  0  0  0  0  0  0  0  0  0
   -7.4085   42.9874   -8.8562 O   0  5  0  0  0  0  0  0  0  0  0  0
   -3.9694   44.7341   -9.8371 O   0  0  0  0  0  0  0  0  0  0  0  0
   -6.0312   37.9509   -3.8337 C   0  0  0  0  0  0  0  0  0  0  0  0
  -10.6842   38.1829   -2.2097 C   0  0  0  0  0  0  0  0  0  0  0  0
   -5.1152   43.0547   -7.6693 O   0  0  0  0  0  0  0  0  0  0  0  0
   -6.2254   44.7130  -11.0245 O   0  5  0  0  0  0  0  0  0  0  0  0
   -6.1573   39.3405   -3.8646 N   0  0  0  0  0  0  0  0  0  0  0  0
   -9.9441   38.4806   -1.1319 N   0  0  0  0  0  0  0  0  0  0  0  0
   -5.2130   42.4983  -10.2120 O   0  0  0  0  0  0  0  0  0  0  0  0
   -4.1541   43.7890  -12.1789 O   0  0  0  0  0  0  0  0  0  0  0  0
   -5.5703   40.0689   -4.9063 C   0  0  1  0  0  0  0  0  0  0  0  0
   -8.7474   39.0640   -1.2728 C   0  0  0  0  0  0  0  0  0  0  0  0
   -8.0220   39.3526   -0.1972 N   0  0  0  0  0  0  0  0  0  0  0  0
   -4.8673   39.4182   -5.9190 C   0  0  2  0  0  0  0  0  0  0  0  0
   -8.2613   39.3643   -2.5395 C   0  0  0  0  0  0  0  0  0  0  0  0
   -4.7537   38.0340   -5.8746 C   0  0  0  0  0  0  0  0  0  0  0  0
   -9.0614   39.0408   -3.6293 C   0  0  0  0  0  0  0  0  0  0  0  0
   -6.9027   40.0327   -2.7872 C   0  0  0  0  0  0  0  0  0  0  0  0
  1 13  1  0  0  0  0
  3  4  1  0  0  0  0
  4  5  1  0  0  0  0
  6  5  1  1  0  0  0
  6 10  1  0  0  0  0
  6 14  2  0  0  0  0
  6 18  1  0  0  0  0
  7 11  1  1  0  0  0
  7 15  1  0  0  0  0
  7 19  2  0  0  0  0
  7 18  1  0  0  0  0
  8 25  1  0  0  0  0
  8 12  1  0  0  0  0
  9 26  2  0  0  0  0
  9 13  1  0  0  0  0
 12 16  1  0  0  0  0
 13 17  2  0  0  0  0
 16 20  1  0  0  0  0
 16 27  1  0  0  0  0
 17 21  1  0  0  0  0
 20  2  1  6  0  0  0
 20 23  1  0  0  0  0
 21 22  1  0  0  0  0
 21 24  2  0  0  0  0
 23  3  1  1  0  0  0
 23 25  1  0  0  0  0
 24 27  1  0  0  0  0
 24 26  1  0  0  0  0
M  CHG  2  10  -1  15  -1
M  END
>  <CHROM.1>
80.47483773,72.82225859,179.97916030,-176.22075491,58.27517309,-109.65158388
133.88383241,-48.73357306,-6.53379417,40.82939416,-6.33812657,1.98616544
-0.31151150,2.25188419

>  <Name>
ligand

>  <RI>
0

>  <Rbt.Current_Directory>
/home/itssahil/PROJECTS/Mol_Feturizer/New_Systems/rnas/3D2V

>  <Rbt.Executable>
rbdock ($Id: //depot/dev/client3/rdock/2013.1/src/exe/rbdock.cxx#4 $)

>  <Rbt.Library>
libRbt.so (2013.1, Build901 2013/11/27)

>  <Rbt.Parameter_File>
/export/apps/rDock/src/rDock_2013.1_src/data/scripts/dock_solv.prm

>  <Rbt.Receptor>
prm/pocket_docking_3.prm

>  <SCORE>
-20.4967

>  <SCORE.INTER>
-20.5251

>  <SCORE.INTER.CONST>
1

>  <SCORE.INTER.POLAR>
0

>  <SCORE.INTER.ROT>
8

>  <SCORE.INTER.SOLV>
18.6691

>  <SCORE.INTER.VDW>
-28.8397

>  <SCORE.INTER.norm>
-0.760188

>  <SCORE.INTRA>
0.0210118

>  <SCORE.INTRA.DIHEDRAL>
-0.407315

>  <SCORE.INTRA.DIHEDRAL.0>
7.82666

>  <SCORE.INTRA.POLAR>
0

>  <SCORE.INTRA.POLAR.0>
0

>  <SCORE.INTRA.REPUL>
0

>  <SCORE.INTRA.REPUL.0>
0

>  <SCORE.INTRA.SOLV>
1.18378

>  <SCORE.INTRA.SOLV.lig_0>
-83.2758

>  <SCORE.INTRA.VDW>
-0.36722

>  <SCORE.INTRA.VDW.0>
-3.26816

>  <SCORE.INTRA.norm>
0.000778215

>  <SCORE.RESTR>
0.00735976

>  <SCORE.RESTR.CAVITY>
0.00735976

>  <SCORE.RESTR.norm>
0.000272584

>  <SCORE.SYSTEM>
0

>  <SCORE.SYSTEM.CONST>
0

>  <SCORE.SYSTEM.DIHEDRAL>
0

>  <SCORE.SYSTEM.SOLV>
0

>  <SCORE.SYSTEM.norm>
0

>  <SCORE.heavy>
27

>  <SCORE.norm>
-0.759137

>  <RMSD>
2.084

$$$$
ligand
 OpenBabel11021811463D
libRbt.so/2013.1/901 2013/11/27
 27 28  0  0  0  0  0  0  0  0999 V2000
  -12.9506   37.0313   -2.2684 C   0  0  0  0  0  0  0  0  0  0  0  0
   -7.6643   41.3320   -4.8854 C   0  0  0  0  0  0  0  0  0  0  0  0
   -5.8806   40.3158   -7.0673 C   0  0  0  0  0  0  0  0  0  0  0  0
   -4.5841   39.8882   -7.7579 C   0  0  0  0  0  0  0  0  0  0  0  0
   -4.4029   40.6043   -8.9821 O   0  0  0  0  0  0  0  0  0  0  0  0
   -4.2570   42.2038   -8.9634 P   0  0  1  0  0  0  0  0  0  0  0  0
   -2.6623   44.2028  -10.1540 P   0  0  2  0  0  0  0  0  0  0  0  0
   -5.4608   37.6613   -4.3787 C   0  0  0  0  0  0  0  0  0  0  0  0
  -11.0460   38.2231   -1.2008 N   0  0  0  0  0  0  0  0  0  0  0  0
   -5.6416   42.9141   -9.3451 O   0  5  0  0  0  0  0  0  0  0  0  0
   -3.7310   45.1167  -10.6068 O   0  0  0  0  0  0  0  0  0  0  0  0
   -6.2823   38.1139   -3.3548 C   0  0  0  0  0  0  0  0  0  0  0  0
  -11.6064   37.7575   -2.3279 C   0  0  0  0  0  0  0  0  0  0  0  0
   -3.8208   42.7810   -7.5177 O   0  0  0  0  0  0  0  0  0  0  0  0
   -1.4078   44.2210  -11.1547 O   0  5  0  0  0  0  0  0  0  0  0  0
   -6.9987   39.3002   -3.5199 N   0  0  0  0  0  0  0  0  0  0  0  0
  -10.9972   37.9232   -3.5109 N   0  0  0  0  0  0  0  0  0  0  0  0
   -3.1156   42.6742  -10.0228 O   0  0  0  0  0  0  0  0  0  0  0  0
   -2.0821   44.6600   -8.7404 O   0  0  0  0  0  0  0  0  0  0  0  0
   -6.8768   40.0261   -4.7108 C   0  0  1  0  0  0  0  0  0  0  0  0
   -9.8200   38.5568   -3.5831 C   0  0  0  0  0  0  0  0  0  0  0  0
   -9.2267   38.7167   -4.7616 N   0  0  0  0  0  0  0  0  0  0  0  0
   -6.0522   39.5707   -5.7383 C   0  0  2  0  0  0  0  0  0  0  0  0
   -9.2203   39.0501   -2.4308 C   0  0  0  0  0  0  0  0  0  0  0  0
   -5.3481   38.3863   -5.5588 C   0  0  0  0  0  0  0  0  0  0  0  0
   -9.8845   38.8550   -1.2253 C   0  0  0  0  0  0  0  0  0  0  0  0
   -7.8738   39.7857   -2.4270 C   0  0  0  0  0  0  0  0  0  0  0  0
  1 13  1  0  0  0  0
  3  4  1  0  0  0  0
  4  5  1  0  0  0  0
  6  5  1  1  0  0  0
  6 10  1  0  0  0  0
  6 14  2  0  0  0  0
  6 18  1  0  0  0  0
  7 11  1  6  0  0  0
  7 15  1  0  0  0  0
  7 19  2  0  0  0  0
  7 18  1  0  0  0  0
  8 25  1  0  0  0  0
  8 12  1  0  0  0  0
  9 26  2  0  0  0  0
  9 13  1  0  0  0  0
 12 16  1  0  0  0  0
 13 17  2  0  0  0  0
 16 20  1  0  0  0  0
 16 27  1  0  0  0  0
 17 21  1  0  0  0  0
 20  2  1  6  0  0  0
 20 23  1  0  0  0  0
 21 22  1  0  0  0  0
 21 24  2  0  0  0  0
 23  3  1  1  0  0  0
 23 25  1  0  0  0  0
 24 27  1  0  0  0  0
 24 26  1  0  0  0  0
M  CHG  2  10  -1  15  -1
M  END
>  <CHROM.1>
-178.57715488,61.72431787,-99.71350016,-175.30658997,-63.40056708,159.32152977
-30.49438848,-80.46251485,-6.22132624,40.76803743,-6.30304859,2.26390206
-0.27284743,2.42789486

>  <Name>
ligand

>  <RI>
0

>  <Rbt.Current_Directory>
/home/itssahil/PROJECTS/Mol_Feturizer/New_Systems/rnas/3D2V

>  <Rbt.Executable>
rbdock ($Id: //depot/dev/client3/rdock/2013.1/src/exe/rbdock.cxx#4 $)

>  <Rbt.Library>
libRbt.so (2013.1, Build901 2013/11/27)

>  <Rbt.Parameter_File>
/export/apps/rDock/src/rDock_2013.1_src/data/scripts/dock_solv.prm

>  <Rbt.Receptor>
prm/pocket_docking_2.prm

>  <SCORE>
-16.0063

>  <SCORE.INTER>
-20.6597

>  <SCORE.INTER.CONST>
1

>  <SCORE.INTER.POLAR>
0

>  <SCORE.INTER.ROT>
8

>  <SCORE.INTER.SOLV>
16.019

>  <SCORE.INTER.VDW>
-28.0461

>  <SCORE.INTER.norm>
-0.765176

>  <SCORE.INTRA>
4.65079

>  <SCORE.INTRA.DIHEDRAL>
-0.74015

>  <SCORE.INTRA.DIHEDRAL.0>
7.82666

>  <SCORE.INTRA.POLAR>
0

>  <SCORE.INTRA.POLAR.0>
0

>  <SCORE.INTRA.REPUL>
0

>  <SCORE.INTRA.REPUL.0>
0

>  <SCORE.INTRA.SOLV>
5.92081

>  <SCORE.INTRA.SOLV.lig_0>
-83.2758

>  <SCORE.INTRA.VDW>
2.06046

>  <SCORE.INTRA.VDW.0>
-3.26816

>  <SCORE.INTRA.norm>
0.172252

>  <SCORE.RESTR>
0.00266698

>  <SCORE.RESTR.CAVITY>
0.00266698

>  <SCORE.RESTR.norm>
9.87771e-05

>  <SCORE.SYSTEM>
0

>  <SCORE.SYSTEM.CONST>
0

>  <SCORE.SYSTEM.DIHEDRAL>
0

>  <SCORE.SYSTEM.SOLV>
0

>  <SCORE.SYSTEM.norm>
0

>  <SCORE.heavy>
27

>  <SCORE.norm>
-0.592825

>  <RMSD>
2.086

$$$$
ligand
 OpenBabel11021811463D
libRbt.so/2013.1/901 2013/11/27
 27 28  0  0  0  0  0  0  0  0999 V2000
  -12.9342   37.5710   -1.7712 C   0  0  0  0  0  0  0  0  0  0  0  0
   -5.3769   38.4604   -4.8175 C   0  0  0  0  0  0  0  0  0  0  0  0
   -5.3405   39.4940   -7.6292 C   0  0  0  0  0  0  0  0  0  0  0  0
   -4.5300   40.7352   -8.0076 C   0  0  0  0  0  0  0  0  0  0  0  0
   -5.3881   41.8649   -8.1855 O   0  0  0  0  0  0  0  0  0  0  0  0
   -4.8589   43.1594   -8.9756 P   0  0  1  0  0  0  0  0  0  0  0  0
   -2.4390   44.5482   -9.3898 P   0  0  2  0  0  0  0  0  0  0  0  0
   -8.5030   41.0719   -6.2294 C   0  0  0  0  0  0  0  0  0  0  0  0
  -11.0587   37.9537   -3.3596 N   0  0  0  0  0  0  0  0  0  0  0  0
   -5.0416   42.9846  -10.5577 O   0  5  0  0  0  0  0  0  0  0  0  0
   -1.8687   44.1382  -10.6895 O   0  0  0  0  0  0  0  0  0  0  0  0
   -8.5390   40.6049   -4.9222 C   0  0  0  0  0  0  0  0  0  0  0  0
  -11.5105   38.0229   -2.0978 C   0  0  0  0  0  0  0  0  0  0  0  0
   -5.6403   44.5134   -8.5635 O   0  0  0  0  0  0  0  0  0  0  0  0
   -1.2943   45.0032   -8.3610 O   0  5  0  0  0  0  0  0  0  0  0  0
   -7.5252   39.7625   -4.4636 N   0  0  0  0  0  0  0  0  0  0  0  0
  -10.7232   38.4860   -1.1162 N   0  0  0  0  0  0  0  0  0  0  0  0
   -3.2839   43.4073   -8.6526 O   0  0  0  0  0  0  0  0  0  0  0  0
   -3.3858   45.8206   -9.5586 O   0  0  0  0  0  0  0  0  0  0  0  0
   -6.4873   39.3900   -5.3262 C   0  0  1  0  0  0  0  0  0  0  0  0
   -9.4736   38.8859   -1.3827 C   0  0  0  0  0  0  0  0  0  0  0  0
   -8.7019   39.3414   -0.4011 N   0  0  0  0  0  0  0  0  0  0  0  0
   -6.4518   39.8598   -6.6381 C   0  0  2  0  0  0  0  0  0  0  0  0
   -8.9814   38.8222   -2.6806 C   0  0  0  0  0  0  0  0  0  0  0  0
   -7.4674   40.7000   -7.0779 C   0  0  0  0  0  0  0  0  0  0  0  0
   -9.8313   38.3378   -3.6682 C   0  0  0  0  0  0  0  0  0  0  0  0
   -7.5637   39.2612   -3.0696 C   0  0  0  0  0  0  0  0  0  0  0  0
  1 13  1  0  0  0  0
  3  4  1  0  0  0  0
  4  5  1  0  0  0  0
  6  5  1  1  0  0  0
  6 10  1  0  0  0  0
  6 14  2  0  0  0  0
  6 18  1  0  0  0  0
  7 11  1  6  0  0  0
  7 15  1  0  0  0  0
  7 19  2  0  0  0  0
  7 18  1  0  0  0  0
  8 25  1  0  0  0  0
  8 12  1  0  0  0  0
  9 26  2  0  0  0  0
  9 13  1  0  0  0  0
 12 16  1  0  0  0  0
 13 17  2  0  0  0  0
 16 20  1  0  0  0  0
 16 27  1  0  0  0  0
 17 21  1  0  0  0  0
 20  2  1  1  0  0  0
 20 23  1  0  0  0  0
 21 22  1  0  0  0  0
 21 24  2  0  0  0  0
 23  3  1  6  0  0  0
 23 25  1  0  0  0  0
 24 27  1  0  0  0  0
 24 26  1  0  0  0  0
M  CHG  2  10  -1  15  -1
M  END
>  <CHROM.1>
-40.41195884,-162.65279547,84.66440561,174.65499393,-85.51074430,-114.74079611
-149.98404808,43.04116415,-6.38802128,41.22252549,-6.27691641,2.25102560
0.25680089,2.04134624

>  <Name>
ligand

>  <RI>
0

>  <Rbt.Current_Directory>
/home/itssahil/PROJECTS/Mol_Feturizer/New_Systems/rnas/3D2V

>  <Rbt.Executable>
rbdock ($Id: //depot/dev/client3/rdock/2013.1/src/exe/rbdock.cxx#4 $)

>  <Rbt.Library>
libRbt.so (2013.1, Build901 2013/11/27)

>  <Rbt.Parameter_File>
/export/apps/rDock/src/rDock_2013.1_src/data/scripts/dock_solv.prm

>  <Rbt.Receptor>
prm/pocket_docking_2.prm

>  <SCORE>
-16.4723

>  <SCORE.INTER>
-18.7866

>  <SCORE.INTER.CONST>
1

>  <SCORE.INTER.POLAR>
0

>  <SCORE.INTER.ROT>
8

>  <SCORE.INTER.SOLV>
18.1399

>  <SCORE.INTER.VDW>
-27.5044

>  <SCORE.INTER.norm>
-0.695799

>  <SCORE.INTRA>
2.01187

>  <SCORE.INTRA.DIHEDRAL>
1.89399

>  <SCORE.INTRA.DIHEDRAL.0>
7.82666

>  <SCORE.INTRA.POLAR>
0

>  <SCORE.INTRA.POLAR.0>
0

>  <SCORE.INTRA.REPUL>
0

>  <SCORE.INTRA.REPUL.0>
0

>  <SCORE.INTRA.SOLV>
-0.276506

>  <SCORE.INTRA.SOLV.lig_0>
-83.2758

>  <SCORE.INTRA.VDW>
1.20312

>  <SCORE.INTRA.VDW.0>
-3.26816

>  <SCORE.INTRA.norm>
0.0745136

>  <SCORE.RESTR>
0.302451

>  <SCORE.RESTR.CAVITY>
0.302451

>  <SCORE.RESTR.norm>
0.0112019

>  <SCORE.SYSTEM>
0

>  <SCORE.SYSTEM.CONST>
0

>  <SCORE.SYSTEM.DIHEDRAL>
0

>  <SCORE.SYSTEM.SOLV>
0

>  <SCORE.SYSTEM.norm>
0

>  <SCORE.heavy>
27

>  <SCORE.norm>
-0.610084

>  <RMSD>
2.096

$$$$
ligand
 OpenBabel11021811473D
libRbt.so/2013.1/901 2013/11/27
 27 28  0  0  0  0  0  0  0  0999 V2000
  -12.0570   37.6668   -2.0123 C   0  0  0  0  0  0  0  0  0  0  0  0
   -5.2973   42.0914   -2.8657 C   0  0  0  0  0  0  0  0  0  0  0  0
   -3.9764   41.7689   -5.5353 C   0  0  0  0  0  0  0  0  0  0  0  0
   -4.9425   42.6613   -6.3169 C   0  0  0  0  0  0  0  0  0  0  0  0
   -5.0992   42.1860   -7.6562 O   0  0  0  0  0  0  0  0  0  0  0  0
   -6.3304   42.6981   -8.5518 P   0  0  1  0  0  0  0  0  0  0  0  0
   -5.5206   45.3413   -9.1124 P   0  0  2  0  0  0  0  0  0  0  0  0
   -5.4741   38.3237   -4.9537 C   0  0  0  0  0  0  0  0  0  0  0  0
   -9.9910   38.6037   -3.0327 N   0  0  0  0  0  0  0  0  0  0  0  0
   -6.1011   42.3529  -10.0995 O   0  5  0  0  0  0  0  0  0  0  0  0
   -4.0866   45.0835   -8.8681 O   0  0  0  0  0  0  0  0  0  0  0  0
   -6.0938   38.4515   -3.7177 C   0  0  0  0  0  0  0  0  0  0  0  0
  -10.6396   38.2324   -1.9180 C   0  0  0  0  0  0  0  0  0  0  0  0
   -7.7397   42.0282   -8.1293 O   0  0  0  0  0  0  0  0  0  0  0  0
   -5.9504   46.8041   -8.6111 O   0  5  0  0  0  0  0  0  0  0  0  0
   -6.0401   39.6721   -3.0431 N   0  0  0  0  0  0  0  0  0  0  0  0
  -10.0552   38.3526   -0.7172 N   0  0  0  0  0  0  0  0  0  0  0  0
   -6.5069   44.3075   -8.3929 O   0  0  0  0  0  0  0  0  0  0  0  0
   -5.8465   45.3167  -10.6735 O   0  0  0  0  0  0  0  0  0  0  0  0
   -5.3563   40.7523   -3.6138 C   0  0  1  0  0  0  0  0  0  0  0  0
   -8.8146   38.8453   -0.6146 C   0  0  0  0  0  0  0  0  0  0  0  0
   -8.2450   38.9579    0.5810 N   0  0  0  0  0  0  0  0  0  0  0  0
   -4.7349   40.6232   -4.8549 C   0  0  2  0  0  0  0  0  0  0  0  0
   -8.1210   39.2347   -1.7539 C   0  0  0  0  0  0  0  0  0  0  0  0
   -4.8005   39.4019   -5.5144 C   0  0  0  0  0  0  0  0  0  0  0  0
   -8.7644   39.0952   -2.9783 C   0  0  0  0  0  0  0  0  0  0  0  0
   -6.6987   39.8092   -1.7228 C   0  0  0  0  0  0  0  0  0  0  0  0
  1 13  1  0  0  0  0
  3  4  1  0  0  0  0
  4  5  1  0  0  0  0
  6  5  1  1  0  0  0
  6 10  1  0  0  0  0
  6 14  2  0  0  0  0
  6 18  1  0  0  0  0
  7 11  1  1  0  0  0
  7 15  1  0  0  0  0
  7 19  2  0  0  0  0
  7 18  1  0  0  0  0
  8 25  1  0  0  0  0
  8 12  1  0  0  0  0
  9 26  2  0  0  0  0
  9 13  1  0  0  0  0
 12 16  1  0  0  0  0
 13 17  2  0  0  0  0
 16 20  1  0  0  0  0
 16 27  1  0  0  0  0
 17 21  1  0  0  0  0
 20  2  1  6  0  0  0
 20 23  1  0  0  0  0
 21 22  1  0  0  0  0
 21 24  2  0  0  0  0
 23  3  1  1  0  0  0
 23 25  1  0  0  0  0
 24 27  1  0  0  0  0
 24 26  1  0  0  0  0
M  CHG  2  10  -1  15  -1
M  END
>  <CHROM.1>
-89.28632793,163.82433774,165.10386904,75.64470431,-51.73934661,-84.73307563
159.30419682,-47.24442182,-6.68781054,41.48144553,-5.49977186,1.90952988
0.17118188,2.17596527

>  <Name>
ligand

>  <RI>
0

>  <Rbt.Current_Directory>
/home/itssahil/PROJECTS/Mol_Feturizer/New_Systems/rnas/3D2V

>  <Rbt.Executable>
rbdock ($Id: //depot/dev/client3/rdock/2013.1/src/exe/rbdock.cxx#4 $)

>  <Rbt.Library>
libRbt.so (2013.1, Build901 2013/11/27)

>  <Rbt.Parameter_File>
/export/apps/rDock/src/rDock_2013.1_src/data/scripts/dock_solv.prm

>  <Rbt.Receptor>
prm/pocket_docking_4.prm

>  <SCORE>
-16.9824

>  <SCORE.INTER>
-17.1072

>  <SCORE.INTER.CONST>
1

>  <SCORE.INTER.POLAR>
0

>  <SCORE.INTER.ROT>
8

>  <SCORE.INTER.SOLV>
24.4008

>  <SCORE.INTER.VDW>
-28.4717

>  <SCORE.INTER.norm>
-0.633599

>  <SCORE.INTRA>
0.124781

>  <SCORE.INTRA.DIHEDRAL>
2.0707

>  <SCORE.INTRA.DIHEDRAL.0>
7.82666

>  <SCORE.INTRA.POLAR>
0

>  <SCORE.INTRA.POLAR.0>
0

>  <SCORE.INTRA.REPUL>
0

>  <SCORE.INTRA.REPUL.0>
0

>  <SCORE.INTRA.SOLV>
-2.12663

>  <SCORE.INTRA.SOLV.lig_0>
-83.2758

>  <SCORE.INTRA.VDW>
0.15275

>  <SCORE.INTRA.VDW.0>
-3.26816

>  <SCORE.INTRA.norm>
0.00462152

>  <SCORE.RESTR>
0

>  <SCORE.RESTR.CAVITY>
0

>  <SCORE.RESTR.norm>
0

>  <SCORE.SYSTEM>
0

>  <SCORE.SYSTEM.CONST>
0

>  <SCORE.SYSTEM.DIHEDRAL>
0

>  <SCORE.SYSTEM.SOLV>
0

>  <SCORE.SYSTEM.norm>
0

>  <SCORE.heavy>
27

>  <SCORE.norm>
-0.628978

>  <RMSD>
2.102

$$$$
ligand
 OpenBabel11021811473D
libRbt.so/2013.1/901 2013/11/27
 27 28  0  0  0  0  0  0  0  0999 V2000
  -13.0512   37.4426   -2.3311 C   0  0  0  0  0  0  0  0  0  0  0  0
   -5.4550   38.4584   -4.5020 C   0  0  0  0  0  0  0  0  0  0  0  0
   -5.0861   40.1389   -6.9545 C   0  0  0  0  0  0  0  0  0  0  0  0
   -5.7154   39.9716   -8.3389 C   0  0  0  0  0  0  0  0  0  0  0  0
   -5.0154   40.7526   -9.3107 O   0  0  0  0  0  0  0  0  0  0  0  0
   -4.9627   42.3518   -9.1698 P   0  0  1  0  0  0  0  0  0  0  0  0
   -3.1215   44.2973   -8.2860 P   0  0  2  0  0  0  0  0  0  0  0  0
   -7.9827   41.8779   -5.2119 C   0  0  0  0  0  0  0  0  0  0  0  0
  -10.9530   37.9505   -3.5666 N   0  0  0  0  0  0  0  0  0  0  0  0
   -4.8762   43.0551  -10.6068 O   0  5  0  0  0  0  0  0  0  0  0  0
   -1.8842   44.4922   -7.5025 O   0  0  0  0  0  0  0  0  0  0  0  0
   -8.1705   41.1129   -4.0684 C   0  0  0  0  0  0  0  0  0  0  0  0
  -11.5959   37.9078   -2.3894 C   0  0  0  0  0  0  0  0  0  0  0  0
   -6.2633   42.9633   -8.4297 O   0  0  0  0  0  0  0  0  0  0  0  0
   -4.3180   45.2149   -7.7363 O   0  5  0  0  0  0  0  0  0  0  0  0
   -7.3500   40.0081   -3.8363 N   0  0  0  0  0  0  0  0  0  0  0  0
  -10.9727   38.2703   -1.2588 N   0  0  0  0  0  0  0  0  0  0  0  0
   -3.6680   42.7938   -8.2896 O   0  0  0  0  0  0  0  0  0  0  0  0
   -2.9113   44.7409   -9.8035 O   0  0  0  0  0  0  0  0  0  0  0  0
   -6.3521   39.6767   -4.7606 C   0  0  1  0  0  0  0  0  0  0  0  0
   -9.6986   38.6801   -1.2898 C   0  0  0  0  0  0  0  0  0  0  0  0
   -9.0909   39.0351   -0.1624 N   0  0  0  0  0  0  0  0  0  0  0  0
   -6.1641   40.4455   -5.9081 C   0  0  1  0  0  0  0  0  0  0  0  0
   -9.0102   38.7311   -2.4958 C   0  0  0  0  0  0  0  0  0  0  0  0
   -6.9877   41.5439   -6.1225 C   0  0  0  0  0  0  0  0  0  0  0  0
   -9.6941   38.3486   -3.6440 C   0  0  0  0  0  0  0  0  0  0  0  0
   -7.5510   39.1894   -2.6176 C   0  0  0  0  0  0  0  0  0  0  0  0
  1 13  1  0  0  0  0
  3  4  1  0  0  0  0
  4  5  1  0  0  0  0
  6  5  1  6  0  0  0
  6 10  1  0  0  0  0
  6 14  2  0  0  0  0
  6 18  1  0  0  0  0
  7 11  1  1  0  0  0
  7 15  1  0  0  0  0
  7 19  2  0  0  0  0
  7 18  1  0  0  0  0
  8 25  1  0  0  0  0
  8 12  1  0  0  0  0
  9 26  2  0  0  0  0
  9 13  1  0  0  0  0
 12 16  1  0  0  0  0
 13 17  2  0  0  0  0
 16 20  1  0  0  0  0
 16 27  1  0  0  0  0
 17 21  1  0  0  0  0
 20  2  1  1  0  0  0
 20 23  1  0  0  0  0
 21 22  1  0  0  0  0
 21 24  2  0  0  0  0
 23  3  1  1  0  0  0
 23 25  1  0  0  0  0
 24 27  1  0  0  0  0
 24 26  1  0  0  0  0
M  CHG  2  10  -1  15  -1
M  END
>  <CHROM.1>
131.01113565,-62.11039620,-149.44492492,163.75275215,-176.01430203,123.91156845
-140.76810333,53.09176145,-6.56992214,41.05367199,-5.93865996,2.47209686
0.68555700,1.55726326

>  <Name>
ligand

>  <RI>
0

>  <Rbt.Current_Directory>
/home/itssahil/PROJECTS/Mol_Feturizer/New_Systems/rnas/3D2V

>  <Rbt.Executable>
rbdock ($Id: //depot/dev/client3/rdock/2013.1/src/exe/rbdock.cxx#4 $)

>  <Rbt.Library>
libRbt.so (2013.1, Build901 2013/11/27)

>  <Rbt.Parameter_File>
/export/apps/rDock/src/rDock_2013.1_src/data/scripts/dock_solv.prm

>  <Rbt.Receptor>
prm/pocket_docking_2.prm

>  <SCORE>
-12.7921

>  <SCORE.INTER>
-16.9441

>  <SCORE.INTER.CONST>
1

>  <SCORE.INTER.POLAR>
0

>  <SCORE.INTER.ROT>
8

>  <SCORE.INTER.SOLV>
17.1786

>  <SCORE.INTER.VDW>
-25.9556

>  <SCORE.INTER.norm>
-0.62756

>  <SCORE.INTRA>
3.90481

>  <SCORE.INTRA.DIHEDRAL>
4.10254

>  <SCORE.INTRA.DIHEDRAL.0>
7.82666

>  <SCORE.INTRA.POLAR>
0

>  <SCORE.INTRA.POLAR.0>
0

>  <SCORE.INTRA.REPUL>
0

>  <SCORE.INTRA.REPUL.0>
0

>  <SCORE.INTRA.SOLV>
3.04438

>  <SCORE.INTRA.SOLV.lig_0>
-83.2758

>  <SCORE.INTRA.VDW>
0.331354

>  <SCORE.INTRA.VDW.0>
-3.26816

>  <SCORE.INTRA.norm>
0.144623

>  <SCORE.RESTR>
0.247225

>  <SCORE.RESTR.CAVITY>
0.247225

>  <SCORE.RESTR.norm>
0.00915649

>  <SCORE.SYSTEM>
0

>  <SCORE.SYSTEM.CONST>
0

>  <SCORE.SYSTEM.DIHEDRAL>
0

>  <SCORE.SYSTEM.SOLV>
0

>  <SCORE.SYSTEM.norm>
0

>  <SCORE.heavy>
27

>  <SCORE.norm>
-0.473781

>  <RMSD>
2.112

$$$$
ligand
 OpenBabel11021811463D
libRbt.so/2013.1/901 2013/11/27
 27 28  0  0  0  0  0  0  0  0999 V2000
  -13.2124   37.3495   -1.9036 C   0  0  0  0  0  0  0  0  0  0  0  0
   -5.6824   38.2538   -4.7807 C   0  0  0  0  0  0  0  0  0  0  0  0
   -5.5838   39.2671   -7.5984 C   0  0  0  0  0  0  0  0  0  0  0  0
   -4.2827   40.0109   -7.2914 C   0  0  0  0  0  0  0  0  0  0  0  0
   -4.4884   41.4254   -7.3255 O   0  0  0  0  0  0  0  0  0  0  0  0
   -4.4498   42.2096   -8.7268 P   0  0  1  0  0  0  0  0  0  0  0  0
   -2.5712   43.7390  -10.1719 P   0  0  2  0  0  0  0  0  0  0  0  0
   -8.6874   40.9840   -6.2306 C   0  0  0  0  0  0  0  0  0  0  0  0
  -11.3090   37.7909   -3.4429 N   0  0  0  0  0  0  0  0  0  0  0  0
   -5.0739   41.3193   -9.9037 O   0  5  0  0  0  0  0  0  0  0  0  0
   -1.1313   43.8760  -10.4723 O   0  0  0  0  0  0  0  0  0  0  0  0
   -8.7517   40.5272   -4.9209 C   0  0  0  0  0  0  0  0  0  0  0  0
  -11.7902   37.8319   -2.1908 C   0  0  0  0  0  0  0  0  0  0  0  0
   -5.2835   43.5943   -8.6983 O   0  0  0  0  0  0  0  0  0  0  0  0
   -3.1825   45.1005   -9.5817 O   0  5  0  0  0  0  0  0  0  0  0  0
   -7.7770   39.6463   -4.4500 N   0  0  0  0  0  0  0  0  0  0  0  0
  -11.0337   38.2934   -1.1845 N   0  0  0  0  0  0  0  0  0  0  0  0
   -2.9161   42.5906   -9.1130 O   0  0  0  0  0  0  0  0  0  0  0  0
   -3.4047   43.4417  -11.4989 O   0  0  0  0  0  0  0  0  0  0  0  0
   -6.7496   39.2255   -5.3030 C   0  0  1  0  0  0  0  0  0  0  0  0
   -9.7860   38.7198   -1.4163 C   0  0  0  0  0  0  0  0  0  0  0  0
   -9.0450   39.1733   -0.4104 N   0  0  0  0  0  0  0  0  0  0  0  0
   -6.6857   39.6851   -6.6175 C   0  0  2  0  0  0  0  0  0  0  0  0
   -9.2637   38.6855   -2.7035 C   0  0  0  0  0  0  0  0  0  0  0  0
   -7.6624   40.5640   -7.0695 C   0  0  0  0  0  0  0  0  0  0  0  0
  -10.0822   38.2017   -3.7176 C   0  0  0  0  0  0  0  0  0  0  0  0
   -7.8459   39.1560   -3.0534 C   0  0  0  0  0  0  0  0  0  0  0  0
  1 13  1  0  0  0  0
  3  4  1  0  0  0  0
  4  5  1  0  0  0  0
  6  5  1  1  0  0  0
  6 10  1  0  0  0  0
  6 14  2  0  0  0  0
  6 18  1  0  0  0  0
  7 11  1  6  0  0  0
  7 15  1  0  0  0  0
  7 19  2  0  0  0  0
  7 18  1  0  0  0  0
  8 25  1  0  0  0  0
  8 12  1  0  0  0  0
  9 26  2  0  0  0  0
  9 13  1  0  0  0  0
 12 16  1  0  0  0  0
 13 17  2  0  0  0  0
 16 20  1  0  0  0  0
 16 27  1  0  0  0  0
 17 21  1  0  0  0  0
 20  2  1  1  0  0  0
 20 23  1  0  0  0  0
 21 22  1  0  0  0  0
 21 24  2  0  0  0  0
 23  3  1  6  0  0  0
 23 25  1  0  0  0  0
 24 27  1  0  0  0  0
 24 26  1  0  0  0  0
M  CHG  2  10  -1  15  -1
M  END
>  <CHROM.1>
-56.63462618,-83.31414916,35.65203835,-160.47944419,-175.61058242,-76.64015917
-151.50243506,47.06107928,-6.48581953,40.72983197,-6.38287626,2.25351298
0.01771432,2.13873958

>  <Name>
ligand

>  <RI>
0

>  <Rbt.Current_Directory>
/home/itssahil/PROJECTS/Mol_Feturizer/New_Systems/rnas/3D2V

>  <Rbt.Executable>
rbdock ($Id: //depot/dev/client3/rdock/2013.1/src/exe/rbdock.cxx#4 $)

>  <Rbt.Library>
libRbt.so (2013.1, Build901 2013/11/27)

>  <Rbt.Parameter_File>
/export/apps/rDock/src/rDock_2013.1_src/data/scripts/dock_solv.prm

>  <Rbt.Receptor>
prm/pocket_docking_2.prm

>  <SCORE>
-18.9068

>  <SCORE.INTER>
-21.0712

>  <SCORE.INTER.CONST>
1

>  <SCORE.INTER.POLAR>
0

>  <SCORE.INTER.ROT>
8

>  <SCORE.INTER.SOLV>
20.7781

>  <SCORE.INTER.VDW>
-29.9068

>  <SCORE.INTER.norm>
-0.780415

>  <SCORE.INTRA>
2.04032

>  <SCORE.INTRA.DIHEDRAL>
1.27002

>  <SCORE.INTRA.DIHEDRAL.0>
7.82666

>  <SCORE.INTRA.POLAR>
0

>  <SCORE.INTRA.POLAR.0>
0

>  <SCORE.INTRA.REPUL>
0

>  <SCORE.INTRA.REPUL.0>
0

>  <SCORE.INTRA.SOLV>
2.40146

>  <SCORE.INTRA.SOLV.lig_0>
-83.2758

>  <SCORE.INTRA.VDW>
0.204581

>  <SCORE.INTRA.VDW.0>
-3.26816

>  <SCORE.INTRA.norm>
0.0755675

>  <SCORE.RESTR>
0.124101

>  <SCORE.RESTR.CAVITY>
0.124101

>  <SCORE.RESTR.norm>
0.00459633

>  <SCORE.SYSTEM>
0

>  <SCORE.SYSTEM.CONST>
0

>  <SCORE.SYSTEM.DIHEDRAL>
0

>  <SCORE.SYSTEM.SOLV>
0

>  <SCORE.SYSTEM.norm>
0

>  <SCORE.heavy>
27

>  <SCORE.norm>
-0.700251

>  <RMSD>
2.116

$$$$
ligand
 OpenBabel11021811473D
libRbt.so/2013.1/901 2013/11/27
 27 28  0  0  0  0  0  0  0  0999 V2000
  -12.4464   37.3077   -2.3004 C   0  0  0  0  0  0  0  0  0  0  0  0
   -6.1693   42.0398   -3.5607 C   0  0  0  0  0  0  0  0  0  0  0  0
   -4.4901   41.4248   -5.9643 C   0  0  0  0  0  0  0  0  0  0  0  0
   -5.4539   41.8131   -7.0872 C   0  0  0  0  0  0  0  0  0  0  0  0
   -5.0487   43.0396   -7.7003 O   0  0  0  0  0  0  0  0  0  0  0  0
   -5.9139   43.6615   -8.9022 P   0  0  1  0  0  0  0  0  0  0  0  0
   -4.3536   45.9589   -9.3961 P   0  0  2  0  0  0  0  0  0  0  0  0
   -5.3798   37.9551   -4.6914 C   0  0  0  0  0  0  0  0  0  0  0  0
  -10.4461   38.1190   -1.0643 N   0  0  0  0  0  0  0  0  0  0  0  0
   -5.4646   43.0498  -10.3133 O   0  5  0  0  0  0  0  0  0  0  0  0
   -4.0408   45.8080  -10.8320 O   0  0  0  0  0  0  0  0  0  0  0  0
   -6.1612   38.2177   -3.5740 C   0  0  0  0  0  0  0  0  0  0  0  0
  -11.0718   37.9748   -2.2428 C   0  0  0  0  0  0  0  0  0  0  0  0
   -7.4980   43.3747   -8.7538 O   0  0  0  0  0  0  0  0  0  0  0  0
   -3.2069   45.3201   -8.4727 O   0  5  0  0  0  0  0  0  0  0  0  0
   -6.4201   39.5398   -3.2098 N   0  0  0  0  0  0  0  0  0  0  0  0
  -10.5018   38.4114   -3.3752 N   0  0  0  0  0  0  0  0  0  0  0  0
   -5.7294   45.2772   -8.9472 O   0  0  0  0  0  0  0  0  0  0  0  0
   -4.4183   47.4987   -8.9854 O   0  0  0  0  0  0  0  0  0  0  0  0
   -5.8841   40.5876   -3.9680 C   0  0  1  0  0  0  0  0  0  0  0  0
   -9.2989   38.9983   -3.3448 C   0  0  0  0  0  0  0  0  0  0  0  0
   -8.7448   39.4287   -4.4736 N   0  0  0  0  0  0  0  0  0  0  0  0
   -5.1002   40.3230   -5.0899 C   0  0  1  0  0  0  0  0  0  0  0  0
   -8.6314   39.1615   -2.1370 C   0  0  0  0  0  0  0  0  0  0  0  0
   -4.8545   39.0010   -5.4404 C   0  0  0  0  0  0  0  0  0  0  0  0
   -9.2570   38.6928   -0.9875 C   0  0  0  0  0  0  0  0  0  0  0  0
   -7.2517   39.8215   -2.0160 C   0  0  0  0  0  0  0  0  0  0  0  0
  1 13  1  0  0  0  0
  3  4  1  0  0  0  0
  4  5  1  0  0  0  0
  6  5  1  1  0  0  0
  6 10  1  0  0  0  0
  6 14  2  0  0  0  0
  6 18  1  0  0  0  0
  7 11  1  6  0  0  0
  7 15  1  0  0  0  0
  7 19  2  0  0  0  0
  7 18  1  0  0  0  0
  8 25  1  0  0  0  0
  8 12  1  0  0  0  0
  9 26  2  0  0  0  0
  9 13  1  0  0  0  0
 12 16  1  0  0  0  0
 13 17  2  0  0  0  0
 16 20  1  0  0  0  0
 16 27  1  0  0  0  0
 17 21  1  0  0  0  0
 20  2  1  6  0  0  0
 20 23  1  0  0  0  0
 21 22  1  0  0  0  0
 21 24  2  0  0  0  0
 23  3  1  6  0  0  0
 23 25  1  0  0  0  0
 24 27  1  0  0  0  0
 24 26  1  0  0  0  0
M  CHG  2  10  -1  15  -1
M  END
>  <CHROM.1>
165.93673958,-179.47777051,-86.40916371,70.19055967,69.73991128,-89.76980279
-33.28123982,-57.24206845,-6.58135836,41.68874691,-5.94350185,2.01581076
0.02519126,2.33433587

>  <Name>
ligand

>  <RI>
0

>  <Rbt.Current_Directory>
/home/itssahil/PROJECTS/Mol_Feturizer/New_Systems/rnas/3D2V

>  <Rbt.Executable>
rbdock ($Id: //depot/dev/client3/rdock/2013.1/src/exe/rbdock.cxx#4 $)

>  <Rbt.Library>
libRbt.so (2013.1, Build901 2013/11/27)

>  <Rbt.Parameter_File>
/export/apps/rDock/src/rDock_2013.1_src/data/scripts/dock_solv.prm

>  <Rbt.Receptor>
prm/pocket_docking_7.prm

>  <SCORE>
-19.3978

>  <SCORE.INTER>
-19.9349

>  <SCORE.INTER.CONST>
1

>  <SCORE.INTER.POLAR>
0

>  <SCORE.INTER.ROT>
8

>  <SCORE.INTER.SOLV>
14.0416

>  <SCORE.INTER.VDW>
-26.9038

>  <SCORE.INTER.norm>
-0.738331

>  <SCORE.INTRA>
0.537103

>  <SCORE.INTRA.DIHEDRAL>
-0.599622

>  <SCORE.INTRA.DIHEDRAL.0>
7.82666

>  <SCORE.INTRA.POLAR>
0

>  <SCORE.INTRA.POLAR.0>
0

>  <SCORE.INTRA.REPUL>
0

>  <SCORE.INTRA.REPUL.0>
0

>  <SCORE.INTRA.SOLV>
2.32488

>  <SCORE.INTRA.SOLV.lig_0>
-83.2758

>  <SCORE.INTRA.VDW>
-0.325528

>  <SCORE.INTRA.VDW.0>
-3.26816

>  <SCORE.INTRA.norm>
0.0198927

>  <SCORE.RESTR>
0

>  <SCORE.RESTR.CAVITY>
0

>  <SCORE.RESTR.norm>
0

>  <SCORE.SYSTEM>
0

>  <SCORE.SYSTEM.CONST>
0

>  <SCORE.SYSTEM.DIHEDRAL>
0

>  <SCORE.SYSTEM.SOLV>
0

>  <SCORE.SYSTEM.norm>
0

>  <SCORE.heavy>
27

>  <SCORE.norm>
-0.718439

>  <RMSD>
2.136

$$$$
ligand
 OpenBabel11021811473D
libRbt.so/2013.1/901 2013/11/27
 27 28  0  0  0  0  0  0  0  0999 V2000
  -12.5302   37.4059   -1.9504 C   0  0  0  0  0  0  0  0  0  0  0  0
   -7.6546   40.7867   -5.5790 C   0  0  0  0  0  0  0  0  0  0  0  0
   -6.3732   39.3998   -7.9049 C   0  0  0  0  0  0  0  0  0  0  0  0
   -4.9980   39.5077   -8.5666 C   0  0  0  0  0  0  0  0  0  0  0  0
   -4.0969   40.2516   -7.7426 O   0  0  0  0  0  0  0  0  0  0  0  0
   -4.2649   41.8427   -7.6009 P   0  0  1  0  0  0  0  0  0  0  0  0
   -6.1982   43.8265   -8.1332 P   0  0  2  0  0  0  0  0  0  0  0  0
   -5.3343   37.2025   -4.9820 C   0  0  0  0  0  0  0  0  0  0  0  0
  -10.6617   38.1012   -3.4379 N   0  0  0  0  0  0  0  0  0  0  0  0
   -4.2087   42.2944   -6.0647 O   0  5  0  0  0  0  0  0  0  0  0  0
   -6.4814   44.2803   -6.7561 O   0  0  0  0  0  0  0  0  0  0  0  0
   -5.9202   37.8290   -3.8900 C   0  0  0  0  0  0  0  0  0  0  0  0
  -11.1438   38.0050   -2.1892 C   0  0  0  0  0  0  0  0  0  0  0  0
   -3.1100   42.6704   -8.3721 O   0  0  0  0  0  0  0  0  0  0  0  0
   -7.4989   43.9310   -9.0675 O   0  5  0  0  0  0  0  0  0  0  0  0
   -6.6745   38.9872   -4.0833 N   0  0  0  0  0  0  0  0  0  0  0  0
  -10.4195   38.4306   -1.1441 N   0  0  0  0  0  0  0  0  0  0  0  0
   -5.6866   42.3142   -8.2356 O   0  0  0  0  0  0  0  0  0  0  0  0
   -5.1038   44.7570   -8.8264 O   0  0  0  0  0  0  0  0  0  0  0  0
   -6.8268   39.5106   -5.3729 C   0  0  1  0  0  0  0  0  0  0  0  0
   -9.2034   38.9576   -1.3333 C   0  0  0  0  0  0  0  0  0  0  0  0
   -8.4940   39.3742   -0.2894 N   0  0  0  0  0  0  0  0  0  0  0  0
   -6.2388   38.8806   -6.4685 C   0  0  2  0  0  0  0  0  0  0  0  0
   -8.6808   39.0661   -2.6162 C   0  0  0  0  0  0  0  0  0  0  0  0
   -5.4934   37.7268   -6.2590 C   0  0  0  0  0  0  0  0  0  0  0  0
   -9.4655   38.6149   -3.6712 C   0  0  0  0  0  0  0  0  0  0  0  0
   -7.2980   39.6582   -2.9186 C   0  0  0  0  0  0  0  0  0  0  0  0
  1 13  1  0  0  0  0
  3  4  1  0  0  0  0
  4  5  1  0  0  0  0
  6  5  1  6  0  0  0
  6 10  1  0  0  0  0
  6 14  2  0  0  0  0
  6 18  1  0  0  0  0
  7 11  1  1  0  0  0
  7 15  1  0  0  0  0
  7 19  2  0  0  0  0
  7 18  1  0  0  0  0
  8 25  1  0  0  0  0
  8 12  1  0  0  0  0
  9 26  2  0  0  0  0
  9 13  1  0  0  0  0
 12 16  1  0  0  0  0
 13 17  2  0  0  0  0
 16 20  1  0  0  0  0
 16 27  1  0  0  0  0
 17 21  1  0  0  0  0
 20  2  1  6  0  0  0
 20 23  1  0  0  0  0
 21 22  1  0  0  0  0
 21 24  2  0  0  0  0
 23  3  1  1  0  0  0
 23 25  1  0  0  0  0
 24 27  1  0  0  0  0
 24 26  1  0  0  0  0
M  CHG  2  10  -1  15  -1
M  END
>  <CHROM.1>
-51.69501398,-72.81126716,132.06824872,174.68892231,-65.20467589,129.20887940
146.66421747,-87.30499711,-6.81721086,40.52194459,-5.65735673,2.25708757
-0.57590360,2.63846877

>  <Name>
ligand

>  <RI>
0

>  <Rbt.Current_Directory>
/home/itssahil/PROJECTS/Mol_Feturizer/New_Systems/rnas/3D2V

>  <Rbt.Executable>
rbdock ($Id: //depot/dev/client3/rdock/2013.1/src/exe/rbdock.cxx#4 $)

>  <Rbt.Library>
libRbt.so (2013.1, Build901 2013/11/27)

>  <Rbt.Parameter_File>
/export/apps/rDock/src/rDock_2013.1_src/data/scripts/dock_solv.prm

>  <Rbt.Receptor>
prm/pocket_docking_3.prm

>  <SCORE>
-20.1189

>  <SCORE.INTER>
-20.3015

>  <SCORE.INTER.CONST>
1

>  <SCORE.INTER.POLAR>
0

>  <SCORE.INTER.ROT>
8

>  <SCORE.INTER.SOLV>
18.8917

>  <SCORE.INTER.VDW>
-28.7649

>  <SCORE.INTER.norm>
-0.751907

>  <SCORE.INTRA>
0.182553

>  <SCORE.INTRA.DIHEDRAL>
0.657554

>  <SCORE.INTRA.DIHEDRAL.0>
7.82666

>  <SCORE.INTRA.POLAR>
0

>  <SCORE.INTRA.POLAR.0>
0

>  <SCORE.INTRA.REPUL>
0

>  <SCORE.INTRA.REPUL.0>
0

>  <SCORE.INTRA.SOLV>
1.15683

>  <SCORE.INTRA.SOLV.lig_0>
-83.2758

>  <SCORE.INTRA.VDW>
-0.724639

>  <SCORE.INTRA.VDW.0>
-3.26816

>  <SCORE.INTRA.norm>
0.0067612

>  <SCORE.RESTR>
0

>  <SCORE.RESTR.CAVITY>
0

>  <SCORE.RESTR.norm>
0

>  <SCORE.SYSTEM>
0

>  <SCORE.SYSTEM.CONST>
0

>  <SCORE.SYSTEM.DIHEDRAL>
0

>  <SCORE.SYSTEM.SOLV>
0

>  <SCORE.SYSTEM.norm>
0

>  <SCORE.heavy>
27

>  <SCORE.norm>
-0.745146

>  <RMSD>
2.141

$$$$
ligand
 OpenBabel11021811473D
libRbt.so/2013.1/901 2013/11/27
 27 28  0  0  0  0  0  0  0  0999 V2000
  -12.9157   37.5400   -1.7596 C   0  0  0  0  0  0  0  0  0  0  0  0
   -5.5816   38.0236   -4.6998 C   0  0  0  0  0  0  0  0  0  0  0  0
   -5.4420   38.9974   -7.5296 C   0  0  0  0  0  0  0  0  0  0  0  0
   -4.9077   40.0970   -8.4493 C   0  0  0  0  0  0  0  0  0  0  0  0
   -4.2270   41.1022   -7.6939 O   0  0  0  0  0  0  0  0  0  0  0  0
   -3.8051   42.4852   -8.3933 P   0  0  1  0  0  0  0  0  0  0  0  0
   -2.2060   43.3813  -10.5371 P   0  0  2  0  0  0  0  0  0  0  0  0
   -8.1964   41.1685   -6.0630 C   0  0  0  0  0  0  0  0  0  0  0  0
  -10.9603   37.8325   -3.2690 N   0  0  0  0  0  0  0  0  0  0  0  0
   -5.0930   43.2907   -8.9028 O   0  5  0  0  0  0  0  0  0  0  0  0
   -1.4828   44.4011   -9.7500 O   0  0  0  0  0  0  0  0  0  0  0  0
   -8.2774   40.7327   -4.7471 C   0  0  0  0  0  0  0  0  0  0  0  0
  -11.4852   37.9984   -2.0451 C   0  0  0  0  0  0  0  0  0  0  0  0
   -2.9999   43.4747   -7.4002 O   0  0  0  0  0  0  0  0  0  0  0  0
   -3.4218   44.0267  -11.3625 O   0  5  0  0  0  0  0  0  0  0  0  0
   -7.4285   39.7172   -4.3044 N   0  0  0  0  0  0  0  0  0  0  0  0
  -10.7654   38.5644   -1.0655 N   0  0  0  0  0  0  0  0  0  0  0  0
   -2.8301   42.1958   -9.6630 O   0  0  0  0  0  0  0  0  0  0  0  0
   -1.2517   42.7251  -11.6338 O   0  0  0  0  0  0  0  0  0  0  0  0
   -6.5102   39.1426   -5.1913 C   0  0  1  0  0  0  0  0  0  0  0  0
   -9.5111   38.9718   -1.2963 C   0  0  0  0  0  0  0  0  0  0  0  0
   -8.8068   39.5297   -0.3170 N   0  0  0  0  0  0  0  0  0  0  0  0
   -6.4293   39.5812   -6.5120 C   0  0  2  0  0  0  0  0  0  0  0  0
   -8.9439   38.8092   -2.5543 C   0  0  0  0  0  0  0  0  0  0  0  0
   -7.2797   40.5951   -6.9358 C   0  0  0  0  0  0  0  0  0  0  0  0
   -9.7255   38.2198   -3.5414 C   0  0  0  0  0  0  0  0  0  0  0  0
   -7.5156   39.2493   -2.9011 C   0  0  0  0  0  0  0  0  0  0  0  0
  1 13  1  0  0  0  0
  3  4  1  0  0  0  0
  4  5  1  0  0  0  0
  6  5  1  1  0  0  0
  6 10  1  0  0  0  0
  6 14  2  0  0  0  0
  6 18  1  0  0  0  0
  7 11  1  1  0  0  0
  7 15  1  0  0  0  0
  7 19  2  0  0  0  0
  7 18  1  0  0  0  0
  8 25  1  0  0  0  0
  8 12  1  0  0  0  0
  9 26  2  0  0  0  0
  9 13  1  0  0  0  0
 12 16  1  0  0  0  0
 13 17  2  0  0  0  0
 16 20  1  0  0  0  0
 16 27  1  0  0  0  0
 17 21  1  0  0  0  0
 20  2  1  1  0  0  0
 20 23  1  0  0  0  0
 21 22  1  0  0  0  0
 21 24  2  0  0  0  0
 23  3  1  6  0  0  0
 23 25  1  0  0  0  0
 24 27  1  0  0  0  0
 24 26  1  0  0  0  0
M  CHG  2  10  -1  15  -1
M  END
>  <CHROM.1>
60.17593314,-169.14562209,62.13887094,-178.10818231,53.28312646,-142.77029248
-146.10665496,55.15298434,-6.10555020,40.76249394,-6.34601808,2.50749348
0.65975089,1.41515585

>  <Name>
ligand

>  <RI>
0

>  <Rbt.Current_Directory>
/home/itssahil/PROJECTS/Mol_Feturizer/New_Systems/rnas/3D2V

>  <Rbt.Executable>
rbdock ($Id: //depot/dev/client3/rdock/2013.1/src/exe/rbdock.cxx#4 $)

>  <Rbt.Library>
libRbt.so (2013.1, Build901 2013/11/27)

>  <Rbt.Parameter_File>
/export/apps/rDock/src/rDock_2013.1_src/data/scripts/dock_solv.prm

>  <Rbt.Receptor>
prm/pocket_docking_2.prm

>  <SCORE>
-21.5121

>  <SCORE.INTER>
-21.1727

>  <SCORE.INTER.CONST>
1

>  <SCORE.INTER.POLAR>
0

>  <SCORE.INTER.ROT>
8

>  <SCORE.INTER.SOLV>
24.2374

>  <SCORE.INTER.VDW>
-31.1276

>  <SCORE.INTER.norm>
-0.784175

>  <SCORE.INTRA>
-1.003

>  <SCORE.INTRA.DIHEDRAL>
-1.97829

>  <SCORE.INTRA.DIHEDRAL.0>
7.82666

>  <SCORE.INTRA.POLAR>
0

>  <SCORE.INTRA.POLAR.0>
0

>  <SCORE.INTRA.REPUL>
0

>  <SCORE.INTRA.REPUL.0>
0

>  <SCORE.INTRA.SOLV>
-1.08479

>  <SCORE.INTRA.SOLV.lig_0>
-83.2758

>  <SCORE.INTRA.VDW>
0.528535

>  <SCORE.INTRA.VDW.0>
-3.26816

>  <SCORE.INTRA.norm>
-0.0371483

>  <SCORE.RESTR>
0.663588

>  <SCORE.RESTR.CAVITY>
0.663588

>  <SCORE.RESTR.norm>
0.0245773

>  <SCORE.SYSTEM>
0

>  <SCORE.SYSTEM.CONST>
0

>  <SCORE.SYSTEM.DIHEDRAL>
0

>  <SCORE.SYSTEM.SOLV>
0

>  <SCORE.SYSTEM.norm>
0

>  <SCORE.heavy>
27

>  <SCORE.norm>
-0.796746

>  <RMSD>
2.147

$$$$
ligand
 OpenBabel11021811463D
libRbt.so/2013.1/901 2013/11/27
 27 28  0  0  0  0  0  0  0  0999 V2000
  -13.0887   37.5109   -1.8027 C   0  0  0  0  0  0  0  0  0  0  0  0
   -7.2735   38.2829   -5.6786 C   0  0  0  0  0  0  0  0  0  0  0  0
   -7.2625   40.3572   -7.8402 C   0  0  0  0  0  0  0  0  0  0  0  0
   -5.7942   40.0297   -8.1187 C   0  0  0  0  0  0  0  0  0  0  0  0
   -5.2666   40.8914   -9.1303 O   0  0  0  0  0  0  0  0  0  0  0  0
   -4.9712   42.4347   -8.7974 P   0  0  1  0  0  0  0  0  0  0  0  0
   -4.0395   44.7490  -10.1137 P   0  0  2  0  0  0  0  0  0  0  0  0
   -7.8254   42.4489   -4.7163 C   0  0  0  0  0  0  0  0  0  0  0  0
  -11.1684   37.9034   -3.3342 N   0  0  0  0  0  0  0  0  0  0  0  0
   -6.2731   43.1569   -8.2053 O   0  5  0  0  0  0  0  0  0  0  0  0
   -4.0166   45.4033  -11.4381 O   0  0  0  0  0  0  0  0  0  0  0  0
   -7.8333   41.5040   -3.6988 C   0  0  0  0  0  0  0  0  0  0  0  0
  -11.6504   37.9477   -2.0826 C   0  0  0  0  0  0  0  0  0  0  0  0
   -3.7936   42.6310   -7.7073 O   0  0  0  0  0  0  0  0  0  0  0  0
   -2.5929   44.7732   -9.4191 O   0  5  0  0  0  0  0  0  0  0  0  0
   -7.6509   40.1557   -4.0095 N   0  0  0  0  0  0  0  0  0  0  0  0
  -10.8807   38.3728   -1.0703 N   0  0  0  0  0  0  0  0  0  0  0  0
   -4.5024   43.2181  -10.1440 O   0  0  0  0  0  0  0  0  0  0  0  0
   -5.0036   45.5278   -9.1097 O   0  0  0  0  0  0  0  0  0  0  0  0
   -7.4700   39.7676   -5.3425 C   0  0  1  0  0  0  0  0  0  0  0  0
   -9.6187   38.7590   -1.2956 C   0  0  0  0  0  0  0  0  0  0  0  0
   -8.8647   39.1767   -0.2839 N   0  0  0  0  0  0  0  0  0  0  0  0
   -7.4617   40.7170   -6.3631 C   0  0  2  0  0  0  0  0  0  0  0  0
   -9.0954   38.7203   -2.5823 C   0  0  0  0  0  0  0  0  0  0  0  0
   -7.6418   42.0555   -6.0363 C   0  0  0  0  0  0  0  0  0  0  0  0
   -9.9279   38.2751   -3.6026 C   0  0  0  0  0  0  0  0  0  0  0  0
   -7.6618   39.1460   -2.9250 C   0  0  0  0  0  0  0  0  0  0  0  0
  1 13  1  0  0  0  0
  3  4  1  0  0  0  0
  4  5  1  0  0  0  0
  6  5  1  6  0  0  0
  6 10  1  0  0  0  0
  6 14  2  0  0  0  0
  6 18  1  0  0  0  0
  7 11  1  6  0  0  0
  7 15  1  0  0  0  0
  7 19  2  0  0  0  0
  7 18  1  0  0  0  0
  8 25  1  0  0  0  0
  8 12  1  0  0  0  0
  9 26  2  0  0  0  0
  9 13  1  0  0  0  0
 12 16  1  0  0  0  0
 13 17  2  0  0  0  0
 16 20  1  0  0  0  0
 16 27  1  0  0  0  0
 17 21  1  0  0  0  0
 20  2  1  1  0  0  0
 20 23  1  0  0  0  0
 21 22  1  0  0  0  0
 21 24  2  0  0  0  0
 23  3  1  6  0  0  0
 23 25  1  0  0  0  0
 24 27  1  0  0  0  0
 24 26  1  0  0  0  0
M  CHG  2  10  -1  15  -1
M  END
>  <CHROM.1>
-121.99966948,72.47071200,-54.42568750,-175.70252784,-163.60996565,-75.36505594
-126.52131466,84.23368452,-6.97755808,41.22659707,-6.23179614,2.92168771
0.98213253,0.89882655

>  <Name>
ligand

>  <RI>
0

>  <Rbt.Current_Directory>
/home/itssahil/PROJECTS/Mol_Feturizer/New_Systems/rnas/3D2V

>  <Rbt.Executable>
rbdock ($Id: //depot/dev/client3/rdock/2013.1/src/exe/rbdock.cxx#4 $)

>  <Rbt.Library>
libRbt.so (2013.1, Build901 2013/11/27)

>  <Rbt.Parameter_File>
/export/apps/rDock/src/rDock_2013.1_src/data/scripts/dock_solv.prm

>  <Rbt.Receptor>
prm/pocket_docking_2.prm

>  <SCORE>
-14.3798

>  <SCORE.INTER>
-18.0433

>  <SCORE.INTER.CONST>
1

>  <SCORE.INTER.POLAR>
0

>  <SCORE.INTER.ROT>
8

>  <SCORE.INTER.SOLV>
17.2291

>  <SCORE.INTER.VDW>
-26.7053

>  <SCORE.INTER.norm>
-0.668272

>  <SCORE.INTRA>
3.64242

>  <SCORE.INTRA.DIHEDRAL>
4.08351

>  <SCORE.INTRA.DIHEDRAL.0>
7.82666

>  <SCORE.INTRA.POLAR>
0

>  <SCORE.INTRA.POLAR.0>
0

>  <SCORE.INTRA.REPUL>
0

>  <SCORE.INTRA.REPUL.0>
0

>  <SCORE.INTRA.SOLV>
3.60181

>  <SCORE.INTRA.SOLV.lig_0>
-83.2758

>  <SCORE.INTRA.VDW>
-0.200238

>  <SCORE.INTRA.VDW.0>
-3.26816

>  <SCORE.INTRA.norm>
0.134904

>  <SCORE.RESTR>
0.0210889

>  <SCORE.RESTR.CAVITY>
0.0210889

>  <SCORE.RESTR.norm>
0.000781071

>  <SCORE.SYSTEM>
0

>  <SCORE.SYSTEM.CONST>
0

>  <SCORE.SYSTEM.DIHEDRAL>
0

>  <SCORE.SYSTEM.SOLV>
0

>  <SCORE.SYSTEM.norm>
0

>  <SCORE.heavy>
27

>  <SCORE.norm>
-0.532586

>  <RMSD>
2.150

$$$$
ligand
 OpenBabel11021811473D
libRbt.so/2013.1/901 2013/11/27
 27 28  0  0  0  0  0  0  0  0999 V2000
  -12.0768   37.3157   -1.9419 C   0  0  0  0  0  0  0  0  0  0  0  0
   -8.2493   40.5522   -6.4954 C   0  0  0  0  0  0  0  0  0  0  0  0
   -6.6658   38.9937   -8.5050 C   0  0  0  0  0  0  0  0  0  0  0  0
   -5.5659   39.7259   -9.2762 C   0  0  0  0  0  0  0  0  0  0  0  0
   -5.5770   41.1224   -8.9698 O   0  0  0  0  0  0  0  0  0  0  0  0
   -4.5726   42.1198   -9.7291 P   0  0  1  0  0  0  0  0  0  0  0  0
   -6.2131   44.4132   -9.6547 P   0  0  2  0  0  0  0  0  0  0  0  0
   -4.9283   38.1052   -5.2427 C   0  0  0  0  0  0  0  0  0  0  0  0
  -10.6806   38.4073   -3.6873 N   0  0  0  0  0  0  0  0  0  0  0  0
   -3.0457   41.7581   -9.4052 O   0  5  0  0  0  0  0  0  0  0  0  0
   -6.4595   44.5232  -11.1072 O   0  0  0  0  0  0  0  0  0  0  0  0
   -5.6492   38.8189   -4.2945 C   0  0  0  0  0  0  0  0  0  0  0  0
  -10.8592   38.1262   -2.3872 C   0  0  0  0  0  0  0  0  0  0  0  0
   -4.7314   42.0718  -11.3372 O   0  0  0  0  0  0  0  0  0  0  0  0
   -6.1386   45.8572   -8.9583 O   0  5  0  0  0  0  0  0  0  0  0  0
   -6.7267   39.6082   -4.6991 N   0  0  0  0  0  0  0  0  0  0  0  0
   -9.9772   38.5505   -1.4707 N   0  0  0  0  0  0  0  0  0  0  0  0
   -4.8571   43.6552   -9.2728 O   0  0  0  0  0  0  0  0  0  0  0  0
   -7.4139   43.6551   -8.9285 O   0  0  0  0  0  0  0  0  0  0  0  0
   -7.0655   39.6797   -6.0557 C   0  0  1  0  0  0  0  0  0  0  0  0
   -8.9048   39.2611   -1.8414 C   0  0  0  0  0  0  0  0  0  0  0  0
   -8.0366   39.6746   -0.9240 N   0  0  0  0  0  0  0  0  0  0  0  0
   -6.3415   38.9624   -7.0067 C   0  0  2  0  0  0  0  0  0  0  0  0
   -8.6961   39.5633   -3.1815 C   0  0  0  0  0  0  0  0  0  0  0  0
   -5.2735   38.1791   -6.5866 C   0  0  0  0  0  0  0  0  0  0  0  0
   -9.6357   39.1060   -4.0984 C   0  0  0  0  0  0  0  0  0  0  0  0
   -7.4953   40.3724   -3.6887 C   0  0  0  0  0  0  0  0  0  0  0  0
  1 13  1  0  0  0  0
  3  4  1  0  0  0  0
  4  5  1  0  0  0  0
  6  5  1  1  0  0  0
  6 10  1  0  0  0  0
  6 14  2  0  0  0  0
  6 18  1  0  0  0  0
  7 11  1  6  0  0  0
  7 15  1  0  0  0  0
  7 19  2  0  0  0  0
  7 18  1  0  0  0  0
  8 25  1  0  0  0  0
  8 12  1  0  0  0  0
  9 26  2  0  0  0  0
  9 13  1  0  0  0  0
 12 16  1  0  0  0  0
 13 17  2  0  0  0  0
 16 20  1  0  0  0  0
 16 27  1  0  0  0  0
 17 21  1  0  0  0  0
 20  2  1  1  0  0  0
 20 23  1  0  0  0  0
 21 22  1  0  0  0  0
 21 24  2  0  0  0  0
 23  3  1  6  0  0  0
 23 25  1  0  0  0  0
 24 27  1  0  0  0  0
 24 26  1  0  0  0  0
M  CHG  2  10  -1  15  -1
M  END
>  <CHROM.1>
-69.14885057,-176.11118737,-63.15202437,-67.51486385,-59.42001456,110.88371022
123.10979985,-92.29584169,-6.90616797,40.84027036,-6.71791267,2.15411125
-0.67406863,2.52520786

>  <Name>
ligand

>  <RI>
0

>  <Rbt.Current_Directory>
/home/itssahil/PROJECTS/Mol_Feturizer/New_Systems/rnas/3D2V

>  <Rbt.Executable>
rbdock ($Id: //depot/dev/client3/rdock/2013.1/src/exe/rbdock.cxx#4 $)

>  <Rbt.Library>
libRbt.so (2013.1, Build901 2013/11/27)

>  <Rbt.Parameter_File>
/export/apps/rDock/src/rDock_2013.1_src/data/scripts/dock_solv.prm

>  <Rbt.Receptor>
prm/pocket_docking_3.prm

>  <SCORE>
-20.7601

>  <SCORE.INTER>
-18.5202

>  <SCORE.INTER.CONST>
1

>  <SCORE.INTER.POLAR>
0

>  <SCORE.INTER.ROT>
8

>  <SCORE.INTER.SOLV>
17.6255

>  <SCORE.INTER.VDW>
-27.1553

>  <SCORE.INTER.norm>
-0.685932

>  <SCORE.INTRA>
-2.24944

>  <SCORE.INTRA.DIHEDRAL>
-2.14244

>  <SCORE.INTRA.DIHEDRAL.0>
7.82666

>  <SCORE.INTRA.POLAR>
0

>  <SCORE.INTRA.POLAR.0>
0

>  <SCORE.INTRA.REPUL>
0

>  <SCORE.INTRA.REPUL.0>
0

>  <SCORE.INTRA.SOLV>
-1.55564

>  <SCORE.INTRA.SOLV.lig_0>
-83.2758

>  <SCORE.INTRA.VDW>
-0.4004

>  <SCORE.INTRA.VDW.0>
-3.26816

>  <SCORE.INTRA.norm>
-0.0833126

>  <SCORE.RESTR>
0.00951185

>  <SCORE.RESTR.CAVITY>
0.00951185

>  <SCORE.RESTR.norm>
0.000352291

>  <SCORE.SYSTEM>
0

>  <SCORE.SYSTEM.CONST>
0

>  <SCORE.SYSTEM.DIHEDRAL>
0

>  <SCORE.SYSTEM.SOLV>
0

>  <SCORE.SYSTEM.norm>
0

>  <SCORE.heavy>
27

>  <SCORE.norm>
-0.768892

>  <RMSD>
2.152

$$$$
ligand
 OpenBabel11021811473D
libRbt.so/2013.1/901 2013/11/27
 27 28  0  0  0  0  0  0  0  0999 V2000
  -12.2314   37.6224   -2.0067 C   0  0  0  0  0  0  0  0  0  0  0  0
   -6.5223   41.2951   -4.8550 C   0  0  0  0  0  0  0  0  0  0  0  0
   -5.3373   40.1961   -7.3776 C   0  0  0  0  0  0  0  0  0  0  0  0
   -3.9134   40.7518   -7.4426 C   0  0  0  0  0  0  0  0  0  0  0  0
   -3.8798   41.9712   -8.1885 O   0  0  0  0  0  0  0  0  0  0  0  0
   -4.2215   41.9629   -9.7579 P   0  0  1  0  0  0  0  0  0  0  0  0
   -6.4504   43.6441   -9.3556 P   0  0  2  0  0  0  0  0  0  0  0  0
   -5.2623   37.1776   -5.0680 C   0  0  0  0  0  0  0  0  0  0  0  0
  -10.2350   38.2531   -3.3498 N   0  0  0  0  0  0  0  0  0  0  0  0
   -2.8838   41.9673  -10.6398 O   0  5  0  0  0  0  0  0  0  0  0  0
   -7.4600   42.5660   -9.3274 O   0  0  0  0  0  0  0  0  0  0  0  0
   -5.8096   37.6663   -3.8891 C   0  0  0  0  0  0  0  0  0  0  0  0
  -10.7939   38.1270   -2.1362 C   0  0  0  0  0  0  0  0  0  0  0  0
   -5.0738   40.6663  -10.2114 O   0  0  0  0  0  0  0  0  0  0  0  0
   -7.0272   44.9740  -10.0444 O   0  5  0  0  0  0  0  0  0  0  0  0
   -6.2211   38.9982   -3.8209 N   0  0  0  0  0  0  0  0  0  0  0  0
  -10.1019   38.4401   -1.0311 N   0  0  0  0  0  0  0  0  0  0  0  0
   -5.1099   43.2698  -10.1443 O   0  0  0  0  0  0  0  0  0  0  0  0
   -6.0385   44.0784   -7.8772 O   0  0  0  0  0  0  0  0  0  0  0  0
   -6.0713   39.8302   -4.9369 C   0  0  1  0  0  0  0  0  0  0  0  0
   -8.8420   38.8832   -1.1244 C   0  0  0  0  0  0  0  0  0  0  0  0
   -8.1656   39.1887   -0.0219 N   0  0  0  0  0  0  0  0  0  0  0  0
   -5.5222   39.3385   -6.1200 C   0  0  1  0  0  0  0  0  0  0  0  0
   -8.2399   39.0204   -2.3692 C   0  0  0  0  0  0  0  0  0  0  0  0
   -5.1204   38.0094   -6.1720 C   0  0  0  0  0  0  0  0  0  0  0  0
   -8.9933   38.6868   -3.4888 C   0  0  0  0  0  0  0  0  0  0  0  0
   -6.8029   39.5217   -2.5626 C   0  0  0  0  0  0  0  0  0  0  0  0
  1 13  1  0  0  0  0
  3  4  1  0  0  0  0
  4  5  1  0  0  0  0
  6  5  1  1  0  0  0
  6 10  1  0  0  0  0
  6 14  2  0  0  0  0
  6 18  1  0  0  0  0
  7 11  1  6  0  0  0
  7 15  1  0  0  0  0
  7 19  2  0  0  0  0
  7 18  1  0  0  0  0
  8 25  1  0  0  0  0
  8 12  1  0  0  0  0
  9 26  2  0  0  0  0
  9 13  1  0  0  0  0
 12 16  1  0  0  0  0
 13 17  2  0  0  0  0
 16 20  1  0  0  0  0
 16 27  1  0  0  0  0
 17 21  1  0  0  0  0
 20  2  1  6  0  0  0
 20 23  1  0  0  0  0
 21 22  1  0  0  0  0
 21 24  2  0  0  0  0
 23  3  1  6  0  0  0
 23 25  1  0  0  0  0
 24 27  1  0  0  0  0
 24 26  1  0  0  0  0
M  CHG  2  10  -1  15  -1
M  END
>  <CHROM.1>
-153.45721747,-65.53678578,-99.18268489,-52.38410026,-55.79536837,96.08918832
153.66220328,-75.20128851,-6.58223795,40.59695772,-6.19457941,2.06018280
-0.44814180,2.31344063

>  <Name>
ligand

>  <RI>
0

>  <Rbt.Current_Directory>
/home/itssahil/PROJECTS/Mol_Feturizer/New_Systems/rnas/3D2V

>  <Rbt.Executable>
rbdock ($Id: //depot/dev/client3/rdock/2013.1/src/exe/rbdock.cxx#4 $)

>  <Rbt.Library>
libRbt.so (2013.1, Build901 2013/11/27)

>  <Rbt.Parameter_File>
/export/apps/rDock/src/rDock_2013.1_src/data/scripts/dock_solv.prm

>  <Rbt.Receptor>
prm/pocket_docking_3.prm

>  <SCORE>
-19.6311

>  <SCORE.INTER>
-20.407

>  <SCORE.INTER.CONST>
1

>  <SCORE.INTER.POLAR>
0

>  <SCORE.INTER.ROT>
8

>  <SCORE.INTER.SOLV>
20.74

>  <SCORE.INTER.VDW>
-29.4513

>  <SCORE.INTER.norm>
-0.755814

>  <SCORE.INTRA>
0.775928

>  <SCORE.INTRA.DIHEDRAL>
1.66912

>  <SCORE.INTRA.DIHEDRAL.0>
7.82666

>  <SCORE.INTRA.POLAR>
0

>  <SCORE.INTRA.POLAR.0>
0

>  <SCORE.INTRA.REPUL>
0

>  <SCORE.INTRA.REPUL.0>
0

>  <SCORE.INTRA.SOLV>
0.0808087

>  <SCORE.INTRA.SOLV.lig_0>
-83.2758

>  <SCORE.INTRA.VDW>
-0.0990348

>  <SCORE.INTRA.VDW.0>
-3.26816

>  <SCORE.INTRA.norm>
0.0287381

>  <SCORE.RESTR>
0

>  <SCORE.RESTR.CAVITY>
0

>  <SCORE.RESTR.norm>
0

>  <SCORE.SYSTEM>
0

>  <SCORE.SYSTEM.CONST>
0

>  <SCORE.SYSTEM.DIHEDRAL>
0

>  <SCORE.SYSTEM.SOLV>
0

>  <SCORE.SYSTEM.norm>
0

>  <SCORE.heavy>
27

>  <SCORE.norm>
-0.727076

>  <RMSD>
2.159

$$$$
ligand
 OpenBabel11021811473D
libRbt.so/2013.1/901 2013/11/27
 27 28  0  0  0  0  0  0  0  0999 V2000
  -12.3746   37.4479   -2.0187 C   0  0  0  0  0  0  0  0  0  0  0  0
   -6.2485   42.0248   -3.6947 C   0  0  0  0  0  0  0  0  0  0  0  0
   -4.9465   41.4665   -6.3345 C   0  0  0  0  0  0  0  0  0  0  0  0
   -3.8004   40.9793   -7.2232 C   0  0  0  0  0  0  0  0  0  0  0  0
   -2.7736   41.9701   -7.3132 O   0  0  0  0  0  0  0  0  0  0  0  0
   -3.0479   43.3424   -8.1016 P   0  0  1  0  0  0  0  0  0  0  0  0
   -0.3021   43.9829   -8.0202 P   0  0  2  0  0  0  0  0  0  0  0  0
   -5.6300   37.9676   -5.0149 C   0  0  0  0  0  0  0  0  0  0  0  0
  -10.3974   38.4311   -3.1638 N   0  0  0  0  0  0  0  0  0  0  0  0
   -3.1712   43.0873   -9.6786 O   0  5  0  0  0  0  0  0  0  0  0  0
    0.6595   45.0528   -7.6838 O   0  0  0  0  0  0  0  0  0  0  0  0
   -6.2360   38.2038   -3.7881 C   0  0  0  0  0  0  0  0  0  0  0  0
  -10.9741   38.0615   -2.0098 C   0  0  0  0  0  0  0  0  0  0  0  0
   -4.4142   44.0731   -7.6401 O   0  0  0  0  0  0  0  0  0  0  0  0
   -0.1425   43.5043   -9.5438 O   0  5  0  0  0  0  0  0  0  0  0  0
   -6.4399   39.5171   -3.3620 N   0  0  0  0  0  0  0  0  0  0  0  0
  -10.3324   38.2253   -0.8439 N   0  0  0  0  0  0  0  0  0  0  0  0
   -1.8365   44.3944   -7.8326 O   0  0  0  0  0  0  0  0  0  0  0  0
   -0.0376   42.6806   -7.1382 O   0  0  0  0  0  0  0  0  0  0  0  0
   -6.0250   40.5825   -4.1701 C   0  0  1  0  0  0  0  0  0  0  0  0
   -9.1056   38.7605   -0.8159 C   0  0  0  0  0  0  0  0  0  0  0  0
   -8.4787   38.9162    0.3456 N   0  0  0  0  0  0  0  0  0  0  0  0
   -5.4172   40.3444   -5.4017 C   0  0  2  0  0  0  0  0  0  0  0  0
   -8.4858   39.1492   -1.9973 C   0  0  0  0  0  0  0  0  0  0  0  0
   -5.2244   39.0309   -5.8122 C   0  0  0  0  0  0  0  0  0  0  0  0
   -9.1869   38.9637   -3.1833 C   0  0  0  0  0  0  0  0  0  0  0  0
   -7.0841   39.7707   -2.0519 C   0  0  0  0  0  0  0  0  0  0  0  0
  1 13  1  0  0  0  0
  3  4  1  0  0  0  0
  4  5  1  0  0  0  0
  6  5  1  1  0  0  0
  6 10  1  0  0  0  0
  6 14  2  0  0  0  0
  6 18  1  0  0  0  0
  7 11  1  1  0  0  0
  7 15  1  0  0  0  0
  7 19  2  0  0  0  0
  7 18  1  0  0  0  0
  8 25  1  0  0  0  0
  8 12  1  0  0  0  0
  9 26  2  0  0  0  0
  9 13  1  0  0  0  0
 12 16  1  0  0  0  0
 13 17  2  0  0  0  0
 16 20  1  0  0  0  0
 16 27  1  0  0  0  0
 17 21  1  0  0  0  0
 20  2  1  6  0  0  0
 20 23  1  0  0  0  0
 21 22  1  0  0  0  0
 21 24  2  0  0  0  0
 23  3  1  1  0  0  0
 23 25  1  0  0  0  0
 24 27  1  0  0  0  0
 24 26  1  0  0  0  0
M  CHG  2  10  -1  15  -1
M  END
>  <CHROM.1>
-137.12846347,-68.86409221,-69.42977180,50.41455862,-177.89852823,153.63919248
153.96391378,-59.26842152,-5.09172266,41.14608304,-5.35937891,2.47325579
0.43498824,1.76914034

>  <Name>
ligand

>  <RI>
0

>  <Rbt.Current_Directory>
/home/itssahil/PROJECTS/Mol_Feturizer/New_Systems/rnas/3D2V

>  <Rbt.Executable>
rbdock ($Id: //depot/dev/client3/rdock/2013.1/src/exe/rbdock.cxx#4 $)

>  <Rbt.Library>
libRbt.so (2013.1, Build901 2013/11/27)

>  <Rbt.Parameter_File>
/export/apps/rDock/src/rDock_2013.1_src/data/scripts/dock_solv.prm

>  <Rbt.Receptor>
prm/pocket_docking_6.prm

>  <SCORE>
-16.9574

>  <SCORE.INTER>
-20.3825

>  <SCORE.INTER.CONST>
1

>  <SCORE.INTER.POLAR>
0

>  <SCORE.INTER.ROT>
8

>  <SCORE.INTER.SOLV>
25.7362

>  <SCORE.INTER.VDW>
-31.1004

>  <SCORE.INTER.norm>
-0.754909

>  <SCORE.INTRA>
3.42514

>  <SCORE.INTRA.DIHEDRAL>
2.50265

>  <SCORE.INTRA.DIHEDRAL.0>
7.82666

>  <SCORE.INTRA.POLAR>
0

>  <SCORE.INTRA.POLAR.0>
0

>  <SCORE.INTRA.REPUL>
0

>  <SCORE.INTRA.REPUL.0>
0

>  <SCORE.INTRA.SOLV>
1.21679

>  <SCORE.INTRA.SOLV.lig_0>
-83.2758

>  <SCORE.INTRA.VDW>
1.56542

>  <SCORE.INTRA.VDW.0>
-3.26816

>  <SCORE.INTRA.norm>
0.126857

>  <SCORE.RESTR>
0

>  <SCORE.RESTR.CAVITY>
0

>  <SCORE.RESTR.norm>
0

>  <SCORE.SYSTEM>
0

>  <SCORE.SYSTEM.CONST>
0

>  <SCORE.SYSTEM.DIHEDRAL>
0

>  <SCORE.SYSTEM.SOLV>
0

>  <SCORE.SYSTEM.norm>
0

>  <SCORE.heavy>
27

>  <SCORE.norm>
-0.628052

>  <RMSD>
2.160

$$$$
ligand
 OpenBabel11021811473D
libRbt.so/2013.1/901 2013/11/27
 27 28  0  0  0  0  0  0  0  0999 V2000
  -12.2146   37.6435   -1.7686 C   0  0  0  0  0  0  0  0  0  0  0  0
   -7.0397   41.0952   -5.1396 C   0  0  0  0  0  0  0  0  0  0  0  0
   -6.0442   39.9573   -7.7260 C   0  0  0  0  0  0  0  0  0  0  0  0
   -4.7282   39.8362   -8.4967 C   0  0  0  0  0  0  0  0  0  0  0  0
   -3.6556   40.4329   -7.7634 O   0  0  0  0  0  0  0  0  0  0  0  0
   -3.5644   42.0310   -7.6303 P   0  0  1  0  0  0  0  0  0  0  0  0
   -1.7363   43.9826   -6.7328 P   0  0  2  0  0  0  0  0  0  0  0  0
   -5.3185   37.1447   -5.2738 C   0  0  0  0  0  0  0  0  0  0  0  0
  -10.2964   38.1916   -3.2543 N   0  0  0  0  0  0  0  0  0  0  0  0
   -3.6220   42.7341   -9.0689 O   0  5  0  0  0  0  0  0  0  0  0  0
   -1.7600   44.7578   -7.9902 O   0  0  0  0  0  0  0  0  0  0  0  0
   -5.7743   37.6526   -4.0644 C   0  0  0  0  0  0  0  0  0  0  0  0
  -10.7848   38.1307   -2.0058 C   0  0  0  0  0  0  0  0  0  0  0  0
   -4.7690   42.6613   -6.7556 O   0  0  0  0  0  0  0  0  0  0  0  0
   -0.2715   43.9677   -6.0770 O   0  5  0  0  0  0  0  0  0  0  0  0
   -6.3350   38.9299   -4.0212 N   0  0  0  0  0  0  0  0  0  0  0  0
  -10.0290   38.4943   -0.9596 N   0  0  0  0  0  0  0  0  0  0  0  0
   -2.1764   42.4531   -6.8943 O   0  0  0  0  0  0  0  0  0  0  0  0
   -2.6840   44.6470   -5.6354 O   0  0  0  0  0  0  0  0  0  0  0  0
   -6.4254   39.6896   -5.1937 C   0  0  1  0  0  0  0  0  0  0  0  0
   -8.7748   38.9232   -1.1474 C   0  0  0  0  0  0  0  0  0  0  0  0
   -8.0346   39.2790   -0.1025 N   0  0  0  0  0  0  0  0  0  0  0  0
   -5.9680   39.1787   -6.4074 C   0  0  1  0  0  0  0  0  0  0  0  0
   -8.2450   38.9933   -2.4301 C   0  0  0  0  0  0  0  0  0  0  0  0
   -5.4152   37.9041   -6.4334 C   0  0  0  0  0  0  0  0  0  0  0  0
   -9.0630   38.6090   -3.4863 C   0  0  0  0  0  0  0  0  0  0  0  0
   -6.8194   39.4741   -2.7309 C   0  0  0  0  0  0  0  0  0  0  0  0
  1 13  1  0  0  0  0
  3  4  1  0  0  0  0
  4  5  1  0  0  0  0
  6  5  1  6  0  0  0
  6 10  1  0  0  0  0
  6 14  2  0  0  0  0
  6 18  1  0  0  0  0
  7 11  1  6  0  0  0
  7 15  1  0  0  0  0
  7 19  2  0  0  0  0
  7 18  1  0  0  0  0
  8 25  1  0  0  0  0
  8 12  1  0  0  0  0
  9 26  2  0  0  0  0
  9 13  1  0  0  0  0
 12 16  1  0  0  0  0
 13 17  2  0  0  0  0
 16 20  1  0  0  0  0
 16 27  1  0  0  0  0
 17 21  1  0  0  0  0
 20  2  1  6  0  0  0
 20 23  1  0  0  0  0
 21 22  1  0  0  0  0
 21 24  2  0  0  0  0
 23  3  1  6  0  0  0
 23 25  1  0  0  0  0
 24 27  1  0  0  0  0
 24 26  1  0  0  0  0
M  CHG  2  10  -1  15  -1
M  END
>  <CHROM.1>
-63.53312855,-72.11460073,-53.13725043,174.47630814,-51.65843882,135.38944684
156.09064015,-83.97446484,-5.55638265,40.64974754,-5.29478091,-2.96586288
-0.77108487,-2.12611646

>  <Name>
ligand

>  <RI>
0

>  <Rbt.Current_Directory>
/home/itssahil/PROJECTS/Mol_Feturizer/New_Systems/rnas/3D2V

>  <Rbt.Executable>
rbdock ($Id: //depot/dev/client3/rdock/2013.1/src/exe/rbdock.cxx#4 $)

>  <Rbt.Library>
libRbt.so (2013.1, Build901 2013/11/27)

>  <Rbt.Parameter_File>
/export/apps/rDock/src/rDock_2013.1_src/data/scripts/dock_solv.prm

>  <Rbt.Receptor>
prm/pocket_docking_6.prm

>  <SCORE>
-20.835

>  <SCORE.INTER>
-20.7412

>  <SCORE.INTER.CONST>
1

>  <SCORE.INTER.POLAR>
0

>  <SCORE.INTER.ROT>
8

>  <SCORE.INTER.SOLV>
17.63

>  <SCORE.INTER.VDW>
-28.6374

>  <SCORE.INTER.norm>
-0.768192

>  <SCORE.INTRA>
-0.0937893

>  <SCORE.INTRA.DIHEDRAL>
-1.66504

>  <SCORE.INTRA.DIHEDRAL.0>
7.82666

>  <SCORE.INTRA.POLAR>
0

>  <SCORE.INTRA.POLAR.0>
0

>  <SCORE.INTRA.REPUL>
0

>  <SCORE.INTRA.REPUL.0>
0

>  <SCORE.INTRA.SOLV>
1.49576

>  <SCORE.INTRA.SOLV.lig_0>
-83.2758

>  <SCORE.INTRA.VDW>
-0.0091531

>  <SCORE.INTRA.VDW.0>
-3.26816

>  <SCORE.INTRA.norm>
-0.00347368

>  <SCORE.RESTR>
0

>  <SCORE.RESTR.CAVITY>
0

>  <SCORE.RESTR.norm>
0

>  <SCORE.SYSTEM>
0

>  <SCORE.SYSTEM.CONST>
0

>  <SCORE.SYSTEM.DIHEDRAL>
0

>  <SCORE.SYSTEM.SOLV>
0

>  <SCORE.SYSTEM.norm>
0

>  <SCORE.heavy>
27

>  <SCORE.norm>
-0.771666

>  <RMSD>
2.166

$$$$
ligand
 OpenBabel11021811473D
libRbt.so/2013.1/901 2013/11/27
 27 28  0  0  0  0  0  0  0  0999 V2000
  -13.0784   37.4710   -1.7758 C   0  0  0  0  0  0  0  0  0  0  0  0
   -5.3416   38.5990   -4.6419 C   0  0  0  0  0  0  0  0  0  0  0  0
   -5.2611   39.9778   -7.3004 C   0  0  0  0  0  0  0  0  0  0  0  0
   -5.1578   41.1843   -8.2354 C   0  0  0  0  0  0  0  0  0  0  0  0
   -3.9088   41.1796   -8.9313 O   0  0  0  0  0  0  0  0  0  0  0  0
   -3.4854   42.4410   -9.8311 P   0  0  1  0  0  0  0  0  0  0  0  0
   -3.7444   44.3612   -7.7812 P   0  0  2  0  0  0  0  0  0  0  0  0
   -8.5643   41.1900   -5.8615 C   0  0  0  0  0  0  0  0  0  0  0  0
  -11.1250   37.7473   -3.2908 N   0  0  0  0  0  0  0  0  0  0  0  0
   -2.3939   42.0268  -10.9284 O   0  5  0  0  0  0  0  0  0  0  0  0
   -4.0068   43.5542   -6.5719 O   0  0  0  0  0  0  0  0  0  0  0  0
   -8.6215   40.5613   -4.6247 C   0  0  0  0  0  0  0  0  0  0  0  0
  -11.6369   37.8948   -2.0591 C   0  0  0  0  0  0  0  0  0  0  0  0
   -4.7297   43.0896  -10.6340 O   0  0  0  0  0  0  0  0  0  0  0  0
   -5.1083   44.8046   -8.5015 O   0  5  0  0  0  0  0  0  0  0  0  0
   -7.5767   39.7254   -4.2279 N   0  0  0  0  0  0  0  0  0  0  0  0
  -10.8943   38.4123   -1.0697 N   0  0  0  0  0  0  0  0  0  0  0  0
   -2.8665   43.6162   -8.8918 O   0  0  0  0  0  0  0  0  0  0  0  0
   -3.0015   45.7225   -7.4081 O   0  0  0  0  0  0  0  0  0  0  0  0
   -6.4861   39.5222   -5.0820 C   0  0  1  0  0  0  0  0  0  0  0  0
   -9.6301   38.7890   -1.2983 C   0  0  0  0  0  0  0  0  0  0  0  0
   -8.9032   39.2988   -0.3093 N   0  0  0  0  0  0  0  0  0  0  0  0
   -6.4294   40.1542   -6.3232 C   0  0  1  0  0  0  0  0  0  0  0  0
   -9.0761   38.6444   -2.5644 C   0  0  0  0  0  0  0  0  0  0  0  0
   -7.4766   40.9855   -6.7016 C   0  0  0  0  0  0  0  0  0  0  0  0
   -9.8810   38.1057   -3.5616 C   0  0  0  0  0  0  0  0  0  0  0  0
   -7.6377   39.0518   -2.9094 C   0  0  0  0  0  0  0  0  0  0  0  0
  1 13  1  0  0  0  0
  3  4  1  0  0  0  0
  4  5  1  0  0  0  0
  6  5  1  1  0  0  0
  6 10  1  0  0  0  0
  6 14  2  0  0  0  0
  6 18  1  0  0  0  0
  7 11  1  1  0  0  0
  7 15  1  0  0  0  0
  7 19  2  0  0  0  0
  7 18  1  0  0  0  0
  8 25  1  0  0  0  0
  8 12  1  0  0  0  0
  9 26  2  0  0  0  0
  9 13  1  0  0  0  0
 12 16  1  0  0  0  0
 13 17  2  0  0  0  0
 16 20  1  0  0  0  0
 16 27  1  0  0  0  0
 17 21  1  0  0  0  0
 20  2  1  1  0  0  0
 20 23  1  0  0  0  0
 21 22  1  0  0  0  0
 21 24  2  0  0  0  0
 23  3  1  1  0  0  0
 23 25  1  0  0  0  0
 24 27  1  0  0  0  0
 24 26  1  0  0  0  0
M  CHG  2  10  -1  15  -1
M  END
>  <CHROM.1>
166.60704498,-172.25911498,-158.03247249,-63.98198052,74.48829263,-155.36493001
-138.34098566,35.95973928,-6.44558622,41.02665874,-6.02737286,3.01467421
0.89164927,0.79002959

>  <Name>
ligand

>  <RI>
0

>  <Rbt.Current_Directory>
/home/itssahil/PROJECTS/Mol_Feturizer/New_Systems/rnas/3D2V

>  <Rbt.Executable>
rbdock ($Id: //depot/dev/client3/rdock/2013.1/src/exe/rbdock.cxx#4 $)

>  <Rbt.Library>
libRbt.so (2013.1, Build901 2013/11/27)

>  <Rbt.Parameter_File>
/export/apps/rDock/src/rDock_2013.1_src/data/scripts/dock_solv.prm

>  <Rbt.Receptor>
prm/pocket_docking_2.prm

>  <SCORE>
-15.3175

>  <SCORE.INTER>
-16.5569

>  <SCORE.INTER.CONST>
1

>  <SCORE.INTER.POLAR>
0

>  <SCORE.INTER.ROT>
8

>  <SCORE.INTER.SOLV>
17.7864

>  <SCORE.INTER.VDW>
-25.9001

>  <SCORE.INTER.norm>
-0.613219

>  <SCORE.INTRA>
0.607231

>  <SCORE.INTRA.DIHEDRAL>
-0.632815

>  <SCORE.INTRA.DIHEDRAL.0>
7.82666

>  <SCORE.INTRA.POLAR>
0

>  <SCORE.INTRA.POLAR.0>
0

>  <SCORE.INTRA.REPUL>
0

>  <SCORE.INTRA.REPUL.0>
0

>  <SCORE.INTRA.SOLV>
-0.854964

>  <SCORE.INTRA.SOLV.lig_0>
-83.2758

>  <SCORE.INTRA.VDW>
1.35112

>  <SCORE.INTRA.VDW.0>
-3.26816

>  <SCORE.INTRA.norm>
0.02249

>  <SCORE.RESTR>
0.632184

>  <SCORE.RESTR.CAVITY>
0.632184

>  <SCORE.RESTR.norm>
0.0234142

>  <SCORE.SYSTEM>
0

>  <SCORE.SYSTEM.CONST>
0

>  <SCORE.SYSTEM.DIHEDRAL>
0

>  <SCORE.SYSTEM.SOLV>
0

>  <SCORE.SYSTEM.norm>
0

>  <SCORE.heavy>
27

>  <SCORE.norm>
-0.567314

>  <RMSD>
2.168

$$$$
ligand
 OpenBabel11021811473D
libRbt.so/2013.1/901 2013/11/27
 27 28  0  0  0  0  0  0  0  0999 V2000
  -12.3342   37.3417   -2.0932 C   0  0  0  0  0  0  0  0  0  0  0  0
   -6.9586   41.2423   -6.0001 C   0  0  0  0  0  0  0  0  0  0  0  0
   -5.1482   39.6621   -7.7891 C   0  0  0  0  0  0  0  0  0  0  0  0
   -3.9962   40.6688   -7.7783 C   0  0  0  0  0  0  0  0  0  0  0  0
   -4.4938   42.0062   -7.6892 O   0  0  0  0  0  0  0  0  0  0  0  0
   -3.4700   43.2427   -7.6354 P   0  0  1  0  0  0  0  0  0  0  0  0
   -4.9286   45.0636   -9.2206 P   0  0  2  0  0  0  0  0  0  0  0  0
   -5.1802   37.5663   -4.6178 C   0  0  0  0  0  0  0  0  0  0  0  0
  -10.2454   38.5304   -1.4520 N   0  0  0  0  0  0  0  0  0  0  0  0
   -2.6827   43.2799   -6.2404 O   0  5  0  0  0  0  0  0  0  0  0  0
   -3.9504   45.3042  -10.3013 O   0  0  0  0  0  0  0  0  0  0  0  0
   -6.0169   38.2827   -3.7723 C   0  0  0  0  0  0  0  0  0  0  0  0
  -11.0549   38.1063   -2.4348 C   0  0  0  0  0  0  0  0  0  0  0  0
   -2.3505   43.1862   -8.8003 O   0  0  0  0  0  0  0  0  0  0  0  0
   -5.8214   46.3659   -8.9329 O   0  5  0  0  0  0  0  0  0  0  0  0
   -6.5958   39.4708   -4.2207 N   0  0  0  0  0  0  0  0  0  0  0  0
  -10.7525   38.3470   -3.7187 N   0  0  0  0  0  0  0  0  0  0  0  0
   -4.2745   44.6442   -7.8223 O   0  0  0  0  0  0  0  0  0  0  0  0
   -5.9648   43.9234   -9.6331 O   0  0  0  0  0  0  0  0  0  0  0  0
   -6.3220   39.9331   -5.5136 C   0  0  1  0  0  0  0  0  0  0  0  0
   -9.6370   39.0152   -4.0375 C   0  0  0  0  0  0  0  0  0  0  0  0
   -9.3488   39.2495   -5.3136 N   0  0  0  0  0  0  0  0  0  0  0  0
   -5.4823   39.2129   -6.3617 C   0  0  2  0  0  0  0  0  0  0  0  0
   -8.7835   39.4669   -3.0383 C   0  0  0  0  0  0  0  0  0  0  0  0
   -4.9164   38.0305   -5.9006 C   0  0  0  0  0  0  0  0  0  0  0  0
   -9.1335   39.1942   -1.7209 C   0  0  0  0  0  0  0  0  0  0  0  0
   -7.4869   40.2377   -3.3186 C   0  0  0  0  0  0  0  0  0  0  0  0
  1 13  1  0  0  0  0
  3  4  1  0  0  0  0
  4  5  1  0  0  0  0
  6  5  1  6  0  0  0
  6 10  1  0  0  0  0
  6 14  2  0  0  0  0
  6 18  1  0  0  0  0
  7 11  1  6  0  0  0
  7 15  1  0  0  0  0
  7 19  2  0  0  0  0
  7 18  1  0  0  0  0
  8 25  1  0  0  0  0
  8 12  1  0  0  0  0
  9 26  2  0  0  0  0
  9 13  1  0  0  0  0
 12 16  1  0  0  0  0
 13 17  2  0  0  0  0
 16 20  1  0  0  0  0
 16 27  1  0  0  0  0
 17 21  1  0  0  0  0
 20  2  1  6  0  0  0
 20 23  1  0  0  0  0
 21 22  1  0  0  0  0
 21 24  2  0  0  0  0
 23  3  1  1  0  0  0
 23 25  1  0  0  0  0
 24 27  1  0  0  0  0
 24 26  1  0  0  0  0
M  CHG  2  10  -1  15  -1
M  END
>  <CHROM.1>
-91.05928671,178.93017448,-70.07981470,-70.20463427,-65.53227741,83.99575270
-56.07243689,-67.26188081,-6.27119237,41.23649227,-6.12970592,2.19765806
-0.32055282,2.58536898

>  <Name>
ligand

>  <RI>
0

>  <Rbt.Current_Directory>
/home/itssahil/PROJECTS/Mol_Feturizer/New_Systems/rnas/3D2V

>  <Rbt.Executable>
rbdock ($Id: //depot/dev/client3/rdock/2013.1/src/exe/rbdock.cxx#4 $)

>  <Rbt.Library>
libRbt.so (2013.1, Build901 2013/11/27)

>  <Rbt.Parameter_File>
/export/apps/rDock/src/rDock_2013.1_src/data/scripts/dock_solv.prm

>  <Rbt.Receptor>
prm/pocket_docking_6.prm

>  <SCORE>
-19.2595

>  <SCORE.INTER>
-19.7745

>  <SCORE.INTER.CONST>
1

>  <SCORE.INTER.POLAR>
0

>  <SCORE.INTER.ROT>
8

>  <SCORE.INTER.SOLV>
11.2886

>  <SCORE.INTER.VDW>
-25.8792

>  <SCORE.INTER.norm>
-0.73239

>  <SCORE.INTRA>
0.515025

>  <SCORE.INTRA.DIHEDRAL>
0.657539

>  <SCORE.INTRA.DIHEDRAL.0>
7.82666

>  <SCORE.INTRA.POLAR>
0

>  <SCORE.INTRA.POLAR.0>
0

>  <SCORE.INTRA.REPUL>
0

>  <SCORE.INTRA.REPUL.0>
0

>  <SCORE.INTRA.SOLV>
2.1861

>  <SCORE.INTRA.SOLV.lig_0>
-83.2758

>  <SCORE.INTRA.VDW>
-0.906795

>  <SCORE.INTRA.VDW.0>
-3.26816

>  <SCORE.INTRA.norm>
0.019075

>  <SCORE.RESTR>
0

>  <SCORE.RESTR.CAVITY>
0

>  <SCORE.RESTR.norm>
0

>  <SCORE.SYSTEM>
0

>  <SCORE.SYSTEM.CONST>
0

>  <SCORE.SYSTEM.DIHEDRAL>
0

>  <SCORE.SYSTEM.SOLV>
0

>  <SCORE.SYSTEM.norm>
0

>  <SCORE.heavy>
27

>  <SCORE.norm>
-0.713315

>  <RMSD>
2.198

$$$$
ligand
 OpenBabel11021811473D
libRbt.so/2013.1/901 2013/11/27
 27 28  0  0  0  0  0  0  0  0999 V2000
  -12.1054   37.4855   -1.8096 C   0  0  0  0  0  0  0  0  0  0  0  0
   -5.5106   41.6029   -4.8216 C   0  0  0  0  0  0  0  0  0  0  0  0
   -4.0407   40.1971   -7.0212 C   0  0  0  0  0  0  0  0  0  0  0  0
   -4.9469   40.7098   -8.1422 C   0  0  0  0  0  0  0  0  0  0  0  0
   -4.1737   41.3191   -9.1791 O   0  0  0  0  0  0  0  0  0  0  0  0
   -4.9052   42.1382  -10.3513 P   0  0  1  0  0  0  0  0  0  0  0  0
   -3.6299   44.4954   -9.4715 P   0  0  2  0  0  0  0  0  0  0  0  0
   -5.6409   37.3057   -5.1423 C   0  0  0  0  0  0  0  0  0  0  0  0
   -9.9341   38.4835   -1.1193 N   0  0  0  0  0  0  0  0  0  0  0  0
   -4.9721   41.2781  -11.7014 O   0  5  0  0  0  0  0  0  0  0  0  0
   -4.4351   44.3934   -8.2371 O   0  0  0  0  0  0  0  0  0  0  0  0
   -6.3300   37.9370   -4.1154 C   0  0  0  0  0  0  0  0  0  0  0  0
  -10.7641   38.1507   -2.1199 C   0  0  0  0  0  0  0  0  0  0  0  0
   -6.4257   42.5453   -9.9828 O   0  0  0  0  0  0  0  0  0  0  0  0
   -3.6565   45.9837  -10.0714 O   0  5  0  0  0  0  0  0  0  0  0  0
   -6.2912   39.3284   -4.0134 N   0  0  0  0  0  0  0  0  0  0  0  0
  -10.4282   38.3965   -3.3945 N   0  0  0  0  0  0  0  0  0  0  0  0
   -4.1054   43.5231  -10.6495 O   0  0  0  0  0  0  0  0  0  0  0  0
   -2.0933   44.1856   -9.1772 O   0  0  0  0  0  0  0  0  0  0  0  0
   -5.5527   40.0732   -4.9408 C   0  0  1  0  0  0  0  0  0  0  0  0
   -9.2583   38.9785   -3.6860 C   0  0  0  0  0  0  0  0  0  0  0  0
   -8.9372   39.2189   -4.9531 N   0  0  0  0  0  0  0  0  0  0  0  0
   -4.8616   39.4385   -5.9716 C   0  0  1  0  0  0  0  0  0  0  0  0
   -8.3824   39.3348   -2.6678 C   0  0  0  0  0  0  0  0  0  0  0  0
   -4.9131   38.0527   -6.0605 C   0  0  0  0  0  0  0  0  0  0  0  0
   -8.7687   39.0602   -1.3609 C   0  0  0  0  0  0  0  0  0  0  0  0
   -7.0240   40.0033   -2.9165 C   0  0  0  0  0  0  0  0  0  0  0  0
  1 13  1  0  0  0  0
  3  4  1  0  0  0  0
  4  5  1  0  0  0  0
  6  5  1  1  0  0  0
  6 10  1  0  0  0  0
  6 14  2  0  0  0  0
  6 18  1  0  0  0  0
  7 11  1  1  0  0  0
  7 15  1  0  0  0  0
  7 19  2  0  0  0  0
  7 18  1  0  0  0  0
  8 25  1  0  0  0  0
  8 12  1  0  0  0  0
  9 26  2  0  0  0  0
  9 13  1  0  0  0  0
 12 16  1  0  0  0  0
 13 17  2  0  0  0  0
 16 20  1  0  0  0  0
 16 27  1  0  0  0  0
 17 21  1  0  0  0  0
 20  2  1  6  0  0  0
 20 23  1  0  0  0  0
 21 22  1  0  0  0  0
 21 24  2  0  0  0  0
 23  3  1  6  0  0  0
 23 25  1  0  0  0  0
 24 27  1  0  0  0  0
 24 26  1  0  0  0  0
M  CHG  2  10  -1  15  -1
M  END
>  <CHROM.1>
-175.10700091,-170.31790217,-102.84812866,-46.89733328,-25.69222866,-82.98718521
-45.53680947,-39.61642265,-6.10516077,40.90677600,-6.56534296,2.33823318
-0.74510010,2.75616292

>  <Name>
ligand

>  <RI>
0

>  <Rbt.Current_Directory>
/home/itssahil/PROJECTS/Mol_Feturizer/New_Systems/rnas/3D2V

>  <Rbt.Executable>
rbdock ($Id: //depot/dev/client3/rdock/2013.1/src/exe/rbdock.cxx#4 $)

>  <Rbt.Library>
libRbt.so (2013.1, Build901 2013/11/27)

>  <Rbt.Parameter_File>
/export/apps/rDock/src/rDock_2013.1_src/data/scripts/dock_solv.prm

>  <Rbt.Receptor>
prm/pocket_docking_5.prm

>  <SCORE>
-19.4995

>  <SCORE.INTER>
-20.086

>  <SCORE.INTER.CONST>
1

>  <SCORE.INTER.POLAR>
0

>  <SCORE.INTER.ROT>
8

>  <SCORE.INTER.SOLV>
12.5248

>  <SCORE.INTER.VDW>
-26.4989

>  <SCORE.INTER.norm>
-0.743927

>  <SCORE.INTRA>
0.586472

>  <SCORE.INTRA.DIHEDRAL>
1.58823

>  <SCORE.INTRA.DIHEDRAL.0>
7.82666

>  <SCORE.INTRA.POLAR>
0

>  <SCORE.INTRA.POLAR.0>
0

>  <SCORE.INTRA.REPUL>
0

>  <SCORE.INTRA.REPUL.0>
0

>  <SCORE.INTRA.SOLV>
0.127451

>  <SCORE.INTRA.SOLV.lig_0>
-83.2758

>  <SCORE.INTRA.VDW>
-0.27137

>  <SCORE.INTRA.VDW.0>
-3.26816

>  <SCORE.INTRA.norm>
0.0217212

>  <SCORE.RESTR>
0

>  <SCORE.RESTR.CAVITY>
0

>  <SCORE.RESTR.norm>
0

>  <SCORE.SYSTEM>
0

>  <SCORE.SYSTEM.CONST>
0

>  <SCORE.SYSTEM.DIHEDRAL>
0

>  <SCORE.SYSTEM.SOLV>
0

>  <SCORE.SYSTEM.norm>
0

>  <SCORE.heavy>
27

>  <SCORE.norm>
-0.722206

>  <RMSD>
2.209

$$$$
ligand
 OpenBabel11021811473D
libRbt.so/2013.1/901 2013/11/27
 27 28  0  0  0  0  0  0  0  0999 V2000
  -13.1339   37.5774   -1.7440 C   0  0  0  0  0  0  0  0  0  0  0  0
   -7.9943   38.5048   -5.9361 C   0  0  0  0  0  0  0  0  0  0  0  0
   -7.9865   40.8148   -7.8437 C   0  0  0  0  0  0  0  0  0  0  0  0
   -7.0160   41.7310   -8.5917 C   0  0  0  0  0  0  0  0  0  0  0  0
   -5.7719   41.0667   -8.8263 O   0  0  0  0  0  0  0  0  0  0  0  0
   -4.6307   41.7830   -9.7006 P   0  0  1  0  0  0  0  0  0  0  0  0
   -2.3803   43.4279   -9.2689 P   0  0  2  0  0  0  0  0  0  0  0  0
   -7.5760   42.5417   -4.4821 C   0  0  0  0  0  0  0  0  0  0  0  0
  -11.2326   37.8051   -3.3316 N   0  0  0  0  0  0  0  0  0  0  0  0
   -3.9362   40.7453  -10.7046 O   0  5  0  0  0  0  0  0  0  0  0  0
   -2.9262   44.6633   -9.8676 O   0  0  0  0  0  0  0  0  0  0  0  0
   -7.5765   41.4856   -3.5806 C   0  0  0  0  0  0  0  0  0  0  0  0
  -11.6965   37.9729   -2.0836 C   0  0  0  0  0  0  0  0  0  0  0  0
   -5.1975   42.9973  -10.6050 O   0  0  0  0  0  0  0  0  0  0  0  0
   -1.4900   42.6062  -10.3215 O   0  5  0  0  0  0  0  0  0  0  0  0
   -7.7081   40.1783   -4.0512 N   0  0  0  0  0  0  0  0  0  0  0  0
  -10.9093   38.4860   -1.1269 N   0  0  0  0  0  0  0  0  0  0  0  0
   -3.4914   42.4135   -8.7254 O   0  0  0  0  0  0  0  0  0  0  0  0
   -1.3986   43.7665   -8.0583 O   0  0  0  0  0  0  0  0  0  0  0  0
   -7.8463   39.9443   -5.4246 C   0  0  1  0  0  0  0  0  0  0  0  0
   -9.6479   38.8379   -1.4050 C   0  0  0  0  0  0  0  0  0  0  0  0
   -8.8766   39.3437   -0.4481 N   0  0  0  0  0  0  0  0  0  0  0  0
   -7.8452   41.0052   -6.3288 C   0  0  2  0  0  0  0  0  0  0  0  0
   -9.1431   38.6720   -2.6890 C   0  0  0  0  0  0  0  0  0  0  0  0
   -7.7103   42.3004   -5.8439 C   0  0  0  0  0  0  0  0  0  0  0  0
   -9.9933   38.1387   -3.6509 C   0  0  0  0  0  0  0  0  0  0  0  0
   -7.7114   39.0505   -3.0900 C   0  0  0  0  0  0  0  0  0  0  0  0
  1 13  1  0  0  0  0
  3  4  1  0  0  0  0
  4  5  1  0  0  0  0
  6  5  1  1  0  0  0
  6 10  1  0  0  0  0
  6 14  2  0  0  0  0
  6 18  1  0  0  0  0
  7 11  1  6  0  0  0
  7 15  1  0  0  0  0
  7 19  2  0  0  0  0
  7 18  1  0  0  0  0
  8 25  1  0  0  0  0
  8 12  1  0  0  0  0
  9 26  2  0  0  0  0
  9 13  1  0  0  0  0
 12 16  1  0  0  0  0
 13 17  2  0  0  0  0
 16 20  1  0  0  0  0
 16 27  1  0  0  0  0
 17 21  1  0  0  0  0
 20  2  1  6  0  0  0
 20 23  1  0  0  0  0
 21 22  1  0  0  0  0
 21 24  2  0  0  0  0
 23  3  1  1  0  0  0
 23 25  1  0  0  0  0
 24 27  1  0  0  0  0
 24 26  1  0  0  0  0
M  CHG  2  10  -1  15  -1
M  END
>  <CHROM.1>
91.02663231,175.07427928,-138.05312794,-167.90288892,59.30157168,-137.89540644
-113.55820598,93.76508130,-6.66108567,40.89993639,-6.34376770,2.45866523
0.58913339,1.49829135

>  <Name>
ligand

>  <RI>
0

>  <Rbt.Current_Directory>
/home/itssahil/PROJECTS/Mol_Feturizer/New_Systems/rnas/3D2V

>  <Rbt.Executable>
rbdock ($Id: //depot/dev/client3/rdock/2013.1/src/exe/rbdock.cxx#4 $)

>  <Rbt.Library>
libRbt.so (2013.1, Build901 2013/11/27)

>  <Rbt.Parameter_File>
/export/apps/rDock/src/rDock_2013.1_src/data/scripts/dock_solv.prm

>  <Rbt.Receptor>
prm/pocket_docking_3.prm

>  <SCORE>
-16.7343

>  <SCORE.INTER>
-18.4903

>  <SCORE.INTER.CONST>
1

>  <SCORE.INTER.POLAR>
0

>  <SCORE.INTER.ROT>
8

>  <SCORE.INTER.SOLV>
22.7904

>  <SCORE.INTER.VDW>
-28.857

>  <SCORE.INTER.norm>
-0.684824

>  <SCORE.INTRA>
1.75599

>  <SCORE.INTRA.DIHEDRAL>
2.49815

>  <SCORE.INTRA.DIHEDRAL.0>
7.82666

>  <SCORE.INTRA.POLAR>
0

>  <SCORE.INTRA.POLAR.0>
0

>  <SCORE.INTRA.REPUL>
0

>  <SCORE.INTRA.REPUL.0>
0

>  <SCORE.INTRA.SOLV>
-0.715834

>  <SCORE.INTRA.SOLV.lig_0>
-83.2758

>  <SCORE.INTRA.VDW>
0.864828

>  <SCORE.INTRA.VDW.0>
-3.26816

>  <SCORE.INTRA.norm>
0.0650365

>  <SCORE.RESTR>
0

>  <SCORE.RESTR.CAVITY>
0

>  <SCORE.RESTR.norm>
0

>  <SCORE.SYSTEM>
0

>  <SCORE.SYSTEM.CONST>
0

>  <SCORE.SYSTEM.DIHEDRAL>
0

>  <SCORE.SYSTEM.SOLV>
0

>  <SCORE.SYSTEM.norm>
0

>  <SCORE.heavy>
27

>  <SCORE.norm>
-0.619788

>  <RMSD>
2.227

$$$$
ligand
 OpenBabel11021811473D
libRbt.so/2013.1/901 2013/11/27
 27 28  0  0  0  0  0  0  0  0999 V2000
  -12.3430   37.5594   -2.0090 C   0  0  0  0  0  0  0  0  0  0  0  0
   -6.7845   41.2159   -4.9869 C   0  0  0  0  0  0  0  0  0  0  0  0
   -5.5743   40.0644   -7.4738 C   0  0  0  0  0  0  0  0  0  0  0  0
   -4.1046   40.3576   -7.7815 C   0  0  0  0  0  0  0  0  0  0  0  0
   -3.9853   41.1737   -8.9495 O   0  0  0  0  0  0  0  0  0  0  0  0
   -4.3477   42.7369   -8.8781 P   0  0  1  0  0  0  0  0  0  0  0  0
   -4.9089   43.0012  -11.6297 P   0  0  2  0  0  0  0  0  0  0  0  0
   -5.3185   37.1618   -5.0323 C   0  0  0  0  0  0  0  0  0  0  0  0
  -10.3535   38.1799   -3.3670 N   0  0  0  0  0  0  0  0  0  0  0  0
   -5.8786   42.9558   -8.4591 O   0  5  0  0  0  0  0  0  0  0  0  0
   -4.8712   41.5520  -11.9141 O   0  0  0  0  0  0  0  0  0  0  0  0
   -5.8764   37.6755   -3.8691 C   0  0  0  0  0  0  0  0  0  0  0  0
  -10.9144   38.0852   -2.1515 C   0  0  0  0  0  0  0  0  0  0  0  0
   -3.4507   43.5442   -7.8025 O   0  0  0  0  0  0  0  0  0  0  0  0
   -4.3087   43.8568  -12.8477 O   0  5  0  0  0  0  0  0  0  0  0  0
   -6.3545   38.9866   -3.8550 N   0  0  0  0  0  0  0  0  0  0  0  0
  -10.2322   38.4485   -1.0557 N   0  0  0  0  0  0  0  0  0  0  0  0
   -4.0935   43.4371  -10.3243 O   0  0  0  0  0  0  0  0  0  0  0  0
   -6.4108   43.5093  -11.4559 O   0  0  0  0  0  0  0  0  0  0  0  0
   -6.2603   39.7734   -5.0092 C   0  0  1  0  0  0  0  0  0  0  0  0
   -8.9802   38.9110   -1.1604 C   0  0  0  0  0  0  0  0  0  0  0  0
   -8.3133   39.2662   -0.0670 N   0  0  0  0  0  0  0  0  0  0  0  0
   -5.7006   39.2567   -6.1766 C   0  0  2  0  0  0  0  0  0  0  0  0
   -8.3762   39.0164   -2.4074 C   0  0  0  0  0  0  0  0  0  0  0  0
   -5.2320   37.9486   -6.1744 C   0  0  0  0  0  0  0  0  0  0  0  0
   -9.1194   38.6310   -3.5171 C   0  0  0  0  0  0  0  0  0  0  0  0
   -6.9477   39.5368   -2.6136 C   0  0  0  0  0  0  0  0  0  0  0  0
  1 13  1  0  0  0  0
  3  4  1  0  0  0  0
  4  5  1  0  0  0  0
  6  5  1  6  0  0  0
  6 10  1  0  0  0  0
  6 14  2  0  0  0  0
  6 18  1  0  0  0  0
  7 11  1  6  0  0  0
  7 15  1  0  0  0  0
  7 19  2  0  0  0  0
  7 18  1  0  0  0  0
  8 25  1  0  0  0  0
  8 12  1  0  0  0  0
  9 26  2  0  0  0  0
  9 13  1  0  0  0  0
 12 16  1  0  0  0  0
 13 17  2  0  0  0  0
 16 20  1  0  0  0  0
 16 27  1  0  0  0  0
 17 21  1  0  0  0  0
 20  2  1  6  0  0  0
 20 23  1  0  0  0  0
 21 22  1  0  0  0  0
 21 24  2  0  0  0  0
 23  3  1  1  0  0  0
 23 25  1  0  0  0  0
 24 27  1  0  0  0  0
 24 26  1  0  0  0  0
M  CHG  2  10  -1  15  -1
M  END
>  <CHROM.1>
-176.77615151,74.51547811,-60.67448879,62.48276772,-53.10577475,111.83326886
153.94857240,-77.46558078,-6.38515139,40.59691089,-6.53868048,2.01696303
-0.09898023,2.09933470

>  <Name>
ligand

>  <RI>
0

>  <Rbt.Current_Directory>
/home/itssahil/PROJECTS/Mol_Feturizer/New_Systems/rnas/3D2V

>  <Rbt.Executable>
rbdock ($Id: //depot/dev/client3/rdock/2013.1/src/exe/rbdock.cxx#4 $)

>  <Rbt.Library>
libRbt.so (2013.1, Build901 2013/11/27)

>  <Rbt.Parameter_File>
/export/apps/rDock/src/rDock_2013.1_src/data/scripts/dock_solv.prm

>  <Rbt.Receptor>
prm/pocket_docking_7.prm

>  <SCORE>
-20.6444

>  <SCORE.INTER>
-19.3609

>  <SCORE.INTER.CONST>
1

>  <SCORE.INTER.POLAR>
0

>  <SCORE.INTER.ROT>
8

>  <SCORE.INTER.SOLV>
19.5518

>  <SCORE.INTER.VDW>
-28.3579

>  <SCORE.INTER.norm>
-0.71707

>  <SCORE.INTRA>
-1.28347

>  <SCORE.INTRA.DIHEDRAL>
-1.52103

>  <SCORE.INTRA.DIHEDRAL.0>
7.82666

>  <SCORE.INTRA.POLAR>
0

>  <SCORE.INTRA.POLAR.0>
0

>  <SCORE.INTRA.REPUL>
0

>  <SCORE.INTRA.REPUL.0>
0

>  <SCORE.INTRA.SOLV>
-0.593567

>  <SCORE.INTRA.SOLV.lig_0>
-83.2758

>  <SCORE.INTRA.VDW>
-0.22617

>  <SCORE.INTRA.VDW.0>
-3.26816

>  <SCORE.INTRA.norm>
-0.0475358

>  <SCORE.RESTR>
0

>  <SCORE.RESTR.CAVITY>
0

>  <SCORE.RESTR.norm>
0

>  <SCORE.SYSTEM>
0

>  <SCORE.SYSTEM.CONST>
0

>  <SCORE.SYSTEM.DIHEDRAL>
0

>  <SCORE.SYSTEM.SOLV>
0

>  <SCORE.SYSTEM.norm>
0

>  <SCORE.heavy>
27

>  <SCORE.norm>
-0.764606

>  <RMSD>
2.240

$$$$
ligand
 OpenBabel11021811473D
libRbt.so/2013.1/901 2013/11/27
 27 28  0  0  0  0  0  0  0  0999 V2000
  -12.9062   37.5091   -1.9770 C   0  0  0  0  0  0  0  0  0  0  0  0
   -5.6507   38.0875   -5.0276 C   0  0  0  0  0  0  0  0  0  0  0  0
   -5.5798   38.8502   -7.9239 C   0  0  0  0  0  0  0  0  0  0  0  0
   -4.7471   39.9361   -8.6081 C   0  0  0  0  0  0  0  0  0  0  0  0
   -5.5704   40.7542   -9.4430 O   0  0  0  0  0  0  0  0  0  0  0  0
   -4.9159   41.9494  -10.2934 P   0  0  1  0  0  0  0  0  0  0  0  0
   -3.3644   44.2649   -9.8603 P   0  0  2  0  0  0  0  0  0  0  0  0
   -8.3862   41.0351   -6.5818 C   0  0  0  0  0  0  0  0  0  0  0  0
  -11.0236   37.8883   -3.5579 N   0  0  0  0  0  0  0  0  0  0  0  0
   -3.8941   41.3846  -11.3907 O   0  5  0  0  0  0  0  0  0  0  0  0
   -4.1710   45.0870  -10.7855 O   0  0  0  0  0  0  0  0  0  0  0  0
   -8.4358   40.6968   -5.2360 C   0  0  0  0  0  0  0  0  0  0  0  0
  -11.5004   38.0103   -2.3094 C   0  0  0  0  0  0  0  0  0  0  0  0
   -6.0122   42.8320  -11.0888 O   0  0  0  0  0  0  0  0  0  0  0  0
   -2.0151   43.7454  -10.5569 O   0  5  0  0  0  0  0  0  0  0  0  0
   -7.5480   39.7455   -4.7317 N   0  0  0  0  0  0  0  0  0  0  0  0
  -10.7539   38.5696   -1.3461 N   0  0  0  0  0  0  0  0  0  0  0  0
   -4.1176   42.9668   -9.3065 O   0  0  0  0  0  0  0  0  0  0  0  0
   -2.8877   45.1228   -8.6030 O   0  0  0  0  0  0  0  0  0  0  0  0
   -6.6224   39.1358   -5.5871 C   0  0  1  0  0  0  0  0  0  0  0  0
   -9.5206   39.0140   -1.6179 C   0  0  0  0  0  0  0  0  0  0  0  0
   -8.7893   39.5648   -0.6544 N   0  0  0  0  0  0  0  0  0  0  0  0
   -6.5730   39.4764   -6.9378 C   0  0  2  0  0  0  0  0  0  0  0  0
   -9.0031   38.8972   -2.9021 C   0  0  0  0  0  0  0  0  0  0  0  0
   -7.4621   40.4276   -7.4232 C   0  0  0  0  0  0  0  0  0  0  0  0
   -9.8110   38.3133   -3.8711 C   0  0  0  0  0  0  0  0  0  0  0  0
   -7.6016   39.3816   -3.2962 C   0  0  0  0  0  0  0  0  0  0  0  0
  1 13  1  0  0  0  0
  3  4  1  0  0  0  0
  4  5  1  0  0  0  0
  6  5  1  1  0  0  0
  6 10  1  0  0  0  0
  6 14  2  0  0  0  0
  6 18  1  0  0  0  0
  7 11  1  6  0  0  0
  7 15  1  0  0  0  0
  7 19  2  0  0  0  0
  7 18  1  0  0  0  0
  8 25  1  0  0  0  0
  8 12  1  0  0  0  0
  9 26  2  0  0  0  0
  9 13  1  0  0  0  0
 12 16  1  0  0  0  0
 13 17  2  0  0  0  0
 16 20  1  0  0  0  0
 16 27  1  0  0  0  0
 17 21  1  0  0  0  0
 20  2  1  1  0  0  0
 20 23  1  0  0  0  0
 21 22  1  0  0  0  0
 21 24  2  0  0  0  0
 23  3  1  6  0  0  0
 23 25  1  0  0  0  0
 24 27  1  0  0  0  0
 24 26  1  0  0  0  0
M  CHG  2  10  -1  15  -1
M  END
>  <CHROM.1>
-66.08306876,-178.73993778,64.38439934,-179.65550594,48.05790971,-123.64947577
-152.40244451,56.24376024,-6.60159250,40.80836702,-6.82713541,2.76621443
0.91259410,1.01900713

>  <Name>
ligand

>  <RI>
0

>  <Rbt.Current_Directory>
/home/itssahil/PROJECTS/Mol_Feturizer/New_Systems/rnas/3D2V

>  <Rbt.Executable>
rbdock ($Id: //depot/dev/client3/rdock/2013.1/src/exe/rbdock.cxx#4 $)

>  <Rbt.Library>
libRbt.so (2013.1, Build901 2013/11/27)

>  <Rbt.Parameter_File>
/export/apps/rDock/src/rDock_2013.1_src/data/scripts/dock_solv.prm

>  <Rbt.Receptor>
prm/pocket_docking_3.prm

>  <SCORE>
-21.9312

>  <SCORE.INTER>
-20.4879

>  <SCORE.INTER.CONST>
1

>  <SCORE.INTER.POLAR>
0

>  <SCORE.INTER.ROT>
8

>  <SCORE.INTER.SOLV>
20.0317

>  <SCORE.INTER.VDW>
-29.2692

>  <SCORE.INTER.norm>
-0.758811

>  <SCORE.INTRA>
-1.44335

>  <SCORE.INTRA.DIHEDRAL>
-2.23276

>  <SCORE.INTRA.DIHEDRAL.0>
7.82666

>  <SCORE.INTRA.POLAR>
0

>  <SCORE.INTRA.POLAR.0>
0

>  <SCORE.INTRA.REPUL>
0

>  <SCORE.INTRA.REPUL.0>
0

>  <SCORE.INTRA.SOLV>
-1.27419

>  <SCORE.INTRA.SOLV.lig_0>
-83.2758

>  <SCORE.INTRA.VDW>
0.310121

>  <SCORE.INTRA.VDW.0>
-3.26816

>  <SCORE.INTRA.norm>
-0.0534576

>  <SCORE.RESTR>
0

>  <SCORE.RESTR.CAVITY>
0

>  <SCORE.RESTR.norm>
0

>  <SCORE.SYSTEM>
0

>  <SCORE.SYSTEM.CONST>
0

>  <SCORE.SYSTEM.DIHEDRAL>
0

>  <SCORE.SYSTEM.SOLV>
0

>  <SCORE.SYSTEM.norm>
0

>  <SCORE.heavy>
27

>  <SCORE.norm>
-0.812268

>  <RMSD>
2.247

$$$$
ligand
 OpenBabel11021811473D
libRbt.so/2013.1/901 2013/11/27
 27 28  0  0  0  0  0  0  0  0999 V2000
  -12.1282   37.6178   -2.0556 C   0  0  0  0  0  0  0  0  0  0  0  0
   -6.1139   42.2781   -3.4852 C   0  0  0  0  0  0  0  0  0  0  0  0
   -4.8275   41.9081   -6.1655 C   0  0  0  0  0  0  0  0  0  0  0  0
   -3.4463   42.4269   -5.7609 C   0  0  0  0  0  0  0  0  0  0  0  0
   -3.1993   43.7114   -6.3383 O   0  0  0  0  0  0  0  0  0  0  0  0
   -2.8504   43.8363   -7.9012 P   0  0  1  0  0  0  0  0  0  0  0  0
   -3.9304   41.9256   -9.6731 P   0  0  2  0  0  0  0  0  0  0  0  0
   -5.3381   38.3219   -5.0124 C   0  0  0  0  0  0  0  0  0  0  0  0
  -10.1207   38.6023   -3.1457 N   0  0  0  0  0  0  0  0  0  0  0  0
   -2.5850   45.3617   -8.3132 O   0  5  0  0  0  0  0  0  0  0  0  0
   -2.8096   41.9529  -10.6351 O   0  0  0  0  0  0  0  0  0  0  0  0
   -5.9359   38.4706   -3.7680 C   0  0  0  0  0  0  0  0  0  0  0  0
  -10.7250   38.2235   -2.0089 C   0  0  0  0  0  0  0  0  0  0  0  0
   -1.5296   43.0040   -8.3215 O   0  0  0  0  0  0  0  0  0  0  0  0
   -5.3378   41.7100  -10.4136 O   0  5  0  0  0  0  0  0  0  0  0  0
   -6.1906   39.7511   -3.2748 N   0  0  0  0  0  0  0  0  0  0  0  0
  -10.1087   38.3712   -0.8272 N   0  0  0  0  0  0  0  0  0  0  0  0
   -4.0781   43.2559   -8.7970 O   0  0  0  0  0  0  0  0  0  0  0  0
   -3.7889   40.6956   -8.6676 O   0  0  0  0  0  0  0  0  0  0  0  0
   -5.8346   40.8722   -4.0342 C   0  0  1  0  0  0  0  0  0  0  0  0
   -8.8799   38.8993   -0.7662 C   0  0  0  0  0  0  0  0  0  0  0  0
   -8.2783   39.0390    0.4107 N   0  0  0  0  0  0  0  0  0  0  0  0
   -5.2350   40.7218   -5.2836 C   0  0  1  0  0  0  0  0  0  0  0  0
   -8.2319   39.2972   -1.9292 C   0  0  0  0  0  0  0  0  0  0  0  0
   -4.9911   39.4399   -5.7611 C   0  0  0  0  0  0  0  0  0  0  0  0
   -8.9074   39.1283   -3.1324 C   0  0  0  0  0  0  0  0  0  0  0  0
   -6.8260   39.9114   -1.9458 C   0  0  0  0  0  0  0  0  0  0  0  0
  1 13  1  0  0  0  0
  3  4  1  0  0  0  0
  4  5  1  0  0  0  0
  6  5  1  1  0  0  0
  6 10  1  0  0  0  0
  6 14  2  0  0  0  0
  6 18  1  0  0  0  0
  7 11  1  6  0  0  0
  7 15  1  0  0  0  0
  7 19  2  0  0  0  0
  7 18  1  0  0  0  0
  8 25  1  0  0  0  0
  8 12  1  0  0  0  0
  9 26  2  0  0  0  0
  9 13  1  0  0  0  0
 12 16  1  0  0  0  0
 13 17  2  0  0  0  0
 16 20  1  0  0  0  0
 16 27  1  0  0  0  0
 17 21  1  0  0  0  0
 20  2  1  6  0  0  0
 20 23  1  0  0  0  0
 21 22  1  0  0  0  0
 21 24  2  0  0  0  0
 23  3  1  6  0  0  0
 23 25  1  0  0  0  0
 24 27  1  0  0  0  0
 24 26  1  0  0  0  0
M  CHG  2  10  -1  15  -1
M  END
>  <CHROM.1>
-165.79974903,-74.83539113,-178.84191262,-112.60882482,-55.52841945,84.39279062
157.92518884,-62.55283884,-5.66767385,41.00582768,-5.56396372,2.48070697
0.71910529,1.41106044

>  <Name>
ligand

>  <RI>
0

>  <Rbt.Current_Directory>
/home/itssahil/PROJECTS/Mol_Feturizer/New_Systems/rnas/3D2V

>  <Rbt.Executable>
rbdock ($Id: //depot/dev/client3/rdock/2013.1/src/exe/rbdock.cxx#4 $)

>  <Rbt.Library>
libRbt.so (2013.1, Build901 2013/11/27)

>  <Rbt.Parameter_File>
/export/apps/rDock/src/rDock_2013.1_src/data/scripts/dock_solv.prm

>  <Rbt.Receptor>
prm/pocket_docking_3.prm

>  <SCORE>
-14.5041

>  <SCORE.INTER>
-15.8437

>  <SCORE.INTER.CONST>
1

>  <SCORE.INTER.POLAR>
0

>  <SCORE.INTER.ROT>
8

>  <SCORE.INTER.SOLV>
22.3112

>  <SCORE.INTER.VDW>
-26.9329

>  <SCORE.INTER.norm>
-0.586805

>  <SCORE.INTRA>
1.33408

>  <SCORE.INTRA.DIHEDRAL>
1.43205

>  <SCORE.INTRA.DIHEDRAL.0>
7.82666

>  <SCORE.INTRA.POLAR>
0

>  <SCORE.INTRA.POLAR.0>
0

>  <SCORE.INTRA.REPUL>
0

>  <SCORE.INTRA.REPUL.0>
0

>  <SCORE.INTRA.SOLV>
1.62061

>  <SCORE.INTRA.SOLV.lig_0>
-83.2758

>  <SCORE.INTRA.VDW>
-0.192253

>  <SCORE.INTRA.VDW.0>
-3.26816

>  <SCORE.INTRA.norm>
0.0494102

>  <SCORE.RESTR>
0.00556301

>  <SCORE.RESTR.CAVITY>
0.00556301

>  <SCORE.RESTR.norm>
0.000206038

>  <SCORE.SYSTEM>
0

>  <SCORE.SYSTEM.CONST>
0

>  <SCORE.SYSTEM.DIHEDRAL>
0

>  <SCORE.SYSTEM.SOLV>
0

>  <SCORE.SYSTEM.norm>
0

>  <SCORE.heavy>
27

>  <SCORE.norm>
-0.537188

>  <RMSD>
2.251

$$$$
ligand
 OpenBabel11021811473D
libRbt.so/2013.1/901 2013/11/27
 27 28  0  0  0  0  0  0  0  0999 V2000
  -13.2231   37.2751   -2.2217 C   0  0  0  0  0  0  0  0  0  0  0  0
   -6.1367   37.8985   -4.5720 C   0  0  0  0  0  0  0  0  0  0  0  0
   -5.7375   39.3029   -7.1881 C   0  0  0  0  0  0  0  0  0  0  0  0
   -4.4070   40.0482   -7.3102 C   0  0  0  0  0  0  0  0  0  0  0  0
   -4.3625   40.8092   -8.5198 O   0  0  0  0  0  0  0  0  0  0  0  0
   -5.3723   42.0401   -8.7325 P   0  0  1  0  0  0  0  0  0  0  0  0
   -3.4836   43.5019  -10.2333 P   0  0  2  0  0  0  0  0  0  0  0  0
   -7.9635   41.7357   -5.2967 C   0  0  0  0  0  0  0  0  0  0  0  0
  -11.1653   37.8933   -3.4750 N   0  0  0  0  0  0  0  0  0  0  0  0
   -6.8799   41.5263   -8.9066 O   0  5  0  0  0  0  0  0  0  0  0  0
   -2.3991   42.4989  -10.2171 O   0  0  0  0  0  0  0  0  0  0  0  0
   -8.1610   41.1025   -4.0768 C   0  0  0  0  0  0  0  0  0  0  0  0
  -11.7823   37.7824   -2.2883 C   0  0  0  0  0  0  0  0  0  0  0  0
   -5.3740   43.0766   -7.4919 O   0  0  0  0  0  0  0  0  0  0  0  0
   -3.2998   44.5878   -9.0659 O   0  5  0  0  0  0  0  0  0  0  0  0
   -7.5668   39.8621   -3.8404 N   0  0  0  0  0  0  0  0  0  0  0  0
  -11.1457   38.1134   -1.1555 N   0  0  0  0  0  0  0  0  0  0  0  0
   -4.9501   42.8883  -10.0550 O   0  0  0  0  0  0  0  0  0  0  0  0
   -3.4686   44.3360  -11.5927 O   0  0  0  0  0  0  0  0  0  0  0  0
   -6.7849   39.2646   -4.8363 C   0  0  1  0  0  0  0  0  0  0  0  0
   -9.8839   38.5592   -1.1937 C   0  0  0  0  0  0  0  0  0  0  0  0
   -9.2627   38.8824   -0.0640 N   0  0  0  0  0  0  0  0  0  0  0  0
   -6.5868   39.9012   -6.0604 C   0  0  1  0  0  0  0  0  0  0  0  0
   -9.2223   38.6808   -2.4095 C   0  0  0  0  0  0  0  0  0  0  0  0
   -7.1832   41.1372   -6.2784 C   0  0  0  0  0  0  0  0  0  0  0  0
   -9.9195   38.3290   -3.5596 C   0  0  0  0  0  0  0  0  0  0  0  0
   -7.7789   39.1840   -2.5400 C   0  0  0  0  0  0  0  0  0  0  0  0
  1 13  1  0  0  0  0
  3  4  1  0  0  0  0
  4  5  1  0  0  0  0
  6  5  1  1  0  0  0
  6 10  1  0  0  0  0
  6 14  2  0  0  0  0
  6 18  1  0  0  0  0
  7 11  1  1  0  0  0
  7 15  1  0  0  0  0
  7 19  2  0  0  0  0
  7 18  1  0  0  0  0
  8 25  1  0  0  0  0
  8 12  1  0  0  0  0
  9 26  2  0  0  0  0
  9 13  1  0  0  0  0
 12 16  1  0  0  0  0
 13 17  2  0  0  0  0
 16 20  1  0  0  0  0
 16 27  1  0  0  0  0
 17 21  1  0  0  0  0
 20  2  1  1  0  0  0
 20 23  1  0  0  0  0
 21 22  1  0  0  0  0
 21 24  2  0  0  0  0
 23  3  1  1  0  0  0
 23 25  1  0  0  0  0
 24 27  1  0  0  0  0
 24 26  1  0  0  0  0
M  CHG  2  10  -1  15  -1
M  END
>  <CHROM.1>
-110.57319514,65.18541142,-69.09124389,-55.67677464,59.74868461,-106.65237936
-150.54001692,70.38008455,-6.79497538,40.67881096,-6.17736989,2.19163026
-0.06155178,2.16977601

>  <Name>
ligand

>  <RI>
0

>  <Rbt.Current_Directory>
/home/itssahil/PROJECTS/Mol_Feturizer/New_Systems/rnas/3D2V

>  <Rbt.Executable>
rbdock ($Id: //depot/dev/client3/rdock/2013.1/src/exe/rbdock.cxx#4 $)

>  <Rbt.Library>
libRbt.so (2013.1, Build901 2013/11/27)

>  <Rbt.Parameter_File>
/export/apps/rDock/src/rDock_2013.1_src/data/scripts/dock_solv.prm

>  <Rbt.Receptor>
prm/pocket_docking_2.prm

>  <SCORE>
-16.5811

>  <SCORE.INTER>
-18.4603

>  <SCORE.INTER.CONST>
1

>  <SCORE.INTER.POLAR>
0

>  <SCORE.INTER.ROT>
8

>  <SCORE.INTER.SOLV>
21.3637

>  <SCORE.INTER.VDW>
-28.3614

>  <SCORE.INTER.norm>
-0.683715

>  <SCORE.INTRA>
1.86337

>  <SCORE.INTRA.DIHEDRAL>
2.85674

>  <SCORE.INTRA.DIHEDRAL.0>
7.82666

>  <SCORE.INTRA.POLAR>
0

>  <SCORE.INTRA.POLAR.0>
0

>  <SCORE.INTRA.REPUL>
0

>  <SCORE.INTRA.REPUL.0>
0

>  <SCORE.INTRA.SOLV>
1.28352

>  <SCORE.INTRA.SOLV.lig_0>
-83.2758

>  <SCORE.INTRA.VDW>
-0.206762

>  <SCORE.INTRA.VDW.0>
-3.26816

>  <SCORE.INTRA.norm>
0.0690136

>  <SCORE.RESTR>
0.015814

>  <SCORE.RESTR.CAVITY>
0.015814

>  <SCORE.RESTR.norm>
0.000585703

>  <SCORE.SYSTEM>
0

>  <SCORE.SYSTEM.CONST>
0

>  <SCORE.SYSTEM.DIHEDRAL>
0

>  <SCORE.SYSTEM.SOLV>
0

>  <SCORE.SYSTEM.norm>
0

>  <SCORE.heavy>
27

>  <SCORE.norm>
-0.614116

>  <RMSD>
2.260

$$$$
ligand
 OpenBabel11021811473D
libRbt.so/2013.1/901 2013/11/27
 27 28  0  0  0  0  0  0  0  0999 V2000
  -12.4200   37.4352   -2.0098 C   0  0  0  0  0  0  0  0  0  0  0  0
   -6.0045   41.8100   -4.1064 C   0  0  0  0  0  0  0  0  0  0  0  0
   -4.2836   40.6707   -6.2780 C   0  0  0  0  0  0  0  0  0  0  0  0
   -4.5467   40.1367   -7.6874 C   0  0  0  0  0  0  0  0  0  0  0  0
   -3.6773   40.7608   -8.6355 O   0  0  0  0  0  0  0  0  0  0  0  0
   -3.8344   42.3258   -8.9611 P   0  0  1  0  0  0  0  0  0  0  0  0
   -3.4415   43.9411  -11.2399 P   0  0  2  0  0  0  0  0  0  0  0  0
   -5.3743   37.5548   -4.3933 C   0  0  0  0  0  0  0  0  0  0  0  0
  -10.3839   38.3920   -0.9486 N   0  0  0  0  0  0  0  0  0  0  0  0
   -5.1689   42.9210   -8.3039 O   0  5  0  0  0  0  0  0  0  0  0  0
   -3.6855   44.0186  -12.6949 O   0  0  0  0  0  0  0  0  0  0  0  0
   -6.1762   38.0616   -3.3793 C   0  0  0  0  0  0  0  0  0  0  0  0
  -11.0491   38.1087   -2.0792 C   0  0  0  0  0  0  0  0  0  0  0  0
   -2.6043   43.2133   -8.4019 O   0  0  0  0  0  0  0  0  0  0  0  0
   -1.8862   44.1300  -10.8921 O   0  5  0  0  0  0  0  0  0  0  0  0
   -6.3835   39.4387   -3.2883 N   0  0  0  0  0  0  0  0  0  0  0  0
  -10.5219   38.4114   -3.2744 N   0  0  0  0  0  0  0  0  0  0  0  0
   -3.8914   42.5598  -10.5700 O   0  0  0  0  0  0  0  0  0  0  0  0
   -4.1927   45.1202  -10.4722 O   0  0  0  0  0  0  0  0  0  0  0  0
   -5.7758   40.2960   -4.2135 C   0  0  1  0  0  0  0  0  0  0  0  0
   -9.3229   39.0016   -3.3553 C   0  0  0  0  0  0  0  0  0  0  0  0
   -8.8115   39.2985   -4.5456 N   0  0  0  0  0  0  0  0  0  0  0  0
   -4.9714   39.7862   -5.2314 C   0  0  2  0  0  0  0  0  0  0  0  0
   -8.6152   39.3073   -2.1993 C   0  0  0  0  0  0  0  0  0  0  0  0
   -4.7777   38.4124   -5.3095 C   0  0  0  0  0  0  0  0  0  0  0  0
   -9.1971   38.9746   -0.9814 C   0  0  0  0  0  0  0  0  0  0  0  0
   -7.2369   39.9812   -2.2051 C   0  0  0  0  0  0  0  0  0  0  0  0
  1 13  1  0  0  0  0
  3  4  1  0  0  0  0
  4  5  1  0  0  0  0
  6  5  1  1  0  0  0
  6 10  1  0  0  0  0
  6 14  2  0  0  0  0
  6 18  1  0  0  0  0
  7 11  1  6  0  0  0
  7 15  1  0  0  0  0
  7 19  2  0  0  0  0
  7 18  1  0  0  0  0
  8 25  1  0  0  0  0
  8 12  1  0  0  0  0
  9 26  2  0  0  0  0
  9 13  1  0  0  0  0
 12 16  1  0  0  0  0
 13 17  2  0  0  0  0
 16 20  1  0  0  0  0
 16 27  1  0  0  0  0
 17 21  1  0  0  0  0
 20  2  1  6  0  0  0
 20 23  1  0  0  0  0
 21 22  1  0  0  0  0
 21 24  2  0  0  0  0
 23  3  1  1  0  0  0
 23 25  1  0  0  0  0
 24 27  1  0  0  0  0
 24 26  1  0  0  0  0
M  CHG  2  10  -1  15  -1
M  END
>  <CHROM.1>
-166.91436144,-67.21814606,-9.55311558,-154.06790084,-174.30544371,-130.51847541
-40.36027676,-53.94626409,-5.89662183,40.89917079,-6.35489851,2.13611074
-0.11868429,2.19073828

>  <Name>
ligand

>  <RI>
0

>  <Rbt.Current_Directory>
/home/itssahil/PROJECTS/Mol_Feturizer/New_Systems/rnas/3D2V

>  <Rbt.Executable>
rbdock ($Id: //depot/dev/client3/rdock/2013.1/src/exe/rbdock.cxx#4 $)

>  <Rbt.Library>
libRbt.so (2013.1, Build901 2013/11/27)

>  <Rbt.Parameter_File>
/export/apps/rDock/src/rDock_2013.1_src/data/scripts/dock_solv.prm

>  <Rbt.Receptor>
prm/pocket_docking_3.prm

>  <SCORE>
-19.1985

>  <SCORE.INTER>
-23.876

>  <SCORE.INTER.CONST>
1

>  <SCORE.INTER.POLAR>
0

>  <SCORE.INTER.ROT>
8

>  <SCORE.INTER.SOLV>
15.0264

>  <SCORE.INTER.VDW>
-29.8594

>  <SCORE.INTER.norm>
-0.884295

>  <SCORE.INTRA>
4.56817

>  <SCORE.INTRA.DIHEDRAL>
1.49645

>  <SCORE.INTRA.DIHEDRAL.0>
7.82666

>  <SCORE.INTRA.POLAR>
0

>  <SCORE.INTRA.POLAR.0>
0

>  <SCORE.INTRA.REPUL>
0

>  <SCORE.INTRA.REPUL.0>
0

>  <SCORE.INTRA.SOLV>
6.4125

>  <SCORE.INTRA.SOLV.lig_0>
-83.2758

>  <SCORE.INTRA.VDW>
0.61369

>  <SCORE.INTRA.VDW.0>
-3.26816

>  <SCORE.INTRA.norm>
0.169191

>  <SCORE.RESTR>
0.109299

>  <SCORE.RESTR.CAVITY>
0.109299

>  <SCORE.RESTR.norm>
0.0040481

>  <SCORE.SYSTEM>
0

>  <SCORE.SYSTEM.CONST>
0

>  <SCORE.SYSTEM.DIHEDRAL>
0

>  <SCORE.SYSTEM.SOLV>
0

>  <SCORE.SYSTEM.norm>
0

>  <SCORE.heavy>
27

>  <SCORE.norm>
-0.711056

>  <RMSD>
2.270

$$$$
ligand
 OpenBabel11021811463D
libRbt.so/2013.1/901 2013/11/27
 27 28  0  0  0  0  0  0  0  0999 V2000
  -13.1373   37.4443   -1.7835 C   0  0  0  0  0  0  0  0  0  0  0  0
   -6.0367   37.9683   -4.5074 C   0  0  0  0  0  0  0  0  0  0  0  0
   -5.6529   39.2625   -7.1820 C   0  0  0  0  0  0  0  0  0  0  0  0
   -4.4979   40.1956   -7.5507 C   0  0  0  0  0  0  0  0  0  0  0  0
   -4.9908   41.4752   -7.9557 O   0  0  0  0  0  0  0  0  0  0  0  0
   -3.9948   42.5468   -8.6189 P   0  0  1  0  0  0  0  0  0  0  0  0
   -3.9938   45.2651   -9.3720 P   0  0  2  0  0  0  0  0  0  0  0  0
   -7.9456   41.7260   -5.4140 C   0  0  0  0  0  0  0  0  0  0  0  0
  -10.9915   38.4007   -0.9662 N   0  0  0  0  0  0  0  0  0  0  0  0
   -2.6828   42.7478   -7.7216 O   0  5  0  0  0  0  0  0  0  0  0  0
   -3.2916   45.0252  -10.6494 O   0  0  0  0  0  0  0  0  0  0  0  0
   -8.1364   41.1439   -4.1679 C   0  0  0  0  0  0  0  0  0  0  0  0
  -11.7049   37.9326   -2.0019 C   0  0  0  0  0  0  0  0  0  0  0  0
   -3.4894   42.1116  -10.0916 O   0  0  0  0  0  0  0  0  0  0  0  0
   -2.9843   45.7663   -8.2294 O   0  5  0  0  0  0  0  0  0  0  0  0
   -7.5156   39.9293   -3.8726 N   0  0  0  0  0  0  0  0  0  0  0  0
  -11.1726   37.8883   -3.2319 N   0  0  0  0  0  0  0  0  0  0  0  0
   -4.7445   43.9813   -8.7826 O   0  0  0  0  0  0  0  0  0  0  0  0
   -5.0721   46.4304   -9.5243 O   0  0  0  0  0  0  0  0  0  0  0  0
   -6.7141   39.3058   -4.8364 C   0  0  1  0  0  0  0  0  0  0  0  0
   -9.9202   38.3116   -3.4429 C   0  0  0  0  0  0  0  0  0  0  0  0
   -9.4040   38.2646   -4.6667 N   0  0  0  0  0  0  0  0  0  0  0  0
   -6.5227   39.8913   -6.0869 C   0  0  2  0  0  0  0  0  0  0  0  0
   -9.1615   38.8029   -2.3874 C   0  0  0  0  0  0  0  0  0  0  0  0
   -7.1457   41.1021   -6.3636 C   0  0  0  0  0  0  0  0  0  0  0  0
   -9.7509   38.8293   -1.1287 C   0  0  0  0  0  0  0  0  0  0  0  0
   -7.7205   39.3057   -2.5441 C   0  0  0  0  0  0  0  0  0  0  0  0
  1 13  1  0  0  0  0
  3  4  1  0  0  0  0
  4  5  1  0  0  0  0
  6  5  1  1  0  0  0
  6 10  1  0  0  0  0
  6 14  2  0  0  0  0
  6 18  1  0  0  0  0
  7 11  1  6  0  0  0
  7 15  1  0  0  0  0
  7 19  2  0  0  0  0
  7 18  1  0  0  0  0
  8 25  1  0  0  0  0
  8 12  1  0  0  0  0
  9 26  2  0  0  0  0
  9 13  1  0  0  0  0
 12 16  1  0  0  0  0
 13 17  2  0  0  0  0
 16 20  1  0  0  0  0
 16 27  1  0  0  0  0
 17 21  1  0  0  0  0
 20  2  1  1  0  0  0
 20 23  1  0  0  0  0
 21 22  1  0  0  0  0
 21 24  2  0  0  0  0
 23  3  1  6  0  0  0
 23 25  1  0  0  0  0
 24 27  1  0  0  0  0
 24 26  1  0  0  0  0
M  CHG  2  10  -1  15  -1
M  END
>  <CHROM.1>
-56.45102672,-169.96567900,-50.95336380,178.03144832,50.45613763,-119.35606100
32.78059347,69.15273961,-6.56907481,41.17860971,-6.11909291,2.37152478,-0.61097832
2.82835946

>  <Name>
ligand

>  <RI>
0

>  <Rbt.Current_Directory>
/home/itssahil/PROJECTS/Mol_Feturizer/New_Systems/rnas/3D2V

>  <Rbt.Executable>
rbdock ($Id: //depot/dev/client3/rdock/2013.1/src/exe/rbdock.cxx#4 $)

>  <Rbt.Library>
libRbt.so (2013.1, Build901 2013/11/27)

>  <Rbt.Parameter_File>
/export/apps/rDock/src/rDock_2013.1_src/data/scripts/dock_solv.prm

>  <Rbt.Receptor>
prm/pocket_docking_2.prm

>  <SCORE>
-19.1129

>  <SCORE.INTER>
-19.9965

>  <SCORE.INTER.CONST>
1

>  <SCORE.INTER.POLAR>
0

>  <SCORE.INTER.ROT>
8

>  <SCORE.INTER.SOLV>
15.5505

>  <SCORE.INTER.VDW>
-27.4478

>  <SCORE.INTER.norm>
-0.740612

>  <SCORE.INTRA>
0.883606

>  <SCORE.INTRA.DIHEDRAL>
-1.85703

>  <SCORE.INTRA.DIHEDRAL.0>
7.82666

>  <SCORE.INTRA.POLAR>
0

>  <SCORE.INTRA.POLAR.0>
0

>  <SCORE.INTRA.REPUL>
0

>  <SCORE.INTRA.REPUL.0>
0

>  <SCORE.INTRA.SOLV>
3.61327

>  <SCORE.INTRA.SOLV.lig_0>
-83.2758

>  <SCORE.INTRA.VDW>
0.00548424

>  <SCORE.INTRA.VDW.0>
-3.26816

>  <SCORE.INTRA.norm>
0.0327261

>  <SCORE.RESTR>
0

>  <SCORE.RESTR.CAVITY>
0

>  <SCORE.RESTR.norm>
0

>  <SCORE.SYSTEM>
0

>  <SCORE.SYSTEM.CONST>
0

>  <SCORE.SYSTEM.DIHEDRAL>
0

>  <SCORE.SYSTEM.SOLV>
0

>  <SCORE.SYSTEM.norm>
0

>  <SCORE.heavy>
27

>  <SCORE.norm>
-0.707886

>  <RMSD>
2.292

$$$$
ligand
 OpenBabel11021811473D
libRbt.so/2013.1/901 2013/11/27
 27 28  0  0  0  0  0  0  0  0999 V2000
  -12.5941   37.2474   -2.2899 C   0  0  0  0  0  0  0  0  0  0  0  0
   -8.1240   41.0208   -5.5201 C   0  0  0  0  0  0  0  0  0  0  0  0
   -6.6819   39.9354   -7.9113 C   0  0  0  0  0  0  0  0  0  0  0  0
   -5.4095   40.5462   -8.5016 C   0  0  0  0  0  0  0  0  0  0  0  0
   -5.7224   41.3967   -9.6075 O   0  0  0  0  0  0  0  0  0  0  0  0
   -6.3089   42.8693   -9.3479 P   0  0  1  0  0  0  0  0  0  0  0  0
   -5.5906   43.5234   -6.6998 P   0  0  2  0  0  0  0  0  0  0  0  0
   -5.1953   37.8887   -5.0737 C   0  0  0  0  0  0  0  0  0  0  0  0
  -10.8093   38.3237   -3.6475 N   0  0  0  0  0  0  0  0  0  0  0  0
   -5.2483   43.9949   -9.7666 O   0  5  0  0  0  0  0  0  0  0  0  0
   -5.9004   43.1290   -5.3101 O   0  0  0  0  0  0  0  0  0  0  0  0
   -5.8525   38.3768   -3.9521 C   0  0  0  0  0  0  0  0  0  0  0  0
  -11.2447   37.9520   -2.4338 C   0  0  0  0  0  0  0  0  0  0  0  0
   -7.6593   43.1675  -10.1852 O   0  0  0  0  0  0  0  0  0  0  0  0
   -5.4629   45.1165   -6.8459 O   0  5  0  0  0  0  0  0  0  0  0  0
   -6.8033   39.3881   -4.0966 N   0  0  0  0  0  0  0  0  0  0  0  0
  -10.5058   38.1930   -1.3411 N   0  0  0  0  0  0  0  0  0  0  0  0
   -6.6790   43.0552   -7.7747 O   0  0  0  0  0  0  0  0  0  0  0  0
   -4.1770   42.9423   -7.1557 O   0  0  0  0  0  0  0  0  0  0  0  0
   -7.0798   39.9061   -5.3676 C   0  0  1  0  0  0  0  0  0  0  0  0
   -9.3217   38.8085   -1.4471 C   0  0  0  0  0  0  0  0  0  0  0  0
   -8.5973   39.0402   -0.3572 N   0  0  0  0  0  0  0  0  0  0  0  0
   -6.4199   39.4151   -6.4930 C   0  0  1  0  0  0  0  0  0  0  0  0
   -8.8474   39.2013   -2.6928 C   0  0  0  0  0  0  0  0  0  0  0  0
   -5.4782   38.4061   -6.3319 C   0  0  0  0  0  0  0  0  0  0  0  0
   -9.6458   38.9341   -3.7990 C   0  0  0  0  0  0  0  0  0  0  0  0
   -7.5035   39.9118   -2.9002 C   0  0  0  0  0  0  0  0  0  0  0  0
  1 13  1  0  0  0  0
  3  4  1  0  0  0  0
  4  5  1  0  0  0  0
  6  5  1  6  0  0  0
  6 10  1  0  0  0  0
  6 14  2  0  0  0  0
  6 18  1  0  0  0  0
  7 11  1  1  0  0  0
  7 15  1  0  0  0  0
  7 19  2  0  0  0  0
  7 18  1  0  0  0  0
  8 25  1  0  0  0  0
  8 12  1  0  0  0  0
  9 26  2  0  0  0  0
  9 13  1  0  0  0  0
 12 16  1  0  0  0  0
 13 17  2  0  0  0  0
 16 20  1  0  0  0  0
 16 27  1  0  0  0  0
 17 21  1  0  0  0  0
 20  2  1  6  0  0  0
 20 23  1  0  0  0  0
 21 22  1  0  0  0  0
 21 24  2  0  0  0  0
 23  3  1  6  0  0  0
 23 25  1  0  0  0  0
 24 27  1  0  0  0  0
 24 26  1  0  0  0  0
M  CHG  2  10  -1  15  -1
M  END
>  <CHROM.1>
-161.50139436,77.37210054,111.41755452,86.16068830,-156.46711846,118.40950645
138.93080534,-94.91576488,-7.19744820,40.82408580,-5.79067365,2.20560295
0.67795895,1.78751008

>  <Name>
ligand

>  <RI>
0

>  <Rbt.Current_Directory>
/home/itssahil/PROJECTS/Mol_Feturizer/New_Systems/rnas/3D2V

>  <Rbt.Executable>
rbdock ($Id: //depot/dev/client3/rdock/2013.1/src/exe/rbdock.cxx#4 $)

>  <Rbt.Library>
libRbt.so (2013.1, Build901 2013/11/27)

>  <Rbt.Parameter_File>
/export/apps/rDock/src/rDock_2013.1_src/data/scripts/dock_solv.prm

>  <Rbt.Receptor>
prm/pocket_docking_4.prm

>  <SCORE>
-15.2887

>  <SCORE.INTER>
-17.9175

>  <SCORE.INTER.CONST>
1

>  <SCORE.INTER.POLAR>
0

>  <SCORE.INTER.ROT>
8

>  <SCORE.INTER.SOLV>
17.9124

>  <SCORE.INTER.VDW>
-26.8491

>  <SCORE.INTER.norm>
-0.66361

>  <SCORE.INTRA>
2.62872

>  <SCORE.INTRA.DIHEDRAL>
3.99113

>  <SCORE.INTRA.DIHEDRAL.0>
7.82666

>  <SCORE.INTRA.POLAR>
0

>  <SCORE.INTRA.POLAR.0>
0

>  <SCORE.INTRA.REPUL>
0

>  <SCORE.INTRA.REPUL.0>
0

>  <SCORE.INTRA.SOLV>
2.70595

>  <SCORE.INTRA.SOLV.lig_0>
-83.2758

>  <SCORE.INTRA.VDW>
-0.719823

>  <SCORE.INTRA.VDW.0>
-3.26816

>  <SCORE.INTRA.norm>
0.0973599

>  <SCORE.RESTR>
0

>  <SCORE.RESTR.CAVITY>
0

>  <SCORE.RESTR.norm>
0

>  <SCORE.SYSTEM>
0

>  <SCORE.SYSTEM.CONST>
0

>  <SCORE.SYSTEM.DIHEDRAL>
0

>  <SCORE.SYSTEM.SOLV>
0

>  <SCORE.SYSTEM.norm>
0

>  <SCORE.heavy>
27

>  <SCORE.norm>
-0.56625

>  <RMSD>
2.311

$$$$
ligand
 OpenBabel11021811473D
libRbt.so/2013.1/901 2013/11/27
 27 28  0  0  0  0  0  0  0  0999 V2000
  -12.2514   37.5013   -1.9969 C   0  0  0  0  0  0  0  0  0  0  0  0
   -5.7041   41.9750   -3.4675 C   0  0  0  0  0  0  0  0  0  0  0  0
   -4.2446   41.2152   -5.9711 C   0  0  0  0  0  0  0  0  0  0  0  0
   -4.2197   40.7490   -7.4280 C   0  0  0  0  0  0  0  0  0  0  0  0
   -3.1911   41.4229   -8.1574 O   0  0  0  0  0  0  0  0  0  0  0  0
   -3.3445   42.9830   -8.5074 P   0  0  1  0  0  0  0  0  0  0  0  0
   -5.9471   43.2094   -9.5713 P   0  0  2  0  0  0  0  0  0  0  0  0
   -5.5087   37.8549   -4.7215 C   0  0  0  0  0  0  0  0  0  0  0  0
  -10.2680   38.5251   -3.0949 N   0  0  0  0  0  0  0  0  0  0  0  0
   -3.9109   43.8030   -7.2528 O   0  5  0  0  0  0  0  0  0  0  0  0
   -6.5127   41.9773   -8.9843 O   0  0  0  0  0  0  0  0  0  0  0  0
   -6.1909   38.1851   -3.5580 C   0  0  0  0  0  0  0  0  0  0  0  0
  -10.8571   38.1275   -1.9565 C   0  0  0  0  0  0  0  0  0  0  0  0
   -1.9450   43.6770   -8.9237 O   0  0  0  0  0  0  0  0  0  0  0  0
   -6.5746   43.5160  -11.0163 O   0  5  0  0  0  0  0  0  0  0  0  0
   -6.2576   39.5192   -3.1537 N   0  0  0  0  0  0  0  0  0  0  0  0
  -10.2330   38.2742   -0.7788 N   0  0  0  0  0  0  0  0  0  0  0  0
   -4.3593   43.1777   -9.7639 O   0  0  0  0  0  0  0  0  0  0  0  0
   -6.3022   44.4819   -8.6776 O   0  0  0  0  0  0  0  0  0  0  0  0
   -5.6305   40.5098   -3.9189 C   0  0  1  0  0  0  0  0  0  0  0  0
   -9.0118   38.8200   -0.7233 C   0  0  0  0  0  0  0  0  0  0  0  0
   -8.4025   38.9585    0.4497 N   0  0  0  0  0  0  0  0  0  0  0  0
   -4.9462   40.1774   -5.0870 C   0  0  1  0  0  0  0  0  0  0  0  0
   -8.3795   39.2375   -1.8881 C   0  0  0  0  0  0  0  0  0  0  0  0
   -4.8919   38.8448   -5.4769 C   0  0  0  0  0  0  0  0  0  0  0  0
   -9.0625   39.0690   -3.0871 C   0  0  0  0  0  0  0  0  0  0  0  0
   -6.9832   39.8727   -1.9110 C   0  0  0  0  0  0  0  0  0  0  0  0
  1 13  1  0  0  0  0
  3  4  1  0  0  0  0
  4  5  1  0  0  0  0
  6  5  1  1  0  0  0
  6 10  1  0  0  0  0
  6 14  2  0  0  0  0
  6 18  1  0  0  0  0
  7 11  1  1  0  0  0
  7 15  1  0  0  0  0
  7 19  2  0  0  0  0
  7 18  1  0  0  0  0
  8 25  1  0  0  0  0
  8 12  1  0  0  0  0
  9 26  2  0  0  0  0
  9 13  1  0  0  0  0
 12 16  1  0  0  0  0
 13 17  2  0  0  0  0
 16 20  1  0  0  0  0
 16 27  1  0  0  0  0
 17 21  1  0  0  0  0
 20  2  1  6  0  0  0
 20 23  1  0  0  0  0
 21 22  1  0  0  0  0
 21 24  2  0  0  0  0
 23  3  1  6  0  0  0
 23 25  1  0  0  0  0
 24 27  1  0  0  0  0
 24 26  1  0  0  0  0
M  CHG  2  10  -1  15  -1
M  END
>  <CHROM.1>
-159.11007917,-70.74200659,42.78841909,83.22467173,-60.14433246,-151.17359461
147.40349704,-49.60972139,-6.25541910,40.94154332,-5.65242567,2.08246407
0.08715388,2.07769941

>  <Name>
ligand

>  <RI>
0

>  <Rbt.Current_Directory>
/home/itssahil/PROJECTS/Mol_Feturizer/New_Systems/rnas/3D2V

>  <Rbt.Executable>
rbdock ($Id: //depot/dev/client3/rdock/2013.1/src/exe/rbdock.cxx#4 $)

>  <Rbt.Library>
libRbt.so (2013.1, Build901 2013/11/27)

>  <Rbt.Parameter_File>
/export/apps/rDock/src/rDock_2013.1_src/data/scripts/dock_solv.prm

>  <Rbt.Receptor>
prm/pocket_docking_3.prm

>  <SCORE>
-18.4147

>  <SCORE.INTER>
-20.2321

>  <SCORE.INTER.CONST>
1

>  <SCORE.INTER.POLAR>
0

>  <SCORE.INTER.ROT>
8

>  <SCORE.INTER.SOLV>
18.586

>  <SCORE.INTER.VDW>
-28.6167

>  <SCORE.INTER.norm>
-0.749335

>  <SCORE.INTRA>
1.81357

>  <SCORE.INTRA.DIHEDRAL>
0.64947

>  <SCORE.INTRA.DIHEDRAL.0>
7.82666

>  <SCORE.INTRA.POLAR>
0

>  <SCORE.INTRA.POLAR.0>
0

>  <SCORE.INTRA.REPUL>
0

>  <SCORE.INTRA.REPUL.0>
0

>  <SCORE.INTRA.SOLV>
-0.0564041

>  <SCORE.INTRA.SOLV.lig_0>
-83.2758

>  <SCORE.INTRA.VDW>
1.51704

>  <SCORE.INTRA.VDW.0>
-3.26816

>  <SCORE.INTRA.norm>
0.0671693

>  <SCORE.RESTR>
0.00376814

>  <SCORE.RESTR.CAVITY>
0.00376814

>  <SCORE.RESTR.norm>
0.000139561

>  <SCORE.SYSTEM>
0

>  <SCORE.SYSTEM.CONST>
0

>  <SCORE.SYSTEM.DIHEDRAL>
0

>  <SCORE.SYSTEM.SOLV>
0

>  <SCORE.SYSTEM.norm>
0

>  <SCORE.heavy>
27

>  <SCORE.norm>
-0.682026

>  <RMSD>
2.313

$$$$
ligand
 OpenBabel11021811473D
libRbt.so/2013.1/901 2013/11/27
 27 28  0  0  0  0  0  0  0  0999 V2000
  -12.1785   37.4476   -2.2481 C   0  0  0  0  0  0  0  0  0  0  0  0
   -5.5369   42.0889   -3.2330 C   0  0  0  0  0  0  0  0  0  0  0  0
   -4.0415   41.5257   -5.7672 C   0  0  0  0  0  0  0  0  0  0  0  0
   -4.7034   41.8201   -7.1147 C   0  0  0  0  0  0  0  0  0  0  0  0
   -4.5745   40.7022   -7.9967 O   0  0  0  0  0  0  0  0  0  0  0  0
   -4.8894   40.8734   -9.5624 P   0  0  1  0  0  0  0  0  0  0  0  0
   -6.0618   42.9587  -11.0570 P   0  0  2  0  0  0  0  0  0  0  0  0
   -5.4942   38.1184   -4.9120 C   0  0  0  0  0  0  0  0  0  0  0  0
  -10.1855   38.5423   -3.2566 N   0  0  0  0  0  0  0  0  0  0  0  0
   -3.5791   41.3200  -10.3692 O   0  5  0  0  0  0  0  0  0  0  0  0
   -6.0674   42.2511  -12.3538 O   0  0  0  0  0  0  0  0  0  0  0  0
   -6.1942   38.3576   -3.7369 C   0  0  0  0  0  0  0  0  0  0  0  0
  -10.7966   38.0945   -2.1489 C   0  0  0  0  0  0  0  0  0  0  0  0
   -5.4190   39.5107  -10.2524 O   0  0  0  0  0  0  0  0  0  0  0  0
   -4.7836   43.9187  -10.9147 O   0  5  0  0  0  0  0  0  0  0  0  0
   -6.2114   39.6436   -3.1950 N   0  0  0  0  0  0  0  0  0  0  0  0
  -10.2057   38.2089   -0.9507 N   0  0  0  0  0  0  0  0  0  0  0  0
   -6.0485   41.9938   -9.7811 O   0  0  0  0  0  0  0  0  0  0  0  0
   -7.3284   43.9191  -10.9259 O   0  0  0  0  0  0  0  0  0  0  0  0
   -5.5174   40.6773   -3.8354 C   0  0  1  0  0  0  0  0  0  0  0  0
   -8.9958   38.7721   -0.8438 C   0  0  0  0  0  0  0  0  0  0  0  0
   -8.4193   38.8783    0.3490 N   0  0  0  0  0  0  0  0  0  0  0  0
   -4.8154   40.4362   -5.0153 C   0  0  1  0  0  0  0  0  0  0  0  0
   -8.3412   39.2416   -1.9760 C   0  0  0  0  0  0  0  0  0  0  0  0
   -4.8110   39.1508   -5.5430 C   0  0  0  0  0  0  0  0  0  0  0  0
   -8.9901   39.1051   -3.1978 C   0  0  0  0  0  0  0  0  0  0  0  0
   -6.9558   39.8998   -1.9396 C   0  0  0  0  0  0  0  0  0  0  0  0
  1 13  1  0  0  0  0
  3  4  1  0  0  0  0
  4  5  1  0  0  0  0
  6  5  1  1  0  0  0
  6 10  1  0  0  0  0
  6 14  2  0  0  0  0
  6 18  1  0  0  0  0
  7 11  1  6  0  0  0
  7 15  1  0  0  0  0
  7 19  2  0  0  0  0
  7 18  1  0  0  0  0
  8 25  1  0  0  0  0
  8 12  1  0  0  0  0
  9 26  2  0  0  0  0
  9 13  1  0  0  0  0
 12 16  1  0  0  0  0
 13 17  2  0  0  0  0
 16 20  1  0  0  0  0
 16 27  1  0  0  0  0
 17 21  1  0  0  0  0
 20  2  1  6  0  0  0
 20 23  1  0  0  0  0
 21 22  1  0  0  0  0
 21 24  2  0  0  0  0
 23  3  1  6  0  0  0
 23 25  1  0  0  0  0
 24 27  1  0  0  0  0
 24 26  1  0  0  0  0
M  CHG  2  10  -1  15  -1
M  END
>  <CHROM.1>
-67.76370555,-166.32724548,89.01776995,146.09296442,56.54870162,-112.72404297
149.43925196,-45.24562797,-6.55570956,40.51739321,-6.25050888,1.94379041
0.18015099,1.88315980

>  <Name>
ligand

>  <RI>
0

>  <Rbt.Current_Directory>
/home/itssahil/PROJECTS/Mol_Feturizer/New_Systems/rnas/3D2V

>  <Rbt.Executable>
rbdock ($Id: //depot/dev/client3/rdock/2013.1/src/exe/rbdock.cxx#4 $)

>  <Rbt.Library>
libRbt.so (2013.1, Build901 2013/11/27)

>  <Rbt.Parameter_File>
/export/apps/rDock/src/rDock_2013.1_src/data/scripts/dock_solv.prm

>  <Rbt.Receptor>
prm/pocket_docking_4.prm

>  <SCORE>
-20.8673

>  <SCORE.INTER>
-21.2143

>  <SCORE.INTER.CONST>
1

>  <SCORE.INTER.POLAR>
0

>  <SCORE.INTER.ROT>
8

>  <SCORE.INTER.SOLV>
26.4127

>  <SCORE.INTER.VDW>
-31.8804

>  <SCORE.INTER.norm>
-0.785714

>  <SCORE.INTRA>
0.346948

>  <SCORE.INTRA.DIHEDRAL>
0.997705

>  <SCORE.INTRA.DIHEDRAL.0>
7.82666

>  <SCORE.INTRA.POLAR>
0

>  <SCORE.INTRA.POLAR.0>
0

>  <SCORE.INTRA.REPUL>
0

>  <SCORE.INTRA.REPUL.0>
0

>  <SCORE.INTRA.SOLV>
-1.13697

>  <SCORE.INTRA.SOLV.lig_0>
-83.2758

>  <SCORE.INTRA.VDW>
0.416579

>  <SCORE.INTRA.VDW.0>
-3.26816

>  <SCORE.INTRA.norm>
0.0128499

>  <SCORE.RESTR>
0

>  <SCORE.RESTR.CAVITY>
0

>  <SCORE.RESTR.norm>
0

>  <SCORE.SYSTEM>
0

>  <SCORE.SYSTEM.CONST>
0

>  <SCORE.SYSTEM.DIHEDRAL>
0

>  <SCORE.SYSTEM.SOLV>
0

>  <SCORE.SYSTEM.norm>
0

>  <SCORE.heavy>
27

>  <SCORE.norm>
-0.772865

>  <RMSD>
2.356

$$$$
ligand
 OpenBabel11021811473D
libRbt.so/2013.1/901 2013/11/27
 27 28  0  0  0  0  0  0  0  0999 V2000
  -13.1057   37.5810   -1.8240 C   0  0  0  0  0  0  0  0  0  0  0  0
   -7.4439   38.5965   -6.0428 C   0  0  0  0  0  0  0  0  0  0  0  0
   -7.4227   40.9963   -7.8362 C   0  0  0  0  0  0  0  0  0  0  0  0
   -6.6185   42.1670   -8.4049 C   0  0  0  0  0  0  0  0  0  0  0  0
   -6.0669   41.8298   -9.6801 O   0  0  0  0  0  0  0  0  0  0  0  0
   -4.8405   40.7972   -9.7776 P   0  0  1  0  0  0  0  0  0  0  0  0
   -2.8912   42.7702   -9.2639 P   0  0  2  0  0  0  0  0  0  0  0  0
   -7.7477   42.5665   -4.3895 C   0  0  0  0  0  0  0  0  0  0  0  0
  -11.2210   37.8511   -3.4246 N   0  0  0  0  0  0  0  0  0  0  0  0
   -5.2496   39.3592   -9.2013 O   0  5  0  0  0  0  0  0  0  0  0  0
   -2.3791   42.8909  -10.6444 O   0  0  0  0  0  0  0  0  0  0  0  0
   -7.7589   41.4681   -3.5401 C   0  0  0  0  0  0  0  0  0  0  0  0
  -11.6648   37.9639   -2.1632 C   0  0  0  0  0  0  0  0  0  0  0  0
   -4.3313   40.5633  -11.2940 O   0  0  0  0  0  0  0  0  0  0  0  0
   -1.7245   42.9794   -8.1819 O   0  5  0  0  0  0  0  0  0  0  0  0
   -7.6568   40.1830   -4.0746 N   0  0  0  0  0  0  0  0  0  0  0  0
  -10.8544   38.4108   -1.1928 N   0  0  0  0  0  0  0  0  0  0  0  0
   -3.5677   41.3585   -8.9342 O   0  0  0  0  0  0  0  0  0  0  0  0
   -3.9652   43.9075   -8.9527 O   0  0  0  0  0  0  0  0  0  0  0  0
   -7.5523   40.0125   -5.4603 C   0  0  1  0  0  0  0  0  0  0  0  0
   -9.5896   38.7505   -1.4703 C   0  0  0  0  0  0  0  0  0  0  0  0
   -8.7952   39.1904   -0.4998 N   0  0  0  0  0  0  0  0  0  0  0  0
   -7.5407   41.1158   -6.3121 C   0  0  2  0  0  0  0  0  0  0  0  0
   -9.1053   38.6406   -2.7681 C   0  0  0  0  0  0  0  0  0  0  0  0
   -7.6403   42.3885   -5.7634 C   0  0  0  0  0  0  0  0  0  0  0  0
   -9.9791   38.1751   -3.7439 C   0  0  0  0  0  0  0  0  0  0  0  0
   -7.6712   39.0097   -3.1695 C   0  0  0  0  0  0  0  0  0  0  0  0
  1 13  1  0  0  0  0
  3  4  1  0  0  0  0
  4  5  1  0  0  0  0
  6  5  1  1  0  0  0
  6 10  1  0  0  0  0
  6 14  2  0  0  0  0
  6 18  1  0  0  0  0
  7 11  1  6  0  0  0
  7 15  1  0  0  0  0
  7 19  2  0  0  0  0
  7 18  1  0  0  0  0
  8 25  1  0  0  0  0
  8 12  1  0  0  0  0
  9 26  2  0  0  0  0
  9 13  1  0  0  0  0
 12 16  1  0  0  0  0
 13 17  2  0  0  0  0
 16 20  1  0  0  0  0
 16 27  1  0  0  0  0
 17 21  1  0  0  0  0
 20  2  1  1  0  0  0
 20 23  1  0  0  0  0
 21 22  1  0  0  0  0
 21 24  2  0  0  0  0
 23  3  1  6  0  0  0
 23 25  1  0  0  0  0
 24 27  1  0  0  0  0
 24 26  1  0  0  0  0
M  CHG  2  10  -1  15  -1
M  END
>  <CHROM.1>
157.72909819,-72.38103125,61.30158681,-58.72547098,-58.66705735,-145.41185784
-113.71612476,81.15632807,-6.75972103,40.58887944,-6.35510648,2.56437753
0.71555646,1.22909544

>  <Name>
ligand

>  <RI>
0

>  <Rbt.Current_Directory>
/home/itssahil/PROJECTS/Mol_Feturizer/New_Systems/rnas/3D2V

>  <Rbt.Executable>
rbdock ($Id: //depot/dev/client3/rdock/2013.1/src/exe/rbdock.cxx#4 $)

>  <Rbt.Library>
libRbt.so (2013.1, Build901 2013/11/27)

>  <Rbt.Parameter_File>
/export/apps/rDock/src/rDock_2013.1_src/data/scripts/dock_solv.prm

>  <Rbt.Receptor>
prm/pocket_docking_4.prm

>  <SCORE>
-19.4429

>  <SCORE.INTER>
-19.6737

>  <SCORE.INTER.CONST>
1

>  <SCORE.INTER.POLAR>
0

>  <SCORE.INTER.ROT>
8

>  <SCORE.INTER.SOLV>
24.3696

>  <SCORE.INTER.VDW>
-30.1723

>  <SCORE.INTER.norm>
-0.728655

>  <SCORE.INTRA>
0.230744

>  <SCORE.INTRA.DIHEDRAL>
-0.249419

>  <SCORE.INTRA.DIHEDRAL.0>
7.82666

>  <SCORE.INTRA.POLAR>
0

>  <SCORE.INTRA.POLAR.0>
0

>  <SCORE.INTRA.REPUL>
0

>  <SCORE.INTRA.REPUL.0>
0

>  <SCORE.INTRA.SOLV>
0.115614

>  <SCORE.INTRA.SOLV.lig_0>
-83.2758

>  <SCORE.INTRA.VDW>
0.297646

>  <SCORE.INTRA.VDW.0>
-3.26816

>  <SCORE.INTRA.norm>
0.00854606

>  <SCORE.RESTR>
0

>  <SCORE.RESTR.CAVITY>
0

>  <SCORE.RESTR.norm>
0

>  <SCORE.SYSTEM>
0

>  <SCORE.SYSTEM.CONST>
0

>  <SCORE.SYSTEM.DIHEDRAL>
0

>  <SCORE.SYSTEM.SOLV>
0

>  <SCORE.SYSTEM.norm>
0

>  <SCORE.heavy>
27

>  <SCORE.norm>
-0.720109

>  <RMSD>
2.369

$$$$
ligand
 OpenBabel11021811463D
libRbt.so/2013.1/901 2013/11/27
 27 28  0  0  0  0  0  0  0  0999 V2000
  -12.8217   37.6043   -1.7229 C   0  0  0  0  0  0  0  0  0  0  0  0
   -6.0955   38.1975   -5.1090 C   0  0  0  0  0  0  0  0  0  0  0  0
   -5.9387   39.7413   -7.6717 C   0  0  0  0  0  0  0  0  0  0  0  0
   -5.2595   40.8665   -8.4549 C   0  0  0  0  0  0  0  0  0  0  0  0
   -4.0564   41.2817   -7.8035 O   0  0  0  0  0  0  0  0  0  0  0  0
   -3.6156   42.8259   -7.8379 P   0  0  1  0  0  0  0  0  0  0  0  0
   -3.7175   44.9866   -9.6481 P   0  0  2  0  0  0  0  0  0  0  0  0
   -7.8416   42.1281   -5.4061 C   0  0  0  0  0  0  0  0  0  0  0  0
  -10.6451   38.6108   -1.0619 N   0  0  0  0  0  0  0  0  0  0  0  0
   -4.1241   43.6004   -6.5308 O   0  5  0  0  0  0  0  0  0  0  0  0
   -4.5278   45.5848  -10.7290 O   0  0  0  0  0  0  0  0  0  0  0  0
   -7.9252   41.4302   -4.2086 C   0  0  0  0  0  0  0  0  0  0  0  0
  -11.4013   38.0774   -2.0338 C   0  0  0  0  0  0  0  0  0  0  0  0
   -2.0124   43.0233   -7.9018 O   0  0  0  0  0  0  0  0  0  0  0  0
   -2.1893   44.7896  -10.0971 O   0  5  0  0  0  0  0  0  0  0  0  0
   -7.3568   40.1593   -4.1108 N   0  0  0  0  0  0  0  0  0  0  0  0
  -10.9224   37.9544   -3.2802 N   0  0  0  0  0  0  0  0  0  0  0  0
   -4.2333   43.5551   -9.1544 O   0  0  0  0  0  0  0  0  0  0  0  0
   -3.6641   45.9482   -8.3767 O   0  0  0  0  0  0  0  0  0  0  0  0
   -6.7157   39.5971   -5.2212 C   0  0  1  0  0  0  0  0  0  0  0  0
   -9.6813   38.3631   -3.5717 C   0  0  0  0  0  0  0  0  0  0  0  0
   -9.2182   38.2378   -4.8112 N   0  0  0  0  0  0  0  0  0  0  0  0
   -6.6318   40.2987   -6.4228 C   0  0  2  0  0  0  0  0  0  0  0  0
   -8.8792   38.9209   -2.5836 C   0  0  0  0  0  0  0  0  0  0  0  0
   -7.2004   41.5641   -6.5023 C   0  0  0  0  0  0  0  0  0  0  0  0
   -9.4138   39.0280   -1.3049 C   0  0  0  0  0  0  0  0  0  0  0  0
   -7.4475   39.4124   -2.8342 C   0  0  0  0  0  0  0  0  0  0  0  0
  1 13  1  0  0  0  0
  3  4  1  0  0  0  0
  4  5  1  0  0  0  0
  6  5  1  1  0  0  0
  6 10  1  0  0  0  0
  6 14  2  0  0  0  0
  6 18  1  0  0  0  0
  7 11  1  6  0  0  0
  7 15  1  0  0  0  0
  7 19  2  0  0  0  0
  7 18  1  0  0  0  0
  8 25  1  0  0  0  0
  8 12  1  0  0  0  0
  9 26  2  0  0  0  0
  9 13  1  0  0  0  0
 12 16  1  0  0  0  0
 13 17  2  0  0  0  0
 16 20  1  0  0  0  0
 16 27  1  0  0  0  0
 17 21  1  0  0  0  0
 20  2  1  1  0  0  0
 20 23  1  0  0  0  0
 21 22  1  0  0  0  0
 21 24  2  0  0  0  0
 23  3  1  6  0  0  0
 23 25  1  0  0  0  0
 24 27  1  0  0  0  0
 24 26  1  0  0  0  0
M  CHG  2  10  -1  15  -1
M  END
>  <CHROM.1>
75.44231071,-144.92789871,94.60105508,-166.03507034,-171.07075544,-145.52945080
42.63007956,71.71161515,-6.37062576,41.33096608,-6.12600734,2.39096986,-0.59249589
2.83974625

>  <Name>
ligand

>  <RI>
0

>  <Rbt.Current_Directory>
/home/itssahil/PROJECTS/Mol_Feturizer/New_Systems/rnas/3D2V

>  <Rbt.Executable>
rbdock ($Id: //depot/dev/client3/rdock/2013.1/src/exe/rbdock.cxx#4 $)

>  <Rbt.Library>
libRbt.so (2013.1, Build901 2013/11/27)

>  <Rbt.Parameter_File>
/export/apps/rDock/src/rDock_2013.1_src/data/scripts/dock_solv.prm

>  <Rbt.Receptor>
prm/pocket_docking_2.prm

>  <SCORE>
-13.429

>  <SCORE.INTER>
-18.8085

>  <SCORE.INTER.CONST>
1

>  <SCORE.INTER.POLAR>
0

>  <SCORE.INTER.ROT>
8

>  <SCORE.INTER.SOLV>
13.3275

>  <SCORE.INTER.VDW>
-25.9149

>  <SCORE.INTER.norm>
-0.696611

>  <SCORE.INTRA>
5.37907

>  <SCORE.INTRA.DIHEDRAL>
4.65509

>  <SCORE.INTRA.DIHEDRAL.0>
7.82666

>  <SCORE.INTRA.POLAR>
0

>  <SCORE.INTRA.POLAR.0>
0

>  <SCORE.INTRA.REPUL>
0

>  <SCORE.INTRA.REPUL.0>
0

>  <SCORE.INTRA.SOLV>
5.78787

>  <SCORE.INTRA.SOLV.lig_0>
-83.2758

>  <SCORE.INTRA.VDW>
0.157593

>  <SCORE.INTRA.VDW.0>
-3.26816

>  <SCORE.INTRA.norm>
0.199225

>  <SCORE.RESTR>
0.000422439

>  <SCORE.RESTR.CAVITY>
0.000422439

>  <SCORE.RESTR.norm>
1.56459e-05

>  <SCORE.SYSTEM>
0

>  <SCORE.SYSTEM.CONST>
0

>  <SCORE.SYSTEM.DIHEDRAL>
0

>  <SCORE.SYSTEM.SOLV>
0

>  <SCORE.SYSTEM.norm>
0

>  <SCORE.heavy>
27

>  <SCORE.norm>
-0.497371

>  <RMSD>
2.370

$$$$
ligand
 OpenBabel11021811463D
libRbt.so/2013.1/901 2013/11/27
 27 28  0  0  0  0  0  0  0  0999 V2000
  -13.0098   37.5030   -1.7587 C   0  0  0  0  0  0  0  0  0  0  0  0
   -5.0787   40.3679   -3.7884 C   0  0  0  0  0  0  0  0  0  0  0  0
   -4.9743   41.8967   -6.3627 C   0  0  0  0  0  0  0  0  0  0  0  0
   -4.5036   41.0878   -7.5729 C   0  0  0  0  0  0  0  0  0  0  0  0
   -3.1951   41.4980   -7.9778 O   0  0  0  0  0  0  0  0  0  0  0  0
   -2.9582   42.9810   -8.5476 P   0  0  1  0  0  0  0  0  0  0  0  0
   -4.3731   44.9411  -10.0010 P   0  0  2  0  0  0  0  0  0  0  0  0
   -8.6652   41.0294   -6.0874 C   0  0  0  0  0  0  0  0  0  0  0  0
  -10.9156   38.7079   -1.1671 N   0  0  0  0  0  0  0  0  0  0  0  0
   -2.4861   43.9774   -7.3851 O   0  5  0  0  0  0  0  0  0  0  0  0
   -5.7307   45.4917  -10.1917 O   0  0  0  0  0  0  0  0  0  0  0  0
   -8.7363   40.3186   -4.8966 C   0  0  0  0  0  0  0  0  0  0  0  0
  -11.5920   37.9827   -2.0713 C   0  0  0  0  0  0  0  0  0  0  0  0
   -1.8262   43.0409   -9.7002 O   0  0  0  0  0  0  0  0  0  0  0  0
   -3.6393   44.6826  -11.4047 O   0  5  0  0  0  0  0  0  0  0  0  0
   -7.5761   40.1075   -4.1502 N   0  0  0  0  0  0  0  0  0  0  0  0
  -11.0353   37.6729   -3.2512 N   0  0  0  0  0  0  0  0  0  0  0  0
   -4.3314   43.5540   -9.2053 O   0  0  0  0  0  0  0  0  0  0  0  0
   -3.4424   45.9758   -9.2218 O   0  0  0  0  0  0  0  0  0  0  0  0
   -6.3520   40.6062   -4.6117 C   0  0  1  0  0  0  0  0  0  0  0  0
   -9.7951   38.0842   -3.5431 C   0  0  0  0  0  0  0  0  0  0  0  0
   -9.2545   37.7726   -4.7165 N   0  0  0  0  0  0  0  0  0  0  0  0
   -6.2818   41.3200   -5.8069 C   0  0  1  0  0  0  0  0  0  0  0  0
   -9.0748   38.8383   -2.6247 C   0  0  0  0  0  0  0  0  0  0  0  0
   -7.4468   41.5239   -6.5364 C   0  0  0  0  0  0  0  0  0  0  0  0
   -9.6884   39.1352   -1.4132 C   0  0  0  0  0  0  0  0  0  0  0  0
   -7.6501   39.3469   -2.8806 C   0  0  0  0  0  0  0  0  0  0  0  0
  1 13  1  0  0  0  0
  3  4  1  0  0  0  0
  4  5  1  0  0  0  0
  6  5  1  1  0  0  0
  6 10  1  0  0  0  0
  6 14  2  0  0  0  0
  6 18  1  0  0  0  0
  7 11  1  6  0  0  0
  7 15  1  0  0  0  0
  7 19  2  0  0  0  0
  7 18  1  0  0  0  0
  8 25  1  0  0  0  0
  8 12  1  0  0  0  0
  9 26  2  0  0  0  0
  9 13  1  0  0  0  0
 12 16  1  0  0  0  0
 13 17  2  0  0  0  0
 16 20  1  0  0  0  0
 16 27  1  0  0  0  0
 17 21  1  0  0  0  0
 20  2  1  1  0  0  0
 20 23  1  0  0  0  0
 21 22  1  0  0  0  0
 21 24  2  0  0  0  0
 23  3  1  1  0  0  0
 23 25  1  0  0  0  0
 24 27  1  0  0  0  0
 24 26  1  0  0  0  0
M  CHG  2  10  -1  15  -1
M  END
>  <CHROM.1>
-171.74996444,-65.24013127,94.43124806,-173.10843669,-163.44789232,107.17659433
53.80560214,2.68250880,-6.36080833,41.47054465,-6.27161893,2.22171989,0.00193672
2.26549218

>  <Name>
ligand

>  <RI>
0

>  <Rbt.Current_Directory>
/home/itssahil/PROJECTS/Mol_Feturizer/New_Systems/rnas/3D2V

>  <Rbt.Executable>
rbdock ($Id: //depot/dev/client3/rdock/2013.1/src/exe/rbdock.cxx#4 $)

>  <Rbt.Library>
libRbt.so (2013.1, Build901 2013/11/27)

>  <Rbt.Parameter_File>
/export/apps/rDock/src/rDock_2013.1_src/data/scripts/dock_solv.prm

>  <Rbt.Receptor>
prm/pocket_docking_2.prm

>  <SCORE>
-12.556

>  <SCORE.INTER>
-17.4156

>  <SCORE.INTER.CONST>
1

>  <SCORE.INTER.POLAR>
0

>  <SCORE.INTER.ROT>
8

>  <SCORE.INTER.SOLV>
17.0749

>  <SCORE.INTER.VDW>
-26.2353

>  <SCORE.INTER.norm>
-0.64502

>  <SCORE.INTRA>
3.93871

>  <SCORE.INTRA.DIHEDRAL>
-0.292175

>  <SCORE.INTRA.DIHEDRAL.0>
7.82666

>  <SCORE.INTRA.POLAR>
0

>  <SCORE.INTRA.POLAR.0>
0

>  <SCORE.INTRA.REPUL>
0

>  <SCORE.INTRA.REPUL.0>
0

>  <SCORE.INTRA.SOLV>
4.43216

>  <SCORE.INTRA.SOLV.lig_0>
-83.2758

>  <SCORE.INTRA.VDW>
1.86871

>  <SCORE.INTRA.VDW.0>
-3.26816

>  <SCORE.INTRA.norm>
0.145878

>  <SCORE.RESTR>
0.920845

>  <SCORE.RESTR.CAVITY>
0.920845

>  <SCORE.RESTR.norm>
0.0341054

>  <SCORE.SYSTEM>
0

>  <SCORE.SYSTEM.CONST>
0

>  <SCORE.SYSTEM.DIHEDRAL>
0

>  <SCORE.SYSTEM.SOLV>
0

>  <SCORE.SYSTEM.norm>
0

>  <SCORE.heavy>
27

>  <SCORE.norm>
-0.465037

>  <RMSD>
2.372

$$$$
ligand
 OpenBabel11021811463D
libRbt.so/2013.1/901 2013/11/27
 27 28  0  0  0  0  0  0  0  0999 V2000
  -13.0502   37.5492   -2.1088 C   0  0  0  0  0  0  0  0  0  0  0  0
   -5.5530   38.4132   -4.5670 C   0  0  0  0  0  0  0  0  0  0  0  0
   -5.1340   40.0679   -7.0292 C   0  0  0  0  0  0  0  0  0  0  0  0
   -5.2857   40.9666   -8.2579 C   0  0  0  0  0  0  0  0  0  0  0  0
   -4.8195   42.2890   -7.9783 O   0  0  0  0  0  0  0  0  0  0  0  0
   -4.8716   43.4176   -9.1200 P   0  0  1  0  0  0  0  0  0  0  0  0
   -2.4601   44.8140   -8.6823 P   0  0  2  0  0  0  0  0  0  0  0  0
   -7.8819   41.9804   -5.2285 C   0  0  0  0  0  0  0  0  0  0  0  0
  -10.8911   38.3725   -1.1883 N   0  0  0  0  0  0  0  0  0  0  0  0
   -4.2287   42.8852  -10.4876 O   0  5  0  0  0  0  0  0  0  0  0  0
   -1.8883   46.0145   -8.0386 O   0  0  0  0  0  0  0  0  0  0  0  0
   -8.0918   41.2285   -4.0802 C   0  0  0  0  0  0  0  0  0  0  0  0
  -11.5983   38.0018   -2.2669 C   0  0  0  0  0  0  0  0  0  0  0  0
   -6.3766   43.8947   -9.4677 O   0  0  0  0  0  0  0  0  0  0  0  0
   -2.0444   44.7201  -10.2296 O   0  5  0  0  0  0  0  0  0  0  0  0
   -7.3355   40.0757   -3.8638 N   0  0  0  0  0  0  0  0  0  0  0  0
  -11.0427   38.0240   -3.4870 N   0  0  0  0  0  0  0  0  0  0  0  0
   -4.0575   44.7406   -8.6367 O   0  0  0  0  0  0  0  0  0  0  0  0
   -1.8938   43.4826   -8.0109 O   0  0  0  0  0  0  0  0  0  0  0  0
   -6.3794   39.6840   -4.8085 C   0  0  1  0  0  0  0  0  0  0  0  0
   -9.7729   38.4175   -3.6454 C   0  0  0  0  0  0  0  0  0  0  0  0
   -9.2337   38.4372   -4.8600 N   0  0  0  0  0  0  0  0  0  0  0  0
   -6.1690   40.4397   -5.9607 C   0  0  1  0  0  0  0  0  0  0  0  0
   -9.0202   38.8085   -2.5448 C   0  0  0  0  0  0  0  0  0  0  0  0
   -6.9284   41.5863   -6.1593 C   0  0  0  0  0  0  0  0  0  0  0  0
   -9.6339   38.7684   -1.2981 C   0  0  0  0  0  0  0  0  0  0  0  0
   -7.5604   39.2709   -2.6401 C   0  0  0  0  0  0  0  0  0  0  0  0
  1 13  1  0  0  0  0
  3  4  1  0  0  0  0
  4  5  1  0  0  0  0
  6  5  1  1  0  0  0
  6 10  1  0  0  0  0
  6 14  2  0  0  0  0
  6 18  1  0  0  0  0
  7 11  1  1  0  0  0
  7 15  1  0  0  0  0
  7 19  2  0  0  0  0
  7 18  1  0  0  0  0
  8 25  1  0  0  0  0
  8 12  1  0  0  0  0
  9 26  2  0  0  0  0
  9 13  1  0  0  0  0
 12 16  1  0  0  0  0
 13 17  2  0  0  0  0
 16 20  1  0  0  0  0
 16 27  1  0  0  0  0
 17 21  1  0  0  0  0
 20  2  1  1  0  0  0
 20 23  1  0  0  0  0
 21 22  1  0  0  0  0
 21 24  2  0  0  0  0
 23  3  1  1  0  0  0
 23 25  1  0  0  0  0
 24 27  1  0  0  0  0
 24 26  1  0  0  0  0
M  CHG  2  10  -1  15  -1
M  END
>  <CHROM.1>
72.42661525,179.77713488,-49.58086626,78.29363246,-172.16840301,171.59292613
37.58226803,57.59555001,-6.36183860,41.37152062,-6.16445906,2.28559025,0.28707358
2.06634297

>  <Name>
ligand

>  <RI>
0

>  <Rbt.Current_Directory>
/home/itssahil/PROJECTS/Mol_Feturizer/New_Systems/rnas/3D2V

>  <Rbt.Executable>
rbdock ($Id: //depot/dev/client3/rdock/2013.1/src/exe/rbdock.cxx#4 $)

>  <Rbt.Library>
libRbt.so (2013.1, Build901 2013/11/27)

>  <Rbt.Parameter_File>
/export/apps/rDock/src/rDock_2013.1_src/data/scripts/dock_solv.prm

>  <Rbt.Receptor>
prm/pocket_docking_2.prm

>  <SCORE>
-14.081

>  <SCORE.INTER>
-17.0322

>  <SCORE.INTER.CONST>
1

>  <SCORE.INTER.POLAR>
0

>  <SCORE.INTER.ROT>
8

>  <SCORE.INTER.SOLV>
12.9656

>  <SCORE.INTER.VDW>
-24.61

>  <SCORE.INTER.norm>
-0.630823

>  <SCORE.INTRA>
2.5601

>  <SCORE.INTRA.DIHEDRAL>
-1.29913

>  <SCORE.INTRA.DIHEDRAL.0>
7.82666

>  <SCORE.INTRA.POLAR>
0

>  <SCORE.INTRA.POLAR.0>
0

>  <SCORE.INTRA.REPUL>
0

>  <SCORE.INTRA.REPUL.0>
0

>  <SCORE.INTRA.SOLV>
4.23832

>  <SCORE.INTRA.SOLV.lig_0>
-83.2758

>  <SCORE.INTRA.VDW>
1.09051

>  <SCORE.INTRA.VDW.0>
-3.26816

>  <SCORE.INTRA.norm>
0.0948187

>  <SCORE.RESTR>
0.391159

>  <SCORE.RESTR.CAVITY>
0.391159

>  <SCORE.RESTR.norm>
0.0144874

>  <SCORE.SYSTEM>
0

>  <SCORE.SYSTEM.CONST>
0

>  <SCORE.SYSTEM.DIHEDRAL>
0

>  <SCORE.SYSTEM.SOLV>
0

>  <SCORE.SYSTEM.norm>
0

>  <SCORE.heavy>
27

>  <SCORE.norm>
-0.521517

>  <RMSD>
2.375

$$$$
ligand
 OpenBabel11021811463D
libRbt.so/2013.1/901 2013/11/27
 27 28  0  0  0  0  0  0  0  0999 V2000
  -13.3498   37.3441   -2.0074 C   0  0  0  0  0  0  0  0  0  0  0  0
   -5.9374   38.0619   -4.2091 C   0  0  0  0  0  0  0  0  0  0  0  0
   -5.4099   39.4220   -6.8259 C   0  0  0  0  0  0  0  0  0  0  0  0
   -5.7331   39.9273   -8.2333 C   0  0  0  0  0  0  0  0  0  0  0  0
   -4.5883   40.5486   -8.8231 O   0  0  0  0  0  0  0  0  0  0  0  0
   -4.0377   41.9392   -8.2375 P   0  0  1  0  0  0  0  0  0  0  0  0
   -2.5736   44.0381   -9.4239 P   0  0  2  0  0  0  0  0  0  0  0  0
   -8.0531   41.6661   -5.2675 C   0  0  0  0  0  0  0  0  0  0  0  0
  -11.2879   38.3663   -1.0633 N   0  0  0  0  0  0  0  0  0  0  0  0
   -5.0754   42.5790   -7.1979 O   0  5  0  0  0  0  0  0  0  0  0  0
   -2.0856   44.3710   -8.0698 O   0  0  0  0  0  0  0  0  0  0  0  0
   -8.3125   41.0522   -4.0493 C   0  0  0  0  0  0  0  0  0  0  0  0
  -11.9079   37.8380   -2.1298 C   0  0  0  0  0  0  0  0  0  0  0  0
   -2.6318   41.7820   -7.4549 O   0  0  0  0  0  0  0  0  0  0  0  0
   -3.0797   45.3450  -10.2060 O   0  5  0  0  0  0  0  0  0  0  0  0
   -7.6251   39.8876   -3.7046 N   0  0  0  0  0  0  0  0  0  0  0  0
  -11.2736   37.7382   -3.3070 N   0  0  0  0  0  0  0  0  0  0  0  0
   -3.7875   42.9966   -9.4483 O   0  0  0  0  0  0  0  0  0  0  0  0
   -1.4000   43.4366  -10.3210 O   0  0  0  0  0  0  0  0  0  0  0  0
   -6.6878   39.3450   -4.5919 C   0  0  1  0  0  0  0  0  0  0  0  0
  -10.0111   38.1655   -3.4337 C   0  0  0  0  0  0  0  0  0  0  0  0
   -9.3933   38.0631   -4.6060 N   0  0  0  0  0  0  0  0  0  0  0  0
   -6.4277   39.9623   -5.8144 C   0  0  2  0  0  0  0  0  0  0  0  0
   -9.3479   38.7184   -2.3450 C   0  0  0  0  0  0  0  0  0  0  0  0
   -7.1187   41.1228   -6.1408 C   0  0  0  0  0  0  0  0  0  0  0  0
  -10.0415   38.8011   -1.1431 C   0  0  0  0  0  0  0  0  0  0  0  0
   -7.9028   39.2300   -2.4061 C   0  0  0  0  0  0  0  0  0  0  0  0
  1 13  1  0  0  0  0
  3  4  1  0  0  0  0
  4  5  1  0  0  0  0
  6  5  1  6  0  0  0
  6 10  1  0  0  0  0
  6 14  2  0  0  0  0
  6 18  1  0  0  0  0
  7 11  1  1  0  0  0
  7 15  1  0  0  0  0
  7 19  2  0  0  0  0
  7 18  1  0  0  0  0
  8 25  1  0  0  0  0
  8 12  1  0  0  0  0
  9 26  2  0  0  0  0
  9 13  1  0  0  0  0
 12 16  1  0  0  0  0
 13 17  2  0  0  0  0
 16 20  1  0  0  0  0
 16 27  1  0  0  0  0
 17 21  1  0  0  0  0
 20  2  1  1  0  0  0
 20 23  1  0  0  0  0
 21 22  1  0  0  0  0
 21 24  2  0  0  0  0
 23  3  1  6  0  0  0
 23 25  1  0  0  0  0
 24 27  1  0  0  0  0
 24 26  1  0  0  0  0
M  CHG  2  10  -1  15  -1
M  END
>  <CHROM.1>
126.94388993,-68.34591194,-10.97475106,-144.33053194,-24.81640327,157.02636426
37.40212855,64.16141550,-6.37316267,40.75528000,-6.01332992,2.64091869,-0.69519680
3.08545215

>  <Name>
ligand

>  <RI>
0

>  <Rbt.Current_Directory>
/home/itssahil/PROJECTS/Mol_Feturizer/New_Systems/rnas/3D2V

>  <Rbt.Executable>
rbdock ($Id: //depot/dev/client3/rdock/2013.1/src/exe/rbdock.cxx#4 $)

>  <Rbt.Library>
libRbt.so (2013.1, Build901 2013/11/27)

>  <Rbt.Parameter_File>
/export/apps/rDock/src/rDock_2013.1_src/data/scripts/dock_solv.prm

>  <Rbt.Receptor>
prm/pocket_docking_2.prm

>  <SCORE>
-11.2228

>  <SCORE.INTER>
-19.1447

>  <SCORE.INTER.CONST>
1

>  <SCORE.INTER.POLAR>
0

>  <SCORE.INTER.ROT>
8

>  <SCORE.INTER.SOLV>
20.567

>  <SCORE.INTER.VDW>
-28.5522

>  <SCORE.INTER.norm>
-0.709064

>  <SCORE.INTRA>
7.92186

>  <SCORE.INTRA.DIHEDRAL>
8.28559

>  <SCORE.INTRA.DIHEDRAL.0>
7.82666

>  <SCORE.INTRA.POLAR>
0

>  <SCORE.INTRA.POLAR.0>
0

>  <SCORE.INTRA.REPUL>
0

>  <SCORE.INTRA.REPUL.0>
0

>  <SCORE.INTRA.SOLV>
4.7505

>  <SCORE.INTRA.SOLV.lig_0>
-83.2758

>  <SCORE.INTRA.VDW>
1.40381

>  <SCORE.INTRA.VDW.0>
-3.26816

>  <SCORE.INTRA.norm>
0.293402

>  <SCORE.RESTR>
4.97462e-05

>  <SCORE.RESTR.CAVITY>
4.97462e-05

>  <SCORE.RESTR.norm>
1.84245e-06

>  <SCORE.SYSTEM>
0

>  <SCORE.SYSTEM.CONST>
0

>  <SCORE.SYSTEM.DIHEDRAL>
0

>  <SCORE.SYSTEM.SOLV>
0

>  <SCORE.SYSTEM.norm>
0

>  <SCORE.heavy>
27

>  <SCORE.norm>
-0.41566

>  <RMSD>
2.376

$$$$
ligand
 OpenBabel11021811473D
libRbt.so/2013.1/901 2013/11/27
 27 28  0  0  0  0  0  0  0  0999 V2000
  -12.8912   37.5459   -2.3101 C   0  0  0  0  0  0  0  0  0  0  0  0
   -5.3135   38.7089   -4.6873 C   0  0  0  0  0  0  0  0  0  0  0  0
   -5.0346   40.5185   -7.0586 C   0  0  0  0  0  0  0  0  0  0  0  0
   -4.0811   41.7132   -7.1226 C   0  0  0  0  0  0  0  0  0  0  0  0
   -4.7658   42.8834   -7.5765 O   0  0  0  0  0  0  0  0  0  0  0  0
   -3.9363   44.2105   -7.9377 P   0  0  1  0  0  0  0  0  0  0  0  0
   -2.8191   43.1194  -10.2866 P   0  0  2  0  0  0  0  0  0  0  0  0
   -7.9500   42.0831   -5.1870 C   0  0  0  0  0  0  0  0  0  0  0  0
  -10.8123   38.0139   -3.5932 N   0  0  0  0  0  0  0  0  0  0  0  0
   -4.8504   45.2666   -8.7228 O   0  5  0  0  0  0  0  0  0  0  0  0
   -3.4922   41.8054  -10.2317 O   0  0  0  0  0  0  0  0  0  0  0  0
   -8.0964   41.2576   -4.0801 C   0  0  0  0  0  0  0  0  0  0  0  0
  -11.4373   38.0094   -2.4056 C   0  0  0  0  0  0  0  0  0  0  0  0
   -3.3629   44.9714   -6.6317 O   0  0  0  0  0  0  0  0  0  0  0  0
   -1.3451   43.0010  -10.9104 O   0  5  0  0  0  0  0  0  0  0  0  0
   -7.2407   40.1674   -3.9160 N   0  0  0  0  0  0  0  0  0  0  0  0
  -10.7974   38.4087   -1.2970 N   0  0  0  0  0  0  0  0  0  0  0  0
   -2.6538   43.8340   -8.8650 O   0  0  0  0  0  0  0  0  0  0  0  0
   -3.6047   44.1228  -11.2458 O   0  0  0  0  0  0  0  0  0  0  0  0
   -6.2494   39.9115   -4.8711 C   0  0  1  0  0  0  0  0  0  0  0  0
   -9.5242   38.8176   -1.3606 C   0  0  0  0  0  0  0  0  0  0  0  0
   -8.8998   39.2093   -0.2546 N   0  0  0  0  0  0  0  0  0  0  0  0
   -6.1030   40.7412   -5.9817 C   0  0  2  0  0  0  0  0  0  0  0  0
   -8.8541   38.8295   -2.5778 C   0  0  0  0  0  0  0  0  0  0  0  0
   -6.9614   41.8240   -6.1284 C   0  0  0  0  0  0  0  0  0  0  0  0
   -9.5550   38.4096   -3.7025 C   0  0  0  0  0  0  0  0  0  0  0  0
   -7.3973   39.2840   -2.7366 C   0  0  0  0  0  0  0  0  0  0  0  0
  1 13  1  0  0  0  0
  3  4  1  0  0  0  0
  4  5  1  0  0  0  0
  6  5  1  1  0  0  0
  6 10  1  0  0  0  0
  6 14  2  0  0  0  0
  6 18  1  0  0  0  0
  7 11  1  1  0  0  0
  7 15  1  0  0  0  0
  7 19  2  0  0  0  0
  7 18  1  0  0  0  0
  8 25  1  0  0  0  0
  8 12  1  0  0  0  0
  9 26  2  0  0  0  0
  9 13  1  0  0  0  0
 12 16  1  0  0  0  0
 13 17  2  0  0  0  0
 16 20  1  0  0  0  0
 16 27  1  0  0  0  0
 17 21  1  0  0  0  0
 20  2  1  1  0  0  0
 20 23  1  0  0  0  0
 21 22  1  0  0  0  0
 21 24  2  0  0  0  0
 23  3  1  6  0  0  0
 23 25  1  0  0  0  0
 24 27  1  0  0  0  0
 24 26  1  0  0  0  0
M  CHG  2  10  -1  15  -1
M  END
>  <CHROM.1>
-66.19516088,-170.82358990,167.31783236,59.50719075,-59.56804859,-118.32151378
-135.48439872,50.46897891,-6.15790233,41.33073854,-6.08636669,-3.11432389
0.90549703,0.57765085

>  <Name>
ligand

>  <RI>
0

>  <Rbt.Current_Directory>
/home/itssahil/PROJECTS/Mol_Feturizer/New_Systems/rnas/3D2V

>  <Rbt.Executable>
rbdock ($Id: //depot/dev/client3/rdock/2013.1/src/exe/rbdock.cxx#4 $)

>  <Rbt.Library>
libRbt.so (2013.1, Build901 2013/11/27)

>  <Rbt.Parameter_File>
/export/apps/rDock/src/rDock_2013.1_src/data/scripts/dock_solv.prm

>  <Rbt.Receptor>
prm/pocket_docking_2.prm

>  <SCORE>
-16.92

>  <SCORE.INTER>
-15.4873

>  <SCORE.INTER.CONST>
1

>  <SCORE.INTER.POLAR>
0

>  <SCORE.INTER.ROT>
8

>  <SCORE.INTER.SOLV>
20.5562

>  <SCORE.INTER.VDW>
-26.1103

>  <SCORE.INTER.norm>
-0.573604

>  <SCORE.INTRA>
-2.31533

>  <SCORE.INTRA.DIHEDRAL>
-1.81228

>  <SCORE.INTRA.DIHEDRAL.0>
7.82666

>  <SCORE.INTRA.POLAR>
0

>  <SCORE.INTRA.POLAR.0>
0

>  <SCORE.INTRA.REPUL>
0

>  <SCORE.INTRA.REPUL.0>
0

>  <SCORE.INTRA.SOLV>
-2.24927

>  <SCORE.INTRA.SOLV.lig_0>
-83.2758

>  <SCORE.INTRA.VDW>
-0.284556

>  <SCORE.INTRA.VDW.0>
-3.26816

>  <SCORE.INTRA.norm>
-0.0857531

>  <SCORE.RESTR>
0.882702

>  <SCORE.RESTR.CAVITY>
0.882702

>  <SCORE.RESTR.norm>
0.0326927

>  <SCORE.SYSTEM>
0

>  <SCORE.SYSTEM.CONST>
0

>  <SCORE.SYSTEM.DIHEDRAL>
0

>  <SCORE.SYSTEM.SOLV>
0

>  <SCORE.SYSTEM.norm>
0

>  <SCORE.heavy>
27

>  <SCORE.norm>
-0.626665

>  <RMSD>
2.379

$$$$
ligand
 OpenBabel11021811473D
libRbt.so/2013.1/901 2013/11/27
 27 28  0  0  0  0  0  0  0  0999 V2000
  -13.0065   37.7366   -1.6120 C   0  0  0  0  0  0  0  0  0  0  0  0
   -5.3213   39.0037   -5.3174 C   0  0  0  0  0  0  0  0  0  0  0  0
   -5.5633   40.1908   -8.0574 C   0  0  0  0  0  0  0  0  0  0  0  0
   -4.4976   41.0865   -7.4232 C   0  0  0  0  0  0  0  0  0  0  0  0
   -3.3912   41.2633   -8.3114 O   0  0  0  0  0  0  0  0  0  0  0  0
   -3.2225   42.6405   -9.1206 P   0  0  1  0  0  0  0  0  0  0  0  0
   -1.3121   43.8237   -7.4156 P   0  0  2  0  0  0  0  0  0  0  0  0
   -9.1375   40.3799   -6.7765 C   0  0  0  0  0  0  0  0  0  0  0  0
  -11.2637   37.6515   -3.3847 N   0  0  0  0  0  0  0  0  0  0  0  0
   -2.1370   42.4936  -10.2900 O   0  5  0  0  0  0  0  0  0  0  0  0
   -0.9818   42.5680   -6.7111 O   0  0  0  0  0  0  0  0  0  0  0  0
   -9.0476   39.8335   -5.5031 C   0  0  0  0  0  0  0  0  0  0  0  0
  -11.6020   38.0276   -2.1417 C   0  0  0  0  0  0  0  0  0  0  0  0
   -4.5945   43.1347   -9.8184 O   0  0  0  0  0  0  0  0  0  0  0  0
   -1.2850   45.0827   -6.4206 O   0  5  0  0  0  0  0  0  0  0  0  0
   -7.8117   39.3913   -5.0290 N   0  0  0  0  0  0  0  0  0  0  0  0
  -10.7176   38.6587   -1.3559 N   0  0  0  0  0  0  0  0  0  0  0  0
   -2.7518   43.8278   -8.1130 O   0  0  0  0  0  0  0  0  0  0  0  0
   -0.2278   44.1494   -8.5391 O   0  0  0  0  0  0  0  0  0  0  0  0
   -6.6772   39.4949   -5.8428 C   0  0  1  0  0  0  0  0  0  0  0  0
   -9.4831   38.9219   -1.8020 C   0  0  0  0  0  0  0  0  0  0  0  0
   -8.6145   39.5463   -1.0132 N   0  0  0  0  0  0  0  0  0  0  0  0
   -6.7684   40.0441   -7.1208 C   0  0  2  0  0  0  0  0  0  0  0  0
   -9.1075   38.5408   -3.0844 C   0  0  0  0  0  0  0  0  0  0  0  0
   -8.0059   40.4821   -7.5764 C   0  0  0  0  0  0  0  0  0  0  0  0
  -10.0555   37.8910   -3.8663 C   0  0  0  0  0  0  0  0  0  0  0  0
   -7.7148   38.8056   -3.6713 C   0  0  0  0  0  0  0  0  0  0  0  0
  1 13  1  0  0  0  0
  3  4  1  0  0  0  0
  4  5  1  0  0  0  0
  6  5  1  1  0  0  0
  6 10  1  0  0  0  0
  6 14  2  0  0  0  0
  6 18  1  0  0  0  0
  7 11  1  1  0  0  0
  7 15  1  0  0  0  0
  7 19  2  0  0  0  0
  7 18  1  0  0  0  0
  8 25  1  0  0  0  0
  8 12  1  0  0  0  0
  9 26  2  0  0  0  0
  9 13  1  0  0  0  0
 12 16  1  0  0  0  0
 13 17  2  0  0  0  0
 16 20  1  0  0  0  0
 16 27  1  0  0  0  0
 17 21  1  0  0  0  0
 20  2  1  1  0  0  0
 20 23  1  0  0  0  0
 21 22  1  0  0  0  0
 21 24  2  0  0  0  0
 23  3  1  6  0  0  0
 23 25  1  0  0  0  0
 24 27  1  0  0  0  0
 24 26  1  0  0  0  0
M  CHG  2  10  -1  15  -1
M  END
>  <CHROM.1>
-178.04193777,103.51757535,-166.69892490,67.18230773,-51.88226694,-60.49385664
-132.03867262,10.78713429,-5.87171215,40.90058993,-6.07558940,-2.61458218
-0.52026341,-1.55730332

>  <Name>
ligand

>  <RI>
0

>  <Rbt.Current_Directory>
/home/itssahil/PROJECTS/Mol_Feturizer/New_Systems/rnas/3D2V

>  <Rbt.Executable>
rbdock ($Id: //depot/dev/client3/rdock/2013.1/src/exe/rbdock.cxx#4 $)

>  <Rbt.Library>
libRbt.so (2013.1, Build901 2013/11/27)

>  <Rbt.Parameter_File>
/export/apps/rDock/src/rDock_2013.1_src/data/scripts/dock_solv.prm

>  <Rbt.Receptor>
prm/pocket_docking_4.prm

>  <SCORE>
-17.1984

>  <SCORE.INTER>
-20.5018

>  <SCORE.INTER.CONST>
1

>  <SCORE.INTER.POLAR>
0

>  <SCORE.INTER.ROT>
8

>  <SCORE.INTER.SOLV>
17.8248

>  <SCORE.INTER.VDW>
-28.5428

>  <SCORE.INTER.norm>
-0.759324

>  <SCORE.INTRA>
3.30332

>  <SCORE.INTRA.DIHEDRAL>
3.79332

>  <SCORE.INTRA.DIHEDRAL.0>
7.82666

>  <SCORE.INTRA.POLAR>
0

>  <SCORE.INTRA.POLAR.0>
0

>  <SCORE.INTRA.REPUL>
0

>  <SCORE.INTRA.REPUL.0>
0

>  <SCORE.INTRA.SOLV>
-1.59491

>  <SCORE.INTRA.SOLV.lig_0>
-83.2758

>  <SCORE.INTRA.VDW>
2.20411

>  <SCORE.INTRA.VDW.0>
-3.26816

>  <SCORE.INTRA.norm>
0.122345

>  <SCORE.RESTR>
0

>  <SCORE.RESTR.CAVITY>
0

>  <SCORE.RESTR.norm>
0

>  <SCORE.SYSTEM>
0

>  <SCORE.SYSTEM.CONST>
0

>  <SCORE.SYSTEM.DIHEDRAL>
0

>  <SCORE.SYSTEM.SOLV>
0

>  <SCORE.SYSTEM.norm>
0

>  <SCORE.heavy>
27

>  <SCORE.norm>
-0.636979

>  <RMSD>
2.380

$$$$
ligand
 OpenBabel11021811473D
libRbt.so/2013.1/901 2013/11/27
 27 28  0  0  0  0  0  0  0  0999 V2000
  -12.3885   37.4232   -2.2499 C   0  0  0  0  0  0  0  0  0  0  0  0
   -7.3573   41.9099   -4.0975 C   0  0  0  0  0  0  0  0  0  0  0  0
   -6.1874   41.6757   -6.8456 C   0  0  0  0  0  0  0  0  0  0  0  0
   -7.2481   41.3418   -7.8963 C   0  0  0  0  0  0  0  0  0  0  0  0
   -7.5084   42.4738   -8.7300 O   0  0  0  0  0  0  0  0  0  0  0  0
   -6.3751   43.0096   -9.7343 P   0  0  1  0  0  0  0  0  0  0  0  0
   -4.7239   42.0064  -11.7894 P   0  0  2  0  0  0  0  0  0  0  0  0
   -5.2848   38.3242   -5.2951 C   0  0  0  0  0  0  0  0  0  0  0  0
  -10.3142   38.1896   -3.3888 N   0  0  0  0  0  0  0  0  0  0  0  0
   -6.9729   44.0898  -10.7556 O   0  5  0  0  0  0  0  0  0  0  0  0
   -5.2033   42.9485  -12.8215 O   0  0  0  0  0  0  0  0  0  0  0  0
   -5.8200   38.4115   -4.0168 C   0  0  0  0  0  0  0  0  0  0  0  0
  -10.9803   38.0186   -2.2364 C   0  0  0  0  0  0  0  0  0  0  0  0
   -5.1417   43.7235   -8.9711 O   0  0  0  0  0  0  0  0  0  0  0  0
   -4.4131   40.5596  -12.4107 O   0  5  0  0  0  0  0  0  0  0  0  0
   -6.4943   39.5705   -3.6300 N   0  0  0  0  0  0  0  0  0  0  0  0
  -10.4215   38.3658   -1.0680 N   0  0  0  0  0  0  0  0  0  0  0  0
   -5.7502   41.7717  -10.5850 O   0  0  0  0  0  0  0  0  0  0  0  0
   -3.3441   42.5022  -11.1616 O   0  0  0  0  0  0  0  0  0  0  0  0
   -6.6178   40.6361   -4.5296 C   0  0  1  0  0  0  0  0  0  0  0  0
   -9.1893   38.8883   -1.0359 C   0  0  0  0  0  0  0  0  0  0  0  0
   -8.6451   39.2270    0.1284 N   0  0  0  0  0  0  0  0  0  0  0  0
   -6.0806   40.5474   -5.8128 C   0  0  1  0  0  0  0  0  0  0  0  0
   -8.4779   39.0734   -2.2151 C   0  0  0  0  0  0  0  0  0  0  0  0
   -5.4150   39.3852   -6.1829 C   0  0  0  0  0  0  0  0  0  0  0  0
   -9.0950   38.7019   -3.4041 C   0  0  0  0  0  0  0  0  0  0  0  0
   -7.0636   39.6660   -2.2652 C   0  0  0  0  0  0  0  0  0  0  0  0
  1 13  1  0  0  0  0
  3  4  1  0  0  0  0
  4  5  1  0  0  0  0
  6  5  1  1  0  0  0
  6 10  1  0  0  0  0
  6 14  2  0  0  0  0
  6 18  1  0  0  0  0
  7 11  1  6  0  0  0
  7 15  1  0  0  0  0
  7 19  2  0  0  0  0
  7 18  1  0  0  0  0
  8 25  1  0  0  0  0
  8 12  1  0  0  0  0
  9 26  2  0  0  0  0
  9 13  1  0  0  0  0
 12 16  1  0  0  0  0
 13 17  2  0  0  0  0
 16 20  1  0  0  0  0
 16 27  1  0  0  0  0
 17 21  1  0  0  0  0
 20  2  1  6  0  0  0
 20 23  1  0  0  0  0
 21 22  1  0  0  0  0
 21 24  2  0  0  0  0
 23  3  1  6  0  0  0
 23 25  1  0  0  0  0
 24 27  1  0  0  0  0
 24 26  1  0  0  0  0
M  CHG  2  10  -1  15  -1
M  END
>  <CHROM.1>
170.52335052,67.52436623,169.09447586,172.61640187,-53.33682709,-103.83339970
172.28632264,-86.88200566,-6.94325764,40.75749618,-6.67007103,1.96282750
-0.07694601,2.00053772

>  <Name>
ligand

>  <RI>
0

>  <Rbt.Current_Directory>
/home/itssahil/PROJECTS/Mol_Feturizer/New_Systems/rnas/3D2V

>  <Rbt.Executable>
rbdock ($Id: //depot/dev/client3/rdock/2013.1/src/exe/rbdock.cxx#4 $)

>  <Rbt.Library>
libRbt.so (2013.1, Build901 2013/11/27)

>  <Rbt.Parameter_File>
/export/apps/rDock/src/rDock_2013.1_src/data/scripts/dock_solv.prm

>  <Rbt.Receptor>
prm/pocket_docking_5.prm

>  <SCORE>
-20.7021

>  <SCORE.INTER>
-19.9043

>  <SCORE.INTER.CONST>
1

>  <SCORE.INTER.POLAR>
0

>  <SCORE.INTER.ROT>
8

>  <SCORE.INTER.SOLV>
20.496

>  <SCORE.INTER.VDW>
-29.0348

>  <SCORE.INTER.norm>
-0.737195

>  <SCORE.INTRA>
-0.797865

>  <SCORE.INTRA.DIHEDRAL>
-1.67292

>  <SCORE.INTRA.DIHEDRAL.0>
7.82666

>  <SCORE.INTRA.POLAR>
0

>  <SCORE.INTRA.POLAR.0>
0

>  <SCORE.INTRA.REPUL>
0

>  <SCORE.INTRA.REPUL.0>
0

>  <SCORE.INTRA.SOLV>
-0.185981

>  <SCORE.INTRA.SOLV.lig_0>
-83.2758

>  <SCORE.INTRA.VDW>
0.131584

>  <SCORE.INTRA.VDW.0>
-3.26816

>  <SCORE.INTRA.norm>
-0.0295506

>  <SCORE.RESTR>
0

>  <SCORE.RESTR.CAVITY>
0

>  <SCORE.RESTR.norm>
0

>  <SCORE.SYSTEM>
0

>  <SCORE.SYSTEM.CONST>
0

>  <SCORE.SYSTEM.DIHEDRAL>
0

>  <SCORE.SYSTEM.SOLV>
0

>  <SCORE.SYSTEM.norm>
0

>  <SCORE.heavy>
27

>  <SCORE.norm>
-0.766745

>  <RMSD>
2.391

$$$$
ligand
 OpenBabel11021811473D
libRbt.so/2013.1/901 2013/11/27
 27 28  0  0  0  0  0  0  0  0999 V2000
  -12.5877   37.7677   -1.4605 C   0  0  0  0  0  0  0  0  0  0  0  0
   -7.1412   41.5793   -4.9564 C   0  0  0  0  0  0  0  0  0  0  0  0
   -7.5974   42.1800   -7.8558 C   0  0  0  0  0  0  0  0  0  0  0  0
   -6.4773   42.1947   -8.8978 C   0  0  0  0  0  0  0  0  0  0  0  0
   -5.2026   42.3467   -8.2683 O   0  0  0  0  0  0  0  0  0  0  0  0
   -3.8571   42.2129   -9.1353 P   0  0  1  0  0  0  0  0  0  0  0  0
   -2.6765   42.8463   -6.6531 P   0  0  2  0  0  0  0  0  0  0  0  0
   -8.3342   38.4549   -7.6770 C   0  0  0  0  0  0  0  0  0  0  0  0
  -11.0001   37.6244   -3.3701 N   0  0  0  0  0  0  0  0  0  0  0  0
   -3.7894   40.7963   -9.8808 O   0  5  0  0  0  0  0  0  0  0  0  0
   -1.3857   42.9477   -5.9418 O   0  0  0  0  0  0  0  0  0  0  0  0
   -8.1287   38.1547   -6.3369 C   0  0  0  0  0  0  0  0  0  0  0  0
  -11.2425   38.0624   -2.1249 C   0  0  0  0  0  0  0  0  0  0  0  0
   -3.7282   43.3477  -10.2795 O   0  0  0  0  0  0  0  0  0  0  0  0
   -3.6703   41.8161   -5.9272 O   0  5  0  0  0  0  0  0  0  0  0  0
   -7.7461   39.1666   -5.4551 N   0  0  0  0  0  0  0  0  0  0  0  0
  -10.3134   38.7588   -1.4543 N   0  0  0  0  0  0  0  0  0  0  0  0
   -2.5539   42.3633   -8.1732 O   0  0  0  0  0  0  0  0  0  0  0  0
   -3.4414   44.2459   -6.6488 O   0  0  0  0  0  0  0  0  0  0  0  0
   -7.5655   40.4712   -5.9301 C   0  0  1  0  0  0  0  0  0  0  0  0
   -9.1295   39.0265   -2.0193 C   0  0  0  0  0  0  0  0  0  0  0  0
   -8.2157   39.7160   -1.3440 N   0  0  0  0  0  0  0  0  0  0  0  0
   -7.7725   40.7716   -7.2754 C   0  0  1  0  0  0  0  0  0  0  0  0
   -8.8532   38.5821   -3.3065 C   0  0  0  0  0  0  0  0  0  0  0  0
   -8.1560   39.7531   -8.1393 C   0  0  0  0  0  0  0  0  0  0  0  0
   -9.8447   37.8656   -3.9668 C   0  0  0  0  0  0  0  0  0  0  0  0
   -7.5239   38.8471   -4.0253 C   0  0  0  0  0  0  0  0  0  0  0  0
  1 13  1  0  0  0  0
  3  4  1  0  0  0  0
  4  5  1  0  0  0  0
  6  5  1  1  0  0  0
  6 10  1  0  0  0  0
  6 14  2  0  0  0  0
  6 18  1  0  0  0  0
  7 11  1  1  0  0  0
  7 15  1  0  0  0  0
  7 19  2  0  0  0  0
  7 18  1  0  0  0  0
  8 25  1  0  0  0  0
  8 12  1  0  0  0  0
  9 26  2  0  0  0  0
  9 13  1  0  0  0  0
 12 16  1  0  0  0  0
 13 17  2  0  0  0  0
 16 20  1  0  0  0  0
 16 27  1  0  0  0  0
 17 21  1  0  0  0  0
 20  2  1  1  0  0  0
 20 23  1  0  0  0  0
 21 22  1  0  0  0  0
 21 24  2  0  0  0  0
 23  3  1  1  0  0  0
 23 25  1  0  0  0  0
 24 27  1  0  0  0  0
 24 26  1  0  0  0  0
M  CHG  2  10  -1  15  -1
M  END
>  <CHROM.1>
-84.02506160,172.60267989,-56.87955492,-10.34878483,-178.90607964,117.25783322
-140.06322435,-72.46465077,-6.46865449,40.74396312,-6.05405099,-2.53622821
-0.54511477,-1.54346125

>  <Name>
ligand

>  <RI>
0

>  <Rbt.Current_Directory>
/home/itssahil/PROJECTS/Mol_Feturizer/New_Systems/rnas/3D2V

>  <Rbt.Executable>
rbdock ($Id: //depot/dev/client3/rdock/2013.1/src/exe/rbdock.cxx#4 $)

>  <Rbt.Library>
libRbt.so (2013.1, Build901 2013/11/27)

>  <Rbt.Parameter_File>
/export/apps/rDock/src/rDock_2013.1_src/data/scripts/dock_solv.prm

>  <Rbt.Receptor>
prm/pocket_docking_3.prm

>  <SCORE>
-13.8356

>  <SCORE.INTER>
-15.2274

>  <SCORE.INTER.CONST>
1

>  <SCORE.INTER.POLAR>
0

>  <SCORE.INTER.ROT>
8

>  <SCORE.INTER.SOLV>
18.1231

>  <SCORE.INTER.VDW>
-25.126

>  <SCORE.INTER.norm>
-0.563978

>  <SCORE.INTRA>
0.944533

>  <SCORE.INTRA.DIHEDRAL>
1.79307

>  <SCORE.INTRA.DIHEDRAL.0>
7.82666

>  <SCORE.INTRA.POLAR>
0

>  <SCORE.INTRA.POLAR.0>
0

>  <SCORE.INTRA.REPUL>
0

>  <SCORE.INTRA.REPUL.0>
0

>  <SCORE.INTRA.SOLV>
1.11292

>  <SCORE.INTRA.SOLV.lig_0>
-83.2758

>  <SCORE.INTRA.VDW>
-0.508463

>  <SCORE.INTRA.VDW.0>
-3.26816

>  <SCORE.INTRA.norm>
0.0349827

>  <SCORE.RESTR>
0.447248

>  <SCORE.RESTR.CAVITY>
0.447248

>  <SCORE.RESTR.norm>
0.0165648

>  <SCORE.SYSTEM>
0

>  <SCORE.SYSTEM.CONST>
0

>  <SCORE.SYSTEM.DIHEDRAL>
0

>  <SCORE.SYSTEM.SOLV>
0

>  <SCORE.SYSTEM.norm>
0

>  <SCORE.heavy>
27

>  <SCORE.norm>
-0.512431

>  <RMSD>
2.413

$$$$
ligand
 OpenBabel11021811473D
libRbt.so/2013.1/901 2013/11/27
 27 28  0  0  0  0  0  0  0  0999 V2000
  -12.4555   37.2477   -2.5827 C   0  0  0  0  0  0  0  0  0  0  0  0
   -4.6544   40.4926   -3.7247 C   0  0  0  0  0  0  0  0  0  0  0  0
   -4.3151   41.7202   -6.4364 C   0  0  0  0  0  0  0  0  0  0  0  0
   -4.1351   41.0390   -7.7944 C   0  0  0  0  0  0  0  0  0  0  0  0
   -4.8457   41.7465   -8.8136 O   0  0  0  0  0  0  0  0  0  0  0  0
   -4.7728   41.2471  -10.3385 P   0  0  1  0  0  0  0  0  0  0  0  0
   -2.4036   42.6823  -10.8709 P   0  0  2  0  0  0  0  0  0  0  0  0
   -8.0943   41.4250   -6.1505 C   0  0  0  0  0  0  0  0  0  0  0  0
  -10.4093   38.0309   -3.7604 N   0  0  0  0  0  0  0  0  0  0  0  0
   -5.3011   39.7410  -10.4784 O   0  5  0  0  0  0  0  0  0  0  0  0
   -1.0583   42.5735  -11.4716 O   0  0  0  0  0  0  0  0  0  0  0  0
   -8.2743   40.8569   -4.8963 C   0  0  0  0  0  0  0  0  0  0  0  0
  -11.1067   37.9670   -2.6156 C   0  0  0  0  0  0  0  0  0  0  0  0
   -5.6650   42.1484  -11.3411 O   0  0  0  0  0  0  0  0  0  0  0  0
   -2.3291   43.1621   -9.3412 O   0  5  0  0  0  0  0  0  0  0  0  0
   -7.1612   40.5584   -4.1092 N   0  0  0  0  0  0  0  0  0  0  0  0
  -10.6310   38.5299   -1.4953 N   0  0  0  0  0  0  0  0  0  0  0  0
   -3.2398   41.3186  -10.8783 O   0  0  0  0  0  0  0  0  0  0  0  0
   -3.2742   43.7895  -11.6193 O   0  0  0  0  0  0  0  0  0  0  0  0
   -5.8751   40.8264   -4.5934 C   0  0  1  0  0  0  0  0  0  0  0  0
   -9.4519   39.1637   -1.5044 C   0  0  0  0  0  0  0  0  0  0  0  0
   -8.9899   39.7161   -0.3873 N   0  0  0  0  0  0  0  0  0  0  0  0
   -5.6955   41.3971   -5.8524 C   0  0  1  0  0  0  0  0  0  0  0  0
   -8.7095   39.2417   -2.6764 C   0  0  0  0  0  0  0  0  0  0  0  0
   -6.8145   41.6909   -6.6220 C   0  0  0  0  0  0  0  0  0  0  0  0
   -9.2401   38.6467   -3.8152 C   0  0  0  0  0  0  0  0  0  0  0  0
   -7.3517   39.9497   -2.7716 C   0  0  0  0  0  0  0  0  0  0  0  0
  1 13  1  0  0  0  0
  3  4  1  0  0  0  0
  4  5  1  0  0  0  0
  6  5  1  1  0  0  0
  6 10  1  0  0  0  0
  6 14  2  0  0  0  0
  6 18  1  0  0  0  0
  7 11  1  6  0  0  0
  7 15  1  0  0  0  0
  7 19  2  0  0  0  0
  7 18  1  0  0  0  0
  8 25  1  0  0  0  0
  8 12  1  0  0  0  0
  9 26  2  0  0  0  0
  9 13  1  0  0  0  0
 12 16  1  0  0  0  0
 13 17  2  0  0  0  0
 16 20  1  0  0  0  0
 16 27  1  0  0  0  0
 17 21  1  0  0  0  0
 20  2  1  1  0  0  0
 20 23  1  0  0  0  0
 21 22  1  0  0  0  0
 21 24  2  0  0  0  0
 23  3  1  1  0  0  0
 23 25  1  0  0  0  0
 24 27  1  0  0  0  0
 24 26  1  0  0  0  0
M  CHG  2  10  -1  15  -1
M  END
>  <CHROM.1>
77.09792535,178.16846681,58.72992609,-57.56268612,-176.56015419,124.39683396
-147.26475976,22.42915853,-6.12705709,40.79877932,-6.76481701,2.30103759
0.47883245,1.57141905

>  <Name>
ligand

>  <RI>
0

>  <Rbt.Current_Directory>
/home/itssahil/PROJECTS/Mol_Feturizer/New_Systems/rnas/3D2V

>  <Rbt.Executable>
rbdock ($Id: //depot/dev/client3/rdock/2013.1/src/exe/rbdock.cxx#4 $)

>  <Rbt.Library>
libRbt.so (2013.1, Build901 2013/11/27)

>  <Rbt.Parameter_File>
/export/apps/rDock/src/rDock_2013.1_src/data/scripts/dock_solv.prm

>  <Rbt.Receptor>
prm/pocket_docking_6.prm

>  <SCORE>
-18.4823

>  <SCORE.INTER>
-19.6812

>  <SCORE.INTER.CONST>
1

>  <SCORE.INTER.POLAR>
0

>  <SCORE.INTER.ROT>
8

>  <SCORE.INTER.SOLV>
24.9321

>  <SCORE.INTER.VDW>
-30.3648

>  <SCORE.INTER.norm>
-0.728932

>  <SCORE.INTRA>
1.19888

>  <SCORE.INTRA.DIHEDRAL>
-1.53199

>  <SCORE.INTRA.DIHEDRAL.0>
7.82666

>  <SCORE.INTRA.POLAR>
0

>  <SCORE.INTRA.POLAR.0>
0

>  <SCORE.INTRA.REPUL>
0

>  <SCORE.INTRA.REPUL.0>
0

>  <SCORE.INTRA.SOLV>
0.806788

>  <SCORE.INTRA.SOLV.lig_0>
-83.2758

>  <SCORE.INTRA.VDW>
1.56148

>  <SCORE.INTRA.VDW.0>
-3.26816

>  <SCORE.INTRA.norm>
0.0444029

>  <SCORE.RESTR>
0

>  <SCORE.RESTR.CAVITY>
0

>  <SCORE.RESTR.norm>
0

>  <SCORE.SYSTEM>
0

>  <SCORE.SYSTEM.CONST>
0

>  <SCORE.SYSTEM.DIHEDRAL>
0

>  <SCORE.SYSTEM.SOLV>
0

>  <SCORE.SYSTEM.norm>
0

>  <SCORE.heavy>
27

>  <SCORE.norm>
-0.68453

>  <RMSD>
2.418

$$$$
ligand
 OpenBabel11021811473D
libRbt.so/2013.1/901 2013/11/27
 27 28  0  0  0  0  0  0  0  0999 V2000
  -11.9681   37.6967   -1.9087 C   0  0  0  0  0  0  0  0  0  0  0  0
   -5.4626   41.5765   -4.5660 C   0  0  0  0  0  0  0  0  0  0  0  0
   -4.1377   40.2854   -6.9226 C   0  0  0  0  0  0  0  0  0  0  0  0
   -4.8775   40.0654   -8.2435 C   0  0  0  0  0  0  0  0  0  0  0  0
   -4.1237   40.5906   -9.3391 O   0  0  0  0  0  0  0  0  0  0  0  0
   -3.8784   42.1733   -9.4604 P   0  0  1  0  0  0  0  0  0  0  0  0
   -5.8955   43.1153  -11.1924 P   0  0  2  0  0  0  0  0  0  0  0  0
   -5.3223   37.2818   -4.9160 C   0  0  0  0  0  0  0  0  0  0  0  0
  -10.0578   38.5136   -3.2764 N   0  0  0  0  0  0  0  0  0  0  0  0
   -3.2118   42.7579   -8.1258 O   0  5  0  0  0  0  0  0  0  0  0  0
   -5.7354   41.9312  -12.0611 O   0  0  0  0  0  0  0  0  0  0  0  0
   -5.9419   37.8595   -3.8158 C   0  0  0  0  0  0  0  0  0  0  0  0
  -10.5590   38.2718   -2.0552 C   0  0  0  0  0  0  0  0  0  0  0  0
   -2.8965   42.5680  -10.6825 O   0  0  0  0  0  0  0  0  0  0  0  0
   -5.1889   44.4102  -11.8246 O   0  5  0  0  0  0  0  0  0  0  0  0
   -5.9908   39.2498   -3.7040 N   0  0  0  0  0  0  0  0  0  0  0  0
   -9.8339   38.5305   -0.9573 N   0  0  0  0  0  0  0  0  0  0  0  0
   -5.2890   42.9400   -9.7226 O   0  0  0  0  0  0  0  0  0  0  0  0
   -7.4343   43.5060  -11.0390 O   0  0  0  0  0  0  0  0  0  0  0  0
   -5.4089   40.0480   -4.6961 C   0  0  1  0  0  0  0  0  0  0  0  0
   -8.5981   39.0339   -1.0654 C   0  0  0  0  0  0  0  0  0  0  0  0
   -7.8883   39.2843    0.0299 N   0  0  0  0  0  0  0  0  0  0  0  0
   -4.7875   39.4672   -5.8004 C   0  0  1  0  0  0  0  0  0  0  0  0
   -8.0555   39.2908   -2.3186 C   0  0  0  0  0  0  0  0  0  0  0  0
   -4.7501   38.0816   -5.8978 C   0  0  0  0  0  0  0  0  0  0  0  0
   -8.8417   39.0102   -3.4302 C   0  0  0  0  0  0  0  0  0  0  0  0
   -6.6495   39.8676   -2.5291 C   0  0  0  0  0  0  0  0  0  0  0  0
  1 13  1  0  0  0  0
  3  4  1  0  0  0  0
  4  5  1  0  0  0  0
  6  5  1  1  0  0  0
  6 10  1  0  0  0  0
  6 14  2  0  0  0  0
  6 18  1  0  0  0  0
  7 11  1  6  0  0  0
  7 15  1  0  0  0  0
  7 19  2  0  0  0  0
  7 18  1  0  0  0  0
  8 25  1  0  0  0  0
  8 12  1  0  0  0  0
  9 26  2  0  0  0  0
  9 13  1  0  0  0  0
 12 16  1  0  0  0  0
 13 17  2  0  0  0  0
 16 20  1  0  0  0  0
 16 27  1  0  0  0  0
 17 21  1  0  0  0  0
 20  2  1  6  0  0  0
 20 23  1  0  0  0  0
 21 22  1  0  0  0  0
 21 24  2  0  0  0  0
 23  3  1  6  0  0  0
 23 25  1  0  0  0  0
 24 27  1  0  0  0  0
 24 26  1  0  0  0  0
M  CHG  2  10  -1  15  -1
M  END
>  <CHROM.1>
-167.80519092,-66.15205314,54.84089674,-85.50851703,39.81003556,-115.44576541
141.97806018,-51.13296857,-6.20999266,40.61741925,-6.50630618,1.96729348
-0.10434494,2.06093143

>  <Name>
ligand

>  <RI>
0

>  <Rbt.Current_Directory>
/home/itssahil/PROJECTS/Mol_Feturizer/New_Systems/rnas/3D2V

>  <Rbt.Executable>
rbdock ($Id: //depot/dev/client3/rdock/2013.1/src/exe/rbdock.cxx#4 $)

>  <Rbt.Library>
libRbt.so (2013.1, Build901 2013/11/27)

>  <Rbt.Parameter_File>
/export/apps/rDock/src/rDock_2013.1_src/data/scripts/dock_solv.prm

>  <Rbt.Receptor>
prm/pocket_docking_7.prm

>  <SCORE>
-23.1658

>  <SCORE.INTER>
-23.2792

>  <SCORE.INTER.CONST>
1

>  <SCORE.INTER.POLAR>
0

>  <SCORE.INTER.ROT>
8

>  <SCORE.INTER.SOLV>
22.0842

>  <SCORE.INTER.VDW>
-31.8142

>  <SCORE.INTER.norm>
-0.862194

>  <SCORE.INTRA>
0.113453

>  <SCORE.INTRA.DIHEDRAL>
-0.390616

>  <SCORE.INTRA.DIHEDRAL.0>
7.82666

>  <SCORE.INTRA.POLAR>
0

>  <SCORE.INTRA.POLAR.0>
0

>  <SCORE.INTRA.REPUL>
0

>  <SCORE.INTRA.REPUL.0>
0

>  <SCORE.INTRA.SOLV>
-0.737937

>  <SCORE.INTRA.SOLV.lig_0>
-83.2758

>  <SCORE.INTRA.VDW>
0.67773

>  <SCORE.INTRA.VDW.0>
-3.26816

>  <SCORE.INTRA.norm>
0.00420197

>  <SCORE.RESTR>
0

>  <SCORE.RESTR.CAVITY>
0

>  <SCORE.RESTR.norm>
0

>  <SCORE.SYSTEM>
0

>  <SCORE.SYSTEM.CONST>
0

>  <SCORE.SYSTEM.DIHEDRAL>
0

>  <SCORE.SYSTEM.SOLV>
0

>  <SCORE.SYSTEM.norm>
0

>  <SCORE.heavy>
27

>  <SCORE.norm>
-0.857992

>  <RMSD>
2.419

$$$$
ligand
 OpenBabel11021811473D
libRbt.so/2013.1/901 2013/11/27
 27 28  0  0  0  0  0  0  0  0999 V2000
  -13.2121   37.4506   -1.6708 C   0  0  0  0  0  0  0  0  0  0  0  0
   -6.7129   41.7574   -3.2149 C   0  0  0  0  0  0  0  0  0  0  0  0
   -6.8753   43.4225   -5.7001 C   0  0  0  0  0  0  0  0  0  0  0  0
   -5.9580   43.5498   -6.9179 C   0  0  0  0  0  0  0  0  0  0  0  0
   -4.7762   42.7638   -6.7455 O   0  0  0  0  0  0  0  0  0  0  0  0
   -3.7316   42.6073   -7.9556 P   0  0  1  0  0  0  0  0  0  0  0  0
   -1.4821   43.2168   -6.3667 P   0  0  2  0  0  0  0  0  0  0  0  0
   -8.6644   40.2352   -6.7449 C   0  0  0  0  0  0  0  0  0  0  0  0
  -11.3713   37.6979   -3.3253 N   0  0  0  0  0  0  0  0  0  0  0  0
   -4.1882   41.4510   -8.9663 O   0  5  0  0  0  0  0  0  0  0  0  0
   -2.1244   43.3521   -5.0432 O   0  0  0  0  0  0  0  0  0  0  0  0
   -8.6009   39.4469   -5.6036 C   0  0  0  0  0  0  0  0  0  0  0  0
  -11.8042   37.8933   -2.0701 C   0  0  0  0  0  0  0  0  0  0  0  0
   -3.5745   43.9565   -8.8322 O   0  0  0  0  0  0  0  0  0  0  0  0
   -1.3531   44.6348   -7.1071 O   0  5  0  0  0  0  0  0  0  0  0  0
   -7.9726   39.9407   -4.4594 N   0  0  0  0  0  0  0  0  0  0  0  0
  -11.0116   38.4753   -1.1585 N   0  0  0  0  0  0  0  0  0  0  0  0
   -2.2546   42.2464   -7.3769 O   0  0  0  0  0  0  0  0  0  0  0  0
    0.0121   42.6775   -6.2228 O   0  0  0  0  0  0  0  0  0  0  0  0
   -7.4058   41.2208   -4.4751 C   0  0  1  0  0  0  0  0  0  0  0  0
   -9.7756   38.8695   -1.4893 C   0  0  0  0  0  0  0  0  0  0  0  0
   -8.9985   39.4435   -0.5765 N   0  0  0  0  0  0  0  0  0  0  0  0
   -7.4705   42.0116   -5.6212 C   0  0  2  0  0  0  0  0  0  0  0  0
   -9.3030   38.6763   -2.7816 C   0  0  0  0  0  0  0  0  0  0  0  0
   -8.1022   41.5060   -6.7508 C   0  0  0  0  0  0  0  0  0  0  0  0
  -10.1578   38.0713   -3.6958 C   0  0  0  0  0  0  0  0  0  0  0  0
   -7.9019   39.0995   -3.2416 C   0  0  0  0  0  0  0  0  0  0  0  0
  1 13  1  0  0  0  0
  3  4  1  0  0  0  0
  4  5  1  0  0  0  0
  6  5  1  1  0  0  0
  6 10  1  0  0  0  0
  6 14  2  0  0  0  0
  6 18  1  0  0  0  0
  7 11  1  1  0  0  0
  7 15  1  0  0  0  0
  7 19  2  0  0  0  0
  7 18  1  0  0  0  0
  8 25  1  0  0  0  0
  8 12  1  0  0  0  0
  9 26  2  0  0  0  0
  9 13  1  0  0  0  0
 12 16  1  0  0  0  0
 13 17  2  0  0  0  0
 16 20  1  0  0  0  0
 16 27  1  0  0  0  0
 17 21  1  0  0  0  0
 20  2  1  1  0  0  0
 20 23  1  0  0  0  0
 21 22  1  0  0  0  0
 21 24  2  0  0  0  0
 23  3  1  6  0  0  0
 23 25  1  0  0  0  0
 24 27  1  0  0  0  0
 24 26  1  0  0  0  0
M  CHG  2  10  -1  15  -1
M  END
>  <CHROM.1>
-68.91472734,173.38898547,-83.23638946,-59.65855503,66.07613804,127.95354185
-127.24024473,-57.09104762,-6.26872667,41.22832237,-5.23810050,2.56907443
0.38866624,1.82323646

>  <Name>
ligand

>  <RI>
0

>  <Rbt.Current_Directory>
/home/itssahil/PROJECTS/Mol_Feturizer/New_Systems/rnas/3D2V

>  <Rbt.Executable>
rbdock ($Id: //depot/dev/client3/rdock/2013.1/src/exe/rbdock.cxx#4 $)

>  <Rbt.Library>
libRbt.so (2013.1, Build901 2013/11/27)

>  <Rbt.Parameter_File>
/export/apps/rDock/src/rDock_2013.1_src/data/scripts/dock_solv.prm

>  <Rbt.Receptor>
prm/pocket_docking_5.prm

>  <SCORE>
-18.9455

>  <SCORE.INTER>
-18.0149

>  <SCORE.INTER.CONST>
1

>  <SCORE.INTER.POLAR>
0

>  <SCORE.INTER.ROT>
8

>  <SCORE.INTER.SOLV>
22.0732

>  <SCORE.INTER.VDW>
-28.301

>  <SCORE.INTER.norm>
-0.667219

>  <SCORE.INTRA>
-0.930586

>  <SCORE.INTRA.DIHEDRAL>
-1.27439

>  <SCORE.INTRA.DIHEDRAL.0>
7.82666

>  <SCORE.INTRA.POLAR>
0

>  <SCORE.INTRA.POLAR.0>
0

>  <SCORE.INTRA.REPUL>
0

>  <SCORE.INTRA.REPUL.0>
0

>  <SCORE.INTRA.SOLV>
-1.16095

>  <SCORE.INTRA.SOLV.lig_0>
-83.2758

>  <SCORE.INTRA.VDW>
0.287088

>  <SCORE.INTRA.VDW.0>
-3.26816

>  <SCORE.INTRA.norm>
-0.0344661

>  <SCORE.RESTR>
0

>  <SCORE.RESTR.CAVITY>
0

>  <SCORE.RESTR.norm>
0

>  <SCORE.SYSTEM>
0

>  <SCORE.SYSTEM.CONST>
0

>  <SCORE.SYSTEM.DIHEDRAL>
0

>  <SCORE.SYSTEM.SOLV>
0

>  <SCORE.SYSTEM.norm>
0

>  <SCORE.heavy>
27

>  <SCORE.norm>
-0.701685

>  <RMSD>
2.424

$$$$
ligand
 OpenBabel11021811473D
libRbt.so/2013.1/901 2013/11/27
 27 28  0  0  0  0  0  0  0  0999 V2000
  -12.0247   37.5415   -1.9640 C   0  0  0  0  0  0  0  0  0  0  0  0
   -5.6936   41.3873   -5.0151 C   0  0  0  0  0  0  0  0  0  0  0  0
   -4.2893   39.9065   -7.2083 C   0  0  0  0  0  0  0  0  0  0  0  0
   -5.1348   39.6627   -8.4599 C   0  0  0  0  0  0  0  0  0  0  0  0
   -6.2746   40.5256   -8.4765 O   0  0  0  0  0  0  0  0  0  0  0  0
   -6.1083   42.0688   -8.8898 P   0  0  1  0  0  0  0  0  0  0  0  0
   -5.6455   43.5843  -11.2234 P   0  0  2  0  0  0  0  0  0  0  0  0
   -5.3236   37.0946   -4.8686 C   0  0  0  0  0  0  0  0  0  0  0  0
  -10.1574   38.3283   -3.4066 N   0  0  0  0  0  0  0  0  0  0  0  0
   -7.4806   42.8712   -8.6893 O   0  5  0  0  0  0  0  0  0  0  0  0
   -6.9776   44.2057  -11.3709 O   0  0  0  0  0  0  0  0  0  0  0  0
   -5.9789   37.7610   -3.8417 C   0  0  0  0  0  0  0  0  0  0  0  0
  -10.6401   38.1578   -2.1661 C   0  0  0  0  0  0  0  0  0  0  0  0
   -4.9869   42.8388   -8.0162 O   0  0  0  0  0  0  0  0  0  0  0  0
   -4.9620   43.3095  -12.6492 O   0  5  0  0  0  0  0  0  0  0  0  0
   -6.1023   39.1503   -3.8906 N   0  0  0  0  0  0  0  0  0  0  0  0
   -9.9178   38.5239   -1.0973 N   0  0  0  0  0  0  0  0  0  0  0  0
   -5.6543   42.1853  -10.4477 O   0  0  0  0  0  0  0  0  0  0  0  0
   -4.6436   44.5589  -10.4551 O   0  0  0  0  0  0  0  0  0  0  0  0
   -5.5581   39.8591   -4.9684 C   0  0  1  0  0  0  0  0  0  0  0  0
   -8.7034   39.0649   -1.2542 C   0  0  0  0  0  0  0  0  0  0  0  0
   -7.9960   39.4221   -0.1872 N   0  0  0  0  0  0  0  0  0  0  0  0
   -4.9008   39.1891   -5.9990 C   0  0  2  0  0  0  0  0  0  0  0  0
   -8.1801   39.2498   -2.5281 C   0  0  0  0  0  0  0  0  0  0  0  0
   -4.7894   37.8055   -5.9363 C   0  0  0  0  0  0  0  0  0  0  0  0
   -8.9627   38.8586   -3.6084 C   0  0  0  0  0  0  0  0  0  0  0  0
   -6.7991   39.8630   -2.7941 C   0  0  0  0  0  0  0  0  0  0  0  0
  1 13  1  0  0  0  0
  3  4  1  0  0  0  0
  4  5  1  0  0  0  0
  6  5  1  1  0  0  0
  6 10  1  0  0  0  0
  6 14  2  0  0  0  0
  6 18  1  0  0  0  0
  7 11  1  6  0  0  0
  7 15  1  0  0  0  0
  7 19  2  0  0  0  0
  7 18  1  0  0  0  0
  8 25  1  0  0  0  0
  8 12  1  0  0  0  0
  9 26  2  0  0  0  0
  9 13  1  0  0  0  0
 12 16  1  0  0  0  0
 13 17  2  0  0  0  0
 16 20  1  0  0  0  0
 16 27  1  0  0  0  0
 17 21  1  0  0  0  0
 20  2  1  6  0  0  0
 20 23  1  0  0  0  0
 21 22  1  0  0  0  0
 21 24  2  0  0  0  0
 23  3  1  1  0  0  0
 23 25  1  0  0  0  0
 24 27  1  0  0  0  0
 24 26  1  0  0  0  0
M  CHG  2  10  -1  15  -1
M  END
>  <CHROM.1>
80.11636325,77.38407812,-174.06389645,169.48940907,-63.66264312,-107.00719570
139.64240368,-51.76155928,-6.70240210,40.63185548,-6.46279802,1.91725747
-0.32107295,2.18860833

>  <Name>
ligand

>  <RI>
0

>  <Rbt.Current_Directory>
/home/itssahil/PROJECTS/Mol_Feturizer/New_Systems/rnas/3D2V

>  <Rbt.Executable>
rbdock ($Id: //depot/dev/client3/rdock/2013.1/src/exe/rbdock.cxx#4 $)

>  <Rbt.Library>
libRbt.so (2013.1, Build901 2013/11/27)

>  <Rbt.Parameter_File>
/export/apps/rDock/src/rDock_2013.1_src/data/scripts/dock_solv.prm

>  <Rbt.Receptor>
prm/pocket_docking_8.prm

>  <SCORE>
-22.8165

>  <SCORE.INTER>
-23.0773

>  <SCORE.INTER.CONST>
1

>  <SCORE.INTER.POLAR>
0

>  <SCORE.INTER.ROT>
8

>  <SCORE.INTER.SOLV>
18.3867

>  <SCORE.INTER.VDW>
-30.4471

>  <SCORE.INTER.norm>
-0.854716

>  <SCORE.INTRA>
0.260774

>  <SCORE.INTRA.DIHEDRAL>
0.364219

>  <SCORE.INTRA.DIHEDRAL.0>
7.82666

>  <SCORE.INTRA.POLAR>
0

>  <SCORE.INTRA.POLAR.0>
0

>  <SCORE.INTRA.REPUL>
0

>  <SCORE.INTRA.REPUL.0>
0

>  <SCORE.INTRA.SOLV>
1.16123

>  <SCORE.INTRA.SOLV.lig_0>
-83.2758

>  <SCORE.INTRA.VDW>
-0.501948

>  <SCORE.INTRA.VDW.0>
-3.26816

>  <SCORE.INTRA.norm>
0.00965831

>  <SCORE.RESTR>
0

>  <SCORE.RESTR.CAVITY>
0

>  <SCORE.RESTR.norm>
0

>  <SCORE.SYSTEM>
0

>  <SCORE.SYSTEM.CONST>
0

>  <SCORE.SYSTEM.DIHEDRAL>
0

>  <SCORE.SYSTEM.SOLV>
0

>  <SCORE.SYSTEM.norm>
0

>  <SCORE.heavy>
27

>  <SCORE.norm>
-0.845057

>  <RMSD>
2.428

$$$$
ligand
 OpenBabel11021811473D
libRbt.so/2013.1/901 2013/11/27
 27 28  0  0  0  0  0  0  0  0999 V2000
  -13.0640   37.4399   -1.7547 C   0  0  0  0  0  0  0  0  0  0  0  0
   -5.7588   38.3137   -5.1206 C   0  0  0  0  0  0  0  0  0  0  0  0
   -5.8318   38.5547   -8.1059 C   0  0  0  0  0  0  0  0  0  0  0  0
   -5.4841   39.5490   -9.2155 C   0  0  0  0  0  0  0  0  0  0  0  0
   -5.0318   40.7872   -8.6619 O   0  0  0  0  0  0  0  0  0  0  0  0
   -4.7099   42.0294   -9.6280 P   0  0  1  0  0  0  0  0  0  0  0  0
   -2.7113   43.2025   -8.0199 P   0  0  2  0  0  0  0  0  0  0  0  0
   -9.0581   40.2819   -7.0769 C   0  0  0  0  0  0  0  0  0  0  0  0
  -11.3783   37.9170   -3.5206 N   0  0  0  0  0  0  0  0  0  0  0  0
   -3.6338   41.6280  -10.7451 O   0  5  0  0  0  0  0  0  0  0  0  0
   -2.5430   42.0222   -7.1474 O   0  0  0  0  0  0  0  0  0  0  0  0
   -9.0440   40.1817   -5.6920 C   0  0  0  0  0  0  0  0  0  0  0  0
  -11.7092   37.9736   -2.2212 C   0  0  0  0  0  0  0  0  0  0  0  0
   -6.0145   42.5735  -10.4125 O   0  0  0  0  0  0  0  0  0  0  0  0
   -2.5568   44.5712   -7.1963 O   0  5  0  0  0  0  0  0  0  0  0  0
   -7.9743   39.5480   -5.0581 N   0  0  0  0  0  0  0  0  0  0  0  0
  -10.8606   38.4956   -1.3238 N   0  0  0  0  0  0  0  0  0  0  0  0
   -4.1270   43.2765   -8.7610 O   0  0  0  0  0  0  0  0  0  0  0  0
   -1.5750   43.2515   -9.1382 O   0  0  0  0  0  0  0  0  0  0  0  0
   -6.9309   39.0128   -5.8230 C   0  0  1  0  0  0  0  0  0  0  0  0
   -9.6698   38.9676   -1.7131 C   0  0  0  0  0  0  0  0  0  0  0  0
   -8.8363   39.4810   -0.8142 N   0  0  0  0  0  0  0  0  0  0  0  0
   -6.9458   39.1142   -7.2132 C   0  0  1  0  0  0  0  0  0  0  0  0
   -9.3026   38.9183   -3.0524 C   0  0  0  0  0  0  0  0  0  0  0  0
   -8.0168   39.7509   -7.8283 C   0  0  0  0  0  0  0  0  0  0  0  0
  -10.2127   38.3712   -3.9496 C   0  0  0  0  0  0  0  0  0  0  0  0
   -7.9591   39.4381   -3.5804 C   0  0  0  0  0  0  0  0  0  0  0  0
  1 13  1  0  0  0  0
  3  4  1  0  0  0  0
  4  5  1  0  0  0  0
  6  5  1  1  0  0  0
  6 10  1  0  0  0  0
  6 14  2  0  0  0  0
  6 18  1  0  0  0  0
  7 11  1  1  0  0  0
  7 15  1  0  0  0  0
  7 19  2  0  0  0  0
  7 18  1  0  0  0  0
  8 25  1  0  0  0  0
  8 12  1  0  0  0  0
  9 26  2  0  0  0  0
  9 13  1  0  0  0  0
 12 16  1  0  0  0  0
 13 17  2  0  0  0  0
 16 20  1  0  0  0  0
 16 27  1  0  0  0  0
 17 21  1  0  0  0  0
 20  2  1  1  0  0  0
 20 23  1  0  0  0  0
 21 22  1  0  0  0  0
 21 24  2  0  0  0  0
 23  3  1  1  0  0  0
 23 25  1  0  0  0  0
 24 27  1  0  0  0  0
 24 26  1  0  0  0  0
M  CHG  2  10  -1  15  -1
M  END
>  <CHROM.1>
60.18480611,-175.47624427,-55.74056903,66.42021703,-52.20041014,-137.32972393
-166.67178686,48.38575363,-6.60485010,40.48856512,-6.39067086,2.53674343
0.59577315,1.46731105

>  <Name>
ligand

>  <RI>
0

>  <Rbt.Current_Directory>
/home/itssahil/PROJECTS/Mol_Feturizer/New_Systems/rnas/3D2V

>  <Rbt.Executable>
rbdock ($Id: //depot/dev/client3/rdock/2013.1/src/exe/rbdock.cxx#4 $)

>  <Rbt.Library>
libRbt.so (2013.1, Build901 2013/11/27)

>  <Rbt.Parameter_File>
/export/apps/rDock/src/rDock_2013.1_src/data/scripts/dock_solv.prm

>  <Rbt.Receptor>
prm/pocket_docking_3.prm

>  <SCORE>
-23.0456

>  <SCORE.INTER>
-21.9609

>  <SCORE.INTER.CONST>
1

>  <SCORE.INTER.POLAR>
0

>  <SCORE.INTER.ROT>
8

>  <SCORE.INTER.SOLV>
18.9263

>  <SCORE.INTER.VDW>
-29.8827

>  <SCORE.INTER.norm>
-0.813368

>  <SCORE.INTRA>
-1.08469

>  <SCORE.INTRA.DIHEDRAL>
-2.32884

>  <SCORE.INTRA.DIHEDRAL.0>
7.82666

>  <SCORE.INTRA.POLAR>
0

>  <SCORE.INTRA.POLAR.0>
0

>  <SCORE.INTRA.REPUL>
0

>  <SCORE.INTRA.REPUL.0>
0

>  <SCORE.INTRA.SOLV>
-2.18375

>  <SCORE.INTRA.SOLV.lig_0>
-83.2758

>  <SCORE.INTRA.VDW>
1.17161

>  <SCORE.INTRA.VDW.0>
-3.26816

>  <SCORE.INTRA.norm>
-0.0401736

>  <SCORE.RESTR>
0

>  <SCORE.RESTR.CAVITY>
0

>  <SCORE.RESTR.norm>
0

>  <SCORE.SYSTEM>
0

>  <SCORE.SYSTEM.CONST>
0

>  <SCORE.SYSTEM.DIHEDRAL>
0

>  <SCORE.SYSTEM.SOLV>
0

>  <SCORE.SYSTEM.norm>
0

>  <SCORE.heavy>
27

>  <SCORE.norm>
-0.853541

>  <RMSD>
2.435

$$$$
ligand
 OpenBabel11021811473D
libRbt.so/2013.1/901 2013/11/27
 27 28  0  0  0  0  0  0  0  0999 V2000
  -12.7672   37.5599   -1.7357 C   0  0  0  0  0  0  0  0  0  0  0  0
   -5.2830   38.6426   -5.1475 C   0  0  0  0  0  0  0  0  0  0  0  0
   -5.4069   39.2553   -8.0774 C   0  0  0  0  0  0  0  0  0  0  0  0
   -5.4422   40.1697   -9.3035 C   0  0  0  0  0  0  0  0  0  0  0  0
   -5.2153   41.5301   -8.9268 O   0  0  0  0  0  0  0  0  0  0  0  0
   -5.1430   42.6742  -10.0519 P   0  0  1  0  0  0  0  0  0  0  0  0
   -5.8097   45.2501   -9.1156 P   0  0  2  0  0  0  0  0  0  0  0  0
   -8.7652   40.5378   -6.8412 C   0  0  0  0  0  0  0  0  0  0  0  0
  -10.9996   37.8813   -3.4560 N   0  0  0  0  0  0  0  0  0  0  0  0
   -4.0669   42.3065  -11.1806 O   0  5  0  0  0  0  0  0  0  0  0  0
   -6.4690   45.7552  -10.3373 O   0  0  0  0  0  0  0  0  0  0  0  0
   -8.7284   40.2633   -5.4805 C   0  0  0  0  0  0  0  0  0  0  0  0
  -11.3861   38.0417   -2.1809 C   0  0  0  0  0  0  0  0  0  0  0  0
   -6.5524   42.9041  -10.8097 O   0  0  0  0  0  0  0  0  0  0  0  0
   -5.0404   46.4216   -8.3335 O   0  5  0  0  0  0  0  0  0  0  0  0
   -7.5998   39.6532   -4.9312 N   0  0  0  0  0  0  0  0  0  0  0  0
  -10.5703   38.6225   -1.2892 N   0  0  0  0  0  0  0  0  0  0  0  0
   -4.7325   44.0969   -9.3781 O   0  0  0  0  0  0  0  0  0  0  0  0
   -6.8833   44.6848   -8.0804 O   0  0  0  0  0  0  0  0  0  0  0  0
   -6.5202   39.3167   -5.7566 C   0  0  1  0  0  0  0  0  0  0  0  0
   -9.3572   39.0505   -1.6601 C   0  0  0  0  0  0  0  0  0  0  0  0
   -8.5567   39.6231   -0.7669 N   0  0  0  0  0  0  0  0  0  0  0  0
   -6.5579   39.5930   -7.1223 C   0  0  1  0  0  0  0  0  0  0  0  0
   -8.9326   38.8940   -2.9739 C   0  0  0  0  0  0  0  0  0  0  0  0
   -7.6879   40.2035   -7.6527 C   0  0  0  0  0  0  0  0  0  0  0  0
   -9.8101   38.2888   -3.8662 C   0  0  0  0  0  0  0  0  0  0  0  0
   -7.5603   39.3574   -3.4797 C   0  0  0  0  0  0  0  0  0  0  0  0
  1 13  1  0  0  0  0
  3  4  1  0  0  0  0
  4  5  1  0  0  0  0
  6  5  1  1  0  0  0
  6 10  1  0  0  0  0
  6 14  2  0  0  0  0
  6 18  1  0  0  0  0
  7 11  1  6  0  0  0
  7 15  1  0  0  0  0
  7 19  2  0  0  0  0
  7 18  1  0  0  0  0
  8 25  1  0  0  0  0
  8 12  1  0  0  0  0
  9 26  2  0  0  0  0
  9 13  1  0  0  0  0
 12 16  1  0  0  0  0
 13 17  2  0  0  0  0
 16 20  1  0  0  0  0
 16 27  1  0  0  0  0
 17 21  1  0  0  0  0
 20  2  1  1  0  0  0
 20 23  1  0  0  0  0
 21 22  1  0  0  0  0
 21 24  2  0  0  0  0
 23  3  1  1  0  0  0
 23 25  1  0  0  0  0
 24 27  1  0  0  0  0
 24 26  1  0  0  0  0
M  CHG  2  10  -1  15  -1
M  END
>  <CHROM.1>
64.39524398,177.38568864,-53.74759266,-103.52140843,-61.13784114,-155.34102156
-153.58746911,37.99549589,-7.20202705,41.18363344,-6.65903362,2.37403719
-0.88912052,2.89309593

>  <Name>
ligand

>  <RI>
0

>  <Rbt.Current_Directory>
/home/itssahil/PROJECTS/Mol_Feturizer/New_Systems/rnas/3D2V

>  <Rbt.Executable>
rbdock ($Id: //depot/dev/client3/rdock/2013.1/src/exe/rbdock.cxx#4 $)

>  <Rbt.Library>
libRbt.so (2013.1, Build901 2013/11/27)

>  <Rbt.Parameter_File>
/export/apps/rDock/src/rDock_2013.1_src/data/scripts/dock_solv.prm

>  <Rbt.Receptor>
prm/pocket_docking_3.prm

>  <SCORE>
-20.1415

>  <SCORE.INTER>
-21.2693

>  <SCORE.INTER.CONST>
1

>  <SCORE.INTER.POLAR>
0

>  <SCORE.INTER.ROT>
8

>  <SCORE.INTER.SOLV>
15.8119

>  <SCORE.INTER.VDW>
-28.3835

>  <SCORE.INTER.norm>
-0.787751

>  <SCORE.INTRA>
1.12775

>  <SCORE.INTRA.DIHEDRAL>
-0.499598

>  <SCORE.INTRA.DIHEDRAL.0>
7.82666

>  <SCORE.INTRA.POLAR>
0

>  <SCORE.INTRA.POLAR.0>
0

>  <SCORE.INTRA.REPUL>
0

>  <SCORE.INTRA.REPUL.0>
0

>  <SCORE.INTRA.SOLV>
-1.44353

>  <SCORE.INTRA.SOLV.lig_0>
-83.2758

>  <SCORE.INTRA.VDW>
2.09931

>  <SCORE.INTRA.VDW.0>
-3.26816

>  <SCORE.INTRA.norm>
0.0417685

>  <SCORE.RESTR>
0

>  <SCORE.RESTR.CAVITY>
0

>  <SCORE.RESTR.norm>
0

>  <SCORE.SYSTEM>
0

>  <SCORE.SYSTEM.CONST>
0

>  <SCORE.SYSTEM.DIHEDRAL>
0

>  <SCORE.SYSTEM.SOLV>
0

>  <SCORE.SYSTEM.norm>
0

>  <SCORE.heavy>
27

>  <SCORE.norm>
-0.745983

>  <RMSD>
2.445

$$$$
ligand
 OpenBabel11021811463D
libRbt.so/2013.1/901 2013/11/27
 27 28  0  0  0  0  0  0  0  0999 V2000
  -12.9040   37.5576   -1.7084 C   0  0  0  0  0  0  0  0  0  0  0  0
   -5.3773   38.3733   -4.6102 C   0  0  0  0  0  0  0  0  0  0  0  0
   -5.1574   39.4793   -7.3857 C   0  0  0  0  0  0  0  0  0  0  0  0
   -4.3417   40.6865   -7.8526 C   0  0  0  0  0  0  0  0  0  0  0  0
   -5.1396   41.5536   -8.6624 O   0  0  0  0  0  0  0  0  0  0  0  0
   -5.1108   43.1398   -8.4110 P   0  0  1  0  0  0  0  0  0  0  0  0
   -2.7264   43.8430   -9.7439 P   0  0  2  0  0  0  0  0  0  0  0  0
   -8.2018   41.3060   -6.0272 C   0  0  0  0  0  0  0  0  0  0  0  0
  -10.7275   38.5921   -1.0921 N   0  0  0  0  0  0  0  0  0  0  0  0
   -5.9223   43.9197   -9.5514 O   0  5  0  0  0  0  0  0  0  0  0  0
   -1.4287   44.5255   -9.5635 O   0  0  0  0  0  0  0  0  0  0  0  0
   -8.3217   40.8070   -4.7369 C   0  0  0  0  0  0  0  0  0  0  0  0
  -11.4847   38.0193   -2.0405 C   0  0  0  0  0  0  0  0  0  0  0  0
   -5.7682   43.5668   -6.9971 O   0  0  0  0  0  0  0  0  0  0  0  0
   -3.6665   44.6286  -10.7806 O   0  5  0  0  0  0  0  0  0  0  0  0
   -7.4054   39.8604   -4.2765 N   0  0  0  0  0  0  0  0  0  0  0  0
  -11.0076   37.8467   -3.2817 N   0  0  0  0  0  0  0  0  0  0  0  0
   -3.5752   43.6768   -8.3982 O   0  0  0  0  0  0  0  0  0  0  0  0
   -2.5245   42.3912  -10.3728 O   0  0  0  0  0  0  0  0  0  0  0  0
   -6.3801   39.4172   -5.1207 C   0  0  1  0  0  0  0  0  0  0  0  0
   -9.7675   38.2447   -3.5916 C   0  0  0  0  0  0  0  0  0  0  0  0
   -9.3063   38.0701   -4.8258 N   0  0  0  0  0  0  0  0  0  0  0  0
   -6.2603   39.9191   -6.4156 C   0  0  2  0  0  0  0  0  0  0  0  0
   -8.9644   38.8426   -2.6281 C   0  0  0  0  0  0  0  0  0  0  0  0
   -7.1792   40.8631   -6.8573 C   0  0  0  0  0  0  0  0  0  0  0  0
   -9.4971   39.0005   -1.3538 C   0  0  0  0  0  0  0  0  0  0  0  0
   -7.5337   39.3251   -2.9007 C   0  0  0  0  0  0  0  0  0  0  0  0
  1 13  1  0  0  0  0
  3  4  1  0  0  0  0
  4  5  1  0  0  0  0
  6  5  1  6  0  0  0
  6 10  1  0  0  0  0
  6 14  2  0  0  0  0
  6 18  1  0  0  0  0
  7 11  1  1  0  0  0
  7 15  1  0  0  0  0
  7 19  2  0  0  0  0
  7 18  1  0  0  0  0
  8 25  1  0  0  0  0
  8 12  1  0  0  0  0
  9 26  2  0  0  0  0
  9 13  1  0  0  0  0
 12 16  1  0  0  0  0
 13 17  2  0  0  0  0
 16 20  1  0  0  0  0
 16 27  1  0  0  0  0
 17 21  1  0  0  0  0
 20  2  1  1  0  0  0
 20 23  1  0  0  0  0
 21 22  1  0  0  0  0
 21 24  2  0  0  0  0
 23  3  1  6  0  0  0
 23 25  1  0  0  0  0
 24 27  1  0  0  0  0
 24 26  1  0  0  0  0
M  CHG  2  10  -1  15  -1
M  END
>  <CHROM.1>
-67.09347714,134.13842922,172.44500594,75.36445939,171.47479634,-122.54950925
35.20268117,50.30999436,-6.47685037,41.00989761,-6.32682433,2.29272186,-0.36699451
2.52192802

>  <Name>
ligand

>  <RI>
0

>  <Rbt.Current_Directory>
/home/itssahil/PROJECTS/Mol_Feturizer/New_Systems/rnas/3D2V

>  <Rbt.Executable>
rbdock ($Id: //depot/dev/client3/rdock/2013.1/src/exe/rbdock.cxx#4 $)

>  <Rbt.Library>
libRbt.so (2013.1, Build901 2013/11/27)

>  <Rbt.Parameter_File>
/export/apps/rDock/src/rDock_2013.1_src/data/scripts/dock_solv.prm

>  <Rbt.Receptor>
prm/pocket_docking_2.prm

>  <SCORE>
-14.2136

>  <SCORE.INTER>
-18.4834

>  <SCORE.INTER.CONST>
1

>  <SCORE.INTER.POLAR>
0

>  <SCORE.INTER.ROT>
8

>  <SCORE.INTER.SOLV>
13.7095

>  <SCORE.INTER.VDW>
-25.8254

>  <SCORE.INTER.norm>
-0.684571

>  <SCORE.INTRA>
4.23225

>  <SCORE.INTRA.DIHEDRAL>
4.3929

>  <SCORE.INTRA.DIHEDRAL.0>
7.82666

>  <SCORE.INTRA.POLAR>
0

>  <SCORE.INTRA.POLAR.0>
0

>  <SCORE.INTRA.REPUL>
0

>  <SCORE.INTRA.REPUL.0>
0

>  <SCORE.INTRA.SOLV>
5.5668

>  <SCORE.INTRA.SOLV.lig_0>
-83.2758

>  <SCORE.INTRA.VDW>
-0.747604

>  <SCORE.INTRA.VDW.0>
-3.26816

>  <SCORE.INTRA.norm>
0.15675

>  <SCORE.RESTR>
0.0375174

>  <SCORE.RESTR.CAVITY>
0.0375174

>  <SCORE.RESTR.norm>
0.00138953

>  <SCORE.SYSTEM>
0

>  <SCORE.SYSTEM.CONST>
0

>  <SCORE.SYSTEM.DIHEDRAL>
0

>  <SCORE.SYSTEM.SOLV>
0

>  <SCORE.SYSTEM.norm>
0

>  <SCORE.heavy>
27

>  <SCORE.norm>
-0.526431

>  <RMSD>
2.447

$$$$
ligand
 OpenBabel11021811473D
libRbt.so/2013.1/901 2013/11/27
 27 28  0  0  0  0  0  0  0  0999 V2000
  -13.4456   37.3636   -1.7174 C   0  0  0  0  0  0  0  0  0  0  0  0
   -5.6732   39.7918   -4.6630 C   0  0  0  0  0  0  0  0  0  0  0  0
   -5.8258   40.9780   -7.4098 C   0  0  0  0  0  0  0  0  0  0  0  0
   -5.6733   42.4980   -7.3276 C   0  0  0  0  0  0  0  0  0  0  0  0
   -6.6550   43.1496   -8.1376 O   0  0  0  0  0  0  0  0  0  0  0  0
   -6.3950   43.3503   -9.7099 P   0  0  1  0  0  0  0  0  0  0  0  0
   -5.6026   46.0283   -9.3135 P   0  0  2  0  0  0  0  0  0  0  0  0
   -9.4797   40.2794   -6.6276 C   0  0  0  0  0  0  0  0  0  0  0  0
  -11.5846   37.5015   -3.3620 N   0  0  0  0  0  0  0  0  0  0  0  0
   -5.7835   42.0235  -10.3677 O   0  5  0  0  0  0  0  0  0  0  0  0
   -4.6624   47.0661   -9.7841 O   0  0  0  0  0  0  0  0  0  0  0  0
   -9.4318   39.7279   -5.3541 C   0  0  0  0  0  0  0  0  0  0  0  0
  -12.0412   37.8000   -2.1359 C   0  0  0  0  0  0  0  0  0  0  0  0
   -7.7419   43.6998  -10.5328 O   0  0  0  0  0  0  0  0  0  0  0  0
   -5.5244   45.8401   -7.7215 O   0  5  0  0  0  0  0  0  0  0  0  0
   -8.2002   39.5733   -4.7162 N   0  0  0  0  0  0  0  0  0  0  0  0
  -11.2756   38.4798   -1.2701 N   0  0  0  0  0  0  0  0  0  0  0  0
   -5.3607   44.5822   -9.9534 O   0  0  0  0  0  0  0  0  0  0  0  0
   -7.1117   46.4466   -9.6161 O   0  0  0  0  0  0  0  0  0  0  0  0
   -7.0254   39.9674   -5.3679 C   0  0  1  0  0  0  0  0  0  0  0  0
  -10.0432   38.8701   -1.6183 C   0  0  0  0  0  0  0  0  0  0  0  0
   -9.2929   39.5417   -0.7509 N   0  0  0  0  0  0  0  0  0  0  0  0
   -7.0745   40.5214   -6.6461 C   0  0  1  0  0  0  0  0  0  0  0  0
   -9.5463   38.5713   -2.8811 C   0  0  0  0  0  0  0  0  0  0  0  0
   -8.3092   40.6710   -7.2658 C   0  0  0  0  0  0  0  0  0  0  0  0
  -10.3736   37.8669   -3.7482 C   0  0  0  0  0  0  0  0  0  0  0  0
   -8.1474   38.9825   -3.3583 C   0  0  0  0  0  0  0  0  0  0  0  0
  1 13  1  0  0  0  0
  3  4  1  0  0  0  0
  4  5  1  0  0  0  0
  6  5  1  1  0  0  0
  6 10  1  0  0  0  0
  6 14  2  0  0  0  0
  6 18  1  0  0  0  0
  7 11  1  6  0  0  0
  7 15  1  0  0  0  0
  7 19  2  0  0  0  0
  7 18  1  0  0  0  0
  8 25  1  0  0  0  0
  8 12  1  0  0  0  0
  9 26  2  0  0  0  0
  9 13  1  0  0  0  0
 12 16  1  0  0  0  0
 13 17  2  0  0  0  0
 16 20  1  0  0  0  0
 16 27  1  0  0  0  0
 17 21  1  0  0  0  0
 20  2  1  1  0  0  0
 20 23  1  0  0  0  0
 21 22  1  0  0  0  0
 21 24  2  0  0  0  0
 23  3  1  1  0  0  0
 23 25  1  0  0  0  0
 24 27  1  0  0  0  0
 24 26  1  0  0  0  0
M  CHG  2  10  -1  15  -1
M  END
>  <CHROM.1>
-72.37263891,-83.66770870,43.38719527,-52.52720444,-172.32315656,-101.07618555
-133.53195448,2.16061234,-7.76675652,41.63249177,-6.43171472,2.15325357,0.63096439
1.95986781

>  <Name>
ligand

>  <RI>
0

>  <Rbt.Current_Directory>
/home/itssahil/PROJECTS/Mol_Feturizer/New_Systems/rnas/3D2V

>  <Rbt.Executable>
rbdock ($Id: //depot/dev/client3/rdock/2013.1/src/exe/rbdock.cxx#4 $)

>  <Rbt.Library>
libRbt.so (2013.1, Build901 2013/11/27)

>  <Rbt.Parameter_File>
/export/apps/rDock/src/rDock_2013.1_src/data/scripts/dock_solv.prm

>  <Rbt.Receptor>
prm/pocket_docking_4.prm

>  <SCORE>
-18.6635

>  <SCORE.INTER>
-21.2399

>  <SCORE.INTER.CONST>
1

>  <SCORE.INTER.POLAR>
0

>  <SCORE.INTER.ROT>
8

>  <SCORE.INTER.SOLV>
24.1652

>  <SCORE.INTER.VDW>
-31.1483

>  <SCORE.INTER.norm>
-0.786664

>  <SCORE.INTRA>
2.56769

>  <SCORE.INTRA.DIHEDRAL>
0.984255

>  <SCORE.INTRA.DIHEDRAL.0>
7.82666

>  <SCORE.INTRA.POLAR>
0

>  <SCORE.INTRA.POLAR.0>
0

>  <SCORE.INTRA.REPUL>
0

>  <SCORE.INTRA.REPUL.0>
0

>  <SCORE.INTRA.SOLV>
1.22075

>  <SCORE.INTRA.SOLV.lig_0>
-83.2758

>  <SCORE.INTRA.VDW>
1.46519

>  <SCORE.INTRA.VDW.0>
-3.26816

>  <SCORE.INTRA.norm>
0.0950998

>  <SCORE.RESTR>
0.00871734

>  <SCORE.RESTR.CAVITY>
0.00871734

>  <SCORE.RESTR.norm>
0.000322864

>  <SCORE.SYSTEM>
0

>  <SCORE.SYSTEM.CONST>
0

>  <SCORE.SYSTEM.DIHEDRAL>
0

>  <SCORE.SYSTEM.SOLV>
0

>  <SCORE.SYSTEM.norm>
0

>  <SCORE.heavy>
27

>  <SCORE.norm>
-0.691241

>  <RMSD>
2.450

$$$$
ligand
 OpenBabel11021811473D
libRbt.so/2013.1/901 2013/11/27
 27 28  0  0  0  0  0  0  0  0999 V2000
  -11.9903   37.4962   -1.9985 C   0  0  0  0  0  0  0  0  0  0  0  0
   -5.3138   41.5897   -4.5608 C   0  0  0  0  0  0  0  0  0  0  0  0
   -4.0263   40.3729   -6.9768 C   0  0  0  0  0  0  0  0  0  0  0  0
   -4.9734   40.9696   -8.0197 C   0  0  0  0  0  0  0  0  0  0  0  0
   -5.4916   42.2250   -7.5730 O   0  0  0  0  0  0  0  0  0  0  0  0
   -6.3148   43.1609   -8.5862 P   0  0  1  0  0  0  0  0  0  0  0  0
   -5.6525   43.2351  -11.3271 P   0  0  2  0  0  0  0  0  0  0  0  0
   -5.6085   37.3520   -5.2969 C   0  0  0  0  0  0  0  0  0  0  0  0
  -10.0957   38.2817   -3.4059 N   0  0  0  0  0  0  0  0  0  0  0  0
   -7.5769   42.3833   -9.1940 O   0  5  0  0  0  0  0  0  0  0  0  0
   -7.0378   43.4997  -11.7671 O   0  0  0  0  0  0  0  0  0  0  0  0
   -6.2133   37.8954   -4.1712 C   0  0  0  0  0  0  0  0  0  0  0  0
  -10.6060   38.1209   -2.1751 C   0  0  0  0  0  0  0  0  0  0  0  0
   -6.8869   44.5004   -7.8847 O   0  0  0  0  0  0  0  0  0  0  0  0
   -5.2774   41.6806  -11.4633 O   0  5  0  0  0  0  0  0  0  0  0  0
   -6.1214   39.2677   -3.9345 N   0  0  0  0  0  0  0  0  0  0  0  0
   -9.9116   38.5039   -1.0938 N   0  0  0  0  0  0  0  0  0  0  0  0
   -5.3554   43.6420   -9.8088 O   0  0  0  0  0  0  0  0  0  0  0  0
   -4.6042   44.0054  -12.2499 O   0  0  0  0  0  0  0  0  0  0  0  0
   -5.4147   40.0816   -4.8281 C   0  0  1  0  0  0  0  0  0  0  0  0
   -8.6978   39.0525   -1.2284 C   0  0  0  0  0  0  0  0  0  0  0  0
   -8.0182   39.4266   -0.1492 N   0  0  0  0  0  0  0  0  0  0  0  0
   -4.8083   39.5352   -5.9581 C   0  0  1  0  0  0  0  0  0  0  0  0
   -8.1464   39.2277   -2.4918 C   0  0  0  0  0  0  0  0  0  0  0  0
   -4.9120   38.1675   -6.1804 C   0  0  0  0  0  0  0  0  0  0  0  0
   -8.9006   38.8188   -3.5856 C   0  0  0  0  0  0  0  0  0  0  0  0
   -6.7641   39.8485   -2.7323 C   0  0  0  0  0  0  0  0  0  0  0  0
  1 13  1  0  0  0  0
  3  4  1  0  0  0  0
  4  5  1  0  0  0  0
  6  5  1  1  0  0  0
  6 10  1  0  0  0  0
  6 14  2  0  0  0  0
  6 18  1  0  0  0  0
  7 11  1  6  0  0  0
  7 15  1  0  0  0  0
  7 19  2  0  0  0  0
  7 18  1  0  0  0  0
  8 25  1  0  0  0  0
  8 12  1  0  0  0  0
  9 26  2  0  0  0  0
  9 13  1  0  0  0  0
 12 16  1  0  0  0  0
 13 17  2  0  0  0  0
 16 20  1  0  0  0  0
 16 27  1  0  0  0  0
 17 21  1  0  0  0  0
 20  2  1  6  0  0  0
 20 23  1  0  0  0  0
 21 22  1  0  0  0  0
 21 24  2  0  0  0  0
 23  3  1  6  0  0  0
 23 25  1  0  0  0  0
 24 27  1  0  0  0  0
 24 26  1  0  0  0  0
M  CHG  2  10  -1  15  -1
M  END
>  <CHROM.1>
87.59854747,169.96160037,57.05036765,117.15955665,50.36510296,-85.54641272
148.26902700,-41.41386139,-6.74342447,40.84741560,-6.42268844,1.90013031
-0.22883699,2.15467999

>  <Name>
ligand

>  <RI>
0

>  <Rbt.Current_Directory>
/home/itssahil/PROJECTS/Mol_Feturizer/New_Systems/rnas/3D2V

>  <Rbt.Executable>
rbdock ($Id: //depot/dev/client3/rdock/2013.1/src/exe/rbdock.cxx#4 $)

>  <Rbt.Library>
libRbt.so (2013.1, Build901 2013/11/27)

>  <Rbt.Parameter_File>
/export/apps/rDock/src/rDock_2013.1_src/data/scripts/dock_solv.prm

>  <Rbt.Receptor>
prm/pocket_docking_4.prm

>  <SCORE>
-19.6834

>  <SCORE.INTER>
-20.9089

>  <SCORE.INTER.CONST>
1

>  <SCORE.INTER.POLAR>
0

>  <SCORE.INTER.ROT>
8

>  <SCORE.INTER.SOLV>
19.8657

>  <SCORE.INTER.VDW>
-29.4945

>  <SCORE.INTER.norm>
-0.774403

>  <SCORE.INTRA>
1.22546

>  <SCORE.INTRA.DIHEDRAL>
2.76941

>  <SCORE.INTRA.DIHEDRAL.0>
7.82666

>  <SCORE.INTRA.POLAR>
0

>  <SCORE.INTRA.POLAR.0>
0

>  <SCORE.INTRA.REPUL>
0

>  <SCORE.INTRA.REPUL.0>
0

>  <SCORE.INTRA.SOLV>
-0.717621

>  <SCORE.INTRA.SOLV.lig_0>
-83.2758

>  <SCORE.INTRA.VDW>
0.199561

>  <SCORE.INTRA.VDW.0>
-3.26816

>  <SCORE.INTRA.norm>
0.0453873

>  <SCORE.RESTR>
0

>  <SCORE.RESTR.CAVITY>
0

>  <SCORE.RESTR.norm>
0

>  <SCORE.SYSTEM>
0

>  <SCORE.SYSTEM.CONST>
0

>  <SCORE.SYSTEM.DIHEDRAL>
0

>  <SCORE.SYSTEM.SOLV>
0

>  <SCORE.SYSTEM.norm>
0

>  <SCORE.heavy>
27

>  <SCORE.norm>
-0.729015

>  <RMSD>
2.462

$$$$
ligand
 OpenBabel11021811473D
libRbt.so/2013.1/901 2013/11/27
 27 28  0  0  0  0  0  0  0  0999 V2000
  -12.8710   37.3643   -1.8813 C   0  0  0  0  0  0  0  0  0  0  0  0
   -8.3345   39.9597   -6.3881 C   0  0  0  0  0  0  0  0  0  0  0  0
   -6.7630   38.0990   -8.1326 C   0  0  0  0  0  0  0  0  0  0  0  0
   -5.6375   38.8967   -8.7939 C   0  0  0  0  0  0  0  0  0  0  0  0
   -5.7355   40.2832   -8.4589 O   0  0  0  0  0  0  0  0  0  0  0  0
   -4.5528   41.2928   -8.8612 P   0  0  1  0  0  0  0  0  0  0  0  0
   -6.4186   43.2426   -9.6815 P   0  0  2  0  0  0  0  0  0  0  0  0
   -5.5177   37.1928   -4.6571 C   0  0  0  0  0  0  0  0  0  0  0  0
  -11.2734   38.1993   -3.5952 N   0  0  0  0  0  0  0  0  0  0  0  0
   -3.3308   41.1904   -7.8299 O   0  5  0  0  0  0  0  0  0  0  0  0
   -7.6460   42.5429   -9.2496 O   0  0  0  0  0  0  0  0  0  0  0  0
   -6.2362   38.0460   -3.8300 C   0  0  0  0  0  0  0  0  0  0  0  0
  -11.5556   38.0249   -2.2948 C   0  0  0  0  0  0  0  0  0  0  0  0
   -3.9468   41.0012  -10.3313 O   0  0  0  0  0  0  0  0  0  0  0  0
   -6.1035   42.9770  -11.2326 O   0  5  0  0  0  0  0  0  0  0  0  0
   -7.1509   38.9393   -4.3897 N   0  0  0  0  0  0  0  0  0  0  0  0
  -10.6923   38.4256   -1.3502 N   0  0  0  0  0  0  0  0  0  0  0  0
   -5.1033   42.8236   -8.8733 O   0  0  0  0  0  0  0  0  0  0  0  0
   -6.5868   44.8231   -9.5489 O   0  0  0  0  0  0  0  0  0  0  0  0
   -7.3298   38.9727   -5.7778 C   0  0  1  0  0  0  0  0  0  0  0  0
   -9.5354   39.0057   -1.6928 C   0  0  0  0  0  0  0  0  0  0  0  0
   -8.6869   39.3969   -0.7476 N   0  0  0  0  0  0  0  0  0  0  0  0
   -6.6084   38.1155   -6.6072 C   0  0  1  0  0  0  0  0  0  0  0  0
   -9.2188   39.1955   -3.0324 C   0  0  0  0  0  0  0  0  0  0  0  0
   -5.7039   37.2303   -6.0336 C   0  0  0  0  0  0  0  0  0  0  0  0
  -10.1424   38.7675   -3.9791 C   0  0  0  0  0  0  0  0  0  0  0  0
   -7.9164   39.8522   -3.5085 C   0  0  0  0  0  0  0  0  0  0  0  0
  1 13  1  0  0  0  0
  3  4  1  0  0  0  0
  4  5  1  0  0  0  0
  6  5  1  1  0  0  0
  6 10  1  0  0  0  0
  6 14  2  0  0  0  0
  6 18  1  0  0  0  0
  7 11  1  1  0  0  0
  7 15  1  0  0  0  0
  7 19  2  0  0  0  0
  7 18  1  0  0  0  0
  8 25  1  0  0  0  0
  8 12  1  0  0  0  0
  9 26  2  0  0  0  0
  9 13  1  0  0  0  0
 12 16  1  0  0  0  0
 13 17  2  0  0  0  0
 16 20  1  0  0  0  0
 16 27  1  0  0  0  0
 17 21  1  0  0  0  0
 20  2  1  1  0  0  0
 20 23  1  0  0  0  0
 21 22  1  0  0  0  0
 21 24  2  0  0  0  0
 23  3  1  1  0  0  0
 23 25  1  0  0  0  0
 24 27  1  0  0  0  0
 24 26  1  0  0  0  0
M  CHG  2  10  -1  15  -1
M  END
>  <CHROM.1>
-65.69204528,171.38509111,-79.75374692,-51.50356222,60.23586217,99.23343388
121.66514975,-88.60931602,-7.19448503,40.12226375,-6.41160795,2.18024924
-0.51253026,2.40045967

>  <Name>
ligand

>  <RI>
0

>  <Rbt.Current_Directory>
/home/itssahil/PROJECTS/Mol_Feturizer/New_Systems/rnas/3D2V

>  <Rbt.Executable>
rbdock ($Id: //depot/dev/client3/rdock/2013.1/src/exe/rbdock.cxx#4 $)

>  <Rbt.Library>
libRbt.so (2013.1, Build901 2013/11/27)

>  <Rbt.Parameter_File>
/export/apps/rDock/src/rDock_2013.1_src/data/scripts/dock_solv.prm

>  <Rbt.Receptor>
prm/pocket_docking_5.prm

>  <SCORE>
-23.7678

>  <SCORE.INTER>
-21.1498

>  <SCORE.INTER.CONST>
1

>  <SCORE.INTER.POLAR>
0

>  <SCORE.INTER.ROT>
8

>  <SCORE.INTER.SOLV>
24.0293

>  <SCORE.INTER.VDW>
-31.043

>  <SCORE.INTER.norm>
-0.783327

>  <SCORE.INTRA>
-2.62273

>  <SCORE.INTRA.DIHEDRAL>
-1.42214

>  <SCORE.INTRA.DIHEDRAL.0>
7.82666

>  <SCORE.INTRA.POLAR>
0

>  <SCORE.INTRA.POLAR.0>
0

>  <SCORE.INTRA.REPUL>
0

>  <SCORE.INTRA.REPUL.0>
0

>  <SCORE.INTRA.SOLV>
-2.06015

>  <SCORE.INTRA.SOLV.lig_0>
-83.2758

>  <SCORE.INTRA.VDW>
-0.881589

>  <SCORE.INTRA.VDW.0>
-3.26816

>  <SCORE.INTRA.norm>
-0.0971383

>  <SCORE.RESTR>
0.0047662

>  <SCORE.RESTR.CAVITY>
0.0047662

>  <SCORE.RESTR.norm>
0.000176526

>  <SCORE.SYSTEM>
0

>  <SCORE.SYSTEM.CONST>
0

>  <SCORE.SYSTEM.DIHEDRAL>
0

>  <SCORE.SYSTEM.SOLV>
0

>  <SCORE.SYSTEM.norm>
0

>  <SCORE.heavy>
27

>  <SCORE.norm>
-0.880289

>  <RMSD>
2.467

$$$$
ligand
 OpenBabel11021811473D
libRbt.so/2013.1/901 2013/11/27
 27 28  0  0  0  0  0  0  0  0999 V2000
  -13.5510   37.3417   -1.8521 C   0  0  0  0  0  0  0  0  0  0  0  0
   -5.6312   38.8552   -4.5565 C   0  0  0  0  0  0  0  0  0  0  0  0
   -5.5465   39.7212   -7.4233 C   0  0  0  0  0  0  0  0  0  0  0  0
   -4.6940   40.9615   -7.1486 C   0  0  0  0  0  0  0  0  0  0  0  0
   -3.7509   41.1708   -8.2026 O   0  0  0  0  0  0  0  0  0  0  0  0
   -3.3524   42.6642   -8.6396 P   0  0  1  0  0  0  0  0  0  0  0  0
   -5.8806   43.3863   -9.6609 P   0  0  2  0  0  0  0  0  0  0  0  0
   -9.1956   40.2820   -6.5174 C   0  0  0  0  0  0  0  0  0  0  0  0
  -11.6220   37.5881   -3.4030 N   0  0  0  0  0  0  0  0  0  0  0  0
   -3.5001   43.6835   -7.4123 O   0  5  0  0  0  0  0  0  0  0  0  0
   -6.5489   42.3312   -8.8717 O   0  0  0  0  0  0  0  0  0  0  0  0
   -9.2571   39.8862   -5.1879 C   0  0  0  0  0  0  0  0  0  0  0  0
  -12.1245   37.7877   -2.1748 C   0  0  0  0  0  0  0  0  0  0  0  0
   -1.8272   42.7830   -9.1625 O   0  0  0  0  0  0  0  0  0  0  0  0
   -6.5095   43.5094  -11.1323 O   0  5  0  0  0  0  0  0  0  0  0  0
   -8.1026   39.4278   -4.5516 N   0  0  0  0  0  0  0  0  0  0  0  0
  -11.3858   38.3768   -1.2234 N   0  0  0  0  0  0  0  0  0  0  0  0
   -4.3084   43.1653   -9.8568 O   0  0  0  0  0  0  0  0  0  0  0  0
   -6.0896   44.8184   -8.9906 O   0  0  0  0  0  0  0  0  0  0  0  0
   -6.8969   39.3636   -5.2604 C   0  0  1  0  0  0  0  0  0  0  0  0
  -10.1347   38.7739   -1.4869 C   0  0  0  0  0  0  0  0  0  0  0  0
   -9.4114   39.3550   -0.5352 N   0  0  0  0  0  0  0  0  0  0  0  0
   -6.8362   39.7617   -6.5949 C   0  0  2  0  0  0  0  0  0  0  0  0
   -9.5904   38.5765   -2.7501 C   0  0  0  0  0  0  0  0  0  0  0  0
   -7.9941   40.2183   -7.2125 C   0  0  0  0  0  0  0  0  0  0  0  0
  -10.3911   37.9641   -3.7074 C   0  0  0  0  0  0  0  0  0  0  0  0
   -8.1673   39.0026   -3.1336 C   0  0  0  0  0  0  0  0  0  0  0  0
  1 13  1  0  0  0  0
  3  4  1  0  0  0  0
  4  5  1  0  0  0  0
  6  5  1  1  0  0  0
  6 10  1  0  0  0  0
  6 14  2  0  0  0  0
  6 18  1  0  0  0  0
  7 11  1  1  0  0  0
  7 15  1  0  0  0  0
  7 19  2  0  0  0  0
  7 18  1  0  0  0  0
  8 25  1  0  0  0  0
  8 12  1  0  0  0  0
  9 26  2  0  0  0  0
  9 13  1  0  0  0  0
 12 16  1  0  0  0  0
 13 17  2  0  0  0  0
 16 20  1  0  0  0  0
 16 27  1  0  0  0  0
 17 21  1  0  0  0  0
 20  2  1  1  0  0  0
 20 23  1  0  0  0  0
 21 22  1  0  0  0  0
 21 24  2  0  0  0  0
 23  3  1  6  0  0  0
 23 25  1  0  0  0  0
 24 27  1  0  0  0  0
 24 26  1  0  0  0  0
M  CHG  2  10  -1  15  -1
M  END
>  <CHROM.1>
-160.39780803,145.34444025,28.08541332,65.49779265,-42.42275220,-82.12865546
-146.35063474,24.21435523,-7.09533127,40.74816987,-6.23270893,2.23250065
0.04591185,2.14414105

>  <Name>
ligand

>  <RI>
0

>  <Rbt.Current_Directory>
/home/itssahil/PROJECTS/Mol_Feturizer/New_Systems/rnas/3D2V

>  <Rbt.Executable>
rbdock ($Id: //depot/dev/client3/rdock/2013.1/src/exe/rbdock.cxx#4 $)

>  <Rbt.Library>
libRbt.so (2013.1, Build901 2013/11/27)

>  <Rbt.Parameter_File>
/export/apps/rDock/src/rDock_2013.1_src/data/scripts/dock_solv.prm

>  <Rbt.Receptor>
prm/pocket_docking_3.prm

>  <SCORE>
-17.4909

>  <SCORE.INTER>
-20.3368

>  <SCORE.INTER.CONST>
1

>  <SCORE.INTER.POLAR>
0

>  <SCORE.INTER.ROT>
8

>  <SCORE.INTER.SOLV>
19.6752

>  <SCORE.INTER.VDW>
-29.0496

>  <SCORE.INTER.norm>
-0.753216

>  <SCORE.INTRA>
2.79773

>  <SCORE.INTRA.DIHEDRAL>
5.0418

>  <SCORE.INTRA.DIHEDRAL.0>
7.82666

>  <SCORE.INTRA.POLAR>
0

>  <SCORE.INTRA.POLAR.0>
0

>  <SCORE.INTRA.REPUL>
0

>  <SCORE.INTRA.REPUL.0>
0

>  <SCORE.INTRA.SOLV>
-1.95993

>  <SCORE.INTRA.SOLV.lig_0>
-83.2758

>  <SCORE.INTRA.VDW>
1.25679

>  <SCORE.INTRA.VDW.0>
-3.26816

>  <SCORE.INTRA.norm>
0.103619

>  <SCORE.RESTR>
0.0482357

>  <SCORE.RESTR.CAVITY>
0.0482357

>  <SCORE.RESTR.norm>
0.00178651

>  <SCORE.SYSTEM>
0

>  <SCORE.SYSTEM.CONST>
0

>  <SCORE.SYSTEM.DIHEDRAL>
0

>  <SCORE.SYSTEM.SOLV>
0

>  <SCORE.SYSTEM.norm>
0

>  <SCORE.heavy>
27

>  <SCORE.norm>
-0.64781

>  <RMSD>
2.468

$$$$
ligand
 OpenBabel11021811473D
libRbt.so/2013.1/901 2013/11/27
 27 28  0  0  0  0  0  0  0  0999 V2000
  -12.1976   37.5335   -2.0152 C   0  0  0  0  0  0  0  0  0  0  0  0
   -5.6969   41.7417   -4.3919 C   0  0  0  0  0  0  0  0  0  0  0  0
   -4.1242   40.5536   -6.6481 C   0  0  0  0  0  0  0  0  0  0  0  0
   -4.8050   40.3998   -8.0095 C   0  0  0  0  0  0  0  0  0  0  0  0
   -4.0250   41.0150   -9.0377 O   0  0  0  0  0  0  0  0  0  0  0  0
   -4.6067   41.1247  -10.5308 P   0  0  1  0  0  0  0  0  0  0  0  0
   -5.4477   43.8168  -10.4894 P   0  0  2  0  0  0  0  0  0  0  0  0
   -5.3310   37.4646   -4.7900 C   0  0  0  0  0  0  0  0  0  0  0  0
  -10.0647   38.3934   -1.0672 N   0  0  0  0  0  0  0  0  0  0  0  0
   -3.4532   41.5139  -11.5725 O   0  5  0  0  0  0  0  0  0  0  0  0
   -6.6400   44.6813  -10.3724 O   0  0  0  0  0  0  0  0  0  0  0  0
   -6.0652   37.9942   -3.7370 C   0  0  0  0  0  0  0  0  0  0  0  0
  -10.8156   38.1722   -2.1573 C   0  0  0  0  0  0  0  0  0  0  0  0
   -5.2616   39.7432  -11.0561 O   0  0  0  0  0  0  0  0  0  0  0  0
   -4.5760   44.1871  -11.7851 O   0  5  0  0  0  0  0  0  0  0  0  0
   -6.1870   39.3786   -3.6099 N   0  0  0  0  0  0  0  0  0  0  0  0
  -10.3649   38.5068   -3.3750 N   0  0  0  0  0  0  0  0  0  0  0  0
   -5.7754   42.2546  -10.5947 O   0  0  0  0  0  0  0  0  0  0  0  0
   -4.4686   44.0248   -9.2477 O   0  0  0  0  0  0  0  0  0  0  0  0
   -5.5625   40.2198   -4.5387 C   0  0  1  0  0  0  0  0  0  0  0  0
   -9.1577   39.0673   -3.5193 C   0  0  0  0  0  0  0  0  0  0  0  0
   -8.7224   39.3964   -4.7312 N   0  0  0  0  0  0  0  0  0  0  0  0
   -4.8261   39.6871   -5.5956 C   0  0  1  0  0  0  0  0  0  0  0  0
   -8.3618   39.3088   -2.4061 C   0  0  0  0  0  0  0  0  0  0  0  0
   -4.7172   38.3065   -5.7093 C   0  0  0  0  0  0  0  0  0  0  0  0
   -8.8664   38.9448   -1.1630 C   0  0  0  0  0  0  0  0  0  0  0  0
   -6.9681   39.9452   -2.4853 C   0  0  0  0  0  0  0  0  0  0  0  0
  1 13  1  0  0  0  0
  3  4  1  0  0  0  0
  4  5  1  0  0  0  0
  6  5  1  1  0  0  0
  6 10  1  0  0  0  0
  6 14  2  0  0  0  0
  6 18  1  0  0  0  0
  7 11  1  1  0  0  0
  7 15  1  0  0  0  0
  7 19  2  0  0  0  0
  7 18  1  0  0  0  0
  8 25  1  0  0  0  0
  8 12  1  0  0  0  0
  9 26  2  0  0  0  0
  9 13  1  0  0  0  0
 12 16  1  0  0  0  0
 13 17  2  0  0  0  0
 16 20  1  0  0  0  0
 16 27  1  0  0  0  0
 17 21  1  0  0  0  0
 20  2  1  6  0  0  0
 20 23  1  0  0  0  0
 21 22  1  0  0  0  0
 21 24  2  0  0  0  0
 23  3  1  6  0  0  0
 23 25  1  0  0  0  0
 24 27  1  0  0  0  0
 24 26  1  0  0  0  0
M  CHG  2  10  -1  15  -1
M  END
>  <CHROM.1>
-169.94062877,-173.41667326,-166.26784910,71.68238562,-171.69992391,-111.43271311
-42.87861399,-51.48120772,-6.36429903,40.59181333,-6.70205415,2.05136660
-0.38761704,2.22504294

>  <Name>
ligand

>  <RI>
0

>  <Rbt.Current_Directory>
/home/itssahil/PROJECTS/Mol_Feturizer/New_Systems/rnas/3D2V

>  <Rbt.Executable>
rbdock ($Id: //depot/dev/client3/rdock/2013.1/src/exe/rbdock.cxx#4 $)

>  <Rbt.Library>
libRbt.so (2013.1, Build901 2013/11/27)

>  <Rbt.Parameter_File>
/export/apps/rDock/src/rDock_2013.1_src/data/scripts/dock_solv.prm

>  <Rbt.Receptor>
prm/pocket_docking_3.prm

>  <SCORE>
-22.9579

>  <SCORE.INTER>
-23.6774

>  <SCORE.INTER.CONST>
1

>  <SCORE.INTER.POLAR>
0

>  <SCORE.INTER.ROT>
8

>  <SCORE.INTER.SOLV>
14.2622

>  <SCORE.INTER.VDW>
-29.4723

>  <SCORE.INTER.norm>
-0.876939

>  <SCORE.INTRA>
0.678317

>  <SCORE.INTRA.DIHEDRAL>
-1.43023

>  <SCORE.INTRA.DIHEDRAL.0>
7.82666

>  <SCORE.INTRA.POLAR>
0

>  <SCORE.INTRA.POLAR.0>
0

>  <SCORE.INTRA.REPUL>
0

>  <SCORE.INTRA.REPUL.0>
0

>  <SCORE.INTRA.SOLV>
3.7876

>  <SCORE.INTRA.SOLV.lig_0>
-83.2758

>  <SCORE.INTRA.VDW>
-0.500368

>  <SCORE.INTRA.VDW.0>
-3.26816

>  <SCORE.INTRA.norm>
0.0251229

>  <SCORE.RESTR>
0.0411916

>  <SCORE.RESTR.CAVITY>
0.0411916

>  <SCORE.RESTR.norm>
0.00152561

>  <SCORE.SYSTEM>
0

>  <SCORE.SYSTEM.CONST>
0

>  <SCORE.SYSTEM.DIHEDRAL>
0

>  <SCORE.SYSTEM.SOLV>
0

>  <SCORE.SYSTEM.norm>
0

>  <SCORE.heavy>
27

>  <SCORE.norm>
-0.850291

>  <RMSD>
2.476

$$$$
ligand
 OpenBabel11021811473D
libRbt.so/2013.1/901 2013/11/27
 27 28  0  0  0  0  0  0  0  0999 V2000
  -11.9356   37.5756   -2.0545 C   0  0  0  0  0  0  0  0  0  0  0  0
   -5.2259   41.5686   -4.6068 C   0  0  0  0  0  0  0  0  0  0  0  0
   -3.9911   40.3794   -7.0637 C   0  0  0  0  0  0  0  0  0  0  0  0
   -4.9499   40.9843   -8.0911 C   0  0  0  0  0  0  0  0  0  0  0  0
   -5.5246   42.1959   -7.5949 O   0  0  0  0  0  0  0  0  0  0  0  0
   -6.3404   43.1626   -8.5847 P   0  0  1  0  0  0  0  0  0  0  0  0
   -5.6822   43.2273  -11.3268 P   0  0  2  0  0  0  0  0  0  0  0  0
   -5.5666   37.3451   -5.4019 C   0  0  0  0  0  0  0  0  0  0  0  0
  -10.0299   38.3378   -3.4596 N   0  0  0  0  0  0  0  0  0  0  0  0
   -7.6242   42.4189   -9.1895 O   0  5  0  0  0  0  0  0  0  0  0  0
   -7.0548   43.5295  -11.7822 O   0  0  0  0  0  0  0  0  0  0  0  0
   -6.1471   37.8757   -4.2574 C   0  0  0  0  0  0  0  0  0  0  0  0
  -10.5373   38.1689   -2.2287 C   0  0  0  0  0  0  0  0  0  0  0  0
   -6.8783   44.5023   -7.8571 O   0  0  0  0  0  0  0  0  0  0  0  0
   -5.3547   41.6603  -11.4411 O   0  5  0  0  0  0  0  0  0  0  0  0
   -6.0402   39.2434   -4.0016 N   0  0  0  0  0  0  0  0  0  0  0  0
   -9.8278   38.5165   -1.1453 N   0  0  0  0  0  0  0  0  0  0  0  0
   -5.3854   43.6432   -9.8109 O   0  0  0  0  0  0  0  0  0  0  0  0
   -4.6026   43.9532  -12.2495 O   0  0  0  0  0  0  0  0  0  0  0  0
   -5.3433   40.0656   -4.8951 C   0  0  1  0  0  0  0  0  0  0  0  0
   -8.6015   39.0372   -1.2777 C   0  0  0  0  0  0  0  0  0  0  0  0
   -7.9071   39.3761   -0.1964 N   0  0  0  0  0  0  0  0  0  0  0  0
   -4.7613   39.5321   -6.0440 C   0  0  1  0  0  0  0  0  0  0  0  0
   -8.0528   39.2200   -2.5412 C   0  0  0  0  0  0  0  0  0  0  0  0
   -4.8796   38.1688   -6.2852 C   0  0  0  0  0  0  0  0  0  0  0  0
   -8.8228   38.8483   -3.6373 C   0  0  0  0  0  0  0  0  0  0  0  0
   -6.6569   39.8105   -2.7793 C   0  0  0  0  0  0  0  0  0  0  0  0
  1 13  1  0  0  0  0
  3  4  1  0  0  0  0
  4  5  1  0  0  0  0
  6  5  1  1  0  0  0
  6 10  1  0  0  0  0
  6 14  2  0  0  0  0
  6 18  1  0  0  0  0
  7 11  1  6  0  0  0
  7 15  1  0  0  0  0
  7 19  2  0  0  0  0
  7 18  1  0  0  0  0
  8 25  1  0  0  0  0
  8 12  1  0  0  0  0
  9 26  2  0  0  0  0
  9 13  1  0  0  0  0
 12 16  1  0  0  0  0
 13 17  2  0  0  0  0
 16 20  1  0  0  0  0
 16 27  1  0  0  0  0
 17 21  1  0  0  0  0
 20  2  1  6  0  0  0
 20 23  1  0  0  0  0
 21 22  1  0  0  0  0
 21 24  2  0  0  0  0
 23  3  1  6  0  0  0
 23 25  1  0  0  0  0
 24 27  1  0  0  0  0
 24 26  1  0  0  0  0
M  CHG  2  10  -1  15  -1
M  END
>  <CHROM.1>
84.20747142,168.31981531,61.73669505,115.24047441,52.59316428,-86.28339529
148.77908835,-42.70412904,-6.71517657,40.84732570,-6.45933157,1.89239307
-0.24303381,2.15779676

>  <Name>
ligand

>  <RI>
0

>  <Rbt.Current_Directory>
/home/itssahil/PROJECTS/Mol_Feturizer/New_Systems/rnas/3D2V

>  <Rbt.Executable>
rbdock ($Id: //depot/dev/client3/rdock/2013.1/src/exe/rbdock.cxx#4 $)

>  <Rbt.Library>
libRbt.so (2013.1, Build901 2013/11/27)

>  <Rbt.Parameter_File>
/export/apps/rDock/src/rDock_2013.1_src/data/scripts/dock_solv.prm

>  <Rbt.Receptor>
prm/pocket_docking_4.prm

>  <SCORE>
-19.5657

>  <SCORE.INTER>
-20.5578

>  <SCORE.INTER.CONST>
1

>  <SCORE.INTER.POLAR>
0

>  <SCORE.INTER.ROT>
8

>  <SCORE.INTER.SOLV>
19.7979

>  <SCORE.INTER.VDW>
-29.2378

>  <SCORE.INTER.norm>
-0.761398

>  <SCORE.INTRA>
0.992047

>  <SCORE.INTRA.DIHEDRAL>
2.36435

>  <SCORE.INTRA.DIHEDRAL.0>
7.82666

>  <SCORE.INTRA.POLAR>
0

>  <SCORE.INTRA.POLAR.0>
0

>  <SCORE.INTRA.REPUL>
0

>  <SCORE.INTRA.REPUL.0>
0

>  <SCORE.INTRA.SOLV>
-0.647742

>  <SCORE.INTRA.SOLV.lig_0>
-83.2758

>  <SCORE.INTRA.VDW>
0.133743

>  <SCORE.INTRA.VDW.0>
-3.26816

>  <SCORE.INTRA.norm>
0.0367425

>  <SCORE.RESTR>
0

>  <SCORE.RESTR.CAVITY>
0

>  <SCORE.RESTR.norm>
0

>  <SCORE.SYSTEM>
0

>  <SCORE.SYSTEM.CONST>
0

>  <SCORE.SYSTEM.DIHEDRAL>
0

>  <SCORE.SYSTEM.SOLV>
0

>  <SCORE.SYSTEM.norm>
0

>  <SCORE.heavy>
27

>  <SCORE.norm>
-0.724656

>  <RMSD>
2.486

$$$$
ligand
 OpenBabel11021811473D
libRbt.so/2013.1/901 2013/11/27
 27 28  0  0  0  0  0  0  0  0999 V2000
  -12.5543   37.3471   -2.3862 C   0  0  0  0  0  0  0  0  0  0  0  0
   -5.8276   42.0586   -2.3518 C   0  0  0  0  0  0  0  0  0  0  0  0
   -4.0080   41.7323   -4.7093 C   0  0  0  0  0  0  0  0  0  0  0  0
   -4.1725   41.8618   -6.2248 C   0  0  0  0  0  0  0  0  0  0  0  0
   -3.4613   43.0009   -6.7155 O   0  0  0  0  0  0  0  0  0  0  0  0
   -3.5710   43.4106   -8.2647 P   0  0  1  0  0  0  0  0  0  0  0  0
   -2.4362   42.6734  -10.7396 P   0  0  2  0  0  0  0  0  0  0  0  0
   -5.5325   38.2656   -4.3797 C   0  0  0  0  0  0  0  0  0  0  0  0
  -10.6376   37.9874   -0.9359 N   0  0  0  0  0  0  0  0  0  0  0  0
   -5.0409   43.1248   -8.8346 O   0  5  0  0  0  0  0  0  0  0  0  0
   -1.1887   42.1564  -11.3388 O   0  0  0  0  0  0  0  0  0  0  0  0
   -6.3827   38.3951   -3.2894 C   0  0  0  0  0  0  0  0  0  0  0  0
  -11.1856   37.9903   -2.1609 C   0  0  0  0  0  0  0  0  0  0  0  0
   -3.2666   44.9767   -8.5264 O   0  0  0  0  0  0  0  0  0  0  0  0
   -2.6671   44.2199  -11.1014 O   0  5  0  0  0  0  0  0  0  0  0  0
   -6.4813   39.6238   -2.6350 N   0  0  0  0  0  0  0  0  0  0  0  0
  -10.5427   38.5536   -3.1940 N   0  0  0  0  0  0  0  0  0  0  0  0
   -2.4932   42.5675   -9.1445 O   0  0  0  0  0  0  0  0  0  0  0  0
   -3.7085   41.9084  -11.3226 O   0  0  0  0  0  0  0  0  0  0  0  0
   -5.7177   40.7106   -3.0776 C   0  0  1  0  0  0  0  0  0  0  0  0
   -9.3436   39.1220   -3.0163 C   0  0  0  0  0  0  0  0  0  0  0  0
   -8.7169   39.6789   -4.0476 N   0  0  0  0  0  0  0  0  0  0  0  0
   -4.8650   40.5798   -4.1725 C   0  0  2  0  0  0  0  0  0  0  0  0
   -8.7559   39.1342   -1.7573 C   0  0  0  0  0  0  0  0  0  0  0  0
   -4.7808   39.3504   -4.8145 C   0  0  0  0  0  0  0  0  0  0  0  0
   -9.4553   38.5374   -0.7146 C   0  0  0  0  0  0  0  0  0  0  0  0
   -7.3861   39.7627   -1.4697 C   0  0  0  0  0  0  0  0  0  0  0  0
  1 13  1  0  0  0  0
  3  4  1  0  0  0  0
  4  5  1  0  0  0  0
  6  5  1  1  0  0  0
  6 10  1  0  0  0  0
  6 14  2  0  0  0  0
  6 18  1  0  0  0  0
  7 11  1  6  0  0  0
  7 15  1  0  0  0  0
  7 19  2  0  0  0  0
  7 18  1  0  0  0  0
  8 25  1  0  0  0  0
  8 12  1  0  0  0  0
  9 26  2  0  0  0  0
  9 13  1  0  0  0  0
 12 16  1  0  0  0  0
 13 17  2  0  0  0  0
 16 20  1  0  0  0  0
 16 27  1  0  0  0  0
 17 21  1  0  0  0  0
 20  2  1  6  0  0  0
 20 23  1  0  0  0  0
 21 22  1  0  0  0  0
 21 24  2  0  0  0  0
 23  3  1  1  0  0  0
 23 25  1  0  0  0  0
 24 27  1  0  0  0  0
 24 26  1  0  0  0  0
M  CHG  2  10  -1  15  -1
M  END
>  <CHROM.1>
175.31808068,-175.48044805,35.61858397,175.26978532,163.72104640,-130.83575045
-33.00151738,-46.03320604,-5.68594476,41.03502565,-5.81618347,2.32592290
0.51920258,1.65365539

>  <Name>
ligand

>  <RI>
0

>  <Rbt.Current_Directory>
/home/itssahil/PROJECTS/Mol_Feturizer/New_Systems/rnas/3D2V

>  <Rbt.Executable>
rbdock ($Id: //depot/dev/client3/rdock/2013.1/src/exe/rbdock.cxx#4 $)

>  <Rbt.Library>
libRbt.so (2013.1, Build901 2013/11/27)

>  <Rbt.Parameter_File>
/export/apps/rDock/src/rDock_2013.1_src/data/scripts/dock_solv.prm

>  <Rbt.Receptor>
prm/pocket_docking_4.prm

>  <SCORE>
-20.9457

>  <SCORE.INTER>
-23.7867

>  <SCORE.INTER.CONST>
1

>  <SCORE.INTER.POLAR>
0

>  <SCORE.INTER.ROT>
8

>  <SCORE.INTER.SOLV>
13.6559

>  <SCORE.INTER.VDW>
-29.3431

>  <SCORE.INTER.norm>
-0.880989

>  <SCORE.INTRA>
2.84104

>  <SCORE.INTRA.DIHEDRAL>
-1.16036

>  <SCORE.INTRA.DIHEDRAL.0>
7.82666

>  <SCORE.INTRA.POLAR>
0

>  <SCORE.INTRA.POLAR.0>
0

>  <SCORE.INTRA.REPUL>
0

>  <SCORE.INTRA.REPUL.0>
0

>  <SCORE.INTRA.SOLV>
5.05661

>  <SCORE.INTRA.SOLV.lig_0>
-83.2758

>  <SCORE.INTRA.VDW>
0.89292

>  <SCORE.INTRA.VDW.0>
-3.26816

>  <SCORE.INTRA.norm>
0.105224

>  <SCORE.RESTR>
0

>  <SCORE.RESTR.CAVITY>
0

>  <SCORE.RESTR.norm>
0

>  <SCORE.SYSTEM>
0

>  <SCORE.SYSTEM.CONST>
0

>  <SCORE.SYSTEM.DIHEDRAL>
0

>  <SCORE.SYSTEM.SOLV>
0

>  <SCORE.SYSTEM.norm>
0

>  <SCORE.heavy>
27

>  <SCORE.norm>
-0.775765

>  <RMSD>
2.511

$$$$
ligand
 OpenBabel11021811473D
libRbt.so/2013.1/901 2013/11/27
 27 28  0  0  0  0  0  0  0  0999 V2000
  -12.8866   37.3678   -1.8333 C   0  0  0  0  0  0  0  0  0  0  0  0
   -8.4728   40.0288   -6.3800 C   0  0  0  0  0  0  0  0  0  0  0  0
   -6.9412   38.2008   -8.1933 C   0  0  0  0  0  0  0  0  0  0  0  0
   -5.7837   38.9228   -8.8858 C   0  0  0  0  0  0  0  0  0  0  0  0
   -5.8608   40.3329   -8.6623 O   0  0  0  0  0  0  0  0  0  0  0  0
   -4.6194   41.2766   -9.0476 P   0  0  1  0  0  0  0  0  0  0  0  0
   -6.5865   43.2727   -8.7272 P   0  0  2  0  0  0  0  0  0  0  0  0
   -5.5860   37.2624   -4.7678 C   0  0  0  0  0  0  0  0  0  0  0  0
  -11.2946   38.1755   -3.5654 N   0  0  0  0  0  0  0  0  0  0  0  0
   -3.4202   41.1098   -7.9983 O   0  5  0  0  0  0  0  0  0  0  0  0
   -7.1698   42.5825   -7.5584 O   0  0  0  0  0  0  0  0  0  0  0  0
   -6.2854   38.1003   -3.9093 C   0  0  0  0  0  0  0  0  0  0  0  0
  -11.5808   38.0380   -2.2615 C   0  0  0  0  0  0  0  0  0  0  0  0
   -4.0084   40.9508  -10.5085 O   0  0  0  0  0  0  0  0  0  0  0  0
   -7.4494   43.0144  -10.0555 O   0  5  0  0  0  0  0  0  0  0  0  0
   -7.2227   38.9933   -4.4304 N   0  0  0  0  0  0  0  0  0  0  0  0
  -10.7299   38.4843   -1.3261 N   0  0  0  0  0  0  0  0  0  0  0  0
   -5.0863   42.8349   -9.0687 O   0  0  0  0  0  0  0  0  0  0  0  0
   -6.5950   44.8539   -8.5183 O   0  0  0  0  0  0  0  0  0  0  0  0
   -7.4433   39.0421   -5.8122 C   0  0  1  0  0  0  0  0  0  0  0  0
   -9.5816   39.0736   -1.6816 C   0  0  0  0  0  0  0  0  0  0  0  0
   -8.7453   39.5102   -0.7454 N   0  0  0  0  0  0  0  0  0  0  0  0
   -6.7411   38.2002   -6.6731 C   0  0  2  0  0  0  0  0  0  0  0  0
   -9.2610   39.2258   -3.0251 C   0  0  0  0  0  0  0  0  0  0  0  0
   -5.8136   37.3149   -6.1376 C   0  0  0  0  0  0  0  0  0  0  0  0
  -10.1718   38.7511   -3.9619 C   0  0  0  0  0  0  0  0  0  0  0  0
   -7.9679   39.8899   -3.5157 C   0  0  0  0  0  0  0  0  0  0  0  0
  1 13  1  0  0  0  0
  3  4  1  0  0  0  0
  4  5  1  0  0  0  0
  6  5  1  1  0  0  0
  6 10  1  0  0  0  0
  6 14  2  0  0  0  0
  6 18  1  0  0  0  0
  7 11  1  1  0  0  0
  7 15  1  0  0  0  0
  7 19  2  0  0  0  0
  7 18  1  0  0  0  0
  8 25  1  0  0  0  0
  8 12  1  0  0  0  0
  9 26  2  0  0  0  0
  9 13  1  0  0  0  0
 12 16  1  0  0  0  0
 13 17  2  0  0  0  0
 16 20  1  0  0  0  0
 16 27  1  0  0  0  0
 17 21  1  0  0  0  0
 20  2  1  1  0  0  0
 20 23  1  0  0  0  0
 21 22  1  0  0  0  0
 21 24  2  0  0  0  0
 23  3  1  6  0  0  0
 23 25  1  0  0  0  0
 24 27  1  0  0  0  0
 24 26  1  0  0  0  0
M  CHG  2  10  -1  15  -1
M  END
>  <CHROM.1>
-71.94666047,168.47317293,-74.13031288,0.52729739,43.43878708,103.58949360
125.16563954,-89.43365917,-7.29954138,40.15340058,-6.24300013,2.30383564
-0.65747207,2.57204616

>  <Name>
ligand

>  <RI>
0

>  <Rbt.Current_Directory>
/home/itssahil/PROJECTS/Mol_Feturizer/New_Systems/rnas/3D2V

>  <Rbt.Executable>
rbdock ($Id: //depot/dev/client3/rdock/2013.1/src/exe/rbdock.cxx#4 $)

>  <Rbt.Library>
libRbt.so (2013.1, Build901 2013/11/27)

>  <Rbt.Parameter_File>
/export/apps/rDock/src/rDock_2013.1_src/data/scripts/dock_solv.prm

>  <Rbt.Receptor>
prm/pocket_docking_4.prm

>  <SCORE>
-22.1924

>  <SCORE.INTER>
-20.9201

>  <SCORE.INTER.CONST>
1

>  <SCORE.INTER.POLAR>
0

>  <SCORE.INTER.ROT>
8

>  <SCORE.INTER.SOLV>
26.0213

>  <SCORE.INTER.VDW>
-31.5538

>  <SCORE.INTER.norm>
-0.77482

>  <SCORE.INTRA>
-1.2723

>  <SCORE.INTRA.DIHEDRAL>
1.65185

>  <SCORE.INTRA.DIHEDRAL.0>
7.82666

>  <SCORE.INTRA.POLAR>
0

>  <SCORE.INTRA.POLAR.0>
0

>  <SCORE.INTRA.REPUL>
0

>  <SCORE.INTRA.REPUL.0>
0

>  <SCORE.INTRA.SOLV>
-2.63777

>  <SCORE.INTRA.SOLV.lig_0>
-83.2758

>  <SCORE.INTRA.VDW>
-0.779336

>  <SCORE.INTRA.VDW.0>
-3.26816

>  <SCORE.INTRA.norm>
-0.0471221

>  <SCORE.RESTR>
0

>  <SCORE.RESTR.CAVITY>
0

>  <SCORE.RESTR.norm>
0

>  <SCORE.SYSTEM>
0

>  <SCORE.SYSTEM.CONST>
0

>  <SCORE.SYSTEM.DIHEDRAL>
0

>  <SCORE.SYSTEM.SOLV>
0

>  <SCORE.SYSTEM.norm>
0

>  <SCORE.heavy>
27

>  <SCORE.norm>
-0.821942

>  <RMSD>
2.515

$$$$
ligand
 OpenBabel11021811473D
libRbt.so/2013.1/901 2013/11/27
 27 28  0  0  0  0  0  0  0  0999 V2000
  -12.8012   37.5821   -1.9719 C   0  0  0  0  0  0  0  0  0  0  0  0
   -5.1069   39.0177   -4.6622 C   0  0  0  0  0  0  0  0  0  0  0  0
   -4.8905   41.0152   -6.8845 C   0  0  0  0  0  0  0  0  0  0  0  0
   -5.3048   40.1970   -8.1091 C   0  0  0  0  0  0  0  0  0  0  0  0
   -4.3091   40.2777   -9.1320 O   0  0  0  0  0  0  0  0  0  0  0  0
   -4.2305   41.5746  -10.0764 P   0  0  1  0  0  0  0  0  0  0  0  0
   -4.2567   44.3803   -9.7872 P   0  0  2  0  0  0  0  0  0  0  0  0
   -8.0338   42.1559   -5.0763 C   0  0  0  0  0  0  0  0  0  0  0  0
  -10.6022   38.4283   -1.1744 N   0  0  0  0  0  0  0  0  0  0  0  0
   -2.9938   41.4762  -11.0902 O   0  5  0  0  0  0  0  0  0  0  0  0
   -3.4883   44.6258  -11.0249 O   0  0  0  0  0  0  0  0  0  0  0  0
   -8.1527   41.2409   -4.0386 C   0  0  0  0  0  0  0  0  0  0  0  0
  -11.3551   38.0193   -2.2074 C   0  0  0  0  0  0  0  0  0  0  0  0
   -5.5565   41.7799  -10.9782 O   0  0  0  0  0  0  0  0  0  0  0  0
   -3.8565   45.4170   -8.6293 O   0  5  0  0  0  0  0  0  0  0  0  0
   -7.2033   40.2271   -3.9020 N   0  0  0  0  0  0  0  0  0  0  0  0
  -10.8503   37.9899   -3.4493 N   0  0  0  0  0  0  0  0  0  0  0  0
   -4.0631   42.9164   -9.1720 O   0  0  0  0  0  0  0  0  0  0  0  0
   -5.8172   44.6015  -10.0317 O   0  0  0  0  0  0  0  0  0  0  0  0
   -6.1461   40.1369   -4.8153 C   0  0  1  0  0  0  0  0  0  0  0  0
   -9.5864   38.3692   -3.6753 C   0  0  0  0  0  0  0  0  0  0  0  0
   -9.0977   38.3375   -4.9108 N   0  0  0  0  0  0  0  0  0  0  0  0
   -6.0273   41.0562   -5.8564 C   0  0  1  0  0  0  0  0  0  0  0  0
   -8.7871   38.7989   -2.6230 C   0  0  0  0  0  0  0  0  0  0  0  0
   -6.9794   42.0611   -5.9764 C   0  0  0  0  0  0  0  0  0  0  0  0
   -9.3490   38.8119   -1.3515 C   0  0  0  0  0  0  0  0  0  0  0  0
   -7.3305   39.2484   -2.7966 C   0  0  0  0  0  0  0  0  0  0  0  0
  1 13  1  0  0  0  0
  3  4  1  0  0  0  0
  4  5  1  0  0  0  0
  6  5  1  1  0  0  0
  6 10  1  0  0  0  0
  6 14  2  0  0  0  0
  6 18  1  0  0  0  0
  7 11  1  6  0  0  0
  7 15  1  0  0  0  0
  7 19  2  0  0  0  0
  7 18  1  0  0  0  0
  8 25  1  0  0  0  0
  8 12  1  0  0  0  0
  9 26  2  0  0  0  0
  9 13  1  0  0  0  0
 12 16  1  0  0  0  0
 13 17  2  0  0  0  0
 16 20  1  0  0  0  0
 16 27  1  0  0  0  0
 17 21  1  0  0  0  0
 20  2  1  1  0  0  0
 20 23  1  0  0  0  0
 21 22  1  0  0  0  0
 21 24  2  0  0  0  0
 23  3  1  1  0  0  0
 23 25  1  0  0  0  0
 24 27  1  0  0  0  0
 24 26  1  0  0  0  0
M  CHG  2  10  -1  15  -1
M  END
>  <CHROM.1>
173.59167652,-79.21748671,176.93163346,-167.18236384,-50.46628105,92.23799046
49.15152144,42.33790978,-6.53774585,41.01123176,-6.58542700,2.61411087,-0.87633761
3.04936535

>  <Name>
ligand

>  <RI>
0

>  <Rbt.Current_Directory>
/home/itssahil/PROJECTS/Mol_Feturizer/New_Systems/rnas/3D2V

>  <Rbt.Executable>
rbdock ($Id: //depot/dev/client3/rdock/2013.1/src/exe/rbdock.cxx#4 $)

>  <Rbt.Library>
libRbt.so (2013.1, Build901 2013/11/27)

>  <Rbt.Parameter_File>
/export/apps/rDock/src/rDock_2013.1_src/data/scripts/dock_solv.prm

>  <Rbt.Receptor>
prm/pocket_docking_4.prm

>  <SCORE>
-19.4865

>  <SCORE.INTER>
-19.9324

>  <SCORE.INTER.CONST>
1

>  <SCORE.INTER.POLAR>
0

>  <SCORE.INTER.ROT>
8

>  <SCORE.INTER.SOLV>
13.2306

>  <SCORE.INTER.VDW>
-26.6318

>  <SCORE.INTER.norm>
-0.738237

>  <SCORE.INTRA>
0.445912

>  <SCORE.INTRA.DIHEDRAL>
-0.373986

>  <SCORE.INTRA.DIHEDRAL.0>
7.82666

>  <SCORE.INTRA.POLAR>
0

>  <SCORE.INTRA.POLAR.0>
0

>  <SCORE.INTRA.REPUL>
0

>  <SCORE.INTRA.REPUL.0>
0

>  <SCORE.INTRA.SOLV>
2.20838

>  <SCORE.INTRA.SOLV.lig_0>
-83.2758

>  <SCORE.INTRA.VDW>
-0.471287

>  <SCORE.INTRA.VDW.0>
-3.26816

>  <SCORE.INTRA.norm>
0.0165152

>  <SCORE.RESTR>
0

>  <SCORE.RESTR.CAVITY>
0

>  <SCORE.RESTR.norm>
0

>  <SCORE.SYSTEM>
0

>  <SCORE.SYSTEM.CONST>
0

>  <SCORE.SYSTEM.DIHEDRAL>
0

>  <SCORE.SYSTEM.SOLV>
0

>  <SCORE.SYSTEM.norm>
0

>  <SCORE.heavy>
27

>  <SCORE.norm>
-0.721722

>  <RMSD>
2.519

$$$$
ligand
 OpenBabel11021811473D
libRbt.so/2013.1/901 2013/11/27
 27 28  0  0  0  0  0  0  0  0999 V2000
  -13.1203   37.4973   -1.8789 C   0  0  0  0  0  0  0  0  0  0  0  0
   -5.1882   40.2345   -4.0070 C   0  0  0  0  0  0  0  0  0  0  0  0
   -5.1681   41.7616   -6.5843 C   0  0  0  0  0  0  0  0  0  0  0  0
   -4.1888   40.7001   -7.0890 C   0  0  0  0  0  0  0  0  0  0  0  0
   -4.7111   40.0379   -8.2435 O   0  0  0  0  0  0  0  0  0  0  0  0
   -4.8478   40.8326   -9.6327 P   0  0  1  0  0  0  0  0  0  0  0  0
   -6.2595   43.0607  -10.6320 P   0  0  2  0  0  0  0  0  0  0  0  0
   -8.7964   40.6566   -6.3285 C   0  0  0  0  0  0  0  0  0  0  0  0
  -11.1542   37.6540   -3.3946 N   0  0  0  0  0  0  0  0  0  0  0  0
   -3.4992   41.6252   -9.9793 O   0  5  0  0  0  0  0  0  0  0  0  0
   -7.6104   43.6583  -10.6581 O   0  0  0  0  0  0  0  0  0  0  0  0
   -8.8282   39.9451   -5.1364 C   0  0  0  0  0  0  0  0  0  0  0  0
  -11.6826   37.9155   -2.1890 C   0  0  0  0  0  0  0  0  0  0  0  0
   -5.1524   39.8609  -10.8884 O   0  0  0  0  0  0  0  0  0  0  0  0
   -5.8674   42.4277  -12.0536 O   0  5  0  0  0  0  0  0  0  0  0  0
   -7.6612   39.8114   -4.3827 N   0  0  0  0  0  0  0  0  0  0  0  0
  -10.9601   38.5424   -1.2494 N   0  0  0  0  0  0  0  0  0  0  0  0
   -6.0761   41.8961   -9.5508 O   0  0  0  0  0  0  0  0  0  0  0  0
   -5.1508   44.1702  -10.3429 O   0  0  0  0  0  0  0  0  0  0  0  0
   -6.4694   40.3878   -4.8383 C   0  0  1  0  0  0  0  0  0  0  0  0
   -9.6995   38.9160   -1.5022 C   0  0  0  0  0  0  0  0  0  0  0  0
   -8.9926   39.5351   -0.5623 N   0  0  0  0  0  0  0  0  0  0  0  0
   -6.4387   41.1023   -6.0348 C   0  0  2  0  0  0  0  0  0  0  0  0
   -9.1286   38.6547   -2.7418 C   0  0  0  0  0  0  0  0  0  0  0  0
   -7.6100   41.2284   -6.7716 C   0  0  0  0  0  0  0  0  0  0  0  0
   -9.9131   38.0048   -3.6876 C   0  0  0  0  0  0  0  0  0  0  0  0
   -7.6931   39.0502   -3.1117 C   0  0  0  0  0  0  0  0  0  0  0  0
  1 13  1  0  0  0  0
  3  4  1  0  0  0  0
  4  5  1  0  0  0  0
  6  5  1  1  0  0  0
  6 10  1  0  0  0  0
  6 14  2  0  0  0  0
  6 18  1  0  0  0  0
  7 11  1  1  0  0  0
  7 15  1  0  0  0  0
  7 19  2  0  0  0  0
  7 18  1  0  0  0  0
  8 25  1  0  0  0  0
  8 12  1  0  0  0  0
  9 26  2  0  0  0  0
  9 13  1  0  0  0  0
 12 16  1  0  0  0  0
 13 17  2  0  0  0  0
 16 20  1  0  0  0  0
 16 27  1  0  0  0  0
 17 21  1  0  0  0  0
 20  2  1  1  0  0  0
 20 23  1  0  0  0  0
 21 22  1  0  0  0  0
 21 24  2  0  0  0  0
 23  3  1  6  0  0  0
 23 25  1  0  0  0  0
 24 27  1  0  0  0  0
 24 26  1  0  0  0  0
M  CHG  2  10  -1  15  -1
M  END
>  <CHROM.1>
67.41506846,69.05688703,47.83547972,165.76505579,162.15247795,71.44064601
-127.99464497,-7.00110717,-7.20147368,40.55039489,-6.59293673,2.08281469
0.05716868,1.96473852

>  <Name>
ligand

>  <RI>
0

>  <Rbt.Current_Directory>
/home/itssahil/PROJECTS/Mol_Feturizer/New_Systems/rnas/3D2V

>  <Rbt.Executable>
rbdock ($Id: //depot/dev/client3/rdock/2013.1/src/exe/rbdock.cxx#4 $)

>  <Rbt.Library>
libRbt.so (2013.1, Build901 2013/11/27)

>  <Rbt.Parameter_File>
/export/apps/rDock/src/rDock_2013.1_src/data/scripts/dock_solv.prm

>  <Rbt.Receptor>
prm/pocket_docking_5.prm

>  <SCORE>
-20.8436

>  <SCORE.INTER>
-22.8967

>  <SCORE.INTER.CONST>
1

>  <SCORE.INTER.POLAR>
0

>  <SCORE.INTER.ROT>
8

>  <SCORE.INTER.SOLV>
22.7005

>  <SCORE.INTER.VDW>
-31.7646

>  <SCORE.INTER.norm>
-0.848027

>  <SCORE.INTRA>
2.05317

>  <SCORE.INTRA.DIHEDRAL>
-1.01755

>  <SCORE.INTRA.DIHEDRAL.0>
7.82666

>  <SCORE.INTRA.POLAR>
0

>  <SCORE.INTRA.POLAR.0>
0

>  <SCORE.INTRA.REPUL>
0

>  <SCORE.INTRA.REPUL.0>
0

>  <SCORE.INTRA.SOLV>
2.24563

>  <SCORE.INTRA.SOLV.lig_0>
-83.2758

>  <SCORE.INTRA.VDW>
1.43913

>  <SCORE.INTRA.VDW.0>
-3.26816

>  <SCORE.INTRA.norm>
0.0760432

>  <SCORE.RESTR>
0

>  <SCORE.RESTR.CAVITY>
0

>  <SCORE.RESTR.norm>
0

>  <SCORE.SYSTEM>
0

>  <SCORE.SYSTEM.CONST>
0

>  <SCORE.SYSTEM.DIHEDRAL>
0

>  <SCORE.SYSTEM.SOLV>
0

>  <SCORE.SYSTEM.norm>
0

>  <SCORE.heavy>
27

>  <SCORE.norm>
-0.771984

>  <RMSD>
2.523

$$$$
ligand
 OpenBabel11021811473D
libRbt.so/2013.1/901 2013/11/27
 27 28  0  0  0  0  0  0  0  0999 V2000
  -12.4474   37.4926   -1.9315 C   0  0  0  0  0  0  0  0  0  0  0  0
   -6.8356   41.4047   -4.7715 C   0  0  0  0  0  0  0  0  0  0  0  0
   -5.4826   40.4100   -7.2525 C   0  0  0  0  0  0  0  0  0  0  0  0
   -4.0091   40.4658   -7.6602 C   0  0  0  0  0  0  0  0  0  0  0  0
   -3.3073   41.4438   -6.8886 O   0  0  0  0  0  0  0  0  0  0  0  0
   -3.5902   43.0073   -7.1240 P   0  0  1  0  0  0  0  0  0  0  0  0
   -0.8720   43.7377   -6.9400 P   0  0  2  0  0  0  0  0  0  0  0  0
   -5.3096   37.3774   -4.9668 C   0  0  0  0  0  0  0  0  0  0  0  0
  -10.2740   38.2896   -1.0215 N   0  0  0  0  0  0  0  0  0  0  0  0
   -3.6957   43.3459   -8.6865 O   0  5  0  0  0  0  0  0  0  0  0  0
   -0.2338   42.4759   -6.5121 O   0  0  0  0  0  0  0  0  0  0  0  0
   -5.9338   37.8178   -3.8073 C   0  0  0  0  0  0  0  0  0  0  0  0
  -11.0330   38.0479   -2.1015 C   0  0  0  0  0  0  0  0  0  0  0  0
   -4.9691   43.5084   -6.4450 O   0  0  0  0  0  0  0  0  0  0  0  0
   -0.0862   45.0174   -6.3736 O   0  5  0  0  0  0  0  0  0  0  0  0
   -6.4313   39.1203   -3.7450 N   0  0  0  0  0  0  0  0  0  0  0  0
  -10.5621   38.2892   -3.3336 N   0  0  0  0  0  0  0  0  0  0  0  0
   -2.3937   43.8969   -6.4732 O   0  0  0  0  0  0  0  0  0  0  0  0
   -0.8332   43.8865   -8.5276 O   0  0  0  0  0  0  0  0  0  0  0  0
   -6.2897   39.9721   -4.8470 C   0  0  1  0  0  0  0  0  0  0  0  0
   -9.3263   38.7756   -3.5025 C   0  0  0  0  0  0  0  0  0  0  0  0
   -8.8711   39.0126   -4.7285 N   0  0  0  0  0  0  0  0  0  0  0  0
   -5.6633   39.5289   -6.0107 C   0  0  1  0  0  0  0  0  0  0  0  0
   -8.5214   39.0366   -2.4002 C   0  0  0  0  0  0  0  0  0  0  0  0
   -5.1763   38.2284   -6.0572 C   0  0  0  0  0  0  0  0  0  0  0  0
   -9.0477   38.7702   -1.1414 C   0  0  0  0  0  0  0  0  0  0  0  0
   -7.0954   39.5925   -2.5073 C   0  0  0  0  0  0  0  0  0  0  0  0
  1 13  1  0  0  0  0
  3  4  1  0  0  0  0
  4  5  1  0  0  0  0
  6  5  1  1  0  0  0
  6 10  1  0  0  0  0
  6 14  2  0  0  0  0
  6 18  1  0  0  0  0
  7 11  1  1  0  0  0
  7 15  1  0  0  0  0
  7 19  2  0  0  0  0
  7 18  1  0  0  0  0
  8 25  1  0  0  0  0
  8 12  1  0  0  0  0
  9 26  2  0  0  0  0
  9 13  1  0  0  0  0
 12 16  1  0  0  0  0
 13 17  2  0  0  0  0
 16 20  1  0  0  0  0
 16 27  1  0  0  0  0
 17 21  1  0  0  0  0
 20  2  1  6  0  0  0
 20 23  1  0  0  0  0
 21 22  1  0  0  0  0
 21 24  2  0  0  0  0
 23  3  1  6  0  0  0
 23 25  1  0  0  0  0
 24 27  1  0  0  0  0
 24 26  1  0  0  0  0
M  CHG  2  10  -1  15  -1
M  END
>  <CHROM.1>
-82.78225818,-70.36377159,-42.63678043,59.59044711,-71.07941217,125.20847696
-31.94349635,-77.07901398,-5.39126605,40.85941848,-5.30766995,2.82659033
-0.65414341,-2.79506360

>  <Name>
ligand

>  <RI>
0

>  <Rbt.Current_Directory>
/home/itssahil/PROJECTS/Mol_Feturizer/New_Systems/rnas/3D2V

>  <Rbt.Executable>
rbdock ($Id: //depot/dev/client3/rdock/2013.1/src/exe/rbdock.cxx#4 $)

>  <Rbt.Library>
libRbt.so (2013.1, Build901 2013/11/27)

>  <Rbt.Parameter_File>
/export/apps/rDock/src/rDock_2013.1_src/data/scripts/dock_solv.prm

>  <Rbt.Receptor>
prm/pocket_docking_4.prm

>  <SCORE>
-19.9968

>  <SCORE.INTER>
-22.5809

>  <SCORE.INTER.CONST>
1

>  <SCORE.INTER.POLAR>
0

>  <SCORE.INTER.ROT>
8

>  <SCORE.INTER.SOLV>
11.4212

>  <SCORE.INTER.VDW>
-27.7943

>  <SCORE.INTER.norm>
-0.836329

>  <SCORE.INTRA>
2.58311

>  <SCORE.INTRA.DIHEDRAL>
0.280055

>  <SCORE.INTRA.DIHEDRAL.0>
7.82666

>  <SCORE.INTRA.POLAR>
0

>  <SCORE.INTRA.POLAR.0>
0

>  <SCORE.INTRA.REPUL>
0

>  <SCORE.INTRA.REPUL.0>
0

>  <SCORE.INTRA.SOLV>
5.31487

>  <SCORE.INTRA.SOLV.lig_0>
-83.2758

>  <SCORE.INTRA.VDW>
-0.214357

>  <SCORE.INTRA.VDW.0>
-3.26816

>  <SCORE.INTRA.norm>
0.0956706

>  <SCORE.RESTR>
0.0010122

>  <SCORE.RESTR.CAVITY>
0.0010122

>  <SCORE.RESTR.norm>
3.74887e-05

>  <SCORE.SYSTEM>
0

>  <SCORE.SYSTEM.CONST>
0

>  <SCORE.SYSTEM.DIHEDRAL>
0

>  <SCORE.SYSTEM.SOLV>
0

>  <SCORE.SYSTEM.norm>
0

>  <SCORE.heavy>
27

>  <SCORE.norm>
-0.740621

>  <RMSD>
2.526

$$$$
ligand
 OpenBabel11021811473D
libRbt.so/2013.1/901 2013/11/27
 27 28  0  0  0  0  0  0  0  0999 V2000
  -13.0489   37.4003   -2.0394 C   0  0  0  0  0  0  0  0  0  0  0  0
   -5.6994   40.9441   -4.6391 C   0  0  0  0  0  0  0  0  0  0  0  0
   -4.5158   39.5254   -6.9974 C   0  0  0  0  0  0  0  0  0  0  0  0
   -5.0585   40.0419   -8.3313 C   0  0  0  0  0  0  0  0  0  0  0  0
   -3.9988   40.5474   -9.1471 O   0  0  0  0  0  0  0  0  0  0  0  0
   -4.3140   41.1022  -10.6212 P   0  0  1  0  0  0  0  0  0  0  0  0
   -5.7408   43.2322  -11.7975 P   0  0  2  0  0  0  0  0  0  0  0  0
   -7.1442   37.0525   -5.8028 C   0  0  0  0  0  0  0  0  0  0  0  0
  -11.2831   38.2294   -3.5827 N   0  0  0  0  0  0  0  0  0  0  0  0
   -2.9915   41.6837  -11.3140 O   0  5  0  0  0  0  0  0  0  0  0  0
   -5.6402   42.5617  -13.1101 O   0  0  0  0  0  0  0  0  0  0  0  0
   -7.7074   37.6926   -4.7068 C   0  0  0  0  0  0  0  0  0  0  0  0
  -11.6675   37.9931   -2.3188 C   0  0  0  0  0  0  0  0  0  0  0  0
   -4.8973   39.9657  -11.6119 O   0  0  0  0  0  0  0  0  0  0  0  0
   -4.7266   44.4714  -11.6893 O   0  5  0  0  0  0  0  0  0  0  0  0
   -7.2426   38.9541   -4.3320 N   0  0  0  0  0  0  0  0  0  0  0  0
  -10.8493   38.2727   -1.2939 N   0  0  0  0  0  0  0  0  0  0  0  0
   -5.4312   42.2825  -10.5480 O   0  0  0  0  0  0  0  0  0  0  0  0
   -7.1936   43.8552  -11.5854 O   0  0  0  0  0  0  0  0  0  0  0  0
   -6.2091   39.5582   -5.0581 C   0  0  1  0  0  0  0  0  0  0  0  0
   -9.6359   38.7918   -1.5187 C   0  0  0  0  0  0  0  0  0  0  0  0
   -8.8330   39.0629   -0.4948 N   0  0  0  0  0  0  0  0  0  0  0  0
   -5.6447   38.9150   -6.1584 C   0  0  1  0  0  0  0  0  0  0  0  0
   -9.2134   39.0435   -2.8183 C   0  0  0  0  0  0  0  0  0  0  0  0
   -6.1211   37.6607   -6.5199 C   0  0  0  0  0  0  0  0  0  0  0  0
  -10.0934   38.7410   -3.8511 C   0  0  0  0  0  0  0  0  0  0  0  0
   -7.8409   39.6372   -3.1611 C   0  0  0  0  0  0  0  0  0  0  0  0
  1 13  1  0  0  0  0
  3  4  1  0  0  0  0
  4  5  1  0  0  0  0
  6  5  1  1  0  0  0
  6 10  1  0  0  0  0
  6 14  2  0  0  0  0
  6 18  1  0  0  0  0
  7 11  1  6  0  0  0
  7 15  1  0  0  0  0
  7 19  2  0  0  0  0
  7 18  1  0  0  0  0
  8 25  1  0  0  0  0
  8 12  1  0  0  0  0
  9 26  2  0  0  0  0
  9 13  1  0  0  0  0
 12 16  1  0  0  0  0
 13 17  2  0  0  0  0
 16 20  1  0  0  0  0
 16 27  1  0  0  0  0
 17 21  1  0  0  0  0
 20  2  1  6  0  0  0
 20 23  1  0  0  0  0
 21 22  1  0  0  0  0
 21 24  2  0  0  0  0
 23  3  1  6  0  0  0
 23 25  1  0  0  0  0
 24 27  1  0  0  0  0
 24 26  1  0  0  0  0
M  CHG  2  10  -1  15  -1
M  END
>  <CHROM.1>
-176.91466433,177.95190636,177.04654878,167.42998955,35.06219155,-104.57678629
138.17257260,-19.33334196,-6.85693904,40.22556615,-7.11713524,2.06887911
-0.28733280,2.14014052

>  <Name>
ligand

>  <RI>
0

>  <Rbt.Current_Directory>
/home/itssahil/PROJECTS/Mol_Feturizer/New_Systems/rnas/3D2V

>  <Rbt.Executable>
rbdock ($Id: //depot/dev/client3/rdock/2013.1/src/exe/rbdock.cxx#4 $)

>  <Rbt.Library>
libRbt.so (2013.1, Build901 2013/11/27)

>  <Rbt.Parameter_File>
/export/apps/rDock/src/rDock_2013.1_src/data/scripts/dock_solv.prm

>  <Rbt.Receptor>
prm/pocket_docking_6.prm

>  <SCORE>
-22.628

>  <SCORE.INTER>
-22.3694

>  <SCORE.INTER.CONST>
1

>  <SCORE.INTER.POLAR>
0

>  <SCORE.INTER.ROT>
8

>  <SCORE.INTER.SOLV>
27.4568

>  <SCORE.INTER.VDW>
-32.9986

>  <SCORE.INTER.norm>
-0.828497

>  <SCORE.INTRA>
-0.258566

>  <SCORE.INTRA.DIHEDRAL>
-1.48531

>  <SCORE.INTRA.DIHEDRAL.0>
7.82666

>  <SCORE.INTRA.POLAR>
0

>  <SCORE.INTRA.POLAR.0>
0

>  <SCORE.INTRA.REPUL>
0

>  <SCORE.INTRA.REPUL.0>
0

>  <SCORE.INTRA.SOLV>
-1.61245

>  <SCORE.INTRA.SOLV.lig_0>
-83.2758

>  <SCORE.INTRA.VDW>
1.29031

>  <SCORE.INTRA.VDW.0>
-3.26816

>  <SCORE.INTRA.norm>
-0.00957652

>  <SCORE.RESTR>
0

>  <SCORE.RESTR.CAVITY>
0

>  <SCORE.RESTR.norm>
0

>  <SCORE.SYSTEM>
0

>  <SCORE.SYSTEM.CONST>
0

>  <SCORE.SYSTEM.DIHEDRAL>
0

>  <SCORE.SYSTEM.SOLV>
0

>  <SCORE.SYSTEM.norm>
0

>  <SCORE.heavy>
27

>  <SCORE.norm>
-0.838074

>  <RMSD>
2.527

$$$$
ligand
 OpenBabel11021811473D
libRbt.so/2013.1/901 2013/11/27
 27 28  0  0  0  0  0  0  0  0999 V2000
  -12.9578   37.5477   -1.8016 C   0  0  0  0  0  0  0  0  0  0  0  0
   -5.7872   38.4293   -4.7957 C   0  0  0  0  0  0  0  0  0  0  0  0
   -5.5548   40.0546   -7.3016 C   0  0  0  0  0  0  0  0  0  0  0  0
   -5.6181   41.0882   -8.4278 C   0  0  0  0  0  0  0  0  0  0  0  0
   -5.1059   42.3483   -7.9873 O   0  0  0  0  0  0  0  0  0  0  0  0
   -5.1273   43.6143   -8.9757 P   0  0  1  0  0  0  0  0  0  0  0  0
   -2.5609   43.4844  -10.1389 P   0  0  2  0  0  0  0  0  0  0  0  0
   -8.0212   42.0890   -5.2452 C   0  0  0  0  0  0  0  0  0  0  0  0
  -10.8136   38.5569   -1.0458 N   0  0  0  0  0  0  0  0  0  0  0  0
   -6.6094   43.9031   -9.5115 O   0  5  0  0  0  0  0  0  0  0  0  0
   -1.9690   42.7823   -8.9816 O   0  0  0  0  0  0  0  0  0  0  0  0
   -8.1432   41.3514   -4.0751 C   0  0  0  0  0  0  0  0  0  0  0  0
  -11.5274   38.0270   -2.0511 C   0  0  0  0  0  0  0  0  0  0  0  0
   -4.6142   44.9751   -8.2695 O   0  0  0  0  0  0  0  0  0  0  0  0
   -2.2418   45.0568  -10.1008 O   0  5  0  0  0  0  0  0  0  0  0  0
   -7.4173   40.1686   -3.9276 N   0  0  0  0  0  0  0  0  0  0  0  0
  -10.9973   37.9130   -3.2774 N   0  0  0  0  0  0  0  0  0  0  0  0
   -4.1509   43.3469  -10.2491 O   0  0  0  0  0  0  0  0  0  0  0  0
   -1.9324   42.9585  -11.5072 O   0  0  0  0  0  0  0  0  0  0  0  0
   -6.5804   39.7328   -4.9620 C   0  0  1  0  0  0  0  0  0  0  0  0
   -9.7467   38.3273   -3.5153 C   0  0  0  0  0  0  0  0  0  0  0  0
   -9.2327   38.2108   -4.7354 N   0  0  0  0  0  0  0  0  0  0  0  0
   -6.4582   40.4743   -6.1360 C   0  0  1  0  0  0  0  0  0  0  0  0
   -8.9877   38.8816   -2.4918 C   0  0  0  0  0  0  0  0  0  0  0  0
   -7.1856   41.6511   -6.2654 C   0  0  0  0  0  0  0  0  0  0  0  0
   -9.5747   38.9793   -1.2355 C   0  0  0  0  0  0  0  0  0  0  0  0
   -7.5486   39.3790   -2.6805 C   0  0  0  0  0  0  0  0  0  0  0  0
  1 13  1  0  0  0  0
  3  4  1  0  0  0  0
  4  5  1  0  0  0  0
  6  5  1  1  0  0  0
  6 10  1  0  0  0  0
  6 14  2  0  0  0  0
  6 18  1  0  0  0  0
  7 11  1  1  0  0  0
  7 15  1  0  0  0  0
  7 19  2  0  0  0  0
  7 18  1  0  0  0  0
  8 25  1  0  0  0  0
  8 12  1  0  0  0  0
  9 26  2  0  0  0  0
  9 13  1  0  0  0  0
 12 16  1  0  0  0  0
 13 17  2  0  0  0  0
 16 20  1  0  0  0  0
 16 27  1  0  0  0  0
 17 21  1  0  0  0  0
 20  2  1  1  0  0  0
 20 23  1  0  0  0  0
 21 22  1  0  0  0  0
 21 24  2  0  0  0  0
 23  3  1  1  0  0  0
 23 25  1  0  0  0  0
 24 27  1  0  0  0  0
 24 26  1  0  0  0  0
M  CHG  2  10  -1  15  -1
M  END
>  <CHROM.1>
63.68684067,-177.32007273,55.64895661,-77.70112209,48.56909061,-178.85854102
44.33716530,62.24583490,-6.49107970,41.20582674,-6.40918699,2.29104953,-0.40380438
2.51422232

>  <Name>
ligand

>  <RI>
0

>  <Rbt.Current_Directory>
/home/itssahil/PROJECTS/Mol_Feturizer/New_Systems/rnas/3D2V

>  <Rbt.Executable>
rbdock ($Id: //depot/dev/client3/rdock/2013.1/src/exe/rbdock.cxx#4 $)

>  <Rbt.Library>
libRbt.so (2013.1, Build901 2013/11/27)

>  <Rbt.Parameter_File>
/export/apps/rDock/src/rDock_2013.1_src/data/scripts/dock_solv.prm

>  <Rbt.Receptor>
prm/pocket_docking_2.prm

>  <SCORE>
-14.6984

>  <SCORE.INTER>
-16.2977

>  <SCORE.INTER.CONST>
1

>  <SCORE.INTER.POLAR>
0

>  <SCORE.INTER.ROT>
8

>  <SCORE.INTER.SOLV>
16.8683

>  <SCORE.INTER.VDW>
-25.4213

>  <SCORE.INTER.norm>
-0.603619

>  <SCORE.INTRA>
0.906725

>  <SCORE.INTRA.DIHEDRAL>
-1.86918

>  <SCORE.INTRA.DIHEDRAL.0>
7.82666

>  <SCORE.INTRA.POLAR>
0

>  <SCORE.INTRA.POLAR.0>
0

>  <SCORE.INTRA.REPUL>
0

>  <SCORE.INTRA.REPUL.0>
0

>  <SCORE.INTRA.SOLV>
1.70931

>  <SCORE.INTRA.SOLV.lig_0>
-83.2758

>  <SCORE.INTRA.VDW>
0.986658

>  <SCORE.INTRA.VDW.0>
-3.26816

>  <SCORE.INTRA.norm>
0.0335824

>  <SCORE.RESTR>
0.692587

>  <SCORE.RESTR.CAVITY>
0.692587

>  <SCORE.RESTR.norm>
0.0256514

>  <SCORE.SYSTEM>
0

>  <SCORE.SYSTEM.CONST>
0

>  <SCORE.SYSTEM.DIHEDRAL>
0

>  <SCORE.SYSTEM.SOLV>
0

>  <SCORE.SYSTEM.norm>
0

>  <SCORE.heavy>
27

>  <SCORE.norm>
-0.544386

>  <RMSD>
2.528

$$$$
ligand
 OpenBabel11021811473D
libRbt.so/2013.1/901 2013/11/27
 27 28  0  0  0  0  0  0  0  0999 V2000
  -12.0127   37.4411   -1.9152 C   0  0  0  0  0  0  0  0  0  0  0  0
   -6.1761   41.5824   -5.5501 C   0  0  0  0  0  0  0  0  0  0  0  0
   -4.5412   39.9878   -7.4890 C   0  0  0  0  0  0  0  0  0  0  0  0
   -5.4582   39.6388   -8.6628 C   0  0  0  0  0  0  0  0  0  0  0  0
   -4.8975   40.0954   -9.8962 O   0  0  0  0  0  0  0  0  0  0  0  0
   -4.9092   41.6614  -10.2533 P   0  0  1  0  0  0  0  0  0  0  0  0
   -6.9331   43.6192  -10.4175 P   0  0  2  0  0  0  0  0  0  0  0  0
   -5.2561   37.4465   -4.7538 C   0  0  0  0  0  0  0  0  0  0  0  0
  -10.3983   38.4950   -3.4869 N   0  0  0  0  0  0  0  0  0  0  0  0
   -3.6492   42.4103   -9.6061 O   0  5  0  0  0  0  0  0  0  0  0  0
   -7.7340   43.2895  -11.6144 O   0  0  0  0  0  0  0  0  0  0  0  0
   -6.0160   38.1670   -3.8419 C   0  0  0  0  0  0  0  0  0  0  0  0
  -10.7158   38.1921   -2.2187 C   0  0  0  0  0  0  0  0  0  0  0  0
   -4.8537   41.9466  -11.8436 O   0  0  0  0  0  0  0  0  0  0  0  0
   -5.7290   44.6197  -10.7711 O   0  5  0  0  0  0  0  0  0  0  0  0
   -6.3172   39.5048   -4.1011 N   0  0  0  0  0  0  0  0  0  0  0  0
   -9.9043   38.5425   -1.2104 N   0  0  0  0  0  0  0  0  0  0  0  0
   -6.2733   42.3521   -9.6977 O   0  0  0  0  0  0  0  0  0  0  0  0
   -7.8165   44.3873   -9.3342 O   0  0  0  0  0  0  0  0  0  0  0  0
   -5.8447   40.1097   -5.2720 C   0  0  1  0  0  0  0  0  0  0  0  0
   -8.7644   39.2002   -1.4564 C   0  0  0  0  0  0  0  0  0  0  0  0
   -7.9672   39.5406   -0.4489 N   0  0  0  0  0  0  0  0  0  0  0  0
   -5.0824   39.3854   -6.1870 C   0  0  2  0  0  0  0  0  0  0  0  0
   -8.4119   39.5235   -2.7610 C   0  0  0  0  0  0  0  0  0  0  0  0
   -4.7940   38.0536   -5.9151 C   0  0  0  0  0  0  0  0  0  0  0  0
   -9.2824   39.1434   -3.7760 C   0  0  0  0  0  0  0  0  0  0  0  0
   -7.1258   40.2757   -3.1275 C   0  0  0  0  0  0  0  0  0  0  0  0
  1 13  1  0  0  0  0
  3  4  1  0  0  0  0
  4  5  1  0  0  0  0
  6  5  1  1  0  0  0
  6 10  1  0  0  0  0
  6 14  2  0  0  0  0
  6 18  1  0  0  0  0
  7 11  1  6  0  0  0
  7 15  1  0  0  0  0
  7 19  2  0  0  0  0
  7 18  1  0  0  0  0
  8 25  1  0  0  0  0
  8 12  1  0  0  0  0
  9 26  2  0  0  0  0
  9 13  1  0  0  0  0
 12 16  1  0  0  0  0
 13 17  2  0  0  0  0
 16 20  1  0  0  0  0
 16 27  1  0  0  0  0
 17 21  1  0  0  0  0
 20  2  1  6  0  0  0
 20 23  1  0  0  0  0
 21 22  1  0  0  0  0
 21 24  2  0  0  0  0
 23  3  1  1  0  0  0
 23 25  1  0  0  0  0
 24 27  1  0  0  0  0
 24 26  1  0  0  0  0
M  CHG  2  10  -1  15  -1
M  END
>  <CHROM.1>
-174.83919460,-73.89948511,84.95841424,-150.45239237,80.01111686,-97.54300123
124.06570128,-50.94639102,-6.80336668,40.65524434,-6.70665799,1.94760476
-0.41513849,2.18769866

>  <Name>
ligand

>  <RI>
0

>  <Rbt.Current_Directory>
/home/itssahil/PROJECTS/Mol_Feturizer/New_Systems/rnas/3D2V

>  <Rbt.Executable>
rbdock ($Id: //depot/dev/client3/rdock/2013.1/src/exe/rbdock.cxx#4 $)

>  <Rbt.Library>
libRbt.so (2013.1, Build901 2013/11/27)

>  <Rbt.Parameter_File>
/export/apps/rDock/src/rDock_2013.1_src/data/scripts/dock_solv.prm

>  <Rbt.Receptor>
prm/pocket_docking_8.prm

>  <SCORE>
-25.5309

>  <SCORE.INTER>
-26.1618

>  <SCORE.INTER.CONST>
1

>  <SCORE.INTER.POLAR>
0

>  <SCORE.INTER.ROT>
8

>  <SCORE.INTER.SOLV>
18.0883

>  <SCORE.INTER.VDW>
-32.404

>  <SCORE.INTER.norm>
-0.968954

>  <SCORE.INTRA>
0.628899

>  <SCORE.INTRA.DIHEDRAL>
1.01125

>  <SCORE.INTRA.DIHEDRAL.0>
7.82666

>  <SCORE.INTRA.POLAR>
0

>  <SCORE.INTRA.POLAR.0>
0

>  <SCORE.INTRA.REPUL>
0

>  <SCORE.INTRA.REPUL.0>
0

>  <SCORE.INTRA.SOLV>
0.343808

>  <SCORE.INTRA.SOLV.lig_0>
-83.2758

>  <SCORE.INTRA.VDW>
-0.0486325

>  <SCORE.INTRA.VDW.0>
-3.26816

>  <SCORE.INTRA.norm>
0.0232925

>  <SCORE.RESTR>
0.00194028

>  <SCORE.RESTR.CAVITY>
0.00194028

>  <SCORE.RESTR.norm>
7.18623e-05

>  <SCORE.SYSTEM>
0

>  <SCORE.SYSTEM.CONST>
0

>  <SCORE.SYSTEM.DIHEDRAL>
0

>  <SCORE.SYSTEM.SOLV>
0

>  <SCORE.SYSTEM.norm>
0

>  <SCORE.heavy>
27

>  <SCORE.norm>
-0.945589

>  <RMSD>
2.536

$$$$
ligand
 OpenBabel11021811473D
libRbt.so/2013.1/901 2013/11/27
 27 28  0  0  0  0  0  0  0  0999 V2000
  -12.2466   37.4428   -2.1663 C   0  0  0  0  0  0  0  0  0  0  0  0
   -5.7547   41.7975   -4.2137 C   0  0  0  0  0  0  0  0  0  0  0  0
   -4.1550   40.7611   -6.5250 C   0  0  0  0  0  0  0  0  0  0  0  0
   -4.6847   40.5255   -7.9409 C   0  0  0  0  0  0  0  0  0  0  0  0
   -3.8122   41.1097   -8.9112 O   0  0  0  0  0  0  0  0  0  0  0  0
   -4.2338   41.1321  -10.4610 P   0  0  1  0  0  0  0  0  0  0  0  0
   -2.0495   42.7457  -11.2235 P   0  0  2  0  0  0  0  0  0  0  0  0
   -5.3328   37.5553   -4.8556 C   0  0  0  0  0  0  0  0  0  0  0  0
  -10.1453   38.2839   -1.1347 N   0  0  0  0  0  0  0  0  0  0  0  0
   -4.8851   39.7363  -10.9021 O   0  5  0  0  0  0  0  0  0  0  0  0
   -0.8086   42.7554  -12.0251 O   0  0  0  0  0  0  0  0  0  0  0  0
   -6.0793   38.0142   -3.7784 C   0  0  0  0  0  0  0  0  0  0  0  0
  -10.8632   38.0882   -2.2515 C   0  0  0  0  0  0  0  0  0  0  0  0
   -5.3186   42.2808  -10.8033 O   0  0  0  0  0  0  0  0  0  0  0  0
   -1.7395   42.8900   -9.6554 O   0  5  0  0  0  0  0  0  0  0  0  0
   -6.2192   39.3874   -3.5724 N   0  0  0  0  0  0  0  0  0  0  0  0
  -10.3779   38.4543   -3.4467 N   0  0  0  0  0  0  0  0  0  0  0  0
   -2.9311   41.4215  -11.3914 O   0  0  0  0  0  0  0  0  0  0  0  0
   -2.9737   43.9935  -11.5882 O   0  0  0  0  0  0  0  0  0  0  0  0
   -5.6003   40.2883   -4.4472 C   0  0  1  0  0  0  0  0  0  0  0  0
   -9.1688   39.0212   -3.5414 C   0  0  0  0  0  0  0  0  0  0  0  0
   -8.6991   39.3816   -4.7314 N   0  0  0  0  0  0  0  0  0  0  0  0
   -4.8516   39.8267   -5.5286 C   0  0  2  0  0  0  0  0  0  0  0  0
   -8.4068   39.2368   -2.3996 C   0  0  0  0  0  0  0  0  0  0  0  0
   -4.7247   38.4564   -5.7211 C   0  0  0  0  0  0  0  0  0  0  0  0
   -8.9465   38.8405   -1.1813 C   0  0  0  0  0  0  0  0  0  0  0  0
   -7.0133   39.8784   -2.4217 C   0  0  0  0  0  0  0  0  0  0  0  0
  1 13  1  0  0  0  0
  3  4  1  0  0  0  0
  4  5  1  0  0  0  0
  6  5  1  1  0  0  0
  6 10  1  0  0  0  0
  6 14  2  0  0  0  0
  6 18  1  0  0  0  0
  7 11  1  6  0  0  0
  7 15  1  0  0  0  0
  7 19  2  0  0  0  0
  7 18  1  0  0  0  0
  8 25  1  0  0  0  0
  8 12  1  0  0  0  0
  9 26  2  0  0  0  0
  9 13  1  0  0  0  0
 12 16  1  0  0  0  0
 13 17  2  0  0  0  0
 16 20  1  0  0  0  0
 16 27  1  0  0  0  0
 17 21  1  0  0  0  0
 20  2  1  6  0  0  0
 20 23  1  0  0  0  0
 21 22  1  0  0  0  0
 21 24  2  0  0  0  0
 23  3  1  1  0  0  0
 23 25  1  0  0  0  0
 24 27  1  0  0  0  0
 24 26  1  0  0  0  0
M  CHG  2  10  -1  15  -1
M  END
>  <CHROM.1>
-164.29002293,-173.47578824,-42.30210413,-58.51368796,172.25557447,-119.94360743
-40.32978327,-52.30682085,-5.63582484,40.39225310,-6.81135806,2.21946837
0.31786756,1.74820670

>  <Name>
ligand

>  <RI>
0

>  <Rbt.Current_Directory>
/home/itssahil/PROJECTS/Mol_Feturizer/New_Systems/rnas/3D2V

>  <Rbt.Executable>
rbdock ($Id: //depot/dev/client3/rdock/2013.1/src/exe/rbdock.cxx#4 $)

>  <Rbt.Library>
libRbt.so (2013.1, Build901 2013/11/27)

>  <Rbt.Parameter_File>
/export/apps/rDock/src/rDock_2013.1_src/data/scripts/dock_solv.prm

>  <Rbt.Receptor>
prm/pocket_docking_4.prm

>  <SCORE>
-26.1686

>  <SCORE.INTER>
-27.3802

>  <SCORE.INTER.CONST>
1

>  <SCORE.INTER.POLAR>
0

>  <SCORE.INTER.ROT>
8

>  <SCORE.INTER.SOLV>
18.8108

>  <SCORE.INTER.VDW>
-33.457

>  <SCORE.INTER.norm>
-1.01408

>  <SCORE.INTRA>
1.21159

>  <SCORE.INTRA.DIHEDRAL>
-0.983963

>  <SCORE.INTRA.DIHEDRAL.0>
7.82666

>  <SCORE.INTRA.POLAR>
0

>  <SCORE.INTRA.POLAR.0>
0

>  <SCORE.INTRA.REPUL>
0

>  <SCORE.INTRA.REPUL.0>
0

>  <SCORE.INTRA.SOLV>
3.68979

>  <SCORE.INTRA.SOLV.lig_0>
-83.2758

>  <SCORE.INTRA.VDW>
-0.141324

>  <SCORE.INTRA.VDW.0>
-3.26816

>  <SCORE.INTRA.norm>
0.0448736

>  <SCORE.RESTR>
0

>  <SCORE.RESTR.CAVITY>
0

>  <SCORE.RESTR.norm>
0

>  <SCORE.SYSTEM>
0

>  <SCORE.SYSTEM.CONST>
0

>  <SCORE.SYSTEM.DIHEDRAL>
0

>  <SCORE.SYSTEM.SOLV>
0

>  <SCORE.SYSTEM.norm>
0

>  <SCORE.heavy>
27

>  <SCORE.norm>
-0.969207

>  <RMSD>
2.556

$$$$
ligand
 OpenBabel11021811473D
libRbt.so/2013.1/901 2013/11/27
 27 28  0  0  0  0  0  0  0  0999 V2000
  -12.9786   37.4914   -1.8208 C   0  0  0  0  0  0  0  0  0  0  0  0
   -8.6888   40.7341   -4.9884 C   0  0  0  0  0  0  0  0  0  0  0  0
   -7.8541   39.9969   -7.7696 C   0  0  0  0  0  0  0  0  0  0  0  0
   -6.8179   40.9818   -8.3143 C   0  0  0  0  0  0  0  0  0  0  0  0
   -6.6191   42.0637   -7.4009 O   0  0  0  0  0  0  0  0  0  0  0  0
   -5.5014   43.1766   -7.7044 P   0  0  1  0  0  0  0  0  0  0  0  0
   -6.5862   45.1039   -5.9536 P   0  0  2  0  0  0  0  0  0  0  0  0
   -5.8664   37.5436   -5.6527 C   0  0  0  0  0  0  0  0  0  0  0  0
  -10.9942   37.8671   -3.2728 N   0  0  0  0  0  0  0  0  0  0  0  0
   -4.0751   42.5015   -7.9817 O   0  5  0  0  0  0  0  0  0  0  0  0
   -7.3124   45.7821   -7.0468 O   0  0  0  0  0  0  0  0  0  0  0  0
   -6.2401   37.8685   -4.3554 C   0  0  0  0  0  0  0  0  0  0  0  0
  -11.5420   37.9614   -2.0513 C   0  0  0  0  0  0  0  0  0  0  0  0
   -5.8473   44.0821   -8.9983 O   0  0  0  0  0  0  0  0  0  0  0  0
   -5.9778   46.1578   -4.9073 O   0  5  0  0  0  0  0  0  0  0  0  0
   -7.1565   38.8987   -4.1401 N   0  0  0  0  0  0  0  0  0  0  0  0
  -10.8397   38.4657   -1.0264 N   0  0  0  0  0  0  0  0  0  0  0  0
   -5.3653   44.1924   -6.4410 O   0  0  0  0  0  0  0  0  0  0  0  0
   -7.5701   44.1821   -5.1014 O   0  0  0  0  0  0  0  0  0  0  0  0
   -7.6839   39.5995   -5.2314 C   0  0  1  0  0  0  0  0  0  0  0  0
   -9.5805   38.8820   -1.2086 C   0  0  0  0  0  0  0  0  0  0  0  0
   -8.8937   39.3783   -0.1847 N   0  0  0  0  0  0  0  0  0  0  0  0
   -7.3086   39.2723   -6.5334 C   0  0  2  0  0  0  0  0  0  0  0  0
   -8.9897   38.7929   -2.4632 C   0  0  0  0  0  0  0  0  0  0  0  0
   -6.3973   38.2420   -6.7303 C   0  0  0  0  0  0  0  0  0  0  0  0
   -9.7536   38.2660   -3.4983 C   0  0  0  0  0  0  0  0  0  0  0  0
   -7.5542   39.2482   -2.7561 C   0  0  0  0  0  0  0  0  0  0  0  0
  1 13  1  0  0  0  0
  3  4  1  0  0  0  0
  4  5  1  0  0  0  0
  6  5  1  1  0  0  0
  6 10  1  0  0  0  0
  6 14  2  0  0  0  0
  6 18  1  0  0  0  0
  7 11  1  6  0  0  0
  7 15  1  0  0  0  0
  7 19  2  0  0  0  0
  7 18  1  0  0  0  0
  8 25  1  0  0  0  0
  8 12  1  0  0  0  0
  9 26  2  0  0  0  0
  9 13  1  0  0  0  0
 12 16  1  0  0  0  0
 13 17  2  0  0  0  0
 16 20  1  0  0  0  0
 16 27  1  0  0  0  0
 17 21  1  0  0  0  0
 20  2  1  6  0  0  0
 20 23  1  0  0  0  0
 21 22  1  0  0  0  0
 21 24  2  0  0  0  0
 23  3  1  1  0  0  0
 23 25  1  0  0  0  0
 24 27  1  0  0  0  0
 24 26  1  0  0  0  0
M  CHG  2  10  -1  15  -1
M  END
>  <CHROM.1>
-67.80515498,175.77772396,-53.01908304,-61.87665849,-45.06000847,102.69356507
174.00092770,-107.73621387,-7.57632998,41.11610802,-5.19136910,2.49548016
-0.93173850,-3.01688979

>  <Name>
ligand

>  <RI>
0

>  <Rbt.Current_Directory>
/home/itssahil/PROJECTS/Mol_Feturizer/New_Systems/rnas/3D2V

>  <Rbt.Executable>
rbdock ($Id: //depot/dev/client3/rdock/2013.1/src/exe/rbdock.cxx#4 $)

>  <Rbt.Library>
libRbt.so (2013.1, Build901 2013/11/27)

>  <Rbt.Parameter_File>
/export/apps/rDock/src/rDock_2013.1_src/data/scripts/dock_solv.prm

>  <Rbt.Receptor>
prm/pocket_docking_7.prm

>  <SCORE>
-20.15

>  <SCORE.INTER>
-18.2083

>  <SCORE.INTER.CONST>
1

>  <SCORE.INTER.POLAR>
0

>  <SCORE.INTER.ROT>
8

>  <SCORE.INTER.SOLV>
18.2798

>  <SCORE.INTER.VDW>
-27.1655

>  <SCORE.INTER.norm>
-0.674382

>  <SCORE.INTRA>
-1.94173

>  <SCORE.INTRA.DIHEDRAL>
-1.89896

>  <SCORE.INTRA.DIHEDRAL.0>
7.82666

>  <SCORE.INTRA.POLAR>
0

>  <SCORE.INTRA.POLAR.0>
0

>  <SCORE.INTRA.REPUL>
0

>  <SCORE.INTRA.REPUL.0>
0

>  <SCORE.INTRA.SOLV>
-1.86521

>  <SCORE.INTRA.SOLV.lig_0>
-83.2758

>  <SCORE.INTRA.VDW>
-0.0596483

>  <SCORE.INTRA.VDW.0>
-3.26816

>  <SCORE.INTRA.norm>
-0.0719161

>  <SCORE.RESTR>
0

>  <SCORE.RESTR.CAVITY>
0

>  <SCORE.RESTR.norm>
0

>  <SCORE.SYSTEM>
0

>  <SCORE.SYSTEM.CONST>
0

>  <SCORE.SYSTEM.DIHEDRAL>
0

>  <SCORE.SYSTEM.SOLV>
0

>  <SCORE.SYSTEM.norm>
0

>  <SCORE.heavy>
27

>  <SCORE.norm>
-0.746298

>  <RMSD>
2.560

$$$$
ligand
 OpenBabel11021811473D
libRbt.so/2013.1/901 2013/11/27
 27 28  0  0  0  0  0  0  0  0999 V2000
  -13.4574   37.2381   -2.2350 C   0  0  0  0  0  0  0  0  0  0  0  0
   -5.4222   40.4889   -2.5131 C   0  0  0  0  0  0  0  0  0  0  0  0
   -4.9028   42.2085   -4.9107 C   0  0  0  0  0  0  0  0  0  0  0  0
   -4.3438   41.7455   -6.2575 C   0  0  0  0  0  0  0  0  0  0  0  0
   -5.1728   42.1966   -7.3315 O   0  0  0  0  0  0  0  0  0  0  0  0
   -4.8780   41.7096   -8.8334 P   0  0  1  0  0  0  0  0  0  0  0  0
   -5.7913   44.1478   -9.9184 P   0  0  2  0  0  0  0  0  0  0  0  0
   -8.5508   41.2481   -5.3804 C   0  0  0  0  0  0  0  0  0  0  0  0
  -11.5799   38.4755   -1.1715 N   0  0  0  0  0  0  0  0  0  0  0  0
   -3.3352   41.9141   -9.2141 O   0  5  0  0  0  0  0  0  0  0  0  0
   -6.5779   44.7332  -11.0235 O   0  0  0  0  0  0  0  0  0  0  0  0
   -8.8133   40.4487   -4.2758 C   0  0  0  0  0  0  0  0  0  0  0  0
  -12.0314   37.7899   -2.2331 C   0  0  0  0  0  0  0  0  0  0  0  0
   -5.2116   40.1450   -9.0665 O   0  0  0  0  0  0  0  0  0  0  0  0
   -4.2526   44.5987   -9.9867 O   0  5  0  0  0  0  0  0  0  0  0  0
   -7.8019   40.2057   -3.3454 N   0  0  0  0  0  0  0  0  0  0  0  0
  -11.2419   37.5828   -3.2969 N   0  0  0  0  0  0  0  0  0  0  0  0
   -5.7941   42.5485   -9.8839 O   0  0  0  0  0  0  0  0  0  0  0  0
   -6.3210   44.6646   -8.5055 O   0  0  0  0  0  0  0  0  0  0  0  0
   -6.5318   40.7625   -3.5378 C   0  0  1  0  0  0  0  0  0  0  0  0
   -9.9906   38.0586   -3.3139 C   0  0  0  0  0  0  0  0  0  0  0  0
   -9.2180   37.8486   -4.3747 N   0  0  0  0  0  0  0  0  0  0  0  0
   -6.2694   41.5653   -4.6467 C   0  0  1  0  0  0  0  0  0  0  0  0
   -9.5002   38.7736   -2.2280 C   0  0  0  0  0  0  0  0  0  0  0  0
   -7.2884   41.7996   -5.5619 C   0  0  0  0  0  0  0  0  0  0  0  0
  -10.3510   38.9636   -1.1452 C   0  0  0  0  0  0  0  0  0  0  0  0
   -8.0798   39.3506   -2.1675 C   0  0  0  0  0  0  0  0  0  0  0  0
  1 13  1  0  0  0  0
  3  4  1  0  0  0  0
  4  5  1  0  0  0  0
  6  5  1  1  0  0  0
  6 10  1  0  0  0  0
  6 14  2  0  0  0  0
  6 18  1  0  0  0  0
  7 11  1  6  0  0  0
  7 15  1  0  0  0  0
  7 19  2  0  0  0  0
  7 18  1  0  0  0  0
  8 25  1  0  0  0  0
  8 12  1  0  0  0  0
  9 26  2  0  0  0  0
  9 13  1  0  0  0  0
 12 16  1  0  0  0  0
 13 17  2  0  0  0  0
 16 20  1  0  0  0  0
 16 27  1  0  0  0  0
 17 21  1  0  0  0  0
 20  2  1  1  0  0  0
 20 23  1  0  0  0  0
 21 22  1  0  0  0  0
 21 24  2  0  0  0  0
 23  3  1  1  0  0  0
 23 25  1  0  0  0  0
 24 27  1  0  0  0  0
 24 26  1  0  0  0  0
M  CHG  2  10  -1  15  -1
M  END
>  <CHROM.1>
64.36083104,-173.69181401,-49.93961707,54.35387831,174.15968969,120.94442835
54.15438103,3.77621987,-7.20301435,41.06492980,-5.94406201,2.16143946,0.27528481
1.99412093

>  <Name>
ligand

>  <RI>
0

>  <Rbt.Current_Directory>
/home/itssahil/PROJECTS/Mol_Feturizer/New_Systems/rnas/3D2V

>  <Rbt.Executable>
rbdock ($Id: //depot/dev/client3/rdock/2013.1/src/exe/rbdock.cxx#4 $)

>  <Rbt.Library>
libRbt.so (2013.1, Build901 2013/11/27)

>  <Rbt.Parameter_File>
/export/apps/rDock/src/rDock_2013.1_src/data/scripts/dock_solv.prm

>  <Rbt.Receptor>
prm/pocket_docking_3.prm

>  <SCORE>
-16.3177

>  <SCORE.INTER>
-17.7032

>  <SCORE.INTER.CONST>
1

>  <SCORE.INTER.POLAR>
0

>  <SCORE.INTER.ROT>
8

>  <SCORE.INTER.SOLV>
14.988

>  <SCORE.INTER.VDW>
-25.7315

>  <SCORE.INTER.norm>
-0.655675

>  <SCORE.INTRA>
1.38552

>  <SCORE.INTRA.DIHEDRAL>
-2.1236

>  <SCORE.INTRA.DIHEDRAL.0>
7.82666

>  <SCORE.INTRA.POLAR>
0

>  <SCORE.INTRA.POLAR.0>
0

>  <SCORE.INTRA.REPUL>
0

>  <SCORE.INTRA.REPUL.0>
0

>  <SCORE.INTRA.SOLV>
2.41492

>  <SCORE.INTRA.SOLV.lig_0>
-83.2758

>  <SCORE.INTRA.VDW>
1.23986

>  <SCORE.INTRA.VDW.0>
-3.26816

>  <SCORE.INTRA.norm>
0.0513156

>  <SCORE.RESTR>
0

>  <SCORE.RESTR.CAVITY>
0

>  <SCORE.RESTR.norm>
0

>  <SCORE.SYSTEM>
0

>  <SCORE.SYSTEM.CONST>
0

>  <SCORE.SYSTEM.DIHEDRAL>
0

>  <SCORE.SYSTEM.SOLV>
0

>  <SCORE.SYSTEM.norm>
0

>  <SCORE.heavy>
27

>  <SCORE.norm>
-0.60436

>  <RMSD>
2.562

$$$$
ligand
 OpenBabel11021811473D
libRbt.so/2013.1/901 2013/11/27
 27 28  0  0  0  0  0  0  0  0999 V2000
  -11.0954   37.8502   -1.9419 C   0  0  0  0  0  0  0  0  0  0  0  0
   -7.3653   41.6756   -7.8100 C   0  0  0  0  0  0  0  0  0  0  0  0
   -5.5221   39.9941   -9.4685 C   0  0  0  0  0  0  0  0  0  0  0  0
   -4.3167   40.8709   -9.8135 C   0  0  0  0  0  0  0  0  0  0  0  0
   -4.3623   42.1020   -9.0878 O   0  0  0  0  0  0  0  0  0  0  0  0
   -3.4185   43.3267   -9.5229 P   0  0  1  0  0  0  0  0  0  0  0  0
   -2.1398   43.8714   -7.0684 P   0  0  2  0  0  0  0  0  0  0  0  0
   -4.9260   38.6349   -5.9687 C   0  0  0  0  0  0  0  0  0  0  0  0
  -10.3378   38.9821   -4.0232 N   0  0  0  0  0  0  0  0  0  0  0  0
   -2.0175   42.8006  -10.0951 O   0  5  0  0  0  0  0  0  0  0  0  0
   -2.0968   44.8218   -5.9382 O   0  0  0  0  0  0  0  0  0  0  0  0
   -5.7739   39.4026   -5.1814 C   0  0  0  0  0  0  0  0  0  0  0  0
  -10.1265   38.7410   -2.7201 C   0  0  0  0  0  0  0  0  0  0  0  0
   -4.0748   44.2506  -10.6759 O   0  0  0  0  0  0  0  0  0  0  0  0
   -0.6933   43.6864   -7.7385 O   0  5  0  0  0  0  0  0  0  0  0  0
   -6.5665   40.3845   -5.7776 N   0  0  0  0  0  0  0  0  0  0  0  0
   -9.0701   39.2754   -2.0904 N   0  0  0  0  0  0  0  0  0  0  0  0
   -3.1347   44.2954   -8.2472 O   0  0  0  0  0  0  0  0  0  0  0  0
   -2.5658   42.4162   -6.5737 O   0  0  0  0  0  0  0  0  0  0  0  0
   -6.4939   40.5918   -7.1603 C   0  0  1  0  0  0  0  0  0  0  0  0
   -8.2106   40.0576   -2.7550 C   0  0  0  0  0  0  0  0  0  0  0  0
   -7.1662   40.5801   -2.1206 N   0  0  0  0  0  0  0  0  0  0  0  0
   -5.6427   39.8204   -7.9498 C   0  0  1  0  0  0  0  0  0  0  0  0
   -8.4059   40.3207   -4.1054 C   0  0  0  0  0  0  0  0  0  0  0  0
   -4.8626   38.8450   -7.3408 C   0  0  0  0  0  0  0  0  0  0  0  0
   -9.5145   39.7486   -4.7188 C   0  0  0  0  0  0  0  0  0  0  0  0
   -7.4699   41.2062   -4.9382 C   0  0  0  0  0  0  0  0  0  0  0  0
  1 13  1  0  0  0  0
  3  4  1  0  0  0  0
  4  5  1  0  0  0  0
  6  5  1  1  0  0  0
  6 10  1  0  0  0  0
  6 14  2  0  0  0  0
  6 18  1  0  0  0  0
  7 11  1  1  0  0  0
  7 15  1  0  0  0  0
  7 19  2  0  0  0  0
  7 18  1  0  0  0  0
  8 25  1  0  0  0  0
  8 12  1  0  0  0  0
  9 26  2  0  0  0  0
  9 13  1  0  0  0  0
 12 16  1  0  0  0  0
 13 17  2  0  0  0  0
 16 20  1  0  0  0  0
 16 27  1  0  0  0  0
 17 21  1  0  0  0  0
 20  2  1  6  0  0  0
 20 23  1  0  0  0  0
 21 22  1  0  0  0  0
 21 24  2  0  0  0  0
 23  3  1  6  0  0  0
 23 25  1  0  0  0  0
 24 27  1  0  0  0  0
 24 26  1  0  0  0  0
M  CHG  2  10  -1  15  -1
M  END
>  <CHROM.1>
-52.64147602,-165.47335852,-33.69252526,74.11779130,-174.90064341,97.34242927
101.98993398,-54.66503041,-5.43118978,41.40862631,-6.59527363,-2.63127408
-0.65985666,-1.74154402

>  <Name>
ligand

>  <RI>
0

>  <Rbt.Current_Directory>
/home/itssahil/PROJECTS/Mol_Feturizer/New_Systems/rnas/3D2V

>  <Rbt.Executable>
rbdock ($Id: //depot/dev/client3/rdock/2013.1/src/exe/rbdock.cxx#4 $)

>  <Rbt.Library>
libRbt.so (2013.1, Build901 2013/11/27)

>  <Rbt.Parameter_File>
/export/apps/rDock/src/rDock_2013.1_src/data/scripts/dock_solv.prm

>  <Rbt.Receptor>
prm/pocket_docking_4.prm

>  <SCORE>
-13.6759

>  <SCORE.INTER>
-13.3492

>  <SCORE.INTER.CONST>
1

>  <SCORE.INTER.POLAR>
0

>  <SCORE.INTER.ROT>
8

>  <SCORE.INTER.SOLV>
13.4672

>  <SCORE.INTER.VDW>
-22.3219

>  <SCORE.INTER.norm>
-0.494414

>  <SCORE.INTRA>
-0.32671

>  <SCORE.INTRA.DIHEDRAL>
-0.123096

>  <SCORE.INTRA.DIHEDRAL.0>
7.82666

>  <SCORE.INTRA.POLAR>
0

>  <SCORE.INTRA.POLAR.0>
0

>  <SCORE.INTRA.REPUL>
0

>  <SCORE.INTRA.REPUL.0>
0

>  <SCORE.INTRA.SOLV>
1.16461

>  <SCORE.INTRA.SOLV.lig_0>
-83.2758

>  <SCORE.INTRA.VDW>
-0.847465

>  <SCORE.INTRA.VDW.0>
-3.26816

>  <SCORE.INTRA.norm>
-0.0121004

>  <SCORE.RESTR>
0

>  <SCORE.RESTR.CAVITY>
0

>  <SCORE.RESTR.norm>
0

>  <SCORE.SYSTEM>
0

>  <SCORE.SYSTEM.CONST>
0

>  <SCORE.SYSTEM.DIHEDRAL>
0

>  <SCORE.SYSTEM.SOLV>
0

>  <SCORE.SYSTEM.norm>
0

>  <SCORE.heavy>
27

>  <SCORE.norm>
-0.506514

>  <RMSD>
2.565

$$$$
ligand
 OpenBabel11021811473D
libRbt.so/2013.1/901 2013/11/27
 27 28  0  0  0  0  0  0  0  0999 V2000
  -13.0929   37.5204   -1.6348 C   0  0  0  0  0  0  0  0  0  0  0  0
   -5.7118   38.1082   -5.0851 C   0  0  0  0  0  0  0  0  0  0  0  0
   -5.8094   38.7071   -8.0189 C   0  0  0  0  0  0  0  0  0  0  0  0
   -5.0032   39.8792   -8.5815 C   0  0  0  0  0  0  0  0  0  0  0  0
   -4.2019   40.4787   -7.5603 O   0  0  0  0  0  0  0  0  0  0  0  0
   -3.5100   41.9056   -7.8157 P   0  0  1  0  0  0  0  0  0  0  0  0
   -1.2809   43.3791   -6.9123 P   0  0  2  0  0  0  0  0  0  0  0  0
   -8.9290   40.4578   -6.7328 C   0  0  0  0  0  0  0  0  0  0  0  0
  -11.3050   37.7551   -3.3482 N   0  0  0  0  0  0  0  0  0  0  0  0
   -3.0651   42.0655   -9.3466 O   0  5  0  0  0  0  0  0  0  0  0  0
   -0.0104   43.2568   -6.1683 O   0  0  0  0  0  0  0  0  0  0  0  0
   -8.9028   40.1926   -5.3701 C   0  0  0  0  0  0  0  0  0  0  0  0
  -11.6974   37.9579   -2.0810 C   0  0  0  0  0  0  0  0  0  0  0  0
   -4.4873   43.1496   -7.4825 O   0  0  0  0  0  0  0  0  0  0  0  0
   -2.1798   44.5838   -6.3497 O   0  5  0  0  0  0  0  0  0  0  0  0
   -7.8595   39.4352   -4.8357 N   0  0  0  0  0  0  0  0  0  0  0  0
  -10.8750   38.5428   -1.1980 N   0  0  0  0  0  0  0  0  0  0  0  0
   -2.1984   42.0694   -6.8674 O   0  0  0  0  0  0  0  0  0  0  0  0
   -1.0128   43.7315   -8.4445 O   0  0  0  0  0  0  0  0  0  0  0  0
   -6.8549   38.9437   -5.6778 C   0  0  1  0  0  0  0  0  0  0  0  0
   -9.6493   38.9324   -1.5699 C   0  0  0  0  0  0  0  0  0  0  0  0
   -8.8424   39.5092   -0.6853 N   0  0  0  0  0  0  0  0  0  0  0  0
   -6.8818   39.2109   -7.0457 C   0  0  1  0  0  0  0  0  0  0  0  0
   -9.2185   38.7315   -2.8756 C   0  0  0  0  0  0  0  0  0  0  0  0
   -7.9261   39.9690   -7.5610 C   0  0  0  0  0  0  0  0  0  0  0  0
  -10.1032   38.1238   -3.7590 C   0  0  0  0  0  0  0  0  0  0  0  0
   -7.8317   39.1492   -3.3820 C   0  0  0  0  0  0  0  0  0  0  0  0
  1 13  1  0  0  0  0
  3  4  1  0  0  0  0
  4  5  1  0  0  0  0
  6  5  1  1  0  0  0
  6 10  1  0  0  0  0
  6 14  2  0  0  0  0
  6 18  1  0  0  0  0
  7 11  1  1  0  0  0
  7 15  1  0  0  0  0
  7 19  2  0  0  0  0
  7 18  1  0  0  0  0
  8 25  1  0  0  0  0
  8 12  1  0  0  0  0
  9 26  2  0  0  0  0
  9 13  1  0  0  0  0
 12 16  1  0  0  0  0
 13 17  2  0  0  0  0
 16 20  1  0  0  0  0
 16 27  1  0  0  0  0
 17 21  1  0  0  0  0
 20  2  1  1  0  0  0
 20 23  1  0  0  0  0
 21 22  1  0  0  0  0
 21 24  2  0  0  0  0
 23  3  1  1  0  0  0
 23 25  1  0  0  0  0
 24 27  1  0  0  0  0
 24 26  1  0  0  0  0
M  CHG  2  10  -1  15  -1
M  END
>  <CHROM.1>
68.35285721,-166.99917485,-34.55837260,178.95598566,-169.64469140,-112.97358987
-152.39657344,44.42899122,-6.03227505,40.53403800,-5.67144357,-2.78594704
-0.57666065,-1.80474196

>  <Name>
ligand

>  <RI>
0

>  <Rbt.Current_Directory>
/home/itssahil/PROJECTS/Mol_Feturizer/New_Systems/rnas/3D2V

>  <Rbt.Executable>
rbdock ($Id: //depot/dev/client3/rdock/2013.1/src/exe/rbdock.cxx#4 $)

>  <Rbt.Library>
libRbt.so (2013.1, Build901 2013/11/27)

>  <Rbt.Parameter_File>
/export/apps/rDock/src/rDock_2013.1_src/data/scripts/dock_solv.prm

>  <Rbt.Receptor>
prm/pocket_docking_4.prm

>  <SCORE>
-24.0608

>  <SCORE.INTER>
-24.9949

>  <SCORE.INTER.CONST>
1

>  <SCORE.INTER.POLAR>
0

>  <SCORE.INTER.ROT>
8

>  <SCORE.INTER.SOLV>
20.5664

>  <SCORE.INTER.VDW>
-32.4521

>  <SCORE.INTER.norm>
-0.925738

>  <SCORE.INTRA>
0.934155

>  <SCORE.INTRA.DIHEDRAL>
-0.486486

>  <SCORE.INTRA.DIHEDRAL.0>
7.82666

>  <SCORE.INTRA.POLAR>
0

>  <SCORE.INTRA.POLAR.0>
0

>  <SCORE.INTRA.REPUL>
0

>  <SCORE.INTRA.REPUL.0>
0

>  <SCORE.INTRA.SOLV>
1.56646

>  <SCORE.INTRA.SOLV.lig_0>
-83.2758

>  <SCORE.INTRA.VDW>
0.394167

>  <SCORE.INTRA.VDW.0>
-3.26816

>  <SCORE.INTRA.norm>
0.0345983

>  <SCORE.RESTR>
0

>  <SCORE.RESTR.CAVITY>
0

>  <SCORE.RESTR.norm>
0

>  <SCORE.SYSTEM>
0

>  <SCORE.SYSTEM.CONST>
0

>  <SCORE.SYSTEM.DIHEDRAL>
0

>  <SCORE.SYSTEM.SOLV>
0

>  <SCORE.SYSTEM.norm>
0

>  <SCORE.heavy>
27

>  <SCORE.norm>
-0.89114

>  <RMSD>
2.570

$$$$
ligand
 OpenBabel11021811473D
libRbt.so/2013.1/901 2013/11/27
 27 28  0  0  0  0  0  0  0  0999 V2000
  -12.9650   37.6874   -1.5605 C   0  0  0  0  0  0  0  0  0  0  0  0
   -7.1623   41.6830   -4.8459 C   0  0  0  0  0  0  0  0  0  0  0  0
   -7.4835   42.2036   -7.7787 C   0  0  0  0  0  0  0  0  0  0  0  0
   -6.4201   42.0534   -8.8683 C   0  0  0  0  0  0  0  0  0  0  0  0
   -5.8511   43.3229   -9.1985 O   0  0  0  0  0  0  0  0  0  0  0  0
   -6.7279   44.4172   -9.9820 P   0  0  1  0  0  0  0  0  0  0  0  0
   -5.2148   46.5801   -8.9877 P   0  0  2  0  0  0  0  0  0  0  0  0
   -8.5689   38.5728   -7.4792 C   0  0  0  0  0  0  0  0  0  0  0  0
  -11.3327   37.7982   -3.4341 N   0  0  0  0  0  0  0  0  0  0  0  0
   -7.2041   43.8620  -11.4075 O   0  5  0  0  0  0  0  0  0  0  0  0
   -4.5982   47.8678   -9.3675 O   0  0  0  0  0  0  0  0  0  0  0  0
   -8.4279   38.3101   -6.1230 C   0  0  0  0  0  0  0  0  0  0  0  0
  -11.5993   38.0516   -2.1435 C   0  0  0  0  0  0  0  0  0  0  0  0
   -8.0640   44.8474   -9.1799 O   0  0  0  0  0  0  0  0  0  0  0  0
   -4.1487   45.5954   -8.3026 O   0  5  0  0  0  0  0  0  0  0  0  0
   -7.9761   39.3178   -5.2696 N   0  0  0  0  0  0  0  0  0  0  0  0
  -10.6765   38.6233   -1.3563 N   0  0  0  0  0  0  0  0  0  0  0  0
   -5.8578   45.7727  -10.2099 O   0  0  0  0  0  0  0  0  0  0  0  0
   -6.3558   46.7949   -7.8941 O   0  0  0  0  0  0  0  0  0  0  0  0
   -7.6621   40.5796   -5.7887 C   0  0  1  0  0  0  0  0  0  0  0  0
   -9.4749   38.9491   -1.8486 C   0  0  0  0  0  0  0  0  0  0  0  0
   -8.5677   39.5136   -1.0581 N   0  0  0  0  0  0  0  0  0  0  0  0
   -7.8045   40.8424   -7.1502 C   0  0  2  0  0  0  0  0  0  0  0  0
   -9.1735   38.6950   -3.1810 C   0  0  0  0  0  0  0  0  0  0  0  0
   -8.2582   39.8290   -7.9855 C   0  0  0  0  0  0  0  0  0  0  0  0
  -10.1592   38.1031   -3.9624 C   0  0  0  0  0  0  0  0  0  0  0  0
   -7.8227   39.0382   -3.8225 C   0  0  0  0  0  0  0  0  0  0  0  0
  1 13  1  0  0  0  0
  3  4  1  0  0  0  0
  4  5  1  0  0  0  0
  6  5  1  1  0  0  0
  6 10  1  0  0  0  0
  6 14  2  0  0  0  0
  6 18  1  0  0  0  0
  7 11  1  6  0  0  0
  7 15  1  0  0  0  0
  7 19  2  0  0  0  0
  7 18  1  0  0  0  0
  8 25  1  0  0  0  0
  8 12  1  0  0  0  0
  9 26  2  0  0  0  0
  9 13  1  0  0  0  0
 12 16  1  0  0  0  0
 13 17  2  0  0  0  0
 16 20  1  0  0  0  0
 16 27  1  0  0  0  0
 17 21  1  0  0  0  0
 20  2  1  1  0  0  0
 20 23  1  0  0  0  0
 21 22  1  0  0  0  0
 21 24  2  0  0  0  0
 23  3  1  6  0  0  0
 23 25  1  0  0  0  0
 24 27  1  0  0  0  0
 24 26  1  0  0  0  0
M  CHG  2  10  -1  15  -1
M  END
>  <CHROM.1>
-164.03260546,-70.08225669,-60.26068558,-57.34758637,-173.07343090,121.91940289
-151.05060172,-62.98447279,-7.71525982,42.00623031,-6.64061658,-2.66199796
-1.09066077,-1.78102978

>  <Name>
ligand

>  <RI>
0

>  <Rbt.Current_Directory>
/home/itssahil/PROJECTS/Mol_Feturizer/New_Systems/rnas/3D2V

>  <Rbt.Executable>
rbdock ($Id: //depot/dev/client3/rdock/2013.1/src/exe/rbdock.cxx#4 $)

>  <Rbt.Library>
libRbt.so (2013.1, Build901 2013/11/27)

>  <Rbt.Parameter_File>
/export/apps/rDock/src/rDock_2013.1_src/data/scripts/dock_solv.prm

>  <Rbt.Receptor>
prm/pocket_docking_7.prm

>  <SCORE>
-20.6333

>  <SCORE.INTER>
-21.7195

>  <SCORE.INTER.CONST>
1

>  <SCORE.INTER.POLAR>
0

>  <SCORE.INTER.ROT>
8

>  <SCORE.INTER.SOLV>
24.162

>  <SCORE.INTER.VDW>
-31.467

>  <SCORE.INTER.norm>
-0.804427

>  <SCORE.INTRA>
1.08622

>  <SCORE.INTRA.DIHEDRAL>
-1.1381

>  <SCORE.INTRA.DIHEDRAL.0>
7.82666

>  <SCORE.INTRA.POLAR>
0

>  <SCORE.INTRA.POLAR.0>
0

>  <SCORE.INTRA.REPUL>
0

>  <SCORE.INTRA.REPUL.0>
0

>  <SCORE.INTRA.SOLV>
1.48563

>  <SCORE.INTRA.SOLV.lig_0>
-83.2758

>  <SCORE.INTRA.VDW>
0.912448

>  <SCORE.INTRA.VDW.0>
-3.26816

>  <SCORE.INTRA.norm>
0.0402302

>  <SCORE.RESTR>
0

>  <SCORE.RESTR.CAVITY>
0

>  <SCORE.RESTR.norm>
0

>  <SCORE.SYSTEM>
0

>  <SCORE.SYSTEM.CONST>
0

>  <SCORE.SYSTEM.DIHEDRAL>
0

>  <SCORE.SYSTEM.SOLV>
0

>  <SCORE.SYSTEM.norm>
0

>  <SCORE.heavy>
27

>  <SCORE.norm>
-0.764197

>  <RMSD>
2.571

$$$$
ligand
 OpenBabel11021811473D
libRbt.so/2013.1/901 2013/11/27
 27 28  0  0  0  0  0  0  0  0999 V2000
  -13.3026   37.4496   -1.6560 C   0  0  0  0  0  0  0  0  0  0  0  0
   -6.0431   38.1201   -5.2041 C   0  0  0  0  0  0  0  0  0  0  0  0
   -6.1862   38.4271   -8.1808 C   0  0  0  0  0  0  0  0  0  0  0  0
   -5.1286   39.4875   -8.4933 C   0  0  0  0  0  0  0  0  0  0  0  0
   -5.7152   40.6039   -9.1671 O   0  0  0  0  0  0  0  0  0  0  0  0
   -4.8726   41.9571   -9.3637 P   0  0  1  0  0  0  0  0  0  0  0  0
   -2.5255   42.8280  -10.6635 P   0  0  2  0  0  0  0  0  0  0  0  0
   -9.3339   40.2220   -7.0314 C   0  0  0  0  0  0  0  0  0  0  0  0
  -11.6256   37.8416   -3.4507 N   0  0  0  0  0  0  0  0  0  0  0  0
   -5.7775   43.1121  -10.0074 O   0  5  0  0  0  0  0  0  0  0  0  0
   -1.5180   42.4445  -11.6736 O   0  0  0  0  0  0  0  0  0  0  0  0
   -9.2869   40.0918   -5.6497 C   0  0  0  0  0  0  0  0  0  0  0  0
  -11.9401   37.9373   -2.1496 C   0  0  0  0  0  0  0  0  0  0  0  0
   -4.2874   42.5436   -7.9754 O   0  0  0  0  0  0  0  0  0  0  0  0
   -1.8397   43.2225   -9.2671 O   0  5  0  0  0  0  0  0  0  0  0  0
   -8.2199   39.4147   -5.0575 N   0  0  0  0  0  0  0  0  0  0  0  0
  -11.0685   38.4583   -1.2740 N   0  0  0  0  0  0  0  0  0  0  0  0
   -3.5967   41.6859  -10.3359 O   0  0  0  0  0  0  0  0  0  0  0  0
   -3.3273   44.1280  -11.1229 O   0  0  0  0  0  0  0  0  0  0  0  0
   -7.2124   38.8668   -5.8607 C   0  0  1  0  0  0  0  0  0  0  0  0
   -9.8706   38.8904   -1.6872 C   0  0  0  0  0  0  0  0  0  0  0  0
   -9.0142   39.4032   -0.8097 N   0  0  0  0  0  0  0  0  0  0  0  0
   -7.2603   38.9984   -7.2475 C   0  0  1  0  0  0  0  0  0  0  0  0
   -9.5200   38.8002   -3.0288 C   0  0  0  0  0  0  0  0  0  0  0  0
   -8.3281   39.6781   -7.8208 C   0  0  0  0  0  0  0  0  0  0  0  0
  -10.4537   38.2557   -3.9029 C   0  0  0  0  0  0  0  0  0  0  0  0
   -8.1698   39.2728   -3.5833 C   0  0  0  0  0  0  0  0  0  0  0  0
  1 13  1  0  0  0  0
  3  4  1  0  0  0  0
  4  5  1  0  0  0  0
  6  5  1  1  0  0  0
  6 10  1  0  0  0  0
  6 14  2  0  0  0  0
  6 18  1  0  0  0  0
  7 11  1  6  0  0  0
  7 15  1  0  0  0  0
  7 19  2  0  0  0  0
  7 18  1  0  0  0  0
  8 25  1  0  0  0  0
  8 12  1  0  0  0  0
  9 26  2  0  0  0  0
  9 13  1  0  0  0  0
 12 16  1  0  0  0  0
 13 17  2  0  0  0  0
 16 20  1  0  0  0  0
 16 27  1  0  0  0  0
 17 21  1  0  0  0  0
 20  2  1  1  0  0  0
 20 23  1  0  0  0  0
 21 22  1  0  0  0  0
 21 24  2  0  0  0  0
 23  3  1  1  0  0  0
 23 25  1  0  0  0  0
 24 27  1  0  0  0  0
 24 26  1  0  0  0  0
M  CHG  2  10  -1  15  -1
M  END
>  <CHROM.1>
-61.68961206,168.85633803,-174.22848117,-176.95709232,-173.86171263,-93.91836480
-163.77422411,47.52939035,-6.74986374,40.38616401,-6.82987455,2.37869238
0.46465432,1.63120959

>  <Name>
ligand

>  <RI>
0

>  <Rbt.Current_Directory>
/home/itssahil/PROJECTS/Mol_Feturizer/New_Systems/rnas/3D2V

>  <Rbt.Executable>
rbdock ($Id: //depot/dev/client3/rdock/2013.1/src/exe/rbdock.cxx#4 $)

>  <Rbt.Library>
libRbt.so (2013.1, Build901 2013/11/27)

>  <Rbt.Parameter_File>
/export/apps/rDock/src/rDock_2013.1_src/data/scripts/dock_solv.prm

>  <Rbt.Receptor>
prm/pocket_docking_3.prm

>  <SCORE>
-24.0722

>  <SCORE.INTER>
-24.2634

>  <SCORE.INTER.CONST>
1

>  <SCORE.INTER.POLAR>
0

>  <SCORE.INTER.ROT>
8

>  <SCORE.INTER.SOLV>
20.0507

>  <SCORE.INTER.VDW>
-31.7925

>  <SCORE.INTER.norm>
-0.898645

>  <SCORE.INTRA>
0.191183

>  <SCORE.INTRA.DIHEDRAL>
-1.89016

>  <SCORE.INTRA.DIHEDRAL.0>
7.82666

>  <SCORE.INTRA.POLAR>
0

>  <SCORE.INTRA.POLAR.0>
0

>  <SCORE.INTRA.REPUL>
0

>  <SCORE.INTRA.REPUL.0>
0

>  <SCORE.INTRA.SOLV>
1.31381

>  <SCORE.INTRA.SOLV.lig_0>
-83.2758

>  <SCORE.INTRA.VDW>
0.479358

>  <SCORE.INTRA.VDW.0>
-3.26816

>  <SCORE.INTRA.norm>
0.00708087

>  <SCORE.RESTR>
0

>  <SCORE.RESTR.CAVITY>
0

>  <SCORE.RESTR.norm>
0

>  <SCORE.SYSTEM>
0

>  <SCORE.SYSTEM.CONST>
0

>  <SCORE.SYSTEM.DIHEDRAL>
0

>  <SCORE.SYSTEM.SOLV>
0

>  <SCORE.SYSTEM.norm>
0

>  <SCORE.heavy>
27

>  <SCORE.norm>
-0.891564

>  <RMSD>
2.577

$$$$
ligand
 OpenBabel11021811473D
libRbt.so/2013.1/901 2013/11/27
 27 28  0  0  0  0  0  0  0  0999 V2000
  -12.1694   37.5393   -1.9711 C   0  0  0  0  0  0  0  0  0  0  0  0
   -5.7483   41.6598   -4.5373 C   0  0  0  0  0  0  0  0  0  0  0  0
   -4.2779   40.4884   -6.8699 C   0  0  0  0  0  0  0  0  0  0  0  0
   -5.3553   41.1660   -7.7189 C   0  0  0  0  0  0  0  0  0  0  0  0
   -4.7672   41.8684   -8.8166 O   0  0  0  0  0  0  0  0  0  0  0  0
   -5.6753   42.8134   -9.7452 P   0  0  1  0  0  0  0  0  0  0  0  0
   -6.2407   45.1044   -8.1999 P   0  0  2  0  0  0  0  0  0  0  0  0
   -5.3640   37.3866   -4.9594 C   0  0  0  0  0  0  0  0  0  0  0  0
   -9.9957   38.3541   -1.0777 N   0  0  0  0  0  0  0  0  0  0  0  0
   -5.3372   42.5951  -11.2961 O   0  5  0  0  0  0  0  0  0  0  0  0
   -6.4065   44.2926   -6.9768 O   0  0  0  0  0  0  0  0  0  0  0  0
   -6.0502   37.9084   -3.8708 C   0  0  0  0  0  0  0  0  0  0  0  0
  -10.7795   38.1513   -2.1480 C   0  0  0  0  0  0  0  0  0  0  0  0
   -7.2584   42.5365   -9.5704 O   0  0  0  0  0  0  0  0  0  0  0  0
   -7.6578   45.5222   -8.8267 O   0  5  0  0  0  0  0  0  0  0  0  0
   -6.1781   39.2915   -3.7358 N   0  0  0  0  0  0  0  0  0  0  0  0
  -10.3547   38.4810   -3.3763 N   0  0  0  0  0  0  0  0  0  0  0  0
   -5.4254   44.3759   -9.3677 O   0  0  0  0  0  0  0  0  0  0  0  0
   -5.5000   46.4792   -7.8756 O   0  0  0  0  0  0  0  0  0  0  0  0
   -5.6076   40.1393   -4.6928 C   0  0  1  0  0  0  0  0  0  0  0  0
   -9.1409   39.0183   -3.5511 C   0  0  0  0  0  0  0  0  0  0  0  0
   -8.7316   39.3428   -4.7732 N   0  0  0  0  0  0  0  0  0  0  0  0
   -4.9194   39.6145   -5.7856 C   0  0  2  0  0  0  0  0  0  0  0  0
   -8.3113   39.2405   -2.4588 C   0  0  0  0  0  0  0  0  0  0  0  0
   -4.8038   38.2351   -5.9065 C   0  0  0  0  0  0  0  0  0  0  0  0
   -8.7898   38.8823   -1.2037 C   0  0  0  0  0  0  0  0  0  0  0  0
   -6.9078   39.8498   -2.5732 C   0  0  0  0  0  0  0  0  0  0  0  0
  1 13  1  0  0  0  0
  3  4  1  0  0  0  0
  4  5  1  0  0  0  0
  6  5  1  1  0  0  0
  6 10  1  0  0  0  0
  6 14  2  0  0  0  0
  6 18  1  0  0  0  0
  7 11  1  1  0  0  0
  7 15  1  0  0  0  0
  7 19  2  0  0  0  0
  7 18  1  0  0  0  0
  8 25  1  0  0  0  0
  8 12  1  0  0  0  0
  9 26  2  0  0  0  0
  9 13  1  0  0  0  0
 12 16  1  0  0  0  0
 13 17  2  0  0  0  0
 16 20  1  0  0  0  0
 16 27  1  0  0  0  0
 17 21  1  0  0  0  0
 20  2  1  6  0  0  0
 20 23  1  0  0  0  0
 21 22  1  0  0  0  0
 21 24  2  0  0  0  0
 23  3  1  1  0  0  0
 23 25  1  0  0  0  0
 24 27  1  0  0  0  0
 24 26  1  0  0  0  0
M  CHG  2  10  -1  15  -1
M  END
>  <CHROM.1>
-173.90874756,-172.27171769,-136.18349017,-86.55688362,42.51735685,-69.80357117
-41.74904049,-53.69827693,-6.84481855,41.20994308,-6.08193274,2.00183668
-0.56726534,2.52138057

>  <Name>
ligand

>  <RI>
0

>  <Rbt.Current_Directory>
/home/itssahil/PROJECTS/Mol_Feturizer/New_Systems/rnas/3D2V

>  <Rbt.Executable>
rbdock ($Id: //depot/dev/client3/rdock/2013.1/src/exe/rbdock.cxx#4 $)

>  <Rbt.Library>
libRbt.so (2013.1, Build901 2013/11/27)

>  <Rbt.Parameter_File>
/export/apps/rDock/src/rDock_2013.1_src/data/scripts/dock_solv.prm

>  <Rbt.Receptor>
prm/pocket_docking_5.prm

>  <SCORE>
-21.1583

>  <SCORE.INTER>
-22.1634

>  <SCORE.INTER.CONST>
1

>  <SCORE.INTER.POLAR>
0

>  <SCORE.INTER.ROT>
8

>  <SCORE.INTER.SOLV>
12.7113

>  <SCORE.INTER.VDW>
-27.946

>  <SCORE.INTER.norm>
-0.820866

>  <SCORE.INTRA>
1.00503

>  <SCORE.INTRA.DIHEDRAL>
1.18995

>  <SCORE.INTRA.DIHEDRAL.0>
7.82666

>  <SCORE.INTRA.POLAR>
0

>  <SCORE.INTRA.POLAR.0>
0

>  <SCORE.INTRA.REPUL>
0

>  <SCORE.INTRA.REPUL.0>
0

>  <SCORE.INTRA.SOLV>
1.49413

>  <SCORE.INTRA.SOLV.lig_0>
-83.2758

>  <SCORE.INTRA.VDW>
-0.337014

>  <SCORE.INTRA.VDW.0>
-3.26816

>  <SCORE.INTRA.norm>
0.0372232

>  <SCORE.RESTR>
0

>  <SCORE.RESTR.CAVITY>
0

>  <SCORE.RESTR.norm>
0

>  <SCORE.SYSTEM>
0

>  <SCORE.SYSTEM.CONST>
0

>  <SCORE.SYSTEM.DIHEDRAL>
0

>  <SCORE.SYSTEM.SOLV>
0

>  <SCORE.SYSTEM.norm>
0

>  <SCORE.heavy>
27

>  <SCORE.norm>
-0.783643

>  <RMSD>
2.579

$$$$
ligand
 OpenBabel11021811473D
libRbt.so/2013.1/901 2013/11/27
 27 28  0  0  0  0  0  0  0  0999 V2000
  -12.5157   37.5068   -2.1707 C   0  0  0  0  0  0  0  0  0  0  0  0
   -6.2310   38.9574   -5.7699 C   0  0  0  0  0  0  0  0  0  0  0  0
   -6.2850   41.2183   -7.7348 C   0  0  0  0  0  0  0  0  0  0  0  0
   -4.7584   41.2756   -7.8187 C   0  0  0  0  0  0  0  0  0  0  0  0
   -4.3408   41.8280   -9.0696 O   0  0  0  0  0  0  0  0  0  0  0  0
   -4.6495   41.0443  -10.4373 P   0  0  1  0  0  0  0  0  0  0  0  0
   -5.4597   43.3130  -11.9046 P   0  0  2  0  0  0  0  0  0  0  0  0
   -7.6415   42.8547   -4.5832 C   0  0  0  0  0  0  0  0  0  0  0  0
  -10.5787   38.0734   -3.6248 N   0  0  0  0  0  0  0  0  0  0  0  0
   -3.3209   40.8713  -11.3159 O   0  5  0  0  0  0  0  0  0  0  0  0
   -5.1074   43.3242  -13.3393 O   0  0  0  0  0  0  0  0  0  0  0  0
   -7.6244   41.8209   -3.6562 C   0  0  0  0  0  0  0  0  0  0  0  0
  -11.0937   38.0257   -2.3864 C   0  0  0  0  0  0  0  0  0  0  0  0
   -5.2433   39.5604  -10.1942 O   0  0  0  0  0  0  0  0  0  0  0  0
   -4.2887   43.9420  -11.0052 O   0  5  0  0  0  0  0  0  0  0  0  0
   -7.1643   40.5601   -4.0390 N   0  0  0  0  0  0  0  0  0  0  0  0
  -10.3713   38.4300   -1.3316 N   0  0  0  0  0  0  0  0  0  0  0  0
   -5.7551   41.8572  -11.3110 O   0  0  0  0  0  0  0  0  0  0  0  0
   -6.7412   44.2204  -11.6250 O   0  0  0  0  0  0  0  0  0  0  0  0
   -6.7326   40.3471   -5.3536 C   0  0  1  0  0  0  0  0  0  0  0  0
   -9.1243   38.8871   -1.5005 C   0  0  0  0  0  0  0  0  0  0  0  0
   -8.4173   39.2833   -0.4472 N   0  0  0  0  0  0  0  0  0  0  0  0
   -6.7497   41.3856   -6.2833 C   0  0  2  0  0  0  0  0  0  0  0  0
   -8.5674   38.9443   -2.7723 C   0  0  0  0  0  0  0  0  0  0  0  0
   -7.2080   42.6355   -5.8850 C   0  0  0  0  0  0  0  0  0  0  0  0
   -9.3513   38.5174   -3.8381 C   0  0  0  0  0  0  0  0  0  0  0  0
   -7.1480   39.4554   -3.0515 C   0  0  0  0  0  0  0  0  0  0  0  0
  1 13  1  0  0  0  0
  3  4  1  0  0  0  0
  4  5  1  0  0  0  0
  6  5  1  1  0  0  0
  6 10  1  0  0  0  0
  6 14  2  0  0  0  0
  6 18  1  0  0  0  0
  7 11  1  6  0  0  0
  7 15  1  0  0  0  0
  7 19  2  0  0  0  0
  7 18  1  0  0  0  0
  8 25  1  0  0  0  0
  8 12  1  0  0  0  0
  9 26  2  0  0  0  0
  9 13  1  0  0  0  0
 12 16  1  0  0  0  0
 13 17  2  0  0  0  0
 16 20  1  0  0  0  0
 16 27  1  0  0  0  0
 17 21  1  0  0  0  0
 20  2  1  1  0  0  0
 20 23  1  0  0  0  0
 21 22  1  0  0  0  0
 21 24  2  0  0  0  0
 23  3  1  6  0  0  0
 23 25  1  0  0  0  0
 24 27  1  0  0  0  0
 24 26  1  0  0  0  0
M  CHG  2  10  -1  15  -1
M  END
>  <CHROM.1>
-148.96801011,-65.14503327,-128.24780647,64.32034352,100.87179539,-79.78275162
-124.23760700,73.40722212,-6.84631636,40.84998758,-7.03491418,2.30086092
0.86983857,1.35553812

>  <Name>
ligand

>  <RI>
0

>  <Rbt.Current_Directory>
/home/itssahil/PROJECTS/Mol_Feturizer/New_Systems/rnas/3D2V

>  <Rbt.Executable>
rbdock ($Id: //depot/dev/client3/rdock/2013.1/src/exe/rbdock.cxx#4 $)

>  <Rbt.Library>
libRbt.so (2013.1, Build901 2013/11/27)

>  <Rbt.Parameter_File>
/export/apps/rDock/src/rDock_2013.1_src/data/scripts/dock_solv.prm

>  <Rbt.Receptor>
prm/pocket_docking_5.prm

>  <SCORE>
-15.4427

>  <SCORE.INTER>
-17.9849

>  <SCORE.INTER.CONST>
1

>  <SCORE.INTER.POLAR>
0

>  <SCORE.INTER.ROT>
8

>  <SCORE.INTER.SOLV>
24.9711

>  <SCORE.INTER.VDW>
-29.247

>  <SCORE.INTER.norm>
-0.666108

>  <SCORE.INTRA>
2.54224

>  <SCORE.INTRA.DIHEDRAL>
4.53125

>  <SCORE.INTRA.DIHEDRAL.0>
7.82666

>  <SCORE.INTRA.POLAR>
0

>  <SCORE.INTRA.POLAR.0>
0

>  <SCORE.INTRA.REPUL>
0

>  <SCORE.INTRA.REPUL.0>
0

>  <SCORE.INTRA.SOLV>
0.204966

>  <SCORE.INTRA.SOLV.lig_0>
-83.2758

>  <SCORE.INTRA.VDW>
0.174131

>  <SCORE.INTRA.VDW.0>
-3.26816

>  <SCORE.INTRA.norm>
0.094157

>  <SCORE.RESTR>
0

>  <SCORE.RESTR.CAVITY>
0

>  <SCORE.RESTR.norm>
0

>  <SCORE.SYSTEM>
0

>  <SCORE.SYSTEM.CONST>
0

>  <SCORE.SYSTEM.DIHEDRAL>
0

>  <SCORE.SYSTEM.SOLV>
0

>  <SCORE.SYSTEM.norm>
0

>  <SCORE.heavy>
27

>  <SCORE.norm>
-0.57195

>  <RMSD>
2.600

$$$$
ligand
 OpenBabel11021811473D
libRbt.so/2013.1/901 2013/11/27
 27 28  0  0  0  0  0  0  0  0999 V2000
  -12.9606   37.5622   -2.1554 C   0  0  0  0  0  0  0  0  0  0  0  0
   -5.3292   38.6052   -4.6462 C   0  0  0  0  0  0  0  0  0  0  0  0
   -4.9687   40.3533   -7.0524 C   0  0  0  0  0  0  0  0  0  0  0  0
   -5.5749   39.8284   -8.3553 C   0  0  0  0  0  0  0  0  0  0  0  0
   -4.6535   39.9778   -9.4383 O   0  0  0  0  0  0  0  0  0  0  0  0
   -4.2105   41.4447   -9.9199 P   0  0  1  0  0  0  0  0  0  0  0  0
   -2.3915   43.4642   -9.1653 P   0  0  2  0  0  0  0  0  0  0  0  0
   -7.9284   41.9806   -5.3079 C   0  0  0  0  0  0  0  0  0  0  0  0
  -10.8036   38.4390   -1.2804 N   0  0  0  0  0  0  0  0  0  0  0  0
   -3.5654   41.4005  -11.3859 O   0  5  0  0  0  0  0  0  0  0  0  0
   -1.6287   43.5080  -10.4297 O   0  0  0  0  0  0  0  0  0  0  0  0
   -8.1127   41.1838   -4.1857 C   0  0  0  0  0  0  0  0  0  0  0  0
  -11.5075   38.0022   -2.3362 C   0  0  0  0  0  0  0  0  0  0  0  0
   -5.4446   42.4869   -9.9856 O   0  0  0  0  0  0  0  0  0  0  0  0
   -1.4485   43.7471   -7.8979 O   0  5  0  0  0  0  0  0  0  0  0  0
   -7.2692   40.0932   -3.9691 N   0  0  0  0  0  0  0  0  0  0  0  0
  -10.9475   37.9471   -3.5533 N   0  0  0  0  0  0  0  0  0  0  0  0
   -3.1212   42.0684   -8.8850 O   0  0  0  0  0  0  0  0  0  0  0  0
   -3.5023   44.6082   -9.1296 O   0  0  0  0  0  0  0  0  0  0  0  0
   -6.2517   39.8081   -4.8876 C   0  0  1  0  0  0  0  0  0  0  0  0
   -9.6765   38.3284   -3.7314 C   0  0  0  0  0  0  0  0  0  0  0  0
   -9.1329   38.2712   -4.9428 N   0  0  0  0  0  0  0  0  0  0  0  0
   -6.0672   40.6088   -6.0136 C   0  0  1  0  0  0  0  0  0  0  0  0
   -8.9272   38.7867   -2.6547 C   0  0  0  0  0  0  0  0  0  0  0  0
   -6.9139   41.6924   -6.2126 C   0  0  0  0  0  0  0  0  0  0  0  0
   -9.5455   38.8257   -1.4102 C   0  0  0  0  0  0  0  0  0  0  0  0
   -7.4664   39.2405   -2.7734 C   0  0  0  0  0  0  0  0  0  0  0  0
  1 13  1  0  0  0  0
  3  4  1  0  0  0  0
  4  5  1  0  0  0  0
  6  5  1  1  0  0  0
  6 10  1  0  0  0  0
  6 14  2  0  0  0  0
  6 18  1  0  0  0  0
  7 11  1  6  0  0  0
  7 15  1  0  0  0  0
  7 19  2  0  0  0  0
  7 18  1  0  0  0  0
  8 25  1  0  0  0  0
  8 12  1  0  0  0  0
  9 26  2  0  0  0  0
  9 13  1  0  0  0  0
 12 16  1  0  0  0  0
 13 17  2  0  0  0  0
 16 20  1  0  0  0  0
 16 27  1  0  0  0  0
 17 21  1  0  0  0  0
 20  2  1  1  0  0  0
 20 23  1  0  0  0  0
 21 22  1  0  0  0  0
 21 24  2  0  0  0  0
 23  3  1  1  0  0  0
 23 25  1  0  0  0  0
 24 27  1  0  0  0  0
 24 26  1  0  0  0  0
M  CHG  2  10  -1  15  -1
M  END
>  <CHROM.1>
162.07079700,-64.83591920,-162.28557504,174.39986406,-58.46156504,108.34807836
43.83776791,51.03988898,-6.19252789,40.70237293,-6.47613848,2.58326916,0.67866790
1.32930362

>  <Name>
ligand

>  <RI>
0

>  <Rbt.Current_Directory>
/home/itssahil/PROJECTS/Mol_Feturizer/New_Systems/rnas/3D2V

>  <Rbt.Executable>
rbdock ($Id: //depot/dev/client3/rdock/2013.1/src/exe/rbdock.cxx#4 $)

>  <Rbt.Library>
libRbt.so (2013.1, Build901 2013/11/27)

>  <Rbt.Parameter_File>
/export/apps/rDock/src/rDock_2013.1_src/data/scripts/dock_solv.prm

>  <Rbt.Receptor>
prm/pocket_docking_3.prm

>  <SCORE>
-22.0512

>  <SCORE.INTER>
-22.8366

>  <SCORE.INTER.CONST>
1

>  <SCORE.INTER.POLAR>
0

>  <SCORE.INTER.ROT>
8

>  <SCORE.INTER.SOLV>
13.9127

>  <SCORE.INTER.VDW>
-28.7953

>  <SCORE.INTER.norm>
-0.845801

>  <SCORE.INTRA>
0.785442

>  <SCORE.INTRA.DIHEDRAL>
-0.884733

>  <SCORE.INTRA.DIHEDRAL.0>
7.82666

>  <SCORE.INTRA.POLAR>
0

>  <SCORE.INTRA.POLAR.0>
0

>  <SCORE.INTRA.REPUL>
0

>  <SCORE.INTRA.REPUL.0>
0

>  <SCORE.INTRA.SOLV>
3.15782

>  <SCORE.INTRA.SOLV.lig_0>
-83.2758

>  <SCORE.INTRA.VDW>
-0.351104

>  <SCORE.INTRA.VDW.0>
-3.26816

>  <SCORE.INTRA.norm>
0.0290904

>  <SCORE.RESTR>
0

>  <SCORE.RESTR.CAVITY>
0

>  <SCORE.RESTR.norm>
0

>  <SCORE.SYSTEM>
0

>  <SCORE.SYSTEM.CONST>
0

>  <SCORE.SYSTEM.DIHEDRAL>
0

>  <SCORE.SYSTEM.SOLV>
0

>  <SCORE.SYSTEM.norm>
0

>  <SCORE.heavy>
27

>  <SCORE.norm>
-0.816711

>  <RMSD>
2.602

$$$$
ligand
 OpenBabel11021811473D
libRbt.so/2013.1/901 2013/11/27
 27 28  0  0  0  0  0  0  0  0999 V2000
  -13.0436   37.6344   -1.8183 C   0  0  0  0  0  0  0  0  0  0  0  0
   -5.7966   38.2599   -5.0293 C   0  0  0  0  0  0  0  0  0  0  0  0
   -5.6564   40.0149   -7.4534 C   0  0  0  0  0  0  0  0  0  0  0  0
   -4.1811   40.2191   -7.1035 C   0  0  0  0  0  0  0  0  0  0  0  0
   -3.9796   41.4915   -6.4833 O   0  0  0  0  0  0  0  0  0  0  0  0
   -4.0295   42.8326   -7.3658 P   0  0  1  0  0  0  0  0  0  0  0  0
   -2.8535   44.4629   -5.3871 P   0  0  2  0  0  0  0  0  0  0  0  0
   -8.1284   41.8795   -5.2481 C   0  0  0  0  0  0  0  0  0  0  0  0
  -11.0546   37.8655   -3.2941 N   0  0  0  0  0  0  0  0  0  0  0  0
   -2.7606   42.9305   -8.3392 O   0  5  0  0  0  0  0  0  0  0  0  0
   -2.5359   43.3657   -4.4501 O   0  0  0  0  0  0  0  0  0  0  0  0
   -8.2080   41.0809   -4.1149 C   0  0  0  0  0  0  0  0  0  0  0  0
  -11.5846   38.0161   -2.0704 C   0  0  0  0  0  0  0  0  0  0  0  0
   -5.3435   42.9227   -8.3033 O   0  0  0  0  0  0  0  0  0  0  0  0
   -3.2659   45.8035   -4.6070 O   0  5  0  0  0  0  0  0  0  0  0  0
   -7.4504   39.9111   -4.0421 N   0  0  0  0  0  0  0  0  0  0  0  0
  -10.8450   38.4999   -1.0620 N   0  0  0  0  0  0  0  0  0  0  0  0
   -4.0509   44.1396   -6.3974 O   0  0  0  0  0  0  0  0  0  0  0  0
   -1.5766   44.8564   -6.2580 O   0  0  0  0  0  0  0  0  0  0  0  0
   -6.6248   39.5495   -5.1135 C   0  0  1  0  0  0  0  0  0  0  0  0
   -9.5656   38.8392   -1.2632 C   0  0  0  0  0  0  0  0  0  0  0  0
   -8.8419   39.3159   -0.2555 N   0  0  0  0  0  0  0  0  0  0  0  0
   -6.5453   40.3521   -6.2504 C   0  0  1  0  0  0  0  0  0  0  0  0
   -8.9928   38.6907   -2.5205 C   0  0  0  0  0  0  0  0  0  0  0  0
   -7.3038   41.5150   -6.3055 C   0  0  0  0  0  0  0  0  0  0  0  0
   -9.7953   38.1877   -3.5380 C   0  0  0  0  0  0  0  0  0  0  0  0
   -7.5363   39.0566   -2.8345 C   0  0  0  0  0  0  0  0  0  0  0  0
  1 13  1  0  0  0  0
  3  4  1  0  0  0  0
  4  5  1  0  0  0  0
  6  5  1  1  0  0  0
  6 10  1  0  0  0  0
  6 14  2  0  0  0  0
  6 18  1  0  0  0  0
  7 11  1  1  0  0  0
  7 15  1  0  0  0  0
  7 19  2  0  0  0  0
  7 18  1  0  0  0  0
  8 25  1  0  0  0  0
  8 12  1  0  0  0  0
  9 26  2  0  0  0  0
  9 13  1  0  0  0  0
 12 16  1  0  0  0  0
 13 17  2  0  0  0  0
 16 20  1  0  0  0  0
 16 27  1  0  0  0  0
 17 21  1  0  0  0  0
 20  2  1  1  0  0  0
 20 23  1  0  0  0  0
 21 22  1  0  0  0  0
 21 24  2  0  0  0  0
 23  3  1  1  0  0  0
 23 25  1  0  0  0  0
 24 27  1  0  0  0  0
 24 26  1  0  0  0  0
M  CHG  2  10  -1  15  -1
M  END
>  <CHROM.1>
-48.68733749,-74.14852008,-69.88335839,61.25240924,-55.40823053,-71.72394970
-130.09499349,53.50970286,-6.27251431,41.16525497,-4.91931778,-2.99280749
-0.74558961,-2.03141896

>  <Name>
ligand

>  <RI>
0

>  <Rbt.Current_Directory>
/home/itssahil/PROJECTS/Mol_Feturizer/New_Systems/rnas/3D2V

>  <Rbt.Executable>
rbdock ($Id: //depot/dev/client3/rdock/2013.1/src/exe/rbdock.cxx#4 $)

>  <Rbt.Library>
libRbt.so (2013.1, Build901 2013/11/27)

>  <Rbt.Parameter_File>
/export/apps/rDock/src/rDock_2013.1_src/data/scripts/dock_solv.prm

>  <Rbt.Receptor>
prm/pocket_docking_5.prm

>  <SCORE>
-18.8346

>  <SCORE.INTER>
-17.7627

>  <SCORE.INTER.CONST>
1

>  <SCORE.INTER.POLAR>
0

>  <SCORE.INTER.ROT>
8

>  <SCORE.INTER.SOLV>
15.6121

>  <SCORE.INTER.VDW>
-25.9791

>  <SCORE.INTER.norm>
-0.657876

>  <SCORE.INTRA>
-1.07197

>  <SCORE.INTRA.DIHEDRAL>
-1.0161

>  <SCORE.INTRA.DIHEDRAL.0>
7.82666

>  <SCORE.INTRA.POLAR>
0

>  <SCORE.INTRA.POLAR.0>
0

>  <SCORE.INTRA.REPUL>
0

>  <SCORE.INTRA.REPUL.0>
0

>  <SCORE.INTRA.SOLV>
-0.247592

>  <SCORE.INTRA.SOLV.lig_0>
-83.2758

>  <SCORE.INTRA.VDW>
-0.440124

>  <SCORE.INTRA.VDW.0>
-3.26816

>  <SCORE.INTRA.norm>
-0.0397026

>  <SCORE.RESTR>
0

>  <SCORE.RESTR.CAVITY>
0

>  <SCORE.RESTR.norm>
0

>  <SCORE.SYSTEM>
0

>  <SCORE.SYSTEM.CONST>
0

>  <SCORE.SYSTEM.DIHEDRAL>
0

>  <SCORE.SYSTEM.SOLV>
0

>  <SCORE.SYSTEM.norm>
0

>  <SCORE.heavy>
27

>  <SCORE.norm>
-0.697579

>  <RMSD>
2.607

$$$$
ligand
 OpenBabel11021811463D
libRbt.so/2013.1/901 2013/11/27
 27 28  0  0  0  0  0  0  0  0999 V2000
  -13.1077   37.5268   -2.4400 C   0  0  0  0  0  0  0  0  0  0  0  0
   -5.2155   38.9026   -4.3952 C   0  0  0  0  0  0  0  0  0  0  0  0
   -4.7673   40.9601   -6.5263 C   0  0  0  0  0  0  0  0  0  0  0  0
   -4.9190   39.8242   -7.5399 C   0  0  0  0  0  0  0  0  0  0  0  0
   -5.7185   40.2400   -8.6499 O   0  0  0  0  0  0  0  0  0  0  0  0
   -5.2138   41.4308   -9.6024 P   0  0  1  0  0  0  0  0  0  0  0  0
   -3.0210   43.2024   -9.6985 P   0  0  2  0  0  0  0  0  0  0  0  0
   -8.0040   42.1476   -4.9249 C   0  0  0  0  0  0  0  0  0  0  0  0
  -10.9677   38.2620   -1.4071 N   0  0  0  0  0  0  0  0  0  0  0  0
   -5.3106   41.0149  -11.1467 O   0  5  0  0  0  0  0  0  0  0  0  0
   -3.2701   44.3146   -8.7586 O   0  0  0  0  0  0  0  0  0  0  0  0
   -8.2306   41.2052   -3.9305 C   0  0  0  0  0  0  0  0  0  0  0  0
  -11.6421   37.9537   -2.5257 C   0  0  0  0  0  0  0  0  0  0  0  0
   -6.0781   42.7861   -9.4303 O   0  0  0  0  0  0  0  0  0  0  0  0
   -3.5950   43.5271  -11.1616 O   0  5  0  0  0  0  0  0  0  0  0  0
   -7.3261   40.1567   -3.7563 N   0  0  0  0  0  0  0  0  0  0  0  0
  -11.0415   38.0164   -3.7229 N   0  0  0  0  0  0  0  0  0  0  0  0
   -3.6700   41.8089   -9.2558 O   0  0  0  0  0  0  0  0  0  0  0  0
   -1.4566   42.9665   -9.9009 O   0  0  0  0  0  0  0  0  0  0  0  0
   -6.2049   40.0600   -4.5891 C   0  0  1  0  0  0  0  0  0  0  0  0
   -9.7589   38.3883   -3.8181 C   0  0  0  0  0  0  0  0  0  0  0  0
   -9.1750   38.4485   -5.0104 N   0  0  0  0  0  0  0  0  0  0  0  0
   -5.9781   41.0068   -5.5867 C   0  0  1  0  0  0  0  0  0  0  0  0
   -9.0395   38.7149   -2.6750 C   0  0  0  0  0  0  0  0  0  0  0  0
   -6.8868   42.0460   -5.7449 C   0  0  0  0  0  0  0  0  0  0  0  0
   -9.6996   38.6345   -1.4542 C   0  0  0  0  0  0  0  0  0  0  0  0
   -7.5681   39.1488   -2.6973 C   0  0  0  0  0  0  0  0  0  0  0  0
  1 13  1  0  0  0  0
  3  4  1  0  0  0  0
  4  5  1  0  0  0  0
  6  5  1  1  0  0  0
  6 10  1  0  0  0  0
  6 14  2  0  0  0  0
  6 18  1  0  0  0  0
  7 11  1  1  0  0  0
  7 15  1  0  0  0  0
  7 19  2  0  0  0  0
  7 18  1  0  0  0  0
  8 25  1  0  0  0  0
  8 12  1  0  0  0  0
  9 26  2  0  0  0  0
  9 13  1  0  0  0  0
 12 16  1  0  0  0  0
 13 17  2  0  0  0  0
 16 20  1  0  0  0  0
 16 27  1  0  0  0  0
 17 21  1  0  0  0  0
 20  2  1  1  0  0  0
 20 23  1  0  0  0  0
 21 22  1  0  0  0  0
 21 24  2  0  0  0  0
 23  3  1  1  0  0  0
 23 25  1  0  0  0  0
 24 27  1  0  0  0  0
 24 26  1  0  0  0  0
M  CHG  2  10  -1  15  -1
M  END
>  <CHROM.1>
83.53449369,63.15174734,130.66718287,-161.41392624,85.04156274,72.36237463
45.93677076,43.86106205,-6.54209537,40.69628365,-6.45161134,2.33928426,0.44982009
1.70074578

>  <Name>
ligand

>  <RI>
0

>  <Rbt.Current_Directory>
/home/itssahil/PROJECTS/Mol_Feturizer/New_Systems/rnas/3D2V

>  <Rbt.Executable>
rbdock ($Id: //depot/dev/client3/rdock/2013.1/src/exe/rbdock.cxx#4 $)

>  <Rbt.Library>
libRbt.so (2013.1, Build901 2013/11/27)

>  <Rbt.Parameter_File>
/export/apps/rDock/src/rDock_2013.1_src/data/scripts/dock_solv.prm

>  <Rbt.Receptor>
prm/pocket_docking_2.prm

>  <SCORE>
-14.6664

>  <SCORE.INTER>
-18.9939

>  <SCORE.INTER.CONST>
1

>  <SCORE.INTER.POLAR>
0

>  <SCORE.INTER.ROT>
8

>  <SCORE.INTER.SOLV>
14.5274

>  <SCORE.INTER.VDW>
-26.4384

>  <SCORE.INTER.norm>
-0.703477

>  <SCORE.INTRA>
3.45985

>  <SCORE.INTRA.DIHEDRAL>
2.90081

>  <SCORE.INTRA.DIHEDRAL.0>
7.82666

>  <SCORE.INTRA.POLAR>
0

>  <SCORE.INTRA.POLAR.0>
0

>  <SCORE.INTRA.REPUL>
0

>  <SCORE.INTRA.REPUL.0>
0

>  <SCORE.INTRA.SOLV>
3.79456

>  <SCORE.INTRA.SOLV.lig_0>
-83.2758

>  <SCORE.INTRA.VDW>
0.112164

>  <SCORE.INTRA.VDW.0>
-3.26816

>  <SCORE.INTRA.norm>
0.128143

>  <SCORE.RESTR>
0.867666

>  <SCORE.RESTR.CAVITY>
0.867666

>  <SCORE.RESTR.norm>
0.0321358

>  <SCORE.SYSTEM>
0

>  <SCORE.SYSTEM.CONST>
0

>  <SCORE.SYSTEM.DIHEDRAL>
0

>  <SCORE.SYSTEM.SOLV>
0

>  <SCORE.SYSTEM.norm>
0

>  <SCORE.heavy>
27

>  <SCORE.norm>
-0.543199

>  <RMSD>
2.608

$$$$
ligand
 OpenBabel11021811473D
libRbt.so/2013.1/901 2013/11/27
 27 28  0  0  0  0  0  0  0  0999 V2000
  -12.6253   37.3992   -1.7961 C   0  0  0  0  0  0  0  0  0  0  0  0
   -8.2512   39.9259   -6.4774 C   0  0  0  0  0  0  0  0  0  0  0  0
   -6.6790   38.0426   -8.1970 C   0  0  0  0  0  0  0  0  0  0  0  0
   -5.6151   38.8763   -8.9136 C   0  0  0  0  0  0  0  0  0  0  0  0
   -5.8098   40.2701   -8.6613 O   0  0  0  0  0  0  0  0  0  0  0  0
   -4.8812   41.3568   -9.3940 P   0  0  1  0  0  0  0  0  0  0  0  0
   -3.2966   42.1487   -7.1990 P   0  0  2  0  0  0  0  0  0  0  0  0
   -5.3236   37.2898   -4.7262 C   0  0  0  0  0  0  0  0  0  0  0  0
  -11.0869   38.2211   -3.5695 N   0  0  0  0  0  0  0  0  0  0  0  0
   -4.6309   40.9626  -10.9267 O   0  5  0  0  0  0  0  0  0  0  0  0
   -1.9016   42.2863   -6.7325 O   0  0  0  0  0  0  0  0  0  0  0  0
   -6.0417   38.1543   -3.9106 C   0  0  0  0  0  0  0  0  0  0  0  0
  -11.3323   38.0716   -2.2587 C   0  0  0  0  0  0  0  0  0  0  0  0
   -5.5249   42.8398   -9.3940 O   0  0  0  0  0  0  0  0  0  0  0  0
   -4.1730   41.2662   -6.1847 O   0  5  0  0  0  0  0  0  0  0  0  0
   -6.9921   39.0052   -4.4766 N   0  0  0  0  0  0  0  0  0  0  0  0
  -10.4518   38.5077   -1.3462 N   0  0  0  0  0  0  0  0  0  0  0  0
   -3.4448   41.4664   -8.6383 O   0  0  0  0  0  0  0  0  0  0  0  0
   -4.0207   43.5686   -7.2582 O   0  0  0  0  0  0  0  0  0  0  0  0
   -7.2071   38.9853   -5.8599 C   0  0  1  0  0  0  0  0  0  0  0  0
   -9.3141   39.0987   -1.7319 C   0  0  0  0  0  0  0  0  0  0  0  0
   -8.4482   39.5251   -0.8182 N   0  0  0  0  0  0  0  0  0  0  0  0
   -6.4861   38.1167   -6.6777 C   0  0  1  0  0  0  0  0  0  0  0  0
   -9.0356   39.2632   -3.0832 C   0  0  0  0  0  0  0  0  0  0  0  0
   -5.5457   37.2741   -6.0978 C   0  0  0  0  0  0  0  0  0  0  0  0
   -9.9760   38.7988   -3.9955 C   0  0  0  0  0  0  0  0  0  0  0  0
   -7.7573   39.9301   -3.6078 C   0  0  0  0  0  0  0  0  0  0  0  0
  1 13  1  0  0  0  0
  3  4  1  0  0  0  0
  4  5  1  0  0  0  0
  6  5  1  1  0  0  0
  6 10  1  0  0  0  0
  6 14  2  0  0  0  0
  6 18  1  0  0  0  0
  7 11  1  1  0  0  0
  7 15  1  0  0  0  0
  7 19  2  0  0  0  0
  7 18  1  0  0  0  0
  8 25  1  0  0  0  0
  8 12  1  0  0  0  0
  9 26  2  0  0  0  0
  9 13  1  0  0  0  0
 12 16  1  0  0  0  0
 13 17  2  0  0  0  0
 16 20  1  0  0  0  0
 16 27  1  0  0  0  0
 17 21  1  0  0  0  0
 20  2  1  1  0  0  0
 20 23  1  0  0  0  0
 21 22  1  0  0  0  0
 21 24  2  0  0  0  0
 23  3  1  1  0  0  0
 23 25  1  0  0  0  0
 24 27  1  0  0  0  0
 24 26  1  0  0  0  0
M  CHG  2  10  -1  15  -1
M  END
>  <CHROM.1>
-67.95765156,-175.50803061,40.93925160,-71.70885525,-173.84920538,97.58535847
121.05763332,-89.01556273,-6.53886016,39.95315497,-5.98995009,2.51481154
0.62418891,1.38099427

>  <Name>
ligand

>  <RI>
0

>  <Rbt.Current_Directory>
/home/itssahil/PROJECTS/Mol_Feturizer/New_Systems/rnas/3D2V

>  <Rbt.Executable>
rbdock ($Id: //depot/dev/client3/rdock/2013.1/src/exe/rbdock.cxx#4 $)

>  <Rbt.Library>
libRbt.so (2013.1, Build901 2013/11/27)

>  <Rbt.Parameter_File>
/export/apps/rDock/src/rDock_2013.1_src/data/scripts/dock_solv.prm

>  <Rbt.Receptor>
prm/pocket_docking_3.prm

>  <SCORE>
-23.4908

>  <SCORE.INTER>
-22.2287

>  <SCORE.INTER.CONST>
1

>  <SCORE.INTER.POLAR>
0

>  <SCORE.INTER.ROT>
8

>  <SCORE.INTER.SOLV>
19.0616

>  <SCORE.INTER.VDW>
-30.1063

>  <SCORE.INTER.norm>
-0.823283

>  <SCORE.INTRA>
-1.26446

>  <SCORE.INTRA.DIHEDRAL>
-1.46386

>  <SCORE.INTRA.DIHEDRAL.0>
7.82666

>  <SCORE.INTRA.POLAR>
0

>  <SCORE.INTRA.POLAR.0>
0

>  <SCORE.INTRA.REPUL>
0

>  <SCORE.INTRA.REPUL.0>
0

>  <SCORE.INTRA.SOLV>
0.980191

>  <SCORE.INTRA.SOLV.lig_0>
-83.2758

>  <SCORE.INTRA.VDW>
-1.02263

>  <SCORE.INTRA.VDW.0>
-3.26816

>  <SCORE.INTRA.norm>
-0.0468318

>  <SCORE.RESTR>
0.0023081

>  <SCORE.RESTR.CAVITY>
0.0023081

>  <SCORE.RESTR.norm>
8.54851e-05

>  <SCORE.SYSTEM>
0

>  <SCORE.SYSTEM.CONST>
0

>  <SCORE.SYSTEM.DIHEDRAL>
0

>  <SCORE.SYSTEM.SOLV>
0

>  <SCORE.SYSTEM.norm>
0

>  <SCORE.heavy>
27

>  <SCORE.norm>
-0.87003

>  <RMSD>
2.619

$$$$
ligand
 OpenBabel11021811473D
libRbt.so/2013.1/901 2013/11/27
 27 28  0  0  0  0  0  0  0  0999 V2000
  -12.0647   37.6787   -1.9085 C   0  0  0  0  0  0  0  0  0  0  0  0
   -5.7099   41.6968   -4.3342 C   0  0  0  0  0  0  0  0  0  0  0  0
   -4.3828   40.7370   -6.8428 C   0  0  0  0  0  0  0  0  0  0  0  0
   -5.5322   41.4681   -7.5393 C   0  0  0  0  0  0  0  0  0  0  0  0
   -5.0312   42.3829   -8.5172 O   0  0  0  0  0  0  0  0  0  0  0  0
   -6.0230   43.4363   -9.2149 P   0  0  1  0  0  0  0  0  0  0  0  0
   -4.7261   43.3374  -11.7178 P   0  0  2  0  0  0  0  0  0  0  0  0
   -5.2579   37.4772   -5.0939 C   0  0  0  0  0  0  0  0  0  0  0  0
   -9.8619   38.3719   -0.9842 N   0  0  0  0  0  0  0  0  0  0  0  0
   -7.3476   42.7129   -9.7526 O   0  5  0  0  0  0  0  0  0  0  0  0
   -4.1470   44.1730  -12.7896 O   0  0  0  0  0  0  0  0  0  0  0  0
   -5.8767   37.9003   -3.9250 C   0  0  0  0  0  0  0  0  0  0  0  0
  -10.6430   38.2195   -2.0647 C   0  0  0  0  0  0  0  0  0  0  0  0
   -6.5071   44.6076   -8.2112 O   0  0  0  0  0  0  0  0  0  0  0  0
   -5.9536   42.4549  -12.2564 O   0  5  0  0  0  0  0  0  0  0  0  0
   -6.0266   39.2661   -3.6804 N   0  0  0  0  0  0  0  0  0  0  0  0
  -10.1881   38.5378   -3.2852 N   0  0  0  0  0  0  0  0  0  0  0  0
   -5.2777   44.1642  -10.4643 O   0  0  0  0  0  0  0  0  0  0  0  0
   -3.6568   42.2866  -11.1734 O   0  0  0  0  0  0  0  0  0  0  0  0
   -5.5455   40.1958   -4.6101 C   0  0  1  0  0  0  0  0  0  0  0  0
   -8.9463   39.0131   -3.4419 C   0  0  0  0  0  0  0  0  0  0  0  0
   -8.5071   39.3269   -4.6564 N   0  0  0  0  0  0  0  0  0  0  0  0
   -4.9249   39.7701   -5.7835 C   0  0  1  0  0  0  0  0  0  0  0  0
   -8.1186   39.1822   -2.3387 C   0  0  0  0  0  0  0  0  0  0  0  0
   -4.7864   38.4067   -6.0129 C   0  0  0  0  0  0  0  0  0  0  0  0
   -8.6289   38.8380   -1.0923 C   0  0  0  0  0  0  0  0  0  0  0  0
   -6.6843   39.7190   -2.4322 C   0  0  0  0  0  0  0  0  0  0  0  0
  1 13  1  0  0  0  0
  3  4  1  0  0  0  0
  4  5  1  0  0  0  0
  6  5  1  1  0  0  0
  6 10  1  0  0  0  0
  6 14  2  0  0  0  0
  6 18  1  0  0  0  0
  7 11  1  6  0  0  0
  7 15  1  0  0  0  0
  7 19  2  0  0  0  0
  7 18  1  0  0  0  0
  8 25  1  0  0  0  0
  8 12  1  0  0  0  0
  9 26  2  0  0  0  0
  9 13  1  0  0  0  0
 12 16  1  0  0  0  0
 13 17  2  0  0  0  0
 16 20  1  0  0  0  0
 16 27  1  0  0  0  0
 17 21  1  0  0  0  0
 20  2  1  6  0  0  0
 20 23  1  0  0  0  0
 21 22  1  0  0  0  0
 21 24  2  0  0  0  0
 23  3  1  6  0  0  0
 23 25  1  0  0  0  0
 24 27  1  0  0  0  0
 24 26  1  0  0  0  0
M  CHG  2  10  -1  15  -1
M  END
>  <CHROM.1>
179.30761780,-170.17961955,-49.06639155,60.42697660,176.74049691,-68.41795110
-34.78512282,-59.71985668,-6.52713317,40.96737434,-6.67443448,1.95144852
-0.21680534,2.17052864

>  <Name>
ligand

>  <RI>
0

>  <Rbt.Current_Directory>
/home/itssahil/PROJECTS/Mol_Feturizer/New_Systems/rnas/3D2V

>  <Rbt.Executable>
rbdock ($Id: //depot/dev/client3/rdock/2013.1/src/exe/rbdock.cxx#4 $)

>  <Rbt.Library>
libRbt.so (2013.1, Build901 2013/11/27)

>  <Rbt.Parameter_File>
/export/apps/rDock/src/rDock_2013.1_src/data/scripts/dock_solv.prm

>  <Rbt.Receptor>
prm/pocket_docking_5.prm

>  <SCORE>
-21.2469

>  <SCORE.INTER>
-22.2612

>  <SCORE.INTER.CONST>
1

>  <SCORE.INTER.POLAR>
0

>  <SCORE.INTER.ROT>
8

>  <SCORE.INTER.SOLV>
12.2749

>  <SCORE.INTER.VDW>
-27.8657

>  <SCORE.INTER.norm>
-0.824488

>  <SCORE.INTRA>
1.01431

>  <SCORE.INTRA.DIHEDRAL>
-1.96631

>  <SCORE.INTRA.DIHEDRAL.0>
7.82666

>  <SCORE.INTRA.POLAR>
0

>  <SCORE.INTRA.POLAR.0>
0

>  <SCORE.INTRA.REPUL>
0

>  <SCORE.INTRA.REPUL.0>
0

>  <SCORE.INTRA.SOLV>
4.16656

>  <SCORE.INTRA.SOLV.lig_0>
-83.2758

>  <SCORE.INTRA.VDW>
-0.0858196

>  <SCORE.INTRA.VDW.0>
-3.26816

>  <SCORE.INTRA.norm>
0.0375669

>  <SCORE.RESTR>
0

>  <SCORE.RESTR.CAVITY>
0

>  <SCORE.RESTR.norm>
0

>  <SCORE.SYSTEM>
0

>  <SCORE.SYSTEM.CONST>
0

>  <SCORE.SYSTEM.DIHEDRAL>
0

>  <SCORE.SYSTEM.SOLV>
0

>  <SCORE.SYSTEM.norm>
0

>  <SCORE.heavy>
27

>  <SCORE.norm>
-0.786921

>  <RMSD>
2.622

$$$$
ligand
 OpenBabel11021811473D
libRbt.so/2013.1/901 2013/11/27
 27 28  0  0  0  0  0  0  0  0999 V2000
  -13.0033   37.2850   -1.8844 C   0  0  0  0  0  0  0  0  0  0  0  0
   -8.5919   39.6765   -6.3519 C   0  0  0  0  0  0  0  0  0  0  0  0
   -6.8925   37.8050   -7.9596 C   0  0  0  0  0  0  0  0  0  0  0  0
   -5.8057   38.5606   -8.7269 C   0  0  0  0  0  0  0  0  0  0  0  0
   -6.0436   39.9698   -8.6849 O   0  0  0  0  0  0  0  0  0  0  0  0
   -5.0447   40.9763   -9.4394 P   0  0  1  0  0  0  0  0  0  0  0  0
   -6.4432   43.2031   -8.4188 P   0  0  2  0  0  0  0  0  0  0  0  0
   -5.4908   37.3595   -4.4543 C   0  0  0  0  0  0  0  0  0  0  0  0
  -11.4122   38.1462   -3.5914 N   0  0  0  0  0  0  0  0  0  0  0  0
   -3.6879   41.1724   -8.6100 O   0  5  0  0  0  0  0  0  0  0  0  0
   -5.4997   43.6599   -7.3779 O   0  0  0  0  0  0  0  0  0  0  0  0
   -6.2673   38.2205   -3.6901 C   0  0  0  0  0  0  0  0  0  0  0  0
  -11.7021   37.9766   -2.2921 C   0  0  0  0  0  0  0  0  0  0  0  0
   -4.6201   40.4589  -10.9110 O   0  0  0  0  0  0  0  0  0  0  0  0
   -7.5517   42.2115   -7.8157 O   0  5  0  0  0  0  0  0  0  0  0  0
   -7.2738   38.9679   -4.3034 N   0  0  0  0  0  0  0  0  0  0  0  0
  -10.8589   38.4092   -1.3434 N   0  0  0  0  0  0  0  0  0  0  0  0
   -5.7546   42.4267   -9.6362 O   0  0  0  0  0  0  0  0  0  0  0  0
   -7.2601   44.4310   -9.0263 O   0  0  0  0  0  0  0  0  0  0  0  0
   -7.4859   38.8493   -5.6822 C   0  0  1  0  0  0  0  0  0  0  0  0
   -9.7146   39.0167   -1.6809 C   0  0  0  0  0  0  0  0  0  0  0  0
   -8.8859   39.4395   -0.7317 N   0  0  0  0  0  0  0  0  0  0  0  0
   -6.7061   37.9844   -6.4483 C   0  0  1  0  0  0  0  0  0  0  0  0
   -9.3904   39.2023   -3.0193 C   0  0  0  0  0  0  0  0  0  0  0  0
   -5.7102   37.2453   -5.8216 C   0  0  0  0  0  0  0  0  0  0  0  0
  -10.2932   38.7408   -3.9702 C   0  0  0  0  0  0  0  0  0  0  0  0
   -8.1015   39.8890   -3.4896 C   0  0  0  0  0  0  0  0  0  0  0  0
  1 13  1  0  0  0  0
  3  4  1  0  0  0  0
  4  5  1  0  0  0  0
  6  5  1  1  0  0  0
  6 10  1  0  0  0  0
  6 14  2  0  0  0  0
  6 18  1  0  0  0  0
  7 11  1  1  0  0  0
  7 15  1  0  0  0  0
  7 19  2  0  0  0  0
  7 18  1  0  0  0  0
  8 25  1  0  0  0  0
  8 12  1  0  0  0  0
  9 26  2  0  0  0  0
  9 13  1  0  0  0  0
 12 16  1  0  0  0  0
 13 17  2  0  0  0  0
 16 20  1  0  0  0  0
 16 27  1  0  0  0  0
 17 21  1  0  0  0  0
 20  2  1  1  0  0  0
 20 23  1  0  0  0  0
 21 22  1  0  0  0  0
 21 24  2  0  0  0  0
 23  3  1  1  0  0  0
 23 25  1  0  0  0  0
 24 27  1  0  0  0  0
 24 26  1  0  0  0  0
M  CHG  2  10  -1  15  -1
M  END
>  <CHROM.1>
-73.55255095,-179.16386045,-76.74711802,50.87777877,66.72890649,102.90146162
119.05920440,-93.79954001,-7.38903695,40.01203487,-6.18619680,2.39800506
-0.75944242,2.68789905

>  <Name>
ligand

>  <RI>
0

>  <Rbt.Current_Directory>
/home/itssahil/PROJECTS/Mol_Feturizer/New_Systems/rnas/3D2V

>  <Rbt.Executable>
rbdock ($Id: //depot/dev/client3/rdock/2013.1/src/exe/rbdock.cxx#4 $)

>  <Rbt.Library>
libRbt.so (2013.1, Build901 2013/11/27)

>  <Rbt.Parameter_File>
/export/apps/rDock/src/rDock_2013.1_src/data/scripts/dock_solv.prm

>  <Rbt.Receptor>
prm/pocket_docking_3.prm

>  <SCORE>
-22.054

>  <SCORE.INTER>
-20.575

>  <SCORE.INTER.CONST>
1

>  <SCORE.INTER.POLAR>
0

>  <SCORE.INTER.ROT>
8

>  <SCORE.INTER.SOLV>
26.4826

>  <SCORE.INTER.VDW>
-31.4775

>  <SCORE.INTER.norm>
-0.762037

>  <SCORE.INTRA>
-1.57846

>  <SCORE.INTRA.DIHEDRAL>
-1.31605

>  <SCORE.INTRA.DIHEDRAL.0>
7.82666

>  <SCORE.INTRA.POLAR>
0

>  <SCORE.INTRA.POLAR.0>
0

>  <SCORE.INTRA.REPUL>
0

>  <SCORE.INTRA.REPUL.0>
0

>  <SCORE.INTRA.SOLV>
-0.809871

>  <SCORE.INTRA.SOLV.lig_0>
-83.2758

>  <SCORE.INTRA.VDW>
-0.515498

>  <SCORE.INTRA.VDW.0>
-3.26816

>  <SCORE.INTRA.norm>
-0.0584614

>  <SCORE.RESTR>
0.0994254

>  <SCORE.RESTR.CAVITY>
0.0994254

>  <SCORE.RESTR.norm>
0.00368242

>  <SCORE.SYSTEM>
0

>  <SCORE.SYSTEM.CONST>
0

>  <SCORE.SYSTEM.DIHEDRAL>
0

>  <SCORE.SYSTEM.SOLV>
0

>  <SCORE.SYSTEM.norm>
0

>  <SCORE.heavy>
27

>  <SCORE.norm>
-0.816816

>  <RMSD>
2.647

$$$$
ligand
 OpenBabel11021811473D
libRbt.so/2013.1/901 2013/11/27
 27 28  0  0  0  0  0  0  0  0999 V2000
  -12.1506   37.4351   -1.9697 C   0  0  0  0  0  0  0  0  0  0  0  0
   -5.9572   41.4343   -5.0373 C   0  0  0  0  0  0  0  0  0  0  0  0
   -4.4183   40.0401   -7.1968 C   0  0  0  0  0  0  0  0  0  0  0  0
   -4.9792   39.4617   -8.4973 C   0  0  0  0  0  0  0  0  0  0  0  0
   -5.8069   40.4198   -9.1617 O   0  0  0  0  0  0  0  0  0  0  0  0
   -5.1680   41.7833   -9.7207 P   0  0  1  0  0  0  0  0  0  0  0  0
   -5.2931   43.3927  -12.0338 P   0  0  2  0  0  0  0  0  0  0  0  0
   -5.2661   37.1837   -4.8361 C   0  0  0  0  0  0  0  0  0  0  0  0
   -9.9777   38.3446   -1.1708 N   0  0  0  0  0  0  0  0  0  0  0  0
   -5.5854   43.0327   -8.8085 O   0  5  0  0  0  0  0  0  0  0  0  0
   -5.3635   43.2711  -13.5045 O   0  0  0  0  0  0  0  0  0  0  0  0
   -5.9825   37.8098   -3.8247 C   0  0  0  0  0  0  0  0  0  0  0  0
  -10.7830   38.0752   -2.2100 C   0  0  0  0  0  0  0  0  0  0  0  0
   -3.5520   41.7540   -9.7588 O   0  0  0  0  0  0  0  0  0  0  0  0
   -3.8216   43.8088  -11.5465 O   0  5  0  0  0  0  0  0  0  0  0  0
   -6.2097   39.1851   -3.8913 N   0  0  0  0  0  0  0  0  0  0  0  0
  -10.3994   38.3628   -3.4622 N   0  0  0  0  0  0  0  0  0  0  0  0
   -5.6706   42.0537  -11.2441 O   0  0  0  0  0  0  0  0  0  0  0  0
   -6.2553   44.5523  -11.5109 O   0  0  0  0  0  0  0  0  0  0  0  0
   -5.7073   39.9213   -4.9711 C   0  0  1  0  0  0  0  0  0  0  0  0
   -9.2057   38.9237   -3.6924 C   0  0  0  0  0  0  0  0  0  0  0  0
   -8.8372   39.2059   -4.9378 N   0  0  0  0  0  0  0  0  0  0  0  0
   -4.9887   39.2918   -5.9862 C   0  0  2  0  0  0  0  0  0  0  0  0
   -8.3545   39.2145   -2.6333 C   0  0  0  0  0  0  0  0  0  0  0  0
   -4.7740   37.9213   -5.9059 C   0  0  0  0  0  0  0  0  0  0  0  0
   -8.7903   38.8983   -1.3517 C   0  0  0  0  0  0  0  0  0  0  0  0
   -6.9717   39.8550   -2.8113 C   0  0  0  0  0  0  0  0  0  0  0  0
  1 13  1  0  0  0  0
  3  4  1  0  0  0  0
  4  5  1  0  0  0  0
  6  5  1  1  0  0  0
  6 10  1  0  0  0  0
  6 14  2  0  0  0  0
  6 18  1  0  0  0  0
  7 11  1  6  0  0  0
  7 15  1  0  0  0  0
  7 19  2  0  0  0  0
  7 18  1  0  0  0  0
  8 25  1  0  0  0  0
  8 12  1  0  0  0  0
  9 26  2  0  0  0  0
  9 13  1  0  0  0  0
 12 16  1  0  0  0  0
 13 17  2  0  0  0  0
 16 20  1  0  0  0  0
 16 27  1  0  0  0  0
 17 21  1  0  0  0  0
 20  2  1  6  0  0  0
 20 23  1  0  0  0  0
 21 22  1  0  0  0  0
 21 24  2  0  0  0  0
 23  3  1  1  0  0  0
 23 25  1  0  0  0  0
 24 27  1  0  0  0  0
 24 26  1  0  0  0  0
M  CHG  2  10  -1  15  -1
M  END
>  <CHROM.1>
113.87682873,64.54994547,-106.43670896,175.27420481,157.68556586,-121.45760126
-46.80067113,-56.48335333,-6.49855889,40.52326473,-6.97468649,1.97183452
-0.23163370,2.14691739

>  <Name>
ligand

>  <RI>
0

>  <Rbt.Current_Directory>
/home/itssahil/PROJECTS/Mol_Feturizer/New_Systems/rnas/3D2V

>  <Rbt.Executable>
rbdock ($Id: //depot/dev/client3/rdock/2013.1/src/exe/rbdock.cxx#4 $)

>  <Rbt.Library>
libRbt.so (2013.1, Build901 2013/11/27)

>  <Rbt.Parameter_File>
/export/apps/rDock/src/rDock_2013.1_src/data/scripts/dock_solv.prm

>  <Rbt.Receptor>
prm/pocket_docking_8.prm

>  <SCORE>
-19.6643

>  <SCORE.INTER>
-25.763

>  <SCORE.INTER.CONST>
1

>  <SCORE.INTER.POLAR>
0

>  <SCORE.INTER.ROT>
8

>  <SCORE.INTER.SOLV>
13.598

>  <SCORE.INTER.VDW>
-30.6413

>  <SCORE.INTER.norm>
-0.954184

>  <SCORE.INTRA>
6.09381

>  <SCORE.INTRA.DIHEDRAL>
5.70966

>  <SCORE.INTRA.DIHEDRAL.0>
7.82666

>  <SCORE.INTRA.POLAR>
0

>  <SCORE.INTRA.POLAR.0>
0

>  <SCORE.INTRA.REPUL>
0

>  <SCORE.INTRA.REPUL.0>
0

>  <SCORE.INTRA.SOLV>
6.41426

>  <SCORE.INTRA.SOLV.lig_0>
-83.2758

>  <SCORE.INTRA.VDW>
0.0318425

>  <SCORE.INTRA.VDW.0>
-3.26816

>  <SCORE.INTRA.norm>
0.225697

>  <SCORE.RESTR>
0.0048123

>  <SCORE.RESTR.CAVITY>
0.0048123

>  <SCORE.RESTR.norm>
0.000178233

>  <SCORE.SYSTEM>
0

>  <SCORE.SYSTEM.CONST>
0

>  <SCORE.SYSTEM.DIHEDRAL>
0

>  <SCORE.SYSTEM.SOLV>
0

>  <SCORE.SYSTEM.norm>
0

>  <SCORE.heavy>
27

>  <SCORE.norm>
-0.728309

>  <RMSD>
2.656

$$$$
ligand
 OpenBabel11021811473D
libRbt.so/2013.1/901 2013/11/27
 27 28  0  0  0  0  0  0  0  0999 V2000
  -12.3893   37.3437   -1.9796 C   0  0  0  0  0  0  0  0  0  0  0  0
   -6.9819   41.1778   -5.6957 C   0  0  0  0  0  0  0  0  0  0  0  0
   -5.3366   39.6851   -7.7058 C   0  0  0  0  0  0  0  0  0  0  0  0
   -4.1076   40.5963   -7.7132 C   0  0  0  0  0  0  0  0  0  0  0  0
   -4.3345   41.7584   -6.9117 O   0  0  0  0  0  0  0  0  0  0  0  0
   -3.2256   42.9185   -6.8463 P   0  0  1  0  0  0  0  0  0  0  0  0
   -5.0079   45.0073   -6.2007 P   0  0  2  0  0  0  0  0  0  0  0  0
   -5.2339   37.3659   -4.6955 C   0  0  0  0  0  0  0  0  0  0  0  0
  -10.2921   38.4822   -1.2778 N   0  0  0  0  0  0  0  0  0  0  0  0
   -2.5370   42.9778   -5.4008 O   0  5  0  0  0  0  0  0  0  0  0  0
   -6.2164   44.1773   -6.0179 O   0  0  0  0  0  0  0  0  0  0  0  0
   -5.9935   38.0406   -3.7490 C   0  0  0  0  0  0  0  0  0  0  0  0
  -11.0641   38.0429   -2.2838 C   0  0  0  0  0  0  0  0  0  0  0  0
   -2.0351   42.7150   -7.9210 O   0  0  0  0  0  0  0  0  0  0  0  0
   -5.3674   46.4439   -6.8192 O   0  5  0  0  0  0  0  0  0  0  0  0
   -6.5627   39.2728   -4.0736 N   0  0  0  0  0  0  0  0  0  0  0  0
  -10.6838   38.2114   -3.5586 N   0  0  0  0  0  0  0  0  0  0  0  0
   -3.9058   44.3617   -7.1639 O   0  0  0  0  0  0  0  0  0  0  0  0
   -4.3090   45.3130   -4.8000 O   0  0  0  0  0  0  0  0  0  0  0  0
   -6.3564   39.8205   -5.3455 C   0  0  1  0  0  0  0  0  0  0  0  0
   -9.5270   38.8215   -3.8448 C   0  0  0  0  0  0  0  0  0  0  0  0
   -9.1617   38.9845   -5.1122 N   0  0  0  0  0  0  0  0  0  0  0  0
   -5.5941   39.1422   -6.2951 C   0  0  1  0  0  0  0  0  0  0  0  0
   -8.7109   39.2875   -2.8212 C   0  0  0  0  0  0  0  0  0  0  0  0
   -5.0370   37.9151   -5.9567 C   0  0  0  0  0  0  0  0  0  0  0  0
   -9.1417   39.0904   -1.5143 C   0  0  0  0  0  0  0  0  0  0  0  0
   -7.3714   39.9951   -3.0636 C   0  0  0  0  0  0  0  0  0  0  0  0
  1 13  1  0  0  0  0
  3  4  1  0  0  0  0
  4  5  1  0  0  0  0
  6  5  1  6  0  0  0
  6 10  1  0  0  0  0
  6 14  2  0  0  0  0
  6 18  1  0  0  0  0
  7 11  1  1  0  0  0
  7 15  1  0  0  0  0
  7 19  2  0  0  0  0
  7 18  1  0  0  0  0
  8 25  1  0  0  0  0
  8 12  1  0  0  0  0
  9 26  2  0  0  0  0
  9 13  1  0  0  0  0
 12 16  1  0  0  0  0
 13 17  2  0  0  0  0
 16 20  1  0  0  0  0
 16 27  1  0  0  0  0
 17 21  1  0  0  0  0
 20  2  1  6  0  0  0
 20 23  1  0  0  0  0
 21 22  1  0  0  0  0
 21 24  2  0  0  0  0
 23  3  1  6  0  0  0
 23 25  1  0  0  0  0
 24 27  1  0  0  0  0
 24 26  1  0  0  0  0
M  CHG  2  10  -1  15  -1
M  END
>  <CHROM.1>
-64.39577530,-175.68027363,-110.84468802,64.62995537,-59.05824304,87.18080600
-45.78782897,-70.88689879,-6.23101089,41.09831985,-5.20251435,2.46882758
-0.58226875,-3.13907900

>  <Name>
ligand

>  <RI>
0

>  <Rbt.Current_Directory>
/home/itssahil/PROJECTS/Mol_Feturizer/New_Systems/rnas/3D2V

>  <Rbt.Executable>
rbdock ($Id: //depot/dev/client3/rdock/2013.1/src/exe/rbdock.cxx#4 $)

>  <Rbt.Library>
libRbt.so (2013.1, Build901 2013/11/27)

>  <Rbt.Parameter_File>
/export/apps/rDock/src/rDock_2013.1_src/data/scripts/dock_solv.prm

>  <Rbt.Receptor>
prm/pocket_docking_4.prm

>  <SCORE>
-18.6677

>  <SCORE.INTER>
-19.0746

>  <SCORE.INTER.CONST>
1

>  <SCORE.INTER.POLAR>
0

>  <SCORE.INTER.ROT>
8

>  <SCORE.INTER.SOLV>
11.8486

>  <SCORE.INTER.VDW>
-25.5992

>  <SCORE.INTER.norm>
-0.706465

>  <SCORE.INTRA>
0.406828

>  <SCORE.INTRA.DIHEDRAL>
-0.150783

>  <SCORE.INTRA.DIHEDRAL.0>
7.82666

>  <SCORE.INTRA.POLAR>
0

>  <SCORE.INTRA.POLAR.0>
0

>  <SCORE.INTRA.REPUL>
0

>  <SCORE.INTRA.REPUL.0>
0

>  <SCORE.INTRA.SOLV>
2.28938

>  <SCORE.INTRA.SOLV.lig_0>
-83.2758

>  <SCORE.INTRA.VDW>
-0.662471

>  <SCORE.INTRA.VDW.0>
-3.26816

>  <SCORE.INTRA.norm>
0.0150677

>  <SCORE.RESTR>
0

>  <SCORE.RESTR.CAVITY>
0

>  <SCORE.RESTR.norm>
0

>  <SCORE.SYSTEM>
0

>  <SCORE.SYSTEM.CONST>
0

>  <SCORE.SYSTEM.DIHEDRAL>
0

>  <SCORE.SYSTEM.SOLV>
0

>  <SCORE.SYSTEM.norm>
0

>  <SCORE.heavy>
27

>  <SCORE.norm>
-0.691397

>  <RMSD>
2.674

$$$$
ligand
 OpenBabel11021811473D
libRbt.so/2013.1/901 2013/11/27
 27 28  0  0  0  0  0  0  0  0999 V2000
  -12.3356   37.3114   -2.0937 C   0  0  0  0  0  0  0  0  0  0  0  0
   -6.4478   41.4344   -5.0992 C   0  0  0  0  0  0  0  0  0  0  0  0
   -4.7994   40.1090   -7.2209 C   0  0  0  0  0  0  0  0  0  0  0  0
   -3.7809   41.1986   -6.8804 C   0  0  0  0  0  0  0  0  0  0  0  0
   -3.3589   41.8840   -8.0621 O   0  0  0  0  0  0  0  0  0  0  0  0
   -2.4088   43.1739   -7.9471 P   0  0  1  0  0  0  0  0  0  0  0  0
   -3.2219   44.5882   -5.6460 P   0  0  2  0  0  0  0  0  0  0  0  0
   -5.2275   37.3217   -4.6717 C   0  0  0  0  0  0  0  0  0  0  0  0
  -10.2264   38.2975   -1.2184 N   0  0  0  0  0  0  0  0  0  0  0  0
   -1.0941   42.8479   -7.0913 O   0  5  0  0  0  0  0  0  0  0  0  0
   -3.5082   43.3531   -4.8877 O   0  0  0  0  0  0  0  0  0  0  0  0
   -5.9918   37.9163   -3.6766 C   0  0  0  0  0  0  0  0  0  0  0  0
  -10.9797   37.9914   -2.2860 C   0  0  0  0  0  0  0  0  0  0  0  0
   -1.9058   43.7175   -9.3841 O   0  0  0  0  0  0  0  0  0  0  0  0
   -4.3005   45.7350   -5.3339 O   0  5  0  0  0  0  0  0  0  0  0  0
   -6.3903   39.2465   -3.8163 N   0  0  0  0  0  0  0  0  0  0  0  0
  -10.5540   38.2769   -3.5251 N   0  0  0  0  0  0  0  0  0  0  0  0
   -3.2098   44.3974   -7.2342 O   0  0  0  0  0  0  0  0  0  0  0  0
   -1.8139   45.2050   -5.2206 O   0  0  0  0  0  0  0  0  0  0  0  0
   -6.0097   39.9706   -4.9526 C   0  0  1  0  0  0  0  0  0  0  0  0
   -9.3699   38.8724   -3.7135 C   0  0  0  0  0  0  0  0  0  0  0  0
   -8.9594   39.1522   -4.9463 N   0  0  0  0  0  0  0  0  0  0  0  0
   -5.2428   39.3726   -5.9513 C   0  0  2  0  0  0  0  0  0  0  0  0
   -8.5722   39.2016   -2.6244 C   0  0  0  0  0  0  0  0  0  0  0  0
   -4.8570   38.0466   -5.7979 C   0  0  0  0  0  0  0  0  0  0  0  0
   -9.0503   38.8862   -1.3577 C   0  0  0  0  0  0  0  0  0  0  0  0
   -7.2038   39.8832   -2.7539 C   0  0  0  0  0  0  0  0  0  0  0  0
  1 13  1  0  0  0  0
  3  4  1  0  0  0  0
  4  5  1  0  0  0  0
  6  5  1  6  0  0  0
  6 10  1  0  0  0  0
  6 14  2  0  0  0  0
  6 18  1  0  0  0  0
  7 11  1  1  0  0  0
  7 15  1  0  0  0  0
  7 19  2  0  0  0  0
  7 18  1  0  0  0  0
  8 25  1  0  0  0  0
  8 12  1  0  0  0  0
  9 26  2  0  0  0  0
  9 13  1  0  0  0  0
 12 16  1  0  0  0  0
 13 17  2  0  0  0  0
 16 20  1  0  0  0  0
 16 27  1  0  0  0  0
 17 21  1  0  0  0  0
 20  2  1  6  0  0  0
 20 23  1  0  0  0  0
 21 22  1  0  0  0  0
 21 24  2  0  0  0  0
 23  3  1  1  0  0  0
 23 25  1  0  0  0  0
 24 27  1  0  0  0  0
 24 26  1  0  0  0  0
M  CHG  2  10  -1  15  -1
M  END
>  <CHROM.1>
179.70404646,173.53764663,53.79858412,88.60550495,-47.19400627,68.29710409
-45.41652557,-64.05503108,-5.54737319,41.10406326,-5.19464068,2.78093776
-0.70797261,-2.75466547

>  <Name>
ligand

>  <RI>
0

>  <Rbt.Current_Directory>
/home/itssahil/PROJECTS/Mol_Feturizer/New_Systems/rnas/3D2V

>  <Rbt.Executable>
rbdock ($Id: //depot/dev/client3/rdock/2013.1/src/exe/rbdock.cxx#4 $)

>  <Rbt.Library>
libRbt.so (2013.1, Build901 2013/11/27)

>  <Rbt.Parameter_File>
/export/apps/rDock/src/rDock_2013.1_src/data/scripts/dock_solv.prm

>  <Rbt.Receptor>
prm/pocket_docking_5.prm

>  <SCORE>
-20.5996

>  <SCORE.INTER>
-20.6363

>  <SCORE.INTER.CONST>
1

>  <SCORE.INTER.POLAR>
0

>  <SCORE.INTER.ROT>
8

>  <SCORE.INTER.SOLV>
10.8622

>  <SCORE.INTER.VDW>
-26.3116

>  <SCORE.INTER.norm>
-0.764306

>  <SCORE.INTRA>
0.0366556

>  <SCORE.INTRA.DIHEDRAL>
-0.976032

>  <SCORE.INTRA.DIHEDRAL.0>
7.82666

>  <SCORE.INTRA.POLAR>
0

>  <SCORE.INTRA.POLAR.0>
0

>  <SCORE.INTRA.REPUL>
0

>  <SCORE.INTRA.REPUL.0>
0

>  <SCORE.INTRA.SOLV>
2.00563

>  <SCORE.INTRA.SOLV.lig_0>
-83.2758

>  <SCORE.INTRA.VDW>
-0.478146

>  <SCORE.INTRA.VDW.0>
-3.26816

>  <SCORE.INTRA.norm>
0.00135761

>  <SCORE.RESTR>
0

>  <SCORE.RESTR.CAVITY>
0

>  <SCORE.RESTR.norm>
0

>  <SCORE.SYSTEM>
0

>  <SCORE.SYSTEM.CONST>
0

>  <SCORE.SYSTEM.DIHEDRAL>
0

>  <SCORE.SYSTEM.SOLV>
0

>  <SCORE.SYSTEM.norm>
0

>  <SCORE.heavy>
27

>  <SCORE.norm>
-0.762948

>  <RMSD>
2.683

$$$$
ligand
 OpenBabel11021811473D
libRbt.so/2013.1/901 2013/11/27
 27 28  0  0  0  0  0  0  0  0999 V2000
  -12.6836   37.2455   -2.4357 C   0  0  0  0  0  0  0  0  0  0  0  0
   -6.8849   42.1197   -3.3826 C   0  0  0  0  0  0  0  0  0  0  0  0
   -5.2142   41.8570   -5.8555 C   0  0  0  0  0  0  0  0  0  0  0  0
   -3.7357   42.2100   -5.6814 C   0  0  0  0  0  0  0  0  0  0  0  0
   -3.4217   43.4252   -6.3661 O   0  0  0  0  0  0  0  0  0  0  0  0
   -3.3427   43.4465   -7.9702 P   0  0  1  0  0  0  0  0  0  0  0  0
   -4.5609   41.0956   -8.9427 P   0  0  2  0  0  0  0  0  0  0  0  0
   -5.4195   38.2631   -4.6337 C   0  0  0  0  0  0  0  0  0  0  0  0
  -10.7563   38.0520   -1.0858 N   0  0  0  0  0  0  0  0  0  0  0  0
   -3.3342   44.9486   -8.5278 O   0  5  0  0  0  0  0  0  0  0  0  0
   -3.7788   40.2927   -7.9803 O   0  0  0  0  0  0  0  0  0  0  0  0
   -6.1928   38.3622   -3.4846 C   0  0  0  0  0  0  0  0  0  0  0  0
  -11.3092   37.9013   -2.2993 C   0  0  0  0  0  0  0  0  0  0  0  0
   -2.0137   42.7285   -8.5463 O   0  0  0  0  0  0  0  0  0  0  0  0
   -3.9699   40.9734  -10.4298 O   0  5  0  0  0  0  0  0  0  0  0  0
   -6.6705   39.6099   -3.0813 N   0  0  0  0  0  0  0  0  0  0  0  0
  -10.6662   38.3216   -3.3984 N   0  0  0  0  0  0  0  0  0  0  0  0
   -4.6168   42.6580   -8.6039 O   0  0  0  0  0  0  0  0  0  0  0  0
   -6.0623   40.5660   -9.0397 O   0  0  0  0  0  0  0  0  0  0  0  0
   -6.3597   40.7495   -3.8329 C   0  0  1  0  0  0  0  0  0  0  0  0
   -9.4621   38.8984   -3.2991 C   0  0  0  0  0  0  0  0  0  0  0  0
   -8.8353   39.3127   -4.3954 N   0  0  0  0  0  0  0  0  0  0  0  0
   -5.5838   40.6489   -4.9866 C   0  0  2  0  0  0  0  0  0  0  0  0
   -8.8693   39.0681   -2.0539 C   0  0  0  0  0  0  0  0  0  0  0  0
   -5.1186   39.3988   -5.3757 C   0  0  0  0  0  0  0  0  0  0  0  0
   -9.5690   38.6164   -0.9409 C   0  0  0  0  0  0  0  0  0  0  0  0
   -7.4937   39.7175   -1.8539 C   0  0  0  0  0  0  0  0  0  0  0  0
  1 13  1  0  0  0  0
  3  4  1  0  0  0  0
  4  5  1  0  0  0  0
  6  5  1  1  0  0  0
  6 10  1  0  0  0  0
  6 14  2  0  0  0  0
  6 18  1  0  0  0  0
  7 11  1  1  0  0  0
  7 15  1  0  0  0  0
  7 19  2  0  0  0  0
  7 18  1  0  0  0  0
  8 25  1  0  0  0  0
  8 12  1  0  0  0  0
  9 26  2  0  0  0  0
  9 13  1  0  0  0  0
 12 16  1  0  0  0  0
 13 17  2  0  0  0  0
 16 20  1  0  0  0  0
 16 27  1  0  0  0  0
 17 21  1  0  0  0  0
 20  2  1  6  0  0  0
 20 23  1  0  0  0  0
 21 22  1  0  0  0  0
 21 24  2  0  0  0  0
 23  3  1  1  0  0  0
 23 25  1  0  0  0  0
 24 27  1  0  0  0  0
 24 26  1  0  0  0  0
M  CHG  2  10  -1  15  -1
M  END
>  <CHROM.1>
-173.28668410,-72.75196619,166.20352074,-91.32544794,36.45998084,107.48850958
-23.86002596,-69.29385858,-6.18546991,40.65966495,-5.58187360,2.60398393
0.70978449,1.33057856

>  <Name>
ligand

>  <RI>
0

>  <Rbt.Current_Directory>
/home/itssahil/PROJECTS/Mol_Feturizer/New_Systems/rnas/3D2V

>  <Rbt.Executable>
rbdock ($Id: //depot/dev/client3/rdock/2013.1/src/exe/rbdock.cxx#4 $)

>  <Rbt.Library>
libRbt.so (2013.1, Build901 2013/11/27)

>  <Rbt.Parameter_File>
/export/apps/rDock/src/rDock_2013.1_src/data/scripts/dock_solv.prm

>  <Rbt.Receptor>
prm/pocket_docking_3.prm

>  <SCORE>
-17.9318

>  <SCORE.INTER>
-20.4189

>  <SCORE.INTER.CONST>
1

>  <SCORE.INTER.POLAR>
0

>  <SCORE.INTER.ROT>
8

>  <SCORE.INTER.SOLV>
13.9992

>  <SCORE.INTER.VDW>
-27.2123

>  <SCORE.INTER.norm>
-0.756254

>  <SCORE.INTRA>
2.4871

>  <SCORE.INTRA.DIHEDRAL>
0.668681

>  <SCORE.INTRA.DIHEDRAL.0>
7.82666

>  <SCORE.INTRA.POLAR>
0

>  <SCORE.INTRA.POLAR.0>
0

>  <SCORE.INTRA.REPUL>
0

>  <SCORE.INTRA.REPUL.0>
0

>  <SCORE.INTRA.SOLV>
4.83817

>  <SCORE.INTRA.SOLV.lig_0>
-83.2758

>  <SCORE.INTRA.VDW>
-0.266327

>  <SCORE.INTRA.VDW.0>
-3.26816

>  <SCORE.INTRA.norm>
0.0921148

>  <SCORE.RESTR>
0

>  <SCORE.RESTR.CAVITY>
0

>  <SCORE.RESTR.norm>
0

>  <SCORE.SYSTEM>
0

>  <SCORE.SYSTEM.CONST>
0

>  <SCORE.SYSTEM.DIHEDRAL>
0

>  <SCORE.SYSTEM.SOLV>
0

>  <SCORE.SYSTEM.norm>
0

>  <SCORE.heavy>
27

>  <SCORE.norm>
-0.664139

>  <RMSD>
2.685

$$$$
ligand
 OpenBabel11021811473D
libRbt.so/2013.1/901 2013/11/27
 27 28  0  0  0  0  0  0  0  0999 V2000
  -12.5229   37.3256   -2.3684 C   0  0  0  0  0  0  0  0  0  0  0  0
   -5.1834   39.0527   -4.6442 C   0  0  0  0  0  0  0  0  0  0  0  0
   -4.9016   40.8993   -6.9864 C   0  0  0  0  0  0  0  0  0  0  0  0
   -5.4200   39.9128   -8.0346 C   0  0  0  0  0  0  0  0  0  0  0  0
   -6.0666   40.6056   -9.1053 O   0  0  0  0  0  0  0  0  0  0  0  0
   -5.1936   41.4291  -10.1728 P   0  0  1  0  0  0  0  0  0  0  0  0
   -5.0054   44.0781  -11.1235 P   0  0  2  0  0  0  0  0  0  0  0  0
   -7.7648   42.4816   -5.0501 C   0  0  0  0  0  0  0  0  0  0  0  0
  -10.5413   38.4480   -1.3682 N   0  0  0  0  0  0  0  0  0  0  0  0
   -3.6705   41.5617   -9.6933 O   0  5  0  0  0  0  0  0  0  0  0  0
   -5.7773   45.3203  -11.3325 O   0  0  0  0  0  0  0  0  0  0  0  0
   -7.9121   41.6391   -3.9563 C   0  0  0  0  0  0  0  0  0  0  0  0
  -11.1220   37.9310   -2.4620 C   0  0  0  0  0  0  0  0  0  0  0  0
   -5.1633   40.7355  -11.6328 O   0  0  0  0  0  0  0  0  0  0  0  0
   -4.5045   43.4542  -12.5147 O   0  5  0  0  0  0  0  0  0  0  0  0
   -7.0742   40.5311   -3.8225 N   0  0  0  0  0  0  0  0  0  0  0  0
  -10.4839   37.9398   -3.6413 N   0  0  0  0  0  0  0  0  0  0  0  0
   -5.8135   42.9199  -10.3719 O   0  0  0  0  0  0  0  0  0  0  0  0
   -3.6783   44.3654  -10.2868 O   0  0  0  0  0  0  0  0  0  0  0  0
   -6.0998   40.2748   -4.7946 C   0  0  1  0  0  0  0  0  0  0  0  0
   -9.2570   38.4658   -3.7431 C   0  0  0  0  0  0  0  0  0  0  0  0
   -8.6353   38.4706   -4.9177 N   0  0  0  0  0  0  0  0  0  0  0  0
   -5.9523   41.1215   -5.8921 C   0  0  1  0  0  0  0  0  0  0  0  0
   -8.6350   39.0094   -2.6257 C   0  0  0  0  0  0  0  0  0  0  0  0
   -6.7928   42.2219   -6.0086 C   0  0  0  0  0  0  0  0  0  0  0  0
   -9.3307   38.9779   -1.4226 C   0  0  0  0  0  0  0  0  0  0  0  0
   -7.2320   39.6296   -2.6571 C   0  0  0  0  0  0  0  0  0  0  0  0
  1 13  1  0  0  0  0
  3  4  1  0  0  0  0
  4  5  1  0  0  0  0
  6  5  1  1  0  0  0
  6 10  1  0  0  0  0
  6 14  2  0  0  0  0
  6 18  1  0  0  0  0
  7 11  1  6  0  0  0
  7 15  1  0  0  0  0
  7 19  2  0  0  0  0
  7 18  1  0  0  0  0
  8 25  1  0  0  0  0
  8 12  1  0  0  0  0
  9 26  2  0  0  0  0
  9 13  1  0  0  0  0
 12 16  1  0  0  0  0
 13 17  2  0  0  0  0
 16 20  1  0  0  0  0
 16 27  1  0  0  0  0
 17 21  1  0  0  0  0
 20  2  1  1  0  0  0
 20 23  1  0  0  0  0
 21 22  1  0  0  0  0
 21 24  2  0  0  0  0
 23  3  1  1  0  0  0
 23 25  1  0  0  0  0
 24 27  1  0  0  0  0
 24 26  1  0  0  0  0
M  CHG  2  10  -1  15  -1
M  END
>  <CHROM.1>
91.98713830,73.02274517,-10.54933933,166.82576957,174.01900079,84.18805341
45.60801843,60.14161862,-6.75937463,40.94251780,-6.91444104,2.16735933,0.61634613
1.69177967

>  <Name>
ligand

>  <RI>
0

>  <Rbt.Current_Directory>
/home/itssahil/PROJECTS/Mol_Feturizer/New_Systems/rnas/3D2V

>  <Rbt.Executable>
rbdock ($Id: //depot/dev/client3/rdock/2013.1/src/exe/rbdock.cxx#4 $)

>  <Rbt.Library>
libRbt.so (2013.1, Build901 2013/11/27)

>  <Rbt.Parameter_File>
/export/apps/rDock/src/rDock_2013.1_src/data/scripts/dock_solv.prm

>  <Rbt.Receptor>
prm/pocket_docking_4.prm

>  <SCORE>
-15.8117

>  <SCORE.INTER>
-20.2869

>  <SCORE.INTER.CONST>
1

>  <SCORE.INTER.POLAR>
0

>  <SCORE.INTER.ROT>
8

>  <SCORE.INTER.SOLV>
14.3296

>  <SCORE.INTER.VDW>
-27.2345

>  <SCORE.INTER.norm>
-0.751367

>  <SCORE.INTRA>
4.47522

>  <SCORE.INTRA.DIHEDRAL>
3.72833

>  <SCORE.INTRA.DIHEDRAL.0>
7.82666

>  <SCORE.INTRA.POLAR>
0

>  <SCORE.INTRA.POLAR.0>
0

>  <SCORE.INTRA.REPUL>
0

>  <SCORE.INTRA.REPUL.0>
0

>  <SCORE.INTRA.SOLV>
5.93481

>  <SCORE.INTRA.SOLV.lig_0>
-83.2758

>  <SCORE.INTRA.VDW>
-0.356349

>  <SCORE.INTRA.VDW.0>
-3.26816

>  <SCORE.INTRA.norm>
0.165749

>  <SCORE.RESTR>
0

>  <SCORE.RESTR.CAVITY>
0

>  <SCORE.RESTR.norm>
0

>  <SCORE.SYSTEM>
0

>  <SCORE.SYSTEM.CONST>
0

>  <SCORE.SYSTEM.DIHEDRAL>
0

>  <SCORE.SYSTEM.SOLV>
0

>  <SCORE.SYSTEM.norm>
0

>  <SCORE.heavy>
27

>  <SCORE.norm>
-0.585618

>  <RMSD>
2.689

$$$$
ligand
 OpenBabel11021811473D
libRbt.so/2013.1/901 2013/11/27
 27 28  0  0  0  0  0  0  0  0999 V2000
  -13.3667   37.3991   -1.5412 C   0  0  0  0  0  0  0  0  0  0  0  0
   -6.3763   37.6162   -5.3781 C   0  0  0  0  0  0  0  0  0  0  0  0
   -6.6206   37.9250   -8.3480 C   0  0  0  0  0  0  0  0  0  0  0  0
   -5.8540   38.9454   -9.1917 C   0  0  0  0  0  0  0  0  0  0  0  0
   -5.0262   39.7664   -8.3641 O   0  0  0  0  0  0  0  0  0  0  0  0
   -4.4496   41.1548   -8.9298 P   0  0  1  0  0  0  0  0  0  0  0  0
   -2.6050   43.1439   -8.1571 P   0  0  2  0  0  0  0  0  0  0  0  0
   -9.4487   40.1216   -7.0721 C   0  0  0  0  0  0  0  0  0  0  0  0
  -11.7240   37.6700   -3.3893 N   0  0  0  0  0  0  0  0  0  0  0  0
   -3.9012   40.9851  -10.4257 O   0  5  0  0  0  0  0  0  0  0  0  0
   -3.5764   44.2483   -8.0176 O   0  0  0  0  0  0  0  0  0  0  0  0
   -9.3529   39.9931   -5.6928 C   0  0  0  0  0  0  0  0  0  0  0  0
  -12.0092   37.8407   -2.0891 C   0  0  0  0  0  0  0  0  0  0  0  0
   -5.5599   42.3291   -8.9715 O   0  0  0  0  0  0  0  0  0  0  0  0
   -1.8940   43.1624   -9.5958 O   0  5  0  0  0  0  0  0  0  0  0  0
   -8.3561   39.1851   -5.1439 N   0  0  0  0  0  0  0  0  0  0  0  0
  -11.1124   38.3967   -1.2617 N   0  0  0  0  0  0  0  0  0  0  0  0
   -3.2379   41.6851   -7.9828 O   0  0  0  0  0  0  0  0  0  0  0  0
   -1.4209   43.2889   -7.0984 O   0  0  0  0  0  0  0  0  0  0  0  0
   -7.4684   38.5063   -5.9873 C   0  0  1  0  0  0  0  0  0  0  0  0
   -9.9185   38.7894   -1.7229 C   0  0  0  0  0  0  0  0  0  0  0  0
   -9.0371   39.3376   -0.8928 N   0  0  0  0  0  0  0  0  0  0  0  0
   -7.5650   38.6364   -7.3718 C   0  0  2  0  0  0  0  0  0  0  0  0
   -9.5981   38.6215   -3.0645 C   0  0  0  0  0  0  0  0  0  0  0  0
   -8.5613   39.4471   -7.9019 C   0  0  0  0  0  0  0  0  0  0  0  0
  -10.5571   38.0429   -3.8879 C   0  0  0  0  0  0  0  0  0  0  0  0
   -8.2544   39.0449   -3.6722 C   0  0  0  0  0  0  0  0  0  0  0  0
  1 13  1  0  0  0  0
  3  4  1  0  0  0  0
  4  5  1  0  0  0  0
  6  5  1  1  0  0  0
  6 10  1  0  0  0  0
  6 14  2  0  0  0  0
  6 18  1  0  0  0  0
  7 11  1  1  0  0  0
  7 15  1  0  0  0  0
  7 19  2  0  0  0  0
  7 18  1  0  0  0  0
  8 25  1  0  0  0  0
  8 12  1  0  0  0  0
  9 26  2  0  0  0  0
  9 13  1  0  0  0  0
 12 16  1  0  0  0  0
 13 17  2  0  0  0  0
 16 20  1  0  0  0  0
 16 27  1  0  0  0  0
 17 21  1  0  0  0  0
 20  2  1  1  0  0  0
 20 23  1  0  0  0  0
 21 22  1  0  0  0  0
 21 24  2  0  0  0  0
 23  3  1  6  0  0  0
 23 25  1  0  0  0  0
 24 27  1  0  0  0  0
 24 26  1  0  0  0  0
M  CHG  2  10  -1  15  -1
M  END
>  <CHROM.1>
62.66435629,-162.78212467,-43.77851794,-170.76275421,58.13676151,-119.29582550
-160.40510131,53.04790206,-6.77224452,40.12784262,-6.30334461,-2.73702831
-0.67174905,-1.94543731

>  <Name>
ligand

>  <RI>
0

>  <Rbt.Current_Directory>
/home/itssahil/PROJECTS/Mol_Feturizer/New_Systems/rnas/3D2V

>  <Rbt.Executable>
rbdock ($Id: //depot/dev/client3/rdock/2013.1/src/exe/rbdock.cxx#4 $)

>  <Rbt.Library>
libRbt.so (2013.1, Build901 2013/11/27)

>  <Rbt.Parameter_File>
/export/apps/rDock/src/rDock_2013.1_src/data/scripts/dock_solv.prm

>  <Rbt.Receptor>
prm/pocket_docking_3.prm

>  <SCORE>
-23.757

>  <SCORE.INTER>
-23.3589

>  <SCORE.INTER.CONST>
1

>  <SCORE.INTER.POLAR>
0

>  <SCORE.INTER.ROT>
8

>  <SCORE.INTER.SOLV>
23.4231

>  <SCORE.INTER.VDW>
-32.3136

>  <SCORE.INTER.norm>
-0.865145

>  <SCORE.INTRA>
-0.398135

>  <SCORE.INTRA.DIHEDRAL>
-0.688418

>  <SCORE.INTRA.DIHEDRAL.0>
7.82666

>  <SCORE.INTRA.POLAR>
0

>  <SCORE.INTRA.POLAR.0>
0

>  <SCORE.INTRA.REPUL>
0

>  <SCORE.INTRA.REPUL.0>
0

>  <SCORE.INTRA.SOLV>
-0.660231

>  <SCORE.INTRA.SOLV.lig_0>
-83.2758

>  <SCORE.INTRA.VDW>
0.276189

>  <SCORE.INTRA.VDW.0>
-3.26816

>  <SCORE.INTRA.norm>
-0.0147458

>  <SCORE.RESTR>
0

>  <SCORE.RESTR.CAVITY>
0

>  <SCORE.RESTR.norm>
0

>  <SCORE.SYSTEM>
0

>  <SCORE.SYSTEM.CONST>
0

>  <SCORE.SYSTEM.DIHEDRAL>
0

>  <SCORE.SYSTEM.SOLV>
0

>  <SCORE.SYSTEM.norm>
0

>  <SCORE.heavy>
27

>  <SCORE.norm>
-0.87989

>  <RMSD>
2.690

$$$$
ligand
 OpenBabel11021811473D
libRbt.so/2013.1/901 2013/11/27
 27 28  0  0  0  0  0  0  0  0999 V2000
  -13.3666   37.4225   -1.5818 C   0  0  0  0  0  0  0  0  0  0  0  0
   -6.6475   37.4593   -5.4270 C   0  0  0  0  0  0  0  0  0  0  0  0
   -6.8854   37.8695   -8.3851 C   0  0  0  0  0  0  0  0  0  0  0  0
   -5.6556   38.6475   -8.8570 C   0  0  0  0  0  0  0  0  0  0  0  0
   -6.0338   39.9236   -9.3793 O   0  0  0  0  0  0  0  0  0  0  0  0
   -4.9088   40.9421   -9.9056 P   0  0  1  0  0  0  0  0  0  0  0  0
   -4.6991   43.6248  -10.7514 P   0  0  2  0  0  0  0  0  0  0  0  0
   -9.3127   40.4536   -7.0134 C   0  0  0  0  0  0  0  0  0  0  0  0
  -11.7119   37.7224   -3.4146 N   0  0  0  0  0  0  0  0  0  0  0  0
   -3.7601   41.1505   -8.8083 O   0  5  0  0  0  0  0  0  0  0  0  0
   -4.0221   43.4041  -12.0458 O   0  0  0  0  0  0  0  0  0  0  0  0
   -9.2173   40.2805   -5.6390 C   0  0  0  0  0  0  0  0  0  0  0  0
  -12.0085   37.8793   -2.1152 C   0  0  0  0  0  0  0  0  0  0  0  0
   -4.1773   40.4325  -11.2542 O   0  0  0  0  0  0  0  0  0  0  0  0
   -3.6466   43.9418   -9.5821 O   0  5  0  0  0  0  0  0  0  0  0  0
   -8.3519   39.3139   -5.1249 N   0  0  0  0  0  0  0  0  0  0  0  0
  -11.1224   38.4349   -1.2760 N   0  0  0  0  0  0  0  0  0  0  0  0
   -5.5765   42.3855  -10.2481 O   0  0  0  0  0  0  0  0  0  0  0  0
   -5.6542   44.9005  -10.8178 O   0  0  0  0  0  0  0  0  0  0  0  0
   -7.5950   38.5233   -5.9979 C   0  0  1  0  0  0  0  0  0  0  0  0
   -9.9280   38.8408   -1.7244 C   0  0  0  0  0  0  0  0  0  0  0  0
   -9.0573   39.3883   -0.8827 N   0  0  0  0  0  0  0  0  0  0  0  0
   -7.6911   38.6982   -7.3775 C   0  0  2  0  0  0  0  0  0  0  0  0
   -9.5960   38.6873   -3.0649 C   0  0  0  0  0  0  0  0  0  0  0  0
   -8.5554   39.6670   -7.8727 C   0  0  0  0  0  0  0  0  0  0  0  0
  -10.5442   38.1086   -3.9007 C   0  0  0  0  0  0  0  0  0  0  0  0
   -8.2510   39.1264   -3.6584 C   0  0  0  0  0  0  0  0  0  0  0  0
  1 13  1  0  0  0  0
  3  4  1  0  0  0  0
  4  5  1  0  0  0  0
  6  5  1  1  0  0  0
  6 10  1  0  0  0  0
  6 14  2  0  0  0  0
  6 18  1  0  0  0  0
  7 11  1  6  0  0  0
  7 15  1  0  0  0  0
  7 19  2  0  0  0  0
  7 18  1  0  0  0  0
  8 25  1  0  0  0  0
  8 12  1  0  0  0  0
  9 26  2  0  0  0  0
  9 13  1  0  0  0  0
 12 16  1  0  0  0  0
 13 17  2  0  0  0  0
 16 20  1  0  0  0  0
 16 27  1  0  0  0  0
 17 21  1  0  0  0  0
 20  2  1  1  0  0  0
 20 23  1  0  0  0  0
 21 22  1  0  0  0  0
 21 24  2  0  0  0  0
 23  3  1  6  0  0  0
 23 25  1  0  0  0  0
 24 27  1  0  0  0  0
 24 26  1  0  0  0  0
M  CHG  2  10  -1  15  -1
M  END
>  <CHROM.1>
-54.77301346,178.48006056,-51.39612695,178.04275272,62.80797545,-98.96895456
-158.88647794,62.01719978,-7.29862951,40.20274715,-7.01896213,2.70115744
-0.90512725,3.08980748

>  <Name>
ligand

>  <RI>
0

>  <Rbt.Current_Directory>
/home/itssahil/PROJECTS/Mol_Feturizer/New_Systems/rnas/3D2V

>  <Rbt.Executable>
rbdock ($Id: //depot/dev/client3/rdock/2013.1/src/exe/rbdock.cxx#4 $)

>  <Rbt.Library>
libRbt.so (2013.1, Build901 2013/11/27)

>  <Rbt.Parameter_File>
/export/apps/rDock/src/rDock_2013.1_src/data/scripts/dock_solv.prm

>  <Rbt.Receptor>
prm/pocket_docking_4.prm

>  <SCORE>
-22.9534

>  <SCORE.INTER>
-21.4544

>  <SCORE.INTER.CONST>
1

>  <SCORE.INTER.POLAR>
0

>  <SCORE.INTER.ROT>
8

>  <SCORE.INTER.SOLV>
23.2611

>  <SCORE.INTER.VDW>
-30.9899

>  <SCORE.INTER.norm>
-0.794607

>  <SCORE.INTRA>
-1.49904

>  <SCORE.INTRA.DIHEDRAL>
-2.39184

>  <SCORE.INTRA.DIHEDRAL.0>
7.82666

>  <SCORE.INTRA.POLAR>
0

>  <SCORE.INTRA.POLAR.0>
0

>  <SCORE.INTRA.REPUL>
0

>  <SCORE.INTRA.REPUL.0>
0

>  <SCORE.INTRA.SOLV>
-0.598831

>  <SCORE.INTRA.SOLV.lig_0>
-83.2758

>  <SCORE.INTRA.VDW>
-0.0037044

>  <SCORE.INTRA.VDW.0>
-3.26816

>  <SCORE.INTRA.norm>
-0.05552

>  <SCORE.RESTR>
0

>  <SCORE.RESTR.CAVITY>
0

>  <SCORE.RESTR.norm>
0

>  <SCORE.SYSTEM>
0

>  <SCORE.SYSTEM.CONST>
0

>  <SCORE.SYSTEM.DIHEDRAL>
0

>  <SCORE.SYSTEM.SOLV>
0

>  <SCORE.SYSTEM.norm>
0

>  <SCORE.heavy>
27

>  <SCORE.norm>
-0.850127

>  <RMSD>
2.697

$$$$
ligand
 OpenBabel11021811473D
libRbt.so/2013.1/901 2013/11/27
 27 28  0  0  0  0  0  0  0  0999 V2000
  -12.1814   37.4891   -1.7871 C   0  0  0  0  0  0  0  0  0  0  0  0
   -7.0449   40.8198   -6.2299 C   0  0  0  0  0  0  0  0  0  0  0  0
   -5.4549   39.0817   -8.0810 C   0  0  0  0  0  0  0  0  0  0  0  0
   -4.5923   40.3329   -8.2574 C   0  0  0  0  0  0  0  0  0  0  0  0
   -4.7319   40.8616   -9.5784 O   0  0  0  0  0  0  0  0  0  0  0  0
   -4.0925   42.2889   -9.9445 P   0  0  1  0  0  0  0  0  0  0  0  0
   -6.5404   43.5495  -10.5570 P   0  0  2  0  0  0  0  0  0  0  0  0
   -5.1276   37.2456   -4.7685 C   0  0  0  0  0  0  0  0  0  0  0  0
  -10.0149   38.6215   -1.3274 N   0  0  0  0  0  0  0  0  0  0  0  0
   -3.8808   43.1806   -8.6303 O   0  5  0  0  0  0  0  0  0  0  0  0
   -7.5459   43.4075  -11.6299 O   0  0  0  0  0  0  0  0  0  0  0  0
   -5.8603   38.0366   -3.8934 C   0  0  0  0  0  0  0  0  0  0  0  0
  -10.8845   38.1607   -2.2398 C   0  0  0  0  0  0  0  0  0  0  0  0
   -2.6492   42.1684  -10.6628 O   0  0  0  0  0  0  0  0  0  0  0  0
   -6.4205   45.0705  -10.0590 O   0  5  0  0  0  0  0  0  0  0  0  0
   -6.4843   39.1916   -4.3669 N   0  0  0  0  0  0  0  0  0  0  0  0
  -10.6269   38.2834   -3.5500 N   0  0  0  0  0  0  0  0  0  0  0  0
   -5.0653   43.0909  -10.9726 O   0  0  0  0  0  0  0  0  0  0  0  0
   -6.9626   42.7140   -9.2656 O   0  0  0  0  0  0  0  0  0  0  0  0
   -6.3595   39.5463   -5.7155 C   0  0  1  0  0  0  0  0  0  0  0  0
   -9.4969   38.8688   -3.9656 C   0  0  0  0  0  0  0  0  0  0  0  0
   -9.2535   38.9865   -5.2669 N   0  0  0  0  0  0  0  0  0  0  0  0
   -5.6241   38.7514   -6.5932 C   0  0  1  0  0  0  0  0  0  0  0  0
   -8.5815   39.3562   -3.0408 C   0  0  0  0  0  0  0  0  0  0  0  0
   -5.0117   37.6032   -6.1062 C   0  0  0  0  0  0  0  0  0  0  0  0
   -8.8865   39.2066   -1.6928 C   0  0  0  0  0  0  0  0  0  0  0  0
   -7.2644   40.0380   -3.4336 C   0  0  0  0  0  0  0  0  0  0  0  0
  1 13  1  0  0  0  0
  3  4  1  0  0  0  0
  4  5  1  0  0  0  0
  6  5  1  1  0  0  0
  6 10  1  0  0  0  0
  6 14  2  0  0  0  0
  6 18  1  0  0  0  0
  7 11  1  6  0  0  0
  7 15  1  0  0  0  0
  7 19  2  0  0  0  0
  7 18  1  0  0  0  0
  8 25  1  0  0  0  0
  8 12  1  0  0  0  0
  9 26  2  0  0  0  0
  9 13  1  0  0  0  0
 12 16  1  0  0  0  0
 13 17  2  0  0  0  0
 16 20  1  0  0  0  0
 16 27  1  0  0  0  0
 17 21  1  0  0  0  0
 20  2  1  6  0  0  0
 20 23  1  0  0  0  0
 21 22  1  0  0  0  0
 21 24  2  0  0  0  0
 23  3  1  6  0  0  0
 23 25  1  0  0  0  0
 24 27  1  0  0  0  0
 24 26  1  0  0  0  0
M  CHG  2  10  -1  15  -1
M  END
>  <CHROM.1>
-163.83974671,171.23221600,-22.69333225,63.68677999,-140.98278701,68.48907855
-52.80794362,-72.15890210,-6.72220414,40.60434312,-6.88775178,2.05597682
-0.35526476,2.29478611

>  <Name>
ligand

>  <RI>
0

>  <Rbt.Current_Directory>
/home/itssahil/PROJECTS/Mol_Feturizer/New_Systems/rnas/3D2V

>  <Rbt.Executable>
rbdock ($Id: //depot/dev/client3/rdock/2013.1/src/exe/rbdock.cxx#4 $)

>  <Rbt.Library>
libRbt.so (2013.1, Build901 2013/11/27)

>  <Rbt.Parameter_File>
/export/apps/rDock/src/rDock_2013.1_src/data/scripts/dock_solv.prm

>  <Rbt.Receptor>
prm/pocket_docking_6.prm

>  <SCORE>
-20.7296

>  <SCORE.INTER>
-24.2129

>  <SCORE.INTER.CONST>
1

>  <SCORE.INTER.POLAR>
0

>  <SCORE.INTER.ROT>
8

>  <SCORE.INTER.SOLV>
13.0703

>  <SCORE.INTER.VDW>
-29.432

>  <SCORE.INTER.norm>
-0.896773

>  <SCORE.INTRA>
3.48328

>  <SCORE.INTRA.DIHEDRAL>
2.05853

>  <SCORE.INTRA.DIHEDRAL.0>
7.82666

>  <SCORE.INTRA.POLAR>
0

>  <SCORE.INTRA.POLAR.0>
0

>  <SCORE.INTRA.REPUL>
0

>  <SCORE.INTRA.REPUL.0>
0

>  <SCORE.INTRA.SOLV>
5.00735

>  <SCORE.INTRA.SOLV.lig_0>
-83.2758

>  <SCORE.INTRA.VDW>
-0.0496598

>  <SCORE.INTRA.VDW.0>
-3.26816

>  <SCORE.INTRA.norm>
0.12901

>  <SCORE.RESTR>
0

>  <SCORE.RESTR.CAVITY>
0

>  <SCORE.RESTR.norm>
0

>  <SCORE.SYSTEM>
0

>  <SCORE.SYSTEM.CONST>
0

>  <SCORE.SYSTEM.DIHEDRAL>
0

>  <SCORE.SYSTEM.SOLV>
0

>  <SCORE.SYSTEM.norm>
0

>  <SCORE.heavy>
27

>  <SCORE.norm>
-0.767763

>  <RMSD>
2.698

$$$$
ligand
 OpenBabel11021811473D
libRbt.so/2013.1/901 2013/11/27
 27 28  0  0  0  0  0  0  0  0999 V2000
  -12.6614   37.6507   -1.5241 C   0  0  0  0  0  0  0  0  0  0  0  0
   -4.8986   39.8516   -4.1658 C   0  0  0  0  0  0  0  0  0  0  0  0
   -4.4210   42.8086   -4.2278 C   0  0  0  0  0  0  0  0  0  0  0  0
   -3.9951   43.1104   -5.6659 C   0  0  0  0  0  0  0  0  0  0  0  0
   -2.6481   43.5881   -5.7050 O   0  0  0  0  0  0  0  0  0  0  0  0
   -2.1048   44.3548   -7.0077 P   0  0  1  0  0  0  0  0  0  0  0  0
   -2.7011   46.6594   -8.5207 P   0  0  2  0  0  0  0  0  0  0  0  0
   -8.2166   42.6042   -4.1784 C   0  0  0  0  0  0  0  0  0  0  0  0
  -11.1424   37.7052   -3.4930 N   0  0  0  0  0  0  0  0  0  0  0  0
   -0.5817   44.8131   -6.8145 O   0  5  0  0  0  0  0  0  0  0  0  0
   -2.5084   45.9831   -9.8200 O   0  0  0  0  0  0  0  0  0  0  0  0
   -8.4606   41.2375   -4.1488 C   0  0  0  0  0  0  0  0  0  0  0  0
  -11.3281   37.9849   -2.1937 C   0  0  0  0  0  0  0  0  0  0  0  0
   -2.1508   43.4428   -8.3418 O   0  0  0  0  0  0  0  0  0  0  0  0
   -1.4033   47.5032   -8.0971 O   0  5  0  0  0  0  0  0  0  0  0  0
   -7.3867   40.3462   -4.1409 N   0  0  0  0  0  0  0  0  0  0  0  0
  -10.3524   38.5570   -1.4733 N   0  0  0  0  0  0  0  0  0  0  0  0
   -3.0157   45.6697   -7.3040 O   0  0  0  0  0  0  0  0  0  0  0  0
   -3.8881   47.7217   -8.6015 O   0  0  0  0  0  0  0  0  0  0  0  0
   -6.0757   40.8367   -4.1710 C   0  0  1  0  0  0  0  0  0  0  0  0
   -9.1781   38.8567   -2.0420 C   0  0  0  0  0  0  0  0  0  0  0  0
   -8.2179   39.4218   -1.3173 N   0  0  0  0  0  0  0  0  0  0  0  0
   -5.8319   42.2088   -4.2002 C   0  0  1  0  0  0  0  0  0  0  0  0
   -8.9601   38.5751   -3.3852 C   0  0  0  0  0  0  0  0  0  0  0  0
   -6.9123   43.0826   -4.2047 C   0  0  0  0  0  0  0  0  0  0  0  0
   -9.9985   37.9839   -4.0956 C   0  0  0  0  0  0  0  0  0  0  0  0
   -7.6456   38.8874   -4.1120 C   0  0  0  0  0  0  0  0  0  0  0  0
  1 13  1  0  0  0  0
  3  4  1  0  0  0  0
  4  5  1  0  0  0  0
  6  5  1  1  0  0  0
  6 10  1  0  0  0  0
  6 14  2  0  0  0  0
  6 18  1  0  0  0  0
  7 11  1  6  0  0  0
  7 15  1  0  0  0  0
  7 19  2  0  0  0  0
  7 18  1  0  0  0  0
  8 25  1  0  0  0  0
  8 12  1  0  0  0  0
  9 26  2  0  0  0  0
  9 13  1  0  0  0  0
 12 16  1  0  0  0  0
 13 17  2  0  0  0  0
 16 20  1  0  0  0  0
 16 27  1  0  0  0  0
 17 21  1  0  0  0  0
 20  2  1  1  0  0  0
 20 23  1  0  0  0  0
 21 22  1  0  0  0  0
 21 24  2  0  0  0  0
 23  3  1  1  0  0  0
 23 25  1  0  0  0  0
 24 27  1  0  0  0  0
 24 26  1  0  0  0  0
M  CHG  2  10  -1  15  -1
M  END
>  <CHROM.1>
-176.22442021,-162.80909591,179.19725467,178.58697030,49.71271382,95.20816864
-63.18631024,-29.75112291,-5.64889675,42.37781855,-5.30375508,2.28049009
-0.04225527,2.54064208

>  <Name>
ligand

>  <RI>
0

>  <Rbt.Current_Directory>
/home/itssahil/PROJECTS/Mol_Feturizer/New_Systems/rnas/3D2V

>  <Rbt.Executable>
rbdock ($Id: //depot/dev/client3/rdock/2013.1/src/exe/rbdock.cxx#4 $)

>  <Rbt.Library>
libRbt.so (2013.1, Build901 2013/11/27)

>  <Rbt.Parameter_File>
/export/apps/rDock/src/rDock_2013.1_src/data/scripts/dock_solv.prm

>  <Rbt.Receptor>
prm/pocket_docking_6.prm

>  <SCORE>
-12.4107

>  <SCORE.INTER>
-12.1359

>  <SCORE.INTER.CONST>
1

>  <SCORE.INTER.POLAR>
0

>  <SCORE.INTER.ROT>
8

>  <SCORE.INTER.SOLV>
17.2568

>  <SCORE.INTER.VDW>
-22.7762

>  <SCORE.INTER.norm>
-0.449478

>  <SCORE.INTRA>
-0.274764

>  <SCORE.INTRA.DIHEDRAL>
-1.07602

>  <SCORE.INTRA.DIHEDRAL.0>
7.82666

>  <SCORE.INTRA.POLAR>
0

>  <SCORE.INTRA.POLAR.0>
0

>  <SCORE.INTRA.REPUL>
0

>  <SCORE.INTRA.REPUL.0>
0

>  <SCORE.INTRA.SOLV>
0.606391

>  <SCORE.INTRA.SOLV.lig_0>
-83.2758

>  <SCORE.INTRA.VDW>
-0.0399512

>  <SCORE.INTRA.VDW.0>
-3.26816

>  <SCORE.INTRA.norm>
-0.0101764

>  <SCORE.RESTR>
0

>  <SCORE.RESTR.CAVITY>
0

>  <SCORE.RESTR.norm>
0

>  <SCORE.SYSTEM>
0

>  <SCORE.SYSTEM.CONST>
0

>  <SCORE.SYSTEM.DIHEDRAL>
0

>  <SCORE.SYSTEM.SOLV>
0

>  <SCORE.SYSTEM.norm>
0

>  <SCORE.heavy>
27

>  <SCORE.norm>
-0.459655

>  <RMSD>
2.704

$$$$
ligand
 OpenBabel11021811473D
libRbt.so/2013.1/901 2013/11/27
 27 28  0  0  0  0  0  0  0  0999 V2000
  -12.8985   37.3651   -1.7908 C   0  0  0  0  0  0  0  0  0  0  0  0
   -8.5957   39.5596   -6.4508 C   0  0  0  0  0  0  0  0  0  0  0  0
   -7.0276   37.6163   -8.1061 C   0  0  0  0  0  0  0  0  0  0  0  0
   -5.9778   38.3676   -8.9271 C   0  0  0  0  0  0  0  0  0  0  0  0
   -6.1702   39.7806   -8.8230 O   0  0  0  0  0  0  0  0  0  0  0  0
   -5.1717   40.7855   -9.5799 P   0  0  1  0  0  0  0  0  0  0  0  0
   -6.7212   43.0300   -8.8608 P   0  0  2  0  0  0  0  0  0  0  0  0
   -5.4953   37.1603   -4.6572 C   0  0  0  0  0  0  0  0  0  0  0  0
  -11.3381   38.1355   -3.5680 N   0  0  0  0  0  0  0  0  0  0  0  0
   -3.9057   41.1399   -8.6640 O   0  5  0  0  0  0  0  0  0  0  0  0
   -7.6200   42.2441   -7.9907 O   0  0  0  0  0  0  0  0  0  0  0  0
   -6.2103   38.0544   -3.8715 C   0  0  0  0  0  0  0  0  0  0  0  0
  -11.5919   38.0083   -2.2564 C   0  0  0  0  0  0  0  0  0  0  0  0
   -4.5915   40.1775  -10.9610 O   0  0  0  0  0  0  0  0  0  0  0  0
   -7.5215   44.1692   -9.6593 O   0  5  0  0  0  0  0  0  0  0  0  0
   -7.2166   38.8286   -4.4509 N   0  0  0  0  0  0  0  0  0  0  0  0
  -10.7079   38.4413   -1.3459 N   0  0  0  0  0  0  0  0  0  0  0  0
   -5.9471   42.1640   -9.9607 O   0  0  0  0  0  0  0  0  0  0  0  0
   -5.6282   43.8074   -7.9977 O   0  0  0  0  0  0  0  0  0  0  0  0
   -7.4903   38.7030   -5.8182 C   0  0  1  0  0  0  0  0  0  0  0  0
   -9.5583   39.0069   -1.7343 C   0  0  0  0  0  0  0  0  0  0  0  0
   -8.6890   39.4305   -0.8225 N   0  0  0  0  0  0  0  0  0  0  0  0
   -6.7722   37.8048   -6.6061 C   0  0  1  0  0  0  0  0  0  0  0  0
   -9.2709   39.1480   -3.0864 C   0  0  0  0  0  0  0  0  0  0  0  0
   -5.7756   37.0395   -6.0128 C   0  0  0  0  0  0  0  0  0  0  0  0
  -10.2154   38.6877   -3.9967 C   0  0  0  0  0  0  0  0  0  0  0  0
   -7.9787   39.7851   -3.6141 C   0  0  0  0  0  0  0  0  0  0  0  0
  1 13  1  0  0  0  0
  3  4  1  0  0  0  0
  4  5  1  0  0  0  0
  6  5  1  1  0  0  0
  6 10  1  0  0  0  0
  6 14  2  0  0  0  0
  6 18  1  0  0  0  0
  7 11  1  1  0  0  0
  7 15  1  0  0  0  0
  7 19  2  0  0  0  0
  7 18  1  0  0  0  0
  8 25  1  0  0  0  0
  8 12  1  0  0  0  0
  9 26  2  0  0  0  0
  9 13  1  0  0  0  0
 12 16  1  0  0  0  0
 13 17  2  0  0  0  0
 16 20  1  0  0  0  0
 16 27  1  0  0  0  0
 17 21  1  0  0  0  0
 20  2  1  1  0  0  0
 20 23  1  0  0  0  0
 21 22  1  0  0  0  0
 21 24  2  0  0  0  0
 23  3  1  1  0  0  0
 23 25  1  0  0  0  0
 24 27  1  0  0  0  0
 24 26  1  0  0  0  0
M  CHG  2  10  -1  15  -1
M  END
>  <CHROM.1>
-70.37380892,178.93148208,-88.12759083,54.04693359,-48.17303134,100.94536413
120.24972880,-93.99040936,-7.43243205,39.90044759,-6.36040255,2.32769314
-0.75979037,2.59849104

>  <Name>
ligand

>  <RI>
0

>  <Rbt.Current_Directory>
/home/itssahil/PROJECTS/Mol_Feturizer/New_Systems/rnas/3D2V

>  <Rbt.Executable>
rbdock ($Id: //depot/dev/client3/rdock/2013.1/src/exe/rbdock.cxx#4 $)

>  <Rbt.Library>
libRbt.so (2013.1, Build901 2013/11/27)

>  <Rbt.Parameter_File>
/export/apps/rDock/src/rDock_2013.1_src/data/scripts/dock_solv.prm

>  <Rbt.Receptor>
prm/pocket_docking_5.prm

>  <SCORE>
-24.7926

>  <SCORE.INTER>
-22.656

>  <SCORE.INTER.CONST>
1

>  <SCORE.INTER.POLAR>
0

>  <SCORE.INTER.ROT>
8

>  <SCORE.INTER.SOLV>
24.6682

>  <SCORE.INTER.VDW>
-32.26

>  <SCORE.INTER.norm>
-0.83911

>  <SCORE.INTRA>
-2.1366

>  <SCORE.INTRA.DIHEDRAL>
-0.854921

>  <SCORE.INTRA.DIHEDRAL.0>
7.82666

>  <SCORE.INTRA.POLAR>
0

>  <SCORE.INTRA.POLAR.0>
0

>  <SCORE.INTRA.REPUL>
0

>  <SCORE.INTRA.REPUL.0>
0

>  <SCORE.INTRA.SOLV>
-2.36507

>  <SCORE.INTRA.SOLV.lig_0>
-83.2758

>  <SCORE.INTRA.VDW>
-0.526603

>  <SCORE.INTRA.VDW.0>
-3.26816

>  <SCORE.INTRA.norm>
-0.0791332

>  <SCORE.RESTR>
0

>  <SCORE.RESTR.CAVITY>
0

>  <SCORE.RESTR.norm>
0

>  <SCORE.SYSTEM>
0

>  <SCORE.SYSTEM.CONST>
0

>  <SCORE.SYSTEM.DIHEDRAL>
0

>  <SCORE.SYSTEM.SOLV>
0

>  <SCORE.SYSTEM.norm>
0

>  <SCORE.heavy>
27

>  <SCORE.norm>
-0.918243

>  <RMSD>
2.721

$$$$
ligand
 OpenBabel11021811473D
libRbt.so/2013.1/901 2013/11/27
 27 28  0  0  0  0  0  0  0  0999 V2000
  -13.7359   37.2918   -1.8278 C   0  0  0  0  0  0  0  0  0  0  0  0
   -6.1442   38.1585   -4.4966 C   0  0  0  0  0  0  0  0  0  0  0  0
   -5.9405   38.4232   -7.4738 C   0  0  0  0  0  0  0  0  0  0  0  0
   -4.7772   39.4167   -7.4595 C   0  0  0  0  0  0  0  0  0  0  0  0
   -5.1127   40.5993   -8.1897 O   0  0  0  0  0  0  0  0  0  0  0  0
   -4.1704   41.8966   -8.0953 P   0  0  1  0  0  0  0  0  0  0  0  0
   -4.6387   42.2702  -10.8516 P   0  0  2  0  0  0  0  0  0  0  0  0
   -9.2445   40.1513   -6.7334 C   0  0  0  0  0  0  0  0  0  0  0  0
  -11.9094   37.8151   -3.4332 N   0  0  0  0  0  0  0  0  0  0  0  0
   -4.9484   43.1277   -7.4274 O   0  5  0  0  0  0  0  0  0  0  0  0
   -5.2402   40.9423  -11.0910 O   0  0  0  0  0  0  0  0  0  0  0  0
   -9.3586   40.0403   -5.3540 C   0  0  0  0  0  0  0  0  0  0  0  0
  -12.3411   37.8213   -2.1625 C   0  0  0  0  0  0  0  0  0  0  0  0
   -2.8421   41.6486   -7.2077 O   0  0  0  0  0  0  0  0  0  0  0  0
   -3.7708   42.7598  -12.1098 O   0  5  0  0  0  0  0  0  0  0  0  0
   -8.3534   39.3986   -4.6291 N   0  0  0  0  0  0  0  0  0  0  0  0
  -11.5588   38.2889   -1.1790 N   0  0  0  0  0  0  0  0  0  0  0  0
   -3.6701   42.3344   -9.5801 O   0  0  0  0  0  0  0  0  0  0  0  0
   -5.7671   43.3808  -10.6586 O   0  0  0  0  0  0  0  0  0  0  0  0
   -7.2449   38.8664   -5.2986 C   0  0  1  0  0  0  0  0  0  0  0  0
  -10.3344   38.7564   -1.4525 C   0  0  0  0  0  0  0  0  0  0  0  0
   -9.5674   39.2156   -0.4691 N   0  0  0  0  0  0  0  0  0  0  0  0
   -7.1310   38.9788   -6.6834 C   0  0  2  0  0  0  0  0  0  0  0  0
   -9.8633   38.7587   -2.7598 C   0  0  0  0  0  0  0  0  0  0  0  0
   -8.1393   39.6233   -7.3897 C   0  0  0  0  0  0  0  0  0  0  0  0
  -10.7072   38.2670   -3.7490 C   0  0  0  0  0  0  0  0  0  0  0  0
   -8.4751   39.2771   -3.1573 C   0  0  0  0  0  0  0  0  0  0  0  0
  1 13  1  0  0  0  0
  3  4  1  0  0  0  0
  4  5  1  0  0  0  0
  6  5  1  6  0  0  0
  6 10  1  0  0  0  0
  6 14  2  0  0  0  0
  6 18  1  0  0  0  0
  7 11  1  6  0  0  0
  7 15  1  0  0  0  0
  7 19  2  0  0  0  0
  7 18  1  0  0  0  0
  8 25  1  0  0  0  0
  8 12  1  0  0  0  0
  9 26  2  0  0  0  0
  9 13  1  0  0  0  0
 12 16  1  0  0  0  0
 13 17  2  0  0  0  0
 16 20  1  0  0  0  0
 16 27  1  0  0  0  0
 17 21  1  0  0  0  0
 20  2  1  1  0  0  0
 20 23  1  0  0  0  0
 21 22  1  0  0  0  0
 21 24  2  0  0  0  0
 23  3  1  6  0  0  0
 23 25  1  0  0  0  0
 24 27  1  0  0  0  0
 24 26  1  0  0  0  0
M  CHG  2  10  -1  15  -1
M  END
>  <CHROM.1>
-66.97597375,168.70194953,-116.18439709,39.37150657,-55.65268863,-83.69197599
-168.98327895,48.31595030,-7.15611300,40.19011518,-6.41451345,2.26032276
0.22577147,1.85415384

>  <Name>
ligand

>  <RI>
0

>  <Rbt.Current_Directory>
/home/itssahil/PROJECTS/Mol_Feturizer/New_Systems/rnas/3D2V

>  <Rbt.Executable>
rbdock ($Id: //depot/dev/client3/rdock/2013.1/src/exe/rbdock.cxx#4 $)

>  <Rbt.Library>
libRbt.so (2013.1, Build901 2013/11/27)

>  <Rbt.Parameter_File>
/export/apps/rDock/src/rDock_2013.1_src/data/scripts/dock_solv.prm

>  <Rbt.Receptor>
prm/pocket_docking_3.prm

>  <SCORE>
-21.0896

>  <SCORE.INTER>
-21.1187

>  <SCORE.INTER.CONST>
1

>  <SCORE.INTER.POLAR>
0

>  <SCORE.INTER.ROT>
8

>  <SCORE.INTER.SOLV>
23.622

>  <SCORE.INTER.VDW>
-30.8865

>  <SCORE.INTER.norm>
-0.782174

>  <SCORE.INTRA>
0.029075

>  <SCORE.INTRA.DIHEDRAL>
1.18664

>  <SCORE.INTRA.DIHEDRAL.0>
7.82666

>  <SCORE.INTRA.POLAR>
0

>  <SCORE.INTRA.POLAR.0>
0

>  <SCORE.INTRA.REPUL>
0

>  <SCORE.INTRA.REPUL.0>
0

>  <SCORE.INTRA.SOLV>
-2.48528

>  <SCORE.INTRA.SOLV.lig_0>
-83.2758

>  <SCORE.INTRA.VDW>
0.678396

>  <SCORE.INTRA.VDW.0>
-3.26816

>  <SCORE.INTRA.norm>
0.00107685

>  <SCORE.RESTR>
0

>  <SCORE.RESTR.CAVITY>
0

>  <SCORE.RESTR.norm>
0

>  <SCORE.SYSTEM>
0

>  <SCORE.SYSTEM.CONST>
0

>  <SCORE.SYSTEM.DIHEDRAL>
0

>  <SCORE.SYSTEM.SOLV>
0

>  <SCORE.SYSTEM.norm>
0

>  <SCORE.heavy>
27

>  <SCORE.norm>
-0.781097

>  <RMSD>
2.733

$$$$
ligand
 OpenBabel11021811473D
libRbt.so/2013.1/901 2013/11/27
 27 28  0  0  0  0  0  0  0  0999 V2000
  -12.9877   37.4601   -1.6784 C   0  0  0  0  0  0  0  0  0  0  0  0
   -5.5360   38.3340   -5.0632 C   0  0  0  0  0  0  0  0  0  0  0  0
   -5.6195   38.6268   -8.0436 C   0  0  0  0  0  0  0  0  0  0  0  0
   -5.1091   39.7884   -8.8984 C   0  0  0  0  0  0  0  0  0  0  0  0
   -4.7126   40.8873   -8.0741 O   0  0  0  0  0  0  0  0  0  0  0  0
   -4.2591   42.2737   -8.7465 P   0  0  1  0  0  0  0  0  0  0  0  0
   -6.8496   43.2602   -9.2688 P   0  0  2  0  0  0  0  0  0  0  0  0
   -8.9634   40.0988   -6.9933 C   0  0  0  0  0  0  0  0  0  0  0  0
  -11.2434   37.7702   -3.4243 N   0  0  0  0  0  0  0  0  0  0  0  0
   -4.0085   43.3997   -7.6345 O   0  5  0  0  0  0  0  0  0  0  0  0
   -7.4912   42.3224   -8.3247 O   0  0  0  0  0  0  0  0  0  0  0  0
   -8.9452   39.9732   -5.6106 C   0  0  0  0  0  0  0  0  0  0  0  0
  -11.6154   37.9450   -2.1468 C   0  0  0  0  0  0  0  0  0  0  0  0
   -2.8895   42.1451   -9.5957 O   0  0  0  0  0  0  0  0  0  0  0  0
   -7.7447   43.4783  -10.5830 O   0  5  0  0  0  0  0  0  0  0  0  0
   -7.8343   39.4054   -4.9850 N   0  0  0  0  0  0  0  0  0  0  0  0
  -10.7928   38.5431   -1.2729 N   0  0  0  0  0  0  0  0  0  0  0  0
   -5.4047   42.7976   -9.7760 O   0  0  0  0  0  0  0  0  0  0  0  0
   -6.6948   44.7080   -8.6177 O   0  0  0  0  0  0  0  0  0  0  0  0
   -6.7536   38.9610   -5.7563 C   0  0  1  0  0  0  0  0  0  0  0  0
   -9.5872   38.9740   -1.6643 C   0  0  0  0  0  0  0  0  0  0  0  0
   -8.7798   39.5637   -0.7886 N   0  0  0  0  0  0  0  0  0  0  0  0
   -6.7727   39.0879   -7.1443 C   0  0  1  0  0  0  0  0  0  0  0  0
   -9.1776   38.8029   -2.9810 C   0  0  0  0  0  0  0  0  0  0  0  0
   -7.8851   39.6581   -7.7510 C   0  0  0  0  0  0  0  0  0  0  0  0
  -10.0618   38.1800   -3.8544 C   0  0  0  0  0  0  0  0  0  0  0  0
   -7.8146   39.2684   -3.5097 C   0  0  0  0  0  0  0  0  0  0  0  0
  1 13  1  0  0  0  0
  3  4  1  0  0  0  0
  4  5  1  0  0  0  0
  6  5  1  1  0  0  0
  6 10  1  0  0  0  0
  6 14  2  0  0  0  0
  6 18  1  0  0  0  0
  7 11  1  1  0  0  0
  7 15  1  0  0  0  0
  7 19  2  0  0  0  0
  7 18  1  0  0  0  0
  8 25  1  0  0  0  0
  8 12  1  0  0  0  0
  9 26  2  0  0  0  0
  9 13  1  0  0  0  0
 12 16  1  0  0  0  0
 13 17  2  0  0  0  0
 16 20  1  0  0  0  0
 16 27  1  0  0  0  0
 17 21  1  0  0  0  0
 20  2  1  1  0  0  0
 20 23  1  0  0  0  0
 21 22  1  0  0  0  0
 21 24  2  0  0  0  0
 23  3  1  1  0  0  0
 23 25  1  0  0  0  0
 24 27  1  0  0  0  0
 24 26  1  0  0  0  0
M  CHG  2  10  -1  15  -1
M  END
>  <CHROM.1>
56.41290324,-174.74700019,174.07367912,66.33400776,-47.73605189,-123.20477643
-159.64795994,41.56729393,-7.32576547,40.54968489,-6.39136105,2.17304942
-0.29560333,2.32975298

>  <Name>
ligand

>  <RI>
0

>  <Rbt.Current_Directory>
/home/itssahil/PROJECTS/Mol_Feturizer/New_Systems/rnas/3D2V

>  <Rbt.Executable>
rbdock ($Id: //depot/dev/client3/rdock/2013.1/src/exe/rbdock.cxx#4 $)

>  <Rbt.Library>
libRbt.so (2013.1, Build901 2013/11/27)

>  <Rbt.Parameter_File>
/export/apps/rDock/src/rDock_2013.1_src/data/scripts/dock_solv.prm

>  <Rbt.Receptor>
prm/pocket_docking_4.prm

>  <SCORE>
-24.9821

>  <SCORE.INTER>
-22.8425

>  <SCORE.INTER.CONST>
1

>  <SCORE.INTER.POLAR>
0

>  <SCORE.INTER.ROT>
8

>  <SCORE.INTER.SOLV>
21.9505

>  <SCORE.INTER.VDW>
-31.4785

>  <SCORE.INTER.norm>
-0.846017

>  <SCORE.INTRA>
-2.13966

>  <SCORE.INTRA.DIHEDRAL>
-2.0658

>  <SCORE.INTRA.DIHEDRAL.0>
7.82666

>  <SCORE.INTRA.POLAR>
0

>  <SCORE.INTRA.POLAR.0>
0

>  <SCORE.INTRA.REPUL>
0

>  <SCORE.INTRA.REPUL.0>
0

>  <SCORE.INTRA.SOLV>
-2.61033

>  <SCORE.INTRA.SOLV.lig_0>
-83.2758

>  <SCORE.INTRA.VDW>
0.198403

>  <SCORE.INTRA.VDW.0>
-3.26816

>  <SCORE.INTRA.norm>
-0.0792467

>  <SCORE.RESTR>
0

>  <SCORE.RESTR.CAVITY>
0

>  <SCORE.RESTR.norm>
0

>  <SCORE.SYSTEM>
0

>  <SCORE.SYSTEM.CONST>
0

>  <SCORE.SYSTEM.DIHEDRAL>
0

>  <SCORE.SYSTEM.SOLV>
0

>  <SCORE.SYSTEM.norm>
0

>  <SCORE.heavy>
27

>  <SCORE.norm>
-0.925264

>  <RMSD>
2.741

$$$$
ligand
 OpenBabel11021811473D
libRbt.so/2013.1/901 2013/11/27
 27 28  0  0  0  0  0  0  0  0999 V2000
  -12.9548   37.3738   -2.1702 C   0  0  0  0  0  0  0  0  0  0  0  0
   -5.7795   38.3204   -4.6204 C   0  0  0  0  0  0  0  0  0  0  0  0
   -5.3597   39.8772   -7.1454 C   0  0  0  0  0  0  0  0  0  0  0  0
   -4.0422   40.6548   -7.1368 C   0  0  0  0  0  0  0  0  0  0  0  0
   -4.2845   42.0616   -7.2180 O   0  0  0  0  0  0  0  0  0  0  0  0
   -3.0558   43.0939   -7.1496 P   0  0  1  0  0  0  0  0  0  0  0  0
   -0.7472   43.7475   -8.6326 P   0  0  2  0  0  0  0  0  0  0  0  0
   -7.7846   42.0884   -5.2267 C   0  0  0  0  0  0  0  0  0  0  0  0
  -10.8752   38.3454   -1.2119 N   0  0  0  0  0  0  0  0  0  0  0  0
   -3.5768   44.6078   -7.0869 O   0  5  0  0  0  0  0  0  0  0  0  0
   -0.8530   45.1733   -8.2603 O   0  0  0  0  0  0  0  0  0  0  0  0
   -7.9929   41.3835   -4.0487 C   0  0  0  0  0  0  0  0  0  0  0  0
  -11.5285   37.9094   -2.3000 C   0  0  0  0  0  0  0  0  0  0  0  0
   -2.1156   42.8711   -5.8535 O   0  0  0  0  0  0  0  0  0  0  0  0
   -0.2998   43.5697  -10.1636 O   0  5  0  0  0  0  0  0  0  0  0  0
   -7.3411   40.1655   -3.8504 N   0  0  0  0  0  0  0  0  0  0  0  0
  -10.9412   37.9385   -3.5051 N   0  0  0  0  0  0  0  0  0  0  0  0
   -2.1045   42.9193   -8.4577 O   0  0  0  0  0  0  0  0  0  0  0  0
    0.3814   43.0165   -7.7748 O   0  0  0  0  0  0  0  0  0  0  0  0
   -6.4909   39.6622   -4.8424 C   0  0  1  0  0  0  0  0  0  0  0  0
   -9.6932   38.4042   -3.6386 C   0  0  0  0  0  0  0  0  0  0  0  0
   -9.1222   38.4299   -4.8385 N   0  0  0  0  0  0  0  0  0  0  0  0
   -6.2821   40.3709   -6.0245 C   0  0  1  0  0  0  0  0  0  0  0  0
   -8.9962   38.8636   -2.5277 C   0  0  0  0  0  0  0  0  0  0  0  0
   -6.9365   41.5833   -6.2047 C   0  0  0  0  0  0  0  0  0  0  0  0
   -9.6413   38.8138   -1.2973 C   0  0  0  0  0  0  0  0  0  0  0  0
   -7.5645   39.4109   -2.5948 C   0  0  0  0  0  0  0  0  0  0  0  0
  1 13  1  0  0  0  0
  3  4  1  0  0  0  0
  4  5  1  0  0  0  0
  6  5  1  6  0  0  0
  6 10  1  0  0  0  0
  6 14  2  0  0  0  0
  6 18  1  0  0  0  0
  7 11  1  1  0  0  0
  7 15  1  0  0  0  0
  7 19  2  0  0  0  0
  7 18  1  0  0  0  0
  8 25  1  0  0  0  0
  8 12  1  0  0  0  0
  9 26  2  0  0  0  0
  9 13  1  0  0  0  0
 12 16  1  0  0  0  0
 13 17  2  0  0  0  0
 16 20  1  0  0  0  0
 16 27  1  0  0  0  0
 17 21  1  0  0  0  0
 20  2  1  1  0  0  0
 20 23  1  0  0  0  0
 21 22  1  0  0  0  0
 21 24  2  0  0  0  0
 23  3  1  1  0  0  0
 23 25  1  0  0  0  0
 24 27  1  0  0  0  0
 24 26  1  0  0  0  0
M  CHG  2  10  -1  15  -1
M  END
>  <CHROM.1>
-55.10190921,176.86849537,-173.35790484,-176.17414847,-43.04113912,-104.11341173
35.81854904,68.59764391,-5.56831312,41.09961567,-5.67054716,-2.86237436,0.65263892
0.31271017

>  <Name>
ligand

>  <RI>
0

>  <Rbt.Current_Directory>
/home/itssahil/PROJECTS/Mol_Feturizer/New_Systems/rnas/3D2V

>  <Rbt.Executable>
rbdock ($Id: //depot/dev/client3/rdock/2013.1/src/exe/rbdock.cxx#4 $)

>  <Rbt.Library>
libRbt.so (2013.1, Build901 2013/11/27)

>  <Rbt.Parameter_File>
/export/apps/rDock/src/rDock_2013.1_src/data/scripts/dock_solv.prm

>  <Rbt.Receptor>
prm/pocket_docking_5.prm

>  <SCORE>
-20.1008

>  <SCORE.INTER>
-19.9728

>  <SCORE.INTER.CONST>
1

>  <SCORE.INTER.POLAR>
0

>  <SCORE.INTER.ROT>
8

>  <SCORE.INTER.SOLV>
21.22

>  <SCORE.INTER.VDW>
-29.3219

>  <SCORE.INTER.norm>
-0.739734

>  <SCORE.INTRA>
-0.127991

>  <SCORE.INTRA.DIHEDRAL>
-1.98898

>  <SCORE.INTRA.DIHEDRAL.0>
7.82666

>  <SCORE.INTRA.POLAR>
0

>  <SCORE.INTRA.POLAR.0>
0

>  <SCORE.INTRA.REPUL>
0

>  <SCORE.INTRA.REPUL.0>
0

>  <SCORE.INTRA.SOLV>
2.8731

>  <SCORE.INTRA.SOLV.lig_0>
-83.2758

>  <SCORE.INTRA.VDW>
-0.57005

>  <SCORE.INTRA.VDW.0>
-3.26816

>  <SCORE.INTRA.norm>
-0.00474041

>  <SCORE.RESTR>
0

>  <SCORE.RESTR.CAVITY>
0

>  <SCORE.RESTR.norm>
0

>  <SCORE.SYSTEM>
0

>  <SCORE.SYSTEM.CONST>
0

>  <SCORE.SYSTEM.DIHEDRAL>
0

>  <SCORE.SYSTEM.SOLV>
0

>  <SCORE.SYSTEM.norm>
0

>  <SCORE.heavy>
27

>  <SCORE.norm>
-0.744474

>  <RMSD>
2.741

$$$$
ligand
 OpenBabel11021811463D
libRbt.so/2013.1/901 2013/11/27
 27 28  0  0  0  0  0  0  0  0999 V2000
  -10.5051   38.1617   -1.2483 C   0  0  0  0  0  0  0  0  0  0  0  0
   -7.1635   41.8222   -8.3610 C   0  0  0  0  0  0  0  0  0  0  0  0
   -4.7312   40.4107   -9.3941 C   0  0  0  0  0  0  0  0  0  0  0  0
   -3.8957   41.6648   -9.1298 C   0  0  0  0  0  0  0  0  0  0  0  0
   -3.3014   42.1411  -10.3398 O   0  0  0  0  0  0  0  0  0  0  0  0
   -2.3028   43.3987  -10.3038 P   0  0  1  0  0  0  0  0  0  0  0  0
   -4.5991   45.0052   -9.9841 P   0  0  2  0  0  0  0  0  0  0  0  0
   -5.5541   38.4163   -6.2642 C   0  0  0  0  0  0  0  0  0  0  0  0
  -10.5940   38.8262   -3.6436 N   0  0  0  0  0  0  0  0  0  0  0  0
   -1.5582   43.5040   -8.8890 O   0  5  0  0  0  0  0  0  0  0  0  0
   -5.6037   44.0383  -10.4723 O   0  0  0  0  0  0  0  0  0  0  0  0
   -6.6827   39.0554   -5.7682 C   0  0  0  0  0  0  0  0  0  0  0  0
   -9.9368   38.8765   -2.4746 C   0  0  0  0  0  0  0  0  0  0  0  0
   -1.1483   43.3203  -11.4327 O   0  0  0  0  0  0  0  0  0  0  0  0
   -5.0048   46.5136  -10.3528 O   0  5  0  0  0  0  0  0  0  0  0  0
   -7.2062   40.1556   -6.4487 N   0  0  0  0  0  0  0  0  0  0  0  0
   -8.7820   39.5499   -2.3702 N   0  0  0  0  0  0  0  0  0  0  0  0
   -3.1273   44.7760  -10.5675 O   0  0  0  0  0  0  0  0  0  0  0  0
   -4.5011   44.9709   -8.3925 O   0  0  0  0  0  0  0  0  0  0  0  0
   -6.5854   40.6094   -7.6187 C   0  0  1  0  0  0  0  0  0  0  0  0
   -8.2685   40.1818   -3.4329 C   0  0  0  0  0  0  0  0  0  0  0  0
   -7.1223   40.8445   -3.3177 N   0  0  0  0  0  0  0  0  0  0  0  0
   -5.4528   39.9668   -8.1161 C   0  0  2  0  0  0  0  0  0  0  0  0
   -8.9286   40.1429   -4.6551 C   0  0  0  0  0  0  0  0  0  0  0  0
   -4.9461   38.8711   -7.4280 C   0  0  0  0  0  0  0  0  0  0  0  0
  -10.1235   39.4355   -4.7191 C   0  0  0  0  0  0  0  0  0  0  0  0
   -8.4090   40.8402   -5.9191 C   0  0  0  0  0  0  0  0  0  0  0  0
  1 13  1  0  0  0  0
  3  4  1  0  0  0  0
  4  5  1  0  0  0  0
  6  5  1  6  0  0  0
  6 10  1  0  0  0  0
  6 14  2  0  0  0  0
  6 18  1  0  0  0  0
  7 11  1  6  0  0  0
  7 15  1  0  0  0  0
  7 19  2  0  0  0  0
  7 18  1  0  0  0  0
  8 25  1  0  0  0  0
  8 12  1  0  0  0  0
  9 26  2  0  0  0  0
  9 13  1  0  0  0  0
 12 16  1  0  0  0  0
 13 17  2  0  0  0  0
 16 20  1  0  0  0  0
 16 27  1  0  0  0  0
 17 21  1  0  0  0  0
 20  2  1  6  0  0  0
 20 23  1  0  0  0  0
 21 22  1  0  0  0  0
 21 24  2  0  0  0  0
 23  3  1  1  0  0  0
 23 25  1  0  0  0  0
 24 27  1  0  0  0  0
 24 26  1  0  0  0  0
M  CHG  2  10  -1  15  -1
M  END
>  <CHROM.1>
-175.63911679,-176.27497259,28.11465713,37.36345996,-61.15488958,76.19736044
70.78520801,-1.98468164,-5.79406540,41.72361447,-7.48415332,2.37470628,-0.63336074
2.73962914

>  <Name>
ligand

>  <RI>
0

>  <Rbt.Current_Directory>
/home/itssahil/PROJECTS/Mol_Feturizer/New_Systems/rnas/3D2V

>  <Rbt.Executable>
rbdock ($Id: //depot/dev/client3/rdock/2013.1/src/exe/rbdock.cxx#4 $)

>  <Rbt.Library>
libRbt.so (2013.1, Build901 2013/11/27)

>  <Rbt.Parameter_File>
/export/apps/rDock/src/rDock_2013.1_src/data/scripts/dock_solv.prm

>  <Rbt.Receptor>
prm/pocket_docking_2.prm

>  <SCORE>
-13.6074

>  <SCORE.INTER>
-14.2447

>  <SCORE.INTER.CONST>
1

>  <SCORE.INTER.POLAR>
0

>  <SCORE.INTER.ROT>
8

>  <SCORE.INTER.SOLV>
19.0325

>  <SCORE.INTER.VDW>
-24.7739

>  <SCORE.INTER.norm>
-0.52758

>  <SCORE.INTRA>
-0.0435405

>  <SCORE.INTRA.DIHEDRAL>
-0.439649

>  <SCORE.INTRA.DIHEDRAL.0>
7.82666

>  <SCORE.INTRA.POLAR>
0

>  <SCORE.INTRA.POLAR.0>
0

>  <SCORE.INTRA.REPUL>
0

>  <SCORE.INTRA.REPUL.0>
0

>  <SCORE.INTRA.SOLV>
0.45975

>  <SCORE.INTRA.SOLV.lig_0>
-83.2758

>  <SCORE.INTRA.VDW>
-0.053591

>  <SCORE.INTRA.VDW.0>
-3.26816

>  <SCORE.INTRA.norm>
-0.00161261

>  <SCORE.RESTR>
0.680762

>  <SCORE.RESTR.CAVITY>
0.680762

>  <SCORE.RESTR.norm>
0.0252134

>  <SCORE.SYSTEM>
0

>  <SCORE.SYSTEM.CONST>
0

>  <SCORE.SYSTEM.DIHEDRAL>
0

>  <SCORE.SYSTEM.SOLV>
0

>  <SCORE.SYSTEM.norm>
0

>  <SCORE.heavy>
27

>  <SCORE.norm>
-0.503979

>  <RMSD>
2.744

$$$$
ligand
 OpenBabel11021811473D
libRbt.so/2013.1/901 2013/11/27
 27 28  0  0  0  0  0  0  0  0999 V2000
  -12.9088   37.5564   -1.8922 C   0  0  0  0  0  0  0  0  0  0  0  0
   -5.5515   38.5419   -4.6981 C   0  0  0  0  0  0  0  0  0  0  0  0
   -5.2745   40.2496   -7.1440 C   0  0  0  0  0  0  0  0  0  0  0  0
   -6.0273   39.7523   -8.3796 C   0  0  0  0  0  0  0  0  0  0  0  0
   -5.1433   39.6340   -9.4970 O   0  0  0  0  0  0  0  0  0  0  0  0
   -4.4632   40.9461  -10.1262 P   0  0  1  0  0  0  0  0  0  0  0  0
   -5.2524   43.4179  -11.2324 P   0  0  2  0  0  0  0  0  0  0  0  0
   -7.9451   42.0968   -5.1673 C   0  0  0  0  0  0  0  0  0  0  0  0
  -10.7616   38.5164   -1.0829 N   0  0  0  0  0  0  0  0  0  0  0  0
   -3.3969   41.5847   -9.1152 O   0  5  0  0  0  0  0  0  0  0  0  0
   -3.9487   44.0077  -10.8647 O   0  0  0  0  0  0  0  0  0  0  0  0
   -8.0890   41.3199   -4.0254 C   0  0  0  0  0  0  0  0  0  0  0  0
  -11.4695   38.0235   -2.1110 C   0  0  0  0  0  0  0  0  0  0  0  0
   -3.6759   40.6487  -11.5065 O   0  0  0  0  0  0  0  0  0  0  0  0
   -6.4618   44.4308  -10.9374 O   0  5  0  0  0  0  0  0  0  0  0  0
   -7.3116   40.1711   -3.8714 N   0  0  0  0  0  0  0  0  0  0  0  0
  -10.9254   37.9359   -3.3334 N   0  0  0  0  0  0  0  0  0  0  0  0
   -5.6006   42.0595  -10.4627 O   0  0  0  0  0  0  0  0  0  0  0  0
   -5.3224   43.1204  -12.7978 O   0  0  0  0  0  0  0  0  0  0  0  0
   -6.4012   39.8084   -4.8712 C   0  0  1  0  0  0  0  0  0  0  0  0
   -9.6667   38.3401   -3.5446 C   0  0  0  0  0  0  0  0  0  0  0  0
   -9.1389   38.2502   -4.7610 N   0  0  0  0  0  0  0  0  0  0  0  0
   -6.2571   40.5892   -6.0170 C   0  0  2  0  0  0  0  0  0  0  0  0
   -8.9136   38.8563   -2.4971 C   0  0  0  0  0  0  0  0  0  0  0  0
   -7.0366   41.7314   -6.1533 C   0  0  0  0  0  0  0  0  0  0  0  0
   -9.5152   38.9275   -1.2458 C   0  0  0  0  0  0  0  0  0  0  0  0
   -7.4661   39.3398   -2.6545 C   0  0  0  0  0  0  0  0  0  0  0  0
  1 13  1  0  0  0  0
  3  4  1  0  0  0  0
  4  5  1  0  0  0  0
  6  5  1  1  0  0  0
  6 10  1  0  0  0  0
  6 14  2  0  0  0  0
  6 18  1  0  0  0  0
  7 11  1  1  0  0  0
  7 15  1  0  0  0  0
  7 19  2  0  0  0  0
  7 18  1  0  0  0  0
  8 25  1  0  0  0  0
  8 12  1  0  0  0  0
  9 26  2  0  0  0  0
  9 13  1  0  0  0  0
 12 16  1  0  0  0  0
 13 17  2  0  0  0  0
 16 20  1  0  0  0  0
 16 27  1  0  0  0  0
 17 21  1  0  0  0  0
 20  2  1  1  0  0  0
 20 23  1  0  0  0  0
 21 22  1  0  0  0  0
 21 24  2  0  0  0  0
 23  3  1  6  0  0  0
 23 25  1  0  0  0  0
 24 27  1  0  0  0  0
 24 26  1  0  0  0  0
M  CHG  2  10  -1  15  -1
M  END
>  <CHROM.1>
170.93356683,-65.59892030,68.58752894,-173.82641768,-37.65475298,107.77502956
44.84041341,57.77907780,-6.86714271,40.58397164,-6.89689596,2.14057856,-0.42303357
2.25607156

>  <Name>
ligand

>  <RI>
0

>  <Rbt.Current_Directory>
/home/itssahil/PROJECTS/Mol_Feturizer/New_Systems/rnas/3D2V

>  <Rbt.Executable>
rbdock ($Id: //depot/dev/client3/rdock/2013.1/src/exe/rbdock.cxx#4 $)

>  <Rbt.Library>
libRbt.so (2013.1, Build901 2013/11/27)

>  <Rbt.Parameter_File>
/export/apps/rDock/src/rDock_2013.1_src/data/scripts/dock_solv.prm

>  <Rbt.Receptor>
prm/pocket_docking_5.prm

>  <SCORE>
-21.1379

>  <SCORE.INTER>
-21.7138

>  <SCORE.INTER.CONST>
1

>  <SCORE.INTER.POLAR>
0

>  <SCORE.INTER.ROT>
8

>  <SCORE.INTER.SOLV>
20.2533

>  <SCORE.INTER.VDW>
-30.1603

>  <SCORE.INTER.norm>
-0.804214

>  <SCORE.INTRA>
0.575913

>  <SCORE.INTRA.DIHEDRAL>
-1.2851

>  <SCORE.INTRA.DIHEDRAL.0>
7.82666

>  <SCORE.INTRA.POLAR>
0

>  <SCORE.INTRA.POLAR.0>
0

>  <SCORE.INTRA.REPUL>
0

>  <SCORE.INTRA.REPUL.0>
0

>  <SCORE.INTRA.SOLV>
2.94832

>  <SCORE.INTRA.SOLV.lig_0>
-83.2758

>  <SCORE.INTRA.VDW>
-0.255697

>  <SCORE.INTRA.VDW.0>
-3.26816

>  <SCORE.INTRA.norm>
0.0213301

>  <SCORE.RESTR>
0

>  <SCORE.RESTR.CAVITY>
0

>  <SCORE.RESTR.norm>
0

>  <SCORE.SYSTEM>
0

>  <SCORE.SYSTEM.CONST>
0

>  <SCORE.SYSTEM.DIHEDRAL>
0

>  <SCORE.SYSTEM.SOLV>
0

>  <SCORE.SYSTEM.norm>
0

>  <SCORE.heavy>
27

>  <SCORE.norm>
-0.782884

>  <RMSD>
2.747

$$$$
ligand
 OpenBabel11021811473D
libRbt.so/2013.1/901 2013/11/27
 27 28  0  0  0  0  0  0  0  0999 V2000
   -7.9370   39.1064    0.6767 C   0  0  0  0  0  0  0  0  0  0  0  0
   -8.0955   40.5010   -7.6834 C   0  0  0  0  0  0  0  0  0  0  0  0
   -5.4747   39.8966   -9.0030 C   0  0  0  0  0  0  0  0  0  0  0  0
   -4.9053   41.3115   -8.8828 C   0  0  0  0  0  0  0  0  0  0  0  0
   -5.2286   42.0870  -10.0396 O   0  0  0  0  0  0  0  0  0  0  0  0
   -4.4907   43.4900  -10.2984 P   0  0  1  0  0  0  0  0  0  0  0  0
   -2.5041   44.9615   -8.9402 P   0  0  2  0  0  0  0  0  0  0  0  0
   -5.1798   38.0067   -5.7178 C   0  0  0  0  0  0  0  0  0  0  0  0
   -7.1952   39.7301   -1.6141 N   0  0  0  0  0  0  0  0  0  0  0  0
   -3.3627   43.3492  -11.4275 O   0  5  0  0  0  0  0  0  0  0  0  0
   -1.3974   44.4617   -9.7817 O   0  0  0  0  0  0  0  0  0  0  0  0
   -6.3885   38.2737   -5.0885 C   0  0  0  0  0  0  0  0  0  0  0  0
   -8.1341   39.1664   -0.8384 C   0  0  0  0  0  0  0  0  0  0  0  0
   -5.5003   44.6526  -10.7913 O   0  0  0  0  0  0  0  0  0  0  0  0
   -2.0500   45.1348   -7.4107 O   0  5  0  0  0  0  0  0  0  0  0  0
   -7.3341   39.0780   -5.7261 N   0  0  0  0  0  0  0  0  0  0  0  0
   -9.2480   38.6530   -1.3802 N   0  0  0  0  0  0  0  0  0  0  0  0
   -3.7968   44.0192   -8.9255 O   0  0  0  0  0  0  0  0  0  0  0  0
   -2.9673   46.4134   -9.4108 O   0  0  0  0  0  0  0  0  0  0  0  0
   -7.0531   39.6141   -6.9885 C   0  0  1  0  0  0  0  0  0  0  0  0
   -9.4385   38.6965   -2.7046 C   0  0  0  0  0  0  0  0  0  0  0  0
  -10.5474   38.1860   -3.2300 N   0  0  0  0  0  0  0  0  0  0  0  0
   -5.8397   39.3452   -7.6196 C   0  0  1  0  0  0  0  0  0  0  0  0
   -8.4825   39.2768   -3.5293 C   0  0  0  0  0  0  0  0  0  0  0  0
   -4.9104   38.5401   -6.9723 C   0  0  0  0  0  0  0  0  0  0  0  0
   -7.3418   39.7951   -2.9269 C   0  0  0  0  0  0  0  0  0  0  0  0
   -8.6233   39.3658   -5.0545 C   0  0  0  0  0  0  0  0  0  0  0  0
  1 13  1  0  0  0  0
  3  4  1  0  0  0  0
  4  5  1  0  0  0  0
  6  5  1  1  0  0  0
  6 10  1  0  0  0  0
  6 14  2  0  0  0  0
  6 18  1  0  0  0  0
  7 11  1  6  0  0  0
  7 15  1  0  0  0  0
  7 19  2  0  0  0  0
  7 18  1  0  0  0  0
  8 25  1  0  0  0  0
  8 12  1  0  0  0  0
  9 26  2  0  0  0  0
  9 13  1  0  0  0  0
 12 16  1  0  0  0  0
 13 17  2  0  0  0  0
 16 20  1  0  0  0  0
 16 27  1  0  0  0  0
 17 21  1  0  0  0  0
 20  2  1  6  0  0  0
 20 23  1  0  0  0  0
 21 22  1  0  0  0  0
 21 24  2  0  0  0  0
 23  3  1  6  0  0  0
 23 25  1  0  0  0  0
 24 27  1  0  0  0  0
 24 26  1  0  0  0  0
M  CHG  2  10  -1  15  -1
M  END
>  <CHROM.1>
-148.53828959,-167.00911004,103.10151007,152.24171349,-50.85088934,84.04277248
-139.07282899,26.25505568,-5.72322524,41.39755564,-6.78675857,-2.46341897
-0.89774243,-1.69265344

>  <Name>
ligand

>  <RI>
0

>  <Rbt.Current_Directory>
/home/itssahil/PROJECTS/Mol_Feturizer/New_Systems/rnas/3D2V

>  <Rbt.Executable>
rbdock ($Id: //depot/dev/client3/rdock/2013.1/src/exe/rbdock.cxx#4 $)

>  <Rbt.Library>
libRbt.so (2013.1, Build901 2013/11/27)

>  <Rbt.Parameter_File>
/export/apps/rDock/src/rDock_2013.1_src/data/scripts/dock_solv.prm

>  <Rbt.Receptor>
prm/pocket_docking_2.prm

>  <SCORE>
-6.74643

>  <SCORE.INTER>
-9.72801

>  <SCORE.INTER.CONST>
1

>  <SCORE.INTER.POLAR>
0

>  <SCORE.INTER.ROT>
8

>  <SCORE.INTER.SOLV>
17.9942

>  <SCORE.INTER.VDW>
-21.4167

>  <SCORE.INTER.norm>
-0.360297

>  <SCORE.INTRA>
2.61806

>  <SCORE.INTRA.DIHEDRAL>
4.26756

>  <SCORE.INTRA.DIHEDRAL.0>
7.82666

>  <SCORE.INTRA.POLAR>
0

>  <SCORE.INTRA.POLAR.0>
0

>  <SCORE.INTRA.REPUL>
0

>  <SCORE.INTRA.REPUL.0>
0

>  <SCORE.INTRA.SOLV>
-1.21792

>  <SCORE.INTRA.SOLV.lig_0>
-83.2758

>  <SCORE.INTRA.VDW>
1.09324

>  <SCORE.INTRA.VDW.0>
-3.26816

>  <SCORE.INTRA.norm>
0.0969653

>  <SCORE.RESTR>
0.36352

>  <SCORE.RESTR.CAVITY>
0.36352

>  <SCORE.RESTR.norm>
0.0134637

>  <SCORE.SYSTEM>
0

>  <SCORE.SYSTEM.CONST>
0

>  <SCORE.SYSTEM.DIHEDRAL>
0

>  <SCORE.SYSTEM.SOLV>
0

>  <SCORE.SYSTEM.norm>
0

>  <SCORE.heavy>
27

>  <SCORE.norm>
-0.249868

>  <RMSD>
2.751

$$$$
ligand
 OpenBabel11021811473D
libRbt.so/2013.1/901 2013/11/27
 27 28  0  0  0  0  0  0  0  0999 V2000
  -13.4238   37.3185   -1.8408 C   0  0  0  0  0  0  0  0  0  0  0  0
   -5.7798   38.3071   -4.7677 C   0  0  0  0  0  0  0  0  0  0  0  0
   -5.7053   38.8585   -7.7115 C   0  0  0  0  0  0  0  0  0  0  0  0
   -4.7592   40.0457   -7.9014 C   0  0  0  0  0  0  0  0  0  0  0  0
   -4.3635   40.5847   -6.6377 O   0  0  0  0  0  0  0  0  0  0  0  0
   -3.7076   42.0487   -6.5582 P   0  0  1  0  0  0  0  0  0  0  0  0
   -1.2046   43.2691   -7.0078 P   0  0  2  0  0  0  0  0  0  0  0  0
   -9.0830   40.2850   -6.7076 C   0  0  0  0  0  0  0  0  0  0  0  0
  -11.5622   37.6687   -3.4530 N   0  0  0  0  0  0  0  0  0  0  0  0
   -4.5579   43.1089   -7.4068 O   0  5  0  0  0  0  0  0  0  0  0  0
    0.0599   43.1302   -7.7589 O   0  0  0  0  0  0  0  0  0  0  0  0
   -9.1379   40.0397   -5.3420 C   0  0  0  0  0  0  0  0  0  0  0  0
  -12.0195   37.8058   -2.1987 C   0  0  0  0  0  0  0  0  0  0  0  0
   -3.6230   42.6214   -5.0488 O   0  0  0  0  0  0  0  0  0  0  0  0
   -0.9385   43.4818   -5.4395 O   0  5  0  0  0  0  0  0  0  0  0  0
   -8.0672   39.4028   -4.7129 N   0  0  0  0  0  0  0  0  0  0  0  0
  -11.2544   38.3682   -1.2519 N   0  0  0  0  0  0  0  0  0  0  0  0
   -2.1868   42.0128   -7.1348 O   0  0  0  0  0  0  0  0  0  0  0  0
   -2.0086   44.5633   -7.4795 O   0  0  0  0  0  0  0  0  0  0  0  0
   -6.9529   39.0104   -5.4642 C   0  0  1  0  0  0  0  0  0  0  0  0
  -10.0221   38.8007   -1.5461 C   0  0  0  0  0  0  0  0  0  0  0  0
   -9.2724   39.3548   -0.5988 N   0  0  0  0  0  0  0  0  0  0  0  0
   -6.8985   39.2575   -6.8350 C   0  0  1  0  0  0  0  0  0  0  0  0
   -9.5246   38.6681   -2.8368 C   0  0  0  0  0  0  0  0  0  0  0  0
   -7.9717   39.8952   -7.4452 C   0  0  0  0  0  0  0  0  0  0  0  0
  -10.3513   38.0814   -3.7881 C   0  0  0  0  0  0  0  0  0  0  0  0
   -8.1256   39.1381   -3.2561 C   0  0  0  0  0  0  0  0  0  0  0  0
  1 13  1  0  0  0  0
  3  4  1  0  0  0  0
  4  5  1  0  0  0  0
  6  5  1  6  0  0  0
  6 10  1  0  0  0  0
  6 14  2  0  0  0  0
  6 18  1  0  0  0  0
  7 11  1  6  0  0  0
  7 15  1  0  0  0  0
  7 19  2  0  0  0  0
  7 18  1  0  0  0  0
  8 25  1  0  0  0  0
  8 12  1  0  0  0  0
  9 26  2  0  0  0  0
  9 13  1  0  0  0  0
 12 16  1  0  0  0  0
 13 17  2  0  0  0  0
 16 20  1  0  0  0  0
 16 27  1  0  0  0  0
 17 21  1  0  0  0  0
 20  2  1  1  0  0  0
 20 23  1  0  0  0  0
 21 22  1  0  0  0  0
 21 24  2  0  0  0  0
 23  3  1  1  0  0  0
 23 25  1  0  0  0  0
 24 27  1  0  0  0  0
 24 26  1  0  0  0  0
M  CHG  2  10  -1  15  -1
M  END
>  <CHROM.1>
54.24101523,-163.54157680,47.48628231,-171.62777735,-171.38242549,-96.76886213
-156.14162606,40.77797770,-6.16840979,40.51839676,-5.31768726,-2.84043922
-0.55236797,-1.78770898

>  <Name>
ligand

>  <RI>
0

>  <Rbt.Current_Directory>
/home/itssahil/PROJECTS/Mol_Feturizer/New_Systems/rnas/3D2V

>  <Rbt.Executable>
rbdock ($Id: //depot/dev/client3/rdock/2013.1/src/exe/rbdock.cxx#4 $)

>  <Rbt.Library>
libRbt.so (2013.1, Build901 2013/11/27)

>  <Rbt.Parameter_File>
/export/apps/rDock/src/rDock_2013.1_src/data/scripts/dock_solv.prm

>  <Rbt.Receptor>
prm/pocket_docking_4.prm

>  <SCORE>
-23.374

>  <SCORE.INTER>
-24.1526

>  <SCORE.INTER.CONST>
1

>  <SCORE.INTER.POLAR>
0

>  <SCORE.INTER.ROT>
8

>  <SCORE.INTER.SOLV>
21.6817

>  <SCORE.INTER.VDW>
-32.2623

>  <SCORE.INTER.norm>
-0.894539

>  <SCORE.INTRA>
0.778582

>  <SCORE.INTRA.DIHEDRAL>
-0.740108

>  <SCORE.INTRA.DIHEDRAL.0>
7.82666

>  <SCORE.INTRA.POLAR>
0

>  <SCORE.INTRA.POLAR.0>
0

>  <SCORE.INTRA.REPUL>
0

>  <SCORE.INTRA.REPUL.0>
0

>  <SCORE.INTRA.SOLV>
1.40388

>  <SCORE.INTRA.SOLV.lig_0>
-83.2758

>  <SCORE.INTRA.VDW>
0.446697

>  <SCORE.INTRA.VDW.0>
-3.26816

>  <SCORE.INTRA.norm>
0.0288364

>  <SCORE.RESTR>
0

>  <SCORE.RESTR.CAVITY>
0

>  <SCORE.RESTR.norm>
0

>  <SCORE.SYSTEM>
0

>  <SCORE.SYSTEM.CONST>
0

>  <SCORE.SYSTEM.DIHEDRAL>
0

>  <SCORE.SYSTEM.SOLV>
0

>  <SCORE.SYSTEM.norm>
0

>  <SCORE.heavy>
27

>  <SCORE.norm>
-0.865703

>  <RMSD>
2.763

$$$$
ligand
 OpenBabel11021811463D
libRbt.so/2013.1/901 2013/11/27
 27 28  0  0  0  0  0  0  0  0999 V2000
  -10.3220   38.2743   -1.2444 C   0  0  0  0  0  0  0  0  0  0  0  0
   -6.7056   42.8714   -6.2913 C   0  0  0  0  0  0  0  0  0  0  0  0
   -3.8205   42.2931   -6.8543 C   0  0  0  0  0  0  0  0  0  0  0  0
   -3.0225   42.2010   -8.1563 C   0  0  0  0  0  0  0  0  0  0  0  0
   -2.1297   43.3107   -8.2821 O   0  0  0  0  0  0  0  0  0  0  0  0
   -2.6822   44.7342   -8.7805 P   0  0  1  0  0  0  0  0  0  0  0  0
   -5.3505   45.1664   -9.5864 P   0  0  2  0  0  0  0  0  0  0  0  0
   -5.3769   38.8269   -6.9715 C   0  0  0  0  0  0  0  0  0  0  0  0
  -10.6018   38.8093   -3.6574 N   0  0  0  0  0  0  0  0  0  0  0  0
   -1.9010   45.9380   -8.0680 O   0  5  0  0  0  0  0  0  0  0  0  0
   -5.1190   46.4224  -10.3289 O   0  0  0  0  0  0  0  0  0  0  0  0
   -6.7189   39.0726   -6.7129 C   0  0  0  0  0  0  0  0  0  0  0  0
   -9.8469   38.9080   -2.5523 C   0  0  0  0  0  0  0  0  0  0  0  0
   -2.5190   44.9518  -10.3741 O   0  0  0  0  0  0  0  0  0  0  0  0
   -6.7842   45.1636   -8.8651 O   0  5  0  0  0  0  0  0  0  0  0  0
   -7.1501   40.3822   -6.4963 N   0  0  0  0  0  0  0  0  0  0  0  0
   -8.6752   39.5593   -2.5830 N   0  0  0  0  0  0  0  0  0  0  0  0
   -4.2688   44.8668   -8.4466 O   0  0  0  0  0  0  0  0  0  0  0  0
   -5.3725   43.9153  -10.5754 O   0  0  0  0  0  0  0  0  0  0  0  0
   -6.2263   41.4335   -6.5337 C   0  0  1  0  0  0  0  0  0  0  0  0
   -8.2424   40.1204   -3.7189 C   0  0  0  0  0  0  0  0  0  0  0  0
   -7.0785   40.7618   -3.7375 N   0  0  0  0  0  0  0  0  0  0  0  0
   -4.8794   41.1859   -6.7939 C   0  0  1  0  0  0  0  0  0  0  0  0
   -9.0045   40.0303   -4.8773 C   0  0  0  0  0  0  0  0  0  0  0  0
   -4.4673   39.8766   -7.0102 C   0  0  0  0  0  0  0  0  0  0  0  0
  -10.2133   39.3481   -4.8011 C   0  0  0  0  0  0  0  0  0  0  0  0
   -8.5814   40.6456   -6.2176 C   0  0  0  0  0  0  0  0  0  0  0  0
  1 13  1  0  0  0  0
  3  4  1  0  0  0  0
  4  5  1  0  0  0  0
  6  5  1  1  0  0  0
  6 10  1  0  0  0  0
  6 14  2  0  0  0  0
  6 18  1  0  0  0  0
  7 11  1  6  0  0  0
  7 15  1  0  0  0  0
  7 19  2  0  0  0  0
  7 18  1  0  0  0  0
  8 25  1  0  0  0  0
  8 12  1  0  0  0  0
  9 26  2  0  0  0  0
  9 13  1  0  0  0  0
 12 16  1  0  0  0  0
 13 17  2  0  0  0  0
 16 20  1  0  0  0  0
 16 27  1  0  0  0  0
 17 21  1  0  0  0  0
 20  2  1  6  0  0  0
 20 23  1  0  0  0  0
 21 22  1  0  0  0  0
 21 24  2  0  0  0  0
 23  3  1  6  0  0  0
 23 25  1  0  0  0  0
 24 27  1  0  0  0  0
 24 26  1  0  0  0  0
M  CHG  2  10  -1  15  -1
M  END
>  <CHROM.1>
173.98579883,-79.62663072,145.82584248,-123.31146535,-58.52285009,-127.92765683
44.07787734,65.74276704,-5.90021026,42.26183302,-6.94733087,2.18482880,-0.16929246
2.47495409

>  <Name>
ligand

>  <RI>
0

>  <Rbt.Current_Directory>
/home/itssahil/PROJECTS/Mol_Feturizer/New_Systems/rnas/3D2V

>  <Rbt.Executable>
rbdock ($Id: //depot/dev/client3/rdock/2013.1/src/exe/rbdock.cxx#4 $)

>  <Rbt.Library>
libRbt.so (2013.1, Build901 2013/11/27)

>  <Rbt.Parameter_File>
/export/apps/rDock/src/rDock_2013.1_src/data/scripts/dock_solv.prm

>  <Rbt.Receptor>
prm/pocket_docking_2.prm

>  <SCORE>
-7.22013

>  <SCORE.INTER>
-11.9185

>  <SCORE.INTER.CONST>
1

>  <SCORE.INTER.POLAR>
0

>  <SCORE.INTER.ROT>
8

>  <SCORE.INTER.SOLV>
10.9825

>  <SCORE.INTER.VDW>
-20.5398

>  <SCORE.INTER.norm>
-0.441426

>  <SCORE.INTRA>
3.46207

>  <SCORE.INTRA.DIHEDRAL>
3.06784

>  <SCORE.INTRA.DIHEDRAL.0>
7.82666

>  <SCORE.INTRA.POLAR>
0

>  <SCORE.INTRA.POLAR.0>
0

>  <SCORE.INTRA.REPUL>
0

>  <SCORE.INTRA.REPUL.0>
0

>  <SCORE.INTRA.SOLV>
5.10634

>  <SCORE.INTRA.SOLV.lig_0>
-83.2758

>  <SCORE.INTRA.VDW>
-0.625023

>  <SCORE.INTRA.VDW.0>
-3.26816

>  <SCORE.INTRA.norm>
0.128225

>  <SCORE.RESTR>
1.2363

>  <SCORE.RESTR.CAVITY>
1.2363

>  <SCORE.RESTR.norm>
0.0457888

>  <SCORE.SYSTEM>
0

>  <SCORE.SYSTEM.CONST>
0

>  <SCORE.SYSTEM.DIHEDRAL>
0

>  <SCORE.SYSTEM.SOLV>
0

>  <SCORE.SYSTEM.norm>
0

>  <SCORE.heavy>
27

>  <SCORE.norm>
-0.267412

>  <RMSD>
2.774

$$$$
ligand
 OpenBabel11021811473D
libRbt.so/2013.1/901 2013/11/27
 27 28  0  0  0  0  0  0  0  0999 V2000
  -12.4473   37.4314   -2.4062 C   0  0  0  0  0  0  0  0  0  0  0  0
   -5.6120   41.6042   -4.3976 C   0  0  0  0  0  0  0  0  0  0  0  0
   -4.0304   40.4618   -6.6711 C   0  0  0  0  0  0  0  0  0  0  0  0
   -4.7031   40.6181   -8.0363 C   0  0  0  0  0  0  0  0  0  0  0  0
   -3.8019   41.2019   -8.9804 O   0  0  0  0  0  0  0  0  0  0  0  0
   -4.3728   41.9113  -10.3036 P   0  0  1  0  0  0  0  0  0  0  0  0
   -6.7912   43.1975   -9.6300 P   0  0  2  0  0  0  0  0  0  0  0  0
   -5.6712   37.3675   -5.1932 C   0  0  0  0  0  0  0  0  0  0  0  0
  -10.3292   38.2689   -1.4064 N   0  0  0  0  0  0  0  0  0  0  0  0
   -3.1841   42.3278  -11.2938 O   0  5  0  0  0  0  0  0  0  0  0  0
   -7.2363   42.0296   -8.8424 O   0  0  0  0  0  0  0  0  0  0  0  0
   -6.4121   37.8760   -4.1347 C   0  0  0  0  0  0  0  0  0  0  0  0
  -11.0561   38.0565   -2.5143 C   0  0  0  0  0  0  0  0  0  0  0  0
   -5.3711   40.9609  -11.1486 O   0  0  0  0  0  0  0  0  0  0  0  0
   -7.5052   43.2466  -11.0665 O   0  5  0  0  0  0  0  0  0  0  0  0
   -6.3962   39.2479   -3.8791 N   0  0  0  0  0  0  0  0  0  0  0  0
  -10.5731   38.3881   -3.7205 N   0  0  0  0  0  0  0  0  0  0  0  0
   -5.2159   43.2442   -9.9048 O   0  0  0  0  0  0  0  0  0  0  0  0
   -7.1986   44.5605   -8.9087 O   0  0  0  0  0  0  0  0  0  0  0  0
   -5.6285   40.0966   -4.6856 C   0  0  1  0  0  0  0  0  0  0  0  0
   -9.3573   38.9367   -3.8353 C   0  0  0  0  0  0  0  0  0  0  0  0
   -8.8901   39.2629   -5.0360 N   0  0  0  0  0  0  0  0  0  0  0  0
   -4.8855   39.5852   -5.7483 C   0  0  2  0  0  0  0  0  0  0  0  0
   -8.5859   39.1690   -2.7031 C   0  0  0  0  0  0  0  0  0  0  0  0
   -4.9146   38.2173   -5.9909 C   0  0  0  0  0  0  0  0  0  0  0  0
   -9.1235   38.8085   -1.4728 C   0  0  0  0  0  0  0  0  0  0  0  0
   -7.1844   39.7917   -2.7481 C   0  0  0  0  0  0  0  0  0  0  0  0
  1 13  1  0  0  0  0
  3  4  1  0  0  0  0
  4  5  1  0  0  0  0
  6  5  1  1  0  0  0
  6 10  1  0  0  0  0
  6 14  2  0  0  0  0
  6 18  1  0  0  0  0
  7 11  1  1  0  0  0
  7 15  1  0  0  0  0
  7 19  2  0  0  0  0
  7 18  1  0  0  0  0
  8 25  1  0  0  0  0
  8 12  1  0  0  0  0
  9 26  2  0  0  0  0
  9 13  1  0  0  0  0
 12 16  1  0  0  0  0
 13 17  2  0  0  0  0
 16 20  1  0  0  0  0
 16 27  1  0  0  0  0
 17 21  1  0  0  0  0
 20  2  1  6  0  0  0
 20 23  1  0  0  0  0
 21 22  1  0  0  0  0
 21 24  2  0  0  0  0
 23  3  1  1  0  0  0
 23 25  1  0  0  0  0
 24 27  1  0  0  0  0
 24 26  1  0  0  0  0
M  CHG  2  10  -1  15  -1
M  END
>  <CHROM.1>
-168.46547841,-159.68368739,-172.96782249,-90.98777852,41.63865760,-106.06241917
-41.20228656,-44.18975456,-6.74759766,40.55251738,-6.62881910,2.04973911
-0.21824724,2.18086205

>  <Name>
ligand

>  <RI>
0

>  <Rbt.Current_Directory>
/home/itssahil/PROJECTS/Mol_Feturizer/New_Systems/rnas/3D2V

>  <Rbt.Executable>
rbdock ($Id: //depot/dev/client3/rdock/2013.1/src/exe/rbdock.cxx#4 $)

>  <Rbt.Library>
libRbt.so (2013.1, Build901 2013/11/27)

>  <Rbt.Parameter_File>
/export/apps/rDock/src/rDock_2013.1_src/data/scripts/dock_solv.prm

>  <Rbt.Receptor>
prm/pocket_docking_4.prm

>  <SCORE>
-21.7085

>  <SCORE.INTER>
-22.8502

>  <SCORE.INTER.CONST>
1

>  <SCORE.INTER.POLAR>
0

>  <SCORE.INTER.ROT>
8

>  <SCORE.INTER.SOLV>
16.7406

>  <SCORE.INTER.VDW>
-29.747

>  <SCORE.INTER.norm>
-0.846304

>  <SCORE.INTRA>
1.14173

>  <SCORE.INTRA.DIHEDRAL>
1.5055

>  <SCORE.INTRA.DIHEDRAL.0>
7.82666

>  <SCORE.INTRA.POLAR>
0

>  <SCORE.INTRA.POLAR.0>
0

>  <SCORE.INTRA.REPUL>
0

>  <SCORE.INTRA.REPUL.0>
0

>  <SCORE.INTRA.SOLV>
1.47045

>  <SCORE.INTRA.SOLV.lig_0>
-83.2758

>  <SCORE.INTRA.VDW>
-0.346243

>  <SCORE.INTRA.VDW.0>
-3.26816

>  <SCORE.INTRA.norm>
0.0422863

>  <SCORE.RESTR>
0

>  <SCORE.RESTR.CAVITY>
0

>  <SCORE.RESTR.norm>
0

>  <SCORE.SYSTEM>
0

>  <SCORE.SYSTEM.CONST>
0

>  <SCORE.SYSTEM.DIHEDRAL>
0

>  <SCORE.SYSTEM.SOLV>
0

>  <SCORE.SYSTEM.norm>
0

>  <SCORE.heavy>
27

>  <SCORE.norm>
-0.804018

>  <RMSD>
2.782

$$$$
ligand
 OpenBabel11021811473D
libRbt.so/2013.1/901 2013/11/27
 27 28  0  0  0  0  0  0  0  0999 V2000
  -13.0681   37.5254   -1.6354 C   0  0  0  0  0  0  0  0  0  0  0  0
   -5.4524   39.9204   -4.9885 C   0  0  0  0  0  0  0  0  0  0  0  0
   -5.7458   41.1222   -7.7170 C   0  0  0  0  0  0  0  0  0  0  0  0
   -5.4968   42.6203   -7.5321 C   0  0  0  0  0  0  0  0  0  0  0  0
   -6.5735   43.3838   -8.0815 O   0  0  0  0  0  0  0  0  0  0  0  0
   -6.4071   44.9665   -8.2996 P   0  0  1  0  0  0  0  0  0  0  0  0
   -6.3209   44.4853  -11.0776 P   0  0  2  0  0  0  0  0  0  0  0  0
   -9.3570   40.4505   -6.7377 C   0  0  0  0  0  0  0  0  0  0  0  0
  -11.2888   37.6411   -3.3697 N   0  0  0  0  0  0  0  0  0  0  0  0
   -7.3465   45.7894   -7.2959 O   0  5  0  0  0  0  0  0  0  0  0  0
   -4.8995   44.0850  -11.0342 O   0  0  0  0  0  0  0  0  0  0  0  0
   -9.2438   39.8920   -5.4714 C   0  0  0  0  0  0  0  0  0  0  0  0
  -11.6863   37.9569   -2.1274 C   0  0  0  0  0  0  0  0  0  0  0  0
   -4.8953   45.4823   -8.0506 O   0  0  0  0  0  0  0  0  0  0  0  0
   -6.6510   45.3460  -12.3914 O   0  5  0  0  0  0  0  0  0  0  0  0
   -7.9803   39.7237   -4.9032 N   0  0  0  0  0  0  0  0  0  0  0  0
  -10.8809   38.6500   -1.3094 N   0  0  0  0  0  0  0  0  0  0  0  0
   -6.7953   45.3647   -9.8284 O   0  0  0  0  0  0  0  0  0  0  0  0
   -7.2710   43.2069  -11.1599 O   0  0  0  0  0  0  0  0  0  0  0  0
   -6.8398   40.1112   -5.6169 C   0  0  1  0  0  0  0  0  0  0  0  0
   -9.6674   39.0363   -1.7222 C   0  0  0  0  0  0  0  0  0  0  0  0
   -8.8772   39.7212   -0.9018 N   0  0  0  0  0  0  0  0  0  0  0  0
   -6.9545   40.6722   -6.8878 C   0  0  1  0  0  0  0  0  0  0  0  0
   -9.2315   38.7198   -3.0031 C   0  0  0  0  0  0  0  0  0  0  0  0
   -8.2201   40.8355   -7.4377 C   0  0  0  0  0  0  0  0  0  0  0  0
  -10.0985   38.0021   -3.8191 C   0  0  0  0  0  0  0  0  0  0  0  0
   -7.8578   39.1254   -3.5531 C   0  0  0  0  0  0  0  0  0  0  0  0
  1 13  1  0  0  0  0
  3  4  1  0  0  0  0
  4  5  1  0  0  0  0
  6  5  1  1  0  0  0
  6 10  1  0  0  0  0
  6 14  2  0  0  0  0
  6 18  1  0  0  0  0
  7 11  1  1  0  0  0
  7 15  1  0  0  0  0
  7 19  2  0  0  0  0
  7 18  1  0  0  0  0
  8 25  1  0  0  0  0
  8 12  1  0  0  0  0
  9 26  2  0  0  0  0
  9 13  1  0  0  0  0
 12 16  1  0  0  0  0
 13 17  2  0  0  0  0
 16 20  1  0  0  0  0
 16 27  1  0  0  0  0
 17 21  1  0  0  0  0
 20  2  1  1  0  0  0
 20 23  1  0  0  0  0
 21 22  1  0  0  0  0
 21 24  2  0  0  0  0
 23  3  1  1  0  0  0
 23 25  1  0  0  0  0
 24 27  1  0  0  0  0
 24 26  1  0  0  0  0
M  CHG  2  10  -1  15  -1
M  END
>  <CHROM.1>
-66.23310573,-166.74095121,-111.41596935,-42.59935501,-45.64237779,-95.78718491
-132.29020182,2.32757533,-7.73881244,41.71968481,-6.60657140,2.02985299,0.48999055
2.02888503

>  <Name>
ligand

>  <RI>
0

>  <Rbt.Current_Directory>
/home/itssahil/PROJECTS/Mol_Feturizer/New_Systems/rnas/3D2V

>  <Rbt.Executable>
rbdock ($Id: //depot/dev/client3/rdock/2013.1/src/exe/rbdock.cxx#4 $)

>  <Rbt.Library>
libRbt.so (2013.1, Build901 2013/11/27)

>  <Rbt.Parameter_File>
/export/apps/rDock/src/rDock_2013.1_src/data/scripts/dock_solv.prm

>  <Rbt.Receptor>
prm/pocket_docking_6.prm

>  <SCORE>
-18.1395

>  <SCORE.INTER>
-19.2084

>  <SCORE.INTER.CONST>
1

>  <SCORE.INTER.POLAR>
0

>  <SCORE.INTER.ROT>
8

>  <SCORE.INTER.SOLV>
26.2555

>  <SCORE.INTER.VDW>
-30.4908

>  <SCORE.INTER.norm>
-0.711422

>  <SCORE.INTRA>
1.06894

>  <SCORE.INTRA.DIHEDRAL>
1.43068

>  <SCORE.INTRA.DIHEDRAL.0>
7.82666

>  <SCORE.INTRA.POLAR>
0

>  <SCORE.INTRA.POLAR.0>
0

>  <SCORE.INTRA.REPUL>
0

>  <SCORE.INTRA.REPUL.0>
0

>  <SCORE.INTRA.SOLV>
-2.17638

>  <SCORE.INTRA.SOLV.lig_0>
-83.2758

>  <SCORE.INTRA.VDW>
1.44179

>  <SCORE.INTRA.VDW.0>
-3.26816

>  <SCORE.INTRA.norm>
0.0395904

>  <SCORE.RESTR>
0

>  <SCORE.RESTR.CAVITY>
0

>  <SCORE.RESTR.norm>
0

>  <SCORE.SYSTEM>
0

>  <SCORE.SYSTEM.CONST>
0

>  <SCORE.SYSTEM.DIHEDRAL>
0

>  <SCORE.SYSTEM.SOLV>
0

>  <SCORE.SYSTEM.norm>
0

>  <SCORE.heavy>
27

>  <SCORE.norm>
-0.671832

>  <RMSD>
2.785

$$$$
ligand
 OpenBabel11021811473D
libRbt.so/2013.1/901 2013/11/27
 27 28  0  0  0  0  0  0  0  0999 V2000
  -13.0720   37.5201   -1.7684 C   0  0  0  0  0  0  0  0  0  0  0  0
   -5.6205   38.2094   -4.4350 C   0  0  0  0  0  0  0  0  0  0  0  0
   -5.2769   39.4807   -7.1259 C   0  0  0  0  0  0  0  0  0  0  0  0
   -4.3373   40.6174   -7.5329 C   0  0  0  0  0  0  0  0  0  0  0  0
   -3.7848   41.2550   -6.3786 O   0  0  0  0  0  0  0  0  0  0  0  0
   -3.0793   42.6916   -6.5144 P   0  0  1  0  0  0  0  0  0  0  0  0
   -0.7813   43.7904   -7.7261 P   0  0  2  0  0  0  0  0  0  0  0  0
   -8.0723   41.5579   -5.6022 C   0  0  0  0  0  0  0  0  0  0  0  0
  -10.9405   38.5653   -1.0256 N   0  0  0  0  0  0  0  0  0  0  0  0
   -4.1258   43.8053   -6.9955 O   0  5  0  0  0  0  0  0  0  0  0  0
    0.1163   43.9299   -6.5610 O   0  0  0  0  0  0  0  0  0  0  0  0
   -8.2478   40.9841   -4.3500 C   0  0  0  0  0  0  0  0  0  0  0  0
  -11.6352   37.9816   -2.0144 C   0  0  0  0  0  0  0  0  0  0  0  0
   -2.4462   43.2178   -5.1231 O   0  0  0  0  0  0  0  0  0  0  0  0
   -1.6079   45.1388   -7.9983 O   0  5  0  0  0  0  0  0  0  0  0  0
   -7.4517   39.9025   -3.9703 N   0  0  0  0  0  0  0  0  0  0  0  0
  -11.0801   37.7979   -3.2211 N   0  0  0  0  0  0  0  0  0  0  0  0
   -1.8601   42.6171   -7.5888 O   0  0  0  0  0  0  0  0  0  0  0  0
    0.0527   43.5291   -9.0603 O   0  0  0  0  0  0  0  0  0  0  0  0
   -6.4907   39.4015   -4.8566 C   0  0  1  0  0  0  0  0  0  0  0  0
   -9.8235   38.1955   -3.4556 C   0  0  0  0  0  0  0  0  0  0  0  0
   -9.2847   38.0098   -4.6563 N   0  0  0  0  0  0  0  0  0  0  0  0
   -6.3150   39.9785   -6.1133 C   0  0  1  0  0  0  0  0  0  0  0  0
   -9.0840   38.8046   -2.4491 C   0  0  0  0  0  0  0  0  0  0  0  0
   -7.1138   41.0566   -6.4745 C   0  0  0  0  0  0  0  0  0  0  0  0
   -9.6966   38.9738   -1.2128 C   0  0  0  0  0  0  0  0  0  0  0  0
   -7.6397   39.2875   -2.6353 C   0  0  0  0  0  0  0  0  0  0  0  0
  1 13  1  0  0  0  0
  3  4  1  0  0  0  0
  4  5  1  0  0  0  0
  6  5  1  1  0  0  0
  6 10  1  0  0  0  0
  6 14  2  0  0  0  0
  6 18  1  0  0  0  0
  7 11  1  1  0  0  0
  7 15  1  0  0  0  0
  7 19  2  0  0  0  0
  7 18  1  0  0  0  0
  8 25  1  0  0  0  0
  8 12  1  0  0  0  0
  9 26  2  0  0  0  0
  9 13  1  0  0  0  0
 12 16  1  0  0  0  0
 13 17  2  0  0  0  0
 16 20  1  0  0  0  0
 16 27  1  0  0  0  0
 17 21  1  0  0  0  0
 20  2  1  1  0  0  0
 20 23  1  0  0  0  0
 21 22  1  0  0  0  0
 21 24  2  0  0  0  0
 23  3  1  1  0  0  0
 23 25  1  0  0  0  0
 24 27  1  0  0  0  0
 24 26  1  0  0  0  0
M  CHG  2  10  -1  15  -1
M  END
>  <CHROM.1>
51.91352712,-164.33083440,63.13366732,-167.28564960,68.21136081,-123.53840251
39.46429803,57.34592111,-5.66173387,40.94296336,-5.34165133,-3.07077782,-0.66605166
-2.21316067

>  <Name>
ligand

>  <RI>
0

>  <Rbt.Current_Directory>
/home/itssahil/PROJECTS/Mol_Feturizer/New_Systems/rnas/3D2V

>  <Rbt.Executable>
rbdock ($Id: //depot/dev/client3/rdock/2013.1/src/exe/rbdock.cxx#4 $)

>  <Rbt.Library>
libRbt.so (2013.1, Build901 2013/11/27)

>  <Rbt.Parameter_File>
/export/apps/rDock/src/rDock_2013.1_src/data/scripts/dock_solv.prm

>  <Rbt.Receptor>
prm/pocket_docking_5.prm

>  <SCORE>
-21.7819

>  <SCORE.INTER>
-22.2498

>  <SCORE.INTER.CONST>
1

>  <SCORE.INTER.POLAR>
0

>  <SCORE.INTER.ROT>
8

>  <SCORE.INTER.SOLV>
18.2052

>  <SCORE.INTER.VDW>
-29.8349

>  <SCORE.INTER.norm>
-0.824067

>  <SCORE.INTRA>
0.467916

>  <SCORE.INTRA.DIHEDRAL>
-0.872618

>  <SCORE.INTRA.DIHEDRAL.0>
7.82666

>  <SCORE.INTRA.POLAR>
0

>  <SCORE.INTRA.POLAR.0>
0

>  <SCORE.INTRA.REPUL>
0

>  <SCORE.INTRA.REPUL.0>
0

>  <SCORE.INTRA.SOLV>
2.94611

>  <SCORE.INTRA.SOLV.lig_0>
-83.2758

>  <SCORE.INTRA.VDW>
-0.568829

>  <SCORE.INTRA.VDW.0>
-3.26816

>  <SCORE.INTRA.norm>
0.0173302

>  <SCORE.RESTR>
0

>  <SCORE.RESTR.CAVITY>
0

>  <SCORE.RESTR.norm>
0

>  <SCORE.SYSTEM>
0

>  <SCORE.SYSTEM.CONST>
0

>  <SCORE.SYSTEM.DIHEDRAL>
0

>  <SCORE.SYSTEM.SOLV>
0

>  <SCORE.SYSTEM.norm>
0

>  <SCORE.heavy>
27

>  <SCORE.norm>
-0.806736

>  <RMSD>
2.789

$$$$
ligand
 OpenBabel11021811473D
libRbt.so/2013.1/901 2013/11/27
 27 28  0  0  0  0  0  0  0  0999 V2000
  -10.9628   38.0621   -1.9240 C   0  0  0  0  0  0  0  0  0  0  0  0
   -7.5611   41.8208   -5.1768 C   0  0  0  0  0  0  0  0  0  0  0  0
   -7.2971   41.9118   -8.1597 C   0  0  0  0  0  0  0  0  0  0  0  0
   -6.7110   43.3239   -8.2139 C   0  0  0  0  0  0  0  0  0  0  0  0
   -5.5602   43.3619   -9.0615 O   0  0  0  0  0  0  0  0  0  0  0  0
   -4.8416   44.7630   -9.3785 P   0  0  1  0  0  0  0  0  0  0  0  0
   -5.2382   44.3242  -12.1365 P   0  0  2  0  0  0  0  0  0  0  0  0
   -4.6619   39.3480   -7.1934 C   0  0  0  0  0  0  0  0  0  0  0  0
   -8.9062   39.4335   -1.6464 N   0  0  0  0  0  0  0  0  0  0  0  0
   -5.8481   45.9903   -9.1602 O   0  5  0  0  0  0  0  0  0  0  0  0
   -6.4608   45.1349  -12.3112 O   0  0  0  0  0  0  0  0  0  0  0  0
   -4.7679   39.2898   -5.8101 C   0  0  0  0  0  0  0  0  0  0  0  0
   -9.6035   38.5723   -2.4035 C   0  0  0  0  0  0  0  0  0  0  0  0
   -3.5574   45.0410   -8.4367 O   0  0  0  0  0  0  0  0  0  0  0  0
   -5.5872   42.7781  -11.8840 O   0  5  0  0  0  0  0  0  0  0  0  0
   -5.7089   40.0873   -5.1572 N   0  0  0  0  0  0  0  0  0  0  0  0
   -9.1186   38.1526   -3.5811 N   0  0  0  0  0  0  0  0  0  0  0  0
   -4.3118   44.7851  -10.9165 O   0  0  0  0  0  0  0  0  0  0  0  0
   -4.3461   44.3457  -13.4585 O   0  0  0  0  0  0  0  0  0  0  0  0
   -6.5304   40.9433   -5.9005 C   0  0  1  0  0  0  0  0  0  0  0  0
   -7.9305   38.5884   -4.0178 C   0  0  0  0  0  0  0  0  0  0  0  0
   -7.4611   38.1669   -5.1876 N   0  0  0  0  0  0  0  0  0  0  0  0
   -6.4235   41.0007   -7.2892 C   0  0  2  0  0  0  0  0  0  0  0  0
   -7.1901   39.4821   -3.2536 C   0  0  0  0  0  0  0  0  0  0  0  0
   -5.4835   40.1979   -7.9238 C   0  0  0  0  0  0  0  0  0  0  0  0
   -7.7285   39.8900   -2.0386 C   0  0  0  0  0  0  0  0  0  0  0  0
   -5.8214   40.0281   -3.6808 C   0  0  0  0  0  0  0  0  0  0  0  0
  1 13  1  0  0  0  0
  3  4  1  0  0  0  0
  4  5  1  0  0  0  0
  6  5  1  1  0  0  0
  6 10  1  0  0  0  0
  6 14  2  0  0  0  0
  6 18  1  0  0  0  0
  7 11  1  6  0  0  0
  7 15  1  0  0  0  0
  7 19  2  0  0  0  0
  7 18  1  0  0  0  0
  8 25  1  0  0  0  0
  8 12  1  0  0  0  0
  9 26  2  0  0  0  0
  9 13  1  0  0  0  0
 12 16  1  0  0  0  0
 13 17  2  0  0  0  0
 16 20  1  0  0  0  0
 16 27  1  0  0  0  0
 17 21  1  0  0  0  0
 20  2  1  6  0  0  0
 20 23  1  0  0  0  0
 21 22  1  0  0  0  0
 21 24  2  0  0  0  0
 23  3  1  1  0  0  0
 23 25  1  0  0  0  0
 24 27  1  0  0  0  0
 24 26  1  0  0  0  0
M  CHG  2  10  -1  15  -1
M  END
>  <CHROM.1>
74.76864684,174.79653820,-22.49637633,47.18134882,61.63291146,83.50891907
29.19691429,-115.61932176,-6.34056181,41.86723799,-7.37818711,2.53484337
-1.18110191,3.10625470

>  <Name>
ligand

>  <RI>
0

>  <Rbt.Current_Directory>
/home/itssahil/PROJECTS/Mol_Feturizer/New_Systems/rnas/3D2V

>  <Rbt.Executable>
rbdock ($Id: //depot/dev/client3/rdock/2013.1/src/exe/rbdock.cxx#4 $)

>  <Rbt.Library>
libRbt.so (2013.1, Build901 2013/11/27)

>  <Rbt.Parameter_File>
/export/apps/rDock/src/rDock_2013.1_src/data/scripts/dock_solv.prm

>  <Rbt.Receptor>
prm/pocket_docking_4.prm

>  <SCORE>
-14.3573

>  <SCORE.INTER>
-15.5549

>  <SCORE.INTER.CONST>
1

>  <SCORE.INTER.POLAR>
0

>  <SCORE.INTER.ROT>
8

>  <SCORE.INTER.SOLV>
15.03

>  <SCORE.INTER.VDW>
-24.3133

>  <SCORE.INTER.norm>
-0.576108

>  <SCORE.INTRA>
1.19764

>  <SCORE.INTRA.DIHEDRAL>
0.161119

>  <SCORE.INTRA.DIHEDRAL.0>
7.82666

>  <SCORE.INTRA.POLAR>
0

>  <SCORE.INTRA.POLAR.0>
0

>  <SCORE.INTRA.REPUL>
0

>  <SCORE.INTRA.REPUL.0>
0

>  <SCORE.INTRA.SOLV>
2.73344

>  <SCORE.INTRA.SOLV.lig_0>
-83.2758

>  <SCORE.INTRA.VDW>
-0.249638

>  <SCORE.INTRA.VDW.0>
-3.26816

>  <SCORE.INTRA.norm>
0.0443571

>  <SCORE.RESTR>
0

>  <SCORE.RESTR.CAVITY>
0

>  <SCORE.RESTR.norm>
0

>  <SCORE.SYSTEM>
0

>  <SCORE.SYSTEM.CONST>
0

>  <SCORE.SYSTEM.DIHEDRAL>
0

>  <SCORE.SYSTEM.SOLV>
0

>  <SCORE.SYSTEM.norm>
0

>  <SCORE.heavy>
27

>  <SCORE.norm>
-0.531751

>  <RMSD>
2.792

$$$$
ligand
 OpenBabel11021811473D
libRbt.so/2013.1/901 2013/11/27
 27 28  0  0  0  0  0  0  0  0999 V2000
  -12.2617   37.7045   -1.7194 C   0  0  0  0  0  0  0  0  0  0  0  0
   -5.7063   39.3626   -5.3702 C   0  0  0  0  0  0  0  0  0  0  0  0
   -5.6614   41.8476   -7.0429 C   0  0  0  0  0  0  0  0  0  0  0  0
   -6.7420   41.5264   -8.0771 C   0  0  0  0  0  0  0  0  0  0  0  0
   -6.2131   41.6063   -9.4031 O   0  0  0  0  0  0  0  0  0  0  0  0
   -5.0311   40.6182   -9.8576 P   0  0  1  0  0  0  0  0  0  0  0  0
   -2.9819   42.5495  -10.0227 P   0  0  2  0  0  0  0  0  0  0  0  0
   -7.3208   43.0571   -3.8438 C   0  0  0  0  0  0  0  0  0  0  0  0
  -10.0326   38.5205   -0.9763 N   0  0  0  0  0  0  0  0  0  0  0  0
   -5.2206   39.1603   -9.2206 O   0  5  0  0  0  0  0  0  0  0  0  0
   -2.4888   42.3944  -11.4067 O   0  0  0  0  0  0  0  0  0  0  0  0
   -7.3512   41.9172   -3.0514 C   0  0  0  0  0  0  0  0  0  0  0  0
  -10.8345   38.1782   -1.9964 C   0  0  0  0  0  0  0  0  0  0  0  0
   -4.9556   40.4198  -11.4602 O   0  0  0  0  0  0  0  0  0  0  0  0
   -1.8153   43.0323   -9.0319 O   0  5  0  0  0  0  0  0  0  0  0  0
   -6.8253   40.7219   -3.5437 N   0  0  0  0  0  0  0  0  0  0  0  0
  -10.3956   38.2475   -3.2615 N   0  0  0  0  0  0  0  0  0  0  0  0
   -3.5919   41.2138   -9.3880 O   0  0  0  0  0  0  0  0  0  0  0  0
   -4.1022   43.6816   -9.9401 O   0  0  0  0  0  0  0  0  0  0  0  0
   -6.2800   40.6808   -4.8326 C   0  0  1  0  0  0  0  0  0  0  0  0
   -9.1493   38.6602   -3.5238 C   0  0  0  0  0  0  0  0  0  0  0  0
   -8.7262   38.7265   -4.7820 N   0  0  0  0  0  0  0  0  0  0  0  0
   -6.2495   41.8258   -5.6271 C   0  0  2  0  0  0  0  0  0  0  0  0
   -8.3002   39.0224   -2.4853 C   0  0  0  0  0  0  0  0  0  0  0  0
   -6.7747   43.0084   -5.1206 C   0  0  0  0  0  0  0  0  0  0  0  0
   -8.7944   38.9338   -1.1890 C   0  0  0  0  0  0  0  0  0  0  0  0
   -6.8594   39.5041   -2.7002 C   0  0  0  0  0  0  0  0  0  0  0  0
  1 13  1  0  0  0  0
  3  4  1  0  0  0  0
  4  5  1  0  0  0  0
  6  5  1  1  0  0  0
  6 10  1  0  0  0  0
  6 14  2  0  0  0  0
  6 18  1  0  0  0  0
  7 11  1  6  0  0  0
  7 15  1  0  0  0  0
  7 19  2  0  0  0  0
  7 18  1  0  0  0  0
  8 25  1  0  0  0  0
  8 12  1  0  0  0  0
  9 26  2  0  0  0  0
  9 13  1  0  0  0  0
 12 16  1  0  0  0  0
 13 17  2  0  0  0  0
 16 20  1  0  0  0  0
 16 27  1  0  0  0  0
 17 21  1  0  0  0  0
 20  2  1  1  0  0  0
 20 23  1  0  0  0  0
 21 22  1  0  0  0  0
 21 24  2  0  0  0  0
 23  3  1  6  0  0  0
 23 25  1  0  0  0  0
 24 27  1  0  0  0  0
 24 26  1  0  0  0  0
M  CHG  2  10  -1  15  -1
M  END
>  <CHROM.1>
177.31728679,62.30093183,37.19192438,-67.69090784,-72.63109506,90.44219306
59.51182878,67.37007140,-6.33833147,40.70447635,-6.45084354,2.54540610,0.80751504
1.12695477

>  <Name>
ligand

>  <RI>
0

>  <Rbt.Current_Directory>
/home/itssahil/PROJECTS/Mol_Feturizer/New_Systems/rnas/3D2V

>  <Rbt.Executable>
rbdock ($Id: //depot/dev/client3/rdock/2013.1/src/exe/rbdock.cxx#4 $)

>  <Rbt.Library>
libRbt.so (2013.1, Build901 2013/11/27)

>  <Rbt.Parameter_File>
/export/apps/rDock/src/rDock_2013.1_src/data/scripts/dock_solv.prm

>  <Rbt.Receptor>
prm/pocket_docking_3.prm

>  <SCORE>
-17.4713

>  <SCORE.INTER>
-18.0744

>  <SCORE.INTER.CONST>
1

>  <SCORE.INTER.POLAR>
0

>  <SCORE.INTER.ROT>
8

>  <SCORE.INTER.SOLV>
16.1258

>  <SCORE.INTER.VDW>
-26.3582

>  <SCORE.INTER.norm>
-0.669423

>  <SCORE.INTRA>
0.59494

>  <SCORE.INTRA.DIHEDRAL>
-1.48916

>  <SCORE.INTRA.DIHEDRAL.0>
7.82666

>  <SCORE.INTRA.POLAR>
0

>  <SCORE.INTRA.POLAR.0>
0

>  <SCORE.INTRA.REPUL>
0

>  <SCORE.INTRA.REPUL.0>
0

>  <SCORE.INTRA.SOLV>
4.16339

>  <SCORE.INTRA.SOLV.lig_0>
-83.2758

>  <SCORE.INTRA.VDW>
-0.742176

>  <SCORE.INTRA.VDW.0>
-3.26816

>  <SCORE.INTRA.norm>
0.0220348

>  <SCORE.RESTR>
0.00816039

>  <SCORE.RESTR.CAVITY>
0.00816039

>  <SCORE.RESTR.norm>
0.000302237

>  <SCORE.SYSTEM>
0

>  <SCORE.SYSTEM.CONST>
0

>  <SCORE.SYSTEM.DIHEDRAL>
0

>  <SCORE.SYSTEM.SOLV>
0

>  <SCORE.SYSTEM.norm>
0

>  <SCORE.heavy>
27

>  <SCORE.norm>
-0.647086

>  <RMSD>
2.810

$$$$
ligand
 OpenBabel11021811473D
libRbt.so/2013.1/901 2013/11/27
 27 28  0  0  0  0  0  0  0  0999 V2000
  -13.2830   37.4274   -1.6347 C   0  0  0  0  0  0  0  0  0  0  0  0
   -6.0993   38.0278   -5.3093 C   0  0  0  0  0  0  0  0  0  0  0  0
   -6.2891   38.2760   -8.2889 C   0  0  0  0  0  0  0  0  0  0  0  0
   -5.7813   39.3342   -9.2702 C   0  0  0  0  0  0  0  0  0  0  0  0
   -5.3210   40.4933   -8.5710 O   0  0  0  0  0  0  0  0  0  0  0  0
   -4.8475   41.7909   -9.3906 P   0  0  1  0  0  0  0  0  0  0  0  0
   -5.8488   43.6592   -7.5297 P   0  0  2  0  0  0  0  0  0  0  0  0
   -9.4014   40.1224   -7.1245 C   0  0  0  0  0  0  0  0  0  0  0  0
  -11.6250   37.7658   -3.4578 N   0  0  0  0  0  0  0  0  0  0  0  0
   -3.4714   41.5149  -10.1635 O   0  5  0  0  0  0  0  0  0  0  0  0
   -7.0773   43.9044   -8.3129 O   0  0  0  0  0  0  0  0  0  0  0  0
   -9.3326   40.0196   -5.7415 C   0  0  0  0  0  0  0  0  0  0  0  0
  -11.9306   37.9109   -2.1591 C   0  0  0  0  0  0  0  0  0  0  0  0
   -5.9210   42.2603  -10.5046 O   0  0  0  0  0  0  0  0  0  0  0  0
   -5.2975   45.0094   -6.8598 O   0  5  0  0  0  0  0  0  0  0  0  0
   -8.2619   39.3449   -5.1533 N   0  0  0  0  0  0  0  0  0  0  0  0
  -11.0587   38.4780   -1.3128 N   0  0  0  0  0  0  0  0  0  0  0  0
   -4.6387   43.0471   -8.3783 O   0  0  0  0  0  0  0  0  0  0  0  0
   -6.1369   42.6702   -6.3121 O   0  0  0  0  0  0  0  0  0  0  0  0
   -7.2728   38.7718   -5.9616 C   0  0  1  0  0  0  0  0  0  0  0  0
   -9.8696   38.9073   -1.7533 C   0  0  0  0  0  0  0  0  0  0  0  0
   -9.0129   39.4660   -0.9047 N   0  0  0  0  0  0  0  0  0  0  0  0
   -7.3425   38.8758   -7.3499 C   0  0  1  0  0  0  0  0  0  0  0  0
   -9.5283   38.7664   -3.0929 C   0  0  0  0  0  0  0  0  0  0  0  0
   -8.4137   39.5535   -7.9192 C   0  0  0  0  0  0  0  0  0  0  0  0
  -10.4620   38.1751   -3.9362 C   0  0  0  0  0  0  0  0  0  0  0  0
   -8.1885   39.2323   -3.6776 C   0  0  0  0  0  0  0  0  0  0  0  0
  1 13  1  0  0  0  0
  3  4  1  0  0  0  0
  4  5  1  0  0  0  0
  6  5  1  1  0  0  0
  6 10  1  0  0  0  0
  6 14  2  0  0  0  0
  6 18  1  0  0  0  0
  7 11  1  6  0  0  0
  7 15  1  0  0  0  0
  7 19  2  0  0  0  0
  7 18  1  0  0  0  0
  8 25  1  0  0  0  0
  8 12  1  0  0  0  0
  9 26  2  0  0  0  0
  9 13  1  0  0  0  0
 12 16  1  0  0  0  0
 13 17  2  0  0  0  0
 16 20  1  0  0  0  0
 16 27  1  0  0  0  0
 17 21  1  0  0  0  0
 20  2  1  1  0  0  0
 20 23  1  0  0  0  0
 21 22  1  0  0  0  0
 21 24  2  0  0  0  0
 23  3  1  1  0  0  0
 23 25  1  0  0  0  0
 24 27  1  0  0  0  0
 24 26  1  0  0  0  0
M  CHG  2  10  -1  15  -1
M  END
>  <CHROM.1>
53.63394507,-175.13907523,-69.77041164,-62.63162201,-47.19135737,-127.95577942
-162.38196111,48.23642826,-7.49823662,40.44476411,-6.25179234,3.03776014
-0.92978453,-2.70233331

>  <Name>
ligand

>  <RI>
0

>  <Rbt.Current_Directory>
/home/itssahil/PROJECTS/Mol_Feturizer/New_Systems/rnas/3D2V

>  <Rbt.Executable>
rbdock ($Id: //depot/dev/client3/rdock/2013.1/src/exe/rbdock.cxx#4 $)

>  <Rbt.Library>
libRbt.so (2013.1, Build901 2013/11/27)

>  <Rbt.Parameter_File>
/export/apps/rDock/src/rDock_2013.1_src/data/scripts/dock_solv.prm

>  <Rbt.Receptor>
prm/pocket_docking_6.prm

>  <SCORE>
-22.5637

>  <SCORE.INTER>
-20.6739

>  <SCORE.INTER.CONST>
1

>  <SCORE.INTER.POLAR>
0

>  <SCORE.INTER.ROT>
8

>  <SCORE.INTER.SOLV>
18.4319

>  <SCORE.INTER.VDW>
-28.8599

>  <SCORE.INTER.norm>
-0.765699

>  <SCORE.INTRA>
-1.88986

>  <SCORE.INTRA.DIHEDRAL>
-1.93013

>  <SCORE.INTRA.DIHEDRAL.0>
7.82666

>  <SCORE.INTRA.POLAR>
0

>  <SCORE.INTRA.POLAR.0>
0

>  <SCORE.INTRA.REPUL>
0

>  <SCORE.INTRA.REPUL.0>
0

>  <SCORE.INTRA.SOLV>
-2.23529

>  <SCORE.INTRA.SOLV.lig_0>
-83.2758

>  <SCORE.INTRA.VDW>
0.192846

>  <SCORE.INTRA.VDW.0>
-3.26816

>  <SCORE.INTRA.norm>
-0.0699949

>  <SCORE.RESTR>
0

>  <SCORE.RESTR.CAVITY>
0

>  <SCORE.RESTR.norm>
0

>  <SCORE.SYSTEM>
0

>  <SCORE.SYSTEM.CONST>
0

>  <SCORE.SYSTEM.DIHEDRAL>
0

>  <SCORE.SYSTEM.SOLV>
0

>  <SCORE.SYSTEM.norm>
0

>  <SCORE.heavy>
27

>  <SCORE.norm>
-0.835694

>  <RMSD>
2.817

$$$$
ligand
 OpenBabel11021811473D
libRbt.so/2013.1/901 2013/11/27
 27 28  0  0  0  0  0  0  0  0999 V2000
  -12.8876   37.4061   -1.8887 C   0  0  0  0  0  0  0  0  0  0  0  0
   -5.5072   38.4625   -4.9685 C   0  0  0  0  0  0  0  0  0  0  0  0
   -5.4716   38.7201   -7.9531 C   0  0  0  0  0  0  0  0  0  0  0  0
   -4.8521   39.8393   -8.7923 C   0  0  0  0  0  0  0  0  0  0  0  0
   -5.3496   39.8017  -10.1321 O   0  0  0  0  0  0  0  0  0  0  0  0
   -4.8259   40.8673  -11.2140 P   0  0  1  0  0  0  0  0  0  0  0  0
   -5.4552   43.5944  -11.5646 P   0  0  2  0  0  0  0  0  0  0  0  0
   -8.7507   40.4101   -7.0355 C   0  0  0  0  0  0  0  0  0  0  0  0
  -11.1574   37.9581   -3.5883 N   0  0  0  0  0  0  0  0  0  0  0  0
   -3.2854   40.6142  -11.5744 O   0  5  0  0  0  0  0  0  0  0  0  0
   -4.8244   43.6149  -12.9003 O   0  0  0  0  0  0  0  0  0  0  0  0
   -8.7871   40.3021   -5.6516 C   0  0  0  0  0  0  0  0  0  0  0  0
  -11.5313   37.9799   -2.2996 C   0  0  0  0  0  0  0  0  0  0  0  0
   -5.6455   40.8079  -12.6062 O   0  0  0  0  0  0  0  0  0  0  0  0
   -5.1444   44.9389  -10.7452 O   0  5  0  0  0  0  0  0  0  0  0  0
   -7.7355   39.6750   -4.9818 N   0  0  0  0  0  0  0  0  0  0  0  0
  -10.7244   38.5018   -1.3645 N   0  0  0  0  0  0  0  0  0  0  0  0
   -4.9887   42.3789  -10.6352 O   0  0  0  0  0  0  0  0  0  0  0  0
   -7.0443   43.5308  -11.6854 O   0  0  0  0  0  0  0  0  0  0  0  0
   -6.6593   39.1543   -5.7103 C   0  0  1  0  0  0  0  0  0  0  0  0
   -9.5329   39.0086   -1.7049 C   0  0  0  0  0  0  0  0  0  0  0  0
   -8.7410   39.5215   -0.7689 N   0  0  0  0  0  0  0  0  0  0  0  0
   -6.6235   39.2636   -7.0994 C   0  0  1  0  0  0  0  0  0  0  0  0
   -9.1217   38.9959   -3.0322 C   0  0  0  0  0  0  0  0  0  0  0  0
   -7.6771   39.8935   -7.7505 C   0  0  0  0  0  0  0  0  0  0  0  0
   -9.9894   38.4475   -3.9696 C   0  0  0  0  0  0  0  0  0  0  0  0
   -7.7743   39.5568   -3.5052 C   0  0  0  0  0  0  0  0  0  0  0  0
  1 13  1  0  0  0  0
  3  4  1  0  0  0  0
  4  5  1  0  0  0  0
  6  5  1  1  0  0  0
  6 10  1  0  0  0  0
  6 14  2  0  0  0  0
  6 18  1  0  0  0  0
  7 11  1  6  0  0  0
  7 15  1  0  0  0  0
  7 19  2  0  0  0  0
  7 18  1  0  0  0  0
  8 25  1  0  0  0  0
  8 12  1  0  0  0  0
  9 26  2  0  0  0  0
  9 13  1  0  0  0  0
 12 16  1  0  0  0  0
 13 17  2  0  0  0  0
 16 20  1  0  0  0  0
 16 27  1  0  0  0  0
 17 21  1  0  0  0  0
 20  2  1  1  0  0  0
 20 23  1  0  0  0  0
 21 22  1  0  0  0  0
 21 24  2  0  0  0  0
 23  3  1  1  0  0  0
 23 25  1  0  0  0  0
 24 27  1  0  0  0  0
 24 26  1  0  0  0  0
M  CHG  2  10  -1  15  -1
M  END
>  <CHROM.1>
-99.57165066,-178.99797706,68.20726481,-140.88354518,-42.67108925,-122.63364509
-167.66877320,49.46641916,-7.09759365,40.39297114,-7.45592210,2.15233253
-0.58540384,2.31913132

>  <Name>
ligand

>  <RI>
0

>  <Rbt.Current_Directory>
/home/itssahil/PROJECTS/Mol_Feturizer/New_Systems/rnas/3D2V

>  <Rbt.Executable>
rbdock ($Id: //depot/dev/client3/rdock/2013.1/src/exe/rbdock.cxx#4 $)

>  <Rbt.Library>
libRbt.so (2013.1, Build901 2013/11/27)

>  <Rbt.Parameter_File>
/export/apps/rDock/src/rDock_2013.1_src/data/scripts/dock_solv.prm

>  <Rbt.Receptor>
prm/pocket_docking_4.prm

>  <SCORE>
-21.3877

>  <SCORE.INTER>
-23.552

>  <SCORE.INTER.CONST>
1

>  <SCORE.INTER.POLAR>
0

>  <SCORE.INTER.ROT>
8

>  <SCORE.INTER.SOLV>
26.3295

>  <SCORE.INTER.VDW>
-33.4112

>  <SCORE.INTER.norm>
-0.872297

>  <SCORE.INTRA>
2.1581

>  <SCORE.INTRA.DIHEDRAL>
3.7812

>  <SCORE.INTRA.DIHEDRAL.0>
7.82666

>  <SCORE.INTRA.POLAR>
0

>  <SCORE.INTRA.POLAR.0>
0

>  <SCORE.INTRA.REPUL>
0

>  <SCORE.INTRA.REPUL.0>
0

>  <SCORE.INTRA.SOLV>
-1.71604

>  <SCORE.INTRA.SOLV.lig_0>
-83.2758

>  <SCORE.INTRA.VDW>
1.12552

>  <SCORE.INTRA.VDW.0>
-3.26816

>  <SCORE.INTRA.norm>
0.0799297

>  <SCORE.RESTR>
0.00621994

>  <SCORE.RESTR.CAVITY>
0.00621994

>  <SCORE.RESTR.norm>
0.000230368

>  <SCORE.SYSTEM>
0

>  <SCORE.SYSTEM.CONST>
0

>  <SCORE.SYSTEM.DIHEDRAL>
0

>  <SCORE.SYSTEM.SOLV>
0

>  <SCORE.SYSTEM.norm>
0

>  <SCORE.heavy>
27

>  <SCORE.norm>
-0.792137

>  <RMSD>
2.820

$$$$
ligand
 OpenBabel11021811473D
libRbt.so/2013.1/901 2013/11/27
 27 28  0  0  0  0  0  0  0  0999 V2000
  -13.0678   37.4839   -1.5831 C   0  0  0  0  0  0  0  0  0  0  0  0
   -5.8168   38.5784   -5.2025 C   0  0  0  0  0  0  0  0  0  0  0  0
   -5.9754   38.6030   -8.1941 C   0  0  0  0  0  0  0  0  0  0  0  0
   -5.3004   39.7802   -8.9006 C   0  0  0  0  0  0  0  0  0  0  0  0
   -4.7981   40.7212   -7.9485 O   0  0  0  0  0  0  0  0  0  0  0  0
   -4.3155   42.1746   -8.4327 P   0  0  1  0  0  0  0  0  0  0  0  0
   -6.8695   43.2325   -8.9935 P   0  0  2  0  0  0  0  0  0  0  0  0
   -9.3544   40.0291   -7.1942 C   0  0  0  0  0  0  0  0  0  0  0  0
  -11.5170   38.0500   -3.4437 N   0  0  0  0  0  0  0  0  0  0  0  0
   -4.1414   43.1691   -7.1886 O   0  5  0  0  0  0  0  0  0  0  0  0
   -7.5542   42.2231   -8.1598 O   0  0  0  0  0  0  0  0  0  0  0  0
   -9.3017   40.0272   -5.8067 C   0  0  0  0  0  0  0  0  0  0  0  0
  -11.7476   38.0362   -2.1217 C   0  0  0  0  0  0  0  0  0  0  0  0
   -2.8960   42.1432   -9.2058 O   0  0  0  0  0  0  0  0  0  0  0  0
   -7.7001   43.5567  -10.3279 O   0  5  0  0  0  0  0  0  0  0  0  0
   -8.1553   39.5611   -5.1616 N   0  0  0  0  0  0  0  0  0  0  0  0
  -10.8287   38.5036   -1.2644 N   0  0  0  0  0  0  0  0  0  0  0  0
   -5.4006   42.8096   -9.4652 O   0  0  0  0  0  0  0  0  0  0  0  0
   -6.7498   44.6232   -8.2217 O   0  0  0  0  0  0  0  0  0  0  0  0
   -7.0737   39.0931   -5.9175 C   0  0  1  0  0  0  0  0  0  0  0  0
   -9.6667   38.9908   -1.7170 C   0  0  0  0  0  0  0  0  0  0  0  0
   -8.7628   39.4496   -0.8575 N   0  0  0  0  0  0  0  0  0  0  0  0
   -7.1274   39.0960   -7.3104 C   0  0  1  0  0  0  0  0  0  0  0  0
   -9.4028   39.0141   -3.0811 C   0  0  0  0  0  0  0  0  0  0  0  0
   -8.2751   39.5661   -7.9369 C   0  0  0  0  0  0  0  0  0  0  0  0
  -10.3833   38.5219   -3.9349 C   0  0  0  0  0  0  0  0  0  0  0  0
   -8.0987   39.5560   -3.6808 C   0  0  0  0  0  0  0  0  0  0  0  0
  1 13  1  0  0  0  0
  3  4  1  0  0  0  0
  4  5  1  0  0  0  0
  6  5  1  1  0  0  0
  6 10  1  0  0  0  0
  6 14  2  0  0  0  0
  6 18  1  0  0  0  0
  7 11  1  1  0  0  0
  7 15  1  0  0  0  0
  7 19  2  0  0  0  0
  7 18  1  0  0  0  0
  8 25  1  0  0  0  0
  8 12  1  0  0  0  0
  9 26  2  0  0  0  0
  9 13  1  0  0  0  0
 12 16  1  0  0  0  0
 13 17  2  0  0  0  0
 16 20  1  0  0  0  0
 16 27  1  0  0  0  0
 17 21  1  0  0  0  0
 20  2  1  6  0  0  0
 20 23  1  0  0  0  0
 21 22  1  0  0  0  0
 21 24  2  0  0  0  0
 23  3  1  6  0  0  0
 23 25  1  0  0  0  0
 24 27  1  0  0  0  0
 24 26  1  0  0  0  0
M  CHG  2  10  -1  15  -1
M  END
>  <CHROM.1>
58.67500507,-167.62913821,165.94225189,67.31499941,-46.46117548,-108.94297478
-174.95858881,44.62644595,-7.48087872,40.56941716,-6.31962445,2.19959080
-0.23409503,2.29943246

>  <Name>
ligand

>  <RI>
0

>  <Rbt.Current_Directory>
/home/itssahil/PROJECTS/Mol_Feturizer/New_Systems/rnas/3D2V

>  <Rbt.Executable>
rbdock ($Id: //depot/dev/client3/rdock/2013.1/src/exe/rbdock.cxx#4 $)

>  <Rbt.Library>
libRbt.so (2013.1, Build901 2013/11/27)

>  <Rbt.Parameter_File>
/export/apps/rDock/src/rDock_2013.1_src/data/scripts/dock_solv.prm

>  <Rbt.Receptor>
prm/pocket_docking_6.prm

>  <SCORE>
-24.9836

>  <SCORE.INTER>
-23.4017

>  <SCORE.INTER.CONST>
1

>  <SCORE.INTER.POLAR>
0

>  <SCORE.INTER.ROT>
8

>  <SCORE.INTER.SOLV>
21.9745

>  <SCORE.INTER.VDW>
-31.8593

>  <SCORE.INTER.norm>
-0.866728

>  <SCORE.INTRA>
-1.58191

>  <SCORE.INTRA.DIHEDRAL>
-1.19124

>  <SCORE.INTRA.DIHEDRAL.0>
7.82666

>  <SCORE.INTRA.POLAR>
0

>  <SCORE.INTRA.POLAR.0>
0

>  <SCORE.INTRA.REPUL>
0

>  <SCORE.INTRA.REPUL.0>
0

>  <SCORE.INTRA.SOLV>
-2.624

>  <SCORE.INTRA.SOLV.lig_0>
-83.2758

>  <SCORE.INTRA.VDW>
0.325707

>  <SCORE.INTRA.VDW.0>
-3.26816

>  <SCORE.INTRA.norm>
-0.0585893

>  <SCORE.RESTR>
0

>  <SCORE.RESTR.CAVITY>
0

>  <SCORE.RESTR.norm>
0

>  <SCORE.SYSTEM>
0

>  <SCORE.SYSTEM.CONST>
0

>  <SCORE.SYSTEM.DIHEDRAL>
0

>  <SCORE.SYSTEM.SOLV>
0

>  <SCORE.SYSTEM.norm>
0

>  <SCORE.heavy>
27

>  <SCORE.norm>
-0.925317

>  <RMSD>
2.826

$$$$
ligand
 OpenBabel11021811473D
libRbt.so/2013.1/901 2013/11/27
 27 28  0  0  0  0  0  0  0  0999 V2000
   -8.3308   39.2929   -0.0530 C   0  0  0  0  0  0  0  0  0  0  0  0
   -7.5343   41.3475   -6.9342 C   0  0  0  0  0  0  0  0  0  0  0  0
   -5.3665   40.0454   -8.5406 C   0  0  0  0  0  0  0  0  0  0  0  0
   -4.4006   40.6294   -7.5078 C   0  0  0  0  0  0  0  0  0  0  0  0
   -3.6080   41.6687   -8.0872 O   0  0  0  0  0  0  0  0  0  0  0  0
   -2.8605   42.7309   -7.1422 P   0  0  1  0  0  0  0  0  0  0  0  0
   -2.4622   44.4549   -9.3389 P   0  0  2  0  0  0  0  0  0  0  0  0
   -7.4151   37.0611   -7.3796 C   0  0  0  0  0  0  0  0  0  0  0  0
   -7.8962   40.1082   -2.3625 N   0  0  0  0  0  0  0  0  0  0  0  0
   -3.5509   42.8049   -5.6982 O   0  5  0  0  0  0  0  0  0  0  0  0
   -3.2632   43.7088  -10.3311 O   0  0  0  0  0  0  0  0  0  0  0  0
   -8.4291   37.6440   -6.6312 C   0  0  0  0  0  0  0  0  0  0  0  0
   -8.6673   39.3778   -1.5421 C   0  0  0  0  0  0  0  0  0  0  0  0
   -1.3038   42.3708   -6.8960 O   0  0  0  0  0  0  0  0  0  0  0  0
   -0.9061   44.0733   -9.4304 O   0  5  0  0  0  0  0  0  0  0  0  0
   -8.4702   39.0318   -6.4898 N   0  0  0  0  0  0  0  0  0  0  0  0
   -9.7342   38.7187   -2.0166 N   0  0  0  0  0  0  0  0  0  0  0  0
   -2.9009   44.2091   -7.8203 O   0  0  0  0  0  0  0  0  0  0  0  0
   -2.5297   46.0242   -9.6156 O   0  0  0  0  0  0  0  0  0  0  0  0
   -7.4861   39.8219   -7.0960 C   0  0  1  0  0  0  0  0  0  0  0  0
  -10.0450   38.7812   -3.3173 C   0  0  0  0  0  0  0  0  0  0  0  0
  -11.1061   38.1251   -3.7756 N   0  0  0  0  0  0  0  0  0  0  0  0
   -6.4689   39.2358   -7.8475 C   0  0  1  0  0  0  0  0  0  0  0  0
   -9.2638   39.5325   -4.1870 C   0  0  0  0  0  0  0  0  0  0  0  0
   -6.4443   37.8529   -7.9807 C   0  0  0  0  0  0  0  0  0  0  0  0
   -8.1659   40.1982   -3.6541 C   0  0  0  0  0  0  0  0  0  0  0  0
   -9.5502   39.6551   -5.6893 C   0  0  0  0  0  0  0  0  0  0  0  0
  1 13  1  0  0  0  0
  3  4  1  0  0  0  0
  4  5  1  0  0  0  0
  6  5  1  6  0  0  0
  6 10  1  0  0  0  0
  6 14  2  0  0  0  0
  6 18  1  0  0  0  0
  7 11  1  6  0  0  0
  7 15  1  0  0  0  0
  7 19  2  0  0  0  0
  7 18  1  0  0  0  0
  8 25  1  0  0  0  0
  8 12  1  0  0  0  0
  9 26  2  0  0  0  0
  9 13  1  0  0  0  0
 12 16  1  0  0  0  0
 13 17  2  0  0  0  0
 16 20  1  0  0  0  0
 16 27  1  0  0  0  0
 17 21  1  0  0  0  0
 20  2  1  6  0  0  0
 20 23  1  0  0  0  0
 21 22  1  0  0  0  0
 21 24  2  0  0  0  0
 23  3  1  6  0  0  0
 23 25  1  0  0  0  0
 24 27  1  0  0  0  0
 24 26  1  0  0  0  0
M  CHG  2  10  -1  15  -1
M  END
>  <CHROM.1>
-163.88855273,161.13531893,-21.64759343,-50.11301286,60.34480127,71.02228108
-114.45616010,78.37516879,-5.73815126,41.10252034,-6.45453149,-2.77007258
-0.74537442,-1.85775711

>  <Name>
ligand

>  <RI>
0

>  <Rbt.Current_Directory>
/home/itssahil/PROJECTS/Mol_Feturizer/New_Systems/rnas/3D2V

>  <Rbt.Executable>
rbdock ($Id: //depot/dev/client3/rdock/2013.1/src/exe/rbdock.cxx#4 $)

>  <Rbt.Library>
libRbt.so (2013.1, Build901 2013/11/27)

>  <Rbt.Parameter_File>
/export/apps/rDock/src/rDock_2013.1_src/data/scripts/dock_solv.prm

>  <Rbt.Receptor>
prm/pocket_docking_8.prm

>  <SCORE>
-12.8754

>  <SCORE.INTER>
-12.899

>  <SCORE.INTER.CONST>
1

>  <SCORE.INTER.POLAR>
0

>  <SCORE.INTER.ROT>
8

>  <SCORE.INTER.SOLV>
25.9283

>  <SCORE.INTER.VDW>
-26.1754

>  <SCORE.INTER.norm>
-0.47774

>  <SCORE.INTRA>
0.0235629

>  <SCORE.INTRA.DIHEDRAL>
1.74341

>  <SCORE.INTRA.DIHEDRAL.0>
7.82666

>  <SCORE.INTRA.POLAR>
0

>  <SCORE.INTRA.POLAR.0>
0

>  <SCORE.INTRA.REPUL>
0

>  <SCORE.INTRA.REPUL.0>
0

>  <SCORE.INTRA.SOLV>
-1.68871

>  <SCORE.INTRA.SOLV.lig_0>
-83.2758

>  <SCORE.INTRA.VDW>
-0.00378441

>  <SCORE.INTRA.VDW.0>
-3.26816

>  <SCORE.INTRA.norm>
0.000872701

>  <SCORE.RESTR>
0

>  <SCORE.RESTR.CAVITY>
0

>  <SCORE.RESTR.norm>
0

>  <SCORE.SYSTEM>
0

>  <SCORE.SYSTEM.CONST>
0

>  <SCORE.SYSTEM.DIHEDRAL>
0

>  <SCORE.SYSTEM.SOLV>
0

>  <SCORE.SYSTEM.norm>
0

>  <SCORE.heavy>
27

>  <SCORE.norm>
-0.476867

>  <RMSD>
2.836

$$$$
ligand
 OpenBabel11021811473D
libRbt.so/2013.1/901 2013/11/27
 27 28  0  0  0  0  0  0  0  0999 V2000
  -12.2037   37.4622   -2.0942 C   0  0  0  0  0  0  0  0  0  0  0  0
   -5.6822   41.7801   -4.4072 C   0  0  0  0  0  0  0  0  0  0  0  0
   -4.0979   40.6249   -6.6724 C   0  0  0  0  0  0  0  0  0  0  0  0
   -4.6686   40.4106   -8.0756 C   0  0  0  0  0  0  0  0  0  0  0  0
   -3.7689   40.9083   -9.0692 O   0  0  0  0  0  0  0  0  0  0  0  0
   -4.2370   41.0014  -10.6028 P   0  0  1  0  0  0  0  0  0  0  0  0
   -5.5944   42.8357  -12.2608 P   0  0  2  0  0  0  0  0  0  0  0  0
   -5.3872   37.5093   -4.9169 C   0  0  0  0  0  0  0  0  0  0  0  0
  -10.0916   38.3722   -1.1464 N   0  0  0  0  0  0  0  0  0  0  0  0
   -2.9789   41.1655  -11.5813 O   0  5  0  0  0  0  0  0  0  0  0  0
   -4.4754   43.5144  -12.9461 O   0  0  0  0  0  0  0  0  0  0  0  0
   -6.1272   38.0235   -3.8605 C   0  0  0  0  0  0  0  0  0  0  0  0
  -10.8320   38.1224   -2.2374 C   0  0  0  0  0  0  0  0  0  0  0  0
   -5.0434   39.6903  -11.0973 O   0  0  0  0  0  0  0  0  0  0  0  0
   -6.8496   43.8170  -12.0677 O   0  5  0  0  0  0  0  0  0  0  0  0
   -6.2261   39.4060   -3.6973 N   0  0  0  0  0  0  0  0  0  0  0  0
  -10.3796   38.4470   -3.4572 N   0  0  0  0  0  0  0  0  0  0  0  0
   -5.2318   42.2721  -10.8083 O   0  0  0  0  0  0  0  0  0  0  0  0
   -6.1411   41.6166  -13.1319 O   0  0  0  0  0  0  0  0  0  0  0  0
   -5.5729   40.2604   -4.5937 C   0  0  1  0  0  0  0  0  0  0  0  0
   -9.1813   39.0259   -3.6027 C   0  0  0  0  0  0  0  0  0  0  0  0
   -8.7443   39.3448   -4.8167 N   0  0  0  0  0  0  0  0  0  0  0  0
   -4.8306   39.7433   -5.6542 C   0  0  1  0  0  0  0  0  0  0  0  0
   -8.3965   39.2971   -2.4885 C   0  0  0  0  0  0  0  0  0  0  0  0
   -4.7448   38.3645   -5.8040 C   0  0  0  0  0  0  0  0  0  0  0  0
   -8.9023   38.9426   -1.2432 C   0  0  0  0  0  0  0  0  0  0  0  0
   -7.0133   39.9561   -2.5688 C   0  0  0  0  0  0  0  0  0  0  0  0
  1 13  1  0  0  0  0
  3  4  1  0  0  0  0
  4  5  1  0  0  0  0
  6  5  1  1  0  0  0
  6 10  1  0  0  0  0
  6 14  2  0  0  0  0
  6 18  1  0  0  0  0
  7 11  1  6  0  0  0
  7 15  1  0  0  0  0
  7 19  2  0  0  0  0
  7 18  1  0  0  0  0
  8 25  1  0  0  0  0
  8 12  1  0  0  0  0
  9 26  2  0  0  0  0
  9 13  1  0  0  0  0
 12 16  1  0  0  0  0
 13 17  2  0  0  0  0
 16 20  1  0  0  0  0
 16 27  1  0  0  0  0
 17 21  1  0  0  0  0
 20  2  1  6  0  0  0
 20 23  1  0  0  0  0
 21 22  1  0  0  0  0
 21 24  2  0  0  0  0
 23  3  1  6  0  0  0
 23 25  1  0  0  0  0
 24 27  1  0  0  0  0
 24 26  1  0  0  0  0
M  CHG  2  10  -1  15  -1
M  END
>  <CHROM.1>
-163.13417186,-170.75668857,-163.36583710,165.47681024,-70.11519783,-117.29577242
-41.73995001,-48.90501518,-6.36584122,40.33740967,-7.15944082,1.97158489
-0.06047938,1.95533432

>  <Name>
ligand

>  <RI>
0

>  <Rbt.Current_Directory>
/home/itssahil/PROJECTS/Mol_Feturizer/New_Systems/rnas/3D2V

>  <Rbt.Executable>
rbdock ($Id: //depot/dev/client3/rdock/2013.1/src/exe/rbdock.cxx#4 $)

>  <Rbt.Library>
libRbt.so (2013.1, Build901 2013/11/27)

>  <Rbt.Parameter_File>
/export/apps/rDock/src/rDock_2013.1_src/data/scripts/dock_solv.prm

>  <Rbt.Receptor>
prm/pocket_docking_6.prm

>  <SCORE>
-24.2651

>  <SCORE.INTER>
-25.3157

>  <SCORE.INTER.CONST>
1

>  <SCORE.INTER.POLAR>
0

>  <SCORE.INTER.ROT>
8

>  <SCORE.INTER.SOLV>
23.6404

>  <SCORE.INTER.VDW>
-33.6906

>  <SCORE.INTER.norm>
-0.937617

>  <SCORE.INTRA>
1.05058

>  <SCORE.INTRA.DIHEDRAL>
-0.332749

>  <SCORE.INTRA.DIHEDRAL.0>
7.82666

>  <SCORE.INTRA.POLAR>
0

>  <SCORE.INTRA.POLAR.0>
0

>  <SCORE.INTRA.REPUL>
0

>  <SCORE.INTRA.REPUL.0>
0

>  <SCORE.INTRA.SOLV>
2.5649

>  <SCORE.INTRA.SOLV.lig_0>
-83.2758

>  <SCORE.INTRA.VDW>
-0.0654934

>  <SCORE.INTRA.VDW.0>
-3.26816

>  <SCORE.INTRA.norm>
0.0389105

>  <SCORE.RESTR>
0

>  <SCORE.RESTR.CAVITY>
0

>  <SCORE.RESTR.norm>
0

>  <SCORE.SYSTEM>
0

>  <SCORE.SYSTEM.CONST>
0

>  <SCORE.SYSTEM.DIHEDRAL>
0

>  <SCORE.SYSTEM.SOLV>
0

>  <SCORE.SYSTEM.norm>
0

>  <SCORE.heavy>
27

>  <SCORE.norm>
-0.898706

>  <RMSD>
2.839

$$$$
ligand
 OpenBabel11021811473D
libRbt.so/2013.1/901 2013/11/27
 27 28  0  0  0  0  0  0  0  0999 V2000
   -8.5724   39.5778   -0.6677 C   0  0  0  0  0  0  0  0  0  0  0  0
   -9.0625   40.1770   -6.9247 C   0  0  0  0  0  0  0  0  0  0  0  0
   -7.2651   41.8662   -8.6252 C   0  0  0  0  0  0  0  0  0  0  0  0
   -6.5415   42.9604   -7.8380 C   0  0  0  0  0  0  0  0  0  0  0  0
   -5.1475   42.9744   -8.1554 O   0  0  0  0  0  0  0  0  0  0  0  0
   -4.6591   43.4522   -9.6091 P   0  0  1  0  0  0  0  0  0  0  0  0
   -1.9482   43.8172   -8.9206 P   0  0  2  0  0  0  0  0  0  0  0  0
   -5.1535   38.7562   -8.0594 C   0  0  0  0  0  0  0  0  0  0  0  0
   -9.5205   38.6453   -2.7699 N   0  0  0  0  0  0  0  0  0  0  0  0
   -4.3128   42.1971  -10.5430 O   0  5  0  0  0  0  0  0  0  0  0  0
   -1.1397   43.1008   -9.9284 O   0  0  0  0  0  0  0  0  0  0  0  0
   -5.9707   37.9568   -7.2713 C   0  0  0  0  0  0  0  0  0  0  0  0
   -8.4325   39.0478   -2.0951 C   0  0  0  0  0  0  0  0  0  0  0  0
   -5.7720   44.3234  -10.3940 O   0  0  0  0  0  0  0  0  0  0  0  0
   -2.3108   42.8719   -7.6754 O   0  5  0  0  0  0  0  0  0  0  0  0
   -7.2376   38.4148   -6.9068 N   0  0  0  0  0  0  0  0  0  0  0  0
   -7.2187   38.9900   -2.6619 N   0  0  0  0  0  0  0  0  0  0  0  0
   -3.3356   44.3886   -9.4752 O   0  0  0  0  0  0  0  0  0  0  0  0
   -1.1332   45.0397   -8.3001 O   0  0  0  0  0  0  0  0  0  0  0  0
   -7.6694   39.6770   -7.3316 C   0  0  1  0  0  0  0  0  0  0  0  0
   -7.0762   38.5287   -3.9106 C   0  0  0  0  0  0  0  0  0  0  0  0
   -5.8677   38.4743   -4.4612 N   0  0  0  0  0  0  0  0  0  0  0  0
   -6.8486   40.4786   -8.1232 C   0  0  2  0  0  0  0  0  0  0  0  0
   -8.1868   38.1037   -4.6295 C   0  0  0  0  0  0  0  0  0  0  0  0
   -5.5913   40.0063   -8.4795 C   0  0  0  0  0  0  0  0  0  0  0  0
   -9.4264   38.1826   -4.0053 C   0  0  0  0  0  0  0  0  0  0  0  0
   -8.1097   37.5638   -6.0636 C   0  0  0  0  0  0  0  0  0  0  0  0
  1 13  1  0  0  0  0
  3  4  1  0  0  0  0
  4  5  1  0  0  0  0
  6  5  1  1  0  0  0
  6 10  1  0  0  0  0
  6 14  2  0  0  0  0
  6 18  1  0  0  0  0
  7 11  1  6  0  0  0
  7 15  1  0  0  0  0
  7 19  2  0  0  0  0
  7 18  1  0  0  0  0
  8 25  1  0  0  0  0
  8 12  1  0  0  0  0
  9 26  2  0  0  0  0
  9 13  1  0  0  0  0
 12 16  1  0  0  0  0
 13 17  2  0  0  0  0
 16 20  1  0  0  0  0
 16 27  1  0  0  0  0
 17 21  1  0  0  0  0
 20  2  1  6  0  0  0
 20 23  1  0  0  0  0
 21 22  1  0  0  0  0
 21 24  2  0  0  0  0
 23  3  1  1  0  0  0
 23 25  1  0  0  0  0
 24 27  1  0  0  0  0
 24 26  1  0  0  0  0
M  CHG  2  10  -1  15  -1
M  END
>  <CHROM.1>
69.46450585,69.30480880,-100.86934371,64.89638522,82.01548456,105.23996604
-45.10612996,106.28583890,-5.70086777,41.13447979,-7.11410781,-2.33701903
-0.60941195,-1.33103886

>  <Name>
ligand

>  <RI>
0

>  <Rbt.Current_Directory>
/home/itssahil/PROJECTS/Mol_Feturizer/New_Systems/rnas/3D2V

>  <Rbt.Executable>
rbdock ($Id: //depot/dev/client3/rdock/2013.1/src/exe/rbdock.cxx#4 $)

>  <Rbt.Library>
libRbt.so (2013.1, Build901 2013/11/27)

>  <Rbt.Parameter_File>
/export/apps/rDock/src/rDock_2013.1_src/data/scripts/dock_solv.prm

>  <Rbt.Receptor>
prm/pocket_docking_3.prm

>  <SCORE>
-11.439

>  <SCORE.INTER>
-12.6819

>  <SCORE.INTER.CONST>
1

>  <SCORE.INTER.POLAR>
0

>  <SCORE.INTER.ROT>
8

>  <SCORE.INTER.SOLV>
11.7435

>  <SCORE.INTER.VDW>
-21.3025

>  <SCORE.INTER.norm>
-0.469702

>  <SCORE.INTRA>
1.24296

>  <SCORE.INTRA.DIHEDRAL>
0.714853

>  <SCORE.INTRA.DIHEDRAL.0>
7.82666

>  <SCORE.INTRA.POLAR>
0

>  <SCORE.INTRA.POLAR.0>
0

>  <SCORE.INTRA.REPUL>
0

>  <SCORE.INTRA.REPUL.0>
0

>  <SCORE.INTRA.SOLV>
3.26142

>  <SCORE.INTRA.SOLV.lig_0>
-83.2758

>  <SCORE.INTRA.VDW>
-0.745176

>  <SCORE.INTRA.VDW.0>
-3.26816

>  <SCORE.INTRA.norm>
0.0460356

>  <SCORE.RESTR>
0

>  <SCORE.RESTR.CAVITY>
0

>  <SCORE.RESTR.norm>
0

>  <SCORE.SYSTEM>
0

>  <SCORE.SYSTEM.CONST>
0

>  <SCORE.SYSTEM.DIHEDRAL>
0

>  <SCORE.SYSTEM.SOLV>
0

>  <SCORE.SYSTEM.norm>
0

>  <SCORE.heavy>
27

>  <SCORE.norm>
-0.423666

>  <RMSD>
2.853

$$$$
ligand
 OpenBabel11021811473D
libRbt.so/2013.1/901 2013/11/27
 27 28  0  0  0  0  0  0  0  0999 V2000
  -12.9657   37.5535   -1.5642 C   0  0  0  0  0  0  0  0  0  0  0  0
   -5.7787   38.1705   -5.3177 C   0  0  0  0  0  0  0  0  0  0  0  0
   -6.0044   38.5802   -8.2769 C   0  0  0  0  0  0  0  0  0  0  0  0
   -4.9956   39.6666   -8.6546 C   0  0  0  0  0  0  0  0  0  0  0  0
   -5.6532   40.7737   -9.2760 O   0  0  0  0  0  0  0  0  0  0  0  0
   -4.7879   41.9509   -9.9434 P   0  0  1  0  0  0  0  0  0  0  0  0
   -7.0138   43.6025   -9.4200 P   0  0  2  0  0  0  0  0  0  0  0  0
   -9.0960   40.3690   -6.9757 C   0  0  0  0  0  0  0  0  0  0  0  0
  -11.2979   37.8653   -3.3832 N   0  0  0  0  0  0  0  0  0  0  0  0
   -3.2716   41.9166   -9.4269 O   0  5  0  0  0  0  0  0  0  0  0  0
   -7.8011   43.1855  -10.5984 O   0  0  0  0  0  0  0  0  0  0  0  0
   -9.0105   40.1914   -5.6012 C   0  0  0  0  0  0  0  0  0  0  0  0
  -11.6060   38.0191   -2.0861 C   0  0  0  0  0  0  0  0  0  0  0  0
   -4.7325   41.8569  -11.5564 O   0  0  0  0  0  0  0  0  0  0  0  0
   -7.2396   45.1545   -9.0792 O   0  5  0  0  0  0  0  0  0  0  0  0
   -7.9348   39.4830   -5.0637 N   0  0  0  0  0  0  0  0  0  0  0  0
  -10.7303   38.5792   -1.2391 N   0  0  0  0  0  0  0  0  0  0  0  0
   -5.4350   43.3979   -9.5774 O   0  0  0  0  0  0  0  0  0  0  0  0
   -7.4779   42.8113   -8.1152 O   0  0  0  0  0  0  0  0  0  0  0  0
   -6.9577   38.9518   -5.9141 C   0  0  1  0  0  0  0  0  0  0  0  0
   -9.5347   38.9927   -1.6773 C   0  0  0  0  0  0  0  0  0  0  0  0
   -8.6743   39.5447   -0.8280 N   0  0  0  0  0  0  0  0  0  0  0  0
   -7.0441   39.1311   -7.2938 C   0  0  2  0  0  0  0  0  0  0  0  0
   -9.1908   38.8426   -3.0153 C   0  0  0  0  0  0  0  0  0  0  0  0
   -8.1200   39.8414   -7.8123 C   0  0  0  0  0  0  0  0  0  0  0  0
  -10.1286   38.2591   -3.8594 C   0  0  0  0  0  0  0  0  0  0  0  0
   -7.8437   39.2905   -3.5973 C   0  0  0  0  0  0  0  0  0  0  0  0
  1 13  1  0  0  0  0
  3  4  1  0  0  0  0
  4  5  1  0  0  0  0
  6  5  1  1  0  0  0
  6 10  1  0  0  0  0
  6 14  2  0  0  0  0
  6 18  1  0  0  0  0
  7 11  1  6  0  0  0
  7 15  1  0  0  0  0
  7 19  2  0  0  0  0
  7 18  1  0  0  0  0
  8 25  1  0  0  0  0
  8 12  1  0  0  0  0
  9 26  2  0  0  0  0
  9 13  1  0  0  0  0
 12 16  1  0  0  0  0
 13 17  2  0  0  0  0
 16 20  1  0  0  0  0
 16 27  1  0  0  0  0
 17 21  1  0  0  0  0
 20  2  1  1  0  0  0
 20 23  1  0  0  0  0
 21 22  1  0  0  0  0
 21 24  2  0  0  0  0
 23  3  1  6  0  0  0
 23 25  1  0  0  0  0
 24 27  1  0  0  0  0
 24 26  1  0  0  0  0
M  CHG  2  10  -1  15  -1
M  END
>  <CHROM.1>
-60.20033537,-171.63079571,-17.06458455,-34.01735744,-55.71405103,-97.57409097
-158.70824532,46.32378344,-7.52707477,40.55186743,-6.70810404,2.18417163
-0.56914413,2.43337384

>  <Name>
ligand

>  <RI>
0

>  <Rbt.Current_Directory>
/home/itssahil/PROJECTS/Mol_Feturizer/New_Systems/rnas/3D2V

>  <Rbt.Executable>
rbdock ($Id: //depot/dev/client3/rdock/2013.1/src/exe/rbdock.cxx#4 $)

>  <Rbt.Library>
libRbt.so (2013.1, Build901 2013/11/27)

>  <Rbt.Parameter_File>
/export/apps/rDock/src/rDock_2013.1_src/data/scripts/dock_solv.prm

>  <Rbt.Receptor>
prm/pocket_docking_4.prm

>  <SCORE>
-24.4665

>  <SCORE.INTER>
-23.9094

>  <SCORE.INTER.CONST>
1

>  <SCORE.INTER.POLAR>
0

>  <SCORE.INTER.ROT>
8

>  <SCORE.INTER.SOLV>
21.8607

>  <SCORE.INTER.VDW>
-32.1598

>  <SCORE.INTER.norm>
-0.885533

>  <SCORE.INTRA>
-0.557088

>  <SCORE.INTRA.DIHEDRAL>
0.650362

>  <SCORE.INTRA.DIHEDRAL.0>
7.82666

>  <SCORE.INTRA.POLAR>
0

>  <SCORE.INTRA.POLAR.0>
0

>  <SCORE.INTRA.REPUL>
0

>  <SCORE.INTRA.REPUL.0>
0

>  <SCORE.INTRA.SOLV>
-1.45642

>  <SCORE.INTRA.SOLV.lig_0>
-83.2758

>  <SCORE.INTRA.VDW>
-0.154057

>  <SCORE.INTRA.VDW.0>
-3.26816

>  <SCORE.INTRA.norm>
-0.0206329

>  <SCORE.RESTR>
0

>  <SCORE.RESTR.CAVITY>
0

>  <SCORE.RESTR.norm>
0

>  <SCORE.SYSTEM>
0

>  <SCORE.SYSTEM.CONST>
0

>  <SCORE.SYSTEM.DIHEDRAL>
0

>  <SCORE.SYSTEM.SOLV>
0

>  <SCORE.SYSTEM.norm>
0

>  <SCORE.heavy>
27

>  <SCORE.norm>
-0.906166

>  <RMSD>
2.854

$$$$
ligand
 OpenBabel11021811473D
libRbt.so/2013.1/901 2013/11/27
 27 28  0  0  0  0  0  0  0  0999 V2000
  -13.1095   37.3859   -2.2225 C   0  0  0  0  0  0  0  0  0  0  0  0
   -5.9810   38.3499   -4.9355 C   0  0  0  0  0  0  0  0  0  0  0  0
   -5.7405   40.1806   -7.2948 C   0  0  0  0  0  0  0  0  0  0  0  0
   -4.2677   40.5039   -7.0358 C   0  0  0  0  0  0  0  0  0  0  0  0
   -3.5725   40.7174   -8.2668 O   0  0  0  0  0  0  0  0  0  0  0  0
   -3.7374   42.1089   -9.0519 P   0  0  1  0  0  0  0  0  0  0  0  0
   -3.9490   41.0465  -11.6563 P   0  0  2  0  0  0  0  0  0  0  0  0
   -8.0527   42.1302   -4.9919 C   0  0  0  0  0  0  0  0  0  0  0  0
  -11.0709   37.9502   -3.5311 N   0  0  0  0  0  0  0  0  0  0  0  0
   -5.2708   42.5719   -9.0900 O   0  5  0  0  0  0  0  0  0  0  0  0
   -3.0473   40.3162  -12.5707 O   0  0  0  0  0  0  0  0  0  0  0  0
   -8.1775   41.2972   -3.8880 C   0  0  0  0  0  0  0  0  0  0  0  0
  -11.6611   37.8640   -2.3290 C   0  0  0  0  0  0  0  0  0  0  0  0
   -2.9029   43.3175   -8.3764 O   0  0  0  0  0  0  0  0  0  0  0  0
   -4.9422   42.0183  -12.4594 O   0  5  0  0  0  0  0  0  0  0  0  0
   -7.5041   40.0750   -3.8677 N   0  0  0  0  0  0  0  0  0  0  0  0
  -10.9912   38.1943   -1.2154 N   0  0  0  0  0  0  0  0  0  0  0  0
   -3.1960   41.9578  -10.5786 O   0  0  0  0  0  0  0  0  0  0  0  0
   -4.8952   40.0375  -10.8624 O   0  0  0  0  0  0  0  0  0  0  0  0
   -6.7166   39.6968   -4.9618 C   0  0  1  0  0  0  0  0  0  0  0  0
   -9.7223   38.6147   -1.2885 C   0  0  0  0  0  0  0  0  0  0  0  0
   -9.0679   38.9375   -0.1777 N   0  0  0  0  0  0  0  0  0  0  0  0
   -6.5915   40.5340   -6.0693 C   0  0  2  0  0  0  0  0  0  0  0  0
   -9.0879   38.7105   -2.5211 C   0  0  0  0  0  0  0  0  0  0  0  0
   -7.2664   41.7487   -6.0721 C   0  0  0  0  0  0  0  0  0  0  0  0
   -9.8192   38.3604   -3.6503 C   0  0  0  0  0  0  0  0  0  0  0  0
   -7.6384   39.1838   -2.6915 C   0  0  0  0  0  0  0  0  0  0  0  0
  1 13  1  0  0  0  0
  3  4  1  0  0  0  0
  4  5  1  0  0  0  0
  6  5  1  1  0  0  0
  6 10  1  0  0  0  0
  6 14  2  0  0  0  0
  6 18  1  0  0  0  0
  7 11  1  6  0  0  0
  7 15  1  0  0  0  0
  7 19  2  0  0  0  0
  7 18  1  0  0  0  0
  8 25  1  0  0  0  0
  8 12  1  0  0  0  0
  9 26  2  0  0  0  0
  9 13  1  0  0  0  0
 12 16  1  0  0  0  0
 13 17  2  0  0  0  0
 16 20  1  0  0  0  0
 16 27  1  0  0  0  0
 17 21  1  0  0  0  0
 20  2  1  1  0  0  0
 20 23  1  0  0  0  0
 21 22  1  0  0  0  0
 21 24  2  0  0  0  0
 23  3  1  6  0  0  0
 23 25  1  0  0  0  0
 24 27  1  0  0  0  0
 24 26  1  0  0  0  0
M  CHG  2  10  -1  15  -1
M  END
>  <CHROM.1>
-155.89398118,77.48243146,-43.90569621,68.06678106,-142.32819362,-81.75091995
-139.13561408,63.51187898,-6.54518316,40.30810864,-6.57169788,2.34442375
0.58927198,1.41276785

>  <Name>
ligand

>  <RI>
0

>  <Rbt.Current_Directory>
/home/itssahil/PROJECTS/Mol_Feturizer/New_Systems/rnas/3D2V

>  <Rbt.Executable>
rbdock ($Id: //depot/dev/client3/rdock/2013.1/src/exe/rbdock.cxx#4 $)

>  <Rbt.Library>
libRbt.so (2013.1, Build901 2013/11/27)

>  <Rbt.Parameter_File>
/export/apps/rDock/src/rDock_2013.1_src/data/scripts/dock_solv.prm

>  <Rbt.Receptor>
prm/pocket_docking_4.prm

>  <SCORE>
-19.9611

>  <SCORE.INTER>
-22.1854

>  <SCORE.INTER.CONST>
1

>  <SCORE.INTER.POLAR>
0

>  <SCORE.INTER.ROT>
8

>  <SCORE.INTER.SOLV>
23.8932

>  <SCORE.INTER.VDW>
-31.688

>  <SCORE.INTER.norm>
-0.821681

>  <SCORE.INTRA>
2.22425

>  <SCORE.INTRA.DIHEDRAL>
2.8441

>  <SCORE.INTRA.DIHEDRAL.0>
7.82666

>  <SCORE.INTRA.POLAR>
0

>  <SCORE.INTRA.POLAR.0>
0

>  <SCORE.INTRA.REPUL>
0

>  <SCORE.INTRA.REPUL.0>
0

>  <SCORE.INTRA.SOLV>
1.88186

>  <SCORE.INTRA.SOLV.lig_0>
-83.2758

>  <SCORE.INTRA.VDW>
-0.138729

>  <SCORE.INTRA.VDW.0>
-3.26816

>  <SCORE.INTRA.norm>
0.0823797

>  <SCORE.RESTR>
0

>  <SCORE.RESTR.CAVITY>
0

>  <SCORE.RESTR.norm>
0

>  <SCORE.SYSTEM>
0

>  <SCORE.SYSTEM.CONST>
0

>  <SCORE.SYSTEM.DIHEDRAL>
0

>  <SCORE.SYSTEM.SOLV>
0

>  <SCORE.SYSTEM.norm>
0

>  <SCORE.heavy>
27

>  <SCORE.norm>
-0.739301

>  <RMSD>
2.861

$$$$
ligand
 OpenBabel11021811473D
libRbt.so/2013.1/901 2013/11/27
 27 28  0  0  0  0  0  0  0  0999 V2000
  -13.5887   37.3960   -1.7666 C   0  0  0  0  0  0  0  0  0  0  0  0
   -6.9011   41.6067   -3.5472 C   0  0  0  0  0  0  0  0  0  0  0  0
   -6.9661   42.9151   -6.2415 C   0  0  0  0  0  0  0  0  0  0  0  0
   -5.7159   42.7251   -7.1026 C   0  0  0  0  0  0  0  0  0  0  0  0
   -6.0341   42.0280   -8.3097 O   0  0  0  0  0  0  0  0  0  0  0  0
   -4.9054   41.8054   -9.4306 P   0  0  1  0  0  0  0  0  0  0  0  0
   -4.8208   40.6295  -11.9931 P   0  0  2  0  0  0  0  0  0  0  0  0
   -8.9379   39.7218   -6.8464 C   0  0  0  0  0  0  0  0  0  0  0  0
  -11.7147   37.6562   -3.3815 N   0  0  0  0  0  0  0  0  0  0  0  0
   -4.5961   43.1669  -10.2166 O   0  5  0  0  0  0  0  0  0  0  0  0
   -5.2921   39.4749  -12.7852 O   0  0  0  0  0  0  0  0  0  0  0  0
   -8.9205   39.0982   -5.6059 C   0  0  0  0  0  0  0  0  0  0  0  0
  -12.1716   37.8384   -2.1329 C   0  0  0  0  0  0  0  0  0  0  0  0
   -3.5001   41.2921   -8.8179 O   0  0  0  0  0  0  0  0  0  0  0  0
   -3.2208   40.6452  -11.8685 O   0  5  0  0  0  0  0  0  0  0  0  0
   -8.2645   39.7099   -4.5366 N   0  0  0  0  0  0  0  0  0  0  0  0
  -11.3952   38.4067   -1.1990 N   0  0  0  0  0  0  0  0  0  0  0  0
   -5.3925   40.6803  -10.4999 O   0  0  0  0  0  0  0  0  0  0  0  0
   -5.2028   42.0041  -12.7060 O   0  0  0  0  0  0  0  0  0  0  0  0
   -7.6241   40.9404   -4.7259 C   0  0  1  0  0  0  0  0  0  0  0  0
  -10.1517   38.8003   -1.5006 C   0  0  0  0  0  0  0  0  0  0  0  0
   -9.3908   39.3608   -0.5661 N   0  0  0  0  0  0  0  0  0  0  0  0
   -7.6425   41.5658   -5.9715 C   0  0  2  0  0  0  0  0  0  0  0  0
   -9.6543   38.6207   -2.7857 C   0  0  0  0  0  0  0  0  0  0  0  0
   -8.3026   40.9447   -7.0247 C   0  0  0  0  0  0  0  0  0  0  0  0
  -10.4929   38.0295   -3.7236 C   0  0  0  0  0  0  0  0  0  0  0  0
   -8.2430   39.0443   -3.2128 C   0  0  0  0  0  0  0  0  0  0  0  0
  1 13  1  0  0  0  0
  3  4  1  0  0  0  0
  4  5  1  0  0  0  0
  6  5  1  1  0  0  0
  6 10  1  0  0  0  0
  6 14  2  0  0  0  0
  6 18  1  0  0  0  0
  7 11  1  6  0  0  0
  7 15  1  0  0  0  0
  7 19  2  0  0  0  0
  7 18  1  0  0  0  0
  8 25  1  0  0  0  0
  8 12  1  0  0  0  0
  9 26  2  0  0  0  0
  9 13  1  0  0  0  0
 12 16  1  0  0  0  0
 13 17  2  0  0  0  0
 16 20  1  0  0  0  0
 16 27  1  0  0  0  0
 17 21  1  0  0  0  0
 20  2  1  1  0  0  0
 20 23  1  0  0  0  0
 21 22  1  0  0  0  0
 21 24  2  0  0  0  0
 23  3  1  6  0  0  0
 23 25  1  0  0  0  0
 24 27  1  0  0  0  0
 24 26  1  0  0  0  0
M  CHG  2  10  -1  15  -1
M  END
>  <CHROM.1>
54.99501430,175.38340010,-73.95031539,155.44982043,175.17490946,108.20490569
-136.49910838,-50.33423138,-7.34560003,40.37369214,-6.82271742,2.41883161
0.74421071,1.22097153

>  <Name>
ligand

>  <RI>
0

>  <Rbt.Current_Directory>
/home/itssahil/PROJECTS/Mol_Feturizer/New_Systems/rnas/3D2V

>  <Rbt.Executable>
rbdock ($Id: //depot/dev/client3/rdock/2013.1/src/exe/rbdock.cxx#4 $)

>  <Rbt.Library>
libRbt.so (2013.1, Build901 2013/11/27)

>  <Rbt.Parameter_File>
/export/apps/rDock/src/rDock_2013.1_src/data/scripts/dock_solv.prm

>  <Rbt.Receptor>
prm/pocket_docking_6.prm

>  <SCORE>
-18.7814

>  <SCORE.INTER>
-20.181

>  <SCORE.INTER.CONST>
1

>  <SCORE.INTER.POLAR>
0

>  <SCORE.INTER.ROT>
8

>  <SCORE.INTER.SOLV>
25.8302

>  <SCORE.INTER.VDW>
-30.9974

>  <SCORE.INTER.norm>
-0.747446

>  <SCORE.INTRA>
1.39966

>  <SCORE.INTRA.DIHEDRAL>
-1.2546

>  <SCORE.INTRA.DIHEDRAL.0>
7.82666

>  <SCORE.INTRA.POLAR>
0

>  <SCORE.INTRA.POLAR.0>
0

>  <SCORE.INTRA.REPUL>
0

>  <SCORE.INTRA.REPUL.0>
0

>  <SCORE.INTRA.SOLV>
1.76544

>  <SCORE.INTRA.SOLV.lig_0>
-83.2758

>  <SCORE.INTRA.VDW>
1.14424

>  <SCORE.INTRA.VDW.0>
-3.26816

>  <SCORE.INTRA.norm>
0.0518394

>  <SCORE.RESTR>
0

>  <SCORE.RESTR.CAVITY>
0

>  <SCORE.RESTR.norm>
0

>  <SCORE.SYSTEM>
0

>  <SCORE.SYSTEM.CONST>
0

>  <SCORE.SYSTEM.DIHEDRAL>
0

>  <SCORE.SYSTEM.SOLV>
0

>  <SCORE.SYSTEM.norm>
0

>  <SCORE.heavy>
27

>  <SCORE.norm>
-0.695607

>  <RMSD>
2.862

$$$$
ligand
 OpenBabel11021811473D
libRbt.so/2013.1/901 2013/11/27
 27 28  0  0  0  0  0  0  0  0999 V2000
  -13.1015   37.4963   -1.8467 C   0  0  0  0  0  0  0  0  0  0  0  0
   -6.1323   38.2329   -4.7718 C   0  0  0  0  0  0  0  0  0  0  0  0
   -5.8214   39.8729   -7.2596 C   0  0  0  0  0  0  0  0  0  0  0  0
   -4.3248   39.8388   -6.9437 C   0  0  0  0  0  0  0  0  0  0  0  0
   -3.6122   40.7633   -7.7692 O   0  0  0  0  0  0  0  0  0  0  0  0
   -3.6915   42.3386   -7.4654 P   0  0  1  0  0  0  0  0  0  0  0  0
   -5.8278   42.8619   -9.2314 P   0  0  2  0  0  0  0  0  0  0  0  0
   -7.9337   42.1393   -5.0568 C   0  0  0  0  0  0  0  0  0  0  0  0
  -10.9581   38.4418   -1.0104 N   0  0  0  0  0  0  0  0  0  0  0  0
   -3.3187   42.6513   -5.9388 O   0  5  0  0  0  0  0  0  0  0  0  0
   -5.6875   41.5669   -9.9285 O   0  0  0  0  0  0  0  0  0  0  0  0
   -8.0898   41.3962   -3.8942 C   0  0  0  0  0  0  0  0  0  0  0  0
  -11.6655   37.9794   -2.0529 C   0  0  0  0  0  0  0  0  0  0  0  0
   -2.6813   43.2093   -8.3791 O   0  0  0  0  0  0  0  0  0  0  0  0
   -5.1315   44.0519  -10.0527 O   0  5  0  0  0  0  0  0  0  0  0  0
   -7.5037   40.1332   -3.8001 N   0  0  0  0  0  0  0  0  0  0  0  0
  -11.1241   37.9364   -3.2788 N   0  0  0  0  0  0  0  0  0  0  0  0
   -5.1922   42.8913   -7.7637 O   0  0  0  0  0  0  0  0  0  0  0  0
   -7.3624   43.2775   -9.1041 O   0  0  0  0  0  0  0  0  0  0  0  0
   -6.7717   39.6241   -4.8796 C   0  0  1  0  0  0  0  0  0  0  0  0
   -9.8684   38.3553   -3.4792 C   0  0  0  0  0  0  0  0  0  0  0  0
   -9.3431   38.3095   -4.6992 N   0  0  0  0  0  0  0  0  0  0  0  0
   -6.6152   40.3711   -6.0461 C   0  0  2  0  0  0  0  0  0  0  0  0
   -9.1158   38.8406   -2.4166 C   0  0  0  0  0  0  0  0  0  0  0  0
   -7.2028   41.6279   -6.1222 C   0  0  0  0  0  0  0  0  0  0  0  0
   -9.7146   38.8659   -1.1623 C   0  0  0  0  0  0  0  0  0  0  0  0
   -7.6716   39.3380   -2.5610 C   0  0  0  0  0  0  0  0  0  0  0  0
  1 13  1  0  0  0  0
  3  4  1  0  0  0  0
  4  5  1  0  0  0  0
  6  5  1  6  0  0  0
  6 10  1  0  0  0  0
  6 14  2  0  0  0  0
  6 18  1  0  0  0  0
  7 11  1  6  0  0  0
  7 15  1  0  0  0  0
  7 19  2  0  0  0  0
  7 18  1  0  0  0  0
  8 25  1  0  0  0  0
  8 12  1  0  0  0  0
  9 26  2  0  0  0  0
  9 13  1  0  0  0  0
 12 16  1  0  0  0  0
 13 17  2  0  0  0  0
 16 20  1  0  0  0  0
 16 27  1  0  0  0  0
 17 21  1  0  0  0  0
 20  2  1  1  0  0  0
 20 23  1  0  0  0  0
 21 22  1  0  0  0  0
 21 24  2  0  0  0  0
 23  3  1  6  0  0  0
 23 25  1  0  0  0  0
 24 27  1  0  0  0  0
 24 26  1  0  0  0  0
M  CHG  2  10  -1  15  -1
M  END
>  <CHROM.1>
-115.78032567,75.10136016,52.81914062,-63.64397819,48.14700249,-70.15771607
40.89900605,70.31383903,-6.90252367,40.72147201,-5.83979929,2.24283628,0.04602417
2.13715858

>  <Name>
ligand

>  <RI>
0

>  <Rbt.Current_Directory>
/home/itssahil/PROJECTS/Mol_Feturizer/New_Systems/rnas/3D2V

>  <Rbt.Executable>
rbdock ($Id: //depot/dev/client3/rdock/2013.1/src/exe/rbdock.cxx#4 $)

>  <Rbt.Library>
libRbt.so (2013.1, Build901 2013/11/27)

>  <Rbt.Parameter_File>
/export/apps/rDock/src/rDock_2013.1_src/data/scripts/dock_solv.prm

>  <Rbt.Receptor>
prm/pocket_docking_3.prm

>  <SCORE>
-18.4854

>  <SCORE.INTER>
-20.8213

>  <SCORE.INTER.CONST>
1

>  <SCORE.INTER.POLAR>
0

>  <SCORE.INTER.ROT>
8

>  <SCORE.INTER.SOLV>
13.9057

>  <SCORE.INTER.VDW>
-27.4494

>  <SCORE.INTER.norm>
-0.771159

>  <SCORE.INTRA>
2.3359

>  <SCORE.INTRA.DIHEDRAL>
4.1854

>  <SCORE.INTRA.DIHEDRAL.0>
7.82666

>  <SCORE.INTRA.POLAR>
0

>  <SCORE.INTRA.POLAR.0>
0

>  <SCORE.INTRA.REPUL>
0

>  <SCORE.INTRA.REPUL.0>
0

>  <SCORE.INTRA.SOLV>
4.03109

>  <SCORE.INTRA.SOLV.lig_0>
-83.2758

>  <SCORE.INTRA.VDW>
-1.77234

>  <SCORE.INTRA.VDW.0>
-3.26816

>  <SCORE.INTRA.norm>
0.086515

>  <SCORE.RESTR>
0

>  <SCORE.RESTR.CAVITY>
0

>  <SCORE.RESTR.norm>
0

>  <SCORE.SYSTEM>
0

>  <SCORE.SYSTEM.CONST>
0

>  <SCORE.SYSTEM.DIHEDRAL>
0

>  <SCORE.SYSTEM.SOLV>
0

>  <SCORE.SYSTEM.norm>
0

>  <SCORE.heavy>
27

>  <SCORE.norm>
-0.684644

>  <RMSD>
2.865

$$$$
ligand
 OpenBabel11021811473D
libRbt.so/2013.1/901 2013/11/27
 27 28  0  0  0  0  0  0  0  0999 V2000
  -12.2363   37.3556   -2.0414 C   0  0  0  0  0  0  0  0  0  0  0  0
   -6.6061   41.1798   -5.6873 C   0  0  0  0  0  0  0  0  0  0  0  0
   -4.9982   39.5675   -7.6343 C   0  0  0  0  0  0  0  0  0  0  0  0
   -3.9779   40.7021   -7.5243 C   0  0  0  0  0  0  0  0  0  0  0  0
   -3.5644   41.1383   -8.8216 O   0  0  0  0  0  0  0  0  0  0  0  0
   -4.6346   41.7813   -9.8321 P   0  0  1  0  0  0  0  0  0  0  0  0
   -4.4164   40.4861  -12.3284 P   0  0  2  0  0  0  0  0  0  0  0  0
   -5.2304   37.2288   -4.6463 C   0  0  0  0  0  0  0  0  0  0  0  0
  -10.4887   38.2639   -3.5605 N   0  0  0  0  0  0  0  0  0  0  0  0
   -5.9112   42.3404   -9.0418 O   0  5  0  0  0  0  0  0  0  0  0  0
   -2.9419   40.4218  -12.2644 O   0  0  0  0  0  0  0  0  0  0  0  0
   -5.9748   37.9587   -3.7291 C   0  0  0  0  0  0  0  0  0  0  0  0
  -10.9054   38.0621   -2.3010 C   0  0  0  0  0  0  0  0  0  0  0  0
   -4.0352   43.0186  -10.6828 O   0  0  0  0  0  0  0  0  0  0  0  0
   -4.9141   41.7062  -13.2446 O   0  5  0  0  0  0  0  0  0  0  0  0
   -6.4236   39.2362   -4.0671 N   0  0  0  0  0  0  0  0  0  0  0  0
  -10.1637   38.4752   -1.2631 N   0  0  0  0  0  0  0  0  0  0  0  0
   -5.1295   40.6656  -10.9077 O   0  0  0  0  0  0  0  0  0  0  0  0
   -5.0153   39.1742  -13.0096 O   0  0  0  0  0  0  0  0  0  0  0  0
   -6.1129   39.7728   -5.3224 C   0  0  1  0  0  0  0  0  0  0  0  0
   -8.9955   39.0953   -1.4704 C   0  0  0  0  0  0  0  0  0  0  0  0
   -8.2681   39.4986   -0.4337 N   0  0  0  0  0  0  0  0  0  0  0  0
   -5.3660   39.0391   -6.2427 C   0  0  2  0  0  0  0  0  0  0  0  0
   -8.5407   39.3142   -2.7651 C   0  0  0  0  0  0  0  0  0  0  0  0
   -4.9294   37.7676   -5.8913 C   0  0  0  0  0  0  0  0  0  0  0  0
   -9.3414   38.8719   -3.8119 C   0  0  0  0  0  0  0  0  0  0  0  0
   -7.2159   40.0172   -3.0883 C   0  0  0  0  0  0  0  0  0  0  0  0
  1 13  1  0  0  0  0
  3  4  1  0  0  0  0
  4  5  1  0  0  0  0
  6  5  1  1  0  0  0
  6 10  1  0  0  0  0
  6 14  2  0  0  0  0
  6 18  1  0  0  0  0
  7 11  1  1  0  0  0
  7 15  1  0  0  0  0
  7 19  2  0  0  0  0
  7 18  1  0  0  0  0
  8 25  1  0  0  0  0
  8 12  1  0  0  0  0
  9 26  2  0  0  0  0
  9 13  1  0  0  0  0
 12 16  1  0  0  0  0
 13 17  2  0  0  0  0
 16 20  1  0  0  0  0
 16 27  1  0  0  0  0
 17 21  1  0  0  0  0
 20  2  1  6  0  0  0
 20 23  1  0  0  0  0
 21 22  1  0  0  0  0
 21 24  2  0  0  0  0
 23  3  1  1  0  0  0
 23 25  1  0  0  0  0
 24 27  1  0  0  0  0
 24 26  1  0  0  0  0
M  CHG  2  10  -1  15  -1
M  END
>  <CHROM.1>
176.13651203,62.83615245,21.44381752,-92.51596084,47.79480308,69.72738018
130.85088317,-62.82280390,-6.27823116,39.92556249,-6.99924788,2.06799897
0.27029563,1.69047160

>  <Name>
ligand

>  <RI>
0

>  <Rbt.Current_Directory>
/home/itssahil/PROJECTS/Mol_Feturizer/New_Systems/rnas/3D2V

>  <Rbt.Executable>
rbdock ($Id: //depot/dev/client3/rdock/2013.1/src/exe/rbdock.cxx#4 $)

>  <Rbt.Library>
libRbt.so (2013.1, Build901 2013/11/27)

>  <Rbt.Parameter_File>
/export/apps/rDock/src/rDock_2013.1_src/data/scripts/dock_solv.prm

>  <Rbt.Receptor>
prm/pocket_docking_5.prm

>  <SCORE>
-24.0187

>  <SCORE.INTER>
-24.8044

>  <SCORE.INTER.CONST>
1

>  <SCORE.INTER.POLAR>
0

>  <SCORE.INTER.ROT>
8

>  <SCORE.INTER.SOLV>
20.728

>  <SCORE.INTER.VDW>
-32.3789

>  <SCORE.INTER.norm>
-0.918681

>  <SCORE.INTRA>
0.785676

>  <SCORE.INTRA.DIHEDRAL>
0.741957

>  <SCORE.INTRA.DIHEDRAL.0>
7.82666

>  <SCORE.INTRA.POLAR>
0

>  <SCORE.INTRA.POLAR.0>
0

>  <SCORE.INTRA.REPUL>
0

>  <SCORE.INTRA.REPUL.0>
0

>  <SCORE.INTRA.SOLV>
-0.217184

>  <SCORE.INTRA.SOLV.lig_0>
-83.2758

>  <SCORE.INTRA.VDW>
0.52329

>  <SCORE.INTRA.VDW.0>
-3.26816

>  <SCORE.INTRA.norm>
0.0290991

>  <SCORE.RESTR>
0

>  <SCORE.RESTR.CAVITY>
0

>  <SCORE.RESTR.norm>
0

>  <SCORE.SYSTEM>
0

>  <SCORE.SYSTEM.CONST>
0

>  <SCORE.SYSTEM.DIHEDRAL>
0

>  <SCORE.SYSTEM.SOLV>
0

>  <SCORE.SYSTEM.norm>
0

>  <SCORE.heavy>
27

>  <SCORE.norm>
-0.889582

>  <RMSD>
2.866

$$$$
ligand
 OpenBabel11021811473D
libRbt.so/2013.1/901 2013/11/27
 27 28  0  0  0  0  0  0  0  0999 V2000
  -10.5231   38.1213   -1.7548 C   0  0  0  0  0  0  0  0  0  0  0  0
   -7.1738   41.7938   -8.2977 C   0  0  0  0  0  0  0  0  0  0  0  0
   -5.0227   40.2078   -9.6516 C   0  0  0  0  0  0  0  0  0  0  0  0
   -4.0398   41.3460   -9.9323 C   0  0  0  0  0  0  0  0  0  0  0  0
   -4.6081   42.6066   -9.5686 O   0  0  0  0  0  0  0  0  0  0  0  0
   -3.8234   43.9679   -9.9016 P   0  0  1  0  0  0  0  0  0  0  0  0
   -2.5442   43.7654   -7.3959 P   0  0  2  0  0  0  0  0  0  0  0  0
   -4.7115   39.0706   -6.0376 C   0  0  0  0  0  0  0  0  0  0  0  0
  -10.1241   39.1363   -3.9905 N   0  0  0  0  0  0  0  0  0  0  0  0
   -3.3699   44.0117  -11.4377 O   0  5  0  0  0  0  0  0  0  0  0  0
   -2.6380   42.3246   -7.0830 O   0  0  0  0  0  0  0  0  0  0  0  0
   -5.7033   39.7955   -5.3902 C   0  0  0  0  0  0  0  0  0  0  0  0
   -9.7279   39.0067   -2.7149 C   0  0  0  0  0  0  0  0  0  0  0  0
   -4.7159   45.2906   -9.6418 O   0  0  0  0  0  0  0  0  0  0  0  0
   -3.7855   44.5823   -6.7897 O   0  5  0  0  0  0  0  0  0  0  0  0
   -6.5031   40.6743   -6.1221 N   0  0  0  0  0  0  0  0  0  0  0  0
   -8.6372   39.6483   -2.2713 N   0  0  0  0  0  0  0  0  0  0  0  0
   -2.5031   44.0977   -8.9601 O   0  0  0  0  0  0  0  0  0  0  0  0
   -1.2471   44.4105   -6.7284 O   0  0  0  0  0  0  0  0  0  0  0  0
   -6.2935   40.8231   -7.4984 C   0  0  1  0  0  0  0  0  0  0  0  0
   -7.9279   40.4277   -3.0970 C   0  0  0  0  0  0  0  0  0  0  0  0
   -6.8475   41.0571   -2.6463 N   0  0  0  0  0  0  0  0  0  0  0  0
   -5.2979   40.0945   -8.1474 C   0  0  2  0  0  0  0  0  0  0  0  0
   -8.3160   40.5765   -4.4229 C   0  0  0  0  0  0  0  0  0  0  0  0
   -4.5125   39.2217   -7.4045 C   0  0  0  0  0  0  0  0  0  0  0  0
   -9.4536   39.8955   -4.8408 C   0  0  0  0  0  0  0  0  0  0  0  0
   -7.5601   41.4505   -5.4321 C   0  0  0  0  0  0  0  0  0  0  0  0
  1 13  1  0  0  0  0
  3  4  1  0  0  0  0
  4  5  1  0  0  0  0
  6  5  1  1  0  0  0
  6 10  1  0  0  0  0
  6 14  2  0  0  0  0
  6 18  1  0  0  0  0
  7 11  1  1  0  0  0
  7 15  1  0  0  0  0
  7 19  2  0  0  0  0
  7 18  1  0  0  0  0
  8 25  1  0  0  0  0
  8 12  1  0  0  0  0
  9 26  2  0  0  0  0
  9 13  1  0  0  0  0
 12 16  1  0  0  0  0
 13 17  2  0  0  0  0
 16 20  1  0  0  0  0
 16 27  1  0  0  0  0
 17 21  1  0  0  0  0
 20  2  1  6  0  0  0
 20 23  1  0  0  0  0
 21 22  1  0  0  0  0
 21 24  2  0  0  0  0
 23  3  1  1  0  0  0
 23 25  1  0  0  0  0
 24 27  1  0  0  0  0
 24 26  1  0  0  0  0
M  CHG  2  10  -1  15  -1
M  END
>  <CHROM.1>
-64.31010066,-174.04826616,50.61657354,-44.01393352,73.16110160,87.37707776
89.33512701,-42.39436229,-5.49977593,41.73497738,-6.84227822,-2.51302831
-0.69613610,-1.65577770

>  <Name>
ligand

>  <RI>
0

>  <Rbt.Current_Directory>
/home/itssahil/PROJECTS/Mol_Feturizer/New_Systems/rnas/3D2V

>  <Rbt.Executable>
rbdock ($Id: //depot/dev/client3/rdock/2013.1/src/exe/rbdock.cxx#4 $)

>  <Rbt.Library>
libRbt.so (2013.1, Build901 2013/11/27)

>  <Rbt.Parameter_File>
/export/apps/rDock/src/rDock_2013.1_src/data/scripts/dock_solv.prm

>  <Rbt.Receptor>
prm/pocket_docking_3.prm

>  <SCORE>
-16.3373

>  <SCORE.INTER>
-14.1477

>  <SCORE.INTER.CONST>
1

>  <SCORE.INTER.POLAR>
0

>  <SCORE.INTER.ROT>
8

>  <SCORE.INTER.SOLV>
8.6452

>  <SCORE.INTER.VDW>
-21.2468

>  <SCORE.INTER.norm>
-0.523987

>  <SCORE.INTRA>
-2.18963

>  <SCORE.INTRA.DIHEDRAL>
-1.57109

>  <SCORE.INTRA.DIHEDRAL.0>
7.82666

>  <SCORE.INTRA.POLAR>
0

>  <SCORE.INTRA.POLAR.0>
0

>  <SCORE.INTRA.REPUL>
0

>  <SCORE.INTRA.REPUL.0>
0

>  <SCORE.INTRA.SOLV>
-0.431528

>  <SCORE.INTRA.SOLV.lig_0>
-83.2758

>  <SCORE.INTRA.VDW>
-1.18832

>  <SCORE.INTRA.VDW.0>
-3.26816

>  <SCORE.INTRA.norm>
-0.0810973

>  <SCORE.RESTR>
0

>  <SCORE.RESTR.CAVITY>
0

>  <SCORE.RESTR.norm>
0

>  <SCORE.SYSTEM>
0

>  <SCORE.SYSTEM.CONST>
0

>  <SCORE.SYSTEM.DIHEDRAL>
0

>  <SCORE.SYSTEM.SOLV>
0

>  <SCORE.SYSTEM.norm>
0

>  <SCORE.heavy>
27

>  <SCORE.norm>
-0.605085

>  <RMSD>
2.867

$$$$
ligand
 OpenBabel11021811473D
libRbt.so/2013.1/901 2013/11/27
 27 28  0  0  0  0  0  0  0  0999 V2000
   -9.2312   38.8921   -0.4555 C   0  0  0  0  0  0  0  0  0  0  0  0
   -7.4534   41.4646   -7.9617 C   0  0  0  0  0  0  0  0  0  0  0  0
   -5.2627   39.9568   -9.3411 C   0  0  0  0  0  0  0  0  0  0  0  0
   -4.2430   40.8171   -8.5923 C   0  0  0  0  0  0  0  0  0  0  0  0
   -3.3059   41.3983   -9.5024 O   0  0  0  0  0  0  0  0  0  0  0  0
   -3.7510   42.6237  -10.4406 P   0  0  1  0  0  0  0  0  0  0  0  0
   -2.2327   44.3907   -8.8504 P   0  0  2  0  0  0  0  0  0  0  0  0
   -6.8950   37.2537   -7.2245 C   0  0  0  0  0  0  0  0  0  0  0  0
  -10.1609   38.7069   -2.7551 N   0  0  0  0  0  0  0  0  0  0  0  0
   -2.8736   42.6730  -11.7804 O   0  5  0  0  0  0  0  0  0  0  0  0
   -0.9894   44.0611   -9.5771 O   0  0  0  0  0  0  0  0  0  0  0  0
   -7.9170   37.9332   -6.5749 C   0  0  0  0  0  0  0  0  0  0  0  0
   -9.2056   39.2012   -1.9527 C   0  0  0  0  0  0  0  0  0  0  0  0
   -5.2984   42.5368  -10.9005 O   0  0  0  0  0  0  0  0  0  0  0  0
   -2.3158   43.6203   -7.4449 O   0  5  0  0  0  0  0  0  0  0  0  0
   -8.1005   39.2955   -6.8161 N   0  0  0  0  0  0  0  0  0  0  0  0
   -8.2245   39.9668   -2.4521 N   0  0  0  0  0  0  0  0  0  0  0  0
   -3.5741   44.0313   -9.6445 O   0  0  0  0  0  0  0  0  0  0  0  0
   -2.2856   45.9425   -8.4857 O   0  0  0  0  0  0  0  0  0  0  0  0
   -7.2491   39.9654   -7.7030 C   0  0  1  0  0  0  0  0  0  0  0  0
   -8.1851   40.2481   -3.7604 C   0  0  0  0  0  0  0  0  0  0  0  0
   -7.2067   41.0064   -4.2442 N   0  0  0  0  0  0  0  0  0  0  0  0
   -6.2237   39.2824   -8.3549 C   0  0  1  0  0  0  0  0  0  0  0  0
   -9.1613   39.7465   -4.6127 C   0  0  0  0  0  0  0  0  0  0  0  0
   -6.0566   37.9256   -8.1057 C   0  0  0  0  0  0  0  0  0  0  0  0
  -10.1612   38.9591   -4.0534 C   0  0  0  0  0  0  0  0  0  0  0  0
   -9.1891   40.0224   -6.1217 C   0  0  0  0  0  0  0  0  0  0  0  0
  1 13  1  0  0  0  0
  3  4  1  0  0  0  0
  4  5  1  0  0  0  0
  6  5  1  1  0  0  0
  6 10  1  0  0  0  0
  6 14  2  0  0  0  0
  6 18  1  0  0  0  0
  7 11  1  6  0  0  0
  7 15  1  0  0  0  0
  7 19  2  0  0  0  0
  7 18  1  0  0  0  0
  8 25  1  0  0  0  0
  8 12  1  0  0  0  0
  9 26  2  0  0  0  0
  9 13  1  0  0  0  0
 12 16  1  0  0  0  0
 13 17  2  0  0  0  0
 16 20  1  0  0  0  0
 16 27  1  0  0  0  0
 17 21  1  0  0  0  0
 20  2  1  6  0  0  0
 20 23  1  0  0  0  0
 21 22  1  0  0  0  0
 21 24  2  0  0  0  0
 23  3  1  6  0  0  0
 23 25  1  0  0  0  0
 24 27  1  0  0  0  0
 24 26  1  0  0  0  0
M  CHG  2  10  -1  15  -1
M  END
>  <CHROM.1>
177.28788833,74.33494438,-153.59690090,48.05400199,43.67360207,74.81064412
71.30736213,49.60909507,-5.73847826,41.20356317,-7.30184206,-2.76749021,-0.82076287
-2.02462995

>  <Name>
ligand

>  <RI>
0

>  <Rbt.Current_Directory>
/home/itssahil/PROJECTS/Mol_Feturizer/New_Systems/rnas/3D2V

>  <Rbt.Executable>
rbdock ($Id: //depot/dev/client3/rdock/2013.1/src/exe/rbdock.cxx#4 $)

>  <Rbt.Library>
libRbt.so (2013.1, Build901 2013/11/27)

>  <Rbt.Parameter_File>
/export/apps/rDock/src/rDock_2013.1_src/data/scripts/dock_solv.prm

>  <Rbt.Receptor>
prm/pocket_docking_3.prm

>  <SCORE>
-15.9471

>  <SCORE.INTER>
-16.3482

>  <SCORE.INTER.CONST>
1

>  <SCORE.INTER.POLAR>
0

>  <SCORE.INTER.ROT>
8

>  <SCORE.INTER.SOLV>
11.9362

>  <SCORE.INTER.VDW>
-23.8109

>  <SCORE.INTER.norm>
-0.605489

>  <SCORE.INTRA>
0.39119

>  <SCORE.INTRA.DIHEDRAL>
-0.0567735

>  <SCORE.INTRA.DIHEDRAL.0>
7.82666

>  <SCORE.INTRA.POLAR>
0

>  <SCORE.INTRA.POLAR.0>
0

>  <SCORE.INTRA.REPUL>
0

>  <SCORE.INTRA.REPUL.0>
0

>  <SCORE.INTRA.SOLV>
1.66388

>  <SCORE.INTRA.SOLV.lig_0>
-83.2758

>  <SCORE.INTRA.VDW>
-0.412361

>  <SCORE.INTRA.VDW.0>
-3.26816

>  <SCORE.INTRA.norm>
0.0144885

>  <SCORE.RESTR>
0.00985969

>  <SCORE.RESTR.CAVITY>
0.00985969

>  <SCORE.RESTR.norm>
0.000365174

>  <SCORE.SYSTEM>
0

>  <SCORE.SYSTEM.CONST>
0

>  <SCORE.SYSTEM.DIHEDRAL>
0

>  <SCORE.SYSTEM.SOLV>
0

>  <SCORE.SYSTEM.norm>
0

>  <SCORE.heavy>
27

>  <SCORE.norm>
-0.590635

>  <RMSD>
2.901

$$$$
ligand
 OpenBabel11021811473D
libRbt.so/2013.1/901 2013/11/27
 27 28  0  0  0  0  0  0  0  0999 V2000
  -13.1729   37.4844   -1.6466 C   0  0  0  0  0  0  0  0  0  0  0  0
   -5.8050   38.4363   -5.1325 C   0  0  0  0  0  0  0  0  0  0  0  0
   -5.9139   38.5209   -8.1252 C   0  0  0  0  0  0  0  0  0  0  0  0
   -5.0433   39.6980   -8.5692 C   0  0  0  0  0  0  0  0  0  0  0  0
   -5.7033   40.4619   -9.5816 O   0  0  0  0  0  0  0  0  0  0  0  0
   -5.0860   41.8655  -10.0600 P   0  0  1  0  0  0  0  0  0  0  0  0
   -6.5958   43.4232   -8.2570 P   0  0  2  0  0  0  0  0  0  0  0  0
   -9.2914   39.9691   -7.1527 C   0  0  0  0  0  0  0  0  0  0  0  0
  -11.5071   37.8739   -3.4523 N   0  0  0  0  0  0  0  0  0  0  0  0
   -3.5493   41.7054  -10.4844 O   0  5  0  0  0  0  0  0  0  0  0  0
   -7.4457   42.3143   -7.7769 O   0  0  0  0  0  0  0  0  0  0  0  0
   -9.2617   39.9395   -5.7647 C   0  0  0  0  0  0  0  0  0  0  0  0
  -11.8264   38.0004   -2.1550 C   0  0  0  0  0  0  0  0  0  0  0  0
   -5.8580   42.4930  -11.3342 O   0  0  0  0  0  0  0  0  0  0  0  0
   -7.3270   44.2712   -9.4067 O   0  5  0  0  0  0  0  0  0  0  0  0
   -8.1318   39.4469   -5.1103 N   0  0  0  0  0  0  0  0  0  0  0  0
  -10.9734   38.5772   -1.2961 N   0  0  0  0  0  0  0  0  0  0  0  0
   -5.1886   42.9599   -8.8607 O   0  0  0  0  0  0  0  0  0  0  0  0
   -6.3019   44.4648   -7.0855 O   0  0  0  0  0  0  0  0  0  0  0  0
   -7.0436   38.9803   -5.8576 C   0  0  1  0  0  0  0  0  0  0  0  0
   -9.7897   39.0348   -1.7224 C   0  0  0  0  0  0  0  0  0  0  0  0
   -8.9517   39.6029   -0.8614 N   0  0  0  0  0  0  0  0  0  0  0  0
   -7.0742   39.0109   -7.2508 C   0  0  2  0  0  0  0  0  0  0  0  0
   -9.4345   38.9137   -3.0604 C   0  0  0  0  0  0  0  0  0  0  0  0
   -8.2057   39.5072   -7.8866 C   0  0  0  0  0  0  0  0  0  0  0  0
  -10.3488   38.3115   -3.9171 C   0  0  0  0  0  0  0  0  0  0  0  0
   -8.0997   39.4123   -3.6292 C   0  0  0  0  0  0  0  0  0  0  0  0
  1 13  1  0  0  0  0
  3  4  1  0  0  0  0
  4  5  1  0  0  0  0
  6  5  1  1  0  0  0
  6 10  1  0  0  0  0
  6 14  2  0  0  0  0
  6 18  1  0  0  0  0
  7 11  1  1  0  0  0
  7 15  1  0  0  0  0
  7 19  2  0  0  0  0
  7 18  1  0  0  0  0
  8 25  1  0  0  0  0
  8 12  1  0  0  0  0
  9 26  2  0  0  0  0
  9 13  1  0  0  0  0
 12 16  1  0  0  0  0
 13 17  2  0  0  0  0
 16 20  1  0  0  0  0
 16 27  1  0  0  0  0
 17 21  1  0  0  0  0
 20  2  1  1  0  0  0
 20 23  1  0  0  0  0
 21 22  1  0  0  0  0
 21 24  2  0  0  0  0
 23  3  1  6  0  0  0
 23 25  1  0  0  0  0
 24 27  1  0  0  0  0
 24 26  1  0  0  0  0
M  CHG  2  10  -1  15  -1
M  END
>  <CHROM.1>
-74.08291383,171.25714062,52.76418220,-61.58795064,54.76084198,-97.55070800
-166.36070218,42.97734261,-7.60275518,40.49942481,-6.52003963,2.49539910
-0.84145532,2.84991467

>  <Name>
ligand

>  <RI>
0

>  <Rbt.Current_Directory>
/home/itssahil/PROJECTS/Mol_Feturizer/New_Systems/rnas/3D2V

>  <Rbt.Executable>
rbdock ($Id: //depot/dev/client3/rdock/2013.1/src/exe/rbdock.cxx#4 $)

>  <Rbt.Library>
libRbt.so (2013.1, Build901 2013/11/27)

>  <Rbt.Parameter_File>
/export/apps/rDock/src/rDock_2013.1_src/data/scripts/dock_solv.prm

>  <Rbt.Receptor>
prm/pocket_docking_6.prm

>  <SCORE>
-24.8223

>  <SCORE.INTER>
-22.8516

>  <SCORE.INTER.CONST>
1

>  <SCORE.INTER.POLAR>
0

>  <SCORE.INTER.ROT>
8

>  <SCORE.INTER.SOLV>
20.4011

>  <SCORE.INTER.VDW>
-30.9681

>  <SCORE.INTER.norm>
-0.846354

>  <SCORE.INTRA>
-1.97071

>  <SCORE.INTRA.DIHEDRAL>
-1.40042

>  <SCORE.INTRA.DIHEDRAL.0>
7.82666

>  <SCORE.INTRA.POLAR>
0

>  <SCORE.INTRA.POLAR.0>
0

>  <SCORE.INTRA.REPUL>
0

>  <SCORE.INTRA.REPUL.0>
0

>  <SCORE.INTRA.SOLV>
-2.43604

>  <SCORE.INTRA.SOLV.lig_0>
-83.2758

>  <SCORE.INTRA.VDW>
-0.052483

>  <SCORE.INTRA.VDW.0>
-3.26816

>  <SCORE.INTRA.norm>
-0.0729894

>  <SCORE.RESTR>
0

>  <SCORE.RESTR.CAVITY>
0

>  <SCORE.RESTR.norm>
0

>  <SCORE.SYSTEM>
0

>  <SCORE.SYSTEM.CONST>
0

>  <SCORE.SYSTEM.DIHEDRAL>
0

>  <SCORE.SYSTEM.SOLV>
0

>  <SCORE.SYSTEM.norm>
0

>  <SCORE.heavy>
27

>  <SCORE.norm>
-0.919343

>  <RMSD>
2.909

$$$$
ligand
 OpenBabel11021811463D
libRbt.so/2013.1/901 2013/11/27
 27 28  0  0  0  0  0  0  0  0999 V2000
   -7.9762   38.9946    0.7238 C   0  0  0  0  0  0  0  0  0  0  0  0
   -6.9869   37.8340   -6.1653 C   0  0  0  0  0  0  0  0  0  0  0  0
   -5.0736   39.6138   -7.6306 C   0  0  0  0  0  0  0  0  0  0  0  0
   -4.8633   40.3103   -8.9764 C   0  0  0  0  0  0  0  0  0  0  0  0
   -3.7678   41.2264   -8.9062 O   0  0  0  0  0  0  0  0  0  0  0  0
   -3.8885   42.5565   -8.0140 P   0  0  1  0  0  0  0  0  0  0  0  0
   -2.4885   44.4381   -9.5812 P   0  0  2  0  0  0  0  0  0  0  0  0
   -7.6813   42.0832   -6.3845 C   0  0  0  0  0  0  0  0  0  0  0  0
   -7.4581   39.4279   -1.6702 N   0  0  0  0  0  0  0  0  0  0  0  0
   -5.2264   43.3661   -8.3629 O   0  5  0  0  0  0  0  0  0  0  0  0
   -3.6825   44.4117  -10.4509 O   0  0  0  0  0  0  0  0  0  0  0  0
   -8.5806   41.2766   -5.6997 C   0  0  0  0  0  0  0  0  0  0  0  0
   -8.3461   38.9995   -0.7598 C   0  0  0  0  0  0  0  0  0  0  0  0
   -3.9301   42.2504   -6.4271 O   0  0  0  0  0  0  0  0  0  0  0  0
   -1.1774   43.9453  -10.3648 O   0  5  0  0  0  0  0  0  0  0  0  0
   -8.3541   39.9015   -5.6252 N   0  0  0  0  0  0  0  0  0  0  0  0
   -9.5598   38.5738   -1.1390 N   0  0  0  0  0  0  0  0  0  0  0  0
   -2.6063   43.5234   -8.2741 O   0  0  0  0  0  0  0  0  0  0  0  0
   -2.1627   45.9251   -9.1052 O   0  0  0  0  0  0  0  0  0  0  0  0
   -7.2289   39.3475   -6.2474 C   0  0  1  0  0  0  0  0  0  0  0  0
   -9.9021   38.5709   -2.4333 C   0  0  0  0  0  0  0  0  0  0  0  0
  -11.1086   38.1484   -2.7969 N   0  0  0  0  0  0  0  0  0  0  0  0
   -6.3265   40.1580   -6.9342 C   0  0  2  0  0  0  0  0  0  0  0  0
   -9.0014   39.0117   -3.3952 C   0  0  0  0  0  0  0  0  0  0  0  0
   -6.5653   41.5255   -6.9962 C   0  0  0  0  0  0  0  0  0  0  0  0
   -7.7536   39.4425   -2.9592 C   0  0  0  0  0  0  0  0  0  0  0  0
   -9.3143   39.0393   -4.8969 C   0  0  0  0  0  0  0  0  0  0  0  0
  1 13  1  0  0  0  0
  3  4  1  0  0  0  0
  4  5  1  0  0  0  0
  6  5  1  6  0  0  0
  6 10  1  0  0  0  0
  6 14  2  0  0  0  0
  6 18  1  0  0  0  0
  7 11  1  6  0  0  0
  7 15  1  0  0  0  0
  7 19  2  0  0  0  0
  7 18  1  0  0  0  0
  8 25  1  0  0  0  0
  8 12  1  0  0  0  0
  9 26  2  0  0  0  0
  9 13  1  0  0  0  0
 12 16  1  0  0  0  0
 13 17  2  0  0  0  0
 16 20  1  0  0  0  0
 16 27  1  0  0  0  0
 17 21  1  0  0  0  0
 20  2  1  1  0  0  0
 20 23  1  0  0  0  0
 21 22  1  0  0  0  0
 21 24  2  0  0  0  0
 23  3  1  6  0  0  0
 23 25  1  0  0  0  0
 24 27  1  0  0  0  0
 24 26  1  0  0  0  0
M  CHG  2  10  -1  15  -1
M  END
>  <CHROM.1>
106.74385255,-68.33218255,-51.12596919,77.84934900,5.01891171,139.42134740
163.53597498,-84.71675702,-5.90351903,41.21515172,-6.28481715,-2.51751428
-0.77161626,-1.71913194

>  <Name>
ligand

>  <RI>
0

>  <Rbt.Current_Directory>
/home/itssahil/PROJECTS/Mol_Feturizer/New_Systems/rnas/3D2V

>  <Rbt.Executable>
rbdock ($Id: //depot/dev/client3/rdock/2013.1/src/exe/rbdock.cxx#4 $)

>  <Rbt.Library>
libRbt.so (2013.1, Build901 2013/11/27)

>  <Rbt.Parameter_File>
/export/apps/rDock/src/rDock_2013.1_src/data/scripts/dock_solv.prm

>  <Rbt.Receptor>
prm/pocket_docking_2.prm

>  <SCORE>
-5.28573

>  <SCORE.INTER>
-9.53753

>  <SCORE.INTER.CONST>
1

>  <SCORE.INTER.POLAR>
0

>  <SCORE.INTER.ROT>
8

>  <SCORE.INTER.SOLV>
22.0118

>  <SCORE.INTER.VDW>
-22.6289

>  <SCORE.INTER.norm>
-0.353242

>  <SCORE.INTRA>
4.10244

>  <SCORE.INTRA.DIHEDRAL>
5.53109

>  <SCORE.INTRA.DIHEDRAL.0>
7.82666

>  <SCORE.INTRA.POLAR>
0

>  <SCORE.INTRA.POLAR.0>
0

>  <SCORE.INTRA.REPUL>
0

>  <SCORE.INTRA.REPUL.0>
0

>  <SCORE.INTRA.SOLV>
0.797157

>  <SCORE.INTRA.SOLV.lig_0>
-83.2758

>  <SCORE.INTRA.VDW>
0.93831

>  <SCORE.INTRA.VDW.0>
-3.26816

>  <SCORE.INTRA.norm>
0.151942

>  <SCORE.RESTR>
0.149368

>  <SCORE.RESTR.CAVITY>
0.149368

>  <SCORE.RESTR.norm>
0.00553215

>  <SCORE.SYSTEM>
0

>  <SCORE.SYSTEM.CONST>
0

>  <SCORE.SYSTEM.DIHEDRAL>
0

>  <SCORE.SYSTEM.SOLV>
0

>  <SCORE.SYSTEM.norm>
0

>  <SCORE.heavy>
27

>  <SCORE.norm>
-0.195768

>  <RMSD>
2.913

$$$$
ligand
 OpenBabel11021811473D
libRbt.so/2013.1/901 2013/11/27
 27 28  0  0  0  0  0  0  0  0999 V2000
  -13.0060   37.5179   -1.8098 C   0  0  0  0  0  0  0  0  0  0  0  0
   -5.3864   38.4486   -5.0667 C   0  0  0  0  0  0  0  0  0  0  0  0
   -5.4370   39.0726   -7.9964 C   0  0  0  0  0  0  0  0  0  0  0  0
   -4.7665   40.3581   -8.4848 C   0  0  0  0  0  0  0  0  0  0  0  0
   -4.5046   41.2395   -7.3899 O   0  0  0  0  0  0  0  0  0  0  0  0
   -4.0273   42.7477   -7.6687 P   0  0  1  0  0  0  0  0  0  0  0  0
   -3.4045   43.1761   -4.9512 P   0  0  2  0  0  0  0  0  0  0  0  0
   -8.8346   40.3291   -6.8442 C   0  0  0  0  0  0  0  0  0  0  0  0
  -11.1786   37.7333   -3.4836 N   0  0  0  0  0  0  0  0  0  0  0  0
   -2.5158   42.7859   -8.1989 O   0  5  0  0  0  0  0  0  0  0  0  0
   -3.7723   41.8222   -4.4883 O   0  0  0  0  0  0  0  0  0  0  0  0
   -8.8320   40.0493   -5.4841 C   0  0  0  0  0  0  0  0  0  0  0  0
  -11.6020   37.9546   -2.2295 C   0  0  0  0  0  0  0  0  0  0  0  0
   -4.9294   43.5000   -8.7795 O   0  0  0  0  0  0  0  0  0  0  0  0
   -3.7577   44.2911   -3.8522 O   0  5  0  0  0  0  0  0  0  0  0  0
   -7.7144   39.4440   -4.9076 N   0  0  0  0  0  0  0  0  0  0  0  0
  -10.8035   38.5572   -1.3367 N   0  0  0  0  0  0  0  0  0  0  0  0
   -4.1281   43.6280   -6.3044 O   0  0  0  0  0  0  0  0  0  0  0  0
   -1.8304   43.2922   -5.1805 O   0  0  0  0  0  0  0  0  0  0  0  0
   -6.6113   39.1175   -5.7055 C   0  0  1  0  0  0  0  0  0  0  0  0
   -9.5709   38.9464   -1.6854 C   0  0  0  0  0  0  0  0  0  0  0  0
   -8.7878   39.5410   -0.7911 N   0  0  0  0  0  0  0  0  0  0  0  0
   -6.6148   39.3993   -7.0707 C   0  0  1  0  0  0  0  0  0  0  0  0
   -9.1080   38.7266   -2.9770 C   0  0  0  0  0  0  0  0  0  0  0  0
   -7.7342   40.0049   -7.6282 C   0  0  0  0  0  0  0  0  0  0  0  0
   -9.9687   38.1008   -3.8714 C   0  0  0  0  0  0  0  0  0  0  0  0
   -7.7113   39.1424   -3.4568 C   0  0  0  0  0  0  0  0  0  0  0  0
  1 13  1  0  0  0  0
  3  4  1  0  0  0  0
  4  5  1  0  0  0  0
  6  5  1  1  0  0  0
  6 10  1  0  0  0  0
  6 14  2  0  0  0  0
  6 18  1  0  0  0  0
  7 11  1  1  0  0  0
  7 15  1  0  0  0  0
  7 19  2  0  0  0  0
  7 18  1  0  0  0  0
  8 25  1  0  0  0  0
  8 12  1  0  0  0  0
  9 26  2  0  0  0  0
  9 13  1  0  0  0  0
 12 16  1  0  0  0  0
 13 17  2  0  0  0  0
 16 20  1  0  0  0  0
 16 27  1  0  0  0  0
 17 21  1  0  0  0  0
 20  2  1  1  0  0  0
 20 23  1  0  0  0  0
 21 22  1  0  0  0  0
 21 24  2  0  0  0  0
 23  3  1  1  0  0  0
 23 25  1  0  0  0  0
 24 27  1  0  0  0  0
 24 26  1  0  0  0  0
M  CHG  2  10  -1  15  -1
M  END
>  <CHROM.1>
48.81058101,-170.01166225,-72.26656286,54.79189309,-55.78237049,-111.69399651
-150.70990627,35.55157869,-6.46341022,40.67536381,-5.24300737,-2.80846850
-0.64877359,-1.79789372

>  <Name>
ligand

>  <RI>
0

>  <Rbt.Current_Directory>
/home/itssahil/PROJECTS/Mol_Feturizer/New_Systems/rnas/3D2V

>  <Rbt.Executable>
rbdock ($Id: //depot/dev/client3/rdock/2013.1/src/exe/rbdock.cxx#4 $)

>  <Rbt.Library>
libRbt.so (2013.1, Build901 2013/11/27)

>  <Rbt.Parameter_File>
/export/apps/rDock/src/rDock_2013.1_src/data/scripts/dock_solv.prm

>  <Rbt.Receptor>
prm/pocket_docking_5.prm

>  <SCORE>
-22.7138

>  <SCORE.INTER>
-21.0798

>  <SCORE.INTER.CONST>
1

>  <SCORE.INTER.POLAR>
0

>  <SCORE.INTER.ROT>
8

>  <SCORE.INTER.SOLV>
17.7971

>  <SCORE.INTER.VDW>
-28.9189

>  <SCORE.INTER.norm>
-0.780732

>  <SCORE.INTRA>
-1.63399

>  <SCORE.INTRA.DIHEDRAL>
-1.36011

>  <SCORE.INTRA.DIHEDRAL.0>
7.82666

>  <SCORE.INTRA.POLAR>
0

>  <SCORE.INTRA.POLAR.0>
0

>  <SCORE.INTRA.REPUL>
0

>  <SCORE.INTRA.REPUL.0>
0

>  <SCORE.INTRA.SOLV>
-2.40838

>  <SCORE.INTRA.SOLV.lig_0>
-83.2758

>  <SCORE.INTRA.VDW>
0.250255

>  <SCORE.INTRA.VDW.0>
-3.26816

>  <SCORE.INTRA.norm>
-0.0605182

>  <SCORE.RESTR>
0

>  <SCORE.RESTR.CAVITY>
0

>  <SCORE.RESTR.norm>
0

>  <SCORE.SYSTEM>
0

>  <SCORE.SYSTEM.CONST>
0

>  <SCORE.SYSTEM.DIHEDRAL>
0

>  <SCORE.SYSTEM.SOLV>
0

>  <SCORE.SYSTEM.norm>
0

>  <SCORE.heavy>
27

>  <SCORE.norm>
-0.84125

>  <RMSD>
2.921

$$$$
ligand
 OpenBabel11021811473D
libRbt.so/2013.1/901 2013/11/27
 27 28  0  0  0  0  0  0  0  0999 V2000
  -12.9650   37.5109   -2.2134 C   0  0  0  0  0  0  0  0  0  0  0  0
   -5.1978   39.0107   -4.5251 C   0  0  0  0  0  0  0  0  0  0  0  0
   -4.8821   41.0537   -6.6934 C   0  0  0  0  0  0  0  0  0  0  0  0
   -5.2101   40.1348   -7.8718 C   0  0  0  0  0  0  0  0  0  0  0  0
   -4.2849   40.3361   -8.9431 O   0  0  0  0  0  0  0  0  0  0  0  0
   -4.3109   41.7065   -9.7805 P   0  0  1  0  0  0  0  0  0  0  0  0
   -6.4491   43.3779   -9.0117 P   0  0  2  0  0  0  0  0  0  0  0  0
   -8.0615   42.2045   -4.9560 C   0  0  0  0  0  0  0  0  0  0  0  0
  -10.8042   38.3181   -1.2823 N   0  0  0  0  0  0  0  0  0  0  0  0
   -2.8378   42.1208  -10.2553 O   0  5  0  0  0  0  0  0  0  0  0  0
   -7.4379   42.2900   -8.8660 O   0  0  0  0  0  0  0  0  0  0  0  0
   -8.2265   41.2685   -3.9436 C   0  0  0  0  0  0  0  0  0  0  0  0
  -11.5128   37.9645   -2.3658 C   0  0  0  0  0  0  0  0  0  0  0  0
   -5.2209   41.6145  -11.1136 O   0  0  0  0  0  0  0  0  0  0  0  0
   -6.5721   44.0989  -10.4403 O   0  5  0  0  0  0  0  0  0  0  0  0
   -7.2977   40.2366   -3.8014 N   0  0  0  0  0  0  0  0  0  0  0  0
  -10.9583   38.0049   -3.5860 N   0  0  0  0  0  0  0  0  0  0  0  0
   -4.9268   42.9066   -8.8712 O   0  0  0  0  0  0  0  0  0  0  0  0
   -6.7028   44.5269   -7.9351 O   0  0  0  0  0  0  0  0  0  0  0  0
   -6.2143   40.1498   -4.6840 C   0  0  1  0  0  0  0  0  0  0  0  0
   -9.6882   38.3997   -3.7394 C   0  0  0  0  0  0  0  0  0  0  0  0
   -9.1501   38.4375   -4.9541 N   0  0  0  0  0  0  0  0  0  0  0  0
   -6.0492   41.0901   -5.6996 C   0  0  2  0  0  0  0  0  0  0  0  0
   -8.9341   38.7730   -2.6336 C   0  0  0  0  0  0  0  0  0  0  0  0
   -6.9815   42.1128   -5.8255 C   0  0  0  0  0  0  0  0  0  0  0  0
   -9.5468   38.7144   -1.3872 C   0  0  0  0  0  0  0  0  0  0  0  0
   -7.4740   39.2356   -2.7232 C   0  0  0  0  0  0  0  0  0  0  0  0
  1 13  1  0  0  0  0
  3  4  1  0  0  0  0
  4  5  1  0  0  0  0
  6  5  1  1  0  0  0
  6 10  1  0  0  0  0
  6 14  2  0  0  0  0
  6 18  1  0  0  0  0
  7 11  1  1  0  0  0
  7 15  1  0  0  0  0
  7 19  2  0  0  0  0
  7 18  1  0  0  0  0
  8 25  1  0  0  0  0
  8 12  1  0  0  0  0
  9 26  2  0  0  0  0
  9 13  1  0  0  0  0
 12 16  1  0  0  0  0
 13 17  2  0  0  0  0
 16 20  1  0  0  0  0
 16 27  1  0  0  0  0
 17 21  1  0  0  0  0
 20  2  1  1  0  0  0
 20 23  1  0  0  0  0
 21 22  1  0  0  0  0
 21 24  2  0  0  0  0
 23  3  1  6  0  0  0
 23 25  1  0  0  0  0
 24 27  1  0  0  0  0
 24 26  1  0  0  0  0
M  CHG  2  10  -1  15  -1
M  END
>  <CHROM.1>
166.23565188,-69.43515449,146.44867084,-99.43417077,54.25311695,85.56024622
47.00909717,44.13062550,-7.06710066,40.81783553,-6.34458512,2.17292844,-0.32201061
2.30248186

>  <Name>
ligand

>  <RI>
0

>  <Rbt.Current_Directory>
/home/itssahil/PROJECTS/Mol_Feturizer/New_Systems/rnas/3D2V

>  <Rbt.Executable>
rbdock ($Id: //depot/dev/client3/rdock/2013.1/src/exe/rbdock.cxx#4 $)

>  <Rbt.Library>
libRbt.so (2013.1, Build901 2013/11/27)

>  <Rbt.Parameter_File>
/export/apps/rDock/src/rDock_2013.1_src/data/scripts/dock_solv.prm

>  <Rbt.Receptor>
prm/pocket_docking_3.prm

>  <SCORE>
-20.0918

>  <SCORE.INTER>
-21.7394

>  <SCORE.INTER.CONST>
1

>  <SCORE.INTER.POLAR>
0

>  <SCORE.INTER.ROT>
8

>  <SCORE.INTER.SOLV>
14.0169

>  <SCORE.INTER.VDW>
-28.0985

>  <SCORE.INTER.norm>
-0.805162

>  <SCORE.INTRA>
1.64759

>  <SCORE.INTRA.DIHEDRAL>
1.706

>  <SCORE.INTRA.DIHEDRAL.0>
7.82666

>  <SCORE.INTRA.POLAR>
0

>  <SCORE.INTRA.POLAR.0>
0

>  <SCORE.INTRA.REPUL>
0

>  <SCORE.INTRA.REPUL.0>
0

>  <SCORE.INTRA.SOLV>
3.58963

>  <SCORE.INTRA.SOLV.lig_0>
-83.2758

>  <SCORE.INTRA.VDW>
-1.00023

>  <SCORE.INTRA.VDW.0>
-3.26816

>  <SCORE.INTRA.norm>
0.0610217

>  <SCORE.RESTR>
0

>  <SCORE.RESTR.CAVITY>
0

>  <SCORE.RESTR.norm>
0

>  <SCORE.SYSTEM>
0

>  <SCORE.SYSTEM.CONST>
0

>  <SCORE.SYSTEM.DIHEDRAL>
0

>  <SCORE.SYSTEM.SOLV>
0

>  <SCORE.SYSTEM.norm>
0

>  <SCORE.heavy>
27

>  <SCORE.norm>
-0.74414

>  <RMSD>
2.929

$$$$
ligand
 OpenBabel11021811473D
libRbt.so/2013.1/901 2013/11/27
 27 28  0  0  0  0  0  0  0  0999 V2000
  -13.3133   37.4168   -1.6557 C   0  0  0  0  0  0  0  0  0  0  0  0
   -6.3579   37.6162   -5.1682 C   0  0  0  0  0  0  0  0  0  0  0  0
   -6.4676   37.8608   -8.1521 C   0  0  0  0  0  0  0  0  0  0  0  0
   -5.8134   38.7709   -9.1934 C   0  0  0  0  0  0  0  0  0  0  0  0
   -4.6391   39.3878   -8.6599 O   0  0  0  0  0  0  0  0  0  0  0  0
   -4.7580   40.7554   -7.8260 P   0  0  1  0  0  0  0  0  0  0  0  0
   -5.4128   42.3453  -10.0621 P   0  0  2  0  0  0  0  0  0  0  0  0
   -9.1534   40.3111   -7.0415 C   0  0  0  0  0  0  0  0  0  0  0  0
  -11.6365   37.8182   -3.4486 N   0  0  0  0  0  0  0  0  0  0  0  0
   -5.3365   40.4867   -6.3562 O   0  5  0  0  0  0  0  0  0  0  0  0
   -5.2205   41.2892  -11.0770 O   0  0  0  0  0  0  0  0  0  0  0  0
   -9.1189   40.2137   -5.6568 C   0  0  0  0  0  0  0  0  0  0  0  0
  -11.9494   37.9036   -2.1464 C   0  0  0  0  0  0  0  0  0  0  0  0
   -3.3382   41.5052   -7.6376 O   0  0  0  0  0  0  0  0  0  0  0  0
   -4.1088   43.2700   -9.9192 O   0  5  0  0  0  0  0  0  0  0  0  0
   -8.2116   39.3443   -5.0498 N   0  0  0  0  0  0  0  0  0  0  0  0
  -11.0749   38.4136   -1.2671 N   0  0  0  0  0  0  0  0  0  0  0  0
   -5.7425   41.7968   -8.5960 O   0  0  0  0  0  0  0  0  0  0  0  0
   -6.5890   43.3358  -10.4856 O   0  0  0  0  0  0  0  0  0  0  0  0
   -7.3514   38.5735   -5.8411 C   0  0  1  0  0  0  0  0  0  0  0  0
   -9.8758   38.8447   -1.6778 C   0  0  0  0  0  0  0  0  0  0  0  0
   -9.0165   39.3465   -0.7967 N   0  0  0  0  0  0  0  0  0  0  0  0
   -7.3864   38.6723   -7.2311 C   0  0  2  0  0  0  0  0  0  0  0  0
   -9.5268   38.7650   -3.0205 C   0  0  0  0  0  0  0  0  0  0  0  0
   -8.2938   39.5449   -7.8193 C   0  0  0  0  0  0  0  0  0  0  0  0
  -10.4635   38.2318   -3.8984 C   0  0  0  0  0  0  0  0  0  0  0  0
   -8.1754   39.2374   -3.5723 C   0  0  0  0  0  0  0  0  0  0  0  0
  1 13  1  0  0  0  0
  3  4  1  0  0  0  0
  4  5  1  0  0  0  0
  6  5  1  6  0  0  0
  6 10  1  0  0  0  0
  6 14  2  0  0  0  0
  6 18  1  0  0  0  0
  7 11  1  6  0  0  0
  7 15  1  0  0  0  0
  7 19  2  0  0  0  0
  7 18  1  0  0  0  0
  8 25  1  0  0  0  0
  8 12  1  0  0  0  0
  9 26  2  0  0  0  0
  9 13  1  0  0  0  0
 12 16  1  0  0  0  0
 13 17  2  0  0  0  0
 16 20  1  0  0  0  0
 16 27  1  0  0  0  0
 17 21  1  0  0  0  0
 20  2  1  1  0  0  0
 20 23  1  0  0  0  0
 21 22  1  0  0  0  0
 21 24  2  0  0  0  0
 23  3  1  6  0  0  0
 23 25  1  0  0  0  0
 24 27  1  0  0  0  0
 24 26  1  0  0  0  0
M  CHG  2  10  -1  15  -1
M  END
>  <CHROM.1>
84.48239430,-86.06179214,75.16314199,-61.44840851,56.36881372,-131.39911982
-165.87467641,60.28078673,-7.34985328,39.90755122,-6.42135730,2.20727470
-0.05639948,2.05115324

>  <Name>
ligand

>  <RI>
0

>  <Rbt.Current_Directory>
/home/itssahil/PROJECTS/Mol_Feturizer/New_Systems/rnas/3D2V

>  <Rbt.Executable>
rbdock ($Id: //depot/dev/client3/rdock/2013.1/src/exe/rbdock.cxx#4 $)

>  <Rbt.Library>
libRbt.so (2013.1, Build901 2013/11/27)

>  <Rbt.Parameter_File>
/export/apps/rDock/src/rDock_2013.1_src/data/scripts/dock_solv.prm

>  <Rbt.Receptor>
prm/pocket_docking_4.prm

>  <SCORE>
-22.4404

>  <SCORE.INTER>
-23.291

>  <SCORE.INTER.CONST>
1

>  <SCORE.INTER.POLAR>
0

>  <SCORE.INTER.ROT>
8

>  <SCORE.INTER.SOLV>
21.3329

>  <SCORE.INTER.VDW>
-31.5716

>  <SCORE.INTER.norm>
-0.86263

>  <SCORE.INTRA>
0.850636

>  <SCORE.INTRA.DIHEDRAL>
2.56952

>  <SCORE.INTRA.DIHEDRAL.0>
7.82666

>  <SCORE.INTRA.POLAR>
0

>  <SCORE.INTRA.POLAR.0>
0

>  <SCORE.INTRA.REPUL>
0

>  <SCORE.INTRA.REPUL.0>
0

>  <SCORE.INTRA.SOLV>
1.53194

>  <SCORE.INTRA.SOLV.lig_0>
-83.2758

>  <SCORE.INTRA.VDW>
-1.2001

>  <SCORE.INTRA.VDW.0>
-3.26816

>  <SCORE.INTRA.norm>
0.031505

>  <SCORE.RESTR>
0

>  <SCORE.RESTR.CAVITY>
0

>  <SCORE.RESTR.norm>
0

>  <SCORE.SYSTEM>
0

>  <SCORE.SYSTEM.CONST>
0

>  <SCORE.SYSTEM.DIHEDRAL>
0

>  <SCORE.SYSTEM.SOLV>
0

>  <SCORE.SYSTEM.norm>
0

>  <SCORE.heavy>
27

>  <SCORE.norm>
-0.831124

>  <RMSD>
2.929

$$$$
ligand
 OpenBabel11021811473D
libRbt.so/2013.1/901 2013/11/27
 27 28  0  0  0  0  0  0  0  0999 V2000
   -9.6587   38.7091   -1.1285 C   0  0  0  0  0  0  0  0  0  0  0  0
   -7.1312   42.0423   -8.4441 C   0  0  0  0  0  0  0  0  0  0  0  0
   -4.6959   40.7438   -9.6096 C   0  0  0  0  0  0  0  0  0  0  0  0
   -3.7070   41.6663   -8.8943 C   0  0  0  0  0  0  0  0  0  0  0  0
   -4.1592   43.0221   -8.9354 O   0  0  0  0  0  0  0  0  0  0  0  0
   -4.1280   43.8380  -10.3186 P   0  0  1  0  0  0  0  0  0  0  0  0
   -3.8928   46.3034   -8.9684 P   0  0  2  0  0  0  0  0  0  0  0  0
   -6.0279   38.0352   -7.2988 C   0  0  0  0  0  0  0  0  0  0  0  0
  -10.2297   38.8506   -3.5454 N   0  0  0  0  0  0  0  0  0  0  0  0
   -2.6585   43.8356  -10.9571 O   0  5  0  0  0  0  0  0  0  0  0  0
   -2.4520   46.5378   -9.1957 O   0  0  0  0  0  0  0  0  0  0  0  0
   -7.1610   38.6178   -6.7468 C   0  0  0  0  0  0  0  0  0  0  0  0
   -9.3983   39.2020   -2.5523 C   0  0  0  0  0  0  0  0  0  0  0  0
   -5.1221   43.2241  -11.4359 O   0  0  0  0  0  0  0  0  0  0  0  0
   -4.1593   45.6013   -7.5500 O   0  5  0  0  0  0  0  0  0  0  0  0
   -7.5207   39.9136   -7.1202 N   0  0  0  0  0  0  0  0  0  0  0  0
   -8.3370   39.9843   -2.7964 N   0  0  0  0  0  0  0  0  0  0  0  0
   -4.5908   45.3778  -10.0708 O   0  0  0  0  0  0  0  0  0  0  0  0
   -4.6933   47.6819   -8.9148 O   0  0  0  0  0  0  0  0  0  0  0  0
   -6.7329   40.6161   -8.0399 C   0  0  1  0  0  0  0  0  0  0  0  0
   -8.0924   40.4255   -4.0365 C   0  0  0  0  0  0  0  0  0  0  0  0
   -7.0362   41.1988   -4.2665 N   0  0  0  0  0  0  0  0  0  0  0  0
   -5.5958   40.0302   -8.5938 C   0  0  1  0  0  0  0  0  0  0  0  0
   -8.9369   40.0739   -5.0824 C   0  0  0  0  0  0  0  0  0  0  0  0
   -5.2535   38.7383   -8.2136 C   0  0  0  0  0  0  0  0  0  0  0  0
  -10.0264   39.2633   -4.7853 C   0  0  0  0  0  0  0  0  0  0  0  0
   -8.7282   40.5376   -6.5300 C   0  0  0  0  0  0  0  0  0  0  0  0
  1 13  1  0  0  0  0
  3  4  1  0  0  0  0
  4  5  1  0  0  0  0
  6  5  1  1  0  0  0
  6 10  1  0  0  0  0
  6 14  2  0  0  0  0
  6 18  1  0  0  0  0
  7 11  1  6  0  0  0
  7 15  1  0  0  0  0
  7 19  2  0  0  0  0
  7 18  1  0  0  0  0
  8 25  1  0  0  0  0
  8 12  1  0  0  0  0
  9 26  2  0  0  0  0
  9 13  1  0  0  0  0
 12 16  1  0  0  0  0
 13 17  2  0  0  0  0
 16 20  1  0  0  0  0
 16 27  1  0  0  0  0
 17 21  1  0  0  0  0
 20  2  1  6  0  0  0
 20 23  1  0  0  0  0
 21 22  1  0  0  0  0
 21 24  2  0  0  0  0
 23  3  1  6  0  0  0
 23 25  1  0  0  0  0
 24 27  1  0  0  0  0
 24 26  1  0  0  0  0
M  CHG  2  10  -1  15  -1
M  END
>  <CHROM.1>
-99.91286303,-71.20681966,-55.26396507,53.60801102,61.59902916,82.42820137
68.38067498,33.60292913,-5.99166416,42.12197991,-7.50452092,2.83095679,-0.98940277
-2.71254740

>  <Name>
ligand

>  <RI>
0

>  <Rbt.Current_Directory>
/home/itssahil/PROJECTS/Mol_Feturizer/New_Systems/rnas/3D2V

>  <Rbt.Executable>
rbdock ($Id: //depot/dev/client3/rdock/2013.1/src/exe/rbdock.cxx#4 $)

>  <Rbt.Library>
libRbt.so (2013.1, Build901 2013/11/27)

>  <Rbt.Parameter_File>
/export/apps/rDock/src/rDock_2013.1_src/data/scripts/dock_solv.prm

>  <Rbt.Receptor>
prm/pocket_docking_3.prm

>  <SCORE>
-13.3206

>  <SCORE.INTER>
-14.8694

>  <SCORE.INTER.CONST>
1

>  <SCORE.INTER.POLAR>
0

>  <SCORE.INTER.ROT>
8

>  <SCORE.INTER.SOLV>
12.8837

>  <SCORE.INTER.VDW>
-23.1408

>  <SCORE.INTER.norm>
-0.550718

>  <SCORE.INTRA>
1.54878

>  <SCORE.INTRA.DIHEDRAL>
2.20388

>  <SCORE.INTRA.DIHEDRAL.0>
7.82666

>  <SCORE.INTRA.POLAR>
0

>  <SCORE.INTRA.POLAR.0>
0

>  <SCORE.INTRA.REPUL>
0

>  <SCORE.INTRA.REPUL.0>
0

>  <SCORE.INTRA.SOLV>
1.904

>  <SCORE.INTRA.SOLV.lig_0>
-83.2758

>  <SCORE.INTRA.VDW>
-0.505158

>  <SCORE.INTRA.VDW.0>
-3.26816

>  <SCORE.INTRA.norm>
0.0573624

>  <SCORE.RESTR>
0

>  <SCORE.RESTR.CAVITY>
0

>  <SCORE.RESTR.norm>
0

>  <SCORE.SYSTEM>
0

>  <SCORE.SYSTEM.CONST>
0

>  <SCORE.SYSTEM.DIHEDRAL>
0

>  <SCORE.SYSTEM.SOLV>
0

>  <SCORE.SYSTEM.norm>
0

>  <SCORE.heavy>
27

>  <SCORE.norm>
-0.493355

>  <RMSD>
2.932

$$$$
ligand
 OpenBabel11021811473D
libRbt.so/2013.1/901 2013/11/27
 27 28  0  0  0  0  0  0  0  0999 V2000
  -10.1128   38.5120   -1.7072 C   0  0  0  0  0  0  0  0  0  0  0  0
   -5.7060   42.6097   -5.0354 C   0  0  0  0  0  0  0  0  0  0  0  0
   -5.8750   42.7982   -8.0206 C   0  0  0  0  0  0  0  0  0  0  0  0
   -6.9548   42.5344   -9.0719 C   0  0  0  0  0  0  0  0  0  0  0  0
   -7.3395   43.7504   -9.7182 O   0  0  0  0  0  0  0  0  0  0  0  0
   -6.2874   44.5368  -10.6426 P   0  0  1  0  0  0  0  0  0  0  0  0
   -5.4851   46.2742   -8.5704 P   0  0  2  0  0  0  0  0  0  0  0  0
   -4.8726   39.1690   -7.4958 C   0  0  0  0  0  0  0  0  0  0  0  0
   -8.4126   38.6223   -3.5196 N   0  0  0  0  0  0  0  0  0  0  0  0
   -4.8867   43.7618  -10.7106 O   0  5  0  0  0  0  0  0  0  0  0  0
   -4.3832   45.3732   -8.1746 O   0  0  0  0  0  0  0  0  0  0  0  0
   -4.7890   39.0595   -6.1140 C   0  0  0  0  0  0  0  0  0  0  0  0
   -8.7482   38.9288   -2.2569 C   0  0  0  0  0  0  0  0  0  0  0  0
   -6.7957   44.7140  -12.1670 O   0  0  0  0  0  0  0  0  0  0  0  0
   -6.7472   46.1280   -7.5899 O   0  5  0  0  0  0  0  0  0  0  0  0
   -5.0624   40.1720   -5.3171 N   0  0  0  0  0  0  0  0  0  0  0  0
   -7.8958   39.5998   -1.4687 N   0  0  0  0  0  0  0  0  0  0  0  0
   -6.0327   46.0318  -10.0538 O   0  0  0  0  0  0  0  0  0  0  0  0
   -5.0396   47.8018   -8.4612 O   0  0  0  0  0  0  0  0  0  0  0  0
   -5.4100   41.3885   -5.9168 C   0  0  1  0  0  0  0  0  0  0  0  0
   -6.6965   39.9729   -1.9320 C   0  0  0  0  0  0  0  0  0  0  0  0
   -5.8593   40.6359   -1.1408 N   0  0  0  0  0  0  0  0  0  0  0  0
   -5.4941   41.4973   -7.3040 C   0  0  2  0  0  0  0  0  0  0  0  0
   -6.3243   39.6656   -3.2351 C   0  0  0  0  0  0  0  0  0  0  0  0
   -5.2216   40.3792   -8.0827 C   0  0  0  0  0  0  0  0  0  0  0  0
   -7.2386   38.9709   -4.0187 C   0  0  0  0  0  0  0  0  0  0  0  0
   -4.9710   40.0573   -3.8425 C   0  0  0  0  0  0  0  0  0  0  0  0
  1 13  1  0  0  0  0
  3  4  1  0  0  0  0
  4  5  1  0  0  0  0
  6  5  1  1  0  0  0
  6 10  1  0  0  0  0
  6 14  2  0  0  0  0
  6 18  1  0  0  0  0
  7 11  1  1  0  0  0
  7 15  1  0  0  0  0
  7 19  2  0  0  0  0
  7 18  1  0  0  0  0
  8 25  1  0  0  0  0
  8 12  1  0  0  0  0
  9 26  2  0  0  0  0
  9 13  1  0  0  0  0
 12 16  1  0  0  0  0
 13 17  2  0  0  0  0
 16 20  1  0  0  0  0
 16 27  1  0  0  0  0
 17 21  1  0  0  0  0
 20  2  1  1  0  0  0
 20 23  1  0  0  0  0
 21 22  1  0  0  0  0
 21 24  2  0  0  0  0
 23  3  1  6  0  0  0
 23 25  1  0  0  0  0
 24 27  1  0  0  0  0
 24 26  1  0  0  0  0
M  CHG  2  10  -1  15  -1
M  END
>  <CHROM.1>
178.43894324,66.08745682,0.91336651,58.44770175,43.19350427,-131.67115391
-154.25822828,-91.24843651,-6.21930206,42.44520447,-6.77003933,2.88181001
-1.41561101,-2.69589243

>  <Name>
ligand

>  <RI>
0

>  <Rbt.Current_Directory>
/home/itssahil/PROJECTS/Mol_Feturizer/New_Systems/rnas/3D2V

>  <Rbt.Executable>
rbdock ($Id: //depot/dev/client3/rdock/2013.1/src/exe/rbdock.cxx#4 $)

>  <Rbt.Library>
libRbt.so (2013.1, Build901 2013/11/27)

>  <Rbt.Parameter_File>
/export/apps/rDock/src/rDock_2013.1_src/data/scripts/dock_solv.prm

>  <Rbt.Receptor>
prm/pocket_docking_6.prm

>  <SCORE>
-13.7427

>  <SCORE.INTER>
-14.3423

>  <SCORE.INTER.CONST>
1

>  <SCORE.INTER.POLAR>
0

>  <SCORE.INTER.ROT>
8

>  <SCORE.INTER.SOLV>
16.3554

>  <SCORE.INTER.VDW>
-23.9467

>  <SCORE.INTER.norm>
-0.531195

>  <SCORE.INTRA>
0.599558

>  <SCORE.INTRA.DIHEDRAL>
0.401704

>  <SCORE.INTRA.DIHEDRAL.0>
7.82666

>  <SCORE.INTRA.POLAR>
0

>  <SCORE.INTRA.POLAR.0>
0

>  <SCORE.INTRA.REPUL>
0

>  <SCORE.INTRA.REPUL.0>
0

>  <SCORE.INTRA.SOLV>
0.540966

>  <SCORE.INTRA.SOLV.lig_0>
-83.2758

>  <SCORE.INTRA.VDW>
0.128223

>  <SCORE.INTRA.VDW.0>
-3.26816

>  <SCORE.INTRA.norm>
0.0222059

>  <SCORE.RESTR>
0

>  <SCORE.RESTR.CAVITY>
0

>  <SCORE.RESTR.norm>
0

>  <SCORE.SYSTEM>
0

>  <SCORE.SYSTEM.CONST>
0

>  <SCORE.SYSTEM.DIHEDRAL>
0

>  <SCORE.SYSTEM.SOLV>
0

>  <SCORE.SYSTEM.norm>
0

>  <SCORE.heavy>
27

>  <SCORE.norm>
-0.508989

>  <RMSD>
2.946

$$$$
ligand
 OpenBabel11021811473D
libRbt.so/2013.1/901 2013/11/27
 27 28  0  0  0  0  0  0  0  0999 V2000
   -9.5184   38.7912   -0.6440 C   0  0  0  0  0  0  0  0  0  0  0  0
   -7.1213   41.8348   -7.3422 C   0  0  0  0  0  0  0  0  0  0  0  0
   -4.5715   40.7581   -8.4887 C   0  0  0  0  0  0  0  0  0  0  0  0
   -4.6282   40.7546  -10.0175 C   0  0  0  0  0  0  0  0  0  0  0  0
   -3.7418   41.7370  -10.5590 O   0  0  0  0  0  0  0  0  0  0  0  0
   -4.0825   43.2991  -10.4045 P   0  0  1  0  0  0  0  0  0  0  0  0
   -2.8320   43.8118   -7.9287 P   0  0  2  0  0  0  0  0  0  0  0  0
   -6.3767   37.5890   -7.4167 C   0  0  0  0  0  0  0  0  0  0  0  0
  -10.2979   38.6407   -3.0013 N   0  0  0  0  0  0  0  0  0  0  0  0
   -2.9757   44.2054  -11.1260 O   0  5  0  0  0  0  0  0  0  0  0  0
   -1.9601   42.6204   -7.9822 O   0  0  0  0  0  0  0  0  0  0  0  0
   -7.5655   38.0666   -6.8813 C   0  0  0  0  0  0  0  0  0  0  0  0
   -9.3867   39.1081   -2.1340 C   0  0  0  0  0  0  0  0  0  0  0  0
   -5.5080   43.7012  -11.0524 O   0  0  0  0  0  0  0  0  0  0  0  0
   -3.3285   44.1122   -6.4323 O   0  5  0  0  0  0  0  0  0  0  0  0
   -7.8086   39.4407   -6.8604 N   0  0  0  0  0  0  0  0  0  0  0  0
   -8.3575   39.8533   -2.5621 N   0  0  0  0  0  0  0  0  0  0  0  0
   -4.1490   43.7045   -8.8304 O   0  0  0  0  0  0  0  0  0  0  0  0
   -2.0391   45.1195   -8.3815 O   0  0  0  0  0  0  0  0  0  0  0  0
   -6.8501   40.3242   -7.3711 C   0  0  1  0  0  0  0  0  0  0  0  0
   -8.2252   40.1410   -3.8630 C   0  0  0  0  0  0  0  0  0  0  0  0
   -7.1998   40.8790   -4.2757 N   0  0  0  0  0  0  0  0  0  0  0  0
   -5.6572   39.8438   -7.9088 C   0  0  1  0  0  0  0  0  0  0  0  0
   -9.1541   39.6670   -4.7813 C   0  0  0  0  0  0  0  0  0  0  0  0
   -5.4322   38.4727   -7.9246 C   0  0  0  0  0  0  0  0  0  0  0  0
  -10.2065   38.9001   -4.2949 C   0  0  0  0  0  0  0  0  0  0  0  0
   -9.0757   39.9520   -6.2869 C   0  0  0  0  0  0  0  0  0  0  0  0
  1 13  1  0  0  0  0
  3  4  1  0  0  0  0
  4  5  1  0  0  0  0
  6  5  1  6  0  0  0
  6 10  1  0  0  0  0
  6 14  2  0  0  0  0
  6 18  1  0  0  0  0
  7 11  1  6  0  0  0
  7 15  1  0  0  0  0
  7 19  2  0  0  0  0
  7 18  1  0  0  0  0
  8 25  1  0  0  0  0
  8 12  1  0  0  0  0
  9 26  2  0  0  0  0
  9 13  1  0  0  0  0
 12 16  1  0  0  0  0
 13 17  2  0  0  0  0
 16 20  1  0  0  0  0
 16 27  1  0  0  0  0
 17 21  1  0  0  0  0
 20  2  1  6  0  0  0
 20 23  1  0  0  0  0
 21 22  1  0  0  0  0
 21 24  2  0  0  0  0
 23  3  1  6  0  0  0
 23 25  1  0  0  0  0
 24 27  1  0  0  0  0
 24 26  1  0  0  0  0
M  CHG  2  10  -1  15  -1
M  END
>  <CHROM.1>
172.24830505,-70.70641482,-178.20211489,72.70243379,-51.89216489,-102.00646662
59.42282966,65.45495229,-5.84670217,41.32136937,-7.14463300,-2.69612912,-0.82471795
-1.93174962

>  <Name>
ligand

>  <RI>
0

>  <Rbt.Current_Directory>
/home/itssahil/PROJECTS/Mol_Feturizer/New_Systems/rnas/3D2V

>  <Rbt.Executable>
rbdock ($Id: //depot/dev/client3/rdock/2013.1/src/exe/rbdock.cxx#4 $)

>  <Rbt.Library>
libRbt.so (2013.1, Build901 2013/11/27)

>  <Rbt.Parameter_File>
/export/apps/rDock/src/rDock_2013.1_src/data/scripts/dock_solv.prm

>  <Rbt.Receptor>
prm/pocket_docking_3.prm

>  <SCORE>
-15.7214

>  <SCORE.INTER>
-15.2342

>  <SCORE.INTER.CONST>
1

>  <SCORE.INTER.POLAR>
0

>  <SCORE.INTER.ROT>
8

>  <SCORE.INTER.SOLV>
8.37316

>  <SCORE.INTER.VDW>
-21.8805

>  <SCORE.INTER.norm>
-0.564229

>  <SCORE.INTRA>
-0.4872

>  <SCORE.INTRA.DIHEDRAL>
-1.49645

>  <SCORE.INTRA.DIHEDRAL.0>
7.82666

>  <SCORE.INTRA.POLAR>
0

>  <SCORE.INTRA.POLAR.0>
0

>  <SCORE.INTRA.REPUL>
0

>  <SCORE.INTRA.REPUL.0>
0

>  <SCORE.INTRA.SOLV>
3.028

>  <SCORE.INTRA.SOLV.lig_0>
-83.2758

>  <SCORE.INTRA.VDW>
-1.25298

>  <SCORE.INTRA.VDW.0>
-3.26816

>  <SCORE.INTRA.norm>
-0.0180445

>  <SCORE.RESTR>
0

>  <SCORE.RESTR.CAVITY>
0

>  <SCORE.RESTR.norm>
0

>  <SCORE.SYSTEM>
0

>  <SCORE.SYSTEM.CONST>
0

>  <SCORE.SYSTEM.DIHEDRAL>
0

>  <SCORE.SYSTEM.SOLV>
0

>  <SCORE.SYSTEM.norm>
0

>  <SCORE.heavy>
27

>  <SCORE.norm>
-0.582273

>  <RMSD>
2.948

$$$$
ligand
 OpenBabel11021811473D
libRbt.so/2013.1/901 2013/11/27
 27 28  0  0  0  0  0  0  0  0999 V2000
   -7.9979   39.1413    0.6234 C   0  0  0  0  0  0  0  0  0  0  0  0
   -8.5910   39.7294   -7.8105 C   0  0  0  0  0  0  0  0  0  0  0  0
   -6.2039   38.5974   -9.2232 C   0  0  0  0  0  0  0  0  0  0  0  0
   -5.3099   39.8376   -9.2795 C   0  0  0  0  0  0  0  0  0  0  0  0
   -5.9889   40.9756   -8.7427 O   0  0  0  0  0  0  0  0  0  0  0  0
   -5.3915   42.4491   -8.9707 P   0  0  1  0  0  0  0  0  0  0  0  0
   -5.2074   44.3692  -11.0288 P   0  0  2  0  0  0  0  0  0  0  0  0
   -5.9409   36.9985   -5.7844 C   0  0  0  0  0  0  0  0  0  0  0  0
   -7.4246   39.5926   -1.7546 N   0  0  0  0  0  0  0  0  0  0  0  0
   -6.1062   43.5161   -8.0126 O   0  5  0  0  0  0  0  0  0  0  0  0
   -3.8017   44.7428  -10.7699 O   0  0  0  0  0  0  0  0  0  0  0  0
   -7.0419   37.5109   -5.1110 C   0  0  0  0  0  0  0  0  0  0  0  0
   -8.2983   39.0798   -0.8746 C   0  0  0  0  0  0  0  0  0  0  0  0
   -3.8060   42.5411   -8.6688 O   0  0  0  0  0  0  0  0  0  0  0  0
   -6.2276   45.3893  -10.3257 O   0  5  0  0  0  0  0  0  0  0  0  0
   -7.9022   38.3920   -5.7678 N   0  0  0  0  0  0  0  0  0  0  0  0
   -9.4371   38.5115   -1.2968 N   0  0  0  0  0  0  0  0  0  0  0  0
   -5.6043   42.9063  -10.5174 O   0  0  0  0  0  0  0  0  0  0  0  0
   -5.5399   44.4453  -12.5869 O   0  0  0  0  0  0  0  0  0  0  0  0
   -7.6435   38.7571   -7.0944 C   0  0  1  0  0  0  0  0  0  0  0  0
   -9.7178   38.4485   -2.6043 C   0  0  0  0  0  0  0  0  0  0  0  0
  -10.8505   37.8845   -3.0107 N   0  0  0  0  0  0  0  0  0  0  0  0
   -6.5382   38.2418   -7.7696 C   0  0  2  0  0  0  0  0  0  0  0  0
   -8.8305   38.9743   -3.5355 C   0  0  0  0  0  0  0  0  0  0  0  0
   -5.6934   37.3635   -7.1021 C   0  0  0  0  0  0  0  0  0  0  0  0
   -7.6610   39.5525   -3.0552 C   0  0  0  0  0  0  0  0  0  0  0  0
   -9.0761   38.9416   -5.0496 C   0  0  0  0  0  0  0  0  0  0  0  0
  1 13  1  0  0  0  0
  3  4  1  0  0  0  0
  4  5  1  0  0  0  0
  6  5  1  1  0  0  0
  6 10  1  0  0  0  0
  6 14  2  0  0  0  0
  6 18  1  0  0  0  0
  7 11  1  1  0  0  0
  7 15  1  0  0  0  0
  7 19  2  0  0  0  0
  7 18  1  0  0  0  0
  8 25  1  0  0  0  0
  8 12  1  0  0  0  0
  9 26  2  0  0  0  0
  9 13  1  0  0  0  0
 12 16  1  0  0  0  0
 13 17  2  0  0  0  0
 16 20  1  0  0  0  0
 16 27  1  0  0  0  0
 17 21  1  0  0  0  0
 20  2  1  6  0  0  0
 20 23  1  0  0  0  0
 21 22  1  0  0  0  0
 21 24  2  0  0  0  0
 23  3  1  1  0  0  0
 23 25  1  0  0  0  0
 24 27  1  0  0  0  0
 24 26  1  0  0  0  0
M  CHG  2  10  -1  15  -1
M  END
>  <CHROM.1>
-62.91929268,-167.02629501,-166.73079273,175.53790695,55.58410381,89.28188360
-129.20800791,26.28518136,-6.74674034,40.70674678,-6.95525280,2.92938306
-1.22102639,-2.79243916

>  <Name>
ligand

>  <RI>
0

>  <Rbt.Current_Directory>
/home/itssahil/PROJECTS/Mol_Feturizer/New_Systems/rnas/3D2V

>  <Rbt.Executable>
rbdock ($Id: //depot/dev/client3/rdock/2013.1/src/exe/rbdock.cxx#4 $)

>  <Rbt.Library>
libRbt.so (2013.1, Build901 2013/11/27)

>  <Rbt.Parameter_File>
/export/apps/rDock/src/rDock_2013.1_src/data/scripts/dock_solv.prm

>  <Rbt.Receptor>
prm/pocket_docking_6.prm

>  <SCORE>
-13.816

>  <SCORE.INTER>
-12.9745

>  <SCORE.INTER.CONST>
1

>  <SCORE.INTER.POLAR>
0

>  <SCORE.INTER.ROT>
8

>  <SCORE.INTER.SOLV>
20.6226

>  <SCORE.INTER.VDW>
-24.4572

>  <SCORE.INTER.norm>
-0.480538

>  <SCORE.INTRA>
-0.841493

>  <SCORE.INTRA.DIHEDRAL>
-1.46555

>  <SCORE.INTRA.DIHEDRAL.0>
7.82666

>  <SCORE.INTRA.POLAR>
0

>  <SCORE.INTRA.POLAR.0>
0

>  <SCORE.INTRA.REPUL>
0

>  <SCORE.INTRA.REPUL.0>
0

>  <SCORE.INTRA.SOLV>
-0.819334

>  <SCORE.INTRA.SOLV.lig_0>
-83.2758

>  <SCORE.INTRA.VDW>
0.300948

>  <SCORE.INTRA.VDW.0>
-3.26816

>  <SCORE.INTRA.norm>
-0.0311664

>  <SCORE.RESTR>
0

>  <SCORE.RESTR.CAVITY>
0

>  <SCORE.RESTR.norm>
0

>  <SCORE.SYSTEM>
0

>  <SCORE.SYSTEM.CONST>
0

>  <SCORE.SYSTEM.DIHEDRAL>
0

>  <SCORE.SYSTEM.SOLV>
0

>  <SCORE.SYSTEM.norm>
0

>  <SCORE.heavy>
27

>  <SCORE.norm>
-0.511704

>  <RMSD>
2.956

$$$$
ligand
 OpenBabel11021811473D
libRbt.so/2013.1/901 2013/11/27
 27 28  0  0  0  0  0  0  0  0999 V2000
  -13.3525   37.4244   -1.7115 C   0  0  0  0  0  0  0  0  0  0  0  0
   -6.6783   37.2983   -5.2083 C   0  0  0  0  0  0  0  0  0  0  0  0
   -6.7585   37.6943   -8.1769 C   0  0  0  0  0  0  0  0  0  0  0  0
   -5.8996   38.5084   -9.1465 C   0  0  0  0  0  0  0  0  0  0  0  0
   -4.7207   38.9898   -8.4963 O   0  0  0  0  0  0  0  0  0  0  0  0
   -4.7887   40.3090   -7.5825 P   0  0  1  0  0  0  0  0  0  0  0  0
   -5.5889   42.2716   -9.4438 P   0  0  2  0  0  0  0  0  0  0  0  0
   -8.9241   40.5553   -6.9215 C   0  0  0  0  0  0  0  0  0  0  0  0
  -11.6835   37.9394   -3.4825 N   0  0  0  0  0  0  0  0  0  0  0  0
   -5.1794   39.9451   -6.0719 O   0  5  0  0  0  0  0  0  0  0  0  0
   -4.4375   43.1806   -9.2691 O   0  0  0  0  0  0  0  0  0  0  0  0
   -8.8999   40.3904   -5.5429 C   0  0  0  0  0  0  0  0  0  0  0  0
  -11.9698   37.8864   -2.1724 C   0  0  0  0  0  0  0  0  0  0  0  0
   -3.3842   41.1072   -7.5209 O   0  0  0  0  0  0  0  0  0  0  0  0
   -6.9394   43.0830   -9.7496 O   0  5  0  0  0  0  0  0  0  0  0  0
   -8.1700   39.3385   -4.9877 N   0  0  0  0  0  0  0  0  0  0  0  0
  -11.0521   38.2358   -1.2594 N   0  0  0  0  0  0  0  0  0  0  0  0
   -5.8939   41.3448   -8.1761 O   0  0  0  0  0  0  0  0  0  0  0  0
   -5.3752   41.3164  -10.7032 O   0  0  0  0  0  0  0  0  0  0  0  0
   -7.4765   38.4556   -5.8244 C   0  0  1  0  0  0  0  0  0  0  0  0
   -9.8358   38.6426   -1.6436 C   0  0  0  0  0  0  0  0  0  0  0  0
   -8.9339   38.9847   -0.7293 N   0  0  0  0  0  0  0  0  0  0  0  0
   -7.5010   38.6223   -7.2081 C   0  0  2  0  0  0  0  0  0  0  0  0
   -9.5139   38.7041   -2.9939 C   0  0  0  0  0  0  0  0  0  0  0  0
   -8.2303   39.6765   -7.7444 C   0  0  0  0  0  0  0  0  0  0  0  0
  -10.4950   38.3350   -3.9070 C   0  0  0  0  0  0  0  0  0  0  0  0
   -8.1454   39.1598   -3.5169 C   0  0  0  0  0  0  0  0  0  0  0  0
  1 13  1  0  0  0  0
  3  4  1  0  0  0  0
  4  5  1  0  0  0  0
  6  5  1  6  0  0  0
  6 10  1  0  0  0  0
  6 14  2  0  0  0  0
  6 18  1  0  0  0  0
  7 11  1  1  0  0  0
  7 15  1  0  0  0  0
  7 19  2  0  0  0  0
  7 18  1  0  0  0  0
  8 25  1  0  0  0  0
  8 12  1  0  0  0  0
  9 26  2  0  0  0  0
  9 13  1  0  0  0  0
 12 16  1  0  0  0  0
 13 17  2  0  0  0  0
 16 20  1  0  0  0  0
 16 27  1  0  0  0  0
 17 21  1  0  0  0  0
 20  2  1  1  0  0  0
 20 23  1  0  0  0  0
 21 22  1  0  0  0  0
 21 24  2  0  0  0  0
 23  3  1  6  0  0  0
 23 25  1  0  0  0  0
 24 27  1  0  0  0  0
 24 26  1  0  0  0  0
M  CHG  2  10  -1  15  -1
M  END
>  <CHROM.1>
75.74335339,-81.16656487,87.94485105,-78.05884032,-59.02209130,-128.79290695
-170.48867186,69.45312848,-7.41638244,39.74908542,-6.23562338,2.26003022
-0.29999836,2.24520979

>  <Name>
ligand

>  <RI>
0

>  <Rbt.Current_Directory>
/home/itssahil/PROJECTS/Mol_Feturizer/New_Systems/rnas/3D2V

>  <Rbt.Executable>
rbdock ($Id: //depot/dev/client3/rdock/2013.1/src/exe/rbdock.cxx#4 $)

>  <Rbt.Library>
libRbt.so (2013.1, Build901 2013/11/27)

>  <Rbt.Parameter_File>
/export/apps/rDock/src/rDock_2013.1_src/data/scripts/dock_solv.prm

>  <Rbt.Receptor>
prm/pocket_docking_4.prm

>  <SCORE>
-21.8029

>  <SCORE.INTER>
-22.465

>  <SCORE.INTER.CONST>
1

>  <SCORE.INTER.POLAR>
0

>  <SCORE.INTER.ROT>
8

>  <SCORE.INTER.SOLV>
25.129

>  <SCORE.INTER.VDW>
-32.2863

>  <SCORE.INTER.norm>
-0.832037

>  <SCORE.INTRA>
0.662063

>  <SCORE.INTRA.DIHEDRAL>
1.76738

>  <SCORE.INTRA.DIHEDRAL.0>
7.82666

>  <SCORE.INTRA.POLAR>
0

>  <SCORE.INTRA.POLAR.0>
0

>  <SCORE.INTRA.REPUL>
0

>  <SCORE.INTRA.REPUL.0>
0

>  <SCORE.INTRA.SOLV>
2.85034

>  <SCORE.INTRA.SOLV.lig_0>
-83.2758

>  <SCORE.INTRA.VDW>
-1.64679

>  <SCORE.INTRA.VDW.0>
-3.26816

>  <SCORE.INTRA.norm>
0.0245208

>  <SCORE.RESTR>
0

>  <SCORE.RESTR.CAVITY>
0

>  <SCORE.RESTR.norm>
0

>  <SCORE.SYSTEM>
0

>  <SCORE.SYSTEM.CONST>
0

>  <SCORE.SYSTEM.DIHEDRAL>
0

>  <SCORE.SYSTEM.SOLV>
0

>  <SCORE.SYSTEM.norm>
0

>  <SCORE.heavy>
27

>  <SCORE.norm>
-0.807516

>  <RMSD>
2.967

$$$$
ligand
 OpenBabel11021811473D
libRbt.so/2013.1/901 2013/11/27
 27 28  0  0  0  0  0  0  0  0999 V2000
  -13.3067   37.6199   -1.8550 C   0  0  0  0  0  0  0  0  0  0  0  0
   -5.3558   39.3151   -4.8165 C   0  0  0  0  0  0  0  0  0  0  0  0
   -5.0477   42.1222   -5.8169 C   0  0  0  0  0  0  0  0  0  0  0  0
   -5.1152   43.6295   -6.0704 C   0  0  0  0  0  0  0  0  0  0  0  0
   -5.8712   43.9106   -7.2510 O   0  0  0  0  0  0  0  0  0  0  0  0
   -5.1856   43.7702   -8.6967 P   0  0  1  0  0  0  0  0  0  0  0  0
   -5.3366   40.9565   -8.8276 P   0  0  2  0  0  0  0  0  0  0  0  0
   -8.5586   42.1647   -4.3598 C   0  0  0  0  0  0  0  0  0  0  0  0
  -11.4577   37.5365   -3.5168 N   0  0  0  0  0  0  0  0  0  0  0  0
   -5.5555   45.0157   -9.6343 O   0  5  0  0  0  0  0  0  0  0  0  0
   -6.2543   40.5013   -7.7631 O   0  0  0  0  0  0  0  0  0  0  0  0
   -8.7222   40.8689   -3.8884 C   0  0  0  0  0  0  0  0  0  0  0  0
  -11.8615   37.8769   -2.2831 C   0  0  0  0  0  0  0  0  0  0  0  0
   -3.5719   43.7036   -8.6262 O   0  0  0  0  0  0  0  0  0  0  0  0
   -3.8203   41.0300   -8.3070 O   0  5  0  0  0  0  0  0  0  0  0  0
   -7.6843   39.9472   -4.0326 N   0  0  0  0  0  0  0  0  0  0  0  0
  -11.0072   38.4425   -1.4180 N   0  0  0  0  0  0  0  0  0  0  0  0
   -5.6827   42.4011   -9.4214 O   0  0  0  0  0  0  0  0  0  0  0  0
   -5.3167   39.9242  -10.0432 O   0  0  0  0  0  0  0  0  0  0  0  0
   -6.4926   40.3341   -4.6574 C   0  0  1  0  0  0  0  0  0  0  0  0
   -9.7379   38.6752   -1.7745 C   0  0  0  0  0  0  0  0  0  0  0  0
   -8.8999   39.2346   -0.9078 N   0  0  0  0  0  0  0  0  0  0  0  0
   -6.3291   41.6353   -5.1299 C   0  0  2  0  0  0  0  0  0  0  0  0
   -9.2946   38.3298   -3.0454 C   0  0  0  0  0  0  0  0  0  0  0  0
   -7.3712   42.5413   -4.9757 C   0  0  0  0  0  0  0  0  0  0  0  0
  -10.2132   37.7477   -3.9114 C   0  0  0  0  0  0  0  0  0  0  0  0
   -7.8586   38.5633   -3.5323 C   0  0  0  0  0  0  0  0  0  0  0  0
  1 13  1  0  0  0  0
  3  4  1  0  0  0  0
  4  5  1  0  0  0  0
  6  5  1  1  0  0  0
  6 10  1  0  0  0  0
  6 14  2  0  0  0  0
  6 18  1  0  0  0  0
  7 11  1  1  0  0  0
  7 15  1  0  0  0  0
  7 19  2  0  0  0  0
  7 18  1  0  0  0  0
  8 25  1  0  0  0  0
  8 12  1  0  0  0  0
  9 26  2  0  0  0  0
  9 13  1  0  0  0  0
 12 16  1  0  0  0  0
 13 17  2  0  0  0  0
 16 20  1  0  0  0  0
 16 27  1  0  0  0  0
 17 21  1  0  0  0  0
 20  2  1  1  0  0  0
 20 23  1  0  0  0  0
 21 22  1  0  0  0  0
 21 24  2  0  0  0  0
 23  3  1  6  0  0  0
 23 25  1  0  0  0  0
 24 27  1  0  0  0  0
 24 26  1  0  0  0  0
M  CHG  2  10  -1  15  -1
M  END
>  <CHROM.1>
-81.23407711,-80.55990709,-135.67702404,-64.37836484,83.37977046,-173.37688365
-83.81993528,6.39518553,-7.13570567,40.87497774,-5.80933088,-3.11572602,0.93932821
0.58492949

>  <Name>
ligand

>  <RI>
0

>  <Rbt.Current_Directory>
/home/itssahil/PROJECTS/Mol_Feturizer/New_Systems/rnas/3D2V

>  <Rbt.Executable>
rbdock ($Id: //depot/dev/client3/rdock/2013.1/src/exe/rbdock.cxx#4 $)

>  <Rbt.Library>
libRbt.so (2013.1, Build901 2013/11/27)

>  <Rbt.Parameter_File>
/export/apps/rDock/src/rDock_2013.1_src/data/scripts/dock_solv.prm

>  <Rbt.Receptor>
prm/pocket_docking_2.prm

>  <SCORE>
-5.33162

>  <SCORE.INTER>
-10.2445

>  <SCORE.INTER.CONST>
1

>  <SCORE.INTER.POLAR>
0

>  <SCORE.INTER.ROT>
8

>  <SCORE.INTER.SOLV>
19.2969

>  <SCORE.INTER.VDW>
-22.1953

>  <SCORE.INTER.norm>
-0.379424

>  <SCORE.INTRA>
4.65117

>  <SCORE.INTRA.DIHEDRAL>
3.59805

>  <SCORE.INTRA.DIHEDRAL.0>
7.82666

>  <SCORE.INTRA.POLAR>
0

>  <SCORE.INTRA.POLAR.0>
0

>  <SCORE.INTRA.REPUL>
0

>  <SCORE.INTRA.REPUL.0>
0

>  <SCORE.INTRA.SOLV>
2.59524

>  <SCORE.INTRA.SOLV.lig_0>
-83.2758

>  <SCORE.INTRA.VDW>
1.55453

>  <SCORE.INTRA.VDW.0>
-3.26816

>  <SCORE.INTRA.norm>
0.172266

>  <SCORE.RESTR>
0.261659

>  <SCORE.RESTR.CAVITY>
0.261659

>  <SCORE.RESTR.norm>
0.00969106

>  <SCORE.SYSTEM>
0

>  <SCORE.SYSTEM.CONST>
0

>  <SCORE.SYSTEM.DIHEDRAL>
0

>  <SCORE.SYSTEM.SOLV>
0

>  <SCORE.SYSTEM.norm>
0

>  <SCORE.heavy>
27

>  <SCORE.norm>
-0.197468

>  <RMSD>
2.973

$$$$
ligand
 OpenBabel11021811473D
libRbt.so/2013.1/901 2013/11/27
 27 28  0  0  0  0  0  0  0  0999 V2000
   -9.3360   38.6853   -0.7880 C   0  0  0  0  0  0  0  0  0  0  0  0
   -7.1008   41.5009   -6.6689 C   0  0  0  0  0  0  0  0  0  0  0  0
   -4.4161   40.8268   -7.8149 C   0  0  0  0  0  0  0  0  0  0  0  0
   -4.2304   41.2461   -9.2744 C   0  0  0  0  0  0  0  0  0  0  0  0
   -3.0695   42.0677   -9.4210 O   0  0  0  0  0  0  0  0  0  0  0  0
   -3.0629   43.5620   -8.8318 P   0  0  1  0  0  0  0  0  0  0  0  0
   -5.1736   44.3053  -10.5490 P   0  0  2  0  0  0  0  0  0  0  0  0
   -6.2533   37.5074   -8.0543 C   0  0  0  0  0  0  0  0  0  0  0  0
  -10.3872   39.0001   -3.0203 N   0  0  0  0  0  0  0  0  0  0  0  0
   -3.8729   43.6418   -7.4517 O   0  5  0  0  0  0  0  0  0  0  0  0
   -6.1549   43.7064   -9.6211 O   0  0  0  0  0  0  0  0  0  0  0  0
   -7.5045   37.7984   -7.5272 C   0  0  0  0  0  0  0  0  0  0  0  0
   -9.2597   38.8752   -2.3032 C   0  0  0  0  0  0  0  0  0  0  0  0
   -1.5740   44.1151   -8.5304 O   0  0  0  0  0  0  0  0  0  0  0  0
   -4.9176   43.3647  -11.8240 O   0  5  0  0  0  0  0  0  0  0  0  0
   -7.7806   39.0920   -7.0821 N   0  0  0  0  0  0  0  0  0  0  0  0
   -8.0616   38.9153   -2.9041 N   0  0  0  0  0  0  0  0  0  0  0  0
   -3.7397   44.5872   -9.8983 O   0  0  0  0  0  0  0  0  0  0  0  0
   -5.7167   45.6827  -11.1421 O   0  0  0  0  0  0  0  0  0  0  0  0
   -6.7928   40.0808   -7.1633 C   0  0  1  0  0  0  0  0  0  0  0  0
   -7.9746   39.0804   -4.2298 C   0  0  0  0  0  0  0  0  0  0  0  0
   -6.7816   39.1167   -4.8144 N   0  0  0  0  0  0  0  0  0  0  0  0
   -5.5372   39.7879   -7.6931 C   0  0  2  0  0  0  0  0  0  0  0  0
   -9.1273   39.2099   -4.9949 C   0  0  0  0  0  0  0  0  0  0  0  0
   -5.2798   38.4957   -8.1344 C   0  0  0  0  0  0  0  0  0  0  0  0
  -10.3484   39.1648   -4.3320 C   0  0  0  0  0  0  0  0  0  0  0  0
   -9.1145   39.4033   -6.5169 C   0  0  0  0  0  0  0  0  0  0  0  0
  1 13  1  0  0  0  0
  3  4  1  0  0  0  0
  4  5  1  0  0  0  0
  6  5  1  6  0  0  0
  6 10  1  0  0  0  0
  6 14  2  0  0  0  0
  6 18  1  0  0  0  0
  7 11  1  1  0  0  0
  7 15  1  0  0  0  0
  7 19  2  0  0  0  0
  7 18  1  0  0  0  0
  8 25  1  0  0  0  0
  8 12  1  0  0  0  0
  9 26  2  0  0  0  0
  9 13  1  0  0  0  0
 12 16  1  0  0  0  0
 13 17  2  0  0  0  0
 16 20  1  0  0  0  0
 16 27  1  0  0  0  0
 17 21  1  0  0  0  0
 20  2  1  6  0  0  0
 20 23  1  0  0  0  0
 21 22  1  0  0  0  0
 21 24  2  0  0  0  0
 23  3  1  1  0  0  0
 23 25  1  0  0  0  0
 24 27  1  0  0  0  0
 24 26  1  0  0  0  0
M  CHG  2  10  -1  15  -1
M  END
>  <CHROM.1>
-171.86158886,-70.41214990,36.37274811,51.27295986,38.17136522,-106.51203933
14.37278412,91.66272324,-6.08485972,41.28573909,-7.39387566,2.82084784,-0.99060211
-2.82241555

>  <Name>
ligand

>  <RI>
0

>  <Rbt.Current_Directory>
/home/itssahil/PROJECTS/Mol_Feturizer/New_Systems/rnas/3D2V

>  <Rbt.Executable>
rbdock ($Id: //depot/dev/client3/rdock/2013.1/src/exe/rbdock.cxx#4 $)

>  <Rbt.Library>
libRbt.so (2013.1, Build901 2013/11/27)

>  <Rbt.Parameter_File>
/export/apps/rDock/src/rDock_2013.1_src/data/scripts/dock_solv.prm

>  <Rbt.Receptor>
prm/pocket_docking_3.prm

>  <SCORE>
-9.50099

>  <SCORE.INTER>
-13.3043

>  <SCORE.INTER.CONST>
1

>  <SCORE.INTER.POLAR>
0

>  <SCORE.INTER.ROT>
8

>  <SCORE.INTER.SOLV>
10.4003

>  <SCORE.INTER.VDW>
-21.2696

>  <SCORE.INTER.norm>
-0.492751

>  <SCORE.INTRA>
3.80315

>  <SCORE.INTRA.DIHEDRAL>
-0.273601

>  <SCORE.INTRA.DIHEDRAL.0>
7.82666

>  <SCORE.INTRA.POLAR>
0

>  <SCORE.INTRA.POLAR.0>
0

>  <SCORE.INTRA.REPUL>
0

>  <SCORE.INTRA.REPUL.0>
0

>  <SCORE.INTRA.SOLV>
5.65851

>  <SCORE.INTRA.SOLV.lig_0>
-83.2758

>  <SCORE.INTRA.VDW>
1.11069

>  <SCORE.INTRA.VDW.0>
-3.26816

>  <SCORE.INTRA.norm>
0.140857

>  <SCORE.RESTR>
0.000150979

>  <SCORE.RESTR.CAVITY>
0.000150979

>  <SCORE.RESTR.norm>
5.59182e-06

>  <SCORE.SYSTEM>
0

>  <SCORE.SYSTEM.CONST>
0

>  <SCORE.SYSTEM.DIHEDRAL>
0

>  <SCORE.SYSTEM.SOLV>
0

>  <SCORE.SYSTEM.norm>
0

>  <SCORE.heavy>
27

>  <SCORE.norm>
-0.351888

>  <RMSD>
2.999

$$$$
ligand
 OpenBabel11021811473D
libRbt.so/2013.1/901 2013/11/27
 27 28  0  0  0  0  0  0  0  0999 V2000
   -8.3393   39.7185   -0.0172 C   0  0  0  0  0  0  0  0  0  0  0  0
   -5.6376   37.7975   -6.4003 C   0  0  0  0  0  0  0  0  0  0  0  0
   -4.7453   39.9665   -8.2643 C   0  0  0  0  0  0  0  0  0  0  0  0
   -3.8117   40.5834   -7.2210 C   0  0  0  0  0  0  0  0  0  0  0  0
   -4.1836   41.9363   -6.9463 O   0  0  0  0  0  0  0  0  0  0  0  0
   -3.7324   43.1120   -7.9434 P   0  0  1  0  0  0  0  0  0  0  0  0
   -3.8423   43.7202  -10.6956 P   0  0  2  0  0  0  0  0  0  0  0  0
   -8.3922   40.8607   -7.6713 C   0  0  0  0  0  0  0  0  0  0  0  0
   -7.2414   39.1708   -2.1810 N   0  0  0  0  0  0  0  0  0  0  0  0
   -4.4712   44.4879   -7.5851 O   0  5  0  0  0  0  0  0  0  0  0  0
   -2.4443   44.1775  -10.8344 O   0  0  0  0  0  0  0  0  0  0  0  0
   -8.8265   39.8650   -6.8064 C   0  0  0  0  0  0  0  0  0  0  0  0
   -8.3719   39.2104   -1.4589 C   0  0  0  0  0  0  0  0  0  0  0  0
   -2.1442   43.4092   -7.8910 O   0  0  0  0  0  0  0  0  0  0  0  0
   -4.8461   44.9523  -10.4720 O   0  5  0  0  0  0  0  0  0  0  0  0
   -7.9341   38.8753   -6.3917 N   0  0  0  0  0  0  0  0  0  0  0  0
   -9.5350   38.8072   -1.9907 N   0  0  0  0  0  0  0  0  0  0  0  0
   -4.0864   42.7100   -9.4795 O   0  0  0  0  0  0  0  0  0  0  0  0
   -4.3430   43.0038  -12.0297 O   0  0  0  0  0  0  0  0  0  0  0  0
   -6.6137   38.8906   -6.8569 C   0  0  1  0  0  0  0  0  0  0  0  0
   -9.5835   38.3594   -3.2515 C   0  0  0  0  0  0  0  0  0  0  0  0
  -10.7425   37.9643   -3.7684 N   0  0  0  0  0  0  0  0  0  0  0  0
   -6.1785   39.8908   -7.7247 C   0  0  1  0  0  0  0  0  0  0  0  0
   -8.4273   38.3108   -4.0207 C   0  0  0  0  0  0  0  0  0  0  0  0
   -7.0790   40.8703   -8.1255 C   0  0  0  0  0  0  0  0  0  0  0  0
   -7.2429   38.7361   -3.4300 C   0  0  0  0  0  0  0  0  0  0  0  0
   -8.3970   37.8107   -5.4708 C   0  0  0  0  0  0  0  0  0  0  0  0
  1 13  1  0  0  0  0
  3  4  1  0  0  0  0
  4  5  1  0  0  0  0
  6  5  1  1  0  0  0
  6 10  1  0  0  0  0
  6 14  2  0  0  0  0
  6 18  1  0  0  0  0
  7 11  1  6  0  0  0
  7 15  1  0  0  0  0
  7 19  2  0  0  0  0
  7 18  1  0  0  0  0
  8 25  1  0  0  0  0
  8 12  1  0  0  0  0
  9 26  2  0  0  0  0
  9 13  1  0  0  0  0
 12 16  1  0  0  0  0
 13 17  2  0  0  0  0
 16 20  1  0  0  0  0
 16 27  1  0  0  0  0
 17 21  1  0  0  0  0
 20  2  1  1  0  0  0
 20 23  1  0  0  0  0
 21 22  1  0  0  0  0
 21 24  2  0  0  0  0
 23  3  1  1  0  0  0
 23 25  1  0  0  0  0
 24 27  1  0  0  0  0
 24 26  1  0  0  0  0
M  CHG  2  10  -1  15  -1
M  END
>  <CHROM.1>
-63.71102844,-80.48984772,169.91726738,175.99898201,57.91311101,-80.01162563
119.26897985,-80.01652288,-5.97920815,41.00772605,-6.83771860,-2.36259927
-0.76655171,-1.55809021

>  <Name>
ligand

>  <RI>
0

>  <Rbt.Current_Directory>
/home/itssahil/PROJECTS/Mol_Feturizer/New_Systems/rnas/3D2V

>  <Rbt.Executable>
rbdock ($Id: //depot/dev/client3/rdock/2013.1/src/exe/rbdock.cxx#4 $)

>  <Rbt.Library>
libRbt.so (2013.1, Build901 2013/11/27)

>  <Rbt.Parameter_File>
/export/apps/rDock/src/rDock_2013.1_src/data/scripts/dock_solv.prm

>  <Rbt.Receptor>
prm/pocket_docking_3.prm

>  <SCORE>
-13.4909

>  <SCORE.INTER>
-12.2922

>  <SCORE.INTER.CONST>
1

>  <SCORE.INTER.POLAR>
0

>  <SCORE.INTER.ROT>
8

>  <SCORE.INTER.SOLV>
15.5997

>  <SCORE.INTER.VDW>
-22.328

>  <SCORE.INTER.norm>
-0.455266

>  <SCORE.INTRA>
-1.19875

>  <SCORE.INTRA.DIHEDRAL>
-0.49786

>  <SCORE.INTRA.DIHEDRAL.0>
7.82666

>  <SCORE.INTRA.POLAR>
0

>  <SCORE.INTRA.POLAR.0>
0

>  <SCORE.INTRA.REPUL>
0

>  <SCORE.INTRA.REPUL.0>
0

>  <SCORE.INTRA.SOLV>
-0.389268

>  <SCORE.INTRA.SOLV.lig_0>
-83.2758

>  <SCORE.INTRA.VDW>
-0.755183

>  <SCORE.INTRA.VDW.0>
-3.26816

>  <SCORE.INTRA.norm>
-0.044398

>  <SCORE.RESTR>
0

>  <SCORE.RESTR.CAVITY>
0

>  <SCORE.RESTR.norm>
0

>  <SCORE.SYSTEM>
0

>  <SCORE.SYSTEM.CONST>
0

>  <SCORE.SYSTEM.DIHEDRAL>
0

>  <SCORE.SYSTEM.SOLV>
0

>  <SCORE.SYSTEM.norm>
0

>  <SCORE.heavy>
27

>  <SCORE.norm>
-0.499664

>  <RMSD>
3.005

$$$$
ligand
 OpenBabel11021811473D
libRbt.so/2013.1/901 2013/11/27
 27 28  0  0  0  0  0  0  0  0999 V2000
   -7.8906   39.0690    0.6443 C   0  0  0  0  0  0  0  0  0  0  0  0
   -8.3595   40.7304   -6.8452 C   0  0  0  0  0  0  0  0  0  0  0  0
   -6.4539   39.2554   -8.6251 C   0  0  0  0  0  0  0  0  0  0  0  0
   -4.9520   39.0978   -8.3799 C   0  0  0  0  0  0  0  0  0  0  0  0
   -4.5580   39.7886   -7.1917 O   0  0  0  0  0  0  0  0  0  0  0  0
   -4.3010   41.3737   -7.2316 P   0  0  1  0  0  0  0  0  0  0  0  0
   -2.7522   43.2370   -8.6758 P   0  0  2  0  0  0  0  0  0  0  0  0
   -7.7735   36.4844   -6.3821 C   0  0  0  0  0  0  0  0  0  0  0  0
   -7.6495   39.6230   -1.7687 N   0  0  0  0  0  0  0  0  0  0  0  0
   -5.6425   42.1668   -7.6036 O   0  5  0  0  0  0  0  0  0  0  0  0
   -3.8953   44.1161   -8.9965 O   0  0  0  0  0  0  0  0  0  0  0  0
   -8.6621   37.1483   -5.5468 C   0  0  0  0  0  0  0  0  0  0  0  0
   -8.4110   39.1041   -0.7930 C   0  0  0  0  0  0  0  0  0  0  0  0
   -3.7872   41.9654   -5.8176 O   0  0  0  0  0  0  0  0  0  0  0  0
   -1.7066   43.1626   -9.8910 O   0  5  0  0  0  0  0  0  0  0  0  0
   -8.8549   38.5222   -5.6988 N   0  0  0  0  0  0  0  0  0  0  0  0
   -9.6288   38.6140   -1.0664 N   0  0  0  0  0  0  0  0  0  0  0  0
   -3.1582   41.7279   -8.3340 O   0  0  0  0  0  0  0  0  0  0  0  0
   -1.9229   43.8084   -7.4390 O   0  0  0  0  0  0  0  0  0  0  0  0
   -8.1461   39.2188   -6.6849 C   0  0  1  0  0  0  0  0  0  0  0  0
  -10.1018   38.6363   -2.3187 C   0  0  0  0  0  0  0  0  0  0  0  0
  -11.3112   38.1493   -2.5772 N   0  0  0  0  0  0  0  0  0  0  0  0
   -7.2547   38.5514   -7.5233 C   0  0  1  0  0  0  0  0  0  0  0  0
   -9.3338   39.1703   -3.3463 C   0  0  0  0  0  0  0  0  0  0  0  0
   -7.0766   37.1829   -7.3605 C   0  0  0  0  0  0  0  0  0  0  0  0
   -8.0766   39.6656   -3.0197 C   0  0  0  0  0  0  0  0  0  0  0  0
   -9.8009   39.2324   -4.8064 C   0  0  0  0  0  0  0  0  0  0  0  0
  1 13  1  0  0  0  0
  3  4  1  0  0  0  0
  4  5  1  0  0  0  0
  6  5  1  1  0  0  0
  6 10  1  0  0  0  0
  6 14  2  0  0  0  0
  6 18  1  0  0  0  0
  7 11  1  6  0  0  0
  7 15  1  0  0  0  0
  7 19  2  0  0  0  0
  7 18  1  0  0  0  0
  8 25  1  0  0  0  0
  8 12  1  0  0  0  0
  9 26  2  0  0  0  0
  9 13  1  0  0  0  0
 12 16  1  0  0  0  0
 13 17  2  0  0  0  0
 16 20  1  0  0  0  0
 16 27  1  0  0  0  0
 17 21  1  0  0  0  0
 20  2  1  6  0  0  0
 20 23  1  0  0  0  0
 21 22  1  0  0  0  0
 21 24  2  0  0  0  0
 23  3  1  6  0  0  0
 23 25  1  0  0  0  0
 24 27  1  0  0  0  0
 24 26  1  0  0  0  0
M  CHG  2  10  -1  15  -1
M  END
>  <CHROM.1>
-66.06727605,-81.08152614,63.16128445,175.81436659,-51.26020018,119.75612401
-122.29168953,63.39166805,-6.28514435,40.30268024,-5.96762275,-2.66184660
-0.74745347,-1.88269177

>  <Name>
ligand

>  <RI>
0

>  <Rbt.Current_Directory>
/home/itssahil/PROJECTS/Mol_Feturizer/New_Systems/rnas/3D2V

>  <Rbt.Executable>
rbdock ($Id: //depot/dev/client3/rdock/2013.1/src/exe/rbdock.cxx#4 $)

>  <Rbt.Library>
libRbt.so (2013.1, Build901 2013/11/27)

>  <Rbt.Parameter_File>
/export/apps/rDock/src/rDock_2013.1_src/data/scripts/dock_solv.prm

>  <Rbt.Receptor>
prm/pocket_docking_8.prm

>  <SCORE>
-15.8432

>  <SCORE.INTER>
-15.397

>  <SCORE.INTER.CONST>
1

>  <SCORE.INTER.POLAR>
0

>  <SCORE.INTER.ROT>
8

>  <SCORE.INTER.SOLV>
19.8945

>  <SCORE.INTER.VDW>
-25.8295

>  <SCORE.INTER.norm>
-0.570259

>  <SCORE.INTRA>
-0.446234

>  <SCORE.INTRA.DIHEDRAL>
-0.367206

>  <SCORE.INTRA.DIHEDRAL.0>
7.82666

>  <SCORE.INTRA.POLAR>
0

>  <SCORE.INTRA.POLAR.0>
0

>  <SCORE.INTRA.REPUL>
0

>  <SCORE.INTRA.REPUL.0>
0

>  <SCORE.INTRA.SOLV>
0.746076

>  <SCORE.INTRA.SOLV.lig_0>
-83.2758

>  <SCORE.INTRA.VDW>
-0.635669

>  <SCORE.INTRA.VDW.0>
-3.26816

>  <SCORE.INTRA.norm>
-0.0165272

>  <SCORE.RESTR>
0

>  <SCORE.RESTR.CAVITY>
0

>  <SCORE.RESTR.norm>
0

>  <SCORE.SYSTEM>
0

>  <SCORE.SYSTEM.CONST>
0

>  <SCORE.SYSTEM.DIHEDRAL>
0

>  <SCORE.SYSTEM.SOLV>
0

>  <SCORE.SYSTEM.norm>
0

>  <SCORE.heavy>
27

>  <SCORE.norm>
-0.586787

>  <RMSD>
3.016

$$$$
ligand
 OpenBabel11021811473D
libRbt.so/2013.1/901 2013/11/27
 27 28  0  0  0  0  0  0  0  0999 V2000
   -8.3212   39.6045    0.0207 C   0  0  0  0  0  0  0  0  0  0  0  0
   -8.3318   40.0256   -7.5863 C   0  0  0  0  0  0  0  0  0  0  0  0
   -5.8769   41.2218   -8.8183 C   0  0  0  0  0  0  0  0  0  0  0  0
   -4.9580   40.8583   -9.9863 C   0  0  0  0  0  0  0  0  0  0  0  0
   -3.6056   41.2218   -9.6981 O   0  0  0  0  0  0  0  0  0  0  0  0
   -3.1808   42.7703   -9.6576 P   0  0  1  0  0  0  0  0  0  0  0  0
   -4.2865   43.4177  -12.1705 P   0  0  2  0  0  0  0  0  0  0  0  0
   -4.4096   38.7660   -6.3149 C   0  0  0  0  0  0  0  0  0  0  0  0
   -7.0666   39.0736   -2.0606 N   0  0  0  0  0  0  0  0  0  0  0  0
   -4.2644   43.6454   -8.8656 O   0  5  0  0  0  0  0  0  0  0  0  0
   -4.0702   44.2725  -13.3558 O   0  0  0  0  0  0  0  0  0  0  0  0
   -5.5342   38.1980   -5.7310 C   0  0  0  0  0  0  0  0  0  0  0  0
   -8.2552   39.1780   -1.4462 C   0  0  0  0  0  0  0  0  0  0  0  0
   -1.7599   43.0160   -8.9268 O   0  0  0  0  0  0  0  0  0  0  0  0
   -5.5399   43.9195  -11.3027 O   0  5  0  0  0  0  0  0  0  0  0  0
   -6.8040   38.6028   -6.1450 N   0  0  0  0  0  0  0  0  0  0  0  0
   -9.3904   38.9110   -2.1079 N   0  0  0  0  0  0  0  0  0  0  0  0
   -3.0398   43.3519  -11.1703 O   0  0  0  0  0  0  0  0  0  0  0  0
   -4.6419   41.9239  -12.6019 O   0  0  0  0  0  0  0  0  0  0  0  0
   -6.9326   39.5817   -7.1376 C   0  0  1  0  0  0  0  0  0  0  0  0
   -9.3528   38.5365   -3.3927 C   0  0  0  0  0  0  0  0  0  0  0  0
  -10.4848   38.2763   -4.0387 N   0  0  0  0  0  0  0  0  0  0  0  0
   -5.8031   40.1510   -7.7234 C   0  0  1  0  0  0  0  0  0  0  0  0
   -8.1349   38.4232   -4.0521 C   0  0  0  0  0  0  0  0  0  0  0  0
   -4.5463   39.7346   -7.3019 C   0  0  0  0  0  0  0  0  0  0  0  0
   -6.9824   38.7072   -3.3285 C   0  0  0  0  0  0  0  0  0  0  0  0
   -8.0050   37.9994   -5.5209 C   0  0  0  0  0  0  0  0  0  0  0  0
  1 13  1  0  0  0  0
  3  4  1  0  0  0  0
  4  5  1  0  0  0  0
  6  5  1  6  0  0  0
  6 10  1  0  0  0  0
  6 14  2  0  0  0  0
  6 18  1  0  0  0  0
  7 11  1  6  0  0  0
  7 15  1  0  0  0  0
  7 19  2  0  0  0  0
  7 18  1  0  0  0  0
  8 25  1  0  0  0  0
  8 12  1  0  0  0  0
  9 26  2  0  0  0  0
  9 13  1  0  0  0  0
 12 16  1  0  0  0  0
 13 17  2  0  0  0  0
 16 20  1  0  0  0  0
 16 27  1  0  0  0  0
 17 21  1  0  0  0  0
 20  2  1  6  0  0  0
 20 23  1  0  0  0  0
 21 22  1  0  0  0  0
 21 24  2  0  0  0  0
 23  3  1  6  0  0  0
 23 25  1  0  0  0  0
 24 27  1  0  0  0  0
 24 26  1  0  0  0  0
M  CHG  2  10  -1  15  -1
M  END
>  <CHROM.1>
-81.08113849,-70.77900684,43.95563070,62.82087324,165.24239806,-131.43355322
150.67797698,67.95611398,-5.77593054,40.85833222,-7.56774056,-2.04984518
-0.39355706,-1.28326871

>  <Name>
ligand

>  <RI>
0

>  <Rbt.Current_Directory>
/home/itssahil/PROJECTS/Mol_Feturizer/New_Systems/rnas/3D2V

>  <Rbt.Executable>
rbdock ($Id: //depot/dev/client3/rdock/2013.1/src/exe/rbdock.cxx#4 $)

>  <Rbt.Library>
libRbt.so (2013.1, Build901 2013/11/27)

>  <Rbt.Parameter_File>
/export/apps/rDock/src/rDock_2013.1_src/data/scripts/dock_solv.prm

>  <Rbt.Receptor>
prm/pocket_docking_4.prm

>  <SCORE>
-12.7004

>  <SCORE.INTER>
-15.6927

>  <SCORE.INTER.CONST>
1

>  <SCORE.INTER.POLAR>
0

>  <SCORE.INTER.ROT>
8

>  <SCORE.INTER.SOLV>
18.2439

>  <SCORE.INTER.VDW>
-25.4764

>  <SCORE.INTER.norm>
-0.58121

>  <SCORE.INTRA>
2.99032

>  <SCORE.INTRA.DIHEDRAL>
0.175067

>  <SCORE.INTRA.DIHEDRAL.0>
7.82666

>  <SCORE.INTRA.POLAR>
0

>  <SCORE.INTRA.POLAR.0>
0

>  <SCORE.INTRA.REPUL>
0

>  <SCORE.INTRA.REPUL.0>
0

>  <SCORE.INTRA.SOLV>
3.93829

>  <SCORE.INTRA.SOLV.lig_0>
-83.2758

>  <SCORE.INTRA.VDW>
0.933645

>  <SCORE.INTRA.VDW.0>
-3.26816

>  <SCORE.INTRA.norm>
0.110753

>  <SCORE.RESTR>
0.0019059

>  <SCORE.RESTR.CAVITY>
0.0019059

>  <SCORE.RESTR.norm>
7.05889e-05

>  <SCORE.SYSTEM>
0

>  <SCORE.SYSTEM.CONST>
0

>  <SCORE.SYSTEM.DIHEDRAL>
0

>  <SCORE.SYSTEM.SOLV>
0

>  <SCORE.SYSTEM.norm>
0

>  <SCORE.heavy>
27

>  <SCORE.norm>
-0.470387

>  <RMSD>
3.018

$$$$
ligand
 OpenBabel11021811473D
libRbt.so/2013.1/901 2013/11/27
 27 28  0  0  0  0  0  0  0  0999 V2000
   -8.0008   39.0484    0.5943 C   0  0  0  0  0  0  0  0  0  0  0  0
   -8.1593   40.1094   -7.9576 C   0  0  0  0  0  0  0  0  0  0  0  0
   -5.6499   39.2036   -9.3206 C   0  0  0  0  0  0  0  0  0  0  0  0
   -5.0496   40.4789   -9.9156 C   0  0  0  0  0  0  0  0  0  0  0  0
   -5.6693   41.6391   -9.3553 O   0  0  0  0  0  0  0  0  0  0  0  0
   -5.4197   43.0818  -10.0158 P   0  0  1  0  0  0  0  0  0  0  0  0
   -5.3763   45.7940   -9.2425 P   0  0  2  0  0  0  0  0  0  0  0  0
   -4.6679   39.0729   -5.6505 C   0  0  0  0  0  0  0  0  0  0  0  0
   -8.8142   38.6703   -1.7257 N   0  0  0  0  0  0  0  0  0  0  0  0
   -3.9746   43.1594  -10.7036 O   0  5  0  0  0  0  0  0  0  0  0  0
   -6.3653   46.2868  -10.2231 O   0  0  0  0  0  0  0  0  0  0  0  0
   -5.8208   39.4898   -4.9985 C   0  0  0  0  0  0  0  0  0  0  0  0
   -8.0377   39.3850   -0.8967 C   0  0  0  0  0  0  0  0  0  0  0  0
   -6.5006   43.4471  -11.1612 O   0  0  0  0  0  0  0  0  0  0  0  0
   -3.8735   45.9971   -9.7680 O   0  5  0  0  0  0  0  0  0  0  0  0
   -6.9525   39.8218   -5.7447 N   0  0  0  0  0  0  0  0  0  0  0  0
   -7.2905   40.3955   -1.3642 N   0  0  0  0  0  0  0  0  0  0  0  0
   -5.5246   44.2428   -8.8811 O   0  0  0  0  0  0  0  0  0  0  0  0
   -5.4633   46.6200   -7.8809 O   0  0  0  0  0  0  0  0  0  0  0  0
   -6.9128   39.7396   -7.1418 C   0  0  1  0  0  0  0  0  0  0  0  0
   -7.3094   40.7050   -2.6666 C   0  0  0  0  0  0  0  0  0  0  0  0
   -6.5631   41.7076   -3.1186 N   0  0  0  0  0  0  0  0  0  0  0  0
   -5.7551   39.3205   -7.7954 C   0  0  2  0  0  0  0  0  0  0  0  0
   -8.1033   39.9788   -3.5459 C   0  0  0  0  0  0  0  0  0  0  0  0
   -4.6382   38.9909   -7.0373 C   0  0  0  0  0  0  0  0  0  0  0  0
   -8.8636   38.9409   -3.0194 C   0  0  0  0  0  0  0  0  0  0  0  0
   -8.1827   40.2693   -5.0503 C   0  0  0  0  0  0  0  0  0  0  0  0
  1 13  1  0  0  0  0
  3  4  1  0  0  0  0
  4  5  1  0  0  0  0
  6  5  1  1  0  0  0
  6 10  1  0  0  0  0
  6 14  2  0  0  0  0
  6 18  1  0  0  0  0
  7 11  1  6  0  0  0
  7 15  1  0  0  0  0
  7 19  2  0  0  0  0
  7 18  1  0  0  0  0
  8 25  1  0  0  0  0
  8 12  1  0  0  0  0
  9 26  2  0  0  0  0
  9 13  1  0  0  0  0
 12 16  1  0  0  0  0
 13 17  2  0  0  0  0
 16 20  1  0  0  0  0
 16 27  1  0  0  0  0
 17 21  1  0  0  0  0
 20  2  1  1  0  0  0
 20 23  1  0  0  0  0
 21 22  1  0  0  0  0
 21 24  2  0  0  0  0
 23  3  1  6  0  0  0
 23 25  1  0  0  0  0
 24 27  1  0  0  0  0
 24 26  1  0  0  0  0
M  CHG  2  10  -1  15  -1
M  END
>  <CHROM.1>
-46.28219849,-168.13950386,-29.92273804,-177.67906729,58.94358117,94.84879736
73.74536800,-13.42696836,-6.28194977,41.75422164,-6.86543297,2.75133491,-1.28520205
-2.96284911

>  <Name>
ligand

>  <RI>
0

>  <Rbt.Current_Directory>
/home/itssahil/PROJECTS/Mol_Feturizer/New_Systems/rnas/3D2V

>  <Rbt.Executable>
rbdock ($Id: //depot/dev/client3/rdock/2013.1/src/exe/rbdock.cxx#4 $)

>  <Rbt.Library>
libRbt.so (2013.1, Build901 2013/11/27)

>  <Rbt.Parameter_File>
/export/apps/rDock/src/rDock_2013.1_src/data/scripts/dock_solv.prm

>  <Rbt.Receptor>
prm/pocket_docking_3.prm

>  <SCORE>
-13.468

>  <SCORE.INTER>
-14.2212

>  <SCORE.INTER.CONST>
1

>  <SCORE.INTER.POLAR>
0

>  <SCORE.INTER.ROT>
8

>  <SCORE.INTER.SOLV>
11.4384

>  <SCORE.INTER.VDW>
-22.227

>  <SCORE.INTER.norm>
-0.526713

>  <SCORE.INTRA>
0.656484

>  <SCORE.INTRA.DIHEDRAL>
-0.0910501

>  <SCORE.INTRA.DIHEDRAL.0>
7.82666

>  <SCORE.INTRA.POLAR>
0

>  <SCORE.INTRA.POLAR.0>
0

>  <SCORE.INTRA.REPUL>
0

>  <SCORE.INTRA.REPUL.0>
0

>  <SCORE.INTRA.SOLV>
0.895036

>  <SCORE.INTRA.SOLV.lig_0>
-83.2758

>  <SCORE.INTRA.VDW>
0.254491

>  <SCORE.INTRA.VDW.0>
-3.26816

>  <SCORE.INTRA.norm>
0.0243142

>  <SCORE.RESTR>
0.096808

>  <SCORE.RESTR.CAVITY>
0.096808

>  <SCORE.RESTR.norm>
0.00358548

>  <SCORE.SYSTEM>
0

>  <SCORE.SYSTEM.CONST>
0

>  <SCORE.SYSTEM.DIHEDRAL>
0

>  <SCORE.SYSTEM.SOLV>
0

>  <SCORE.SYSTEM.norm>
0

>  <SCORE.heavy>
27

>  <SCORE.norm>
-0.498813

>  <RMSD>
3.022

$$$$
ligand
 OpenBabel11021811473D
libRbt.so/2013.1/901 2013/11/27
 27 28  0  0  0  0  0  0  0  0999 V2000
  -10.9520   38.2726   -2.2834 C   0  0  0  0  0  0  0  0  0  0  0  0
   -4.6929   41.2945   -5.7629 C   0  0  0  0  0  0  0  0  0  0  0  0
   -4.6827   41.0824   -8.7513 C   0  0  0  0  0  0  0  0  0  0  0  0
   -5.9003   41.8853   -9.2134 C   0  0  0  0  0  0  0  0  0  0  0  0
   -5.4961   43.0149   -9.9911 O   0  0  0  0  0  0  0  0  0  0  0  0
   -6.6025   43.9915  -10.6251 P   0  0  1  0  0  0  0  0  0  0  0  0
   -6.8114   45.4516   -8.2207 P   0  0  2  0  0  0  0  0  0  0  0  0
   -5.9212   37.6450   -7.7017 C   0  0  0  0  0  0  0  0  0  0  0  0
   -9.1740   38.0686   -4.0108 N   0  0  0  0  0  0  0  0  0  0  0  0
   -5.9190   45.1501  -11.4955 O   0  5  0  0  0  0  0  0  0  0  0  0
   -7.7685   46.1590   -7.3455 O   0  0  0  0  0  0  0  0  0  0  0  0
   -5.9341   37.7220   -6.3153 C   0  0  0  0  0  0  0  0  0  0  0  0
   -9.5185   38.4696   -2.7773 C   0  0  0  0  0  0  0  0  0  0  0  0
   -7.6366   43.2237  -11.6022 O   0  0  0  0  0  0  0  0  0  0  0  0
   -5.7399   46.4611   -8.8600 O   0  5  0  0  0  0  0  0  0  0  0  0
   -5.5402   38.9045   -5.6874 N   0  0  0  0  0  0  0  0  0  0  0  0
   -8.6149   39.0438   -1.9699 N   0  0  0  0  0  0  0  0  0  0  0  0
   -7.4886   44.6748   -9.4442 O   0  0  0  0  0  0  0  0  0  0  0  0
   -5.9531   44.3945   -7.3901 O   0  0  0  0  0  0  0  0  0  0  0  0
   -5.1286   39.9978   -6.4591 C   0  0  1  0  0  0  0  0  0  0  0  0
   -7.3548   39.2244   -2.3846 C   0  0  0  0  0  0  0  0  0  0  0  0
   -6.4676   39.7930   -1.5747 N   0  0  0  0  0  0  0  0  0  0  0  0
   -5.1164   39.9197   -7.8507 C   0  0  1  0  0  0  0  0  0  0  0  0
   -6.9725   38.8158   -3.6565 C   0  0  0  0  0  0  0  0  0  0  0  0
   -5.5145   38.7360   -8.4601 C   0  0  0  0  0  0  0  0  0  0  0  0
   -7.9408   38.2271   -4.4617 C   0  0  0  0  0  0  0  0  0  0  0  0
   -5.5510   38.9872   -4.2079 C   0  0  0  0  0  0  0  0  0  0  0  0
  1 13  1  0  0  0  0
  3  4  1  0  0  0  0
  4  5  1  0  0  0  0
  6  5  1  1  0  0  0
  6 10  1  0  0  0  0
  6 14  2  0  0  0  0
  6 18  1  0  0  0  0
  7 11  1  1  0  0  0
  7 15  1  0  0  0  0
  7 19  2  0  0  0  0
  7 18  1  0  0  0  0
  8 25  1  0  0  0  0
  8 12  1  0  0  0  0
  9 26  2  0  0  0  0
  9 13  1  0  0  0  0
 12 16  1  0  0  0  0
 13 17  2  0  0  0  0
 16 20  1  0  0  0  0
 16 27  1  0  0  0  0
 17 21  1  0  0  0  0
 20  2  1  6  0  0  0
 20 23  1  0  0  0  0
 21 22  1  0  0  0  0
 21 24  2  0  0  0  0
 23  3  1  6  0  0  0
 23 25  1  0  0  0  0
 24 27  1  0  0  0  0
 24 26  1  0  0  0  0
M  CHG  2  10  -1  15  -1
M  END
>  <CHROM.1>
176.71853339,178.31673305,-177.91734972,52.96491512,172.21234345,-95.40356527
-160.54228293,-62.69130408,-6.68869225,41.58187463,-6.97328827,1.86405112
-1.02347487,2.58772097

>  <Name>
ligand

>  <RI>
0

>  <Rbt.Current_Directory>
/home/itssahil/PROJECTS/Mol_Feturizer/New_Systems/rnas/3D2V

>  <Rbt.Executable>
rbdock ($Id: //depot/dev/client3/rdock/2013.1/src/exe/rbdock.cxx#4 $)

>  <Rbt.Library>
libRbt.so (2013.1, Build901 2013/11/27)

>  <Rbt.Parameter_File>
/export/apps/rDock/src/rDock_2013.1_src/data/scripts/dock_solv.prm

>  <Rbt.Receptor>
prm/pocket_docking_7.prm

>  <SCORE>
-18.53

>  <SCORE.INTER>
-18.1092

>  <SCORE.INTER.CONST>
1

>  <SCORE.INTER.POLAR>
0

>  <SCORE.INTER.ROT>
8

>  <SCORE.INTER.SOLV>
19.1621

>  <SCORE.INTER.VDW>
-27.3935

>  <SCORE.INTER.norm>
-0.670711

>  <SCORE.INTRA>
-0.420766

>  <SCORE.INTRA.DIHEDRAL>
-2.4044

>  <SCORE.INTRA.DIHEDRAL.0>
7.82666

>  <SCORE.INTRA.POLAR>
0

>  <SCORE.INTRA.POLAR.0>
0

>  <SCORE.INTRA.REPUL>
0

>  <SCORE.INTRA.REPUL.0>
0

>  <SCORE.INTRA.SOLV>
1.33078

>  <SCORE.INTRA.SOLV.lig_0>
-83.2758

>  <SCORE.INTRA.VDW>
0.116044

>  <SCORE.INTRA.VDW.0>
-3.26816

>  <SCORE.INTRA.norm>
-0.0155839

>  <SCORE.RESTR>
0

>  <SCORE.RESTR.CAVITY>
0

>  <SCORE.RESTR.norm>
0

>  <SCORE.SYSTEM>
0

>  <SCORE.SYSTEM.CONST>
0

>  <SCORE.SYSTEM.DIHEDRAL>
0

>  <SCORE.SYSTEM.SOLV>
0

>  <SCORE.SYSTEM.norm>
0

>  <SCORE.heavy>
27

>  <SCORE.norm>
-0.686295

>  <RMSD>
3.029

$$$$
ligand
 OpenBabel11021811473D
libRbt.so/2013.1/901 2013/11/27
 27 28  0  0  0  0  0  0  0  0999 V2000
   -7.6560   39.9421   -0.1709 C   0  0  0  0  0  0  0  0  0  0  0  0
   -5.1853   38.1782   -6.3595 C   0  0  0  0  0  0  0  0  0  0  0  0
   -4.6729   40.2913   -8.4205 C   0  0  0  0  0  0  0  0  0  0  0  0
   -4.1848   41.6283   -7.8592 C   0  0  0  0  0  0  0  0  0  0  0  0
   -2.9999   42.0580   -8.5342 O   0  0  0  0  0  0  0  0  0  0  0  0
   -3.0794   42.5544  -10.0598 P   0  0  1  0  0  0  0  0  0  0  0  0
   -3.8091   45.2125   -9.4610 P   0  0  2  0  0  0  0  0  0  0  0  0
   -8.4470   40.4699   -8.0015 C   0  0  0  0  0  0  0  0  0  0  0  0
   -6.6254   39.1265   -2.2827 N   0  0  0  0  0  0  0  0  0  0  0  0
   -1.6371   42.9986  -10.5980 O   0  5  0  0  0  0  0  0  0  0  0  0
   -2.5654   45.8783   -9.8998 O   0  0  0  0  0  0  0  0  0  0  0  0
   -8.7068   39.4956   -7.0468 C   0  0  0  0  0  0  0  0  0  0  0  0
   -7.7453   39.3516   -1.5784 C   0  0  0  0  0  0  0  0  0  0  0  0
   -3.6209   41.4123  -11.0677 O   0  0  0  0  0  0  0  0  0  0  0  0
   -3.7925   44.9122   -7.8846 O   0  5  0  0  0  0  0  0  0  0  0  0
   -7.6508   38.7561   -6.5122 N   0  0  0  0  0  0  0  0  0  0  0  0
   -8.9472   39.0628   -2.0982 N   0  0  0  0  0  0  0  0  0  0  0  0
   -4.0987   43.8160  -10.1856 O   0  0  0  0  0  0  0  0  0  0  0  0
   -5.0743   46.1541   -9.6987 O   0  0  0  0  0  0  0  0  0  0  0  0
   -6.3424   38.9971   -6.9483 C   0  0  1  0  0  0  0  0  0  0  0  0
   -9.0456   38.5455   -3.3291 C   0  0  0  0  0  0  0  0  0  0  0  0
  -10.2424   38.2652   -3.8344 N   0  0  0  0  0  0  0  0  0  0  0  0
   -6.0826   39.9756   -7.9064 C   0  0  1  0  0  0  0  0  0  0  0  0
   -7.9010   38.3053   -4.0796 C   0  0  0  0  0  0  0  0  0  0  0  0
   -7.1450   40.7049   -8.4263 C   0  0  0  0  0  0  0  0  0  0  0  0
   -6.6755   38.6170   -3.5022 C   0  0  0  0  0  0  0  0  0  0  0  0
   -7.9269   37.7144   -5.4952 C   0  0  0  0  0  0  0  0  0  0  0  0
  1 13  1  0  0  0  0
  3  4  1  0  0  0  0
  4  5  1  0  0  0  0
  6  5  1  1  0  0  0
  6 10  1  0  0  0  0
  6 14  2  0  0  0  0
  6 18  1  0  0  0  0
  7 11  1  6  0  0  0
  7 15  1  0  0  0  0
  7 19  2  0  0  0  0
  7 18  1  0  0  0  0
  8 25  1  0  0  0  0
  8 12  1  0  0  0  0
  9 26  2  0  0  0  0
  9 13  1  0  0  0  0
 12 16  1  0  0  0  0
 13 17  2  0  0  0  0
 16 20  1  0  0  0  0
 16 27  1  0  0  0  0
 17 21  1  0  0  0  0
 20  2  1  1  0  0  0
 20 23  1  0  0  0  0
 21 22  1  0  0  0  0
 21 24  2  0  0  0  0
 23  3  1  1  0  0  0
 23 25  1  0  0  0  0
 24 27  1  0  0  0  0
 24 26  1  0  0  0  0
M  CHG  2  10  -1  15  -1
M  END
>  <CHROM.1>
-168.38175016,70.43238799,179.42979562,63.85397013,61.23153332,-107.00289976
105.22727184,-88.89943872,-5.62883654,41.24139351,-7.09566967,-2.99322492
-1.04528148,-2.28986770

>  <Name>
ligand

>  <RI>
0

>  <Rbt.Current_Directory>
/home/itssahil/PROJECTS/Mol_Feturizer/New_Systems/rnas/3D2V

>  <Rbt.Executable>
rbdock ($Id: //depot/dev/client3/rdock/2013.1/src/exe/rbdock.cxx#4 $)

>  <Rbt.Library>
libRbt.so (2013.1, Build901 2013/11/27)

>  <Rbt.Parameter_File>
/export/apps/rDock/src/rDock_2013.1_src/data/scripts/dock_solv.prm

>  <Rbt.Receptor>
prm/pocket_docking_3.prm

>  <SCORE>
-13.4557

>  <SCORE.INTER>
-12.3161

>  <SCORE.INTER.CONST>
1

>  <SCORE.INTER.POLAR>
0

>  <SCORE.INTER.ROT>
8

>  <SCORE.INTER.SOLV>
19.3236

>  <SCORE.INTER.VDW>
-23.5852

>  <SCORE.INTER.norm>
-0.456151

>  <SCORE.INTRA>
-1.13964

>  <SCORE.INTRA.DIHEDRAL>
-1.56944

>  <SCORE.INTRA.DIHEDRAL.0>
7.82666

>  <SCORE.INTRA.POLAR>
0

>  <SCORE.INTRA.POLAR.0>
0

>  <SCORE.INTRA.REPUL>
0

>  <SCORE.INTRA.REPUL.0>
0

>  <SCORE.INTRA.SOLV>
0.0506102

>  <SCORE.INTRA.SOLV.lig_0>
-83.2758

>  <SCORE.INTRA.VDW>
-0.380226

>  <SCORE.INTRA.VDW.0>
-3.26816

>  <SCORE.INTRA.norm>
-0.0422089

>  <SCORE.RESTR>
0

>  <SCORE.RESTR.CAVITY>
0

>  <SCORE.RESTR.norm>
0

>  <SCORE.SYSTEM>
0

>  <SCORE.SYSTEM.CONST>
0

>  <SCORE.SYSTEM.DIHEDRAL>
0

>  <SCORE.SYSTEM.SOLV>
0

>  <SCORE.SYSTEM.norm>
0

>  <SCORE.heavy>
27

>  <SCORE.norm>
-0.49836

>  <RMSD>
3.056

$$$$
ligand
 OpenBabel11021811473D
libRbt.so/2013.1/901 2013/11/27
 27 28  0  0  0  0  0  0  0  0999 V2000
  -12.3569   37.7374   -1.8168 C   0  0  0  0  0  0  0  0  0  0  0  0
   -5.0610   39.4659   -5.4006 C   0  0  0  0  0  0  0  0  0  0  0  0
   -5.1364   41.8811   -7.1717 C   0  0  0  0  0  0  0  0  0  0  0  0
   -3.7595   42.3234   -6.6728 C   0  0  0  0  0  0  0  0  0  0  0  0
   -3.8414   43.5933   -6.0209 O   0  0  0  0  0  0  0  0  0  0  0  0
   -2.5032   44.3284   -5.5220 P   0  0  1  0  0  0  0  0  0  0  0  0
   -0.4170   45.8413   -6.6688 P   0  0  2  0  0  0  0  0  0  0  0  0
   -7.9380   42.6005   -4.7050 C   0  0  0  0  0  0  0  0  0  0  0  0
  -10.4924   38.0512   -3.4332 N   0  0  0  0  0  0  0  0  0  0  0  0
   -2.7866   45.2249   -4.2247 O   0  5  0  0  0  0  0  0  0  0  0  0
    0.5999   44.8831   -7.1489 O   0  0  0  0  0  0  0  0  0  0  0  0
   -7.9200   41.4900   -3.8716 C   0  0  0  0  0  0  0  0  0  0  0  0
  -10.9279   38.1530   -2.1679 C   0  0  0  0  0  0  0  0  0  0  0  0
   -1.3257   43.2943   -5.1251 O   0  0  0  0  0  0  0  0  0  0  0  0
   -0.1331   46.2931   -5.1552 O   0  5  0  0  0  0  0  0  0  0  0  0
   -6.9864   40.4768   -4.0941 N   0  0  0  0  0  0  0  0  0  0  0  0
  -10.1197   38.6176   -1.2040 N   0  0  0  0  0  0  0  0  0  0  0  0
   -1.9154   45.2820   -6.7017 O   0  0  0  0  0  0  0  0  0  0  0  0
   -0.3822   47.1864   -7.5251 O   0  0  0  0  0  0  0  0  0  0  0  0
   -6.0833   40.5850   -5.1585 C   0  0  1  0  0  0  0  0  0  0  0  0
   -8.8653   38.9861   -1.4920 C   0  0  0  0  0  0  0  0  0  0  0  0
   -8.0729   39.4433   -0.5279 N   0  0  0  0  0  0  0  0  0  0  0  0
   -6.1018   41.7005   -5.9943 C   0  0  1  0  0  0  0  0  0  0  0  0
   -8.3897   38.8881   -2.7939 C   0  0  0  0  0  0  0  0  0  0  0  0
   -7.0358   42.7015   -5.7570 C   0  0  0  0  0  0  0  0  0  0  0  0
   -9.2610   38.4035   -3.7627 C   0  0  0  0  0  0  0  0  0  0  0  0
   -6.9678   39.2899   -3.2071 C   0  0  0  0  0  0  0  0  0  0  0  0
  1 13  1  0  0  0  0
  3  4  1  0  0  0  0
  4  5  1  0  0  0  0
  6  5  1  6  0  0  0
  6 10  1  0  0  0  0
  6 14  2  0  0  0  0
  6 18  1  0  0  0  0
  7 11  1  6  0  0  0
  7 15  1  0  0  0  0
  7 19  2  0  0  0  0
  7 18  1  0  0  0  0
  8 25  1  0  0  0  0
  8 12  1  0  0  0  0
  9 26  2  0  0  0  0
  9 13  1  0  0  0  0
 12 16  1  0  0  0  0
 13 17  2  0  0  0  0
 16 20  1  0  0  0  0
 16 27  1  0  0  0  0
 17 21  1  0  0  0  0
 20  2  1  1  0  0  0
 20 23  1  0  0  0  0
 21 22  1  0  0  0  0
 21 24  2  0  0  0  0
 23  3  1  1  0  0  0
 23 25  1  0  0  0  0
 24 27  1  0  0  0  0
 24 26  1  0  0  0  0
M  CHG  2  10  -1  15  -1
M  END
>  <CHROM.1>
-62.42171854,-174.72594463,-149.51922849,-163.65504643,81.58829542,-77.67129568
-112.82113116,36.68994285,-5.12430537,42.16572146,-4.76382191,-2.86113485
-0.67704687,-1.66309362

>  <Name>
ligand

>  <RI>
0

>  <Rbt.Current_Directory>
/home/itssahil/PROJECTS/Mol_Feturizer/New_Systems/rnas/3D2V

>  <Rbt.Executable>
rbdock ($Id: //depot/dev/client3/rdock/2013.1/src/exe/rbdock.cxx#4 $)

>  <Rbt.Library>
libRbt.so (2013.1, Build901 2013/11/27)

>  <Rbt.Parameter_File>
/export/apps/rDock/src/rDock_2013.1_src/data/scripts/dock_solv.prm

>  <Rbt.Receptor>
prm/pocket_docking_8.prm

>  <SCORE>
-15.8752

>  <SCORE.INTER>
-15.7634

>  <SCORE.INTER.CONST>
1

>  <SCORE.INTER.POLAR>
0

>  <SCORE.INTER.ROT>
8

>  <SCORE.INTER.SOLV>
17.6238

>  <SCORE.INTER.VDW>
-25.3168

>  <SCORE.INTER.norm>
-0.583829

>  <SCORE.INTRA>
-0.111805

>  <SCORE.INTRA.DIHEDRAL>
-0.151101

>  <SCORE.INTRA.DIHEDRAL.0>
7.82666

>  <SCORE.INTRA.POLAR>
0

>  <SCORE.INTRA.POLAR.0>
0

>  <SCORE.INTRA.REPUL>
0

>  <SCORE.INTRA.REPUL.0>
0

>  <SCORE.INTRA.SOLV>
-0.191715

>  <SCORE.INTRA.SOLV.lig_0>
-83.2758

>  <SCORE.INTRA.VDW>
0.0596027

>  <SCORE.INTRA.VDW.0>
-3.26816

>  <SCORE.INTRA.norm>
-0.00414094

>  <SCORE.RESTR>
0

>  <SCORE.RESTR.CAVITY>
0

>  <SCORE.RESTR.norm>
0

>  <SCORE.SYSTEM>
0

>  <SCORE.SYSTEM.CONST>
0

>  <SCORE.SYSTEM.DIHEDRAL>
0

>  <SCORE.SYSTEM.SOLV>
0

>  <SCORE.SYSTEM.norm>
0

>  <SCORE.heavy>
27

>  <SCORE.norm>
-0.587969

>  <RMSD>
3.086

$$$$
ligand
 OpenBabel11021811473D
libRbt.so/2013.1/901 2013/11/27
 27 28  0  0  0  0  0  0  0  0999 V2000
  -12.4410   37.6447   -1.6805 C   0  0  0  0  0  0  0  0  0  0  0  0
   -5.5229   39.2406   -5.5763 C   0  0  0  0  0  0  0  0  0  0  0  0
   -5.5660   41.6537   -7.3513 C   0  0  0  0  0  0  0  0  0  0  0  0
   -6.5028   41.8910   -8.5373 C   0  0  0  0  0  0  0  0  0  0  0  0
   -7.2442   43.1010   -8.3623 O   0  0  0  0  0  0  0  0  0  0  0  0
   -6.5179   44.5219   -8.5448 P   0  0  1  0  0  0  0  0  0  0  0  0
   -6.2560   44.1184  -11.3242 P   0  0  2  0  0  0  0  0  0  0  0  0
   -7.8670   42.6986   -4.5114 C   0  0  0  0  0  0  0  0  0  0  0  0
  -10.1456   38.4328   -1.1350 N   0  0  0  0  0  0  0  0  0  0  0  0
   -7.1488   45.6224   -7.5659 O   0  5  0  0  0  0  0  0  0  0  0  0
   -7.1073   42.9253  -11.5099 O   0  0  0  0  0  0  0  0  0  0  0  0
   -7.8607   41.5910   -3.6740 C   0  0  0  0  0  0  0  0  0  0  0  0
  -11.0297   38.0769   -2.0798 C   0  0  0  0  0  0  0  0  0  0  0  0
   -4.9343   44.4671   -8.2245 O   0  0  0  0  0  0  0  0  0  0  0  0
   -4.7185   43.7165  -11.1002 O   0  5  0  0  0  0  0  0  0  0  0  0
   -7.0991   40.4728   -4.0165 N   0  0  0  0  0  0  0  0  0  0  0  0
  -10.6871   38.0964   -3.3760 N   0  0  0  0  0  0  0  0  0  0  0  0
   -6.6707   45.0356  -10.0808 O   0  0  0  0  0  0  0  0  0  0  0  0
   -6.2674   45.0356  -12.6290 O   0  0  0  0  0  0  0  0  0  0  0  0
   -6.3559   40.4746   -5.2030 C   0  0  1  0  0  0  0  0  0  0  0  0
   -9.4563   38.4722   -3.7452 C   0  0  0  0  0  0  0  0  0  0  0  0
   -9.1289   38.4893   -5.0332 N   0  0  0  0  0  0  0  0  0  0  0  0
   -6.3624   41.5872   -6.0427 C   0  0  2  0  0  0  0  0  0  0  0  0
   -8.5233   38.8474   -2.7862 C   0  0  0  0  0  0  0  0  0  0  0  0
   -7.1237   42.6933   -5.6855 C   0  0  0  0  0  0  0  0  0  0  0  0
   -8.9191   38.8109   -1.4541 C   0  0  0  0  0  0  0  0  0  0  0  0
   -7.0936   39.2891   -3.1250 C   0  0  0  0  0  0  0  0  0  0  0  0
  1 13  1  0  0  0  0
  3  4  1  0  0  0  0
  4  5  1  0  0  0  0
  6  5  1  1  0  0  0
  6 10  1  0  0  0  0
  6 14  2  0  0  0  0
  6 18  1  0  0  0  0
  7 11  1  6  0  0  0
  7 15  1  0  0  0  0
  7 19  2  0  0  0  0
  7 18  1  0  0  0  0
  8 25  1  0  0  0  0
  8 12  1  0  0  0  0
  9 26  2  0  0  0  0
  9 13  1  0  0  0  0
 12 16  1  0  0  0  0
 13 17  2  0  0  0  0
 16 20  1  0  0  0  0
 16 27  1  0  0  0  0
 17 21  1  0  0  0  0
 20  2  1  1  0  0  0
 20 23  1  0  0  0  0
 21 22  1  0  0  0  0
 21 24  2  0  0  0  0
 23  3  1  6  0  0  0
 23 25  1  0  0  0  0
 24 27  1  0  0  0  0
 24 26  1  0  0  0  0
M  CHG  2  10  -1  15  -1
M  END
>  <CHROM.1>
58.24787374,73.59871599,-147.33189010,-52.65085717,67.22276699,120.85141718
59.09820800,51.06681314,-7.41517333,41.74272878,-6.61905432,1.98265577,0.55891337
1.97090104

>  <Name>
ligand

>  <RI>
0

>  <Rbt.Current_Directory>
/home/itssahil/PROJECTS/Mol_Feturizer/New_Systems/rnas/3D2V

>  <Rbt.Executable>
rbdock ($Id: //depot/dev/client3/rdock/2013.1/src/exe/rbdock.cxx#4 $)

>  <Rbt.Library>
libRbt.so (2013.1, Build901 2013/11/27)

>  <Rbt.Parameter_File>
/export/apps/rDock/src/rDock_2013.1_src/data/scripts/dock_solv.prm

>  <Rbt.Receptor>
prm/pocket_docking_4.prm

>  <SCORE>
-18.6128

>  <SCORE.INTER>
-19.6237

>  <SCORE.INTER.CONST>
1

>  <SCORE.INTER.POLAR>
0

>  <SCORE.INTER.ROT>
8

>  <SCORE.INTER.SOLV>
16.0716

>  <SCORE.INTER.VDW>
-27.373

>  <SCORE.INTER.norm>
-0.726804

>  <SCORE.INTRA>
1.00365

>  <SCORE.INTRA.DIHEDRAL>
-0.220168

>  <SCORE.INTRA.DIHEDRAL.0>
7.82666

>  <SCORE.INTRA.POLAR>
0

>  <SCORE.INTRA.POLAR.0>
0

>  <SCORE.INTRA.REPUL>
0

>  <SCORE.INTRA.REPUL.0>
0

>  <SCORE.INTRA.SOLV>
3.51142

>  <SCORE.INTRA.SOLV.lig_0>
-83.2758

>  <SCORE.INTRA.VDW>
-0.641973

>  <SCORE.INTRA.VDW.0>
-3.26816

>  <SCORE.INTRA.norm>
0.0371723

>  <SCORE.RESTR>
0.00728699

>  <SCORE.RESTR.CAVITY>
0.00728699

>  <SCORE.RESTR.norm>
0.000269888

>  <SCORE.SYSTEM>
0

>  <SCORE.SYSTEM.CONST>
0

>  <SCORE.SYSTEM.DIHEDRAL>
0

>  <SCORE.SYSTEM.SOLV>
0

>  <SCORE.SYSTEM.norm>
0

>  <SCORE.heavy>
27

>  <SCORE.norm>
-0.689362

>  <RMSD>
3.108

$$$$
ligand
 OpenBabel11021811473D
libRbt.so/2013.1/901 2013/11/27
 27 28  0  0  0  0  0  0  0  0999 V2000
  -13.5639   37.3946   -1.5442 C   0  0  0  0  0  0  0  0  0  0  0  0
   -6.6930   37.5593   -5.2562 C   0  0  0  0  0  0  0  0  0  0  0  0
   -6.8896   37.6558   -8.2441 C   0  0  0  0  0  0  0  0  0  0  0  0
   -5.6795   38.4827   -8.6829 C   0  0  0  0  0  0  0  0  0  0  0  0
   -6.0973   39.7050   -9.2957 O   0  0  0  0  0  0  0  0  0  0  0  0
   -5.0040   40.7888   -9.7541 P   0  0  1  0  0  0  0  0  0  0  0  0
   -6.6390   42.9651   -9.0145 P   0  0  2  0  0  0  0  0  0  0  0  0
   -9.6147   40.0817   -7.1766 C   0  0  0  0  0  0  0  0  0  0  0  0
  -11.9898   37.8453   -3.4167 N   0  0  0  0  0  0  0  0  0  0  0  0
   -3.9089   41.0241   -8.6084 O   0  5  0  0  0  0  0  0  0  0  0  0
   -7.5391   42.0793   -8.2479 O   0  0  0  0  0  0  0  0  0  0  0  0
   -9.5403   40.0526   -5.7903 C   0  0  0  0  0  0  0  0  0  0  0  0
  -12.2221   37.8779   -2.0954 C   0  0  0  0  0  0  0  0  0  0  0  0
   -4.1983   40.3487  -11.0848 O   0  0  0  0  0  0  0  0  0  0  0  0
   -7.4596   44.0830   -9.8223 O   0  5  0  0  0  0  0  0  0  0  0  0
   -8.5922   39.2391   -5.1683 N   0  0  0  0  0  0  0  0  0  0  0  0
  -11.2858   38.3318   -1.2496 N   0  0  0  0  0  0  0  0  0  0  0  0
   -5.7276   42.2069  -10.0886 O   0  0  0  0  0  0  0  0  0  0  0  0
   -5.6694   43.7741   -8.0401 O   0  0  0  0  0  0  0  0  0  0  0  0
   -7.7315   38.4549   -5.9458 C   0  0  1  0  0  0  0  0  0  0  0  0
  -10.1047   38.7589   -1.7134 C   0  0  0  0  0  0  0  0  0  0  0  0
   -9.1838   39.2049   -0.8652 N   0  0  0  0  0  0  0  0  0  0  0  0
   -7.8066   38.4852   -7.3374 C   0  0  2  0  0  0  0  0  0  0  0  0
   -9.8388   38.7332   -3.0770 C   0  0  0  0  0  0  0  0  0  0  0  0
   -8.7543   39.3028   -7.9408 C   0  0  0  0  0  0  0  0  0  0  0  0
  -10.8376   38.2571   -3.9186 C   0  0  0  0  0  0  0  0  0  0  0  0
   -8.5134   39.2050   -3.6890 C   0  0  0  0  0  0  0  0  0  0  0  0
  1 13  1  0  0  0  0
  3  4  1  0  0  0  0
  4  5  1  0  0  0  0
  6  5  1  1  0  0  0
  6 10  1  0  0  0  0
  6 14  2  0  0  0  0
  6 18  1  0  0  0  0
  7 11  1  1  0  0  0
  7 15  1  0  0  0  0
  7 19  2  0  0  0  0
  7 18  1  0  0  0  0
  8 25  1  0  0  0  0
  8 12  1  0  0  0  0
  9 26  2  0  0  0  0
  9 13  1  0  0  0  0
 12 16  1  0  0  0  0
 13 17  2  0  0  0  0
 16 20  1  0  0  0  0
 16 27  1  0  0  0  0
 17 21  1  0  0  0  0
 20  2  1  6  0  0  0
 20 23  1  0  0  0  0
 21 22  1  0  0  0  0
 21 24  2  0  0  0  0
 23  3  1  1  0  0  0
 23 25  1  0  0  0  0
 24 27  1  0  0  0  0
 24 26  1  0  0  0  0
M  CHG  2  10  -1  15  -1
M  END
>  <CHROM.1>
-54.58140017,176.00231523,-46.02105878,56.37254168,-41.92326696,-94.68320356
-171.96441789,59.83876244,-7.85880024,39.97861127,-6.59657020,2.51623202
-0.79557364,2.79193098

>  <Name>
ligand

>  <RI>
0

>  <Rbt.Current_Directory>
/home/itssahil/PROJECTS/Mol_Feturizer/New_Systems/rnas/3D2V

>  <Rbt.Executable>
rbdock ($Id: //depot/dev/client3/rdock/2013.1/src/exe/rbdock.cxx#4 $)

>  <Rbt.Library>
libRbt.so (2013.1, Build901 2013/11/27)

>  <Rbt.Parameter_File>
/export/apps/rDock/src/rDock_2013.1_src/data/scripts/dock_solv.prm

>  <Rbt.Receptor>
prm/pocket_docking_4.prm

>  <SCORE>
-26.6575

>  <SCORE.INTER>
-23.9343

>  <SCORE.INTER.CONST>
1

>  <SCORE.INTER.POLAR>
0

>  <SCORE.INTER.ROT>
8

>  <SCORE.INTER.SOLV>
27.1421

>  <SCORE.INTER.VDW>
-33.9369

>  <SCORE.INTER.norm>
-0.886457

>  <SCORE.INTRA>
-2.72313

>  <SCORE.INTRA.DIHEDRAL>
-1.64165

>  <SCORE.INTRA.DIHEDRAL.0>
7.82666

>  <SCORE.INTRA.POLAR>
0

>  <SCORE.INTRA.POLAR.0>
0

>  <SCORE.INTRA.REPUL>
0

>  <SCORE.INTRA.REPUL.0>
0

>  <SCORE.INTRA.SOLV>
-2.6563

>  <SCORE.INTRA.SOLV.lig_0>
-83.2758

>  <SCORE.INTRA.VDW>
-0.57415

>  <SCORE.INTRA.VDW.0>
-3.26816

>  <SCORE.INTRA.norm>
-0.100857

>  <SCORE.RESTR>
0

>  <SCORE.RESTR.CAVITY>
0

>  <SCORE.RESTR.norm>
0

>  <SCORE.SYSTEM>
0

>  <SCORE.SYSTEM.CONST>
0

>  <SCORE.SYSTEM.DIHEDRAL>
0

>  <SCORE.SYSTEM.SOLV>
0

>  <SCORE.SYSTEM.norm>
0

>  <SCORE.heavy>
27

>  <SCORE.norm>
-0.987313

>  <RMSD>
3.127

$$$$
ligand
 OpenBabel11021811473D
libRbt.so/2013.1/901 2013/11/27
 27 28  0  0  0  0  0  0  0  0999 V2000
   -7.9947   39.2682    0.4208 C   0  0  0  0  0  0  0  0  0  0  0  0
   -8.3789   40.0185   -7.7227 C   0  0  0  0  0  0  0  0  0  0  0  0
   -5.6889   40.0286   -9.0415 C   0  0  0  0  0  0  0  0  0  0  0  0
   -5.1056   41.4095   -8.7357 C   0  0  0  0  0  0  0  0  0  0  0  0
   -6.0255   42.1883   -7.9665 O   0  0  0  0  0  0  0  0  0  0  0  0
   -5.6374   43.6818   -7.5207 P   0  0  1  0  0  0  0  0  0  0  0  0
   -6.8953   44.8493   -9.7593 P   0  0  2  0  0  0  0  0  0  0  0  0
   -5.0880   37.8319   -5.9977 C   0  0  0  0  0  0  0  0  0  0  0  0
   -7.1992   39.3107   -1.9356 N   0  0  0  0  0  0  0  0  0  0  0  0
   -6.6847   44.2558   -6.4527 O   0  5  0  0  0  0  0  0  0  0  0  0
   -8.0823   45.3985   -9.0723 O   0  0  0  0  0  0  0  0  0  0  0  0
   -6.3266   37.8132   -5.3703 C   0  0  0  0  0  0  0  0  0  0  0  0
   -8.2018   39.0594   -1.0797 C   0  0  0  0  0  0  0  0  0  0  0  0
   -4.1757   43.7765   -6.8366 O   0  0  0  0  0  0  0  0  0  0  0  0
   -7.1988   43.4098  -10.4007 O   0  5  0  0  0  0  0  0  0  0  0  0
   -7.3932   38.5178   -5.9304 N   0  0  0  0  0  0  0  0  0  0  0  0
   -9.3885   38.6253   -1.5283 N   0  0  0  0  0  0  0  0  0  0  0  0
   -5.6160   44.6651   -8.8166 O   0  0  0  0  0  0  0  0  0  0  0  0
   -6.4659   45.7760  -10.9844 O   0  0  0  0  0  0  0  0  0  0  0  0
   -7.2032   39.2424   -7.1132 C   0  0  1  0  0  0  0  0  0  0  0  0
   -9.5889   38.4369   -2.8385 C   0  0  0  0  0  0  0  0  0  0  0  0
  -10.7701   38.0081   -3.2715 N   0  0  0  0  0  0  0  0  0  0  0  0
   -5.9595   39.2602   -7.7425 C   0  0  1  0  0  0  0  0  0  0  0  0
   -8.5675   38.6920   -3.7454 C   0  0  0  0  0  0  0  0  0  0  0  0
   -4.9090   38.5509   -7.1732 C   0  0  0  0  0  0  0  0  0  0  0  0
   -7.3528   39.1386   -3.2379 C   0  0  0  0  0  0  0  0  0  0  0  0
   -8.7148   38.5008   -5.2606 C   0  0  0  0  0  0  0  0  0  0  0  0
  1 13  1  0  0  0  0
  3  4  1  0  0  0  0
  4  5  1  0  0  0  0
  6  5  1  6  0  0  0
  6 10  1  0  0  0  0
  6 14  2  0  0  0  0
  6 18  1  0  0  0  0
  7 11  1  1  0  0  0
  7 15  1  0  0  0  0
  7 19  2  0  0  0  0
  7 18  1  0  0  0  0
  8 25  1  0  0  0  0
  8 12  1  0  0  0  0
  9 26  2  0  0  0  0
  9 13  1  0  0  0  0
 12 16  1  0  0  0  0
 13 17  2  0  0  0  0
 16 20  1  0  0  0  0
 16 27  1  0  0  0  0
 17 21  1  0  0  0  0
 20  2  1  6  0  0  0
 20 23  1  0  0  0  0
 21 22  1  0  0  0  0
 21 24  2  0  0  0  0
 23  3  1  6  0  0  0
 23 25  1  0  0  0  0
 24 27  1  0  0  0  0
 24 26  1  0  0  0  0
M  CHG  2  10  -1  15  -1
M  END
>  <CHROM.1>
-61.32681329,-179.96788372,-169.45880713,57.22311660,61.12532529,95.12118718
-165.73985771,43.90309395,-6.97621199,41.22563038,-6.45040801,2.16567150
-1.15977186,2.84332733

>  <Name>
ligand

>  <RI>
0

>  <Rbt.Current_Directory>
/home/itssahil/PROJECTS/Mol_Feturizer/New_Systems/rnas/3D2V

>  <Rbt.Executable>
rbdock ($Id: //depot/dev/client3/rdock/2013.1/src/exe/rbdock.cxx#4 $)

>  <Rbt.Library>
libRbt.so (2013.1, Build901 2013/11/27)

>  <Rbt.Parameter_File>
/export/apps/rDock/src/rDock_2013.1_src/data/scripts/dock_solv.prm

>  <Rbt.Receptor>
prm/pocket_docking_5.prm

>  <SCORE>
-15.5816

>  <SCORE.INTER>
-14.23

>  <SCORE.INTER.CONST>
1

>  <SCORE.INTER.POLAR>
0

>  <SCORE.INTER.ROT>
8

>  <SCORE.INTER.SOLV>
20.357

>  <SCORE.INTER.VDW>
-25.2057

>  <SCORE.INTER.norm>
-0.527038

>  <SCORE.INTRA>
-1.35162

>  <SCORE.INTRA.DIHEDRAL>
-2.43656

>  <SCORE.INTRA.DIHEDRAL.0>
7.82666

>  <SCORE.INTRA.POLAR>
0

>  <SCORE.INTRA.POLAR.0>
0

>  <SCORE.INTRA.REPUL>
0

>  <SCORE.INTRA.REPUL.0>
0

>  <SCORE.INTRA.SOLV>
-0.958914

>  <SCORE.INTRA.SOLV.lig_0>
-83.2758

>  <SCORE.INTRA.VDW>
0.346117

>  <SCORE.INTRA.VDW.0>
-3.26816

>  <SCORE.INTRA.norm>
-0.05006

>  <SCORE.RESTR>
0

>  <SCORE.RESTR.CAVITY>
0

>  <SCORE.RESTR.norm>
0

>  <SCORE.SYSTEM>
0

>  <SCORE.SYSTEM.CONST>
0

>  <SCORE.SYSTEM.DIHEDRAL>
0

>  <SCORE.SYSTEM.SOLV>
0

>  <SCORE.SYSTEM.norm>
0

>  <SCORE.heavy>
27

>  <SCORE.norm>
-0.577098

>  <RMSD>
3.161

$$$$
ligand
 OpenBabel11021811473D
libRbt.so/2013.1/901 2013/11/27
 27 28  0  0  0  0  0  0  0  0999 V2000
   -8.9936   39.2280   -0.2937 C   0  0  0  0  0  0  0  0  0  0  0  0
   -6.1757   37.7531   -7.8223 C   0  0  0  0  0  0  0  0  0  0  0  0
   -5.3616   40.1797   -9.3792 C   0  0  0  0  0  0  0  0  0  0  0  0
   -4.0921   40.8053   -8.7982 C   0  0  0  0  0  0  0  0  0  0  0  0
   -4.3575   42.1192   -8.3007 O   0  0  0  0  0  0  0  0  0  0  0  0
   -4.6908   43.3131   -9.3223 P   0  0  1  0  0  0  0  0  0  0  0  0
   -5.5884   45.9851   -9.2181 P   0  0  2  0  0  0  0  0  0  0  0  0
   -8.1937   41.5155   -7.2238 C   0  0  0  0  0  0  0  0  0  0  0  0
   -9.8561   38.5133   -2.5146 N   0  0  0  0  0  0  0  0  0  0  0  0
   -3.4690   43.5718  -10.3260 O   0  5  0  0  0  0  0  0  0  0  0  0
   -4.8370   46.4148  -10.4152 O   0  0  0  0  0  0  0  0  0  0  0  0
   -8.5867   40.4034   -6.4911 C   0  0  0  0  0  0  0  0  0  0  0  0
   -8.8065   38.9068   -1.7768 C   0  0  0  0  0  0  0  0  0  0  0  0
   -5.9902   43.0165  -10.2373 O   0  0  0  0  0  0  0  0  0  0  0  0
   -5.6315   47.1390   -8.1035 O   0  5  0  0  0  0  0  0  0  0  0  0
   -7.9312   39.1861   -6.6818 N   0  0  0  0  0  0  0  0  0  0  0  0
   -7.5899   39.0218   -2.3289 N   0  0  0  0  0  0  0  0  0  0  0  0
   -4.9954   44.6839   -8.5009 O   0  0  0  0  0  0  0  0  0  0  0  0
   -7.1135   45.6882   -9.5783 O   0  0  0  0  0  0  0  0  0  0  0  0
   -6.8907   39.0953   -7.6141 C   0  0  1  0  0  0  0  0  0  0  0  0
   -7.4063   38.7446   -3.6257 C   0  0  0  0  0  0  0  0  0  0  0  0
   -6.1955   38.8604   -4.1613 N   0  0  0  0  0  0  0  0  0  0  0  0
   -6.4966   40.2124   -8.3488 C   0  0  1  0  0  0  0  0  0  0  0  0
   -8.4766   38.3330   -4.4106 C   0  0  0  0  0  0  0  0  0  0  0  0
   -7.1577   41.4174   -8.1447 C   0  0  0  0  0  0  0  0  0  0  0  0
   -9.7207   38.2291   -3.7991 C   0  0  0  0  0  0  0  0  0  0  0  0
   -8.3513   37.9978   -5.9025 C   0  0  0  0  0  0  0  0  0  0  0  0
  1 13  1  0  0  0  0
  3  4  1  0  0  0  0
  4  5  1  0  0  0  0
  6  5  1  1  0  0  0
  6 10  1  0  0  0  0
  6 14  2  0  0  0  0
  6 18  1  0  0  0  0
  7 11  1  6  0  0  0
  7 15  1  0  0  0  0
  7 19  2  0  0  0  0
  7 18  1  0  0  0  0
  8 25  1  0  0  0  0
  8 12  1  0  0  0  0
  9 26  2  0  0  0  0
  9 13  1  0  0  0  0
 12 16  1  0  0  0  0
 13 17  2  0  0  0  0
 16 20  1  0  0  0  0
 16 27  1  0  0  0  0
 17 21  1  0  0  0  0
 20  2  1  1  0  0  0
 20 23  1  0  0  0  0
 21 22  1  0  0  0  0
 21 24  2  0  0  0  0
 23  3  1  1  0  0  0
 23 25  1  0  0  0  0
 24 27  1  0  0  0  0
 24 26  1  0  0  0  0
M  CHG  2  10  -1  15  -1
M  END
>  <CHROM.1>
-54.01152897,-69.25462306,-61.02309756,-169.90869194,-51.97327984,-102.57121226
-62.72873815,-48.31279052,-6.53876133,41.58655744,-7.11549004,2.40688364
-1.07396877,3.14069795

>  <Name>
ligand

>  <RI>
0

>  <Rbt.Current_Directory>
/home/itssahil/PROJECTS/Mol_Feturizer/New_Systems/rnas/3D2V

>  <Rbt.Executable>
rbdock ($Id: //depot/dev/client3/rdock/2013.1/src/exe/rbdock.cxx#4 $)

>  <Rbt.Library>
libRbt.so (2013.1, Build901 2013/11/27)

>  <Rbt.Parameter_File>
/export/apps/rDock/src/rDock_2013.1_src/data/scripts/dock_solv.prm

>  <Rbt.Receptor>
prm/pocket_docking_4.prm

>  <SCORE>
-14.8686

>  <SCORE.INTER>
-15.0385

>  <SCORE.INTER.CONST>
1

>  <SCORE.INTER.POLAR>
0

>  <SCORE.INTER.ROT>
8

>  <SCORE.INTER.SOLV>
14.0995

>  <SCORE.INTER.VDW>
-23.6589

>  <SCORE.INTER.norm>
-0.556983

>  <SCORE.INTRA>
0.169954

>  <SCORE.INTRA.DIHEDRAL>
-1.82582

>  <SCORE.INTRA.DIHEDRAL.0>
7.82666

>  <SCORE.INTRA.POLAR>
0

>  <SCORE.INTRA.POLAR.0>
0

>  <SCORE.INTRA.REPUL>
0

>  <SCORE.INTRA.REPUL.0>
0

>  <SCORE.INTRA.SOLV>
3.68866

>  <SCORE.INTRA.SOLV.lig_0>
-83.2758

>  <SCORE.INTRA.VDW>
-0.761465

>  <SCORE.INTRA.VDW.0>
-3.26816

>  <SCORE.INTRA.norm>
0.00629459

>  <SCORE.RESTR>
0

>  <SCORE.RESTR.CAVITY>
0

>  <SCORE.RESTR.norm>
0

>  <SCORE.SYSTEM>
0

>  <SCORE.SYSTEM.CONST>
0

>  <SCORE.SYSTEM.DIHEDRAL>
0

>  <SCORE.SYSTEM.SOLV>
0

>  <SCORE.SYSTEM.norm>
0

>  <SCORE.heavy>
27

>  <SCORE.norm>
-0.550688

>  <RMSD>
3.174

$$$$
ligand
 OpenBabel11021811473D
libRbt.so/2013.1/901 2013/11/27
 27 28  0  0  0  0  0  0  0  0999 V2000
   -8.0819   39.1578    0.3648 C   0  0  0  0  0  0  0  0  0  0  0  0
   -8.0233   40.5830   -7.4782 C   0  0  0  0  0  0  0  0  0  0  0  0
   -6.2560   38.7997   -9.1127 C   0  0  0  0  0  0  0  0  0  0  0  0
   -5.2405   39.8520   -8.6631 C   0  0  0  0  0  0  0  0  0  0  0  0
   -4.5404   40.3922   -9.7866 O   0  0  0  0  0  0  0  0  0  0  0  0
   -3.7343   41.7740   -9.6425 P   0  0  1  0  0  0  0  0  0  0  0  0
   -1.5535   43.0966  -10.8471 P   0  0  2  0  0  0  0  0  0  0  0  0
   -7.6477   36.3974   -6.5160 C   0  0  0  0  0  0  0  0  0  0  0  0
   -9.5501   38.6446   -1.5763 N   0  0  0  0  0  0  0  0  0  0  0  0
   -4.7125   43.0325   -9.8053 O   0  5  0  0  0  0  0  0  0  0  0  0
   -0.5102   42.9645  -11.8847 O   0  0  0  0  0  0  0  0  0  0  0  0
   -8.4728   37.2060   -5.7456 C   0  0  0  0  0  0  0  0  0  0  0  0
   -8.4364   39.2385   -1.1203 C   0  0  0  0  0  0  0  0  0  0  0  0
   -3.0058   41.9331   -8.2082 O   0  0  0  0  0  0  0  0  0  0  0  0
   -0.9132   43.2444   -9.3828 O   0  5  0  0  0  0  0  0  0  0  0  0
   -8.5977   38.5602   -6.0590 N   0  0  0  0  0  0  0  0  0  0  0  0
   -7.6277   39.9048   -1.9570 N   0  0  0  0  0  0  0  0  0  0  0  0
   -2.5700   41.8635  -10.7752 O   0  0  0  0  0  0  0  0  0  0  0  0
   -2.4130   44.4218  -11.0683 O   0  0  0  0  0  0  0  0  0  0  0  0
   -7.8850   39.0922   -7.1403 C   0  0  1  0  0  0  0  0  0  0  0  0
   -7.9213   39.9861   -3.2607 C   0  0  0  0  0  0  0  0  0  0  0  0
   -7.1111   40.6477   -4.0806 N   0  0  0  0  0  0  0  0  0  0  0  0
   -7.0572   38.2796   -7.9134 C   0  0  1  0  0  0  0  0  0  0  0  0
   -9.0674   39.3778   -3.7580 C   0  0  0  0  0  0  0  0  0  0  0  0
   -6.9465   36.9329   -7.5896 C   0  0  0  0  0  0  0  0  0  0  0  0
   -9.8789   38.6991   -2.8562 C   0  0  0  0  0  0  0  0  0  0  0  0
   -9.4759   39.4247   -5.2362 C   0  0  0  0  0  0  0  0  0  0  0  0
  1 13  1  0  0  0  0
  3  4  1  0  0  0  0
  4  5  1  0  0  0  0
  6  5  1  6  0  0  0
  6 10  1  0  0  0  0
  6 14  2  0  0  0  0
  6 18  1  0  0  0  0
  7 11  1  6  0  0  0
  7 15  1  0  0  0  0
  7 19  2  0  0  0  0
  7 18  1  0  0  0  0
  8 25  1  0  0  0  0
  8 12  1  0  0  0  0
  9 26  2  0  0  0  0
  9 13  1  0  0  0  0
 12 16  1  0  0  0  0
 13 17  2  0  0  0  0
 16 20  1  0  0  0  0
 16 27  1  0  0  0  0
 17 21  1  0  0  0  0
 20  2  1  6  0  0  0
 20 23  1  0  0  0  0
 21 22  1  0  0  0  0
 21 24  2  0  0  0  0
 23  3  1  6  0  0  0
 23 25  1  0  0  0  0
 24 27  1  0  0  0  0
 24 26  1  0  0  0  0
M  CHG  2  10  -1  15  -1
M  END
>  <CHROM.1>
-176.89547961,162.91910907,-82.70476983,-177.23254731,176.21957547,62.58820797
72.61778679,56.51524677,-5.70404724,40.47913352,-7.17113396,-2.58513340,-0.77216080
-1.93417453

>  <Name>
ligand

>  <RI>
0

>  <Rbt.Current_Directory>
/home/itssahil/PROJECTS/Mol_Feturizer/New_Systems/rnas/3D2V

>  <Rbt.Executable>
rbdock ($Id: //depot/dev/client3/rdock/2013.1/src/exe/rbdock.cxx#4 $)

>  <Rbt.Library>
libRbt.so (2013.1, Build901 2013/11/27)

>  <Rbt.Parameter_File>
/export/apps/rDock/src/rDock_2013.1_src/data/scripts/dock_solv.prm

>  <Rbt.Receptor>
prm/pocket_docking_6.prm

>  <SCORE>
-18.2249

>  <SCORE.INTER>
-20.5899

>  <SCORE.INTER.CONST>
1

>  <SCORE.INTER.POLAR>
0

>  <SCORE.INTER.ROT>
8

>  <SCORE.INTER.SOLV>
19.94

>  <SCORE.INTER.VDW>
-29.3066

>  <SCORE.INTER.norm>
-0.762589

>  <SCORE.INTRA>
2.36502

>  <SCORE.INTRA.DIHEDRAL>
-0.446885

>  <SCORE.INTRA.DIHEDRAL.0>
7.82666

>  <SCORE.INTRA.POLAR>
0

>  <SCORE.INTRA.POLAR.0>
0

>  <SCORE.INTRA.REPUL>
0

>  <SCORE.INTRA.REPUL.0>
0

>  <SCORE.INTRA.SOLV>
4.16741

>  <SCORE.INTRA.SOLV.lig_0>
-83.2758

>  <SCORE.INTRA.VDW>
0.504754

>  <SCORE.INTRA.VDW.0>
-3.26816

>  <SCORE.INTRA.norm>
0.0875932

>  <SCORE.RESTR>
0

>  <SCORE.RESTR.CAVITY>
0

>  <SCORE.RESTR.norm>
0

>  <SCORE.SYSTEM>
0

>  <SCORE.SYSTEM.CONST>
0

>  <SCORE.SYSTEM.DIHEDRAL>
0

>  <SCORE.SYSTEM.SOLV>
0

>  <SCORE.SYSTEM.norm>
0

>  <SCORE.heavy>
27

>  <SCORE.norm>
-0.674996

>  <RMSD>
3.174

$$$$
ligand
 OpenBabel11021811473D
libRbt.so/2013.1/901 2013/11/27
 27 28  0  0  0  0  0  0  0  0999 V2000
  -13.5253   37.3571   -2.0409 C   0  0  0  0  0  0  0  0  0  0  0  0
   -6.6576   41.4671   -2.2669 C   0  0  0  0  0  0  0  0  0  0  0  0
   -6.5212   43.5538   -4.4123 C   0  0  0  0  0  0  0  0  0  0  0  0
   -7.5431   44.6920   -4.3843 C   0  0  0  0  0  0  0  0  0  0  0  0
   -6.8863   45.9620   -4.3920 O   0  0  0  0  0  0  0  0  0  0  0  0
   -6.0216   46.4118   -5.6687 P   0  0  1  0  0  0  0  0  0  0  0  0
   -6.2854   46.4912   -8.4759 P   0  0  2  0  0  0  0  0  0  0  0  0
   -8.4623   40.7663   -6.1190 C   0  0  0  0  0  0  0  0  0  0  0  0
  -11.4876   37.6505   -3.4369 N   0  0  0  0  0  0  0  0  0  0  0  0
   -5.5006   47.9187   -5.5110 O   0  5  0  0  0  0  0  0  0  0  0  0
   -5.4498   47.7005   -8.6243 O   0  0  0  0  0  0  0  0  0  0  0  0
   -8.5378   39.7858   -5.1386 C   0  0  0  0  0  0  0  0  0  0  0  0
  -12.0715   37.7886   -2.2366 C   0  0  0  0  0  0  0  0  0  0  0  0
   -4.7146   45.4894   -5.9024 O   0  0  0  0  0  0  0  0  0  0  0  0
   -7.5116   46.4913   -9.5113 O   0  5  0  0  0  0  0  0  0  0  0  0
   -7.9570   40.0138   -3.8902 N   0  0  0  0  0  0  0  0  0  0  0  0
  -11.3907   38.3033   -1.2024 N   0  0  0  0  0  0  0  0  0  0  0  0
   -6.9214   46.3055   -7.0198 O   0  0  0  0  0  0  0  0  0  0  0  0
   -5.4488   45.1754   -8.8115 O   0  0  0  0  0  0  0  0  0  0  0  0
   -7.2977   41.2233   -3.6406 C   0  0  1  0  0  0  0  0  0  0  0  0
  -10.1169   38.6866   -1.3542 C   0  0  0  0  0  0  0  0  0  0  0  0
   -9.4517   39.1936   -0.3214 N   0  0  0  0  0  0  0  0  0  0  0  0
   -7.2229   42.2072   -4.6252 C   0  0  2  0  0  0  0  0  0  0  0  0
   -9.4889   38.5518   -2.5864 C   0  0  0  0  0  0  0  0  0  0  0  0
   -7.8090   41.9653   -5.8616 C   0  0  0  0  0  0  0  0  0  0  0  0
  -10.2315   38.0156   -3.6321 C   0  0  0  0  0  0  0  0  0  0  0  0
   -8.0346   38.9672   -2.8440 C   0  0  0  0  0  0  0  0  0  0  0  0
  1 13  1  0  0  0  0
  3  4  1  0  0  0  0
  4  5  1  0  0  0  0
  6  5  1  1  0  0  0
  6 10  1  0  0  0  0
  6 14  2  0  0  0  0
  6 18  1  0  0  0  0
  7 11  1  6  0  0  0
  7 15  1  0  0  0  0
  7 19  2  0  0  0  0
  7 18  1  0  0  0  0
  8 25  1  0  0  0  0
  8 12  1  0  0  0  0
  9 26  2  0  0  0  0
  9 13  1  0  0  0  0
 12 16  1  0  0  0  0
 13 17  2  0  0  0  0
 16 20  1  0  0  0  0
 16 27  1  0  0  0  0
 17 21  1  0  0  0  0
 20  2  1  1  0  0  0
 20 23  1  0  0  0  0
 21 22  1  0  0  0  0
 21 24  2  0  0  0  0
 23  3  1  6  0  0  0
 23 25  1  0  0  0  0
 24 27  1  0  0  0  0
 24 26  1  0  0  0  0
M  CHG  2  10  -1  15  -1
M  END
>  <CHROM.1>
-171.14285081,64.95237128,174.51446489,-171.40600245,-49.72125834,-111.29907863
-119.48101635,-54.91773566,-7.83377188,42.73980091,-4.89782926,2.31726624
0.88966698,1.97054176

>  <Name>
ligand

>  <RI>
0

>  <Rbt.Current_Directory>
/home/itssahil/PROJECTS/Mol_Feturizer/New_Systems/rnas/3D2V

>  <Rbt.Executable>
rbdock ($Id: //depot/dev/client3/rdock/2013.1/src/exe/rbdock.cxx#4 $)

>  <Rbt.Library>
libRbt.so (2013.1, Build901 2013/11/27)

>  <Rbt.Parameter_File>
/export/apps/rDock/src/rDock_2013.1_src/data/scripts/dock_solv.prm

>  <Rbt.Receptor>
prm/pocket_docking_7.prm

>  <SCORE>
-21.364

>  <SCORE.INTER>
-21.1751

>  <SCORE.INTER.CONST>
1

>  <SCORE.INTER.POLAR>
0

>  <SCORE.INTER.ROT>
8

>  <SCORE.INTER.SOLV>
25.7152

>  <SCORE.INTER.VDW>
-31.6218

>  <SCORE.INTER.norm>
-0.784263

>  <SCORE.INTRA>
-0.188897

>  <SCORE.INTRA.DIHEDRAL>
-1.88625

>  <SCORE.INTRA.DIHEDRAL.0>
7.82666

>  <SCORE.INTRA.POLAR>
0

>  <SCORE.INTRA.POLAR.0>
0

>  <SCORE.INTRA.REPUL>
0

>  <SCORE.INTRA.REPUL.0>
0

>  <SCORE.INTRA.SOLV>
0.555733

>  <SCORE.INTRA.SOLV.lig_0>
-83.2758

>  <SCORE.INTRA.VDW>
0.47636

>  <SCORE.INTRA.VDW.0>
-3.26816

>  <SCORE.INTRA.norm>
-0.00699619

>  <SCORE.RESTR>
0

>  <SCORE.RESTR.CAVITY>
0

>  <SCORE.RESTR.norm>
0

>  <SCORE.SYSTEM>
0

>  <SCORE.SYSTEM.CONST>
0

>  <SCORE.SYSTEM.DIHEDRAL>
0

>  <SCORE.SYSTEM.SOLV>
0

>  <SCORE.SYSTEM.norm>
0

>  <SCORE.heavy>
27

>  <SCORE.norm>
-0.791259

>  <RMSD>
3.181

$$$$
ligand
 OpenBabel11021811473D
libRbt.so/2013.1/901 2013/11/27
 27 28  0  0  0  0  0  0  0  0999 V2000
   -8.1760   39.2632    0.3877 C   0  0  0  0  0  0  0  0  0  0  0  0
   -8.1728   40.2794   -8.0945 C   0  0  0  0  0  0  0  0  0  0  0  0
   -5.5000   39.8493   -9.3777 C   0  0  0  0  0  0  0  0  0  0  0  0
   -5.3005   41.3658   -9.4126 C   0  0  0  0  0  0  0  0  0  0  0  0
   -5.3423   41.8509  -10.7569 O   0  0  0  0  0  0  0  0  0  0  0  0
   -5.2776   43.4299  -11.0438 P   0  0  1  0  0  0  0  0  0  0  0  0
   -6.3475   45.6328   -9.6441 P   0  0  2  0  0  0  0  0  0  0  0  0
   -5.0103   38.2853   -5.9477 C   0  0  0  0  0  0  0  0  0  0  0  0
   -9.1508   38.4982   -1.7691 N   0  0  0  0  0  0  0  0  0  0  0  0
   -3.8995   44.0560  -10.5184 O   0  5  0  0  0  0  0  0  0  0  0  0
   -5.6703   46.6201  -10.5097 O   0  0  0  0  0  0  0  0  0  0  0  0
   -6.2417   38.4737   -5.3342 C   0  0  0  0  0  0  0  0  0  0  0  0
   -8.2707   39.2908   -1.1381 C   0  0  0  0  0  0  0  0  0  0  0  0
   -5.3832   43.7905  -12.6162 O   0  0  0  0  0  0  0  0  0  0  0  0
   -5.5558   45.4169   -8.2649 O   0  5  0  0  0  0  0  0  0  0  0  0
   -7.2669   39.1158   -6.0302 N   0  0  0  0  0  0  0  0  0  0  0  0
   -7.4699   40.1103   -1.8346 N   0  0  0  0  0  0  0  0  0  0  0  0
   -6.5138   44.1846  -10.3030 O   0  0  0  0  0  0  0  0  0  0  0  0
   -7.7985   46.1439   -9.2231 O   0  0  0  0  0  0  0  0  0  0  0  0
   -7.0427   39.5706   -7.3352 C   0  0  1  0  0  0  0  0  0  0  0  0
   -7.5380   40.1483   -3.1711 C   0  0  0  0  0  0  0  0  0  0  0  0
   -6.7378   40.9633   -3.8508 N   0  0  0  0  0  0  0  0  0  0  0  0
   -5.8063   39.3806   -7.9503 C   0  0  1  0  0  0  0  0  0  0  0  0
   -8.4392   39.3358   -3.8482 C   0  0  0  0  0  0  0  0  0  0  0  0
   -4.7973   38.7368   -7.2445 C   0  0  0  0  0  0  0  0  0  0  0  0
   -9.2520   38.5029   -3.0878 C   0  0  0  0  0  0  0  0  0  0  0  0
   -8.5807   39.3198   -5.3758 C   0  0  0  0  0  0  0  0  0  0  0  0
  1 13  1  0  0  0  0
  3  4  1  0  0  0  0
  4  5  1  0  0  0  0
  6  5  1  1  0  0  0
  6 10  1  0  0  0  0
  6 14  2  0  0  0  0
  6 18  1  0  0  0  0
  7 11  1  6  0  0  0
  7 15  1  0  0  0  0
  7 19  2  0  0  0  0
  7 18  1  0  0  0  0
  8 25  1  0  0  0  0
  8 12  1  0  0  0  0
  9 26  2  0  0  0  0
  9 13  1  0  0  0  0
 12 16  1  0  0  0  0
 13 17  2  0  0  0  0
 16 20  1  0  0  0  0
 16 27  1  0  0  0  0
 17 21  1  0  0  0  0
 20  2  1  6  0  0  0
 20 23  1  0  0  0  0
 21 22  1  0  0  0  0
 21 24  2  0  0  0  0
 23  3  1  6  0  0  0
 23 25  1  0  0  0  0
 24 27  1  0  0  0  0
 24 26  1  0  0  0  0
M  CHG  2  10  -1  15  -1
M  END
>  <CHROM.1>
-165.78524288,174.97770124,61.84791617,143.25736562,47.52771451,75.17121825
52.19095243,24.66358374,-6.57878406,41.64925171,-7.26617217,2.20138079,-1.16405234
2.76336280

>  <Name>
ligand

>  <RI>
0

>  <Rbt.Current_Directory>
/home/itssahil/PROJECTS/Mol_Feturizer/New_Systems/rnas/3D2V

>  <Rbt.Executable>
rbdock ($Id: //depot/dev/client3/rdock/2013.1/src/exe/rbdock.cxx#4 $)

>  <Rbt.Library>
libRbt.so (2013.1, Build901 2013/11/27)

>  <Rbt.Parameter_File>
/export/apps/rDock/src/rDock_2013.1_src/data/scripts/dock_solv.prm

>  <Rbt.Receptor>
prm/pocket_docking_8.prm

>  <SCORE>
-14.9466

>  <SCORE.INTER>
-15.9185

>  <SCORE.INTER.CONST>
1

>  <SCORE.INTER.POLAR>
0

>  <SCORE.INTER.ROT>
8

>  <SCORE.INTER.SOLV>
14.5546

>  <SCORE.INTER.VDW>
-24.3972

>  <SCORE.INTER.norm>
-0.589573

>  <SCORE.INTRA>
0.971813

>  <SCORE.INTRA.DIHEDRAL>
0.0515598

>  <SCORE.INTRA.DIHEDRAL.0>
7.82666

>  <SCORE.INTRA.POLAR>
0

>  <SCORE.INTRA.POLAR.0>
0

>  <SCORE.INTRA.REPUL>
0

>  <SCORE.INTRA.REPUL.0>
0

>  <SCORE.INTRA.SOLV>
1.12512

>  <SCORE.INTRA.SOLV.lig_0>
-83.2758

>  <SCORE.INTRA.VDW>
0.383473

>  <SCORE.INTRA.VDW.0>
-3.26816

>  <SCORE.INTRA.norm>
0.0359931

>  <SCORE.RESTR>
0

>  <SCORE.RESTR.CAVITY>
0

>  <SCORE.RESTR.norm>
0

>  <SCORE.SYSTEM>
0

>  <SCORE.SYSTEM.CONST>
0

>  <SCORE.SYSTEM.DIHEDRAL>
0

>  <SCORE.SYSTEM.SOLV>
0

>  <SCORE.SYSTEM.norm>
0

>  <SCORE.heavy>
27

>  <SCORE.norm>
-0.55358

>  <RMSD>
3.197

$$$$
ligand
 OpenBabel11021811473D
libRbt.so/2013.1/901 2013/11/27
 27 28  0  0  0  0  0  0  0  0999 V2000
   -7.6541   40.1563   -0.1462 C   0  0  0  0  0  0  0  0  0  0  0  0
   -5.2325   38.1294   -6.3755 C   0  0  0  0  0  0  0  0  0  0  0  0
   -4.8150   40.1684   -8.5304 C   0  0  0  0  0  0  0  0  0  0  0  0
   -4.2979   41.5201   -8.0343 C   0  0  0  0  0  0  0  0  0  0  0  0
   -3.1842   41.9546   -8.8186 O   0  0  0  0  0  0  0  0  0  0  0  0
   -3.4017   42.3978  -10.3471 P   0  0  1  0  0  0  0  0  0  0  0  0
   -5.4618   44.2347   -9.7654 P   0  0  2  0  0  0  0  0  0  0  0  0
   -8.5655   40.3696   -7.9436 C   0  0  0  0  0  0  0  0  0  0  0  0
   -6.6255   39.2432   -2.2188 N   0  0  0  0  0  0  0  0  0  0  0  0
   -2.0170   42.3899  -11.1529 O   0  5  0  0  0  0  0  0  0  0  0  0
   -6.4958   43.2048   -9.9949 O   0  0  0  0  0  0  0  0  0  0  0  0
   -8.7813   39.4297   -6.9445 C   0  0  0  0  0  0  0  0  0  0  0  0
   -7.7451   39.5060   -1.5270 C   0  0  0  0  0  0  0  0  0  0  0  0
   -4.4125   41.4236  -11.1489 O   0  0  0  0  0  0  0  0  0  0  0  0
   -5.9034   45.6570  -10.3635 O   0  5  0  0  0  0  0  0  0  0  0  0
   -7.7021   38.7070   -6.4340 N   0  0  0  0  0  0  0  0  0  0  0  0
   -8.9480   39.2029   -2.0361 N   0  0  0  0  0  0  0  0  0  0  0  0
   -4.0385   43.8934  -10.4110 O   0  0  0  0  0  0  0  0  0  0  0  0
   -5.2402   44.4825   -8.2054 O   0  0  0  0  0  0  0  0  0  0  0  0
   -6.4151   38.9297   -6.9383 C   0  0  1  0  0  0  0  0  0  0  0  0
   -9.0479   38.6334   -3.2436 C   0  0  0  0  0  0  0  0  0  0  0  0
  -10.2457   38.3393   -3.7386 N   0  0  0  0  0  0  0  0  0  0  0  0
   -6.1994   39.8738   -7.9409 C   0  0  2  0  0  0  0  0  0  0  0  0
   -7.9038   38.3533   -3.9808 C   0  0  0  0  0  0  0  0  0  0  0  0
   -7.2844   40.5868   -8.4361 C   0  0  0  0  0  0  0  0  0  0  0  0
   -6.6771   38.6817   -3.4151 C   0  0  0  0  0  0  0  0  0  0  0  0
   -7.9313   37.7018   -5.3696 C   0  0  0  0  0  0  0  0  0  0  0  0
  1 13  1  0  0  0  0
  3  4  1  0  0  0  0
  4  5  1  0  0  0  0
  6  5  1  1  0  0  0
  6 10  1  0  0  0  0
  6 14  2  0  0  0  0
  6 18  1  0  0  0  0
  7 11  1  6  0  0  0
  7 15  1  0  0  0  0
  7 19  2  0  0  0  0
  7 18  1  0  0  0  0
  8 25  1  0  0  0  0
  8 12  1  0  0  0  0
  9 26  2  0  0  0  0
  9 13  1  0  0  0  0
 12 16  1  0  0  0  0
 13 17  2  0  0  0  0
 16 20  1  0  0  0  0
 16 27  1  0  0  0  0
 17 21  1  0  0  0  0
 20  2  1  1  0  0  0
 20 23  1  0  0  0  0
 21 22  1  0  0  0  0
 21 24  2  0  0  0  0
 23  3  1  6  0  0  0
 23 25  1  0  0  0  0
 24 27  1  0  0  0  0
 24 26  1  0  0  0  0
M  CHG  2  10  -1  15  -1
M  END
>  <CHROM.1>
-165.63556015,69.19693715,-161.82753665,-60.99084986,-41.64643705,-106.75083220
102.88578476,-86.28430749,-6.09847433,40.99547086,-7.20893480,2.43291451
-0.99050975,2.89449433

>  <Name>
ligand

>  <RI>
0

>  <Rbt.Current_Directory>
/home/itssahil/PROJECTS/Mol_Feturizer/New_Systems/rnas/3D2V

>  <Rbt.Executable>
rbdock ($Id: //depot/dev/client3/rdock/2013.1/src/exe/rbdock.cxx#4 $)

>  <Rbt.Library>
libRbt.so (2013.1, Build901 2013/11/27)

>  <Rbt.Parameter_File>
/export/apps/rDock/src/rDock_2013.1_src/data/scripts/dock_solv.prm

>  <Rbt.Receptor>
prm/pocket_docking_3.prm

>  <SCORE>
-12.6341

>  <SCORE.INTER>
-11.8108

>  <SCORE.INTER.CONST>
1

>  <SCORE.INTER.POLAR>
0

>  <SCORE.INTER.ROT>
8

>  <SCORE.INTER.SOLV>
17.3655

>  <SCORE.INTER.VDW>
-22.5957

>  <SCORE.INTER.norm>
-0.437435

>  <SCORE.INTRA>
-0.826112

>  <SCORE.INTRA.DIHEDRAL>
-0.465917

>  <SCORE.INTRA.DIHEDRAL.0>
7.82666

>  <SCORE.INTRA.POLAR>
0

>  <SCORE.INTRA.POLAR.0>
0

>  <SCORE.INTRA.REPUL>
0

>  <SCORE.INTRA.REPUL.0>
0

>  <SCORE.INTRA.SOLV>
0.4217

>  <SCORE.INTRA.SOLV.lig_0>
-83.2758

>  <SCORE.INTRA.VDW>
-0.804003

>  <SCORE.INTRA.VDW.0>
-3.26816

>  <SCORE.INTRA.norm>
-0.0305967

>  <SCORE.RESTR>
0.00278197

>  <SCORE.RESTR.CAVITY>
0.00278197

>  <SCORE.RESTR.norm>
0.000103036

>  <SCORE.SYSTEM>
0

>  <SCORE.SYSTEM.CONST>
0

>  <SCORE.SYSTEM.DIHEDRAL>
0

>  <SCORE.SYSTEM.SOLV>
0

>  <SCORE.SYSTEM.norm>
0

>  <SCORE.heavy>
27

>  <SCORE.norm>
-0.467929

>  <RMSD>
3.257

$$$$
ligand
 OpenBabel11021811473D
libRbt.so/2013.1/901 2013/11/27
 27 28  0  0  0  0  0  0  0  0999 V2000
   -9.8825   38.5468   -0.7694 C   0  0  0  0  0  0  0  0  0  0  0  0
   -6.8676   41.9066   -6.9026 C   0  0  0  0  0  0  0  0  0  0  0  0
   -4.3571   40.7248   -8.0321 C   0  0  0  0  0  0  0  0  0  0  0  0
   -4.3149   40.9807   -9.5399 C   0  0  0  0  0  0  0  0  0  0  0  0
   -3.1260   41.6886   -9.8998 O   0  0  0  0  0  0  0  0  0  0  0  0
   -2.8141   42.0027  -11.4439 P   0  0  1  0  0  0  0  0  0  0  0  0
   -5.2937   43.1355  -12.1682 P   0  0  2  0  0  0  0  0  0  0  0  0
   -6.5552   37.6584   -7.5669 C   0  0  0  0  0  0  0  0  0  0  0  0
  -10.5495   38.6388   -3.1639 N   0  0  0  0  0  0  0  0  0  0  0  0
   -1.2657   42.3535  -11.6601 O   0  5  0  0  0  0  0  0  0  0  0  0
   -5.7046   41.9896  -13.0053 O   0  0  0  0  0  0  0  0  0  0  0  0
   -7.7283   38.1853   -7.0430 C   0  0  0  0  0  0  0  0  0  0  0  0
   -9.6556   38.9726   -2.2203 C   0  0  0  0  0  0  0  0  0  0  0  0
   -3.1508   40.7599  -12.4213 O   0  0  0  0  0  0  0  0  0  0  0  0
   -5.7773   44.5297  -12.7991 O   0  5  0  0  0  0  0  0  0  0  0  0
   -7.8312   39.5609   -6.8313 N   0  0  0  0  0  0  0  0  0  0  0  0
   -8.5608   39.6787   -2.5377 N   0  0  0  0  0  0  0  0  0  0  0  0
   -3.7135   43.2594  -11.9522 O   0  0  0  0  0  0  0  0  0  0  0  0
   -5.9762   43.0636  -10.7285 O   0  0  0  0  0  0  0  0  0  0  0  0
   -6.7501   40.3948   -7.1409 C   0  0  1  0  0  0  0  0  0  0  0  0
   -8.3447   40.0603   -3.8026 C   0  0  0  0  0  0  0  0  0  0  0  0
   -7.2550   40.7583   -4.1054 N   0  0  0  0  0  0  0  0  0  0  0  0
   -5.5731   39.8650   -7.6672 C   0  0  2  0  0  0  0  0  0  0  0  0
   -9.2540   39.7253   -4.7985 C   0  0  0  0  0  0  0  0  0  0  0  0
   -5.4882   38.4936   -7.8745 C   0  0  0  0  0  0  0  0  0  0  0  0
  -10.3764   38.9945   -4.4260 C   0  0  0  0  0  0  0  0  0  0  0  0
   -9.0815   40.1242   -6.2699 C   0  0  0  0  0  0  0  0  0  0  0  0
  1 13  1  0  0  0  0
  3  4  1  0  0  0  0
  4  5  1  0  0  0  0
  6  5  1  1  0  0  0
  6 10  1  0  0  0  0
  6 14  2  0  0  0  0
  6 18  1  0  0  0  0
  7 11  1  6  0  0  0
  7 15  1  0  0  0  0
  7 19  2  0  0  0  0
  7 18  1  0  0  0  0
  8 25  1  0  0  0  0
  8 12  1  0  0  0  0
  9 26  2  0  0  0  0
  9 13  1  0  0  0  0
 12 16  1  0  0  0  0
 13 17  2  0  0  0  0
 16 20  1  0  0  0  0
 16 27  1  0  0  0  0
 17 21  1  0  0  0  0
 20  2  1  6  0  0  0
 20 23  1  0  0  0  0
 21 22  1  0  0  0  0
 21 24  2  0  0  0  0
 23  3  1  1  0  0  0
 23 25  1  0  0  0  0
 24 27  1  0  0  0  0
 24 26  1  0  0  0  0
M  CHG  2  10  -1  15  -1
M  END
>  <CHROM.1>
-175.27179796,176.58655564,-161.44322511,-71.03960214,-51.11459015,-100.31411068
60.20380622,69.78878984,-6.16217906,40.88477314,-8.20208762,-2.14326090,0.36769780
-0.96605001

>  <Name>
ligand

>  <RI>
0

>  <Rbt.Current_Directory>
/home/itssahil/PROJECTS/Mol_Feturizer/New_Systems/rnas/3D2V

>  <Rbt.Executable>
rbdock ($Id: //depot/dev/client3/rdock/2013.1/src/exe/rbdock.cxx#4 $)

>  <Rbt.Library>
libRbt.so (2013.1, Build901 2013/11/27)

>  <Rbt.Parameter_File>
/export/apps/rDock/src/rDock_2013.1_src/data/scripts/dock_solv.prm

>  <Rbt.Receptor>
prm/pocket_docking_5.prm

>  <SCORE>
-17.8858

>  <SCORE.INTER>
-17.9065

>  <SCORE.INTER.CONST>
1

>  <SCORE.INTER.POLAR>
0

>  <SCORE.INTER.ROT>
8

>  <SCORE.INTER.SOLV>
21.9849

>  <SCORE.INTER.VDW>
-28.1993

>  <SCORE.INTER.norm>
-0.663204

>  <SCORE.INTRA>
0.0207099

>  <SCORE.INTRA.DIHEDRAL>
-1.69077

>  <SCORE.INTRA.DIHEDRAL.0>
7.82666

>  <SCORE.INTRA.POLAR>
0

>  <SCORE.INTRA.POLAR.0>
0

>  <SCORE.INTRA.REPUL>
0

>  <SCORE.INTRA.REPUL.0>
0

>  <SCORE.INTRA.SOLV>
2.93803

>  <SCORE.INTRA.SOLV.lig_0>
-83.2758

>  <SCORE.INTRA.VDW>
-0.602923

>  <SCORE.INTRA.VDW.0>
-3.26816

>  <SCORE.INTRA.norm>
0.000767033

>  <SCORE.RESTR>
0

>  <SCORE.RESTR.CAVITY>
0

>  <SCORE.RESTR.norm>
0

>  <SCORE.SYSTEM>
0

>  <SCORE.SYSTEM.CONST>
0

>  <SCORE.SYSTEM.DIHEDRAL>
0

>  <SCORE.SYSTEM.SOLV>
0

>  <SCORE.SYSTEM.norm>
0

>  <SCORE.heavy>
27

>  <SCORE.norm>
-0.662437

>  <RMSD>
3.264

$$$$
ligand
 OpenBabel11021811473D
libRbt.so/2013.1/901 2013/11/27
 27 28  0  0  0  0  0  0  0  0999 V2000
   -9.0662   39.1473   -0.3963 C   0  0  0  0  0  0  0  0  0  0  0  0
   -6.1251   37.8825   -7.5794 C   0  0  0  0  0  0  0  0  0  0  0  0
   -4.6408   40.1558   -8.8459 C   0  0  0  0  0  0  0  0  0  0  0  0
   -4.7421   40.8079  -10.2262 C   0  0  0  0  0  0  0  0  0  0  0  0
   -4.8438   42.2291  -10.1082 O   0  0  0  0  0  0  0  0  0  0  0  0
   -4.9961   43.1360  -11.4252 P   0  0  1  0  0  0  0  0  0  0  0  0
   -4.1188   45.3856   -9.9671 P   0  0  2  0  0  0  0  0  0  0  0  0
   -7.5955   41.9202   -7.2310 C   0  0  0  0  0  0  0  0  0  0  0  0
   -9.9930   38.6792   -2.6566 N   0  0  0  0  0  0  0  0  0  0  0  0
   -3.7374   42.9542  -12.3998 O   0  5  0  0  0  0  0  0  0  0  0  0
   -2.6908   45.2668  -10.3265 O   0  0  0  0  0  0  0  0  0  0  0  0
   -8.2988   40.8814   -6.6357 C   0  0  0  0  0  0  0  0  0  0  0  0
   -8.9181   38.9704   -1.9078 C   0  0  0  0  0  0  0  0  0  0  0  0
   -6.3120   42.7743  -12.2919 O   0  0  0  0  0  0  0  0  0  0  0  0
   -4.4257   44.7151   -8.5416 O   0  5  0  0  0  0  0  0  0  0  0  0
   -7.8211   39.5746   -6.7450 N   0  0  0  0  0  0  0  0  0  0  0  0
   -7.7103   39.1086   -2.4735 N   0  0  0  0  0  0  0  0  0  0  0  0
   -5.1195   44.7049  -11.0132 O   0  0  0  0  0  0  0  0  0  0  0  0
   -4.5430   46.9156   -9.8147 O   0  0  0  0  0  0  0  0  0  0  0  0
   -6.6438   39.3221   -7.4594 C   0  0  1  0  0  0  0  0  0  0  0  0
   -7.5608   38.9571   -3.7953 C   0  0  0  0  0  0  0  0  0  0  0  0
   -6.3583   39.0946   -4.3444 N   0  0  0  0  0  0  0  0  0  0  0  0
   -5.9382   40.3657   -8.0563 C   0  0  1  0  0  0  0  0  0  0  0  0
   -8.6577   38.6531   -4.5922 C   0  0  0  0  0  0  0  0  0  0  0  0
   -6.4260   41.6612   -7.9353 C   0  0  0  0  0  0  0  0  0  0  0  0
   -9.8916   38.5207   -3.9657 C   0  0  0  0  0  0  0  0  0  0  0  0
   -8.5720   38.4647   -6.1125 C   0  0  0  0  0  0  0  0  0  0  0  0
  1 13  1  0  0  0  0
  3  4  1  0  0  0  0
  4  5  1  0  0  0  0
  6  5  1  1  0  0  0
  6 10  1  0  0  0  0
  6 14  2  0  0  0  0
  6 18  1  0  0  0  0
  7 11  1  6  0  0  0
  7 15  1  0  0  0  0
  7 19  2  0  0  0  0
  7 18  1  0  0  0  0
  8 25  1  0  0  0  0
  8 12  1  0  0  0  0
  9 26  2  0  0  0  0
  9 13  1  0  0  0  0
 12 16  1  0  0  0  0
 13 17  2  0  0  0  0
 16 20  1  0  0  0  0
 16 27  1  0  0  0  0
 17 21  1  0  0  0  0
 20  2  1  1  0  0  0
 20 23  1  0  0  0  0
 21 22  1  0  0  0  0
 21 24  2  0  0  0  0
 23  3  1  1  0  0  0
 23 25  1  0  0  0  0
 24 27  1  0  0  0  0
 24 26  1  0  0  0  0
M  CHG  2  10  -1  15  -1
M  END
>  <CHROM.1>
65.54187659,-178.59146789,-60.39306236,47.63624791,56.25115082,127.76642540
-48.39266448,-61.31272608,-6.23035695,41.52506603,-7.73821754,-3.05326892
-1.14291688,-2.41030172

>  <Name>
ligand

>  <RI>
0

>  <Rbt.Current_Directory>
/home/itssahil/PROJECTS/Mol_Feturizer/New_Systems/rnas/3D2V

>  <Rbt.Executable>
rbdock ($Id: //depot/dev/client3/rdock/2013.1/src/exe/rbdock.cxx#4 $)

>  <Rbt.Library>
libRbt.so (2013.1, Build901 2013/11/27)

>  <Rbt.Parameter_File>
/export/apps/rDock/src/rDock_2013.1_src/data/scripts/dock_solv.prm

>  <Rbt.Receptor>
prm/pocket_docking_7.prm

>  <SCORE>
-15.8552

>  <SCORE.INTER>
-14.9094

>  <SCORE.INTER.CONST>
1

>  <SCORE.INTER.POLAR>
0

>  <SCORE.INTER.ROT>
8

>  <SCORE.INTER.SOLV>
16.19

>  <SCORE.INTER.VDW>
-24.2696

>  <SCORE.INTER.norm>
-0.552202

>  <SCORE.INTRA>
-0.945705

>  <SCORE.INTRA.DIHEDRAL>
-2.26053

>  <SCORE.INTRA.DIHEDRAL.0>
7.82666

>  <SCORE.INTRA.POLAR>
0

>  <SCORE.INTRA.POLAR.0>
0

>  <SCORE.INTRA.REPUL>
0

>  <SCORE.INTRA.REPUL.0>
0

>  <SCORE.INTRA.SOLV>
1.45627

>  <SCORE.INTRA.SOLV.lig_0>
-83.2758

>  <SCORE.INTRA.VDW>
-0.543576

>  <SCORE.INTRA.VDW.0>
-3.26816

>  <SCORE.INTRA.norm>
-0.0350261

>  <SCORE.RESTR>
0

>  <SCORE.RESTR.CAVITY>
0

>  <SCORE.RESTR.norm>
0

>  <SCORE.SYSTEM>
0

>  <SCORE.SYSTEM.CONST>
0

>  <SCORE.SYSTEM.DIHEDRAL>
0

>  <SCORE.SYSTEM.SOLV>
0

>  <SCORE.SYSTEM.norm>
0

>  <SCORE.heavy>
27

>  <SCORE.norm>
-0.587228

>  <RMSD>
3.266

$$$$
ligand
 OpenBabel11021811473D
libRbt.so/2013.1/901 2013/11/27
 27 28  0  0  0  0  0  0  0  0999 V2000
   -9.0841   38.9064   -0.7459 C   0  0  0  0  0  0  0  0  0  0  0  0
   -7.4419   41.3292   -7.8078 C   0  0  0  0  0  0  0  0  0  0  0  0
   -5.4613   39.7192   -9.3765 C   0  0  0  0  0  0  0  0  0  0  0  0
   -4.4523   40.3355   -8.4056 C   0  0  0  0  0  0  0  0  0  0  0  0
   -4.4256   41.7588   -8.5395 O   0  0  0  0  0  0  0  0  0  0  0  0
   -3.6586   42.4352   -9.7781 P   0  0  1  0  0  0  0  0  0  0  0  0
   -5.8638   43.6638  -11.0367 P   0  0  2  0  0  0  0  0  0  0  0  0
   -7.7606   37.0332   -7.9802 C   0  0  0  0  0  0  0  0  0  0  0  0
  -10.2379   38.6954   -2.9395 N   0  0  0  0  0  0  0  0  0  0  0  0
   -2.1660   42.8542   -9.3734 O   0  5  0  0  0  0  0  0  0  0  0  0
   -6.9541   43.0816  -10.2275 O   0  0  0  0  0  0  0  0  0  0  0  0
   -8.6897   37.7602   -7.2478 C   0  0  0  0  0  0  0  0  0  0  0  0
   -9.2001   39.1865   -2.2446 C   0  0  0  0  0  0  0  0  0  0  0  0
   -3.5360   41.4535  -11.0568 O   0  0  0  0  0  0  0  0  0  0  0  0
   -5.6007   42.8120  -12.3713 O   0  5  0  0  0  0  0  0  0  0  0  0
   -8.5891   39.1511   -7.1948 N   0  0  0  0  0  0  0  0  0  0  0  0
   -8.2598   39.9236   -2.8533 N   0  0  0  0  0  0  0  0  0  0  0  0
   -4.4597   43.7605  -10.2764 O   0  0  0  0  0  0  0  0  0  0  0  0
   -6.2459   45.1287  -11.5386 O   0  0  0  0  0  0  0  0  0  0  0  0
   -7.5497   39.7994   -7.8726 C   0  0  1  0  0  0  0  0  0  0  0  0
   -8.3440   40.1792   -4.1647 C   0  0  0  0  0  0  0  0  0  0  0  0
   -7.4049   40.9094   -4.7574 N   0  0  0  0  0  0  0  0  0  0  0  0
   -6.6178   39.0688   -8.6080 C   0  0  1  0  0  0  0  0  0  0  0  0
   -9.4075   39.6802   -4.9070 C   0  0  0  0  0  0  0  0  0  0  0  0
   -6.7341   37.6849   -8.6528 C   0  0  0  0  0  0  0  0  0  0  0  0
  -10.3611   38.9228   -4.2365 C   0  0  0  0  0  0  0  0  0  0  0  0
   -9.5784   39.9279   -6.4114 C   0  0  0  0  0  0  0  0  0  0  0  0
  1 13  1  0  0  0  0
  3  4  1  0  0  0  0
  4  5  1  0  0  0  0
  6  5  1  1  0  0  0
  6 10  1  0  0  0  0
  6 14  2  0  0  0  0
  6 18  1  0  0  0  0
  7 11  1  1  0  0  0
  7 15  1  0  0  0  0
  7 19  2  0  0  0  0
  7 18  1  0  0  0  0
  8 25  1  0  0  0  0
  8 12  1  0  0  0  0
  9 26  2  0  0  0  0
  9 13  1  0  0  0  0
 12 16  1  0  0  0  0
 13 17  2  0  0  0  0
 16 20  1  0  0  0  0
 16 27  1  0  0  0  0
 17 21  1  0  0  0  0
 20  2  1  6  0  0  0
 20 23  1  0  0  0  0
 21 22  1  0  0  0  0
 21 24  2  0  0  0  0
 23  3  1  6  0  0  0
 23 25  1  0  0  0  0
 24 27  1  0  0  0  0
 24 26  1  0  0  0  0
M  CHG  2  10  -1  15  -1
M  END
>  <CHROM.1>
-114.21255437,-77.02558184,-95.24451032,-70.96482243,63.70812403,67.80226227
72.18088962,68.79823490,-6.65719596,40.92379138,-7.81754183,-2.92977668,-1.04632138
-2.38516853

>  <Name>
ligand

>  <RI>
0

>  <Rbt.Current_Directory>
/home/itssahil/PROJECTS/Mol_Feturizer/New_Systems/rnas/3D2V

>  <Rbt.Executable>
rbdock ($Id: //depot/dev/client3/rdock/2013.1/src/exe/rbdock.cxx#4 $)

>  <Rbt.Library>
libRbt.so (2013.1, Build901 2013/11/27)

>  <Rbt.Parameter_File>
/export/apps/rDock/src/rDock_2013.1_src/data/scripts/dock_solv.prm

>  <Rbt.Receptor>
prm/pocket_docking_6.prm

>  <SCORE>
-15.123

>  <SCORE.INTER>
-19.2211

>  <SCORE.INTER.CONST>
1

>  <SCORE.INTER.POLAR>
0

>  <SCORE.INTER.ROT>
8

>  <SCORE.INTER.SOLV>
17.4753

>  <SCORE.INTER.VDW>
-27.5725

>  <SCORE.INTER.norm>
-0.711891

>  <SCORE.INTRA>
4.09807

>  <SCORE.INTRA.DIHEDRAL>
5.8304

>  <SCORE.INTRA.DIHEDRAL.0>
7.82666

>  <SCORE.INTRA.POLAR>
0

>  <SCORE.INTRA.POLAR.0>
0

>  <SCORE.INTRA.REPUL>
0

>  <SCORE.INTRA.REPUL.0>
0

>  <SCORE.INTRA.SOLV>
3.00264

>  <SCORE.INTRA.SOLV.lig_0>
-83.2758

>  <SCORE.INTRA.VDW>
-0.318453

>  <SCORE.INTRA.VDW.0>
-3.26816

>  <SCORE.INTRA.norm>
0.15178

>  <SCORE.RESTR>
0

>  <SCORE.RESTR.CAVITY>
0

>  <SCORE.RESTR.norm>
0

>  <SCORE.SYSTEM>
0

>  <SCORE.SYSTEM.CONST>
0

>  <SCORE.SYSTEM.DIHEDRAL>
0

>  <SCORE.SYSTEM.SOLV>
0

>  <SCORE.SYSTEM.norm>
0

>  <SCORE.heavy>
27

>  <SCORE.norm>
-0.560111

>  <RMSD>
3.268

$$$$
ligand
 OpenBabel11021811473D
libRbt.so/2013.1/901 2013/11/27
 27 28  0  0  0  0  0  0  0  0999 V2000
  -12.0155   37.7238   -1.8115 C   0  0  0  0  0  0  0  0  0  0  0  0
   -5.8442   39.8301   -4.7475 C   0  0  0  0  0  0  0  0  0  0  0  0
   -5.7861   42.4726   -6.1581 C   0  0  0  0  0  0  0  0  0  0  0  0
   -6.4338   43.7120   -6.7783 C   0  0  0  0  0  0  0  0  0  0  0  0
   -6.0558   43.8474   -8.1505 O   0  0  0  0  0  0  0  0  0  0  0  0
   -6.5205   45.1364   -8.9887 P   0  0  1  0  0  0  0  0  0  0  0  0
   -6.3092   43.6820  -11.3963 P   0  0  2  0  0  0  0  0  0  0  0  0
   -6.8826   43.4521   -2.6525 C   0  0  0  0  0  0  0  0  0  0  0  0
   -9.9799   38.5222   -2.9973 N   0  0  0  0  0  0  0  0  0  0  0  0
   -8.1140   45.3011   -8.9579 O   0  5  0  0  0  0  0  0  0  0  0  0
   -7.7374   43.3292  -11.5309 O   0  0  0  0  0  0  0  0  0  0  0  0
   -6.9156   42.2381   -1.9794 C   0  0  0  0  0  0  0  0  0  0  0  0
  -10.5857   38.2652   -1.8277 C   0  0  0  0  0  0  0  0  0  0  0  0
   -5.8988   46.5164   -8.4207 O   0  0  0  0  0  0  0  0  0  0  0  0
   -5.4740   42.5030  -10.6977 O   0  5  0  0  0  0  0  0  0  0  0  0
   -6.5759   41.0658   -2.6562 N   0  0  0  0  0  0  0  0  0  0  0  0
   -9.9475   38.4793   -0.6680 N   0  0  0  0  0  0  0  0  0  0  0  0
   -6.0359   45.0027  -10.5359 O   0  0  0  0  0  0  0  0  0  0  0  0
   -5.6352   43.8870  -12.8273 O   0  0  0  0  0  0  0  0  0  0  0  0
   -6.2134   41.1231   -4.0073 C   0  0  1  0  0  0  0  0  0  0  0  0
   -8.6952   38.9527   -0.6620 C   0  0  0  0  0  0  0  0  0  0  0  0
   -8.0722   39.1590    0.4937 N   0  0  0  0  0  0  0  0  0  0  0  0
   -6.1801   42.3424   -4.6820 C   0  0  2  0  0  0  0  0  0  0  0  0
   -8.0453   39.2245   -1.8597 C   0  0  0  0  0  0  0  0  0  0  0  0
   -6.5184   43.5005   -3.9926 C   0  0  0  0  0  0  0  0  0  0  0  0
   -8.7437   38.9904   -3.0386 C   0  0  0  0  0  0  0  0  0  0  0  0
   -6.6132   39.7692   -1.9398 C   0  0  0  0  0  0  0  0  0  0  0  0
  1 13  1  0  0  0  0
  3  4  1  0  0  0  0
  4  5  1  0  0  0  0
  6  5  1  1  0  0  0
  6 10  1  0  0  0  0
  6 14  2  0  0  0  0
  6 18  1  0  0  0  0
  7 11  1  6  0  0  0
  7 15  1  0  0  0  0
  7 19  2  0  0  0  0
  7 18  1  0  0  0  0
  8 25  1  0  0  0  0
  8 12  1  0  0  0  0
  9 26  2  0  0  0  0
  9 13  1  0  0  0  0
 12 16  1  0  0  0  0
 13 17  2  0  0  0  0
 16 20  1  0  0  0  0
 16 27  1  0  0  0  0
 17 21  1  0  0  0  0
 20  2  1  1  0  0  0
 20 23  1  0  0  0  0
 21 22  1  0  0  0  0
 21 24  2  0  0  0  0
 23  3  1  6  0  0  0
 23 25  1  0  0  0  0
 24 27  1  0  0  0  0
 24 26  1  0  0  0  0
M  CHG  2  10  -1  15  -1
M  END
>  <CHROM.1>
179.26115612,-175.35923420,-55.97981149,49.81992306,58.95099641,153.72419110
-121.04722517,80.63351520,-7.21483900,42.10706339,-5.98436275,1.96157027
0.89763453,1.78504010

>  <Name>
ligand

>  <RI>
0

>  <Rbt.Current_Directory>
/home/itssahil/PROJECTS/Mol_Feturizer/New_Systems/rnas/3D2V

>  <Rbt.Executable>
rbdock ($Id: //depot/dev/client3/rdock/2013.1/src/exe/rbdock.cxx#4 $)

>  <Rbt.Library>
libRbt.so (2013.1, Build901 2013/11/27)

>  <Rbt.Parameter_File>
/export/apps/rDock/src/rDock_2013.1_src/data/scripts/dock_solv.prm

>  <Rbt.Receptor>
prm/pocket_docking_5.prm

>  <SCORE>
-18.1127

>  <SCORE.INTER>
-16.9004

>  <SCORE.INTER.CONST>
1

>  <SCORE.INTER.POLAR>
0

>  <SCORE.INTER.ROT>
8

>  <SCORE.INTER.SOLV>
25.1376

>  <SCORE.INTER.VDW>
-28.5795

>  <SCORE.INTER.norm>
-0.625942

>  <SCORE.INTRA>
-1.21227

>  <SCORE.INTRA.DIHEDRAL>
-2.3702

>  <SCORE.INTRA.DIHEDRAL.0>
7.82666

>  <SCORE.INTRA.POLAR>
0

>  <SCORE.INTRA.POLAR.0>
0

>  <SCORE.INTRA.REPUL>
0

>  <SCORE.INTRA.REPUL.0>
0

>  <SCORE.INTRA.SOLV>
-1.93224

>  <SCORE.INTRA.SOLV.lig_0>
-83.2758

>  <SCORE.INTRA.VDW>
0.938948

>  <SCORE.INTRA.VDW.0>
-3.26816

>  <SCORE.INTRA.norm>
-0.0448991

>  <SCORE.RESTR>
0

>  <SCORE.RESTR.CAVITY>
0

>  <SCORE.RESTR.norm>
0

>  <SCORE.SYSTEM>
0

>  <SCORE.SYSTEM.CONST>
0

>  <SCORE.SYSTEM.DIHEDRAL>
0

>  <SCORE.SYSTEM.SOLV>
0

>  <SCORE.SYSTEM.norm>
0

>  <SCORE.heavy>
27

>  <SCORE.norm>
-0.670841

>  <RMSD>
3.269

$$$$
ligand
 OpenBabel11021811473D
libRbt.so/2013.1/901 2013/11/27
 27 28  0  0  0  0  0  0  0  0999 V2000
   -8.0077   39.1116    0.6109 C   0  0  0  0  0  0  0  0  0  0  0  0
   -8.4305   39.8408   -8.0134 C   0  0  0  0  0  0  0  0  0  0  0  0
   -5.9970   38.8019   -9.4185 C   0  0  0  0  0  0  0  0  0  0  0  0
   -5.1367   39.9575   -9.9334 C   0  0  0  0  0  0  0  0  0  0  0  0
   -5.6964   41.2156   -9.5484 O   0  0  0  0  0  0  0  0  0  0  0  0
   -4.9240   42.5797   -9.8987 P   0  0  1  0  0  0  0  0  0  0  0  0
   -3.3195   42.2241   -7.6062 P   0  0  2  0  0  0  0  0  0  0  0  0
   -5.0485   38.4033   -5.7590 C   0  0  0  0  0  0  0  0  0  0  0  0
   -9.0121   38.6219   -1.6114 N   0  0  0  0  0  0  0  0  0  0  0  0
   -4.6911   42.7219  -11.4775 O   0  5  0  0  0  0  0  0  0  0  0  0
   -3.5165   40.7886   -7.3183 O   0  0  0  0  0  0  0  0  0  0  0  0
   -6.1666   38.8800   -5.0876 C   0  0  0  0  0  0  0  0  0  0  0  0
   -8.1137   39.3203   -0.9001 C   0  0  0  0  0  0  0  0  0  0  0  0
   -5.7287   43.8998   -9.4260 O   0  0  0  0  0  0  0  0  0  0  0  0
   -4.3617   43.1364   -6.7954 O   0  5  0  0  0  0  0  0  0  0  0  0
   -7.2631   39.3419   -5.8170 N   0  0  0  0  0  0  0  0  0  0  0  0
   -7.3044   40.2032   -1.5031 N   0  0  0  0  0  0  0  0  0  0  0  0
   -3.4805   42.6139   -9.1493 O   0  0  0  0  0  0  0  0  0  0  0  0
   -1.8757   42.7080   -7.1315 O   0  0  0  0  0  0  0  0  0  0  0  0
   -7.2230   39.3282   -7.2164 C   0  0  1  0  0  0  0  0  0  0  0  0
   -7.3821   40.3994   -2.8251 C   0  0  0  0  0  0  0  0  0  0  0  0
   -6.5734   41.2758   -3.4119 N   0  0  0  0  0  0  0  0  0  0  0  0
   -6.1003   38.8490   -7.8894 C   0  0  1  0  0  0  0  0  0  0  0  0
   -8.3024   39.6870   -3.5843 C   0  0  0  0  0  0  0  0  0  0  0  0
   -5.0184   38.3900   -7.1481 C   0  0  0  0  0  0  0  0  0  0  0  0
   -9.1234   38.7835   -2.9194 C   0  0  0  0  0  0  0  0  0  0  0  0
   -8.4559   39.8534   -5.1018 C   0  0  0  0  0  0  0  0  0  0  0  0
  1 13  1  0  0  0  0
  3  4  1  0  0  0  0
  4  5  1  0  0  0  0
  6  5  1  1  0  0  0
  6 10  1  0  0  0  0
  6 14  2  0  0  0  0
  6 18  1  0  0  0  0
  7 11  1  1  0  0  0
  7 15  1  0  0  0  0
  7 19  2  0  0  0  0
  7 18  1  0  0  0  0
  8 25  1  0  0  0  0
  8 12  1  0  0  0  0
  9 26  2  0  0  0  0
  9 13  1  0  0  0  0
 12 16  1  0  0  0  0
 13 17  2  0  0  0  0
 16 20  1  0  0  0  0
 16 27  1  0  0  0  0
 17 21  1  0  0  0  0
 20  2  1  6  0  0  0
 20 23  1  0  0  0  0
 21 22  1  0  0  0  0
 21 24  2  0  0  0  0
 23  3  1  1  0  0  0
 23 25  1  0  0  0  0
 24 27  1  0  0  0  0
 24 26  1  0  0  0  0
M  CHG  2  10  -1  15  -1
M  END
>  <CHROM.1>
-59.40351924,176.38444134,58.30790649,-46.29427805,69.86194171,102.09386185
68.09713720,-4.05648571,-5.89835197,40.69114884,-6.49244598,-2.17789725,-0.73263880
-1.63710991

>  <Name>
ligand

>  <RI>
0

>  <Rbt.Current_Directory>
/home/itssahil/PROJECTS/Mol_Feturizer/New_Systems/rnas/3D2V

>  <Rbt.Executable>
rbdock ($Id: //depot/dev/client3/rdock/2013.1/src/exe/rbdock.cxx#4 $)

>  <Rbt.Library>
libRbt.so (2013.1, Build901 2013/11/27)

>  <Rbt.Parameter_File>
/export/apps/rDock/src/rDock_2013.1_src/data/scripts/dock_solv.prm

>  <Rbt.Receptor>
prm/pocket_docking_5.prm

>  <SCORE>
-16.3761

>  <SCORE.INTER>
-14.0279

>  <SCORE.INTER.CONST>
1

>  <SCORE.INTER.POLAR>
0

>  <SCORE.INTER.ROT>
8

>  <SCORE.INTER.SOLV>
11.4827

>  <SCORE.INTER.VDW>
-22.1128

>  <SCORE.INTER.norm>
-0.519551

>  <SCORE.INTRA>
-2.34826

>  <SCORE.INTRA.DIHEDRAL>
-2.10693

>  <SCORE.INTRA.DIHEDRAL.0>
7.82666

>  <SCORE.INTRA.POLAR>
0

>  <SCORE.INTRA.POLAR.0>
0

>  <SCORE.INTRA.REPUL>
0

>  <SCORE.INTRA.REPUL.0>
0

>  <SCORE.INTRA.SOLV>
-0.475527

>  <SCORE.INTRA.SOLV.lig_0>
-83.2758

>  <SCORE.INTRA.VDW>
-1.05703

>  <SCORE.INTRA.VDW.0>
-3.26816

>  <SCORE.INTRA.norm>
-0.0869726

>  <SCORE.RESTR>
0

>  <SCORE.RESTR.CAVITY>
0

>  <SCORE.RESTR.norm>
0

>  <SCORE.SYSTEM>
0

>  <SCORE.SYSTEM.CONST>
0

>  <SCORE.SYSTEM.DIHEDRAL>
0

>  <SCORE.SYSTEM.SOLV>
0

>  <SCORE.SYSTEM.norm>
0

>  <SCORE.heavy>
27

>  <SCORE.norm>
-0.606524

>  <RMSD>
3.272

$$$$
ligand
 OpenBabel11021811473D
libRbt.so/2013.1/901 2013/11/27
 27 28  0  0  0  0  0  0  0  0999 V2000
   -8.3571   39.2122   -0.0933 C   0  0  0  0  0  0  0  0  0  0  0  0
   -7.2276   41.4578   -6.3720 C   0  0  0  0  0  0  0  0  0  0  0  0
   -5.0545   40.2408   -8.0368 C   0  0  0  0  0  0  0  0  0  0  0  0
   -5.0723   40.5588   -9.5332 C   0  0  0  0  0  0  0  0  0  0  0  0
   -6.0588   41.5509   -9.8279 O   0  0  0  0  0  0  0  0  0  0  0  0
   -5.7389   43.1037   -9.5700 P   0  0  1  0  0  0  0  0  0  0  0  0
   -5.1833   43.6845  -12.2738 P   0  0  2  0  0  0  0  0  0  0  0  0
   -7.5474   37.3852   -7.7496 C   0  0  0  0  0  0  0  0  0  0  0  0
   -7.9292   40.1550   -2.3549 N   0  0  0  0  0  0  0  0  0  0  0  0
   -7.0831   43.9756   -9.5578 O   0  5  0  0  0  0  0  0  0  0  0  0
   -4.1453   44.1997  -13.1901 O   0  0  0  0  0  0  0  0  0  0  0  0
   -8.5665   37.9298   -6.9796 C   0  0  0  0  0  0  0  0  0  0  0  0
   -8.6865   39.3645   -1.5786 C   0  0  0  0  0  0  0  0  0  0  0  0
   -4.9988   43.3695   -8.1576 O   0  0  0  0  0  0  0  0  0  0  0  0
   -6.5316   44.5504  -12.3638 O   0  5  0  0  0  0  0  0  0  0  0  0
   -8.4652   39.2494   -6.5366 N   0  0  0  0  0  0  0  0  0  0  0  0
   -9.7334   38.7040   -2.0939 N   0  0  0  0  0  0  0  0  0  0  0  0
   -4.7539   43.6729  -10.7329 O   0  0  0  0  0  0  0  0  0  0  0  0
   -5.6077   42.1991  -12.6705 O   0  0  0  0  0  0  0  0  0  0  0  0
   -7.3354   40.0082   -6.8650 C   0  0  1  0  0  0  0  0  0  0  0  0
  -10.0376   38.8250   -3.3920 C   0  0  0  0  0  0  0  0  0  0  0  0
  -11.0789   38.1668   -3.8910 N   0  0  0  0  0  0  0  0  0  0  0  0
   -6.3130   39.4608   -7.6385 C   0  0  2  0  0  0  0  0  0  0  0  0
   -9.2706   39.6391   -4.2164 C   0  0  0  0  0  0  0  0  0  0  0  0
   -6.4311   38.1465   -8.0739 C   0  0  0  0  0  0  0  0  0  0  0  0
   -8.1932   40.3041   -3.6423 C   0  0  0  0  0  0  0  0  0  0  0  0
   -9.5508   39.8310   -5.7126 C   0  0  0  0  0  0  0  0  0  0  0  0
  1 13  1  0  0  0  0
  3  4  1  0  0  0  0
  4  5  1  0  0  0  0
  6  5  1  6  0  0  0
  6 10  1  0  0  0  0
  6 14  2  0  0  0  0
  6 18  1  0  0  0  0
  7 11  1  6  0  0  0
  7 15  1  0  0  0  0
  7 19  2  0  0  0  0
  7 18  1  0  0  0  0
  8 25  1  0  0  0  0
  8 12  1  0  0  0  0
  9 26  2  0  0  0  0
  9 13  1  0  0  0  0
 12 16  1  0  0  0  0
 13 17  2  0  0  0  0
 16 20  1  0  0  0  0
 16 27  1  0  0  0  0
 17 21  1  0  0  0  0
 20  2  1  6  0  0  0
 20 23  1  0  0  0  0
 21 22  1  0  0  0  0
 21 24  2  0  0  0  0
 23  3  1  1  0  0  0
 23 25  1  0  0  0  0
 24 27  1  0  0  0  0
 24 26  1  0  0  0  0
M  CHG  2  10  -1  15  -1
M  END
>  <CHROM.1>
71.10147550,80.37201513,-163.54345207,61.28521823,-178.23584735,-109.44344161
-113.16613649,91.89916678,-6.98646824,41.08708068,-7.64200254,-2.80207367
-1.17118494,-2.29786005

>  <Name>
ligand

>  <RI>
0

>  <Rbt.Current_Directory>
/home/itssahil/PROJECTS/Mol_Feturizer/New_Systems/rnas/3D2V

>  <Rbt.Executable>
rbdock ($Id: //depot/dev/client3/rdock/2013.1/src/exe/rbdock.cxx#4 $)

>  <Rbt.Library>
libRbt.so (2013.1, Build901 2013/11/27)

>  <Rbt.Parameter_File>
/export/apps/rDock/src/rDock_2013.1_src/data/scripts/dock_solv.prm

>  <Rbt.Receptor>
prm/pocket_docking_5.prm

>  <SCORE>
-14.4015

>  <SCORE.INTER>
-14.9241

>  <SCORE.INTER.CONST>
1

>  <SCORE.INTER.POLAR>
0

>  <SCORE.INTER.ROT>
8

>  <SCORE.INTER.SOLV>
23.2224

>  <SCORE.INTER.VDW>
-26.6235

>  <SCORE.INTER.norm>
-0.552745

>  <SCORE.INTRA>
0.52261

>  <SCORE.INTRA.DIHEDRAL>
0.0666845

>  <SCORE.INTRA.DIHEDRAL.0>
7.82666

>  <SCORE.INTRA.POLAR>
0

>  <SCORE.INTRA.POLAR.0>
0

>  <SCORE.INTRA.REPUL>
0

>  <SCORE.INTRA.REPUL.0>
0

>  <SCORE.INTRA.SOLV>
2.70173

>  <SCORE.INTRA.SOLV.lig_0>
-83.2758

>  <SCORE.INTRA.VDW>
-0.8616

>  <SCORE.INTRA.VDW.0>
-3.26816

>  <SCORE.INTRA.norm>
0.0193559

>  <SCORE.RESTR>
0

>  <SCORE.RESTR.CAVITY>
0

>  <SCORE.RESTR.norm>
0

>  <SCORE.SYSTEM>
0

>  <SCORE.SYSTEM.CONST>
0

>  <SCORE.SYSTEM.DIHEDRAL>
0

>  <SCORE.SYSTEM.SOLV>
0

>  <SCORE.SYSTEM.norm>
0

>  <SCORE.heavy>
27

>  <SCORE.norm>
-0.533389

>  <RMSD>
3.272

$$$$
ligand
 OpenBabel11021811473D
libRbt.so/2013.1/901 2013/11/27
 27 28  0  0  0  0  0  0  0  0999 V2000
  -13.7184   37.2535   -1.5483 C   0  0  0  0  0  0  0  0  0  0  0  0
   -6.9836   37.5503   -5.2277 C   0  0  0  0  0  0  0  0  0  0  0  0
   -7.1572   37.3907   -8.2143 C   0  0  0  0  0  0  0  0  0  0  0  0
   -5.9913   38.2014   -8.7836 C   0  0  0  0  0  0  0  0  0  0  0  0
   -6.3633   39.5714   -8.9541 O   0  0  0  0  0  0  0  0  0  0  0  0
   -5.3175   40.6158   -9.5831 P   0  0  1  0  0  0  0  0  0  0  0  0
   -6.5459   42.8506   -8.3776 P   0  0  2  0  0  0  0  0  0  0  0  0
   -9.8997   39.8867   -7.3781 C   0  0  0  0  0  0  0  0  0  0  0  0
  -12.2586   37.8755   -3.4639 N   0  0  0  0  0  0  0  0  0  0  0  0
   -3.9863   40.7046   -8.6960 O   0  5  0  0  0  0  0  0  0  0  0  0
   -7.2899   44.0926   -8.6717 O   0  0  0  0  0  0  0  0  0  0  0  0
   -9.8361   39.9763   -5.9939 C   0  0  0  0  0  0  0  0  0  0  0  0
  -12.4166   37.8022   -2.1332 C   0  0  0  0  0  0  0  0  0  0  0  0
   -4.8537   40.2202  -11.0804 O   0  0  0  0  0  0  0  0  0  0  0  0
   -5.2780   43.1321   -7.4348 O   0  5  0  0  0  0  0  0  0  0  0  0
   -8.8897   39.2230   -5.2977 N   0  0  0  0  0  0  0  0  0  0  0  0
  -11.4407   38.2070   -1.3075 N   0  0  0  0  0  0  0  0  0  0  0  0
   -5.9889   42.0949   -9.6729 O   0  0  0  0  0  0  0  0  0  0  0  0
   -7.4545   41.8199   -7.5677 O   0  0  0  0  0  0  0  0  0  0  0  0
   -8.0200   38.3792   -5.9990 C   0  0  1  0  0  0  0  0  0  0  0  0
  -10.2937   38.6900   -1.8008 C   0  0  0  0  0  0  0  0  0  0  0  0
   -9.3329   39.0863   -0.9725 N   0  0  0  0  0  0  0  0  0  0  0  0
   -8.0844   38.2903   -7.3886 C   0  0  1  0  0  0  0  0  0  0  0  0
  -10.1046   38.7740   -3.1749 C   0  0  0  0  0  0  0  0  0  0  0  0
   -9.0305   39.0493   -8.0666 C   0  0  0  0  0  0  0  0  0  0  0  0
  -11.1423   38.3457   -3.9948 C   0  0  0  0  0  0  0  0  0  0  0  0
   -8.8224   39.3156   -3.8203 C   0  0  0  0  0  0  0  0  0  0  0  0
  1 13  1  0  0  0  0
  3  4  1  0  0  0  0
  4  5  1  0  0  0  0
  6  5  1  1  0  0  0
  6 10  1  0  0  0  0
  6 14  2  0  0  0  0
  6 18  1  0  0  0  0
  7 11  1  6  0  0  0
  7 15  1  0  0  0  0
  7 19  2  0  0  0  0
  7 18  1  0  0  0  0
  8 25  1  0  0  0  0
  8 12  1  0  0  0  0
  9 26  2  0  0  0  0
  9 13  1  0  0  0  0
 12 16  1  0  0  0  0
 13 17  2  0  0  0  0
 16 20  1  0  0  0  0
 16 27  1  0  0  0  0
 17 21  1  0  0  0  0
 20  2  1  6  0  0  0
 20 23  1  0  0  0  0
 21 22  1  0  0  0  0
 21 24  2  0  0  0  0
 23  3  1  6  0  0  0
 23 25  1  0  0  0  0
 24 27  1  0  0  0  0
 24 26  1  0  0  0  0
M  CHG  2  10  -1  15  -1
M  END
>  <CHROM.1>
-27.18318012,-178.09703377,-59.55457332,58.33024835,-171.75110706,-98.10576673
177.36326363,64.91085129,-8.04542335,39.84309209,-6.45931167,-2.87685002
0.89752806,0.10636898

>  <Name>
ligand

>  <RI>
0

>  <Rbt.Current_Directory>
/home/itssahil/PROJECTS/Mol_Feturizer/New_Systems/rnas/3D2V

>  <Rbt.Executable>
rbdock ($Id: //depot/dev/client3/rdock/2013.1/src/exe/rbdock.cxx#4 $)

>  <Rbt.Library>
libRbt.so (2013.1, Build901 2013/11/27)

>  <Rbt.Parameter_File>
/export/apps/rDock/src/rDock_2013.1_src/data/scripts/dock_solv.prm

>  <Rbt.Receptor>
prm/pocket_docking_4.prm

>  <SCORE>
-22.6826

>  <SCORE.INTER>
-23.1724

>  <SCORE.INTER.CONST>
1

>  <SCORE.INTER.POLAR>
0

>  <SCORE.INTER.ROT>
8

>  <SCORE.INTER.SOLV>
27.1584

>  <SCORE.INTER.VDW>
-33.4344

>  <SCORE.INTER.norm>
-0.858237

>  <SCORE.INTRA>
0.489819

>  <SCORE.INTRA.DIHEDRAL>
0.646289

>  <SCORE.INTRA.DIHEDRAL.0>
7.82666

>  <SCORE.INTRA.POLAR>
0

>  <SCORE.INTRA.POLAR.0>
0

>  <SCORE.INTRA.REPUL>
0

>  <SCORE.INTRA.REPUL.0>
0

>  <SCORE.INTRA.SOLV>
1.26863

>  <SCORE.INTRA.SOLV.lig_0>
-83.2758

>  <SCORE.INTRA.VDW>
-0.467638

>  <SCORE.INTRA.VDW.0>
-3.26816

>  <SCORE.INTRA.norm>
0.0181415

>  <SCORE.RESTR>
0

>  <SCORE.RESTR.CAVITY>
0

>  <SCORE.RESTR.norm>
0

>  <SCORE.SYSTEM>
0

>  <SCORE.SYSTEM.CONST>
0

>  <SCORE.SYSTEM.DIHEDRAL>
0

>  <SCORE.SYSTEM.SOLV>
0

>  <SCORE.SYSTEM.norm>
0

>  <SCORE.heavy>
27

>  <SCORE.norm>
-0.840096

>  <RMSD>
3.288

$$$$
ligand
 OpenBabel11021811473D
libRbt.so/2013.1/901 2013/11/27
 27 28  0  0  0  0  0  0  0  0999 V2000
   -8.0077   39.0135    0.5696 C   0  0  0  0  0  0  0  0  0  0  0  0
   -8.2974   39.8900   -8.0212 C   0  0  0  0  0  0  0  0  0  0  0  0
   -7.1055   42.4542   -9.0111 C   0  0  0  0  0  0  0  0  0  0  0  0
   -5.6116   42.4830   -9.3399 C   0  0  0  0  0  0  0  0  0  0  0  0
   -5.4002   42.8708  -10.6997 O   0  0  0  0  0  0  0  0  0  0  0  0
   -3.9063   43.0000  -11.2756 P   0  0  1  0  0  0  0  0  0  0  0  0
   -1.9654   43.7291   -9.3631 P   0  0  2  0  0  0  0  0  0  0  0  0
   -7.1130   42.9681   -5.2446 C   0  0  0  0  0  0  0  0  0  0  0  0
   -9.3726   39.0956   -1.5082 N   0  0  0  0  0  0  0  0  0  0  0  0
   -3.1264   41.6040  -11.1751 O   0  5  0  0  0  0  0  0  0  0  0  0
   -0.7462   43.1289   -9.9424 O   0  0  0  0  0  0  0  0  0  0  0  0
   -7.6629   41.7869   -4.7642 C   0  0  0  0  0  0  0  0  0  0  0  0
   -8.1554   39.1521   -0.9459 C   0  0  0  0  0  0  0  0  0  0  0  0
   -3.8651   43.4455  -12.8291 O   0  0  0  0  0  0  0  0  0  0  0  0
   -2.6734   42.7354   -8.3204 O   0  5  0  0  0  0  0  0  0  0  0  0
   -8.0429   40.7887   -5.6625 N   0  0  0  0  0  0  0  0  0  0  0  0
   -7.0626   39.3297   -1.7024 N   0  0  0  0  0  0  0  0  0  0  0  0
   -3.0798   44.1250  -10.4404 O   0  0  0  0  0  0  0  0  0  0  0  0
   -1.6130   45.0398   -8.5253 O   0  0  0  0  0  0  0  0  0  0  0  0
   -7.8743   40.9899   -7.0377 C   0  0  1  0  0  0  0  0  0  0  0  0
   -7.1719   39.4529   -3.0310 C   0  0  0  0  0  0  0  0  0  0  0  0
   -6.0814   39.6266   -3.7705 N   0  0  0  0  0  0  0  0  0  0  0  0
   -7.3218   42.1758   -7.5189 C   0  0  1  0  0  0  0  0  0  0  0  0
   -8.4207   39.3955   -3.6376 C   0  0  0  0  0  0  0  0  0  0  0  0
   -6.9460   43.1582   -6.6109 C   0  0  0  0  0  0  0  0  0  0  0  0
   -9.5274   39.2123   -2.8165 C   0  0  0  0  0  0  0  0  0  0  0  0
   -8.6322   39.5288   -5.1514 C   0  0  0  0  0  0  0  0  0  0  0  0
  1 13  1  0  0  0  0
  3  4  1  0  0  0  0
  4  5  1  0  0  0  0
  6  5  1  1  0  0  0
  6 10  1  0  0  0  0
  6 14  2  0  0  0  0
  6 18  1  0  0  0  0
  7 11  1  6  0  0  0
  7 15  1  0  0  0  0
  7 19  2  0  0  0  0
  7 18  1  0  0  0  0
  8 25  1  0  0  0  0
  8 12  1  0  0  0  0
  9 26  2  0  0  0  0
  9 13  1  0  0  0  0
 12 16  1  0  0  0  0
 13 17  2  0  0  0  0
 16 20  1  0  0  0  0
 16 27  1  0  0  0  0
 17 21  1  0  0  0  0
 20  2  1  1  0  0  0
 20 23  1  0  0  0  0
 21 22  1  0  0  0  0
 21 24  2  0  0  0  0
 23  3  1  1  0  0  0
 23 25  1  0  0  0  0
 24 27  1  0  0  0  0
 24 26  1  0  0  0  0
M  CHG  2  10  -1  15  -1
M  END
>  <CHROM.1>
-174.33226376,178.88822906,59.97065062,104.87811728,68.75777559,-111.36998522
-55.59992718,-13.69586688,-5.66928908,41.71887492,-7.09054506,-2.14130363
-0.35000816,-1.34190172

>  <Name>
ligand

>  <RI>
0

>  <Rbt.Current_Directory>
/home/itssahil/PROJECTS/Mol_Feturizer/New_Systems/rnas/3D2V

>  <Rbt.Executable>
rbdock ($Id: //depot/dev/client3/rdock/2013.1/src/exe/rbdock.cxx#4 $)

>  <Rbt.Library>
libRbt.so (2013.1, Build901 2013/11/27)

>  <Rbt.Parameter_File>
/export/apps/rDock/src/rDock_2013.1_src/data/scripts/dock_solv.prm

>  <Rbt.Receptor>
prm/pocket_docking_4.prm

>  <SCORE>
-12.0402

>  <SCORE.INTER>
-13.182

>  <SCORE.INTER.CONST>
1

>  <SCORE.INTER.POLAR>
0

>  <SCORE.INTER.ROT>
8

>  <SCORE.INTER.SOLV>
16.511

>  <SCORE.INTER.VDW>
-23.225

>  <SCORE.INTER.norm>
-0.488221

>  <SCORE.INTRA>
1.14173

>  <SCORE.INTRA.DIHEDRAL>
-0.355811

>  <SCORE.INTRA.DIHEDRAL.0>
7.82666

>  <SCORE.INTRA.POLAR>
0

>  <SCORE.INTRA.POLAR.0>
0

>  <SCORE.INTRA.REPUL>
0

>  <SCORE.INTRA.REPUL.0>
0

>  <SCORE.INTRA.SOLV>
1.64424

>  <SCORE.INTRA.SOLV.lig_0>
-83.2758

>  <SCORE.INTRA.VDW>
0.497519

>  <SCORE.INTRA.VDW.0>
-3.26816

>  <SCORE.INTRA.norm>
0.0422865

>  <SCORE.RESTR>
0

>  <SCORE.RESTR.CAVITY>
0

>  <SCORE.RESTR.norm>
0

>  <SCORE.SYSTEM>
0

>  <SCORE.SYSTEM.CONST>
0

>  <SCORE.SYSTEM.DIHEDRAL>
0

>  <SCORE.SYSTEM.SOLV>
0

>  <SCORE.SYSTEM.norm>
0

>  <SCORE.heavy>
27

>  <SCORE.norm>
-0.445935

>  <RMSD>
3.317

$$$$
ligand
 OpenBabel11021811473D
libRbt.so/2013.1/901 2013/11/27
 27 28  0  0  0  0  0  0  0  0999 V2000
   -9.6354   38.7139   -0.5799 C   0  0  0  0  0  0  0  0  0  0  0  0
   -6.6655   39.2302   -8.4697 C   0  0  0  0  0  0  0  0  0  0  0  0
   -5.1788   41.7616   -9.0672 C   0  0  0  0  0  0  0  0  0  0  0  0
   -3.7467   41.5946   -8.5555 C   0  0  0  0  0  0  0  0  0  0  0  0
   -2.8100   42.1473   -9.4836 O   0  0  0  0  0  0  0  0  0  0  0  0
   -2.6048   43.7382   -9.5671 P   0  0  1  0  0  0  0  0  0  0  0  0
   -0.7153   44.1634   -7.5164 P   0  0  2  0  0  0  0  0  0  0  0  0
   -7.2796   42.7500   -6.0571 C   0  0  0  0  0  0  0  0  0  0  0  0
  -10.3230   38.8361   -2.9672 N   0  0  0  0  0  0  0  0  0  0  0  0
   -1.4588   44.1178  -10.6205 O   0  5  0  0  0  0  0  0  0  0  0  0
    0.0531   43.0454   -8.1013 O   0  0  0  0  0  0  0  0  0  0  0  0
   -7.9786   41.5870   -5.7623 C   0  0  0  0  0  0  0  0  0  0  0  0
   -9.3241   38.8454   -2.0711 C   0  0  0  0  0  0  0  0  0  0  0  0
   -3.9403   44.5234  -10.0289 O   0  0  0  0  0  0  0  0  0  0  0  0
   -0.8763   44.0007   -5.9279 O   0  5  0  0  0  0  0  0  0  0  0  0
   -7.7773   40.4462   -6.5407 N   0  0  0  0  0  0  0  0  0  0  0  0
   -8.0504   38.9694   -2.4713 N   0  0  0  0  0  0  0  0  0  0  0  0
   -2.1928   44.3268   -8.1075 O   0  0  0  0  0  0  0  0  0  0  0  0
    0.0465   45.5492   -7.7244 O   0  0  0  0  0  0  0  0  0  0  0  0
   -6.8802   40.4868   -7.6148 C   0  0  1  0  0  0  0  0  0  0  0  0
   -7.7581   39.0854   -3.7727 C   0  0  0  0  0  0  0  0  0  0  0  0
   -6.4917   39.2057   -4.1575 N   0  0  0  0  0  0  0  0  0  0  0  0
   -6.1786   41.6547   -7.9097 C   0  0  1  0  0  0  0  0  0  0  0  0
   -8.7742   39.0762   -4.7205 C   0  0  0  0  0  0  0  0  0  0  0  0
   -6.3885   42.7806   -7.1229 C   0  0  0  0  0  0  0  0  0  0  0  0
  -10.0805   38.9478   -4.2626 C   0  0  0  0  0  0  0  0  0  0  0  0
   -8.5246   39.2052   -6.2288 C   0  0  0  0  0  0  0  0  0  0  0  0
  1 13  1  0  0  0  0
  3  4  1  0  0  0  0
  4  5  1  0  0  0  0
  6  5  1  1  0  0  0
  6 10  1  0  0  0  0
  6 14  2  0  0  0  0
  6 18  1  0  0  0  0
  7 11  1  6  0  0  0
  7 15  1  0  0  0  0
  7 19  2  0  0  0  0
  7 18  1  0  0  0  0
  8 25  1  0  0  0  0
  8 12  1  0  0  0  0
  9 26  2  0  0  0  0
  9 13  1  0  0  0  0
 12 16  1  0  0  0  0
 13 17  2  0  0  0  0
 16 20  1  0  0  0  0
 16 27  1  0  0  0  0
 17 21  1  0  0  0  0
 20  2  1  1  0  0  0
 20 23  1  0  0  0  0
 21 22  1  0  0  0  0
 21 24  2  0  0  0  0
 23  3  1  1  0  0  0
 23 25  1  0  0  0  0
 24 27  1  0  0  0  0
 24 26  1  0  0  0  0
M  CHG  2  10  -1  15  -1
M  END
>  <CHROM.1>
-159.44291021,76.94211399,177.17782633,76.64008284,-22.53607197,-98.61820569
-56.59772897,-32.93859470,-5.06369887,41.75548213,-6.77130854,-2.55527205
-0.50597919,-1.43500419

>  <Name>
ligand

>  <RI>
0

>  <Rbt.Current_Directory>
/home/itssahil/PROJECTS/Mol_Feturizer/New_Systems/rnas/3D2V

>  <Rbt.Executable>
rbdock ($Id: //depot/dev/client3/rdock/2013.1/src/exe/rbdock.cxx#4 $)

>  <Rbt.Library>
libRbt.so (2013.1, Build901 2013/11/27)

>  <Rbt.Parameter_File>
/export/apps/rDock/src/rDock_2013.1_src/data/scripts/dock_solv.prm

>  <Rbt.Receptor>
prm/pocket_docking_7.prm

>  <SCORE>
-13.1967

>  <SCORE.INTER>
-14.342

>  <SCORE.INTER.CONST>
1

>  <SCORE.INTER.POLAR>
0

>  <SCORE.INTER.ROT>
8

>  <SCORE.INTER.SOLV>
15.0393

>  <SCORE.INTER.VDW>
-23.5078

>  <SCORE.INTER.norm>
-0.531185

>  <SCORE.INTRA>
1.14526

>  <SCORE.INTRA.DIHEDRAL>
2.21401

>  <SCORE.INTRA.DIHEDRAL.0>
7.82666

>  <SCORE.INTRA.POLAR>
0

>  <SCORE.INTRA.POLAR.0>
0

>  <SCORE.INTRA.REPUL>
0

>  <SCORE.INTRA.REPUL.0>
0

>  <SCORE.INTRA.SOLV>
0.688015

>  <SCORE.INTRA.SOLV.lig_0>
-83.2758

>  <SCORE.INTRA.VDW>
-0.305754

>  <SCORE.INTRA.VDW.0>
-3.26816

>  <SCORE.INTRA.norm>
0.0424171

>  <SCORE.RESTR>
0

>  <SCORE.RESTR.CAVITY>
0

>  <SCORE.RESTR.norm>
0

>  <SCORE.SYSTEM>
0

>  <SCORE.SYSTEM.CONST>
0

>  <SCORE.SYSTEM.DIHEDRAL>
0

>  <SCORE.SYSTEM.SOLV>
0

>  <SCORE.SYSTEM.norm>
0

>  <SCORE.heavy>
27

>  <SCORE.norm>
-0.488768

>  <RMSD>
3.342

$$$$
ligand
 OpenBabel11021811473D
libRbt.so/2013.1/901 2013/11/27
 27 28  0  0  0  0  0  0  0  0999 V2000
   -6.4606   40.0548    0.3125 C   0  0  0  0  0  0  0  0  0  0  0  0
   -7.1847   37.1028   -6.6151 C   0  0  0  0  0  0  0  0  0  0  0  0
   -6.2414   38.8203   -8.8813 C   0  0  0  0  0  0  0  0  0  0  0  0
   -5.0102   39.7158   -9.0338 C   0  0  0  0  0  0  0  0  0  0  0  0
   -5.3710   40.9809   -9.5938 O   0  0  0  0  0  0  0  0  0  0  0  0
   -4.2290   42.0346  -10.0006 P   0  0  1  0  0  0  0  0  0  0  0  0
   -2.0465   43.3670   -8.8100 P   0  0  2  0  0  0  0  0  0  0  0  0
   -8.3921   41.2330   -6.8802 C   0  0  0  0  0  0  0  0  0  0  0  0
   -6.4260   39.5505   -2.1230 N   0  0  0  0  0  0  0  0  0  0  0  0
   -3.3544   41.4923  -11.2287 O   0  5  0  0  0  0  0  0  0  0  0  0
   -1.0126   43.0441   -9.8146 O   0  0  0  0  0  0  0  0  0  0  0  0
   -8.8405   40.4549   -5.8211 C   0  0  0  0  0  0  0  0  0  0  0  0
   -7.1282   39.5838   -0.9799 C   0  0  0  0  0  0  0  0  0  0  0  0
   -4.8247   43.4685  -10.4507 O   0  0  0  0  0  0  0  0  0  0  0  0
   -1.4255   43.4564   -7.3328 O   0  5  0  0  0  0  0  0  0  0  0  0
   -8.4468   39.1189   -5.7329 N   0  0  0  0  0  0  0  0  0  0  0  0
   -8.4148   39.2067   -0.9589 N   0  0  0  0  0  0  0  0  0  0  0  0
   -3.2443   42.3094   -8.7351 O   0  0  0  0  0  0  0  0  0  0  0  0
   -2.6833   44.8026   -9.0884 O   0  0  0  0  0  0  0  0  0  0  0  0
   -7.6115   38.5738   -6.7154 C   0  0  1  0  0  0  0  0  0  0  0  0
   -9.0168   38.7917   -2.0804 C   0  0  0  0  0  0  0  0  0  0  0  0
  -10.2930   38.4222   -2.0476 N   0  0  0  0  0  0  0  0  0  0  0  0
   -7.1616   39.3558   -7.7779 C   0  0  1  0  0  0  0  0  0  0  0  0
   -8.3121   38.7502   -3.2773 C   0  0  0  0  0  0  0  0  0  0  0  0
   -7.5605   40.6849   -7.8492 C   0  0  0  0  0  0  0  0  0  0  0  0
   -6.9802   39.1477   -3.2542 C   0  0  0  0  0  0  0  0  0  0  0  0
   -8.9266   38.2867   -4.6045 C   0  0  0  0  0  0  0  0  0  0  0  0
  1 13  1  0  0  0  0
  3  4  1  0  0  0  0
  4  5  1  0  0  0  0
  6  5  1  1  0  0  0
  6 10  1  0  0  0  0
  6 14  2  0  0  0  0
  6 18  1  0  0  0  0
  7 11  1  6  0  0  0
  7 15  1  0  0  0  0
  7 19  2  0  0  0  0
  7 18  1  0  0  0  0
  8 25  1  0  0  0  0
  8 12  1  0  0  0  0
  9 26  2  0  0  0  0
  9 13  1  0  0  0  0
 12 16  1  0  0  0  0
 13 17  2  0  0  0  0
 16 20  1  0  0  0  0
 16 27  1  0  0  0  0
 17 21  1  0  0  0  0
 20  2  1  1  0  0  0
 20 23  1  0  0  0  0
 21 22  1  0  0  0  0
 21 24  2  0  0  0  0
 23  3  1  1  0  0  0
 23 25  1  0  0  0  0
 24 27  1  0  0  0  0
 24 26  1  0  0  0  0
M  CHG  2  10  -1  15  -1
M  END
>  <CHROM.1>
-69.79474931,-173.27892671,66.87533417,-177.13044675,-62.29815978,-127.05235345
141.01140544,-68.35781270,-5.74418700,40.73106143,-6.68279866,-2.34106752
-0.65516440,-1.60530664

>  <Name>
ligand

>  <RI>
0

>  <Rbt.Current_Directory>
/home/itssahil/PROJECTS/Mol_Feturizer/New_Systems/rnas/3D2V

>  <Rbt.Executable>
rbdock ($Id: //depot/dev/client3/rdock/2013.1/src/exe/rbdock.cxx#4 $)

>  <Rbt.Library>
libRbt.so (2013.1, Build901 2013/11/27)

>  <Rbt.Parameter_File>
/export/apps/rDock/src/rDock_2013.1_src/data/scripts/dock_solv.prm

>  <Rbt.Receptor>
prm/pocket_docking_3.prm

>  <SCORE>
-15.1335

>  <SCORE.INTER>
-13.7948

>  <SCORE.INTER.CONST>
1

>  <SCORE.INTER.POLAR>
0

>  <SCORE.INTER.ROT>
8

>  <SCORE.INTER.SOLV>
20.2488

>  <SCORE.INTER.VDW>
-24.8794

>  <SCORE.INTER.norm>
-0.510918

>  <SCORE.INTRA>
-1.33876

>  <SCORE.INTRA.DIHEDRAL>
-1.97554

>  <SCORE.INTRA.DIHEDRAL.0>
7.82666

>  <SCORE.INTRA.POLAR>
0

>  <SCORE.INTRA.POLAR.0>
0

>  <SCORE.INTRA.REPUL>
0

>  <SCORE.INTRA.REPUL.0>
0

>  <SCORE.INTRA.SOLV>
-0.983468

>  <SCORE.INTRA.SOLV.lig_0>
-83.2758

>  <SCORE.INTRA.VDW>
0.140746

>  <SCORE.INTRA.VDW.0>
-3.26816

>  <SCORE.INTRA.norm>
-0.0495836

>  <SCORE.RESTR>
0

>  <SCORE.RESTR.CAVITY>
0

>  <SCORE.RESTR.norm>
0

>  <SCORE.SYSTEM>
0

>  <SCORE.SYSTEM.CONST>
0

>  <SCORE.SYSTEM.DIHEDRAL>
0

>  <SCORE.SYSTEM.SOLV>
0

>  <SCORE.SYSTEM.norm>
0

>  <SCORE.heavy>
27

>  <SCORE.norm>
-0.560501

>  <RMSD>
3.343

$$$$
ligand
 OpenBabel11021811473D
libRbt.so/2013.1/901 2013/11/27
 27 28  0  0  0  0  0  0  0  0999 V2000
   -8.8030   39.4559   -0.3301 C   0  0  0  0  0  0  0  0  0  0  0  0
   -6.4036   37.4378   -7.9392 C   0  0  0  0  0  0  0  0  0  0  0  0
   -5.4659   39.7305   -9.6243 C   0  0  0  0  0  0  0  0  0  0  0  0
   -4.4174   40.8413   -9.5383 C   0  0  0  0  0  0  0  0  0  0  0  0
   -4.9691   42.0916   -9.9587 O   0  0  0  0  0  0  0  0  0  0  0  0
   -4.0147   43.3707  -10.1402 P   0  0  1  0  0  0  0  0  0  0  0  0
   -6.2074   45.1451  -10.1359 P   0  0  2  0  0  0  0  0  0  0  0  0
   -8.0064   41.3946   -7.3378 C   0  0  0  0  0  0  0  0  0  0  0  0
   -9.7708   38.6665   -2.4813 N   0  0  0  0  0  0  0  0  0  0  0  0
   -3.4063   43.8410   -8.7346 O   0  5  0  0  0  0  0  0  0  0  0  0
   -6.7588   46.3507  -10.7879 O   0  0  0  0  0  0  0  0  0  0  0  0
   -8.4546   40.3462   -6.5452 C   0  0  0  0  0  0  0  0  0  0  0  0
   -8.6824   39.0600   -1.8021 C   0  0  0  0  0  0  0  0  0  0  0  0
   -2.7598   43.0879  -11.1194 O   0  0  0  0  0  0  0  0  0  0  0  0
   -5.8914   45.4064   -8.5843 O   0  5  0  0  0  0  0  0  0  0  0  0
   -7.9333   39.0660   -6.7370 N   0  0  0  0  0  0  0  0  0  0  0  0
   -7.4848   39.1101   -2.4033 N   0  0  0  0  0  0  0  0  0  0  0  0
   -4.8511   44.6054  -10.7903 O   0  0  0  0  0  0  0  0  0  0  0  0
   -7.2649   43.9514  -10.1569 O   0  0  0  0  0  0  0  0  0  0  0  0
   -6.9708   38.8487   -7.7303 C   0  0  1  0  0  0  0  0  0  0  0  0
   -7.3593   38.7671   -3.6913 C   0  0  0  0  0  0  0  0  0  0  0  0
   -6.1668   38.8189   -4.2758 N   0  0  0  0  0  0  0  0  0  0  0  0
   -6.5211   39.9018   -8.5252 C   0  0  1  0  0  0  0  0  0  0  0  0
   -8.4707   38.3540   -4.4158 C   0  0  0  0  0  0  0  0  0  0  0  0
   -7.0483   41.1709   -8.3192 C   0  0  0  0  0  0  0  0  0  0  0  0
   -9.6932   38.3186   -3.7549 C   0  0  0  0  0  0  0  0  0  0  0  0
   -8.4126   37.9458   -5.8936 C   0  0  0  0  0  0  0  0  0  0  0  0
  1 13  1  0  0  0  0
  3  4  1  0  0  0  0
  4  5  1  0  0  0  0
  6  5  1  1  0  0  0
  6 10  1  0  0  0  0
  6 14  2  0  0  0  0
  6 18  1  0  0  0  0
  7 11  1  6  0  0  0
  7 15  1  0  0  0  0
  7 19  2  0  0  0  0
  7 18  1  0  0  0  0
  8 25  1  0  0  0  0
  8 12  1  0  0  0  0
  9 26  2  0  0  0  0
  9 13  1  0  0  0  0
 12 16  1  0  0  0  0
 13 17  2  0  0  0  0
 16 20  1  0  0  0  0
 16 27  1  0  0  0  0
 17 21  1  0  0  0  0
 20  2  1  1  0  0  0
 20 23  1  0  0  0  0
 21 22  1  0  0  0  0
 21 24  2  0  0  0  0
 23  3  1  1  0  0  0
 23 25  1  0  0  0  0
 24 27  1  0  0  0  0
 24 26  1  0  0  0  0
M  CHG  2  10  -1  15  -1
M  END
>  <CHROM.1>
-71.59922179,-172.03237402,-66.04282089,54.47517878,174.47751506,-134.12627435
-60.39495275,-45.52645459,-6.51049717,41.36205795,-7.49501344,2.29582606
-1.00146748,2.88578498

>  <Name>
ligand

>  <RI>
0

>  <Rbt.Current_Directory>
/home/itssahil/PROJECTS/Mol_Feturizer/New_Systems/rnas/3D2V

>  <Rbt.Executable>
rbdock ($Id: //depot/dev/client3/rdock/2013.1/src/exe/rbdock.cxx#4 $)

>  <Rbt.Library>
libRbt.so (2013.1, Build901 2013/11/27)

>  <Rbt.Parameter_File>
/export/apps/rDock/src/rDock_2013.1_src/data/scripts/dock_solv.prm

>  <Rbt.Receptor>
prm/pocket_docking_8.prm

>  <SCORE>
-17.6912

>  <SCORE.INTER>
-17.8066

>  <SCORE.INTER.CONST>
1

>  <SCORE.INTER.POLAR>
0

>  <SCORE.INTER.ROT>
8

>  <SCORE.INTER.SOLV>
11.6701

>  <SCORE.INTER.VDW>
-24.6944

>  <SCORE.INTER.norm>
-0.659505

>  <SCORE.INTRA>
0.110932

>  <SCORE.INTRA.DIHEDRAL>
-1.69689

>  <SCORE.INTRA.DIHEDRAL.0>
7.82666

>  <SCORE.INTRA.POLAR>
0

>  <SCORE.INTRA.POLAR.0>
0

>  <SCORE.INTRA.REPUL>
0

>  <SCORE.INTRA.REPUL.0>
0

>  <SCORE.INTRA.SOLV>
2.70346

>  <SCORE.INTRA.SOLV.lig_0>
-83.2758

>  <SCORE.INTRA.VDW>
-0.392348

>  <SCORE.INTRA.VDW.0>
-3.26816

>  <SCORE.INTRA.norm>
0.0041086

>  <SCORE.RESTR>
0.0045335

>  <SCORE.RESTR.CAVITY>
0.0045335

>  <SCORE.RESTR.norm>
0.000167907

>  <SCORE.SYSTEM>
0

>  <SCORE.SYSTEM.CONST>
0

>  <SCORE.SYSTEM.DIHEDRAL>
0

>  <SCORE.SYSTEM.SOLV>
0

>  <SCORE.SYSTEM.norm>
0

>  <SCORE.heavy>
27

>  <SCORE.norm>
-0.655229

>  <RMSD>
3.355

$$$$
ligand
 OpenBabel11021811473D
libRbt.so/2013.1/901 2013/11/27
 27 28  0  0  0  0  0  0  0  0999 V2000
   -8.4438   39.6836   -0.1907 C   0  0  0  0  0  0  0  0  0  0  0  0
   -4.6657   40.0962   -6.2009 C   0  0  0  0  0  0  0  0  0  0  0  0
   -5.3893   42.1391   -8.2693 C   0  0  0  0  0  0  0  0  0  0  0  0
   -4.9598   41.9009   -9.7182 C   0  0  0  0  0  0  0  0  0  0  0  0
   -4.3596   43.0765  -10.2678 O   0  0  0  0  0  0  0  0  0  0  0  0
   -2.8460   43.4581   -9.8892 P   0  0  1  0  0  0  0  0  0  0  0  0
   -1.3193   43.9150   -7.5618 P   0  0  2  0  0  0  0  0  0  0  0  0
   -8.5721   40.0749   -8.0245 C   0  0  0  0  0  0  0  0  0  0  0  0
   -6.6836   39.2899   -1.9036 N   0  0  0  0  0  0  0  0  0  0  0  0
   -1.8043   42.4978  -10.6373 O   0  5  0  0  0  0  0  0  0  0  0  0
   -1.1340   45.3706   -7.7329 O   0  0  0  0  0  0  0  0  0  0  0  0
   -8.2578   39.1192   -7.0674 C   0  0  0  0  0  0  0  0  0  0  0  0
   -7.9877   39.2627   -1.5881 C   0  0  0  0  0  0  0  0  0  0  0  0
   -2.4567   44.9737  -10.2956 O   0  0  0  0  0  0  0  0  0  0  0  0
   -0.0689   43.0899   -8.1375 O   0  5  0  0  0  0  0  0  0  0  0  0
   -6.9946   39.1280   -6.4741 N   0  0  0  0  0  0  0  0  0  0  0  0
   -8.8991   38.8687   -2.4894 N   0  0  0  0  0  0  0  0  0  0  0  0
   -2.6208   43.3280   -8.2833 O   0  0  0  0  0  0  0  0  0  0  0  0
   -1.4053   43.5289   -6.0166 O   0  0  0  0  0  0  0  0  0  0  0  0
   -6.0546   40.0935   -6.8542 C   0  0  1  0  0  0  0  0  0  0  0  0
   -8.5190   38.4968   -3.7180 C   0  0  0  0  0  0  0  0  0  0  0  0
   -9.4316   38.1099   -4.6034 N   0  0  0  0  0  0  0  0  0  0  0  0
   -6.3713   41.0528   -7.8147 C   0  0  2  0  0  0  0  0  0  0  0  0
   -7.1749   38.5182   -4.0701 C   0  0  0  0  0  0  0  0  0  0  0  0
   -7.6344   41.0316   -8.3935 C   0  0  0  0  0  0  0  0  0  0  0  0
   -6.2634   38.9313   -3.1052 C   0  0  0  0  0  0  0  0  0  0  0  0
   -6.6569   38.1072   -5.4545 C   0  0  0  0  0  0  0  0  0  0  0  0
  1 13  1  0  0  0  0
  3  4  1  0  0  0  0
  4  5  1  0  0  0  0
  6  5  1  6  0  0  0
  6 10  1  0  0  0  0
  6 14  2  0  0  0  0
  6 18  1  0  0  0  0
  7 11  1  6  0  0  0
  7 15  1  0  0  0  0
  7 19  2  0  0  0  0
  7 18  1  0  0  0  0
  8 25  1  0  0  0  0
  8 12  1  0  0  0  0
  9 26  2  0  0  0  0
  9 13  1  0  0  0  0
 12 16  1  0  0  0  0
 13 17  2  0  0  0  0
 16 20  1  0  0  0  0
 16 27  1  0  0  0  0
 17 21  1  0  0  0  0
 20  2  1  1  0  0  0
 20 23  1  0  0  0  0
 21 22  1  0  0  0  0
 21 24  2  0  0  0  0
 23  3  1  6  0  0  0
 23 25  1  0  0  0  0
 24 27  1  0  0  0  0
 24 26  1  0  0  0  0
M  CHG  2  10  -1  15  -1
M  END
>  <CHROM.1>
163.82578581,77.68858693,74.14804552,-167.53747686,59.46382391,111.71861219
72.55213110,-83.06513139,-4.96643361,41.37358738,-6.75788696,-2.41696149
-0.56905637,-1.40150714

>  <Name>
ligand

>  <RI>
0

>  <Rbt.Current_Directory>
/home/itssahil/PROJECTS/Mol_Feturizer/New_Systems/rnas/3D2V

>  <Rbt.Executable>
rbdock ($Id: //depot/dev/client3/rdock/2013.1/src/exe/rbdock.cxx#4 $)

>  <Rbt.Library>
libRbt.so (2013.1, Build901 2013/11/27)

>  <Rbt.Parameter_File>
/export/apps/rDock/src/rDock_2013.1_src/data/scripts/dock_solv.prm

>  <Rbt.Receptor>
prm/pocket_docking_5.prm

>  <SCORE>
-8.67058

>  <SCORE.INTER>
-9.15466

>  <SCORE.INTER.CONST>
1

>  <SCORE.INTER.POLAR>
0

>  <SCORE.INTER.ROT>
8

>  <SCORE.INTER.SOLV>
19.22

>  <SCORE.INTER.VDW>
-21.4431

>  <SCORE.INTER.norm>
-0.339062

>  <SCORE.INTRA>
0.484084

>  <SCORE.INTRA.DIHEDRAL>
0.308147

>  <SCORE.INTRA.DIHEDRAL.0>
7.82666

>  <SCORE.INTRA.POLAR>
0

>  <SCORE.INTRA.POLAR.0>
0

>  <SCORE.INTRA.REPUL>
0

>  <SCORE.INTRA.REPUL.0>
0

>  <SCORE.INTRA.SOLV>
1.29626

>  <SCORE.INTRA.SOLV.lig_0>
-83.2758

>  <SCORE.INTRA.VDW>
-0.318121

>  <SCORE.INTRA.VDW.0>
-3.26816

>  <SCORE.INTRA.norm>
0.0179291

>  <SCORE.RESTR>
0

>  <SCORE.RESTR.CAVITY>
0

>  <SCORE.RESTR.norm>
0

>  <SCORE.SYSTEM>
0

>  <SCORE.SYSTEM.CONST>
0

>  <SCORE.SYSTEM.DIHEDRAL>
0

>  <SCORE.SYSTEM.SOLV>
0

>  <SCORE.SYSTEM.norm>
0

>  <SCORE.heavy>
27

>  <SCORE.norm>
-0.321132

>  <RMSD>
3.372

$$$$
ligand
 OpenBabel11021811473D
libRbt.so/2013.1/901 2013/11/27
 27 28  0  0  0  0  0  0  0  0999 V2000
  -12.1427   37.6862   -1.7379 C   0  0  0  0  0  0  0  0  0  0  0  0
   -6.5554   39.7930   -6.4151 C   0  0  0  0  0  0  0  0  0  0  0  0
   -6.7998   42.4762   -7.7252 C   0  0  0  0  0  0  0  0  0  0  0  0
   -5.4632   43.1733   -7.9861 C   0  0  0  0  0  0  0  0  0  0  0  0
   -5.5079   44.5335   -7.5478 O   0  0  0  0  0  0  0  0  0  0  0  0
   -6.2613   45.6396   -8.4359 P   0  0  1  0  0  0  0  0  0  0  0  0
   -5.1125   47.8299   -7.0797 P   0  0  2  0  0  0  0  0  0  0  0  0
   -7.5467   43.2830   -4.0862 C   0  0  0  0  0  0  0  0  0  0  0  0
   -9.8974   38.6873   -1.3590 N   0  0  0  0  0  0  0  0  0  0  0  0
   -5.4660   45.9267   -9.7969 O   0  5  0  0  0  0  0  0  0  0  0  0
   -4.1820   48.2505   -8.1474 O   0  0  0  0  0  0  0  0  0  0  0  0
   -7.4378   42.0491   -3.4587 C   0  0  0  0  0  0  0  0  0  0  0  0
  -10.7858   38.1885   -2.2324 C   0  0  0  0  0  0  0  0  0  0  0  0
   -7.7589   45.1988   -8.8560 O   0  0  0  0  0  0  0  0  0  0  0  0
   -4.3891   46.8788   -6.0083 O   0  5  0  0  0  0  0  0  0  0  0  0
   -7.1132   40.9197   -4.2116 N   0  0  0  0  0  0  0  0  0  0  0  0
  -10.4950   38.1256   -3.5398 N   0  0  0  0  0  0  0  0  0  0  0  0
   -6.3956   47.0302   -7.6024 O   0  0  0  0  0  0  0  0  0  0  0  0
   -5.6305   49.0876   -6.2468 O   0  0  0  0  0  0  0  0  0  0  0  0
   -6.9086   41.0392   -5.5915 C   0  0  1  0  0  0  0  0  0  0  0  0
   -9.3123   38.5607   -3.9917 C   0  0  0  0  0  0  0  0  0  0  0  0
   -9.0360   38.4950   -5.2901 N   0  0  0  0  0  0  0  0  0  0  0  0
   -7.0177   42.2784   -6.2204 C   0  0  1  0  0  0  0  0  0  0  0  0
   -8.3761   39.0837   -3.1080 C   0  0  0  0  0  0  0  0  0  0  0  0
   -7.3386   43.3933   -5.4557 C   0  0  0  0  0  0  0  0  0  0  0  0
   -8.7173   39.1286   -1.7611 C   0  0  0  0  0  0  0  0  0  0  0  0
   -6.9993   39.6018   -3.5437 C   0  0  0  0  0  0  0  0  0  0  0  0
  1 13  1  0  0  0  0
  3  4  1  0  0  0  0
  4  5  1  0  0  0  0
  6  5  1  1  0  0  0
  6 10  1  0  0  0  0
  6 14  2  0  0  0  0
  6 18  1  0  0  0  0
  7 11  1  6  0  0  0
  7 15  1  0  0  0  0
  7 19  2  0  0  0  0
  7 18  1  0  0  0  0
  8 25  1  0  0  0  0
  8 12  1  0  0  0  0
  9 26  2  0  0  0  0
  9 13  1  0  0  0  0
 12 16  1  0  0  0  0
 13 17  2  0  0  0  0
 16 20  1  0  0  0  0
 16 27  1  0  0  0  0
 17 21  1  0  0  0  0
 20  2  1  1  0  0  0
 20 23  1  0  0  0  0
 21 22  1  0  0  0  0
 21 24  2  0  0  0  0
 23  3  1  1  0  0  0
 23 25  1  0  0  0  0
 24 27  1  0  0  0  0
 24 26  1  0  0  0  0
M  CHG  2  10  -1  15  -1
M  END
>  <CHROM.1>
-69.51603129,-77.24828449,-69.28547031,60.33281792,59.19508114,-106.46304741
74.98403135,70.83581372,-7.13467562,43.00992726,-5.78587037,3.00376601,-1.16052005
-2.24447816

>  <Name>
ligand

>  <RI>
0

>  <Rbt.Current_Directory>
/home/itssahil/PROJECTS/Mol_Feturizer/New_Systems/rnas/3D2V

>  <Rbt.Executable>
rbdock ($Id: //depot/dev/client3/rdock/2013.1/src/exe/rbdock.cxx#4 $)

>  <Rbt.Library>
libRbt.so (2013.1, Build901 2013/11/27)

>  <Rbt.Parameter_File>
/export/apps/rDock/src/rDock_2013.1_src/data/scripts/dock_solv.prm

>  <Rbt.Receptor>
prm/pocket_docking_6.prm

>  <SCORE>
-16.7719

>  <SCORE.INTER>
-16.8569

>  <SCORE.INTER.CONST>
1

>  <SCORE.INTER.POLAR>
0

>  <SCORE.INTER.ROT>
8

>  <SCORE.INTER.SOLV>
16.8501

>  <SCORE.INTER.VDW>
-25.788

>  <SCORE.INTER.norm>
-0.624328

>  <SCORE.INTRA>
0.0849862

>  <SCORE.INTRA.DIHEDRAL>
-0.790701

>  <SCORE.INTRA.DIHEDRAL.0>
7.82666

>  <SCORE.INTRA.POLAR>
0

>  <SCORE.INTRA.POLAR.0>
0

>  <SCORE.INTRA.REPUL>
0

>  <SCORE.INTRA.REPUL.0>
0

>  <SCORE.INTRA.SOLV>
2.37807

>  <SCORE.INTRA.SOLV.lig_0>
-83.2758

>  <SCORE.INTRA.VDW>
-0.708697

>  <SCORE.INTRA.VDW.0>
-3.26816

>  <SCORE.INTRA.norm>
0.00314764

>  <SCORE.RESTR>
0

>  <SCORE.RESTR.CAVITY>
0

>  <SCORE.RESTR.norm>
0

>  <SCORE.SYSTEM>
0

>  <SCORE.SYSTEM.CONST>
0

>  <SCORE.SYSTEM.DIHEDRAL>
0

>  <SCORE.SYSTEM.SOLV>
0

>  <SCORE.SYSTEM.norm>
0

>  <SCORE.heavy>
27

>  <SCORE.norm>
-0.621181

>  <RMSD>
3.387

$$$$
ligand
 OpenBabel11021811473D
libRbt.so/2013.1/901 2013/11/27
 27 28  0  0  0  0  0  0  0  0999 V2000
  -12.2020   37.6055   -1.7723 C   0  0  0  0  0  0  0  0  0  0  0  0
   -4.4253   40.9103   -3.7206 C   0  0  0  0  0  0  0  0  0  0  0  0
   -4.5730   43.6128   -5.0050 C   0  0  0  0  0  0  0  0  0  0  0  0
   -4.5976   43.9089   -6.5058 C   0  0  0  0  0  0  0  0  0  0  0  0
   -5.7452   44.6896   -6.8488 O   0  0  0  0  0  0  0  0  0  0  0  0
   -5.9698   45.1641   -8.3669 P   0  0  1  0  0  0  0  0  0  0  0  0
   -6.3929   43.8243  -10.8127 P   0  0  2  0  0  0  0  0  0  0  0  0
   -8.2414   42.7696   -4.4731 C   0  0  0  0  0  0  0  0  0  0  0  0
   -9.9995   38.5708   -1.1365 N   0  0  0  0  0  0  0  0  0  0  0  0
   -7.4706   45.6765   -8.5953 O   0  5  0  0  0  0  0  0  0  0  0  0
   -6.3637   45.0712  -11.6045 O   0  0  0  0  0  0  0  0  0  0  0  0
   -8.1958   41.5167   -3.8761 C   0  0  0  0  0  0  0  0  0  0  0  0
  -10.8044   38.1237   -2.1129 C   0  0  0  0  0  0  0  0  0  0  0  0
   -4.9928   46.3770   -8.8001 O   0  0  0  0  0  0  0  0  0  0  0  0
   -7.8969   43.3420  -10.5278 O   0  5  0  0  0  0  0  0  0  0  0  0
   -6.9605   40.9161   -3.6290 N   0  0  0  0  0  0  0  0  0  0  0  0
  -10.3941   38.1265   -3.3894 N   0  0  0  0  0  0  0  0  0  0  0  0
   -5.6738   43.9326   -9.3879 O   0  0  0  0  0  0  0  0  0  0  0  0
   -5.7087   42.6254  -11.6118 O   0  0  0  0  0  0  0  0  0  0  0  0
   -5.7809   41.5772   -3.9916 C   0  0  1  0  0  0  0  0  0  0  0  0
   -9.1740   38.5766   -3.7072 C   0  0  0  0  0  0  0  0  0  0  0  0
   -8.7791   38.5762   -4.9762 N   0  0  0  0  0  0  0  0  0  0  0  0
   -5.8278   42.8352   -4.5904 C   0  0  2  0  0  0  0  0  0  0  0  0
   -8.3225   39.0471   -2.7149 C   0  0  0  0  0  0  0  0  0  0  0  0
   -7.0657   43.4203   -4.8268 C   0  0  0  0  0  0  0  0  0  0  0  0
   -8.7865   39.0246   -1.4047 C   0  0  0  0  0  0  0  0  0  0  0  0
   -6.9104   39.5780   -2.9944 C   0  0  0  0  0  0  0  0  0  0  0  0
  1 13  1  0  0  0  0
  3  4  1  0  0  0  0
  4  5  1  0  0  0  0
  6  5  1  1  0  0  0
  6 10  1  0  0  0  0
  6 14  2  0  0  0  0
  6 18  1  0  0  0  0
  7 11  1  6  0  0  0
  7 15  1  0  0  0  0
  7 19  2  0  0  0  0
  7 18  1  0  0  0  0
  8 25  1  0  0  0  0
  8 12  1  0  0  0  0
  9 26  2  0  0  0  0
  9 13  1  0  0  0  0
 12 16  1  0  0  0  0
 13 17  2  0  0  0  0
 16 20  1  0  0  0  0
 16 27  1  0  0  0  0
 17 21  1  0  0  0  0
 20  2  1  1  0  0  0
 20 23  1  0  0  0  0
 21 22  1  0  0  0  0
 21 24  2  0  0  0  0
 23  3  1  6  0  0  0
 23 25  1  0  0  0  0
 24 27  1  0  0  0  0
 24 26  1  0  0  0  0
M  CHG  2  10  -1  15  -1
M  END
>  <CHROM.1>
59.92837350,178.26137731,165.07496829,151.84440867,48.14626404,121.09176095
73.68120707,0.60531090,-7.15072265,42.17563212,-6.14975161,2.03149606,0.69957780
1.93412401

>  <Name>
ligand

>  <RI>
0

>  <Rbt.Current_Directory>
/home/itssahil/PROJECTS/Mol_Feturizer/New_Systems/rnas/3D2V

>  <Rbt.Executable>
rbdock ($Id: //depot/dev/client3/rdock/2013.1/src/exe/rbdock.cxx#4 $)

>  <Rbt.Library>
libRbt.so (2013.1, Build901 2013/11/27)

>  <Rbt.Parameter_File>
/export/apps/rDock/src/rDock_2013.1_src/data/scripts/dock_solv.prm

>  <Rbt.Receptor>
prm/pocket_docking_4.prm

>  <SCORE>
-16.9931

>  <SCORE.INTER>
-17.0807

>  <SCORE.INTER.CONST>
1

>  <SCORE.INTER.POLAR>
0

>  <SCORE.INTER.ROT>
8

>  <SCORE.INTER.SOLV>
16.9401

>  <SCORE.INTER.VDW>
-25.9671

>  <SCORE.INTER.norm>
-0.632618

>  <SCORE.INTRA>
0.0876328

>  <SCORE.INTRA.DIHEDRAL>
-0.986328

>  <SCORE.INTRA.DIHEDRAL.0>
7.82666

>  <SCORE.INTRA.POLAR>
0

>  <SCORE.INTRA.POLAR.0>
0

>  <SCORE.INTRA.REPUL>
0

>  <SCORE.INTRA.REPUL.0>
0

>  <SCORE.INTRA.SOLV>
-0.299629

>  <SCORE.INTRA.SOLV.lig_0>
-83.2758

>  <SCORE.INTRA.VDW>
0.730611

>  <SCORE.INTRA.VDW.0>
-3.26816

>  <SCORE.INTRA.norm>
0.00324566

>  <SCORE.RESTR>
0

>  <SCORE.RESTR.CAVITY>
0

>  <SCORE.RESTR.norm>
0

>  <SCORE.SYSTEM>
0

>  <SCORE.SYSTEM.CONST>
0

>  <SCORE.SYSTEM.DIHEDRAL>
0

>  <SCORE.SYSTEM.SOLV>
0

>  <SCORE.SYSTEM.norm>
0

>  <SCORE.heavy>
27

>  <SCORE.norm>
-0.629372

>  <RMSD>
3.399

$$$$
ligand
 OpenBabel11021811473D
libRbt.so/2013.1/901 2013/11/27
 27 28  0  0  0  0  0  0  0  0999 V2000
  -12.4277   37.6510   -1.7436 C   0  0  0  0  0  0  0  0  0  0  0  0
   -5.2491   38.8735   -4.8169 C   0  0  0  0  0  0  0  0  0  0  0  0
   -5.1069   40.6195   -7.2472 C   0  0  0  0  0  0  0  0  0  0  0  0
   -4.2322   41.8318   -7.5727 C   0  0  0  0  0  0  0  0  0  0  0  0
   -3.0554   41.8392   -6.7607 O   0  0  0  0  0  0  0  0  0  0  0  0
   -2.0090   43.0526   -6.8734 P   0  0  1  0  0  0  0  0  0  0  0  0
   -2.4699   44.0881   -4.2904 P   0  0  2  0  0  0  0  0  0  0  0  0
   -7.7037   42.4046   -5.1209 C   0  0  0  0  0  0  0  0  0  0  0  0
  -10.2369   38.5485   -0.9809 N   0  0  0  0  0  0  0  0  0  0  0  0
   -0.5290   42.5762   -6.4864 O   0  5  0  0  0  0  0  0  0  0  0  0
   -3.2967   42.9596   -3.8155 O   0  0  0  0  0  0  0  0  0  0  0  0
   -7.7849   41.6097   -3.9853 C   0  0  0  0  0  0  0  0  0  0  0  0
  -11.0135   38.1687   -2.0074 C   0  0  0  0  0  0  0  0  0  0  0  0
   -1.9230   43.6755   -8.3627 O   0  0  0  0  0  0  0  0  0  0  0  0
   -2.9762   45.4856   -3.6850 O   0  5  0  0  0  0  0  0  0  0  0  0
   -6.9877   40.4686   -3.8848 N   0  0  0  0  0  0  0  0  0  0  0  0
  -10.5603   38.2387   -3.2674 N   0  0  0  0  0  0  0  0  0  0  0  0
   -2.4476   44.2641   -5.8803 O   0  0  0  0  0  0  0  0  0  0  0  0
   -0.9606   43.9360   -3.7978 O   0  0  0  0  0  0  0  0  0  0  0  0
   -6.1208   40.1316   -4.9313 C   0  0  1  0  0  0  0  0  0  0  0  0
   -9.3249   38.6897   -3.5182 C   0  0  0  0  0  0  0  0  0  0  0  0
   -8.8874   38.7563   -4.7715 N   0  0  0  0  0  0  0  0  0  0  0  0
   -6.0397   40.9305   -6.0707 C   0  0  1  0  0  0  0  0  0  0  0  0
   -8.5020   39.0912   -2.4730 C   0  0  0  0  0  0  0  0  0  0  0  0
   -6.8381   42.0647   -6.1535 C   0  0  0  0  0  0  0  0  0  0  0  0
   -9.0103   39.0003   -1.1823 C   0  0  0  0  0  0  0  0  0  0  0  0
   -7.0752   39.6179   -2.6746 C   0  0  0  0  0  0  0  0  0  0  0  0
  1 13  1  0  0  0  0
  3  4  1  0  0  0  0
  4  5  1  0  0  0  0
  6  5  1  1  0  0  0
  6 10  1  0  0  0  0
  6 14  2  0  0  0  0
  6 18  1  0  0  0  0
  7 11  1  1  0  0  0
  7 15  1  0  0  0  0
  7 19  2  0  0  0  0
  7 18  1  0  0  0  0
  8 25  1  0  0  0  0
  8 12  1  0  0  0  0
  9 26  2  0  0  0  0
  9 13  1  0  0  0  0
 12 16  1  0  0  0  0
 13 17  2  0  0  0  0
 16 20  1  0  0  0  0
 16 27  1  0  0  0  0
 17 21  1  0  0  0  0
 20  2  1  1  0  0  0
 20 23  1  0  0  0  0
 21 22  1  0  0  0  0
 21 24  2  0  0  0  0
 23  3  1  1  0  0  0
 23 25  1  0  0  0  0
 24 27  1  0  0  0  0
 24 26  1  0  0  0  0
M  CHG  2  10  -1  15  -1
M  END
>  <CHROM.1>
86.06825918,-177.30374577,-152.38339828,64.44975713,-55.42559880,-126.79976361
38.25409258,58.92579271,-5.50983912,41.37237174,-4.67277271,-2.99356448,-0.63052825
-1.92400969

>  <Name>
ligand

>  <RI>
0

>  <Rbt.Current_Directory>
/home/itssahil/PROJECTS/Mol_Feturizer/New_Systems/rnas/3D2V

>  <Rbt.Executable>
rbdock ($Id: //depot/dev/client3/rdock/2013.1/src/exe/rbdock.cxx#4 $)

>  <Rbt.Library>
libRbt.so (2013.1, Build901 2013/11/27)

>  <Rbt.Parameter_File>
/export/apps/rDock/src/rDock_2013.1_src/data/scripts/dock_solv.prm

>  <Rbt.Receptor>
prm/pocket_docking_7.prm

>  <SCORE>
-19.6528

>  <SCORE.INTER>
-20.1101

>  <SCORE.INTER.CONST>
1

>  <SCORE.INTER.POLAR>
0

>  <SCORE.INTER.ROT>
8

>  <SCORE.INTER.SOLV>
18.0765

>  <SCORE.INTER.VDW>
-28.3655

>  <SCORE.INTER.norm>
-0.744817

>  <SCORE.INTRA>
0.457226

>  <SCORE.INTRA.DIHEDRAL>
0.684645

>  <SCORE.INTRA.DIHEDRAL.0>
7.82666

>  <SCORE.INTRA.POLAR>
0

>  <SCORE.INTRA.POLAR.0>
0

>  <SCORE.INTRA.REPUL>
0

>  <SCORE.INTRA.REPUL.0>
0

>  <SCORE.INTRA.SOLV>
1.59376

>  <SCORE.INTRA.SOLV.lig_0>
-83.2758

>  <SCORE.INTRA.VDW>
-0.681976

>  <SCORE.INTRA.VDW.0>
-3.26816

>  <SCORE.INTRA.norm>
0.0169343

>  <SCORE.RESTR>
0

>  <SCORE.RESTR.CAVITY>
0

>  <SCORE.RESTR.norm>
0

>  <SCORE.SYSTEM>
0

>  <SCORE.SYSTEM.CONST>
0

>  <SCORE.SYSTEM.DIHEDRAL>
0

>  <SCORE.SYSTEM.SOLV>
0

>  <SCORE.SYSTEM.norm>
0

>  <SCORE.heavy>
27

>  <SCORE.norm>
-0.727882

>  <RMSD>
3.412

$$$$
ligand
 OpenBabel11021811473D
libRbt.so/2013.1/901 2013/11/27
 27 28  0  0  0  0  0  0  0  0999 V2000
  -12.4543   37.7035   -1.7418 C   0  0  0  0  0  0  0  0  0  0  0  0
   -5.0272   41.2041   -3.1549 C   0  0  0  0  0  0  0  0  0  0  0  0
   -5.1258   43.5054   -5.0706 C   0  0  0  0  0  0  0  0  0  0  0  0
   -3.7952   43.0113   -5.6416 C   0  0  0  0  0  0  0  0  0  0  0  0
   -2.8611   44.0881   -5.7523 O   0  0  0  0  0  0  0  0  0  0  0  0
   -2.0669   44.5996   -4.4533 P   0  0  1  0  0  0  0  0  0  0  0  0
   -0.3719   46.2012   -6.0402 P   0  0  2  0  0  0  0  0  0  0  0  0
   -8.1632   41.4653   -6.1017 C   0  0  0  0  0  0  0  0  0  0  0  0
  -10.6009   37.8561   -3.3938 N   0  0  0  0  0  0  0  0  0  0  0  0
   -3.0600   44.8026   -3.2124 O   0  5  0  0  0  0  0  0  0  0  0  0
    0.2735   44.9562   -6.5051 O   0  0  0  0  0  0  0  0  0  0  0  0
   -8.1368   40.3904   -5.2231 C   0  0  0  0  0  0  0  0  0  0  0  0
  -11.0327   38.0956   -2.1459 C   0  0  0  0  0  0  0  0  0  0  0  0
   -0.9202   43.5686   -3.9679 O   0  0  0  0  0  0  0  0  0  0  0  0
    0.7133   47.3113   -5.6331 O   0  5  0  0  0  0  0  0  0  0  0  0
   -7.1239   40.3074   -4.2665 N   0  0  0  0  0  0  0  0  0  0  0  0
  -10.2272   38.6777   -1.2457 N   0  0  0  0  0  0  0  0  0  0  0  0
   -1.3265   46.0130   -4.7704 O   0  0  0  0  0  0  0  0  0  0  0  0
   -1.2379   46.8635   -7.2044 O   0  0  0  0  0  0  0  0  0  0  0  0
   -6.1408   41.3025   -4.2067 C   0  0  1  0  0  0  0  0  0  0  0  0
   -8.9792   39.0278   -1.5808 C   0  0  0  0  0  0  0  0  0  0  0  0
   -8.1893   39.6023   -0.6794 N   0  0  0  0  0  0  0  0  0  0  0  0
   -6.1685   42.3814   -5.0889 C   0  0  1  0  0  0  0  0  0  0  0  0
   -8.5075   38.7884   -2.8657 C   0  0  0  0  0  0  0  0  0  0  0  0
   -7.1855   42.4503   -6.0332 C   0  0  0  0  0  0  0  0  0  0  0  0
   -9.3758   38.1850   -3.7682 C   0  0  0  0  0  0  0  0  0  0  0  0
   -7.0930   39.1596   -3.3299 C   0  0  0  0  0  0  0  0  0  0  0  0
  1 13  1  0  0  0  0
  3  4  1  0  0  0  0
  4  5  1  0  0  0  0
  6  5  1  6  0  0  0
  6 10  1  0  0  0  0
  6 14  2  0  0  0  0
  6 18  1  0  0  0  0
  7 11  1  6  0  0  0
  7 15  1  0  0  0  0
  7 19  2  0  0  0  0
  7 18  1  0  0  0  0
  8 25  1  0  0  0  0
  8 12  1  0  0  0  0
  9 26  2  0  0  0  0
  9 13  1  0  0  0  0
 12 16  1  0  0  0  0
 13 17  2  0  0  0  0
 16 20  1  0  0  0  0
 16 27  1  0  0  0  0
 17 21  1  0  0  0  0
 20  2  1  1  0  0  0
 20 23  1  0  0  0  0
 21 22  1  0  0  0  0
 21 24  2  0  0  0  0
 23  3  1  1  0  0  0
 23 25  1  0  0  0  0
 24 27  1  0  0  0  0
 24 26  1  0  0  0  0
M  CHG  2  10  -1  15  -1
M  END
>  <CHROM.1>
174.16574863,79.20160886,-47.11323408,-51.94403851,-27.01220475,73.53023762
-108.41052397,-39.59841192,-5.09237790,42.37587134,-4.30784864,-2.67951801
-0.55467944,-1.21268176

>  <Name>
ligand

>  <RI>
0

>  <Rbt.Current_Directory>
/home/itssahil/PROJECTS/Mol_Feturizer/New_Systems/rnas/3D2V

>  <Rbt.Executable>
rbdock ($Id: //depot/dev/client3/rdock/2013.1/src/exe/rbdock.cxx#4 $)

>  <Rbt.Library>
libRbt.so (2013.1, Build901 2013/11/27)

>  <Rbt.Parameter_File>
/export/apps/rDock/src/rDock_2013.1_src/data/scripts/dock_solv.prm

>  <Rbt.Receptor>
prm/pocket_docking_8.prm

>  <SCORE>
-15.5833

>  <SCORE.INTER>
-16.1253

>  <SCORE.INTER.CONST>
1

>  <SCORE.INTER.POLAR>
0

>  <SCORE.INTER.ROT>
8

>  <SCORE.INTER.SOLV>
21.3984

>  <SCORE.INTER.VDW>
-26.8163

>  <SCORE.INTER.norm>
-0.597232

>  <SCORE.INTRA>
0.541915

>  <SCORE.INTRA.DIHEDRAL>
0.873818

>  <SCORE.INTRA.DIHEDRAL.0>
7.82666

>  <SCORE.INTRA.POLAR>
0

>  <SCORE.INTRA.POLAR.0>
0

>  <SCORE.INTRA.REPUL>
0

>  <SCORE.INTRA.REPUL.0>
0

>  <SCORE.INTRA.SOLV>
-0.650523

>  <SCORE.INTRA.SOLV.lig_0>
-83.2758

>  <SCORE.INTRA.VDW>
0.430268

>  <SCORE.INTRA.VDW.0>
-3.26816

>  <SCORE.INTRA.norm>
0.0200709

>  <SCORE.RESTR>
0

>  <SCORE.RESTR.CAVITY>
0

>  <SCORE.RESTR.norm>
0

>  <SCORE.SYSTEM>
0

>  <SCORE.SYSTEM.CONST>
0

>  <SCORE.SYSTEM.DIHEDRAL>
0

>  <SCORE.SYSTEM.SOLV>
0

>  <SCORE.SYSTEM.norm>
0

>  <SCORE.heavy>
27

>  <SCORE.norm>
-0.577161

>  <RMSD>
3.433

$$$$
ligand
 OpenBabel11021811473D
libRbt.so/2013.1/901 2013/11/27
 27 28  0  0  0  0  0  0  0  0999 V2000
   -8.6445   39.4880   -0.2500 C   0  0  0  0  0  0  0  0  0  0  0  0
   -6.1976   37.4890   -7.5720 C   0  0  0  0  0  0  0  0  0  0  0  0
   -5.2162   39.7363   -9.2930 C   0  0  0  0  0  0  0  0  0  0  0  0
   -4.5518   41.0902   -9.5501 C   0  0  0  0  0  0  0  0  0  0  0  0
   -4.2432   41.7447   -8.3169 O   0  0  0  0  0  0  0  0  0  0  0  0
   -3.6044   43.2184   -8.3271 P   0  0  1  0  0  0  0  0  0  0  0  0
   -5.7672   44.2615   -6.8471 P   0  0  2  0  0  0  0  0  0  0  0  0
   -8.1283   41.3417   -7.4509 C   0  0  0  0  0  0  0  0  0  0  0  0
   -9.6941   38.6821   -2.3562 N   0  0  0  0  0  0  0  0  0  0  0  0
   -2.0083   43.1564   -8.2021 O   0  5  0  0  0  0  0  0  0  0  0  0
   -6.5713   44.3061   -8.0856 O   0  0  0  0  0  0  0  0  0  0  0  0
   -8.5990   40.3141   -6.6443 C   0  0  0  0  0  0  0  0  0  0  0  0
   -8.5823   39.0902   -1.7250 C   0  0  0  0  0  0  0  0  0  0  0  0
   -3.9338   44.0397   -9.6801 O   0  0  0  0  0  0  0  0  0  0  0  0
   -5.9529   45.5962   -5.9753 O   0  5  0  0  0  0  0  0  0  0  0  0
   -7.9719   39.0678   -6.6805 N   0  0  0  0  0  0  0  0  0  0  0  0
   -7.4123   39.1530   -2.3771 N   0  0  0  0  0  0  0  0  0  0  0  0
   -4.1949   44.0931   -7.0891 O   0  0  0  0  0  0  0  0  0  0  0  0
   -6.2431   43.0690   -5.9009 O   0  0  0  0  0  0  0  0  0  0  0  0
   -6.8811   38.8628   -7.5338 C   0  0  1  0  0  0  0  0  0  0  0  0
   -7.3380   38.8084   -3.6686 C   0  0  0  0  0  0  0  0  0  0  0  0
   -6.1724   38.8730   -4.3039 N   0  0  0  0  0  0  0  0  0  0  0  0
   -6.4090   39.8952   -8.3427 C   0  0  1  0  0  0  0  0  0  0  0  0
   -8.4744   38.3804   -4.3441 C   0  0  0  0  0  0  0  0  0  0  0  0
   -7.0429   41.1307   -8.2924 C   0  0  0  0  0  0  0  0  0  0  0  0
   -9.6669   38.3321   -3.6313 C   0  0  0  0  0  0  0  0  0  0  0  0
   -8.4748   37.9694   -5.8223 C   0  0  0  0  0  0  0  0  0  0  0  0
  1 13  1  0  0  0  0
  3  4  1  0  0  0  0
  4  5  1  0  0  0  0
  6  5  1  6  0  0  0
  6 10  1  0  0  0  0
  6 14  2  0  0  0  0
  6 18  1  0  0  0  0
  7 11  1  6  0  0  0
  7 15  1  0  0  0  0
  7 19  2  0  0  0  0
  7 18  1  0  0  0  0
  8 25  1  0  0  0  0
  8 12  1  0  0  0  0
  9 26  2  0  0  0  0
  9 13  1  0  0  0  0
 12 16  1  0  0  0  0
 13 17  2  0  0  0  0
 16 20  1  0  0  0  0
 16 27  1  0  0  0  0
 17 21  1  0  0  0  0
 20  2  1  1  0  0  0
 20 23  1  0  0  0  0
 21 22  1  0  0  0  0
 21 24  2  0  0  0  0
 23  3  1  1  0  0  0
 23 25  1  0  0  0  0
 24 27  1  0  0  0  0
 24 26  1  0  0  0  0
M  CHG  2  10  -1  15  -1
M  END
>  <CHROM.1>
52.10537565,-176.96789878,-95.99575663,-53.23256700,-33.98694519,-154.59934500
-57.15593724,-57.00660089,-6.31761945,41.17029069,-6.40112407,3.02766898
-1.02804046,-2.51397379

>  <Name>
ligand

>  <RI>
0

>  <Rbt.Current_Directory>
/home/itssahil/PROJECTS/Mol_Feturizer/New_Systems/rnas/3D2V

>  <Rbt.Executable>
rbdock ($Id: //depot/dev/client3/rdock/2013.1/src/exe/rbdock.cxx#4 $)

>  <Rbt.Library>
libRbt.so (2013.1, Build901 2013/11/27)

>  <Rbt.Parameter_File>
/export/apps/rDock/src/rDock_2013.1_src/data/scripts/dock_solv.prm

>  <Rbt.Receptor>
prm/pocket_docking_5.prm

>  <SCORE>
-14.0116

>  <SCORE.INTER>
-14.2379

>  <SCORE.INTER.CONST>
1

>  <SCORE.INTER.POLAR>
0

>  <SCORE.INTER.ROT>
8

>  <SCORE.INTER.SOLV>
8.54948

>  <SCORE.INTER.VDW>
-21.2751

>  <SCORE.INTER.norm>
-0.527328

>  <SCORE.INTRA>
0.226268

>  <SCORE.INTRA.DIHEDRAL>
0.241638

>  <SCORE.INTRA.DIHEDRAL.0>
7.82666

>  <SCORE.INTRA.POLAR>
0

>  <SCORE.INTRA.POLAR.0>
0

>  <SCORE.INTRA.REPUL>
0

>  <SCORE.INTRA.REPUL.0>
0

>  <SCORE.INTRA.SOLV>
1.49059

>  <SCORE.INTRA.SOLV.lig_0>
-83.2758

>  <SCORE.INTRA.VDW>
-0.639848

>  <SCORE.INTRA.VDW.0>
-3.26816

>  <SCORE.INTRA.norm>
0.00838029

>  <SCORE.RESTR>
0

>  <SCORE.RESTR.CAVITY>
0

>  <SCORE.RESTR.norm>
0

>  <SCORE.SYSTEM>
0

>  <SCORE.SYSTEM.CONST>
0

>  <SCORE.SYSTEM.DIHEDRAL>
0

>  <SCORE.SYSTEM.SOLV>
0

>  <SCORE.SYSTEM.norm>
0

>  <SCORE.heavy>
27

>  <SCORE.norm>
-0.518948

>  <RMSD>
3.455

$$$$
ligand
 OpenBabel11021811473D
libRbt.so/2013.1/901 2013/11/27
 27 28  0  0  0  0  0  0  0  0999 V2000
   -8.1223   39.6545   -0.0678 C   0  0  0  0  0  0  0  0  0  0  0  0
   -6.4833   37.1384   -7.4156 C   0  0  0  0  0  0  0  0  0  0  0  0
   -5.4700   39.2564   -9.2764 C   0  0  0  0  0  0  0  0  0  0  0  0
   -4.9121   40.5707   -9.8261 C   0  0  0  0  0  0  0  0  0  0  0  0
   -4.3177   41.3445   -8.7810 O   0  0  0  0  0  0  0  0  0  0  0  0
   -3.6837   42.7836   -9.1078 P   0  0  1  0  0  0  0  0  0  0  0  0
   -2.7279   43.0638   -6.4688 P   0  0  2  0  0  0  0  0  0  0  0  0
   -8.1237   41.1235   -7.2958 C   0  0  0  0  0  0  0  0  0  0  0  0
   -7.1860   39.1186   -2.3091 N   0  0  0  0  0  0  0  0  0  0  0  0
   -2.2515   42.6372   -9.8109 O   0  5  0  0  0  0  0  0  0  0  0  0
   -1.3803   42.5406   -6.7733 O   0  0  0  0  0  0  0  0  0  0  0  0
   -8.6076   40.1571   -6.4239 C   0  0  0  0  0  0  0  0  0  0  0  0
   -8.2637   39.1700   -1.5111 C   0  0  0  0  0  0  0  0  0  0  0  0
   -4.6024   43.6669  -10.1024 O   0  0  0  0  0  0  0  0  0  0  0  0
   -3.6697   41.9313   -5.8313 O   0  5  0  0  0  0  0  0  0  0  0  0
   -8.0742   38.8679   -6.4598 N   0  0  0  0  0  0  0  0  0  0  0  0
   -9.4686   38.7995   -1.9681 N   0  0  0  0  0  0  0  0  0  0  0  0
   -3.5110   43.6434   -7.7376 O   0  0  0  0  0  0  0  0  0  0  0  0
   -2.6563   44.2203   -5.3727 O   0  0  0  0  0  0  0  0  0  0  0  0
   -7.0637   38.5589   -7.3782 C   0  0  1  0  0  0  0  0  0  0  0  0
   -9.6123   38.3729   -3.2290 C   0  0  0  0  0  0  0  0  0  0  0  0
  -10.8120   38.0100   -3.6712 N   0  0  0  0  0  0  0  0  0  0  0  0
   -6.5783   39.5298   -8.2527 C   0  0  2  0  0  0  0  0  0  0  0  0
   -8.5123   38.3125   -4.0758 C   0  0  0  0  0  0  0  0  0  0  0  0
   -7.1182   40.8091   -8.2019 C   0  0  0  0  0  0  0  0  0  0  0  0
   -7.2816   38.7039   -3.5613 C   0  0  0  0  0  0  0  0  0  0  0  0
   -8.5914   37.8350   -5.5317 C   0  0  0  0  0  0  0  0  0  0  0  0
  1 13  1  0  0  0  0
  3  4  1  0  0  0  0
  4  5  1  0  0  0  0
  6  5  1  1  0  0  0
  6 10  1  0  0  0  0
  6 14  2  0  0  0  0
  6 18  1  0  0  0  0
  7 11  1  6  0  0  0
  7 15  1  0  0  0  0
  7 19  2  0  0  0  0
  7 18  1  0  0  0  0
  8 25  1  0  0  0  0
  8 12  1  0  0  0  0
  9 26  2  0  0  0  0
  9 13  1  0  0  0  0
 12 16  1  0  0  0  0
 13 17  2  0  0  0  0
 16 20  1  0  0  0  0
 16 27  1  0  0  0  0
 17 21  1  0  0  0  0
 20  2  1  1  0  0  0
 20 23  1  0  0  0  0
 21 22  1  0  0  0  0
 21 24  2  0  0  0  0
 23  3  1  6  0  0  0
 23 25  1  0  0  0  0
 24 27  1  0  0  0  0
 24 26  1  0  0  0  0
M  CHG  2  10  -1  15  -1
M  END
>  <CHROM.1>
62.24665689,-178.90165703,-77.20868296,53.45047598,51.53706722,-165.45578577
123.49153396,-54.59900905,-5.83846464,40.69169977,-6.36866830,-2.58267048
-0.70601605,-1.69158691

>  <Name>
ligand

>  <RI>
0

>  <Rbt.Current_Directory>
/home/itssahil/PROJECTS/Mol_Feturizer/New_Systems/rnas/3D2V

>  <Rbt.Executable>
rbdock ($Id: //depot/dev/client3/rdock/2013.1/src/exe/rbdock.cxx#4 $)

>  <Rbt.Library>
libRbt.so (2013.1, Build901 2013/11/27)

>  <Rbt.Parameter_File>
/export/apps/rDock/src/rDock_2013.1_src/data/scripts/dock_solv.prm

>  <Rbt.Receptor>
prm/pocket_docking_4.prm

>  <SCORE>
-14.0596

>  <SCORE.INTER>
-12.9727

>  <SCORE.INTER.CONST>
1

>  <SCORE.INTER.POLAR>
0

>  <SCORE.INTER.ROT>
8

>  <SCORE.INTER.SOLV>
18.4106

>  <SCORE.INTER.VDW>
-23.7187

>  <SCORE.INTER.norm>
-0.480471

>  <SCORE.INTRA>
-1.08686

>  <SCORE.INTRA.DIHEDRAL>
-1.98297

>  <SCORE.INTRA.DIHEDRAL.0>
7.82666

>  <SCORE.INTRA.POLAR>
0

>  <SCORE.INTRA.POLAR.0>
0

>  <SCORE.INTRA.REPUL>
0

>  <SCORE.INTRA.REPUL.0>
0

>  <SCORE.INTRA.SOLV>
-2.27833

>  <SCORE.INTRA.SOLV.lig_0>
-83.2758

>  <SCORE.INTRA.VDW>
1.04379

>  <SCORE.INTRA.VDW.0>
-3.26816

>  <SCORE.INTRA.norm>
-0.0402542

>  <SCORE.RESTR>
0

>  <SCORE.RESTR.CAVITY>
0

>  <SCORE.RESTR.norm>
0

>  <SCORE.SYSTEM>
0

>  <SCORE.SYSTEM.CONST>
0

>  <SCORE.SYSTEM.DIHEDRAL>
0

>  <SCORE.SYSTEM.SOLV>
0

>  <SCORE.SYSTEM.norm>
0

>  <SCORE.heavy>
27

>  <SCORE.norm>
-0.520725

>  <RMSD>
3.488

$$$$
ligand
 OpenBabel11021811473D
libRbt.so/2013.1/901 2013/11/27
 27 28  0  0  0  0  0  0  0  0999 V2000
   -8.7281   39.5554   -0.3379 C   0  0  0  0  0  0  0  0  0  0  0  0
   -6.4096   37.2611   -7.8983 C   0  0  0  0  0  0  0  0  0  0  0  0
   -5.5498   39.4972   -9.6972 C   0  0  0  0  0  0  0  0  0  0  0  0
   -4.5328   40.6401   -9.6899 C   0  0  0  0  0  0  0  0  0  0  0  0
   -5.1547   41.8732  -10.0600 O   0  0  0  0  0  0  0  0  0  0  0  0
   -4.2766   43.2132  -10.1754 P   0  0  1  0  0  0  0  0  0  0  0  0
   -6.6129   44.7452   -9.7870 P   0  0  2  0  0  0  0  0  0  0  0  0
   -8.0810   41.2081   -7.4351 C   0  0  0  0  0  0  0  0  0  0  0  0
   -9.6999   38.6061   -2.4215 N   0  0  0  0  0  0  0  0  0  0  0  0
   -3.5160   43.5250   -8.8001 O   0  5  0  0  0  0  0  0  0  0  0  0
   -7.6782   43.7714  -10.1025 O   0  0  0  0  0  0  0  0  0  0  0  0
   -8.4932   40.1862   -6.5901 C   0  0  0  0  0  0  0  0  0  0  0  0
   -8.6217   39.1003   -1.7937 C   0  0  0  0  0  0  0  0  0  0  0  0
   -3.1433   43.1281  -11.3251 O   0  0  0  0  0  0  0  0  0  0  0  0
   -7.0540   46.2427  -10.1595 O   0  5  0  0  0  0  0  0  0  0  0  0
   -7.9496   38.9093   -6.7373 N   0  0  0  0  0  0  0  0  0  0  0  0
   -7.4469   39.1998   -2.4324 N   0  0  0  0  0  0  0  0  0  0  0  0
   -5.2307   44.4775  -10.5465 O   0  0  0  0  0  0  0  0  0  0  0  0
   -6.3094   44.7709   -8.2214 O   0  0  0  0  0  0  0  0  0  0  0  0
   -7.0014   38.6684   -7.7388 C   0  0  1  0  0  0  0  0  0  0  0  0
   -7.3341   38.8063   -3.7071 C   0  0  0  0  0  0  0  0  0  0  0  0
   -6.1640   38.9080   -4.3291 N   0  0  0  0  0  0  0  0  0  0  0  0
   -6.5879   39.6950   -8.5863 C   0  0  1  0  0  0  0  0  0  0  0  0
   -8.4351   38.2889   -4.3786 C   0  0  0  0  0  0  0  0  0  0  0  0
   -7.1369   40.9612   -8.4243 C   0  0  0  0  0  0  0  0  0  0  0  0
   -9.6342   38.2052   -3.6801 C   0  0  0  0  0  0  0  0  0  0  0  0
   -8.3905   37.8172   -5.8379 C   0  0  0  0  0  0  0  0  0  0  0  0
  1 13  1  0  0  0  0
  3  4  1  0  0  0  0
  4  5  1  0  0  0  0
  6  5  1  1  0  0  0
  6 10  1  0  0  0  0
  6 14  2  0  0  0  0
  6 18  1  0  0  0  0
  7 11  1  6  0  0  0
  7 15  1  0  0  0  0
  7 19  2  0  0  0  0
  7 18  1  0  0  0  0
  8 25  1  0  0  0  0
  8 12  1  0  0  0  0
  9 26  2  0  0  0  0
  9 13  1  0  0  0  0
 12 16  1  0  0  0  0
 13 17  2  0  0  0  0
 16 20  1  0  0  0  0
 16 27  1  0  0  0  0
 17 21  1  0  0  0  0
 20  2  1  1  0  0  0
 20 23  1  0  0  0  0
 21 22  1  0  0  0  0
 21 24  2  0  0  0  0
 23  3  1  1  0  0  0
 23 25  1  0  0  0  0
 24 27  1  0  0  0  0
 24 26  1  0  0  0  0
M  CHG  2  10  -1  15  -1
M  END
>  <CHROM.1>
-67.01166440,-177.83047024,-56.90516586,46.49715441,-70.51956079,-134.83047749
-57.81136714,-45.29496889,-6.64985415,41.20578229,-7.44712000,2.29986947
-1.03678074,2.87836216

>  <Name>
ligand

>  <RI>
0

>  <Rbt.Current_Directory>
/home/itssahil/PROJECTS/Mol_Feturizer/New_Systems/rnas/3D2V

>  <Rbt.Executable>
rbdock ($Id: //depot/dev/client3/rdock/2013.1/src/exe/rbdock.cxx#4 $)

>  <Rbt.Library>
libRbt.so (2013.1, Build901 2013/11/27)

>  <Rbt.Parameter_File>
/export/apps/rDock/src/rDock_2013.1_src/data/scripts/dock_solv.prm

>  <Rbt.Receptor>
prm/pocket_docking_6.prm

>  <SCORE>
-17.6668

>  <SCORE.INTER>
-16.5328

>  <SCORE.INTER.CONST>
1

>  <SCORE.INTER.POLAR>
0

>  <SCORE.INTER.ROT>
8

>  <SCORE.INTER.SOLV>
13.5593

>  <SCORE.INTER.VDW>
-24.475

>  <SCORE.INTER.norm>
-0.612327

>  <SCORE.INTRA>
-1.13398

>  <SCORE.INTRA.DIHEDRAL>
-1.98803

>  <SCORE.INTRA.DIHEDRAL.0>
7.82666

>  <SCORE.INTRA.POLAR>
0

>  <SCORE.INTRA.POLAR.0>
0

>  <SCORE.INTRA.REPUL>
0

>  <SCORE.INTRA.REPUL.0>
0

>  <SCORE.INTRA.SOLV>
0.634596

>  <SCORE.INTRA.SOLV.lig_0>
-83.2758

>  <SCORE.INTRA.VDW>
-0.457266

>  <SCORE.INTRA.VDW.0>
-3.26816

>  <SCORE.INTRA.norm>
-0.0419994

>  <SCORE.RESTR>
0

>  <SCORE.RESTR.CAVITY>
0

>  <SCORE.RESTR.norm>
0

>  <SCORE.SYSTEM>
0

>  <SCORE.SYSTEM.CONST>
0

>  <SCORE.SYSTEM.DIHEDRAL>
0

>  <SCORE.SYSTEM.SOLV>
0

>  <SCORE.SYSTEM.norm>
0

>  <SCORE.heavy>
27

>  <SCORE.norm>
-0.654326

>  <RMSD>
3.506

$$$$
ligand
 OpenBabel11021811473D
libRbt.so/2013.1/901 2013/11/27
 27 28  0  0  0  0  0  0  0  0999 V2000
  -12.1025   37.6983   -1.7581 C   0  0  0  0  0  0  0  0  0  0  0  0
   -6.6488   39.9196   -6.4862 C   0  0  0  0  0  0  0  0  0  0  0  0
   -6.9057   42.6337   -7.7283 C   0  0  0  0  0  0  0  0  0  0  0  0
   -5.5212   43.2096   -8.0319 C   0  0  0  0  0  0  0  0  0  0  0  0
   -5.4273   44.5641   -7.5836 O   0  0  0  0  0  0  0  0  0  0  0  0
   -6.1882   45.7302   -8.3843 P   0  0  1  0  0  0  0  0  0  0  0  0
   -5.5358   47.3214   -6.1486 P   0  0  2  0  0  0  0  0  0  0  0  0
   -7.5163   43.3682   -4.0488 C   0  0  0  0  0  0  0  0  0  0  0  0
   -9.7785   38.5053   -1.3910 N   0  0  0  0  0  0  0  0  0  0  0  0
   -5.7322   45.7683   -9.9198 O   0  5  0  0  0  0  0  0  0  0  0  0
   -6.4266   46.5475   -5.2597 O   0  0  0  0  0  0  0  0  0  0  0  0
   -7.4008   42.1195   -3.4525 C   0  0  0  0  0  0  0  0  0  0  0  0
  -10.7567   38.2187   -2.2638 C   0  0  0  0  0  0  0  0  0  0  0  0
   -7.7952   45.5538   -8.3802 O   0  0  0  0  0  0  0  0  0  0  0  0
   -5.5915   48.8909   -5.8176 O   0  5  0  0  0  0  0  0  0  0  0  0
   -7.1162   41.0034   -4.2407 N   0  0  0  0  0  0  0  0  0  0  0  0
  -10.5655   38.3846   -3.5806 N   0  0  0  0  0  0  0  0  0  0  0  0
   -5.8707   47.1743   -7.7059 O   0  0  0  0  0  0  0  0  0  0  0  0
   -4.0124   46.8987   -5.9376 O   0  0  0  0  0  0  0  0  0  0  0  0
   -6.9581   41.1511   -5.6239 C   0  0  1  0  0  0  0  0  0  0  0  0
   -9.3941   38.8394   -4.0424 C   0  0  0  0  0  0  0  0  0  0  0  0
   -9.2171   39.0016   -5.3496 N   0  0  0  0  0  0  0  0  0  0  0  0
   -7.0737   42.4051   -6.2215 C   0  0  2  0  0  0  0  0  0  0  0  0
   -8.3662   39.1456   -3.1590 C   0  0  0  0  0  0  0  0  0  0  0  0
   -7.3544   43.5064   -5.4220 C   0  0  0  0  0  0  0  0  0  0  0  0
   -8.6057   38.9572   -1.8027 C   0  0  0  0  0  0  0  0  0  0  0  0
   -6.9953   39.6699   -3.6060 C   0  0  0  0  0  0  0  0  0  0  0  0
  1 13  1  0  0  0  0
  3  4  1  0  0  0  0
  4  5  1  0  0  0  0
  6  5  1  1  0  0  0
  6 10  1  0  0  0  0
  6 14  2  0  0  0  0
  6 18  1  0  0  0  0
  7 11  1  1  0  0  0
  7 15  1  0  0  0  0
  7 19  2  0  0  0  0
  7 18  1  0  0  0  0
  8 25  1  0  0  0  0
  8 12  1  0  0  0  0
  9 26  2  0  0  0  0
  9 13  1  0  0  0  0
 12 16  1  0  0  0  0
 13 17  2  0  0  0  0
 16 20  1  0  0  0  0
 16 27  1  0  0  0  0
 17 21  1  0  0  0  0
 20  2  1  1  0  0  0
 20 23  1  0  0  0  0
 21 22  1  0  0  0  0
 21 24  2  0  0  0  0
 23  3  1  6  0  0  0
 23 25  1  0  0  0  0
 24 27  1  0  0  0  0
 24 26  1  0  0  0  0
M  CHG  2  10  -1  15  -1
M  END
>  <CHROM.1>
-71.10773428,-73.24049582,-57.03990374,-28.64367027,-44.78534804,-101.56596364
64.73104258,71.96580314,-7.23223927,42.97705708,-5.58769865,3.07469068,-1.16210711
-2.14897502

>  <Name>
ligand

>  <RI>
0

>  <Rbt.Current_Directory>
/home/itssahil/PROJECTS/Mol_Feturizer/New_Systems/rnas/3D2V

>  <Rbt.Executable>
rbdock ($Id: //depot/dev/client3/rdock/2013.1/src/exe/rbdock.cxx#4 $)

>  <Rbt.Library>
libRbt.so (2013.1, Build901 2013/11/27)

>  <Rbt.Parameter_File>
/export/apps/rDock/src/rDock_2013.1_src/data/scripts/dock_solv.prm

>  <Rbt.Receptor>
prm/pocket_docking_8.prm

>  <SCORE>
-15.9077

>  <SCORE.INTER>
-15.9972

>  <SCORE.INTER.CONST>
1

>  <SCORE.INTER.POLAR>
0

>  <SCORE.INTER.ROT>
8

>  <SCORE.INTER.SOLV>
15.8289

>  <SCORE.INTER.VDW>
-24.8744

>  <SCORE.INTER.norm>
-0.592488

>  <SCORE.INTRA>
0.0895217

>  <SCORE.INTRA.DIHEDRAL>
0.302907

>  <SCORE.INTRA.DIHEDRAL.0>
7.82666

>  <SCORE.INTRA.POLAR>
0

>  <SCORE.INTRA.POLAR.0>
0

>  <SCORE.INTRA.REPUL>
0

>  <SCORE.INTRA.REPUL.0>
0

>  <SCORE.INTRA.SOLV>
2.06729

>  <SCORE.INTRA.SOLV.lig_0>
-83.2758

>  <SCORE.INTRA.VDW>
-1.09558

>  <SCORE.INTRA.VDW.0>
-3.26816

>  <SCORE.INTRA.norm>
0.00331562

>  <SCORE.RESTR>
0

>  <SCORE.RESTR.CAVITY>
0

>  <SCORE.RESTR.norm>
0

>  <SCORE.SYSTEM>
0

>  <SCORE.SYSTEM.CONST>
0

>  <SCORE.SYSTEM.DIHEDRAL>
0

>  <SCORE.SYSTEM.SOLV>
0

>  <SCORE.SYSTEM.norm>
0

>  <SCORE.heavy>
27

>  <SCORE.norm>
-0.589173

>  <RMSD>
3.527

$$$$
ligand
 OpenBabel11021811473D
libRbt.so/2013.1/901 2013/11/27
 27 28  0  0  0  0  0  0  0  0999 V2000
   -8.9719   39.2428   -0.6280 C   0  0  0  0  0  0  0  0  0  0  0  0
   -8.7962   40.5244   -6.3623 C   0  0  0  0  0  0  0  0  0  0  0  0
   -6.9535   42.4208   -7.7707 C   0  0  0  0  0  0  0  0  0  0  0  0
   -7.1765   42.7472   -9.2486 C   0  0  0  0  0  0  0  0  0  0  0  0
   -7.7454   44.0503   -9.3987 O   0  0  0  0  0  0  0  0  0  0  0  0
   -6.9276   45.3449   -8.9136 P   0  0  1  0  0  0  0  0  0  0  0  0
   -5.8947   46.4007   -6.5106 P   0  0  2  0  0  0  0  0  0  0  0  0
   -5.0511   39.1366   -7.9856 C   0  0  0  0  0  0  0  0  0  0  0  0
   -9.7059   38.4355   -2.8633 N   0  0  0  0  0  0  0  0  0  0  0  0
   -5.4366   45.3389   -9.5000 O   0  5  0  0  0  0  0  0  0  0  0  0
   -6.0086   47.8047   -6.9559 O   0  0  0  0  0  0  0  0  0  0  0  0
   -5.8906   38.2406   -7.3371 C   0  0  0  0  0  0  0  0  0  0  0  0
   -8.6976   38.8476   -2.0793 C   0  0  0  0  0  0  0  0  0  0  0  0
   -7.6075   46.7340   -9.3847 O   0  0  0  0  0  0  0  0  0  0  0  0
   -4.3999   45.8447   -6.6900 O   0  5  0  0  0  0  0  0  0  0  0  0
   -7.1047   38.6886   -6.8148 N   0  0  0  0  0  0  0  0  0  0  0  0
   -7.4468   38.9168   -2.5574 N   0  0  0  0  0  0  0  0  0  0  0  0
   -6.8532   45.3837   -7.2890 O   0  0  0  0  0  0  0  0  0  0  0  0
   -6.2105   46.2693   -4.9527 O   0  0  0  0  0  0  0  0  0  0  0  0
   -7.4612   40.0365   -6.9419 C   0  0  1  0  0  0  0  0  0  0  0  0
   -7.1870   38.5747   -3.8254 C   0  0  0  0  0  0  0  0  0  0  0  0
   -5.9429   38.6456   -4.2875 N   0  0  0  0  0  0  0  0  0  0  0  0
   -6.6181   40.9352   -7.5934 C   0  0  1  0  0  0  0  0  0  0  0  0
   -8.2132   38.1426   -4.6567 C   0  0  0  0  0  0  0  0  0  0  0  0
   -5.4143   40.4721   -8.1103 C   0  0  0  0  0  0  0  0  0  0  0  0
   -9.4951   38.0877   -4.1218 C   0  0  0  0  0  0  0  0  0  0  0  0
   -8.0003   37.7340   -6.1202 C   0  0  0  0  0  0  0  0  0  0  0  0
  1 13  1  0  0  0  0
  3  4  1  0  0  0  0
  4  5  1  0  0  0  0
  6  5  1  6  0  0  0
  6 10  1  0  0  0  0
  6 14  2  0  0  0  0
  6 18  1  0  0  0  0
  7 11  1  6  0  0  0
  7 15  1  0  0  0  0
  7 19  2  0  0  0  0
  7 18  1  0  0  0  0
  8 25  1  0  0  0  0
  8 12  1  0  0  0  0
  9 26  2  0  0  0  0
  9 13  1  0  0  0  0
 12 16  1  0  0  0  0
 13 17  2  0  0  0  0
 16 20  1  0  0  0  0
 16 27  1  0  0  0  0
 17 21  1  0  0  0  0
 20  2  1  6  0  0  0
 20 23  1  0  0  0  0
 21 22  1  0  0  0  0
 21 24  2  0  0  0  0
 23  3  1  6  0  0  0
 23 25  1  0  0  0  0
 24 27  1  0  0  0  0
 24 26  1  0  0  0  0
M  CHG  2  10  -1  15  -1
M  END
>  <CHROM.1>
168.44795080,62.73201073,50.34157297,169.04211524,49.81327217,-113.24472923
-43.56522378,118.37576873,-7.00825071,42.19148217,-6.43058881,2.55411820
-1.33185735,-2.65671139

>  <Name>
ligand

>  <RI>
0

>  <Rbt.Current_Directory>
/home/itssahil/PROJECTS/Mol_Feturizer/New_Systems/rnas/3D2V

>  <Rbt.Executable>
rbdock ($Id: //depot/dev/client3/rdock/2013.1/src/exe/rbdock.cxx#4 $)

>  <Rbt.Library>
libRbt.so (2013.1, Build901 2013/11/27)

>  <Rbt.Parameter_File>
/export/apps/rDock/src/rDock_2013.1_src/data/scripts/dock_solv.prm

>  <Rbt.Receptor>
prm/pocket_docking_6.prm

>  <SCORE>
-16.2982

>  <SCORE.INTER>
-17.4055

>  <SCORE.INTER.CONST>
1

>  <SCORE.INTER.POLAR>
0

>  <SCORE.INTER.ROT>
8

>  <SCORE.INTER.SOLV>
15.7844

>  <SCORE.INTER.VDW>
-25.7984

>  <SCORE.INTER.norm>
-0.644647

>  <SCORE.INTRA>
1.10724

>  <SCORE.INTRA.DIHEDRAL>
-1.61018

>  <SCORE.INTRA.DIHEDRAL.0>
7.82666

>  <SCORE.INTRA.POLAR>
0

>  <SCORE.INTRA.POLAR.0>
0

>  <SCORE.INTRA.REPUL>
0

>  <SCORE.INTRA.REPUL.0>
0

>  <SCORE.INTRA.SOLV>
3.0731

>  <SCORE.INTRA.SOLV.lig_0>
-83.2758

>  <SCORE.INTRA.VDW>
0.375781

>  <SCORE.INTRA.VDW.0>
-3.26816

>  <SCORE.INTRA.norm>
0.0410089

>  <SCORE.RESTR>
0

>  <SCORE.RESTR.CAVITY>
0

>  <SCORE.RESTR.norm>
0

>  <SCORE.SYSTEM>
0

>  <SCORE.SYSTEM.CONST>
0

>  <SCORE.SYSTEM.DIHEDRAL>
0

>  <SCORE.SYSTEM.SOLV>
0

>  <SCORE.SYSTEM.norm>
0

>  <SCORE.heavy>
27

>  <SCORE.norm>
-0.603638

>  <RMSD>
3.530

$$$$
ligand
 OpenBabel11021811473D
libRbt.so/2013.1/901 2013/11/27
 27 28  0  0  0  0  0  0  0  0999 V2000
   -9.2764   38.8528   -0.7061 C   0  0  0  0  0  0  0  0  0  0  0  0
   -7.3849   41.4886   -7.6567 C   0  0  0  0  0  0  0  0  0  0  0  0
   -5.2631   39.9911   -9.1502 C   0  0  0  0  0  0  0  0  0  0  0  0
   -5.2334   39.6175  -10.6335 C   0  0  0  0  0  0  0  0  0  0  0  0
   -4.3322   40.4646  -11.3507 O   0  0  0  0  0  0  0  0  0  0  0  0
   -4.7816   41.9510  -11.7617 P   0  0  1  0  0  0  0  0  0  0  0  0
   -6.4085   44.0302  -10.7685 P   0  0  2  0  0  0  0  0  0  0  0  0
   -7.4918   37.1846   -7.8822 C   0  0  0  0  0  0  0  0  0  0  0  0
  -10.3321   38.6857   -2.9522 N   0  0  0  0  0  0  0  0  0  0  0  0
   -3.5165   42.9288  -11.8639 O   0  5  0  0  0  0  0  0  0  0  0  0
   -6.8744   44.4008  -12.1205 O   0  0  0  0  0  0  0  0  0  0  0  0
   -8.4857   37.8589   -7.1853 C   0  0  0  0  0  0  0  0  0  0  0  0
   -9.3240   39.1589   -2.2034 C   0  0  0  0  0  0  0  0  0  0  0  0
   -5.5327   42.0104  -13.1920 O   0  0  0  0  0  0  0  0  0  0  0  0
   -5.2540   45.0179  -10.2514 O   0  5  0  0  0  0  0  0  0  0  0  0
   -8.4536   39.2524   -7.1152 N   0  0  0  0  0  0  0  0  0  0  0  0
   -8.3537   39.9007   -2.7568 N   0  0  0  0  0  0  0  0  0  0  0  0
   -5.8188   42.5471  -10.6593 O   0  0  0  0  0  0  0  0  0  0  0  0
   -7.5875   44.1633   -9.7026 O   0  0  0  0  0  0  0  0  0  0  0  0
   -7.4171   39.9563   -7.7401 C   0  0  1  0  0  0  0  0  0  0  0  0
   -8.3780   40.1790   -4.0661 C   0  0  0  0  0  0  0  0  0  0  0  0
   -7.4097   40.9137   -4.6037 N   0  0  0  0  0  0  0  0  0  0  0  0
   -6.4202   39.2785   -8.4399 C   0  0  2  0  0  0  0  0  0  0  0  0
   -9.4098   39.6988   -4.8635 C   0  0  0  0  0  0  0  0  0  0  0  0
   -6.4686   37.8912   -8.5024 C   0  0  0  0  0  0  0  0  0  0  0  0
  -10.3962   38.9358   -4.2493 C   0  0  0  0  0  0  0  0  0  0  0  0
   -9.5121   39.9731   -6.3696 C   0  0  0  0  0  0  0  0  0  0  0  0
  1 13  1  0  0  0  0
  3  4  1  0  0  0  0
  4  5  1  0  0  0  0
  6  5  1  1  0  0  0
  6 10  1  0  0  0  0
  6 14  2  0  0  0  0
  6 18  1  0  0  0  0
  7 11  1  6  0  0  0
  7 15  1  0  0  0  0
  7 19  2  0  0  0  0
  7 18  1  0  0  0  0
  8 25  1  0  0  0  0
  8 12  1  0  0  0  0
  9 26  2  0  0  0  0
  9 13  1  0  0  0  0
 12 16  1  0  0  0  0
 13 17  2  0  0  0  0
 16 20  1  0  0  0  0
 16 27  1  0  0  0  0
 17 21  1  0  0  0  0
 20  2  1  6  0  0  0
 20 23  1  0  0  0  0
 21 22  1  0  0  0  0
 21 24  2  0  0  0  0
 23  3  1  1  0  0  0
 23 25  1  0  0  0  0
 24 27  1  0  0  0  0
 24 26  1  0  0  0  0
M  CHG  2  10  -1  15  -1
M  END
>  <CHROM.1>
168.81978148,-78.57679876,151.68736082,177.98563145,45.27839561,-123.06150597
69.58461997,67.89092318,-6.99774864,40.95843540,-8.19789345,2.54197543,-1.06721624
2.91404096

>  <Name>
ligand

>  <RI>
0

>  <Rbt.Current_Directory>
/home/itssahil/PROJECTS/Mol_Feturizer/New_Systems/rnas/3D2V

>  <Rbt.Executable>
rbdock ($Id: //depot/dev/client3/rdock/2013.1/src/exe/rbdock.cxx#4 $)

>  <Rbt.Library>
libRbt.so (2013.1, Build901 2013/11/27)

>  <Rbt.Parameter_File>
/export/apps/rDock/src/rDock_2013.1_src/data/scripts/dock_solv.prm

>  <Rbt.Receptor>
prm/pocket_docking_7.prm

>  <SCORE>
-20.3482

>  <SCORE.INTER>
-21.928

>  <SCORE.INTER.CONST>
1

>  <SCORE.INTER.POLAR>
0

>  <SCORE.INTER.ROT>
8

>  <SCORE.INTER.SOLV>
16.3534

>  <SCORE.INTER.VDW>
-29.0031

>  <SCORE.INTER.norm>
-0.812147

>  <SCORE.INTRA>
1.57973

>  <SCORE.INTRA.DIHEDRAL>
0.833679

>  <SCORE.INTRA.DIHEDRAL.0>
7.82666

>  <SCORE.INTRA.POLAR>
0

>  <SCORE.INTRA.POLAR.0>
0

>  <SCORE.INTRA.REPUL>
0

>  <SCORE.INTRA.REPUL.0>
0

>  <SCORE.INTRA.SOLV>
3.46285

>  <SCORE.INTRA.SOLV.lig_0>
-83.2758

>  <SCORE.INTRA.VDW>
-0.568533

>  <SCORE.INTRA.VDW.0>
-3.26816

>  <SCORE.INTRA.norm>
0.0585085

>  <SCORE.RESTR>
0

>  <SCORE.RESTR.CAVITY>
0

>  <SCORE.RESTR.norm>
0

>  <SCORE.SYSTEM>
0

>  <SCORE.SYSTEM.CONST>
0

>  <SCORE.SYSTEM.DIHEDRAL>
0

>  <SCORE.SYSTEM.SOLV>
0

>  <SCORE.SYSTEM.norm>
0

>  <SCORE.heavy>
27

>  <SCORE.norm>
-0.753638

>  <RMSD>
3.553

$$$$
ligand
 OpenBabel11021811473D
libRbt.so/2013.1/901 2013/11/27
 27 28  0  0  0  0  0  0  0  0999 V2000
   -8.3111   39.9729   -0.1531 C   0  0  0  0  0  0  0  0  0  0  0  0
   -5.6750   37.8136   -6.2759 C   0  0  0  0  0  0  0  0  0  0  0  0
   -5.0203   39.8448   -8.3784 C   0  0  0  0  0  0  0  0  0  0  0  0
   -4.3956   41.0919   -7.7498 C   0  0  0  0  0  0  0  0  0  0  0  0
   -3.3008   41.5624   -8.5399 O   0  0  0  0  0  0  0  0  0  0  0  0
   -2.5224   42.9024   -8.1175 P   0  0  1  0  0  0  0  0  0  0  0  0
   -0.5352   43.6935   -6.2786 P   0  0  2  0  0  0  0  0  0  0  0  0
   -8.7720   40.2944   -7.9613 C   0  0  0  0  0  0  0  0  0  0  0  0
   -7.2369   39.1950   -2.2574 N   0  0  0  0  0  0  0  0  0  0  0  0
   -1.5807   43.4216   -9.3053 O   0  5  0  0  0  0  0  0  0  0  0  0
    0.5582   43.9756   -7.2312 O   0  0  0  0  0  0  0  0  0  0  0  0
   -9.0973   39.3597   -6.9874 C   0  0  0  0  0  0  0  0  0  0  0  0
   -8.3629   39.3315   -1.5401 C   0  0  0  0  0  0  0  0  0  0  0  0
   -3.5183   44.1206   -7.7466 O   0  0  0  0  0  0  0  0  0  0  0  0
    0.0276   43.1276   -4.8861 O   0  5  0  0  0  0  0  0  0  0  0  0
   -8.0945   38.5590   -6.4388 N   0  0  0  0  0  0  0  0  0  0  0  0
   -9.5380   38.9095   -2.0290 N   0  0  0  0  0  0  0  0  0  0  0  0
   -1.6054   42.6261   -6.8024 O   0  0  0  0  0  0  0  0  0  0  0  0
   -1.3241   45.0283   -5.9045 O   0  0  0  0  0  0  0  0  0  0  0  0
   -6.7733   38.6994   -6.8802 C   0  0  1  0  0  0  0  0  0  0  0  0
   -9.6033   38.3457   -3.2416 C   0  0  0  0  0  0  0  0  0  0  0  0
  -10.7740   37.9330   -3.7164 N   0  0  0  0  0  0  0  0  0  0  0  0
   -6.4476   39.6384   -7.8576 C   0  0  2  0  0  0  0  0  0  0  0  0
   -8.4520   38.1950   -4.0050 C   0  0  0  0  0  0  0  0  0  0  0  0
   -7.4576   40.4296   -8.3913 C   0  0  0  0  0  0  0  0  0  0  0  0
   -7.2548   38.6441   -3.4597 C   0  0  0  0  0  0  0  0  0  0  0  0
   -8.4407   37.5593   -5.4013 C   0  0  0  0  0  0  0  0  0  0  0  0
  1 13  1  0  0  0  0
  3  4  1  0  0  0  0
  4  5  1  0  0  0  0
  6  5  1  6  0  0  0
  6 10  1  0  0  0  0
  6 14  2  0  0  0  0
  6 18  1  0  0  0  0
  7 11  1  6  0  0  0
  7 15  1  0  0  0  0
  7 19  2  0  0  0  0
  7 18  1  0  0  0  0
  8 25  1  0  0  0  0
  8 12  1  0  0  0  0
  9 26  2  0  0  0  0
  9 13  1  0  0  0  0
 12 16  1  0  0  0  0
 13 17  2  0  0  0  0
 16 20  1  0  0  0  0
 16 27  1  0  0  0  0
 17 21  1  0  0  0  0
 20  2  1  1  0  0  0
 20 23  1  0  0  0  0
 21 22  1  0  0  0  0
 21 24  2  0  0  0  0
 23  3  1  6  0  0  0
 23 25  1  0  0  0  0
 24 27  1  0  0  0  0
 24 26  1  0  0  0  0
M  CHG  2  10  -1  15  -1
M  END
>  <CHROM.1>
-159.55129509,177.30607088,-166.71918130,170.05825061,-62.77885959,-102.14321681
113.22193018,-85.54507744,-5.10464444,40.90489570,-5.99168028,-2.80765695
-0.58663120,-1.62047979

>  <Name>
ligand

>  <RI>
0

>  <Rbt.Current_Directory>
/home/itssahil/PROJECTS/Mol_Feturizer/New_Systems/rnas/3D2V

>  <Rbt.Executable>
rbdock ($Id: //depot/dev/client3/rdock/2013.1/src/exe/rbdock.cxx#4 $)

>  <Rbt.Library>
libRbt.so (2013.1, Build901 2013/11/27)

>  <Rbt.Parameter_File>
/export/apps/rDock/src/rDock_2013.1_src/data/scripts/dock_solv.prm

>  <Rbt.Receptor>
prm/pocket_docking_7.prm

>  <SCORE>
-16.1248

>  <SCORE.INTER>
-15.2256

>  <SCORE.INTER.CONST>
1

>  <SCORE.INTER.POLAR>
0

>  <SCORE.INTER.ROT>
8

>  <SCORE.INTER.SOLV>
21.7062

>  <SCORE.INTER.VDW>
-26.3191

>  <SCORE.INTER.norm>
-0.56391

>  <SCORE.INTRA>
-0.899261

>  <SCORE.INTRA.DIHEDRAL>
-0.724471

>  <SCORE.INTRA.DIHEDRAL.0>
7.82666

>  <SCORE.INTRA.POLAR>
0

>  <SCORE.INTRA.POLAR.0>
0

>  <SCORE.INTRA.REPUL>
0

>  <SCORE.INTRA.REPUL.0>
0

>  <SCORE.INTRA.SOLV>
-0.724219

>  <SCORE.INTRA.SOLV.lig_0>
-83.2758

>  <SCORE.INTRA.VDW>
-0.174916

>  <SCORE.INTRA.VDW.0>
-3.26816

>  <SCORE.INTRA.norm>
-0.033306

>  <SCORE.RESTR>
0

>  <SCORE.RESTR.CAVITY>
0

>  <SCORE.RESTR.norm>
0

>  <SCORE.SYSTEM>
0

>  <SCORE.SYSTEM.CONST>
0

>  <SCORE.SYSTEM.DIHEDRAL>
0

>  <SCORE.SYSTEM.SOLV>
0

>  <SCORE.SYSTEM.norm>
0

>  <SCORE.heavy>
27

>  <SCORE.norm>
-0.597216

>  <RMSD>
3.556

$$$$
ligand
 OpenBabel11021811473D
libRbt.so/2013.1/901 2013/11/27
 27 28  0  0  0  0  0  0  0  0999 V2000
   -9.5826   38.7233   -0.5827 C   0  0  0  0  0  0  0  0  0  0  0  0
   -7.1455   41.2554   -7.2821 C   0  0  0  0  0  0  0  0  0  0  0  0
   -5.0153   39.6669   -8.6658 C   0  0  0  0  0  0  0  0  0  0  0  0
   -5.2123   39.9956  -10.1469 C   0  0  0  0  0  0  0  0  0  0  0  0
   -4.2625   40.9731  -10.5790 O   0  0  0  0  0  0  0  0  0  0  0  0
   -4.3681   41.5989  -12.0545 P   0  0  1  0  0  0  0  0  0  0  0  0
   -6.5170   43.3293  -11.4675 P   0  0  2  0  0  0  0  0  0  0  0  0
   -7.5382   36.9847   -7.7216 C   0  0  0  0  0  0  0  0  0  0  0  0
  -10.4987   38.5551   -2.8891 N   0  0  0  0  0  0  0  0  0  0  0  0
   -3.3409   42.8144  -12.2407 O   0  5  0  0  0  0  0  0  0  0  0  0
   -7.9889   43.2735  -11.3537 O   0  0  0  0  0  0  0  0  0  0  0  0
   -8.5377   37.7017   -7.0774 C   0  0  0  0  0  0  0  0  0  0  0  0
   -9.5401   39.0314   -2.0797 C   0  0  0  0  0  0  0  0  0  0  0  0
   -4.0379   40.5278  -13.2195 O   0  0  0  0  0  0  0  0  0  0  0  0
   -6.0300   44.6972  -12.1514 O   0  5  0  0  0  0  0  0  0  0  0  0
   -8.4127   39.0847   -6.9382 N   0  0  0  0  0  0  0  0  0  0  0  0
   -8.5410   39.7781   -2.5721 N   0  0  0  0  0  0  0  0  0  0  0  0
   -5.8779   42.1405  -12.3262 O   0  0  0  0  0  0  0  0  0  0  0  0
   -5.8325   43.3098  -10.0270 O   0  0  0  0  0  0  0  0  0  0  0  0
   -7.2792   39.7346   -7.4412 C   0  0  1  0  0  0  0  0  0  0  0  0
   -8.4866   40.0582   -3.8801 C   0  0  0  0  0  0  0  0  0  0  0  0
   -7.4905   40.7977   -4.3568 N   0  0  0  0  0  0  0  0  0  0  0  0
   -6.2766   39.0139   -8.0882 C   0  0  1  0  0  0  0  0  0  0  0  0
   -9.4658   39.5749   -4.7395 C   0  0  0  0  0  0  0  0  0  0  0  0
   -6.4180   37.6380   -8.2209 C   0  0  0  0  0  0  0  0  0  0  0  0
  -10.4846   38.8068   -4.1874 C   0  0  0  0  0  0  0  0  0  0  0  0
   -9.4773   39.8508   -6.2486 C   0  0  0  0  0  0  0  0  0  0  0  0
  1 13  1  0  0  0  0
  3  4  1  0  0  0  0
  4  5  1  0  0  0  0
  6  5  1  1  0  0  0
  6 10  1  0  0  0  0
  6 14  2  0  0  0  0
  6 18  1  0  0  0  0
  7 11  1  1  0  0  0
  7 15  1  0  0  0  0
  7 19  2  0  0  0  0
  7 18  1  0  0  0  0
  8 25  1  0  0  0  0
  8 12  1  0  0  0  0
  9 26  2  0  0  0  0
  9 13  1  0  0  0  0
 12 16  1  0  0  0  0
 13 17  2  0  0  0  0
 16 20  1  0  0  0  0
 16 27  1  0  0  0  0
 17 21  1  0  0  0  0
 20  2  1  6  0  0  0
 20 23  1  0  0  0  0
 21 22  1  0  0  0  0
 21 24  2  0  0  0  0
 23  3  1  6  0  0  0
 23 25  1  0  0  0  0
 24 27  1  0  0  0  0
 24 26  1  0  0  0  0
M  CHG  2  10  -1  15  -1
M  END
>  <CHROM.1>
160.83818609,-173.40630168,171.77398739,63.22074694,-151.77950057,-93.96788894
72.30636995,71.51586907,-6.92684798,40.65011163,-8.25213383,2.35497923,-0.94311260
2.62502351

>  <Name>
ligand

>  <RI>
0

>  <Rbt.Current_Directory>
/home/itssahil/PROJECTS/Mol_Feturizer/New_Systems/rnas/3D2V

>  <Rbt.Executable>
rbdock ($Id: //depot/dev/client3/rdock/2013.1/src/exe/rbdock.cxx#4 $)

>  <Rbt.Library>
libRbt.so (2013.1, Build901 2013/11/27)

>  <Rbt.Parameter_File>
/export/apps/rDock/src/rDock_2013.1_src/data/scripts/dock_solv.prm

>  <Rbt.Receptor>
prm/pocket_docking_5.prm

>  <SCORE>
-21.1677

>  <SCORE.INTER>
-22.5101

>  <SCORE.INTER.CONST>
1

>  <SCORE.INTER.POLAR>
0

>  <SCORE.INTER.ROT>
8

>  <SCORE.INTER.SOLV>
18.4334

>  <SCORE.INTER.VDW>
-30.0845

>  <SCORE.INTER.norm>
-0.833707

>  <SCORE.INTRA>
1.34238

>  <SCORE.INTRA.DIHEDRAL>
0.0567002

>  <SCORE.INTRA.DIHEDRAL.0>
7.82666

>  <SCORE.INTRA.POLAR>
0

>  <SCORE.INTRA.POLAR.0>
0

>  <SCORE.INTRA.REPUL>
0

>  <SCORE.INTRA.REPUL.0>
0

>  <SCORE.INTRA.SOLV>
4.3498

>  <SCORE.INTRA.SOLV.lig_0>
-83.2758

>  <SCORE.INTRA.VDW>
-0.860872

>  <SCORE.INTRA.VDW.0>
-3.26816

>  <SCORE.INTRA.norm>
0.0497177

>  <SCORE.RESTR>
0

>  <SCORE.RESTR.CAVITY>
0

>  <SCORE.RESTR.norm>
0

>  <SCORE.SYSTEM>
0

>  <SCORE.SYSTEM.CONST>
0

>  <SCORE.SYSTEM.DIHEDRAL>
0

>  <SCORE.SYSTEM.SOLV>
0

>  <SCORE.SYSTEM.norm>
0

>  <SCORE.heavy>
27

>  <SCORE.norm>
-0.783989

>  <RMSD>
3.559

$$$$
ligand
 OpenBabel11021811473D
libRbt.so/2013.1/901 2013/11/27
 27 28  0  0  0  0  0  0  0  0999 V2000
   -8.6712   39.4287   -0.3111 C   0  0  0  0  0  0  0  0  0  0  0  0
   -6.0580   37.6893   -7.6152 C   0  0  0  0  0  0  0  0  0  0  0  0
   -5.0384   39.9925   -9.2372 C   0  0  0  0  0  0  0  0  0  0  0  0
   -4.0247   41.0955   -8.9267 C   0  0  0  0  0  0  0  0  0  0  0  0
   -4.3815   42.3116   -9.5885 O   0  0  0  0  0  0  0  0  0  0  0  0
   -4.2347   42.4316  -11.1835 P   0  0  1  0  0  0  0  0  0  0  0  0
   -6.4069   44.2079  -11.4716 P   0  0  2  0  0  0  0  0  0  0  0  0
   -8.0216   41.5236   -7.4463 C   0  0  0  0  0  0  0  0  0  0  0  0
   -9.6849   38.7204   -2.4694 N   0  0  0  0  0  0  0  0  0  0  0  0
   -2.6972   42.3610  -11.6285 O   0  5  0  0  0  0  0  0  0  0  0  0
   -7.3377   43.0767  -11.6632 O   0  0  0  0  0  0  0  0  0  0  0  0
   -8.5104   40.4697   -6.6857 C   0  0  0  0  0  0  0  0  0  0  0  0
   -8.5808   39.0815   -1.7974 C   0  0  0  0  0  0  0  0  0  0  0  0
   -5.0040   41.2527  -11.9785 O   0  0  0  0  0  0  0  0  0  0  0  0
   -6.7372   45.4190  -12.4715 O   0  5  0  0  0  0  0  0  0  0  0  0
   -7.8728   39.2293   -6.7372 N   0  0  0  0  0  0  0  0  0  0  0  0
   -7.3938   39.1414   -2.4184 N   0  0  0  0  0  0  0  0  0  0  0  0
   -4.8671   43.8388  -11.6996 O   0  0  0  0  0  0  0  0  0  0  0  0
   -6.5473   44.8198  -10.0054 O   0  0  0  0  0  0  0  0  0  0  0  0
   -6.7531   39.0567   -7.5598 C   0  0  1  0  0  0  0  0  0  0  0  0
   -7.2947   38.8407   -3.7192 C   0  0  0  0  0  0  0  0  0  0  0  0
   -6.1125   38.9018   -4.3235 N   0  0  0  0  0  0  0  0  0  0  0  0
   -6.2628   40.1155   -8.3225 C   0  0  2  0  0  0  0  0  0  0  0  0
   -8.4227   38.4618   -4.4367 C   0  0  0  0  0  0  0  0  0  0  0  0
   -6.9076   41.3446   -8.2574 C   0  0  0  0  0  0  0  0  0  0  0  0
   -9.6334   38.4148   -3.7551 C   0  0  0  0  0  0  0  0  0  0  0  0
   -8.3950   38.1030   -5.9282 C   0  0  0  0  0  0  0  0  0  0  0  0
  1 13  1  0  0  0  0
  3  4  1  0  0  0  0
  4  5  1  0  0  0  0
  6  5  1  1  0  0  0
  6 10  1  0  0  0  0
  6 14  2  0  0  0  0
  6 18  1  0  0  0  0
  7 11  1  6  0  0  0
  7 15  1  0  0  0  0
  7 19  2  0  0  0  0
  7 18  1  0  0  0  0
  8 25  1  0  0  0  0
  8 12  1  0  0  0  0
  9 26  2  0  0  0  0
  9 13  1  0  0  0  0
 12 16  1  0  0  0  0
 13 17  2  0  0  0  0
 16 20  1  0  0  0  0
 16 27  1  0  0  0  0
 17 21  1  0  0  0  0
 20  2  1  1  0  0  0
 20 23  1  0  0  0  0
 21 22  1  0  0  0  0
 21 24  2  0  0  0  0
 23  3  1  6  0  0  0
 23 25  1  0  0  0  0
 24 27  1  0  0  0  0
 24 26  1  0  0  0  0
M  CHG  2  10  -1  15  -1
M  END
>  <CHROM.1>
-82.43132304,-70.96384999,-65.98882577,-60.36869809,-39.89637829,-127.56096797
-58.27979739,-58.01488590,-6.52722272,41.05258315,-7.97394405,1.98027415
-0.68764358,2.34364474

>  <Name>
ligand

>  <RI>
0

>  <Rbt.Current_Directory>
/home/itssahil/PROJECTS/Mol_Feturizer/New_Systems/rnas/3D2V

>  <Rbt.Executable>
rbdock ($Id: //depot/dev/client3/rdock/2013.1/src/exe/rbdock.cxx#4 $)

>  <Rbt.Library>
libRbt.so (2013.1, Build901 2013/11/27)

>  <Rbt.Parameter_File>
/export/apps/rDock/src/rDock_2013.1_src/data/scripts/dock_solv.prm

>  <Rbt.Receptor>
prm/pocket_docking_5.prm

>  <SCORE>
-16.5444

>  <SCORE.INTER>
-16.8362

>  <SCORE.INTER.CONST>
1

>  <SCORE.INTER.POLAR>
0

>  <SCORE.INTER.ROT>
8

>  <SCORE.INTER.SOLV>
19.5365

>  <SCORE.INTER.VDW>
-26.6697

>  <SCORE.INTER.norm>
-0.623565

>  <SCORE.INTRA>
0.291828

>  <SCORE.INTRA.DIHEDRAL>
0.290682

>  <SCORE.INTRA.DIHEDRAL.0>
7.82666

>  <SCORE.INTRA.POLAR>
0

>  <SCORE.INTRA.POLAR.0>
0

>  <SCORE.INTRA.REPUL>
0

>  <SCORE.INTRA.REPUL.0>
0

>  <SCORE.INTRA.SOLV>
1.75411

>  <SCORE.INTRA.SOLV.lig_0>
-83.2758

>  <SCORE.INTRA.VDW>
-0.730569

>  <SCORE.INTRA.VDW.0>
-3.26816

>  <SCORE.INTRA.norm>
0.0108085

>  <SCORE.RESTR>
0

>  <SCORE.RESTR.CAVITY>
0

>  <SCORE.RESTR.norm>
0

>  <SCORE.SYSTEM>
0

>  <SCORE.SYSTEM.CONST>
0

>  <SCORE.SYSTEM.DIHEDRAL>
0

>  <SCORE.SYSTEM.SOLV>
0

>  <SCORE.SYSTEM.norm>
0

>  <SCORE.heavy>
27

>  <SCORE.norm>
-0.612756

>  <RMSD>
3.571

$$$$
ligand
 OpenBabel11021811473D
libRbt.so/2013.1/901 2013/11/27
 27 28  0  0  0  0  0  0  0  0999 V2000
   -8.7034   39.2866   -0.8837 C   0  0  0  0  0  0  0  0  0  0  0  0
   -8.8007   40.5132   -6.8771 C   0  0  0  0  0  0  0  0  0  0  0  0
   -6.9444   42.3667   -8.3242 C   0  0  0  0  0  0  0  0  0  0  0  0
   -6.0680   42.9238   -9.4476 C   0  0  0  0  0  0  0  0  0  0  0  0
   -5.6435   44.2552   -9.1452 O   0  0  0  0  0  0  0  0  0  0  0  0
   -6.6266   45.4947   -9.4230 P   0  0  1  0  0  0  0  0  0  0  0  0
   -5.9655   46.6725   -6.9467 P   0  0  2  0  0  0  0  0  0  0  0  0
   -4.9438   39.1358   -8.2237 C   0  0  0  0  0  0  0  0  0  0  0  0
   -9.5378   38.6203   -3.1302 N   0  0  0  0  0  0  0  0  0  0  0  0
   -6.6082   45.9104  -10.9702 O   0  5  0  0  0  0  0  0  0  0  0  0
   -7.0796   46.0222   -6.2266 O   0  0  0  0  0  0  0  0  0  0  0  0
   -5.7889   38.2598   -7.5554 C   0  0  0  0  0  0  0  0  0  0  0  0
   -8.4841   38.8874   -2.3433 C   0  0  0  0  0  0  0  0  0  0  0  0
   -8.1658   45.1765   -9.0446 O   0  0  0  0  0  0  0  0  0  0  0  0
   -5.7171   48.1684   -6.4209 O   0  5  0  0  0  0  0  0  0  0  0  0
   -7.0391   38.7043   -7.1227 N   0  0  0  0  0  0  0  0  0  0  0  0
   -7.2355   38.8077   -2.8256 N   0  0  0  0  0  0  0  0  0  0  0  0
   -6.1767   46.7772   -8.5289 O   0  0  0  0  0  0  0  0  0  0  0  0
   -4.5933   45.9010   -6.6903 O   0  0  0  0  0  0  0  0  0  0  0  0
   -7.4261   40.0289   -7.3585 C   0  0  1  0  0  0  0  0  0  0  0  0
   -7.0235   38.4596   -4.1008 C   0  0  0  0  0  0  0  0  0  0  0  0
   -5.7813   38.3821   -4.5670 N   0  0  0  0  0  0  0  0  0  0  0  0
   -6.5772   40.9074   -8.0299 C   0  0  1  0  0  0  0  0  0  0  0  0
   -8.0976   38.1758   -4.9354 C   0  0  0  0  0  0  0  0  0  0  0  0
   -5.3371   40.4480   -8.4567 C   0  0  0  0  0  0  0  0  0  0  0  0
   -9.3751   38.2725   -4.3958 C   0  0  0  0  0  0  0  0  0  0  0  0
   -7.9409   37.7713   -6.4071 C   0  0  0  0  0  0  0  0  0  0  0  0
  1 13  1  0  0  0  0
  3  4  1  0  0  0  0
  4  5  1  0  0  0  0
  6  5  1  1  0  0  0
  6 10  1  0  0  0  0
  6 14  2  0  0  0  0
  6 18  1  0  0  0  0
  7 11  1  1  0  0  0
  7 15  1  0  0  0  0
  7 19  2  0  0  0  0
  7 18  1  0  0  0  0
  8 25  1  0  0  0  0
  8 12  1  0  0  0  0
  9 26  2  0  0  0  0
  9 13  1  0  0  0  0
 12 16  1  0  0  0  0
 13 17  2  0  0  0  0
 16 20  1  0  0  0  0
 16 27  1  0  0  0  0
 17 21  1  0  0  0  0
 20  2  1  6  0  0  0
 20 23  1  0  0  0  0
 21 22  1  0  0  0  0
 21 24  2  0  0  0  0
 23  3  1  6  0  0  0
 23 25  1  0  0  0  0
 24 27  1  0  0  0  0
 24 26  1  0  0  0  0
M  CHG  2  10  -1  15  -1
M  END
>  <CHROM.1>
-137.95782857,-81.49939912,-80.05934584,-52.59349456,-49.25624494,-160.75737072
-49.37723367,111.34031071,-6.88086987,42.25768770,-6.79593316,2.39064055
-1.31642812,-2.82833122

>  <Name>
ligand

>  <RI>
0

>  <Rbt.Current_Directory>
/home/itssahil/PROJECTS/Mol_Feturizer/New_Systems/rnas/3D2V

>  <Rbt.Executable>
rbdock ($Id: //depot/dev/client3/rdock/2013.1/src/exe/rbdock.cxx#4 $)

>  <Rbt.Library>
libRbt.so (2013.1, Build901 2013/11/27)

>  <Rbt.Parameter_File>
/export/apps/rDock/src/rDock_2013.1_src/data/scripts/dock_solv.prm

>  <Rbt.Receptor>
prm/pocket_docking_7.prm

>  <SCORE>
-12.4002

>  <SCORE.INTER>
-16.4907

>  <SCORE.INTER.CONST>
1

>  <SCORE.INTER.POLAR>
0

>  <SCORE.INTER.ROT>
8

>  <SCORE.INTER.SOLV>
20.4762

>  <SCORE.INTER.VDW>
-26.7525

>  <SCORE.INTER.norm>
-0.610765

>  <SCORE.INTRA>
4.09044

>  <SCORE.INTRA.DIHEDRAL>
4.68972

>  <SCORE.INTRA.DIHEDRAL.0>
7.82666

>  <SCORE.INTRA.POLAR>
0

>  <SCORE.INTRA.POLAR.0>
0

>  <SCORE.INTRA.REPUL>
0

>  <SCORE.INTRA.REPUL.0>
0

>  <SCORE.INTRA.SOLV>
1.50788

>  <SCORE.INTRA.SOLV.lig_0>
-83.2758

>  <SCORE.INTRA.VDW>
0.991646

>  <SCORE.INTRA.VDW.0>
-3.26816

>  <SCORE.INTRA.norm>
0.151498

>  <SCORE.RESTR>
0

>  <SCORE.RESTR.CAVITY>
0

>  <SCORE.RESTR.norm>
0

>  <SCORE.SYSTEM>
0

>  <SCORE.SYSTEM.CONST>
0

>  <SCORE.SYSTEM.DIHEDRAL>
0

>  <SCORE.SYSTEM.SOLV>
0

>  <SCORE.SYSTEM.norm>
0

>  <SCORE.heavy>
27

>  <SCORE.norm>
-0.459267

>  <RMSD>
3.619

$$$$
ligand
 OpenBabel11021811473D
libRbt.so/2013.1/901 2013/11/27
 27 28  0  0  0  0  0  0  0  0999 V2000
  -11.6937   37.8796   -1.7862 C   0  0  0  0  0  0  0  0  0  0  0  0
   -4.8295   40.7332   -3.1560 C   0  0  0  0  0  0  0  0  0  0  0  0
   -4.6353   43.6820   -3.6482 C   0  0  0  0  0  0  0  0  0  0  0  0
   -5.4624   43.5615   -4.9297 C   0  0  0  0  0  0  0  0  0  0  0  0
   -4.6861   43.9370   -6.0701 O   0  0  0  0  0  0  0  0  0  0  0  0
   -5.3494   43.9257   -7.5329 P   0  0  1  0  0  0  0  0  0  0  0  0
   -2.9221   42.9902   -8.6235 P   0  0  2  0  0  0  0  0  0  0  0  0
   -6.7374   43.5278   -0.4846 C   0  0  0  0  0  0  0  0  0  0  0  0
   -9.8153   38.5539   -0.3016 N   0  0  0  0  0  0  0  0  0  0  0  0
   -6.2458   42.6155   -7.7500 O   0  5  0  0  0  0  0  0  0  0  0  0
   -3.2486   41.5830   -8.3143 O   0  0  0  0  0  0  0  0  0  0  0  0
   -6.8395   42.1652   -0.2375 C   0  0  0  0  0  0  0  0  0  0  0  0
  -10.2713   38.3898   -1.5530 C   0  0  0  0  0  0  0  0  0  0  0  0
   -6.3114   45.1973   -7.7995 O   0  0  0  0  0  0  0  0  0  0  0  0
   -1.9129   43.6126   -7.5420 O   0  5  0  0  0  0  0  0  0  0  0  0
   -6.2189   41.2603   -1.0999 N   0  0  0  0  0  0  0  0  0  0  0  0
   -9.4894   38.6698   -2.6057 N   0  0  0  0  0  0  0  0  0  0  0  0
   -4.1902   43.9642   -8.6736 O   0  0  0  0  0  0  0  0  0  0  0  0
   -2.1659   43.1058  -10.0230 O   0  0  0  0  0  0  0  0  0  0  0  0
   -5.5071   41.7331   -2.2089 C   0  0  1  0  0  0  0  0  0  0  0  0
   -8.2413   39.1178   -2.4216 C   0  0  0  0  0  0  0  0  0  0  0  0
   -7.4762   39.3936   -3.4728 N   0  0  0  0  0  0  0  0  0  0  0  0
   -5.4047   43.1012   -2.4559 C   0  0  2  0  0  0  0  0  0  0  0  0
   -7.7463   39.2983   -1.1358 C   0  0  0  0  0  0  0  0  0  0  0  0
   -6.0261   43.9886   -1.5858 C   0  0  0  0  0  0  0  0  0  0  0  0
   -8.5893   38.9942   -0.0730 C   0  0  0  0  0  0  0  0  0  0  0  0
   -6.3292   39.8058   -0.8388 C   0  0  0  0  0  0  0  0  0  0  0  0
  1 13  1  0  0  0  0
  3  4  1  0  0  0  0
  4  5  1  0  0  0  0
  6  5  1  1  0  0  0
  6 10  1  0  0  0  0
  6 14  2  0  0  0  0
  6 18  1  0  0  0  0
  7 11  1  1  0  0  0
  7 15  1  0  0  0  0
  7 19  2  0  0  0  0
  7 18  1  0  0  0  0
  8 25  1  0  0  0  0
  8 12  1  0  0  0  0
  9 26  2  0  0  0  0
  9 13  1  0  0  0  0
 12 16  1  0  0  0  0
 13 17  2  0  0  0  0
 16 20  1  0  0  0  0
 16 27  1  0  0  0  0
 17 21  1  0  0  0  0
 20  2  1  1  0  0  0
 20 23  1  0  0  0  0
 21 22  1  0  0  0  0
 21 24  2  0  0  0  0
 23  3  1  6  0  0  0
 23 25  1  0  0  0  0
 24 27  1  0  0  0  0
 24 26  1  0  0  0  0
M  CHG  2  10  -1  15  -1
M  END
>  <CHROM.1>
-172.35534170,-178.57340825,-43.00785300,47.99141788,45.31163925,78.23776767
74.58562955,71.72509512,-5.95409833,41.87862521,-4.52522016,2.42894600,0.81403649
1.38948484

>  <Name>
ligand

>  <RI>
0

>  <Rbt.Current_Directory>
/home/itssahil/PROJECTS/Mol_Feturizer/New_Systems/rnas/3D2V

>  <Rbt.Executable>
rbdock ($Id: //depot/dev/client3/rdock/2013.1/src/exe/rbdock.cxx#4 $)

>  <Rbt.Library>
libRbt.so (2013.1, Build901 2013/11/27)

>  <Rbt.Parameter_File>
/export/apps/rDock/src/rDock_2013.1_src/data/scripts/dock_solv.prm

>  <Rbt.Receptor>
prm/pocket_docking_5.prm

>  <SCORE>
-18.9384

>  <SCORE.INTER>
-18.2474

>  <SCORE.INTER.CONST>
1

>  <SCORE.INTER.POLAR>
0

>  <SCORE.INTER.ROT>
8

>  <SCORE.INTER.SOLV>
9.97562

>  <SCORE.INTER.VDW>
-24.4235

>  <SCORE.INTER.norm>
-0.675829

>  <SCORE.INTRA>
-0.690979

>  <SCORE.INTRA.DIHEDRAL>
-1.43844

>  <SCORE.INTRA.DIHEDRAL.0>
7.82666

>  <SCORE.INTRA.POLAR>
0

>  <SCORE.INTRA.POLAR.0>
0

>  <SCORE.INTRA.REPUL>
0

>  <SCORE.INTRA.REPUL.0>
0

>  <SCORE.INTRA.SOLV>
0.627242

>  <SCORE.INTRA.SOLV.lig_0>
-83.2758

>  <SCORE.INTRA.VDW>
-0.285382

>  <SCORE.INTRA.VDW.0>
-3.26816

>  <SCORE.INTRA.norm>
-0.0255918

>  <SCORE.RESTR>
0

>  <SCORE.RESTR.CAVITY>
0

>  <SCORE.RESTR.norm>
0

>  <SCORE.SYSTEM>
0

>  <SCORE.SYSTEM.CONST>
0

>  <SCORE.SYSTEM.DIHEDRAL>
0

>  <SCORE.SYSTEM.SOLV>
0

>  <SCORE.SYSTEM.norm>
0

>  <SCORE.heavy>
27

>  <SCORE.norm>
-0.70142

>  <RMSD>
3.637

$$$$
ligand
 OpenBabel11021811473D
libRbt.so/2013.1/901 2013/11/27
 27 28  0  0  0  0  0  0  0  0999 V2000
   -6.3674   40.6139   -0.0941 C   0  0  0  0  0  0  0  0  0  0  0  0
   -5.7964   37.6754   -6.1116 C   0  0  0  0  0  0  0  0  0  0  0  0
   -5.2466   39.3312   -8.5471 C   0  0  0  0  0  0  0  0  0  0  0  0
   -4.4590   40.6305   -8.3677 C   0  0  0  0  0  0  0  0  0  0  0  0
   -4.2297   40.8959   -6.9816 O   0  0  0  0  0  0  0  0  0  0  0  0
   -3.4531   42.2296   -6.5366 P   0  0  1  0  0  0  0  0  0  0  0  0
   -0.8409   43.2886   -6.6437 P   0  0  2  0  0  0  0  0  0  0  0  0
   -8.7831   40.3857   -7.6349 C   0  0  0  0  0  0  0  0  0  0  0  0
   -6.1552   39.7893   -2.4312 N   0  0  0  0  0  0  0  0  0  0  0  0
   -4.1789   43.5383   -7.1090 O   0  5  0  0  0  0  0  0  0  0  0  0
   -0.3682   43.1477   -5.2511 O   0  0  0  0  0  0  0  0  0  0  0  0
   -9.0585   39.6281   -6.5043 C   0  0  0  0  0  0  0  0  0  0  0  0
   -6.9162   39.9034   -1.3318 C   0  0  0  0  0  0  0  0  0  0  0  0
   -3.3717   42.4068   -4.9317 O   0  0  0  0  0  0  0  0  0  0  0  0
   -1.5156   44.7230   -6.8949 O   0  5  0  0  0  0  0  0  0  0  0  0
   -8.0906   38.7534   -6.0086 N   0  0  0  0  0  0  0  0  0  0  0  0
   -8.1583   39.3988   -1.3070 N   0  0  0  0  0  0  0  0  0  0  0  0
   -1.9220   42.1953   -7.0854 O   0  0  0  0  0  0  0  0  0  0  0  0
    0.3773   43.2087   -7.6701 O   0  0  0  0  0  0  0  0  0  0  0  0
   -6.8559   38.6417   -6.6591 C   0  0  1  0  0  0  0  0  0  0  0  0
   -8.6563   38.7737   -2.3811 C   0  0  0  0  0  0  0  0  0  0  0  0
   -9.8895   38.2793   -2.3453 N   0  0  0  0  0  0  0  0  0  0  0  0
   -6.5801   39.4031   -7.7937 C   0  0  2  0  0  0  0  0  0  0  0  0
   -7.8892   38.6444   -3.5325 C   0  0  0  0  0  0  0  0  0  0  0  0
   -7.5537   40.2713   -8.2724 C   0  0  0  0  0  0  0  0  0  0  0  0
   -6.6065   39.1799   -3.5148 C   0  0  0  0  0  0  0  0  0  0  0  0
   -8.3842   37.9423   -4.8037 C   0  0  0  0  0  0  0  0  0  0  0  0
  1 13  1  0  0  0  0
  3  4  1  0  0  0  0
  4  5  1  0  0  0  0
  6  5  1  6  0  0  0
  6 10  1  0  0  0  0
  6 14  2  0  0  0  0
  6 18  1  0  0  0  0
  7 11  1  1  0  0  0
  7 15  1  0  0  0  0
  7 19  2  0  0  0  0
  7 18  1  0  0  0  0
  8 25  1  0  0  0  0
  8 12  1  0  0  0  0
  9 26  2  0  0  0  0
  9 13  1  0  0  0  0
 12 16  1  0  0  0  0
 13 17  2  0  0  0  0
 16 20  1  0  0  0  0
 16 27  1  0  0  0  0
 17 21  1  0  0  0  0
 20  2  1  1  0  0  0
 20 23  1  0  0  0  0
 21 22  1  0  0  0  0
 21 24  2  0  0  0  0
 23  3  1  6  0  0  0
 23 25  1  0  0  0  0
 24 27  1  0  0  0  0
 24 26  1  0  0  0  0
M  CHG  2  10  -1  15  -1
M  END
>  <CHROM.1>
57.59412724,-178.41175514,56.35238266,-171.75819653,72.53360390,-110.82404335
133.31256485,-93.78108262,-5.10171980,40.78647607,-5.56367493,-2.77621679
-0.58092861,-1.62906483

>  <Name>
ligand

>  <RI>
0

>  <Rbt.Current_Directory>
/home/itssahil/PROJECTS/Mol_Feturizer/New_Systems/rnas/3D2V

>  <Rbt.Executable>
rbdock ($Id: //depot/dev/client3/rdock/2013.1/src/exe/rbdock.cxx#4 $)

>  <Rbt.Library>
libRbt.so (2013.1, Build901 2013/11/27)

>  <Rbt.Parameter_File>
/export/apps/rDock/src/rDock_2013.1_src/data/scripts/dock_solv.prm

>  <Rbt.Receptor>
prm/pocket_docking_6.prm

>  <SCORE>
-15.8026

>  <SCORE.INTER>
-14.1207

>  <SCORE.INTER.CONST>
1

>  <SCORE.INTER.POLAR>
0

>  <SCORE.INTER.ROT>
8

>  <SCORE.INTER.SOLV>
21.7925

>  <SCORE.INTER.VDW>
-25.6113

>  <SCORE.INTER.norm>
-0.522989

>  <SCORE.INTRA>
-1.68191

>  <SCORE.INTRA.DIHEDRAL>
-2.21022

>  <SCORE.INTRA.DIHEDRAL.0>
7.82666

>  <SCORE.INTRA.POLAR>
0

>  <SCORE.INTRA.POLAR.0>
0

>  <SCORE.INTRA.REPUL>
0

>  <SCORE.INTRA.REPUL.0>
0

>  <SCORE.INTRA.SOLV>
-0.760825

>  <SCORE.INTRA.SOLV.lig_0>
-83.2758

>  <SCORE.INTRA.VDW>
-0.196391

>  <SCORE.INTRA.VDW.0>
-3.26816

>  <SCORE.INTRA.norm>
-0.0622931

>  <SCORE.RESTR>
0

>  <SCORE.RESTR.CAVITY>
0

>  <SCORE.RESTR.norm>
0

>  <SCORE.SYSTEM>
0

>  <SCORE.SYSTEM.CONST>
0

>  <SCORE.SYSTEM.DIHEDRAL>
0

>  <SCORE.SYSTEM.SOLV>
0

>  <SCORE.SYSTEM.norm>
0

>  <SCORE.heavy>
27

>  <SCORE.norm>
-0.585282

>  <RMSD>
3.643

$$$$
ligand
 OpenBabel11021811473D
libRbt.so/2013.1/901 2013/11/27
 27 28  0  0  0  0  0  0  0  0999 V2000
   -5.1732   40.4515    0.8263 C   0  0  0  0  0  0  0  0  0  0  0  0
   -8.0131   40.4998   -6.7701 C   0  0  0  0  0  0  0  0  0  0  0  0
   -6.2247   39.2675   -8.8337 C   0  0  0  0  0  0  0  0  0  0  0  0
   -4.9890   40.1491   -9.0245 C   0  0  0  0  0  0  0  0  0  0  0  0
   -5.1273   41.3768   -8.3048 O   0  0  0  0  0  0  0  0  0  0  0  0
   -3.9773   42.4946   -8.3940 P   0  0  1  0  0  0  0  0  0  0  0  0
   -1.5462   43.0580   -7.0792 P   0  0  2  0  0  0  0  0  0  0  0  0
   -5.5089   37.1365   -5.7681 C   0  0  0  0  0  0  0  0  0  0  0  0
   -7.0864   39.5223   -0.4634 N   0  0  0  0  0  0  0  0  0  0  0  0
   -3.5449   42.7577   -9.9142 O   0  5  0  0  0  0  0  0  0  0  0  0
   -0.3379   42.4275   -6.5091 O   0  0  0  0  0  0  0  0  0  0  0  0
   -6.3308   37.6920   -4.7965 C   0  0  0  0  0  0  0  0  0  0  0  0
   -5.9139   40.1748   -0.4824 C   0  0  0  0  0  0  0  0  0  0  0  0
   -4.4354   43.9212   -7.7868 O   0  0  0  0  0  0  0  0  0  0  0  0
   -2.2497   44.0436   -6.0259 O   0  5  0  0  0  0  0  0  0  0  0  0
   -7.1444   38.7784   -5.1214 N   0  0  0  0  0  0  0  0  0  0  0  0
   -5.3827   40.5887   -1.6419 N   0  0  0  0  0  0  0  0  0  0  0  0
   -2.6696   42.0210   -7.5501 O   0  0  0  0  0  0  0  0  0  0  0  0
   -1.1749   43.9731   -8.3316 O   0  0  0  0  0  0  0  0  0  0  0  0
   -7.1188   39.3026   -6.4194 C   0  0  1  0  0  0  0  0  0  0  0  0
   -6.0163   40.3554   -2.7980 C   0  0  0  0  0  0  0  0  0  0  0  0
   -5.4790   40.7688   -3.9412 N   0  0  0  0  0  0  0  0  0  0  0  0
   -6.2937   38.7439   -7.3942 C   0  0  1  0  0  0  0  0  0  0  0  0
   -7.2305   39.6798   -2.8054 C   0  0  0  0  0  0  0  0  0  0  0  0
   -5.4922   37.6608   -7.0548 C   0  0  0  0  0  0  0  0  0  0  0  0
   -7.7466   39.2702   -1.5813 C   0  0  0  0  0  0  0  0  0  0  0  0
   -8.0201   39.3739   -4.0848 C   0  0  0  0  0  0  0  0  0  0  0  0
  1 13  1  0  0  0  0
  3  4  1  0  0  0  0
  4  5  1  0  0  0  0
  6  5  1  1  0  0  0
  6 10  1  0  0  0  0
  6 14  2  0  0  0  0
  6 18  1  0  0  0  0
  7 11  1  1  0  0  0
  7 15  1  0  0  0  0
  7 19  2  0  0  0  0
  7 18  1  0  0  0  0
  8 25  1  0  0  0  0
  8 12  1  0  0  0  0
  9 26  2  0  0  0  0
  9 13  1  0  0  0  0
 12 16  1  0  0  0  0
 13 17  2  0  0  0  0
 16 20  1  0  0  0  0
 16 27  1  0  0  0  0
 17 21  1  0  0  0  0
 20  2  1  6  0  0  0
 20 23  1  0  0  0  0
 21 22  1  0  0  0  0
 21 24  2  0  0  0  0
 23  3  1  6  0  0  0
 23 25  1  0  0  0  0
 24 27  1  0  0  0  0
 24 26  1  0  0  0  0
M  CHG  2  10  -1  15  -1
M  END
>  <CHROM.1>
-69.43500515,-177.75025067,47.76221134,-161.45230809,-171.10577115,100.49704057
48.57306477,50.43695189,-4.86487908,40.90912802,-5.78522041,-2.32060009,-0.72629018
-1.60234037

>  <Name>
ligand

>  <RI>
0

>  <Rbt.Current_Directory>
/home/itssahil/PROJECTS/Mol_Feturizer/New_Systems/rnas/3D2V

>  <Rbt.Executable>
rbdock ($Id: //depot/dev/client3/rdock/2013.1/src/exe/rbdock.cxx#4 $)

>  <Rbt.Library>
libRbt.so (2013.1, Build901 2013/11/27)

>  <Rbt.Parameter_File>
/export/apps/rDock/src/rDock_2013.1_src/data/scripts/dock_solv.prm

>  <Rbt.Receptor>
prm/pocket_docking_6.prm

>  <SCORE>
-13.2943

>  <SCORE.INTER>
-13.9326

>  <SCORE.INTER.CONST>
1

>  <SCORE.INTER.POLAR>
0

>  <SCORE.INTER.ROT>
8

>  <SCORE.INTER.SOLV>
9.48036

>  <SCORE.INTER.VDW>
-21.3818

>  <SCORE.INTER.norm>
-0.516022

>  <SCORE.INTRA>
0.638289

>  <SCORE.INTRA.DIHEDRAL>
-1.37606

>  <SCORE.INTRA.DIHEDRAL.0>
7.82666

>  <SCORE.INTRA.POLAR>
0

>  <SCORE.INTRA.POLAR.0>
0

>  <SCORE.INTRA.REPUL>
0.00654909

>  <SCORE.INTRA.REPUL.0>
0

>  <SCORE.INTRA.SOLV>
4.26599

>  <SCORE.INTRA.SOLV.lig_0>
-83.2758

>  <SCORE.INTRA.VDW>
-0.83942

>  <SCORE.INTRA.VDW.0>
-3.26816

>  <SCORE.INTRA.norm>
0.0236403

>  <SCORE.RESTR>
0

>  <SCORE.RESTR.CAVITY>
0

>  <SCORE.RESTR.norm>
0

>  <SCORE.SYSTEM>
0

>  <SCORE.SYSTEM.CONST>
0

>  <SCORE.SYSTEM.DIHEDRAL>
0

>  <SCORE.SYSTEM.SOLV>
0

>  <SCORE.SYSTEM.norm>
0

>  <SCORE.heavy>
27

>  <SCORE.norm>
-0.492381

>  <RMSD>
3.678

$$$$
ligand
 OpenBabel11021811473D
libRbt.so/2013.1/901 2013/11/27
 27 28  0  0  0  0  0  0  0  0999 V2000
  -10.8641   38.0543   -2.7464 C   0  0  0  0  0  0  0  0  0  0  0  0
   -5.5128   39.5228   -8.6077 C   0  0  0  0  0  0  0  0  0  0  0  0
   -3.5068   41.6599   -7.9877 C   0  0  0  0  0  0  0  0  0  0  0  0
   -3.1649   42.9035   -8.8106 C   0  0  0  0  0  0  0  0  0  0  0  0
   -3.1829   44.0740   -7.9898 O   0  0  0  0  0  0  0  0  0  0  0  0
   -3.1001   45.5296   -8.6640 P   0  0  1  0  0  0  0  0  0  0  0  0
   -5.6538   45.3391   -9.8469 P   0  0  2  0  0  0  0  0  0  0  0  0
   -6.6260   42.9474   -6.2373 C   0  0  0  0  0  0  0  0  0  0  0  0
  -10.6485   39.5257   -4.7404 N   0  0  0  0  0  0  0  0  0  0  0  0
   -2.3039   46.5557   -7.7259 O   0  5  0  0  0  0  0  0  0  0  0  0
   -5.0445   44.4682  -10.8731 O   0  0  0  0  0  0  0  0  0  0  0  0
   -7.5714   41.9682   -6.5123 C   0  0  0  0  0  0  0  0  0  0  0  0
  -10.1515   38.5076   -4.0210 C   0  0  0  0  0  0  0  0  0  0  0  0
   -2.3432   45.5214  -10.0925 O   0  0  0  0  0  0  0  0  0  0  0  0
   -6.5883   46.4641  -10.5077 O   0  5  0  0  0  0  0  0  0  0  0  0
   -7.2104   40.8576   -7.2764 N   0  0  0  0  0  0  0  0  0  0  0  0
   -9.0316   37.8809   -4.4098 N   0  0  0  0  0  0  0  0  0  0  0  0
   -4.5967   46.1106   -8.9268 O   0  0  0  0  0  0  0  0  0  0  0  0
   -6.6138   44.5027   -8.8863 O   0  0  0  0  0  0  0  0  0  0  0  0
   -5.9031   40.7447   -7.7648 C   0  0  1  0  0  0  0  0  0  0  0  0
   -8.3938   38.2633   -5.5231 C   0  0  0  0  0  0  0  0  0  0  0  0
   -7.2857   37.6333   -5.8994 N   0  0  0  0  0  0  0  0  0  0  0  0
   -4.9547   41.7280   -7.4878 C   0  0  1  0  0  0  0  0  0  0  0  0
   -8.8893   39.3132   -6.2866 C   0  0  0  0  0  0  0  0  0  0  0  0
   -5.3298   42.8259   -6.7230 C   0  0  0  0  0  0  0  0  0  0  0  0
  -10.0514   39.9366   -5.8467 C   0  0  0  0  0  0  0  0  0  0  0  0
   -8.2189   39.8131   -7.5729 C   0  0  0  0  0  0  0  0  0  0  0  0
  1 13  1  0  0  0  0
  3  4  1  0  0  0  0
  4  5  1  0  0  0  0
  6  5  1  1  0  0  0
  6 10  1  0  0  0  0
  6 14  2  0  0  0  0
  6 18  1  0  0  0  0
  7 11  1  6  0  0  0
  7 15  1  0  0  0  0
  7 19  2  0  0  0  0
  7 18  1  0  0  0  0
  8 25  1  0  0  0  0
  8 12  1  0  0  0  0
  9 26  2  0  0  0  0
  9 13  1  0  0  0  0
 12 16  1  0  0  0  0
 13 17  2  0  0  0  0
 16 20  1  0  0  0  0
 16 27  1  0  0  0  0
 17 21  1  0  0  0  0
 20  2  1  1  0  0  0
 20 23  1  0  0  0  0
 21 22  1  0  0  0  0
 21 24  2  0  0  0  0
 23  3  1  1  0  0  0
 23 25  1  0  0  0  0
 24 27  1  0  0  0  0
 24 26  1  0  0  0  0
M  CHG  2  10  -1  15  -1
M  END
>  <CHROM.1>
65.78338658,-169.72125189,-146.56314796,-58.91430696,-26.06723091,122.98953738
-88.66508563,-52.80089570,-6.12081941,42.39424828,-7.59611801,2.17471120
-0.15336118,2.68049600

>  <Name>
ligand

>  <RI>
0

>  <Rbt.Current_Directory>
/home/itssahil/PROJECTS/Mol_Feturizer/New_Systems/rnas/3D2V

>  <Rbt.Executable>
rbdock ($Id: //depot/dev/client3/rdock/2013.1/src/exe/rbdock.cxx#4 $)

>  <Rbt.Library>
libRbt.so (2013.1, Build901 2013/11/27)

>  <Rbt.Parameter_File>
/export/apps/rDock/src/rDock_2013.1_src/data/scripts/dock_solv.prm

>  <Rbt.Receptor>
prm/pocket_docking_3.prm

>  <SCORE>
-9.11593

>  <SCORE.INTER>
-8.57018

>  <SCORE.INTER.CONST>
1

>  <SCORE.INTER.POLAR>
0

>  <SCORE.INTER.ROT>
8

>  <SCORE.INTER.SOLV>
17.8346

>  <SCORE.INTER.VDW>
-20.5916

>  <SCORE.INTER.norm>
-0.317414

>  <SCORE.INTRA>
-0.552843

>  <SCORE.INTRA.DIHEDRAL>
0.805956

>  <SCORE.INTRA.DIHEDRAL.0>
7.82666

>  <SCORE.INTRA.POLAR>
0

>  <SCORE.INTRA.POLAR.0>
0

>  <SCORE.INTRA.REPUL>
0

>  <SCORE.INTRA.REPUL.0>
0

>  <SCORE.INTRA.SOLV>
0.914266

>  <SCORE.INTRA.SOLV.lig_0>
-83.2758

>  <SCORE.INTRA.VDW>
-1.41295

>  <SCORE.INTRA.VDW.0>
-3.26816

>  <SCORE.INTRA.norm>
-0.0204757

>  <SCORE.RESTR>
0.00708884

>  <SCORE.RESTR.CAVITY>
0.00708884

>  <SCORE.RESTR.norm>
0.00026255

>  <SCORE.SYSTEM>
0

>  <SCORE.SYSTEM.CONST>
0

>  <SCORE.SYSTEM.DIHEDRAL>
0

>  <SCORE.SYSTEM.SOLV>
0

>  <SCORE.SYSTEM.norm>
0

>  <SCORE.heavy>
27

>  <SCORE.norm>
-0.337627

>  <RMSD>
3.680

$$$$
ligand
 OpenBabel11021811473D
libRbt.so/2013.1/901 2013/11/27
 27 28  0  0  0  0  0  0  0  0999 V2000
   -6.1481   40.2240    0.2203 C   0  0  0  0  0  0  0  0  0  0  0  0
   -7.7102   36.7423   -5.4859 C   0  0  0  0  0  0  0  0  0  0  0  0
   -6.8897   37.8561   -8.1433 C   0  0  0  0  0  0  0  0  0  0  0  0
   -5.7283   38.7959   -8.4725 C   0  0  0  0  0  0  0  0  0  0  0  0
   -6.1318   39.7854   -9.4224 O   0  0  0  0  0  0  0  0  0  0  0  0
   -5.6675   41.3121   -9.2389 P   0  0  1  0  0  0  0  0  0  0  0  0
   -6.8122   43.8833   -9.4248 P   0  0  2  0  0  0  0  0  0  0  0  0
   -9.3936   40.4425   -6.9217 C   0  0  0  0  0  0  0  0  0  0  0  0
   -6.6313   39.4703   -2.1004 N   0  0  0  0  0  0  0  0  0  0  0  0
   -4.8936   41.5171   -7.8510 O   0  5  0  0  0  0  0  0  0  0  0  0
   -8.0894   44.6229   -9.3594 O   0  0  0  0  0  0  0  0  0  0  0  0
   -9.7874   39.9444   -5.6868 C   0  0  0  0  0  0  0  0  0  0  0  0
   -7.0910   39.6916   -0.8592 C   0  0  0  0  0  0  0  0  0  0  0  0
   -4.6686   41.8128  -10.4073 O   0  0  0  0  0  0  0  0  0  0  0  0
   -6.0558   44.1353  -10.8177 O   0  5  0  0  0  0  0  0  0  0  0  0
   -9.2399   38.7486   -5.2199 N   0  0  0  0  0  0  0  0  0  0  0  0
   -8.3741   39.4496   -0.5542 N   0  0  0  0  0  0  0  0  0  0  0  0
   -6.9610   42.2981   -9.2699 O   0  0  0  0  0  0  0  0  0  0  0  0
   -5.8026   44.3884   -8.2981 O   0  0  0  0  0  0  0  0  0  0  0  0
   -8.3063   38.0589   -6.0028 C   0  0  1  0  0  0  0  0  0  0  0  0
   -9.2149   38.9836   -1.4860 C   0  0  0  0  0  0  0  0  0  0  0  0
  -10.4850   38.7493   -1.1724 N   0  0  0  0  0  0  0  0  0  0  0  0
   -7.9112   38.5599   -7.2421 C   0  0  2  0  0  0  0  0  0  0  0  0
   -8.7640   38.7485   -2.7792 C   0  0  0  0  0  0  0  0  0  0  0  0
   -8.4638   39.7533   -7.6908 C   0  0  0  0  0  0  0  0  0  0  0  0
   -7.4264   39.0107   -3.0521 C   0  0  0  0  0  0  0  0  0  0  0  0
   -9.6613   38.2146   -3.9034 C   0  0  0  0  0  0  0  0  0  0  0  0
  1 13  1  0  0  0  0
  3  4  1  0  0  0  0
  4  5  1  0  0  0  0
  6  5  1  6  0  0  0
  6 10  1  0  0  0  0
  6 14  2  0  0  0  0
  6 18  1  0  0  0  0
  7 11  1  1  0  0  0
  7 15  1  0  0  0  0
  7 19  2  0  0  0  0
  7 18  1  0  0  0  0
  8 25  1  0  0  0  0
  8 12  1  0  0  0  0
  9 26  2  0  0  0  0
  9 13  1  0  0  0  0
 12 16  1  0  0  0  0
 13 17  2  0  0  0  0
 16 20  1  0  0  0  0
 16 27  1  0  0  0  0
 17 21  1  0  0  0  0
 20  2  1  1  0  0  0
 20 23  1  0  0  0  0
 21 22  1  0  0  0  0
 21 24  2  0  0  0  0
 23  3  1  6  0  0  0
 23 25  1  0  0  0  0
 24 27  1  0  0  0  0
 24 26  1  0  0  0  0
M  CHG  2  10  -1  15  -1
M  END
>  <CHROM.1>
-74.15111786,137.98370733,-5.88906090,-166.73764670,-176.85788793,-123.76054792
147.95540218,-89.91136392,-7.29518129,40.50783909,-6.38605644,-2.67118376
-1.28707490,-2.19083616

>  <Name>
ligand

>  <RI>
0

>  <Rbt.Current_Directory>
/home/itssahil/PROJECTS/Mol_Feturizer/New_Systems/rnas/3D2V

>  <Rbt.Executable>
rbdock ($Id: //depot/dev/client3/rdock/2013.1/src/exe/rbdock.cxx#4 $)

>  <Rbt.Library>
libRbt.so (2013.1, Build901 2013/11/27)

>  <Rbt.Parameter_File>
/export/apps/rDock/src/rDock_2013.1_src/data/scripts/dock_solv.prm

>  <Rbt.Receptor>
prm/pocket_docking_8.prm

>  <SCORE>
-15.151

>  <SCORE.INTER>
-19.0511

>  <SCORE.INTER.CONST>
1

>  <SCORE.INTER.POLAR>
0

>  <SCORE.INTER.ROT>
8

>  <SCORE.INTER.SOLV>
20.0154

>  <SCORE.INTER.VDW>
-28.3058

>  <SCORE.INTER.norm>
-0.705595

>  <SCORE.INTRA>
3.90008

>  <SCORE.INTRA.DIHEDRAL>
6.4472

>  <SCORE.INTRA.DIHEDRAL.0>
7.82666

>  <SCORE.INTRA.POLAR>
0

>  <SCORE.INTRA.POLAR.0>
0

>  <SCORE.INTRA.REPUL>
0

>  <SCORE.INTRA.REPUL.0>
0

>  <SCORE.INTRA.SOLV>
1.92275

>  <SCORE.INTRA.SOLV.lig_0>
-83.2758

>  <SCORE.INTRA.VDW>
-0.284899

>  <SCORE.INTRA.VDW.0>
-3.26816

>  <SCORE.INTRA.norm>
0.144447

>  <SCORE.RESTR>
0

>  <SCORE.RESTR.CAVITY>
0

>  <SCORE.RESTR.norm>
0

>  <SCORE.SYSTEM>
0

>  <SCORE.SYSTEM.CONST>
0

>  <SCORE.SYSTEM.DIHEDRAL>
0

>  <SCORE.SYSTEM.SOLV>
0

>  <SCORE.SYSTEM.norm>
0

>  <SCORE.heavy>
27

>  <SCORE.norm>
-0.561147

>  <RMSD>
3.695

$$$$
ligand
 OpenBabel11021811473D
libRbt.so/2013.1/901 2013/11/27
 27 28  0  0  0  0  0  0  0  0999 V2000
  -12.2083   37.5076   -1.9850 C   0  0  0  0  0  0  0  0  0  0  0  0
   -5.5862   42.2169   -3.0611 C   0  0  0  0  0  0  0  0  0  0  0  0
   -4.0165   41.5385   -5.5209 C   0  0  0  0  0  0  0  0  0  0  0  0
   -4.6688   41.8112   -6.8777 C   0  0  0  0  0  0  0  0  0  0  0  0
   -4.7074   40.6209   -7.6689 O   0  0  0  0  0  0  0  0  0  0  0  0
   -5.5772   40.5810   -9.0187 P   0  0  1  0  0  0  0  0  0  0  0  0
   -7.8989   39.6034   -7.7496 P   0  0  2  0  0  0  0  0  0  0  0  0
   -5.4989   38.1738   -4.5552 C   0  0  0  0  0  0  0  0  0  0  0  0
  -10.2850   38.7197   -2.9944 N   0  0  0  0  0  0  0  0  0  0  0  0
   -5.1820   41.7877   -9.9958 O   0  5  0  0  0  0  0  0  0  0  0  0
   -7.4271   38.2176   -7.9485 O   0  0  0  0  0  0  0  0  0  0  0  0
   -6.2334   38.4665   -3.4137 C   0  0  0  0  0  0  0  0  0  0  0  0
  -10.8418   38.1876   -1.8954 C   0  0  0  0  0  0  0  0  0  0  0  0
   -5.3747   39.2154   -9.8598 O   0  0  0  0  0  0  0  0  0  0  0  0
   -9.4685   39.7413   -8.0545 O   0  5  0  0  0  0  0  0  0  0  0  0
   -6.2650   39.7759   -2.9318 N   0  0  0  0  0  0  0  0  0  0  0  0
  -10.2097   38.2463   -0.7143 N   0  0  0  0  0  0  0  0  0  0  0  0
   -7.1619   40.6874   -8.6667 O   0  0  0  0  0  0  0  0  0  0  0  0
   -7.7224   40.0532   -6.2296 O   0  0  0  0  0  0  0  0  0  0  0  0
   -5.5507   40.7792   -3.5976 C   0  0  1  0  0  0  0  0  0  0  0  0
   -9.0124   38.8373   -0.6161 C   0  0  0  0  0  0  0  0  0  0  0  0
   -8.3947   38.8876    0.5596 N   0  0  0  0  0  0  0  0  0  0  0  0
   -4.8141   40.4845   -4.7437 C   0  0  2  0  0  0  0  0  0  0  0  0
   -8.4136   39.3938   -1.7397 C   0  0  0  0  0  0  0  0  0  0  0  0
   -4.7956   39.1764   -5.2118 C   0  0  0  0  0  0  0  0  0  0  0  0
   -9.1040   39.3129   -2.9436 C   0  0  0  0  0  0  0  0  0  0  0  0
   -7.0463   40.0891   -1.7123 C   0  0  0  0  0  0  0  0  0  0  0  0
  1 13  1  0  0  0  0
  3  4  1  0  0  0  0
  4  5  1  0  0  0  0
  6  5  1  1  0  0  0
  6 10  1  0  0  0  0
  6 14  2  0  0  0  0
  6 18  1  0  0  0  0
  7 11  1  6  0  0  0
  7 15  1  0  0  0  0
  7 19  2  0  0  0  0
  7 18  1  0  0  0  0
  8 25  1  0  0  0  0
  8 12  1  0  0  0  0
  9 26  2  0  0  0  0
  9 13  1  0  0  0  0
 12 16  1  0  0  0  0
 13 17  2  0  0  0  0
 16 20  1  0  0  0  0
 16 27  1  0  0  0  0
 17 21  1  0  0  0  0
 20  2  1  6  0  0  0
 20 23  1  0  0  0  0
 21 22  1  0  0  0  0
 21 24  2  0  0  0  0
 23  3  1  1  0  0  0
 23 25  1  0  0  0  0
 24 27  1  0  0  0  0
 24 26  1  0  0  0  0
M  CHG  2  10  -1  15  -1
M  END
>  <CHROM.1>
-60.62477761,168.87854569,53.86265462,-60.10498105,-36.88759941,-110.50537520
141.57151361,-43.44938750,-7.12438116,39.77433660,-5.26064704,2.07238525
0.42150754,1.59030335

>  <Name>
ligand

>  <RI>
0

>  <Rbt.Current_Directory>
/home/itssahil/PROJECTS/Mol_Feturizer/New_Systems/rnas/3D2V

>  <Rbt.Executable>
rbdock ($Id: //depot/dev/client3/rdock/2013.1/src/exe/rbdock.cxx#4 $)

>  <Rbt.Library>
libRbt.so (2013.1, Build901 2013/11/27)

>  <Rbt.Parameter_File>
/export/apps/rDock/src/rDock_2013.1_src/data/scripts/dock_solv.prm

>  <Rbt.Receptor>
prm/pocket_docking_5.prm

>  <SCORE>
-23.6263

>  <SCORE.INTER>
-21.3261

>  <SCORE.INTER.CONST>
1

>  <SCORE.INTER.POLAR>
0

>  <SCORE.INTER.ROT>
8

>  <SCORE.INTER.SOLV>
29.7576

>  <SCORE.INTER.VDW>
-33.0699

>  <SCORE.INTER.norm>
-0.789856

>  <SCORE.INTRA>
-2.30021

>  <SCORE.INTRA.DIHEDRAL>
-1.23542

>  <SCORE.INTRA.DIHEDRAL.0>
7.82666

>  <SCORE.INTRA.POLAR>
0

>  <SCORE.INTRA.POLAR.0>
0

>  <SCORE.INTRA.REPUL>
0

>  <SCORE.INTRA.REPUL.0>
0

>  <SCORE.INTRA.SOLV>
-0.127331

>  <SCORE.INTRA.SOLV.lig_0>
-83.2758

>  <SCORE.INTRA.VDW>
-1.61884

>  <SCORE.INTRA.VDW.0>
-3.26816

>  <SCORE.INTRA.norm>
-0.0851931

>  <SCORE.RESTR>
0

>  <SCORE.RESTR.CAVITY>
0

>  <SCORE.RESTR.norm>
0

>  <SCORE.SYSTEM>
0

>  <SCORE.SYSTEM.CONST>
0

>  <SCORE.SYSTEM.DIHEDRAL>
0

>  <SCORE.SYSTEM.SOLV>
0

>  <SCORE.SYSTEM.norm>
0

>  <SCORE.heavy>
27

>  <SCORE.norm>
-0.875049

>  <RMSD>
3.714

$$$$
ligand
 OpenBabel11021811473D
libRbt.so/2013.1/901 2013/11/27
 27 28  0  0  0  0  0  0  0  0999 V2000
  -11.0253   38.1047   -1.8663 C   0  0  0  0  0  0  0  0  0  0  0  0
   -5.5939   42.3931   -6.9250 C   0  0  0  0  0  0  0  0  0  0  0  0
   -6.0991   45.3458   -6.9610 C   0  0  0  0  0  0  0  0  0  0  0  0
   -7.1799   45.9856   -7.8346 C   0  0  0  0  0  0  0  0  0  0  0  0
   -7.6742   45.0490   -8.7951 O   0  0  0  0  0  0  0  0  0  0  0  0
   -6.8140   44.7170  -10.1103 P   0  0  1  0  0  0  0  0  0  0  0  0
   -4.0513   44.3967  -10.5809 P   0  0  2  0  0  0  0  0  0  0  0  0
   -8.1686   44.2085   -3.9820 C   0  0  0  0  0  0  0  0  0  0  0  0
   -8.8925   39.3722   -2.0441 N   0  0  0  0  0  0  0  0  0  0  0  0
   -7.5596   43.6379  -11.0304 O   0  5  0  0  0  0  0  0  0  0  0  0
   -4.3136   44.4871  -12.0320 O   0  0  0  0  0  0  0  0  0  0  0  0
   -7.9476   42.8381   -3.9467 C   0  0  0  0  0  0  0  0  0  0  0  0
   -9.9358   38.8105   -2.6741 C   0  0  0  0  0  0  0  0  0  0  0  0
   -6.5504   46.0156  -11.0364 O   0  0  0  0  0  0  0  0  0  0  0  0
   -3.0209   43.2143  -10.2406 O   0  5  0  0  0  0  0  0  0  0  0  0
   -7.1112   42.2505   -4.8969 N   0  0  0  0  0  0  0  0  0  0  0  0
  -10.0333   38.8619   -4.0105 N   0  0  0  0  0  0  0  0  0  0  0  0
   -5.3547   44.1322   -9.6919 O   0  0  0  0  0  0  0  0  0  0  0  0
   -3.3589   45.7289  -10.0426 O   0  0  0  0  0  0  0  0  0  0  0  0
   -6.5100   43.0452   -5.8803 C   0  0  1  0  0  0  0  0  0  0  0  0
   -9.0893   39.4756   -4.7348 C   0  0  0  0  0  0  0  0  0  0  0  0
   -9.1978   39.5218   -6.0587 N   0  0  0  0  0  0  0  0  0  0  0  0
   -6.7321   44.4209   -5.9146 C   0  0  2  0  0  0  0  0  0  0  0  0
   -8.0004   40.0670   -4.1061 C   0  0  0  0  0  0  0  0  0  0  0  0
   -7.5652   44.9904   -4.9594 C   0  0  0  0  0  0  0  0  0  0  0  0
   -7.9372   39.9889   -2.7196 C   0  0  0  0  0  0  0  0  0  0  0  0
   -6.8765   40.7878   -4.8619 C   0  0  0  0  0  0  0  0  0  0  0  0
  1 13  1  0  0  0  0
  3  4  1  0  0  0  0
  4  5  1  0  0  0  0
  6  5  1  1  0  0  0
  6 10  1  0  0  0  0
  6 14  2  0  0  0  0
  6 18  1  0  0  0  0
  7 11  1  6  0  0  0
  7 15  1  0  0  0  0
  7 19  2  0  0  0  0
  7 18  1  0  0  0  0
  8 25  1  0  0  0  0
  8 12  1  0  0  0  0
  9 26  2  0  0  0  0
  9 13  1  0  0  0  0
 12 16  1  0  0  0  0
 13 17  2  0  0  0  0
 16 20  1  0  0  0  0
 16 27  1  0  0  0  0
 17 21  1  0  0  0  0
 20  2  1  1  0  0  0
 20 23  1  0  0  0  0
 21 22  1  0  0  0  0
 21 24  2  0  0  0  0
 23  3  1  6  0  0  0
 23 25  1  0  0  0  0
 24 27  1  0  0  0  0
 24 26  1  0  0  0  0
M  CHG  2  10  -1  15  -1
M  END
>  <CHROM.1>
-76.57118084,-77.57561191,179.61220053,-147.91656919,-32.69168603,116.33188417
96.43499458,21.57452955,-6.90207537,42.90189651,-7.11902852,-2.80481261,1.11184714
0.24967912

>  <Name>
ligand

>  <RI>
0

>  <Rbt.Current_Directory>
/home/itssahil/PROJECTS/Mol_Feturizer/New_Systems/rnas/3D2V

>  <Rbt.Executable>
rbdock ($Id: //depot/dev/client3/rdock/2013.1/src/exe/rbdock.cxx#4 $)

>  <Rbt.Library>
libRbt.so (2013.1, Build901 2013/11/27)

>  <Rbt.Parameter_File>
/export/apps/rDock/src/rDock_2013.1_src/data/scripts/dock_solv.prm

>  <Rbt.Receptor>
prm/pocket_docking_4.prm

>  <SCORE>
-12.9418

>  <SCORE.INTER>
-14.0871

>  <SCORE.INTER.CONST>
1

>  <SCORE.INTER.POLAR>
0

>  <SCORE.INTER.ROT>
8

>  <SCORE.INTER.SOLV>
20.3775

>  <SCORE.INTER.VDW>
-25.1172

>  <SCORE.INTER.norm>
-0.521745

>  <SCORE.INTRA>
1.14537

>  <SCORE.INTRA.DIHEDRAL>
2.14169

>  <SCORE.INTRA.DIHEDRAL.0>
7.82666

>  <SCORE.INTRA.POLAR>
0

>  <SCORE.INTRA.POLAR.0>
0

>  <SCORE.INTRA.REPUL>
0

>  <SCORE.INTRA.REPUL.0>
0

>  <SCORE.INTRA.SOLV>
0.756641

>  <SCORE.INTRA.SOLV.lig_0>
-83.2758

>  <SCORE.INTRA.VDW>
-0.303796

>  <SCORE.INTRA.VDW.0>
-3.26816

>  <SCORE.INTRA.norm>
0.0424211

>  <SCORE.RESTR>
0

>  <SCORE.RESTR.CAVITY>
0

>  <SCORE.RESTR.norm>
0

>  <SCORE.SYSTEM>
0

>  <SCORE.SYSTEM.CONST>
0

>  <SCORE.SYSTEM.DIHEDRAL>
0

>  <SCORE.SYSTEM.SOLV>
0

>  <SCORE.SYSTEM.norm>
0

>  <SCORE.heavy>
27

>  <SCORE.norm>
-0.479324

>  <RMSD>
3.724

$$$$
ligand
 OpenBabel11021811473D
libRbt.so/2013.1/901 2013/11/27
 27 28  0  0  0  0  0  0  0  0999 V2000
  -12.5938   37.6745   -1.8782 C   0  0  0  0  0  0  0  0  0  0  0  0
   -4.7213   41.0723   -2.1586 C   0  0  0  0  0  0  0  0  0  0  0  0
   -4.5985   43.7065   -3.5802 C   0  0  0  0  0  0  0  0  0  0  0  0
   -3.6536   43.4593   -4.7577 C   0  0  0  0  0  0  0  0  0  0  0  0
   -2.5320   44.3443   -4.7009 O   0  0  0  0  0  0  0  0  0  0  0  0
   -1.3983   44.2787   -5.8368 P   0  0  1  0  0  0  0  0  0  0  0  0
   -0.3547   46.8945   -5.6804 P   0  0  2  0  0  0  0  0  0  0  0  0
   -8.0371   42.4177   -4.5631 C   0  0  0  0  0  0  0  0  0  0  0  0
  -10.4630   38.5918   -0.9806 N   0  0  0  0  0  0  0  0  0  0  0  0
   -0.7903   42.8014   -5.9608 O   0  5  0  0  0  0  0  0  0  0  0  0
    0.7838   47.6879   -5.1735 O   0  0  0  0  0  0  0  0  0  0  0  0
   -8.1152   41.1936   -3.9122 C   0  0  0  0  0  0  0  0  0  0  0  0
  -11.1470   38.1407   -2.0435 C   0  0  0  0  0  0  0  0  0  0  0  0
   -1.9496   44.6797   -7.3027 O   0  0  0  0  0  0  0  0  0  0  0  0
   -1.7274   47.3045   -4.9570 O   0  5  0  0  0  0  0  0  0  0  0  0
   -7.0436   40.7594   -3.1307 N   0  0  0  0  0  0  0  0  0  0  0  0
  -10.5725   38.0944   -3.2542 N   0  0  0  0  0  0  0  0  0  0  0  0
   -0.1941   45.3148   -5.4863 O   0  0  0  0  0  0  0  0  0  0  0  0
   -0.5960   47.1707   -7.2326 O   0  0  0  0  0  0  0  0  0  0  0  0
   -5.8983   41.5565   -3.0166 C   0  0  1  0  0  0  0  0  0  0  0  0
   -9.3069   38.4985   -3.4187 C   0  0  0  0  0  0  0  0  0  0  0  0
   -8.7488   38.4496   -4.6240 N   0  0  0  0  0  0  0  0  0  0  0  0
   -5.8210   42.7854   -3.6700 C   0  0  1  0  0  0  0  0  0  0  0  0
   -8.5780   38.9719   -2.3345 C   0  0  0  0  0  0  0  0  0  0  0  0
   -6.8980   43.2042   -4.4417 C   0  0  0  0  0  0  0  0  0  0  0  0
   -9.2108   39.0012   -1.0970 C   0  0  0  0  0  0  0  0  0  0  0  0
   -7.1245   39.4521   -2.4376 C   0  0  0  0  0  0  0  0  0  0  0  0
  1 13  1  0  0  0  0
  3  4  1  0  0  0  0
  4  5  1  0  0  0  0
  6  5  1  1  0  0  0
  6 10  1  0  0  0  0
  6 14  2  0  0  0  0
  6 18  1  0  0  0  0
  7 11  1  1  0  0  0
  7 15  1  0  0  0  0
  7 19  2  0  0  0  0
  7 18  1  0  0  0  0
  8 25  1  0  0  0  0
  8 12  1  0  0  0  0
  9 26  2  0  0  0  0
  9 13  1  0  0  0  0
 12 16  1  0  0  0  0
 13 17  2  0  0  0  0
 16 20  1  0  0  0  0
 16 27  1  0  0  0  0
 17 21  1  0  0  0  0
 20  2  1  1  0  0  0
 20 23  1  0  0  0  0
 21 22  1  0  0  0  0
 21 24  2  0  0  0  0
 23  3  1  1  0  0  0
 23 25  1  0  0  0  0
 24 27  1  0  0  0  0
 24 26  1  0  0  0  0
M  CHG  2  10  -1  15  -1
M  END
>  <CHROM.1>
178.22900853,-179.81679141,-55.60443381,-74.92772579,173.63102101,94.47443095
72.53008213,-18.31240451,-4.96117681,42.58570875,-4.22161889,2.66276457,-0.55784972
-2.78004760

>  <Name>
ligand

>  <RI>
0

>  <Rbt.Current_Directory>
/home/itssahil/PROJECTS/Mol_Feturizer/New_Systems/rnas/3D2V

>  <Rbt.Executable>
rbdock ($Id: //depot/dev/client3/rdock/2013.1/src/exe/rbdock.cxx#4 $)

>  <Rbt.Library>
libRbt.so (2013.1, Build901 2013/11/27)

>  <Rbt.Parameter_File>
/export/apps/rDock/src/rDock_2013.1_src/data/scripts/dock_solv.prm

>  <Rbt.Receptor>
prm/pocket_docking_8.prm

>  <SCORE>
-20.251

>  <SCORE.INTER>
-20.5506

>  <SCORE.INTER.CONST>
1

>  <SCORE.INTER.POLAR>
0

>  <SCORE.INTER.ROT>
8

>  <SCORE.INTER.SOLV>
14.851

>  <SCORE.INTER.VDW>
-27.5841

>  <SCORE.INTER.norm>
-0.761133

>  <SCORE.INTRA>
0.283938

>  <SCORE.INTRA.DIHEDRAL>
-2.21468

>  <SCORE.INTRA.DIHEDRAL.0>
7.82666

>  <SCORE.INTRA.POLAR>
0

>  <SCORE.INTRA.POLAR.0>
0

>  <SCORE.INTRA.REPUL>
0

>  <SCORE.INTRA.REPUL.0>
0

>  <SCORE.INTRA.SOLV>
1.87455

>  <SCORE.INTRA.SOLV.lig_0>
-83.2758

>  <SCORE.INTRA.VDW>
0.454004

>  <SCORE.INTRA.VDW.0>
-3.26816

>  <SCORE.INTRA.norm>
0.0105162

>  <SCORE.RESTR>
0.0156632

>  <SCORE.RESTR.CAVITY>
0.0156632

>  <SCORE.RESTR.norm>
0.000580119

>  <SCORE.SYSTEM>
0

>  <SCORE.SYSTEM.CONST>
0

>  <SCORE.SYSTEM.DIHEDRAL>
0

>  <SCORE.SYSTEM.SOLV>
0

>  <SCORE.SYSTEM.norm>
0

>  <SCORE.heavy>
27

>  <SCORE.norm>
-0.750036

>  <RMSD>
3.748

$$$$
ligand
 OpenBabel11021811473D
libRbt.so/2013.1/901 2013/11/27
 27 28  0  0  0  0  0  0  0  0999 V2000
   -9.3906   38.9957   -0.6608 C   0  0  0  0  0  0  0  0  0  0  0  0
   -4.1460   40.4744   -7.3938 C   0  0  0  0  0  0  0  0  0  0  0  0
   -2.2501   42.7378   -6.8858 C   0  0  0  0  0  0  0  0  0  0  0  0
   -2.9846   43.4353   -8.0324 C   0  0  0  0  0  0  0  0  0  0  0  0
   -2.9909   42.6142   -9.2029 O   0  0  0  0  0  0  0  0  0  0  0  0
   -3.8984   43.0203  -10.4645 P   0  0  1  0  0  0  0  0  0  0  0  0
   -6.6011   43.7779  -10.7433 P   0  0  2  0  0  0  0  0  0  0  0  0
   -4.1316   42.5051   -3.5908 C   0  0  0  0  0  0  0  0  0  0  0  0
   -7.1639   39.1480   -1.7591 N   0  0  0  0  0  0  0  0  0  0  0  0
   -3.6365   44.5402  -10.8985 O   0  5  0  0  0  0  0  0  0  0  0  0
   -7.9800   43.2782  -10.5653 O   0  0  0  0  0  0  0  0  0  0  0  0
   -5.0182   41.4581   -3.8049 C   0  0  0  0  0  0  0  0  0  0  0  0
   -8.4992   39.1786   -1.8896 C   0  0  0  0  0  0  0  0  0  0  0  0
   -3.6116   42.1080  -11.7680 O   0  0  0  0  0  0  0  0  0  0  0  0
   -6.2283   43.9393  -12.2959 O   0  5  0  0  0  0  0  0  0  0  0  0
   -5.0206   40.7980   -5.0345 N   0  0  0  0  0  0  0  0  0  0  0  0
   -9.0625   39.3686   -3.0915 N   0  0  0  0  0  0  0  0  0  0  0  0
   -5.4740   42.8416  -10.1013 O   0  0  0  0  0  0  0  0  0  0  0  0
   -6.4372   45.2348  -10.1154 O   0  0  0  0  0  0  0  0  0  0  0  0
   -4.1364   41.2018   -6.0421 C   0  0  1  0  0  0  0  0  0  0  0  0
   -8.2986   39.5310   -4.1789 C   0  0  0  0  0  0  0  0  0  0  0  0
   -8.8684   39.7205   -5.3646 N   0  0  0  0  0  0  0  0  0  0  0  0
   -3.2464   42.2526   -5.8261 C   0  0  2  0  0  0  0  0  0  0  0  0
   -6.9136   39.5057   -4.0699 C   0  0  0  0  0  0  0  0  0  0  0  0
   -3.2550   42.8972   -4.5952 C   0  0  0  0  0  0  0  0  0  0  0  0
   -6.3710   39.3041   -2.8060 C   0  0  0  0  0  0  0  0  0  0  0  0
   -5.9681   39.6822   -5.2652 C   0  0  0  0  0  0  0  0  0  0  0  0
  1 13  1  0  0  0  0
  3  4  1  0  0  0  0
  4  5  1  0  0  0  0
  6  5  1  1  0  0  0
  6 10  1  0  0  0  0
  6 14  2  0  0  0  0
  6 18  1  0  0  0  0
  7 11  1  1  0  0  0
  7 15  1  0  0  0  0
  7 19  2  0  0  0  0
  7 18  1  0  0  0  0
  8 25  1  0  0  0  0
  8 12  1  0  0  0  0
  9 26  2  0  0  0  0
  9 13  1  0  0  0  0
 12 16  1  0  0  0  0
 13 17  2  0  0  0  0
 16 20  1  0  0  0  0
 16 27  1  0  0  0  0
 17 21  1  0  0  0  0
 20  2  1  1  0  0  0
 20 23  1  0  0  0  0
 21 22  1  0  0  0  0
 21 24  2  0  0  0  0
 23  3  1  6  0  0  0
 23 25  1  0  0  0  0
 24 27  1  0  0  0  0
 24 26  1  0  0  0  0
M  CHG  2  10  -1  15  -1
M  END
>  <CHROM.1>
-107.07791731,170.23334286,51.39872454,148.46076610,165.95105114,69.83966344
124.20639438,4.53246300,-5.57845477,41.84829494,-7.10805124,1.86345346,0.19274415
1.97697498

>  <Name>
ligand

>  <RI>
0

>  <Rbt.Current_Directory>
/home/itssahil/PROJECTS/Mol_Feturizer/New_Systems/rnas/3D2V

>  <Rbt.Executable>
rbdock ($Id: //depot/dev/client3/rdock/2013.1/src/exe/rbdock.cxx#4 $)

>  <Rbt.Library>
libRbt.so (2013.1, Build901 2013/11/27)

>  <Rbt.Parameter_File>
/export/apps/rDock/src/rDock_2013.1_src/data/scripts/dock_solv.prm

>  <Rbt.Receptor>
prm/pocket_docking_4.prm

>  <SCORE>
-8.94851

>  <SCORE.INTER>
-13.4163

>  <SCORE.INTER.CONST>
1

>  <SCORE.INTER.POLAR>
0

>  <SCORE.INTER.ROT>
8

>  <SCORE.INTER.SOLV>
14.1947

>  <SCORE.INTER.VDW>
-22.6091

>  <SCORE.INTER.norm>
-0.496898

>  <SCORE.INTRA>
4.45695

>  <SCORE.INTRA.DIHEDRAL>
4.42841

>  <SCORE.INTRA.DIHEDRAL.0>
7.82666

>  <SCORE.INTRA.POLAR>
0

>  <SCORE.INTRA.POLAR.0>
0

>  <SCORE.INTRA.REPUL>
0

>  <SCORE.INTRA.REPUL.0>
0

>  <SCORE.INTRA.SOLV>
1.59218

>  <SCORE.INTRA.SOLV.lig_0>
-83.2758

>  <SCORE.INTRA.VDW>
1.44666

>  <SCORE.INTRA.VDW.0>
-3.26816

>  <SCORE.INTRA.norm>
0.165072

>  <SCORE.RESTR>
0.010791

>  <SCORE.RESTR.CAVITY>
0.010791

>  <SCORE.RESTR.norm>
0.000399667

>  <SCORE.SYSTEM>
0

>  <SCORE.SYSTEM.CONST>
0

>  <SCORE.SYSTEM.DIHEDRAL>
0

>  <SCORE.SYSTEM.SOLV>
0

>  <SCORE.SYSTEM.norm>
0

>  <SCORE.heavy>
27

>  <SCORE.norm>
-0.331426

>  <RMSD>
3.750

$$$$
ligand
 OpenBabel11021811473D
libRbt.so/2013.1/901 2013/11/27
 27 28  0  0  0  0  0  0  0  0999 V2000
  -11.5508   37.9440   -1.8403 C   0  0  0  0  0  0  0  0  0  0  0  0
   -4.7184   40.6015   -3.4514 C   0  0  0  0  0  0  0  0  0  0  0  0
   -4.5731   43.4549   -4.3529 C   0  0  0  0  0  0  0  0  0  0  0  0
   -5.4127   43.1796   -5.6019 C   0  0  0  0  0  0  0  0  0  0  0  0
   -4.6820   43.5099   -6.7856 O   0  0  0  0  0  0  0  0  0  0  0  0
   -3.4138   42.6251   -7.2203 P   0  0  1  0  0  0  0  0  0  0  0  0
   -4.9944   40.5456   -8.2852 P   0  0  2  0  0  0  0  0  0  0  0  0
   -6.6780   43.7107   -1.1977 C   0  0  0  0  0  0  0  0  0  0  0  0
   -9.4115   38.9260   -2.6441 N   0  0  0  0  0  0  0  0  0  0  0  0
   -2.8438   43.0932   -8.6427 O   0  5  0  0  0  0  0  0  0  0  0  0
   -6.2728   41.2710   -8.1363 O   0  0  0  0  0  0  0  0  0  0  0  0
   -6.7575   42.3948   -0.7617 C   0  0  0  0  0  0  0  0  0  0  0  0
  -10.1383   38.4810   -1.6074 C   0  0  0  0  0  0  0  0  0  0  0  0
   -2.1869   42.7228   -6.1721 O   0  0  0  0  0  0  0  0  0  0  0  0
   -5.1705   38.9761   -8.0001 O   0  5  0  0  0  0  0  0  0  0  0  0
   -6.1202   41.3885   -1.4889 N   0  0  0  0  0  0  0  0  0  0  0  0
   -9.6367   38.5023   -0.3641 N   0  0  0  0  0  0  0  0  0  0  0  0
   -3.8314   41.0555   -7.3123 O   0  0  0  0  0  0  0  0  0  0  0  0
   -4.4533   40.6453   -9.7822 O   0  0  0  0  0  0  0  0  0  0  0  0
   -5.4144   41.7129   -2.6537 C   0  0  1  0  0  0  0  0  0  0  0  0
   -8.4018   38.9685   -0.1404 C   0  0  0  0  0  0  0  0  0  0  0  0
   -7.9147   38.9829    1.0961 N   0  0  0  0  0  0  0  0  0  0  0  0
   -5.3347   43.0343   -3.0903 C   0  0  2  0  0  0  0  0  0  0  0  0
   -7.6282   39.4328   -1.1972 C   0  0  0  0  0  0  0  0  0  0  0  0
   -5.9726   44.0244   -2.3531 C   0  0  0  0  0  0  0  0  0  0  0  0
   -8.1872   39.3949   -2.4694 C   0  0  0  0  0  0  0  0  0  0  0  0
   -6.2064   39.9834   -1.0261 C   0  0  0  0  0  0  0  0  0  0  0  0
  1 13  1  0  0  0  0
  3  4  1  0  0  0  0
  4  5  1  0  0  0  0
  6  5  1  1  0  0  0
  6 10  1  0  0  0  0
  6 14  2  0  0  0  0
  6 18  1  0  0  0  0
  7 11  1  1  0  0  0
  7 15  1  0  0  0  0
  7 19  2  0  0  0  0
  7 18  1  0  0  0  0
  8 25  1  0  0  0  0
  8 12  1  0  0  0  0
  9 26  2  0  0  0  0
  9 13  1  0  0  0  0
 12 16  1  0  0  0  0
 13 17  2  0  0  0  0
 16 20  1  0  0  0  0
 16 27  1  0  0  0  0
 17 21  1  0  0  0  0
 20  2  1  1  0  0  0
 20 23  1  0  0  0  0
 21 22  1  0  0  0  0
 21 24  2  0  0  0  0
 23  3  1  6  0  0  0
 23 25  1  0  0  0  0
 24 27  1  0  0  0  0
 24 26  1  0  0  0  0
M  CHG  2  10  -1  15  -1
M  END
>  <CHROM.1>
-177.20418889,68.99928693,174.54626566,58.56537920,-52.16021597,79.89774939
-119.94532259,69.49939870,-5.95154120,41.10355542,-4.44782461,2.45577739
0.81190215,1.18541472

>  <Name>
ligand

>  <RI>
0

>  <Rbt.Current_Directory>
/home/itssahil/PROJECTS/Mol_Feturizer/New_Systems/rnas/3D2V

>  <Rbt.Executable>
rbdock ($Id: //depot/dev/client3/rdock/2013.1/src/exe/rbdock.cxx#4 $)

>  <Rbt.Library>
libRbt.so (2013.1, Build901 2013/11/27)

>  <Rbt.Parameter_File>
/export/apps/rDock/src/rDock_2013.1_src/data/scripts/dock_solv.prm

>  <Rbt.Receptor>
prm/pocket_docking_6.prm

>  <SCORE>
-17.577

>  <SCORE.INTER>
-15.4697

>  <SCORE.INTER.CONST>
1

>  <SCORE.INTER.POLAR>
0

>  <SCORE.INTER.ROT>
8

>  <SCORE.INTER.SOLV>
28.2678

>  <SCORE.INTER.VDW>
-28.6691

>  <SCORE.INTER.norm>
-0.572952

>  <SCORE.INTRA>
-2.10733

>  <SCORE.INTRA.DIHEDRAL>
-2.0755

>  <SCORE.INTRA.DIHEDRAL.0>
7.82666

>  <SCORE.INTRA.POLAR>
0

>  <SCORE.INTRA.POLAR.0>
0

>  <SCORE.INTRA.REPUL>
0

>  <SCORE.INTRA.REPUL.0>
0

>  <SCORE.INTRA.SOLV>
-0.728988

>  <SCORE.INTRA.SOLV.lig_0>
-83.2758

>  <SCORE.INTRA.VDW>
-0.705085

>  <SCORE.INTRA.VDW.0>
-3.26816

>  <SCORE.INTRA.norm>
-0.0780493

>  <SCORE.RESTR>
0

>  <SCORE.RESTR.CAVITY>
0

>  <SCORE.RESTR.norm>
0

>  <SCORE.SYSTEM>
0

>  <SCORE.SYSTEM.CONST>
0

>  <SCORE.SYSTEM.DIHEDRAL>
0

>  <SCORE.SYSTEM.SOLV>
0

>  <SCORE.SYSTEM.norm>
0

>  <SCORE.heavy>
27

>  <SCORE.norm>
-0.651001

>  <RMSD>
3.754

$$$$
ligand
 OpenBabel11021811473D
libRbt.so/2013.1/901 2013/11/27
 27 28  0  0  0  0  0  0  0  0999 V2000
   -6.0812   40.2487    0.0688 C   0  0  0  0  0  0  0  0  0  0  0  0
   -7.8166   36.6432   -5.6017 C   0  0  0  0  0  0  0  0  0  0  0  0
   -7.0169   37.7097   -8.2847 C   0  0  0  0  0  0  0  0  0  0  0  0
   -5.7883   38.5699   -8.5868 C   0  0  0  0  0  0  0  0  0  0  0  0
   -6.1700   39.7901   -9.2268 O   0  0  0  0  0  0  0  0  0  0  0  0
   -5.0477   40.8504   -9.6700 P   0  0  1  0  0  0  0  0  0  0  0  0
   -6.6888   43.1222   -9.3507 P   0  0  2  0  0  0  0  0  0  0  0  0
   -9.3765   40.4059   -7.0141 C   0  0  0  0  0  0  0  0  0  0  0  0
   -6.6149   39.5188   -2.2484 N   0  0  0  0  0  0  0  0  0  0  0  0
   -4.1117   41.2510   -8.4328 O   0  5  0  0  0  0  0  0  0  0  0  0
   -7.8139   43.7428  -10.0798 O   0  0  0  0  0  0  0  0  0  0  0  0
   -9.7598   39.9303   -5.7671 C   0  0  0  0  0  0  0  0  0  0  0  0
   -7.0417   39.7064   -0.9900 C   0  0  0  0  0  0  0  0  0  0  0  0
   -4.0714   40.2884  -10.8295 O   0  0  0  0  0  0  0  0  0  0  0  0
   -5.7341   44.2288   -8.6875 O   0  5  0  0  0  0  0  0  0  0  0  0
   -9.2521   38.7141   -5.3079 N   0  0  0  0  0  0  0  0  0  0  0  0
   -8.3072   39.4221   -0.6499 N   0  0  0  0  0  0  0  0  0  0  0  0
   -5.7492   42.1962  -10.2556 O   0  0  0  0  0  0  0  0  0  0  0  0
   -7.2171   42.2359   -8.1345 O   0  0  0  0  0  0  0  0  0  0  0  0
   -8.3689   37.9819   -6.1104 C   0  0  1  0  0  0  0  0  0  0  0  0
   -9.1630   38.9467   -1.5632 C   0  0  0  0  0  0  0  0  0  0  0  0
  -10.4154   38.6704   -1.2146 N   0  0  0  0  0  0  0  0  0  0  0  0
   -7.9844   38.4604   -7.3619 C   0  0  1  0  0  0  0  0  0  0  0  0
   -8.7461   38.7458   -2.8734 C   0  0  0  0  0  0  0  0  0  0  0  0
   -8.4968   39.6744   -7.8028 C   0  0  0  0  0  0  0  0  0  0  0  0
   -7.4258   39.0514   -3.1828 C   0  0  0  0  0  0  0  0  0  0  0  0
   -9.6623   38.2041   -3.9784 C   0  0  0  0  0  0  0  0  0  0  0  0
  1 13  1  0  0  0  0
  3  4  1  0  0  0  0
  4  5  1  0  0  0  0
  6  5  1  1  0  0  0
  6 10  1  0  0  0  0
  6 14  2  0  0  0  0
  6 18  1  0  0  0  0
  7 11  1  6  0  0  0
  7 15  1  0  0  0  0
  7 19  2  0  0  0  0
  7 18  1  0  0  0  0
  8 25  1  0  0  0  0
  8 12  1  0  0  0  0
  9 26  2  0  0  0  0
  9 13  1  0  0  0  0
 12 16  1  0  0  0  0
 13 17  2  0  0  0  0
 16 20  1  0  0  0  0
 16 27  1  0  0  0  0
 17 21  1  0  0  0  0
 20  2  1  1  0  0  0
 20 23  1  0  0  0  0
 21 22  1  0  0  0  0
 21 24  2  0  0  0  0
 23  3  1  1  0  0  0
 23 25  1  0  0  0  0
 24 27  1  0  0  0  0
 24 26  1  0  0  0  0
M  CHG  2  10  -1  15  -1
M  END
>  <CHROM.1>
-59.78910926,-178.83058554,-54.55853708,62.64558081,-145.30597051,-120.69660827
151.01941126,-87.80094461,-7.17459444,40.19979253,-6.48314334,-2.46365930
-1.17580437,-2.06600211

>  <Name>
ligand

>  <RI>
0

>  <Rbt.Current_Directory>
/home/itssahil/PROJECTS/Mol_Feturizer/New_Systems/rnas/3D2V

>  <Rbt.Executable>
rbdock ($Id: //depot/dev/client3/rdock/2013.1/src/exe/rbdock.cxx#4 $)

>  <Rbt.Library>
libRbt.so (2013.1, Build901 2013/11/27)

>  <Rbt.Parameter_File>
/export/apps/rDock/src/rDock_2013.1_src/data/scripts/dock_solv.prm

>  <Rbt.Receptor>
prm/pocket_docking_6.prm

>  <SCORE>
-19.1877

>  <SCORE.INTER>
-18.6866

>  <SCORE.INTER.CONST>
1

>  <SCORE.INTER.POLAR>
0

>  <SCORE.INTER.ROT>
8

>  <SCORE.INTER.SOLV>
26.419

>  <SCORE.INTER.VDW>
-30.1974

>  <SCORE.INTER.norm>
-0.692096

>  <SCORE.INTRA>
-0.501081

>  <SCORE.INTRA.DIHEDRAL>
-1.09771

>  <SCORE.INTRA.DIHEDRAL.0>
7.82666

>  <SCORE.INTRA.POLAR>
0

>  <SCORE.INTRA.POLAR.0>
0

>  <SCORE.INTRA.REPUL>
0

>  <SCORE.INTRA.REPUL.0>
0

>  <SCORE.INTRA.SOLV>
0.876667

>  <SCORE.INTRA.SOLV.lig_0>
-83.2758

>  <SCORE.INTRA.VDW>
-0.390561

>  <SCORE.INTRA.VDW.0>
-3.26816

>  <SCORE.INTRA.norm>
-0.0185586

>  <SCORE.RESTR>
0

>  <SCORE.RESTR.CAVITY>
0

>  <SCORE.RESTR.norm>
0

>  <SCORE.SYSTEM>
0

>  <SCORE.SYSTEM.CONST>
0

>  <SCORE.SYSTEM.DIHEDRAL>
0

>  <SCORE.SYSTEM.SOLV>
0

>  <SCORE.SYSTEM.norm>
0

>  <SCORE.heavy>
27

>  <SCORE.norm>
-0.710654

>  <RMSD>
3.766

$$$$
ligand
 OpenBabel11021811473D
libRbt.so/2013.1/901 2013/11/27
 27 28  0  0  0  0  0  0  0  0999 V2000
   -8.6785   39.4720   -0.4303 C   0  0  0  0  0  0  0  0  0  0  0  0
   -8.6777   40.5579   -6.3441 C   0  0  0  0  0  0  0  0  0  0  0  0
   -6.6719   42.1671   -7.8811 C   0  0  0  0  0  0  0  0  0  0  0  0
   -5.7181   42.9985   -7.0211 C   0  0  0  0  0  0  0  0  0  0  0  0
   -5.9165   42.7209   -5.6326 O   0  0  0  0  0  0  0  0  0  0  0  0
   -5.0461   43.4943   -4.5261 P   0  0  1  0  0  0  0  0  0  0  0  0
   -2.3136   44.1462   -4.2719 P   0  0  2  0  0  0  0  0  0  0  0  0
   -5.0972   38.7071   -7.8739 C   0  0  0  0  0  0  0  0  0  0  0  0
   -9.6013   38.6387   -2.5846 N   0  0  0  0  0  0  0  0  0  0  0  0
   -5.2236   45.0812   -4.6578 O   0  5  0  0  0  0  0  0  0  0  0  0
   -0.9727   43.5350   -4.1674 O   0  0  0  0  0  0  0  0  0  0  0  0
   -6.0140   37.9426   -7.1646 C   0  0  0  0  0  0  0  0  0  0  0  0
   -8.5221   39.0131   -1.8804 C   0  0  0  0  0  0  0  0  0  0  0  0
   -5.4585   43.1037   -3.0125 O   0  0  0  0  0  0  0  0  0  0  0  0
   -2.7723   44.8024   -2.8809 O   0  5  0  0  0  0  0  0  0  0  0  0
   -7.1751   38.5405   -6.6725 N   0  0  0  0  0  0  0  0  0  0  0  0
   -7.3025   38.9891   -2.4373 N   0  0  0  0  0  0  0  0  0  0  0  0
   -3.4706   43.1259   -4.6954 O   0  0  0  0  0  0  0  0  0  0  0  0
   -2.3136   45.3442   -5.3248 O   0  0  0  0  0  0  0  0  0  0  0  0
   -7.4008   39.9049   -6.8908 C   0  0  1  0  0  0  0  0  0  0  0  0
   -7.1455   38.5901   -3.7056 C   0  0  0  0  0  0  0  0  0  0  0  0
   -5.9316   38.5687   -4.2462 N   0  0  0  0  0  0  0  0  0  0  0  0
   -6.4800   40.6714   -7.6033 C   0  0  1  0  0  0  0  0  0  0  0  0
   -8.2468   38.1952   -4.4553 C   0  0  0  0  0  0  0  0  0  0  0  0
   -5.3307   40.0599   -8.0890 C   0  0  0  0  0  0  0  0  0  0  0  0
   -9.4928   38.2374   -3.8402 C   0  0  0  0  0  0  0  0  0  0  0  0
   -8.1531   37.7264   -5.9132 C   0  0  0  0  0  0  0  0  0  0  0  0
  1 13  1  0  0  0  0
  3  4  1  0  0  0  0
  4  5  1  0  0  0  0
  6  5  1  6  0  0  0
  6 10  1  0  0  0  0
  6 14  2  0  0  0  0
  6 18  1  0  0  0  0
  7 11  1  1  0  0  0
  7 15  1  0  0  0  0
  7 19  2  0  0  0  0
  7 18  1  0  0  0  0
  8 25  1  0  0  0  0
  8 12  1  0  0  0  0
  9 26  2  0  0  0  0
  9 13  1  0  0  0  0
 12 16  1  0  0  0  0
 13 17  2  0  0  0  0
 16 20  1  0  0  0  0
 16 27  1  0  0  0  0
 17 21  1  0  0  0  0
 20  2  1  6  0  0  0
 20 23  1  0  0  0  0
 21 22  1  0  0  0  0
 21 24  2  0  0  0  0
 23  3  1  6  0  0  0
 23 25  1  0  0  0  0
 24 27  1  0  0  0  0
 24 26  1  0  0  0  0
M  CHG  2  10  -1  15  -1
M  END
>  <CHROM.1>
-57.40840039,-178.91410350,57.25362177,151.35426323,165.15256352,107.19510123
-39.51042763,114.71606079,-5.80394348,41.32398765,-4.86114395,2.96634823
-0.82831681,-1.81531192

>  <Name>
ligand

>  <RI>
0

>  <Rbt.Current_Directory>
/home/itssahil/PROJECTS/Mol_Feturizer/New_Systems/rnas/3D2V

>  <Rbt.Executable>
rbdock ($Id: //depot/dev/client3/rdock/2013.1/src/exe/rbdock.cxx#4 $)

>  <Rbt.Library>
libRbt.so (2013.1, Build901 2013/11/27)

>  <Rbt.Parameter_File>
/export/apps/rDock/src/rDock_2013.1_src/data/scripts/dock_solv.prm

>  <Rbt.Receptor>
prm/pocket_docking_6.prm

>  <SCORE>
-12.1209

>  <SCORE.INTER>
-13.1768

>  <SCORE.INTER.CONST>
1

>  <SCORE.INTER.POLAR>
0

>  <SCORE.INTER.ROT>
8

>  <SCORE.INTER.SOLV>
11.3252

>  <SCORE.INTER.VDW>
-21.4929

>  <SCORE.INTER.norm>
-0.48803

>  <SCORE.INTRA>
1.05595

>  <SCORE.INTRA.DIHEDRAL>
-1.16742

>  <SCORE.INTRA.DIHEDRAL.0>
7.82666

>  <SCORE.INTRA.POLAR>
0

>  <SCORE.INTRA.POLAR.0>
0

>  <SCORE.INTRA.REPUL>
0

>  <SCORE.INTRA.REPUL.0>
0

>  <SCORE.INTRA.SOLV>
4.54704

>  <SCORE.INTRA.SOLV.lig_0>
-83.2758

>  <SCORE.INTRA.VDW>
-0.633866

>  <SCORE.INTRA.VDW.0>
-3.26816

>  <SCORE.INTRA.norm>
0.0391091

>  <SCORE.RESTR>
0

>  <SCORE.RESTR.CAVITY>
0

>  <SCORE.RESTR.norm>
0

>  <SCORE.SYSTEM>
0

>  <SCORE.SYSTEM.CONST>
0

>  <SCORE.SYSTEM.DIHEDRAL>
0

>  <SCORE.SYSTEM.SOLV>
0

>  <SCORE.SYSTEM.norm>
0

>  <SCORE.heavy>
27

>  <SCORE.norm>
-0.448921

>  <RMSD>
3.789

$$$$
ligand
 OpenBabel11021811473D
libRbt.so/2013.1/901 2013/11/27
 27 28  0  0  0  0  0  0  0  0999 V2000
   -4.7246   40.7798    0.5887 C   0  0  0  0  0  0  0  0  0  0  0  0
   -8.2450   40.4750   -6.3583 C   0  0  0  0  0  0  0  0  0  0  0  0
   -6.6824   39.2925   -8.6244 C   0  0  0  0  0  0  0  0  0  0  0  0
   -5.7772   40.5256   -8.6528 C   0  0  0  0  0  0  0  0  0  0  0  0
   -5.4399   40.8747   -9.9977 O   0  0  0  0  0  0  0  0  0  0  0  0
   -4.4948   42.1410  -10.2862 P   0  0  1  0  0  0  0  0  0  0  0  0
   -6.5496   44.0214  -10.7318 P   0  0  2  0  0  0  0  0  0  0  0  0
   -5.9161   36.8939   -5.7764 C   0  0  0  0  0  0  0  0  0  0  0  0
   -6.7416   39.6571   -0.3378 N   0  0  0  0  0  0  0  0  0  0  0  0
   -3.1430   42.0593   -9.4300 O   0  5  0  0  0  0  0  0  0  0  0  0
   -7.7476   43.1713  -10.5753 O   0  0  0  0  0  0  0  0  0  0  0  0
   -6.6335   37.4248   -4.7126 C   0  0  0  0  0  0  0  0  0  0  0  0
   -5.6214   40.3570   -0.5752 C   0  0  0  0  0  0  0  0  0  0  0  0
   -4.0567   42.2610  -11.8377 O   0  0  0  0  0  0  0  0  0  0  0  0
   -6.0913   44.1175  -12.2669 O   0  5  0  0  0  0  0  0  0  0  0  0
   -7.3906   38.5819   -4.9015 N   0  0  0  0  0  0  0  0  0  0  0  0
   -5.2789   40.6911   -1.8278 N   0  0  0  0  0  0  0  0  0  0  0  0
   -5.2736   43.5184   -9.9084 O   0  0  0  0  0  0  0  0  0  0  0  0
   -6.8536   45.5225  -10.2867 O   0  0  0  0  0  0  0  0  0  0  0  0
   -7.4135   39.2005   -6.1573 C   0  0  1  0  0  0  0  0  0  0  0  0
   -6.0513   40.3297   -2.8599 C   0  0  0  0  0  0  0  0  0  0  0  0
   -5.7005   40.6649   -4.0972 N   0  0  0  0  0  0  0  0  0  0  0  0
   -6.6934   38.6665   -7.2247 C   0  0  1  0  0  0  0  0  0  0  0  0
   -7.2150   39.6025   -2.6407 C   0  0  0  0  0  0  0  0  0  0  0  0
   -5.9472   37.5123   -7.0204 C   0  0  0  0  0  0  0  0  0  0  0  0
   -7.5340   39.2790   -1.3269 C   0  0  0  0  0  0  0  0  0  0  0  0
   -8.1545   39.1511   -3.7665 C   0  0  0  0  0  0  0  0  0  0  0  0
  1 13  1  0  0  0  0
  3  4  1  0  0  0  0
  4  5  1  0  0  0  0
  6  5  1  1  0  0  0
  6 10  1  0  0  0  0
  6 14  2  0  0  0  0
  6 18  1  0  0  0  0
  7 11  1  1  0  0  0
  7 15  1  0  0  0  0
  7 19  2  0  0  0  0
  7 18  1  0  0  0  0
  8 25  1  0  0  0  0
  8 12  1  0  0  0  0
  9 26  2  0  0  0  0
  9 13  1  0  0  0  0
 12 16  1  0  0  0  0
 13 17  2  0  0  0  0
 16 20  1  0  0  0  0
 16 27  1  0  0  0  0
 17 21  1  0  0  0  0
 20  2  1  6  0  0  0
 20 23  1  0  0  0  0
 21 22  1  0  0  0  0
 21 24  2  0  0  0  0
 23  3  1  6  0  0  0
 23 25  1  0  0  0  0
 24 27  1  0  0  0  0
 24 26  1  0  0  0  0
M  CHG  2  10  -1  15  -1
M  END
>  <CHROM.1>
162.62444966,179.99584361,52.09202696,-67.04930346,67.84433912,76.71454820
45.10804171,63.24207273,-6.10548287,40.98746125,-6.91842140,-2.08603554,-1.40957730
-1.68334623

>  <Name>
ligand

>  <RI>
0

>  <Rbt.Current_Directory>
/home/itssahil/PROJECTS/Mol_Feturizer/New_Systems/rnas/3D2V

>  <Rbt.Executable>
rbdock ($Id: //depot/dev/client3/rdock/2013.1/src/exe/rbdock.cxx#4 $)

>  <Rbt.Library>
libRbt.so (2013.1, Build901 2013/11/27)

>  <Rbt.Parameter_File>
/export/apps/rDock/src/rDock_2013.1_src/data/scripts/dock_solv.prm

>  <Rbt.Receptor>
prm/pocket_docking_6.prm

>  <SCORE>
-13.7182

>  <SCORE.INTER>
-13.5114

>  <SCORE.INTER.CONST>
1

>  <SCORE.INTER.POLAR>
0

>  <SCORE.INTER.ROT>
8

>  <SCORE.INTER.SOLV>
15.2437

>  <SCORE.INTER.VDW>
-23.0221

>  <SCORE.INTER.norm>
-0.500422

>  <SCORE.INTRA>
-0.206861

>  <SCORE.INTRA.DIHEDRAL>
-1.30901

>  <SCORE.INTRA.DIHEDRAL.0>
7.82666

>  <SCORE.INTRA.POLAR>
0

>  <SCORE.INTRA.POLAR.0>
0

>  <SCORE.INTRA.REPUL>
0

>  <SCORE.INTRA.REPUL.0>
0

>  <SCORE.INTRA.SOLV>
2.0576

>  <SCORE.INTRA.SOLV.lig_0>
-83.2758

>  <SCORE.INTRA.VDW>
-0.581155

>  <SCORE.INTRA.VDW.0>
-3.26816

>  <SCORE.INTRA.norm>
-0.00766151

>  <SCORE.RESTR>
0

>  <SCORE.RESTR.CAVITY>
0

>  <SCORE.RESTR.norm>
0

>  <SCORE.SYSTEM>
0

>  <SCORE.SYSTEM.CONST>
0

>  <SCORE.SYSTEM.DIHEDRAL>
0

>  <SCORE.SYSTEM.SOLV>
0

>  <SCORE.SYSTEM.norm>
0

>  <SCORE.heavy>
27

>  <SCORE.norm>
-0.508083

>  <RMSD>
3.856

$$$$
ligand
 OpenBabel11021811473D
libRbt.so/2013.1/901 2013/11/27
 27 28  0  0  0  0  0  0  0  0999 V2000
  -10.3513   38.2924   -3.4308 C   0  0  0  0  0  0  0  0  0  0  0  0
   -3.8010   41.1178   -7.4068 C   0  0  0  0  0  0  0  0  0  0  0  0
   -4.0666   41.0736  -10.3906 C   0  0  0  0  0  0  0  0  0  0  0  0
   -5.1130   41.9131  -11.1260 C   0  0  0  0  0  0  0  0  0  0  0  0
   -5.8458   42.7270  -10.2068 O   0  0  0  0  0  0  0  0  0  0  0  0
   -6.8976   43.8103  -10.7546 P   0  0  1  0  0  0  0  0  0  0  0  0
   -6.6419   45.2520   -8.3436 P   0  0  2  0  0  0  0  0  0  0  0  0
   -6.1518   38.0705   -9.3496 C   0  0  0  0  0  0  0  0  0  0  0  0
   -8.4336   37.5553   -4.8330 N   0  0  0  0  0  0  0  0  0  0  0  0
   -6.1931   44.8437  -11.7559 O   0  5  0  0  0  0  0  0  0  0  0  0
   -5.9275   44.2425   -7.5355 O   0  0  0  0  0  0  0  0  0  0  0  0
   -6.0426   38.0728   -7.9653 C   0  0  0  0  0  0  0  0  0  0  0  0
   -8.9782   38.5127   -4.0663 C   0  0  0  0  0  0  0  0  0  0  0  0
   -8.1275   43.1427  -11.5640 O   0  0  0  0  0  0  0  0  0  0  0  0
   -7.6174   46.1490   -7.4384 O   0  5  0  0  0  0  0  0  0  0  0  0
   -5.2848   39.0612   -7.3358 N   0  0  0  0  0  0  0  0  0  0  0  0
   -8.3281   39.6655   -3.8508 N   0  0  0  0  0  0  0  0  0  0  0  0
   -7.5448   44.6394   -9.5135 O   0  0  0  0  0  0  0  0  0  0  0  0
   -5.6183   46.2790   -9.0079 O   0  0  0  0  0  0  0  0  0  0  0  0
   -4.6361   40.0352   -8.1044 C   0  0  1  0  0  0  0  0  0  0  0  0
   -7.1248   39.8766   -4.3984 C   0  0  0  0  0  0  0  0  0  0  0  0
   -6.4893   41.0224   -4.1760 N   0  0  0  0  0  0  0  0  0  0  0  0
   -4.7468   40.0323   -9.4940 C   0  0  1  0  0  0  0  0  0  0  0  0
   -6.5384   38.9001   -5.1942 C   0  0  0  0  0  0  0  0  0  0  0  0
   -5.5075   39.0429  -10.1047 C   0  0  0  0  0  0  0  0  0  0  0  0
   -7.2472   37.7209   -5.3936 C   0  0  0  0  0  0  0  0  0  0  0  0
   -5.1652   39.0633   -5.8588 C   0  0  0  0  0  0  0  0  0  0  0  0
  1 13  1  0  0  0  0
  3  4  1  0  0  0  0
  4  5  1  0  0  0  0
  6  5  1  1  0  0  0
  6 10  1  0  0  0  0
  6 14  2  0  0  0  0
  6 18  1  0  0  0  0
  7 11  1  1  0  0  0
  7 15  1  0  0  0  0
  7 19  2  0  0  0  0
  7 18  1  0  0  0  0
  8 25  1  0  0  0  0
  8 12  1  0  0  0  0
  9 26  2  0  0  0  0
  9 13  1  0  0  0  0
 12 16  1  0  0  0  0
 13 17  2  0  0  0  0
 16 20  1  0  0  0  0
 16 27  1  0  0  0  0
 17 21  1  0  0  0  0
 20  2  1  1  0  0  0
 20 23  1  0  0  0  0
 21 22  1  0  0  0  0
 21 24  2  0  0  0  0
 23  3  1  1  0  0  0
 23 25  1  0  0  0  0
 24 27  1  0  0  0  0
 24 26  1  0  0  0  0
M  CHG  2  10  -1  15  -1
M  END
>  <CHROM.1>
67.11349669,173.65849834,-56.97424729,47.10059833,-63.87672491,-115.76294967
-115.86788438,-47.91646782,-6.50219734,41.60463025,-7.95479905,1.86050519
-1.04664188,2.68559331

>  <Name>
ligand

>  <RI>
0

>  <Rbt.Current_Directory>
/home/itssahil/PROJECTS/Mol_Feturizer/New_Systems/rnas/3D2V

>  <Rbt.Executable>
rbdock ($Id: //depot/dev/client3/rdock/2013.1/src/exe/rbdock.cxx#4 $)

>  <Rbt.Library>
libRbt.so (2013.1, Build901 2013/11/27)

>  <Rbt.Parameter_File>
/export/apps/rDock/src/rDock_2013.1_src/data/scripts/dock_solv.prm

>  <Rbt.Receptor>
prm/pocket_docking_8.prm

>  <SCORE>
-17.6566

>  <SCORE.INTER>
-15.6772

>  <SCORE.INTER.CONST>
1

>  <SCORE.INTER.POLAR>
0

>  <SCORE.INTER.ROT>
8

>  <SCORE.INTER.SOLV>
21.3809

>  <SCORE.INTER.VDW>
-26.5118

>  <SCORE.INTER.norm>
-0.580637

>  <SCORE.INTRA>
-1.97941

>  <SCORE.INTRA.DIHEDRAL>
-1.98522

>  <SCORE.INTRA.DIHEDRAL.0>
7.82666

>  <SCORE.INTRA.POLAR>
0

>  <SCORE.INTRA.POLAR.0>
0

>  <SCORE.INTRA.REPUL>
0

>  <SCORE.INTRA.REPUL.0>
0

>  <SCORE.INTRA.SOLV>
-1.58392

>  <SCORE.INTRA.SOLV.lig_0>
-83.2758

>  <SCORE.INTRA.VDW>
-0.194841

>  <SCORE.INTRA.VDW.0>
-3.26816

>  <SCORE.INTRA.norm>
-0.0733114

>  <SCORE.RESTR>
0

>  <SCORE.RESTR.CAVITY>
0

>  <SCORE.RESTR.norm>
0

>  <SCORE.SYSTEM>
0

>  <SCORE.SYSTEM.CONST>
0

>  <SCORE.SYSTEM.DIHEDRAL>
0

>  <SCORE.SYSTEM.SOLV>
0

>  <SCORE.SYSTEM.norm>
0

>  <SCORE.heavy>
27

>  <SCORE.norm>
-0.653948

>  <RMSD>
3.881

$$$$
ligand
 OpenBabel11021811473D
libRbt.so/2013.1/901 2013/11/27
 27 28  0  0  0  0  0  0  0  0999 V2000
  -11.2253   37.8667   -2.0047 C   0  0  0  0  0  0  0  0  0  0  0  0
   -6.9149   43.4923   -0.9082 C   0  0  0  0  0  0  0  0  0  0  0  0
   -5.3117   44.6345   -3.1667 C   0  0  0  0  0  0  0  0  0  0  0  0
   -5.6218   44.7107   -4.6628 C   0  0  0  0  0  0  0  0  0  0  0  0
   -5.5362   46.0596   -5.1292 O   0  0  0  0  0  0  0  0  0  0  0  0
   -5.5668   46.3684   -6.7052 P   0  0  1  0  0  0  0  0  0  0  0  0
   -7.0031   45.5732   -8.9988 P   0  0  2  0  0  0  0  0  0  0  0  0
   -4.0903   41.0365   -3.0476 C   0  0  0  0  0  0  0  0  0  0  0  0
   -9.6498   38.6406   -0.2422 N   0  0  0  0  0  0  0  0  0  0  0  0
   -5.8084   47.9278   -6.9831 O   0  5  0  0  0  0  0  0  0  0  0  0
   -7.6273   46.8259   -9.4717 O   0  0  0  0  0  0  0  0  0  0  0  0
   -4.8236   40.4868   -2.0044 C   0  0  0  0  0  0  0  0  0  0  0  0
   -9.9770   38.6197   -1.5436 C   0  0  0  0  0  0  0  0  0  0  0  0
   -4.1901   45.9701   -7.4532 O   0  0  0  0  0  0  0  0  0  0  0  0
   -7.8999   44.2933   -9.3641 O   0  5  0  0  0  0  0  0  0  0  0  0
   -5.7408   41.2804   -1.3140 N   0  0  0  0  0  0  0  0  0  0  0  0
   -9.2175   39.2550   -2.4478 N   0  0  0  0  0  0  0  0  0  0  0  0
   -6.7548   45.5171   -7.4195 O   0  0  0  0  0  0  0  0  0  0  0  0
   -5.6017   45.3270   -9.7195 O   0  0  0  0  0  0  0  0  0  0  0  0
   -5.9073   42.6233   -1.6734 C   0  0  1  0  0  0  0  0  0  0  0  0
   -8.1210   39.9199   -2.0632 C   0  0  0  0  0  0  0  0  0  0  0  0
   -7.3770   40.5473   -2.9683 N   0  0  0  0  0  0  0  0  0  0  0  0
   -5.1711   43.1741   -2.7211 C   0  0  2  0  0  0  0  0  0  0  0  0
   -7.7619   39.9585   -0.7214 C   0  0  0  0  0  0  0  0  0  0  0  0
   -4.2643   42.3694   -3.3999 C   0  0  0  0  0  0  0  0  0  0  0  0
   -8.5757   39.2849    0.1823 C   0  0  0  0  0  0  0  0  0  0  0  0
   -6.5221   40.6958   -0.1988 C   0  0  0  0  0  0  0  0  0  0  0  0
  1 13  1  0  0  0  0
  3  4  1  0  0  0  0
  4  5  1  0  0  0  0
  6  5  1  1  0  0  0
  6 10  1  0  0  0  0
  6 14  2  0  0  0  0
  6 18  1  0  0  0  0
  7 11  1  6  0  0  0
  7 15  1  0  0  0  0
  7 19  2  0  0  0  0
  7 18  1  0  0  0  0
  8 25  1  0  0  0  0
  8 12  1  0  0  0  0
  9 26  2  0  0  0  0
  9 13  1  0  0  0  0
 12 16  1  0  0  0  0
 13 17  2  0  0  0  0
 16 20  1  0  0  0  0
 16 27  1  0  0  0  0
 17 21  1  0  0  0  0
 20  2  1  6  0  0  0
 20 23  1  0  0  0  0
 21 22  1  0  0  0  0
 21 24  2  0  0  0  0
 23  3  1  1  0  0  0
 23 25  1  0  0  0  0
 24 27  1  0  0  0  0
 24 26  1  0  0  0  0
M  CHG  2  10  -1  15  -1
M  END
>  <CHROM.1>
-170.44258399,169.37374011,166.52029744,-177.78281628,-74.09482916,-125.56721229
-3.17114448,-83.74893331,-6.71480430,43.13917856,-4.46881708,1.82865561,0.64539268
2.15818754

>  <Name>
ligand

>  <RI>
0

>  <Rbt.Current_Directory>
/home/itssahil/PROJECTS/Mol_Feturizer/New_Systems/rnas/3D2V

>  <Rbt.Executable>
rbdock ($Id: //depot/dev/client3/rdock/2013.1/src/exe/rbdock.cxx#4 $)

>  <Rbt.Library>
libRbt.so (2013.1, Build901 2013/11/27)

>  <Rbt.Parameter_File>
/export/apps/rDock/src/rDock_2013.1_src/data/scripts/dock_solv.prm

>  <Rbt.Receptor>
prm/pocket_docking_7.prm

>  <SCORE>
-18.7342

>  <SCORE.INTER>
-21.7177

>  <SCORE.INTER.CONST>
1

>  <SCORE.INTER.POLAR>
0

>  <SCORE.INTER.ROT>
8

>  <SCORE.INTER.SOLV>
15.179

>  <SCORE.INTER.VDW>
-28.4714

>  <SCORE.INTER.norm>
-0.804358

>  <SCORE.INTRA>
2.98348

>  <SCORE.INTRA.DIHEDRAL>
-1.13235

>  <SCORE.INTRA.DIHEDRAL.0>
7.82666

>  <SCORE.INTRA.POLAR>
0

>  <SCORE.INTRA.POLAR.0>
0

>  <SCORE.INTRA.REPUL>
0

>  <SCORE.INTRA.REPUL.0>
0

>  <SCORE.INTRA.SOLV>
4.86618

>  <SCORE.INTRA.SOLV.lig_0>
-83.2758

>  <SCORE.INTRA.VDW>
1.11656

>  <SCORE.INTRA.VDW.0>
-3.26816

>  <SCORE.INTRA.norm>
0.110499

>  <SCORE.RESTR>
0

>  <SCORE.RESTR.CAVITY>
0

>  <SCORE.RESTR.norm>
0

>  <SCORE.SYSTEM>
0

>  <SCORE.SYSTEM.CONST>
0

>  <SCORE.SYSTEM.DIHEDRAL>
0

>  <SCORE.SYSTEM.SOLV>
0

>  <SCORE.SYSTEM.norm>
0

>  <SCORE.heavy>
27

>  <SCORE.norm>
-0.693859

>  <RMSD>
3.892

$$$$
ligand
 OpenBabel11021811473D
libRbt.so/2013.1/901 2013/11/27
 27 28  0  0  0  0  0  0  0  0999 V2000
   -5.1325   40.4829    0.7795 C   0  0  0  0  0  0  0  0  0  0  0  0
   -7.7531   41.2796   -7.1052 C   0  0  0  0  0  0  0  0  0  0  0  0
   -5.6993   40.6140   -9.1823 C   0  0  0  0  0  0  0  0  0  0  0  0
   -4.4553   41.4630   -9.4511 C   0  0  0  0  0  0  0  0  0  0  0  0
   -4.5882   42.1804  -10.6806 O   0  0  0  0  0  0  0  0  0  0  0  0
   -5.5900   43.4323  -10.7764 P   0  0  1  0  0  0  0  0  0  0  0  0
   -6.1493   45.8040   -9.3556 P   0  0  2  0  0  0  0  0  0  0  0  0
   -4.5141   38.5840   -6.1948 C   0  0  0  0  0  0  0  0  0  0  0  0
   -6.7723   39.5436   -0.8380 N   0  0  0  0  0  0  0  0  0  0  0  0
   -5.5110   44.1257  -12.2186 O   0  5  0  0  0  0  0  0  0  0  0  0
   -6.6437   46.4812  -10.5719 O   0  0  0  0  0  0  0  0  0  0  0  0
   -5.4555   38.8784   -5.2175 C   0  0  0  0  0  0  0  0  0  0  0  0
   -5.7506   40.3849   -0.6156 C   0  0  0  0  0  0  0  0  0  0  0  0
   -7.1361   43.0228  -10.5407 O   0  0  0  0  0  0  0  0  0  0  0  0
   -5.2934   46.7999   -8.4330 O   0  5  0  0  0  0  0  0  0  0  0  0
   -6.5063   39.7480   -5.5129 N   0  0  0  0  0  0  0  0  0  0  0  0
   -5.2640   41.1437   -1.6082 N   0  0  0  0  0  0  0  0  0  0  0  0
   -5.2164   44.5363   -9.6414 O   0  0  0  0  0  0  0  0  0  0  0  0
   -7.3621   45.3177   -8.4409 O   0  0  0  0  0  0  0  0  0  0  0  0
   -6.5972   40.3211   -6.7870 C   0  0  1  0  0  0  0  0  0  0  0  0
   -5.7918   41.0715   -2.8364 C   0  0  0  0  0  0  0  0  0  0  0  0
   -5.2998   41.8272   -3.8128 N   0  0  0  0  0  0  0  0  0  0  0  0
   -5.6520   40.0246   -7.7677 C   0  0  2  0  0  0  0  0  0  0  0  0
   -6.8487   40.2066   -3.0929 C   0  0  0  0  0  0  0  0  0  0  0  0
   -4.6138   39.1545   -7.4579 C   0  0  0  0  0  0  0  0  0  0  0  0
   -7.3241   39.4397   -2.0354 C   0  0  0  0  0  0  0  0  0  0  0  0
   -7.5102   40.0650   -4.4700 C   0  0  0  0  0  0  0  0  0  0  0  0
  1 13  1  0  0  0  0
  3  4  1  0  0  0  0
  4  5  1  0  0  0  0
  6  5  1  1  0  0  0
  6 10  1  0  0  0  0
  6 14  2  0  0  0  0
  6 18  1  0  0  0  0
  7 11  1  6  0  0  0
  7 15  1  0  0  0  0
  7 19  2  0  0  0  0
  7 18  1  0  0  0  0
  8 25  1  0  0  0  0
  8 12  1  0  0  0  0
  9 26  2  0  0  0  0
  9 13  1  0  0  0  0
 12 16  1  0  0  0  0
 13 17  2  0  0  0  0
 16 20  1  0  0  0  0
 16 27  1  0  0  0  0
 17 21  1  0  0  0  0
 20  2  1  6  0  0  0
 20 23  1  0  0  0  0
 21 22  1  0  0  0  0
 21 24  2  0  0  0  0
 23  3  1  1  0  0  0
 23 25  1  0  0  0  0
 24 27  1  0  0  0  0
 24 26  1  0  0  0  0
M  CHG  2  10  -1  15  -1
M  END
>  <CHROM.1>
-171.00906603,72.66828785,176.81950664,-171.75610819,-43.89886347,117.77580905
54.67990168,38.50604190,-5.94369195,42.12201792,-6.92446309,1.70799539,-1.43645749
2.20488099

>  <Name>
ligand

>  <RI>
0

>  <Rbt.Current_Directory>
/home/itssahil/PROJECTS/Mol_Feturizer/New_Systems/rnas/3D2V

>  <Rbt.Executable>
rbdock ($Id: //depot/dev/client3/rdock/2013.1/src/exe/rbdock.cxx#4 $)

>  <Rbt.Library>
libRbt.so (2013.1, Build901 2013/11/27)

>  <Rbt.Parameter_File>
/export/apps/rDock/src/rDock_2013.1_src/data/scripts/dock_solv.prm

>  <Rbt.Receptor>
prm/pocket_docking_5.prm

>  <SCORE>
-14.2175

>  <SCORE.INTER>
-14.7536

>  <SCORE.INTER.CONST>
1

>  <SCORE.INTER.POLAR>
0

>  <SCORE.INTER.ROT>
8

>  <SCORE.INTER.SOLV>
13.1166

>  <SCORE.INTER.VDW>
-23.1413

>  <SCORE.INTER.norm>
-0.54643

>  <SCORE.INTRA>
0.536156

>  <SCORE.INTRA.DIHEDRAL>
-1.03286

>  <SCORE.INTRA.DIHEDRAL.0>
7.82666

>  <SCORE.INTRA.POLAR>
0

>  <SCORE.INTRA.POLAR.0>
0

>  <SCORE.INTRA.REPUL>
0

>  <SCORE.INTRA.REPUL.0>
0

>  <SCORE.INTRA.SOLV>
2.75378

>  <SCORE.INTRA.SOLV.lig_0>
-83.2758

>  <SCORE.INTRA.VDW>
-0.324302

>  <SCORE.INTRA.VDW.0>
-3.26816

>  <SCORE.INTRA.norm>
0.0198576

>  <SCORE.RESTR>
0

>  <SCORE.RESTR.CAVITY>
0

>  <SCORE.RESTR.norm>
0

>  <SCORE.SYSTEM>
0

>  <SCORE.SYSTEM.CONST>
0

>  <SCORE.SYSTEM.DIHEDRAL>
0

>  <SCORE.SYSTEM.SOLV>
0

>  <SCORE.SYSTEM.norm>
0

>  <SCORE.heavy>
27

>  <SCORE.norm>
-0.526572

>  <RMSD>
3.896

$$$$
ligand
 OpenBabel11021811473D
libRbt.so/2013.1/901 2013/11/27
 27 28  0  0  0  0  0  0  0  0999 V2000
   -5.2613   40.3707    0.8274 C   0  0  0  0  0  0  0  0  0  0  0  0
   -7.8408   41.0246   -7.2737 C   0  0  0  0  0  0  0  0  0  0  0  0
   -5.7786   40.1865   -9.2788 C   0  0  0  0  0  0  0  0  0  0  0  0
   -5.4880   41.6761   -9.4715 C   0  0  0  0  0  0  0  0  0  0  0  0
   -5.6479   42.0496  -10.8423 O   0  0  0  0  0  0  0  0  0  0  0  0
   -5.4363   43.5780  -11.2887 P   0  0  1  0  0  0  0  0  0  0  0  0
   -6.3664   45.6720   -9.6435 P   0  0  2  0  0  0  0  0  0  0  0  0
   -4.4394   38.6699   -6.0605 C   0  0  0  0  0  0  0  0  0  0  0  0
   -6.8129   39.4687   -0.8948 N   0  0  0  0  0  0  0  0  0  0  0  0
   -4.0370   44.1469  -10.7543 O   0  5  0  0  0  0  0  0  0  0  0  0
   -5.4987   46.7572  -10.1454 O   0  0  0  0  0  0  0  0  0  0  0  0
   -5.3837   39.0470   -5.1149 C   0  0  0  0  0  0  0  0  0  0  0  0
   -5.8416   40.3420   -0.5869 C   0  0  0  0  0  0  0  0  0  0  0  0
   -5.4355   43.7724  -12.8936 O   0  0  0  0  0  0  0  0  0  0  0  0
   -5.7403   44.9703   -8.3430 O   0  5  0  0  0  0  0  0  0  0  0  0
   -6.4869   39.8061   -5.5079 N   0  0  0  0  0  0  0  0  0  0  0  0
   -5.3725   41.1935   -1.5105 N   0  0  0  0  0  0  0  0  0  0  0  0
   -6.6385   44.5040  -10.7023 O   0  0  0  0  0  0  0  0  0  0  0  0
   -7.7806   46.2427   -9.1764 O   0  0  0  0  0  0  0  0  0  0  0  0
   -6.6273   40.1867   -6.8479 C   0  0  1  0  0  0  0  0  0  0  0  0
   -5.8678   41.1831   -2.7542 C   0  0  0  0  0  0  0  0  0  0  0  0
   -5.3935   42.0306   -3.6616 N   0  0  0  0  0  0  0  0  0  0  0  0
   -5.6790   39.8072   -7.7965 C   0  0  1  0  0  0  0  0  0  0  0  0
   -6.8724   40.2870   -3.0988 C   0  0  0  0  0  0  0  0  0  0  0  0
   -4.5882   39.0490   -7.3890 C   0  0  0  0  0  0  0  0  0  0  0  0
   -7.3313   39.4235   -2.1107 C   0  0  0  0  0  0  0  0  0  0  0  0
   -7.4941   40.2115   -4.4994 C   0  0  0  0  0  0  0  0  0  0  0  0
  1 13  1  0  0  0  0
  3  4  1  0  0  0  0
  4  5  1  0  0  0  0
  6  5  1  1  0  0  0
  6 10  1  0  0  0  0
  6 14  2  0  0  0  0
  6 18  1  0  0  0  0
  7 11  1  6  0  0  0
  7 15  1  0  0  0  0
  7 19  2  0  0  0  0
  7 18  1  0  0  0  0
  8 25  1  0  0  0  0
  8 12  1  0  0  0  0
  9 26  2  0  0  0  0
  9 13  1  0  0  0  0
 12 16  1  0  0  0  0
 13 17  2  0  0  0  0
 16 20  1  0  0  0  0
 16 27  1  0  0  0  0
 17 21  1  0  0  0  0
 20  2  1  6  0  0  0
 20 23  1  0  0  0  0
 21 22  1  0  0  0  0
 21 24  2  0  0  0  0
 23  3  1  6  0  0  0
 23 25  1  0  0  0  0
 24 27  1  0  0  0  0
 24 26  1  0  0  0  0
M  CHG  2  10  -1  15  -1
M  END
>  <CHROM.1>
-176.97758449,178.30112476,51.31443571,116.15273647,62.62628868,72.06731328
63.77008647,26.12445859,-5.96602317,42.11247915,-7.07126429,1.76188462,-1.41715656
2.23374245

>  <Name>
ligand

>  <RI>
0

>  <Rbt.Current_Directory>
/home/itssahil/PROJECTS/Mol_Feturizer/New_Systems/rnas/3D2V

>  <Rbt.Executable>
rbdock ($Id: //depot/dev/client3/rdock/2013.1/src/exe/rbdock.cxx#4 $)

>  <Rbt.Library>
libRbt.so (2013.1, Build901 2013/11/27)

>  <Rbt.Parameter_File>
/export/apps/rDock/src/rDock_2013.1_src/data/scripts/dock_solv.prm

>  <Rbt.Receptor>
prm/pocket_docking_7.prm

>  <SCORE>
-13.7554

>  <SCORE.INTER>
-14.4417

>  <SCORE.INTER.CONST>
1

>  <SCORE.INTER.POLAR>
0

>  <SCORE.INTER.ROT>
8

>  <SCORE.INTER.SOLV>
14.6679

>  <SCORE.INTER.VDW>
-23.4505

>  <SCORE.INTER.norm>
-0.534878

>  <SCORE.INTRA>
0.68635

>  <SCORE.INTRA.DIHEDRAL>
-0.0718755

>  <SCORE.INTRA.DIHEDRAL.0>
7.82666

>  <SCORE.INTRA.POLAR>
0

>  <SCORE.INTRA.POLAR.0>
0

>  <SCORE.INTRA.REPUL>
0

>  <SCORE.INTRA.REPUL.0>
0

>  <SCORE.INTRA.SOLV>
1.2229

>  <SCORE.INTRA.SOLV.lig_0>
-83.2758

>  <SCORE.INTRA.VDW>
0.110836

>  <SCORE.INTRA.VDW.0>
-3.26816

>  <SCORE.INTRA.norm>
0.0254204

>  <SCORE.RESTR>
0

>  <SCORE.RESTR.CAVITY>
0

>  <SCORE.RESTR.norm>
0

>  <SCORE.SYSTEM>
0

>  <SCORE.SYSTEM.CONST>
0

>  <SCORE.SYSTEM.DIHEDRAL>
0

>  <SCORE.SYSTEM.SOLV>
0

>  <SCORE.SYSTEM.norm>
0

>  <SCORE.heavy>
27

>  <SCORE.norm>
-0.509458

>  <RMSD>
3.899

$$$$
ligand
 OpenBabel11021811473D
libRbt.so/2013.1/901 2013/11/27
 27 28  0  0  0  0  0  0  0  0999 V2000
   -5.7110   42.9061   -0.0391 C   0  0  0  0  0  0  0  0  0  0  0  0
   -8.7571   38.9717   -6.5411 C   0  0  0  0  0  0  0  0  0  0  0  0
   -6.6948   37.5093   -8.1486 C   0  0  0  0  0  0  0  0  0  0  0  0
   -5.7583   38.4545   -8.9037 C   0  0  0  0  0  0  0  0  0  0  0  0
   -6.0805   39.8185   -8.6210 O   0  0  0  0  0  0  0  0  0  0  0  0
   -5.2847   41.0020   -9.3601 P   0  0  1  0  0  0  0  0  0  0  0  0
   -4.4009   41.6538  -11.9582 P   0  0  2  0  0  0  0  0  0  0  0  0
   -5.2486   37.3436   -4.6369 C   0  0  0  0  0  0  0  0  0  0  0  0
   -6.2177   42.0305   -2.3115 N   0  0  0  0  0  0  0  0  0  0  0  0
   -5.9599   42.4244   -9.0637 O   0  5  0  0  0  0  0  0  0  0  0  0
   -2.9419   41.5470  -11.7523 O   0  0  0  0  0  0  0  0  0  0  0  0
   -6.1923   38.0173   -3.8729 C   0  0  0  0  0  0  0  0  0  0  0  0
   -6.4131   41.9336   -0.9873 C   0  0  0  0  0  0  0  0  0  0  0  0
   -3.7412   41.1128   -8.8922 O   0  0  0  0  0  0  0  0  0  0  0  0
   -4.9141   43.1626  -11.7689 O   0  5  0  0  0  0  0  0  0  0  0  0
   -7.3300   38.5412   -4.4883 N   0  0  0  0  0  0  0  0  0  0  0  0
   -7.2211   40.9889   -0.4848 N   0  0  0  0  0  0  0  0  0  0  0  0
   -5.2732   40.7504  -10.9673 O   0  0  0  0  0  0  0  0  0  0  0  0
   -4.7965   41.2570  -13.4516 O   0  0  0  0  0  0  0  0  0  0  0  0
   -7.5056   38.3903   -5.8691 C   0  0  1  0  0  0  0  0  0  0  0  0
   -7.8449   40.1286   -1.2992 C   0  0  0  0  0  0  0  0  0  0  0  0
   -8.6448   39.1976   -0.7895 N   0  0  0  0  0  0  0  0  0  0  0  0
   -6.5579   37.7134   -6.6351 C   0  0  1  0  0  0  0  0  0  0  0  0
   -7.6609   40.2095   -2.6741 C   0  0  0  0  0  0  0  0  0  0  0  0
   -5.4323   37.1953   -6.0063 C   0  0  0  0  0  0  0  0  0  0  0  0
   -6.8135   41.2021   -3.1528 C   0  0  0  0  0  0  0  0  0  0  0  0
   -8.3366   39.2627   -3.6746 C   0  0  0  0  0  0  0  0  0  0  0  0
  1 13  1  0  0  0  0
  3  4  1  0  0  0  0
  4  5  1  0  0  0  0
  6  5  1  1  0  0  0
  6 10  1  0  0  0  0
  6 14  2  0  0  0  0
  6 18  1  0  0  0  0
  7 11  1  1  0  0  0
  7 15  1  0  0  0  0
  7 19  2  0  0  0  0
  7 18  1  0  0  0  0
  8 25  1  0  0  0  0
  8 12  1  0  0  0  0
  9 26  2  0  0  0  0
  9 13  1  0  0  0  0
 12 16  1  0  0  0  0
 13 17  2  0  0  0  0
 16 20  1  0  0  0  0
 16 27  1  0  0  0  0
 17 21  1  0  0  0  0
 20  2  1  1  0  0  0
 20 23  1  0  0  0  0
 21 22  1  0  0  0  0
 21 24  2  0  0  0  0
 23  3  1  1  0  0  0
 23 25  1  0  0  0  0
 24 27  1  0  0  0  0
 24 26  1  0  0  0  0
M  CHG  2  10  -1  15  -1
M  END
>  <CHROM.1>
-60.91150911,-176.72866663,171.23305747,-172.03668267,64.18418790,104.46832903
-121.50142373,43.06489483,-6.03848964,40.29455512,-6.77026998,-2.30087613
-1.17809753,-2.15018201

>  <Name>
ligand

>  <RI>
0

>  <Rbt.Current_Directory>
/home/itssahil/PROJECTS/Mol_Feturizer/New_Systems/rnas/3D2V

>  <Rbt.Executable>
rbdock ($Id: //depot/dev/client3/rdock/2013.1/src/exe/rbdock.cxx#4 $)

>  <Rbt.Library>
libRbt.so (2013.1, Build901 2013/11/27)

>  <Rbt.Parameter_File>
/export/apps/rDock/src/rDock_2013.1_src/data/scripts/dock_solv.prm

>  <Rbt.Receptor>
prm/pocket_docking_8.prm

>  <SCORE>
-12.6914

>  <SCORE.INTER>
-10.7407

>  <SCORE.INTER.CONST>
1

>  <SCORE.INTER.POLAR>
0

>  <SCORE.INTER.ROT>
8

>  <SCORE.INTER.SOLV>
22.6268

>  <SCORE.INTER.VDW>
-23.636

>  <SCORE.INTER.norm>
-0.397802

>  <SCORE.INTRA>
-1.95078

>  <SCORE.INTRA.DIHEDRAL>
-2.3043

>  <SCORE.INTRA.DIHEDRAL.0>
7.82666

>  <SCORE.INTRA.POLAR>
0

>  <SCORE.INTRA.POLAR.0>
0

>  <SCORE.INTRA.REPUL>
0

>  <SCORE.INTRA.REPUL.0>
0

>  <SCORE.INTRA.SOLV>
-0.911384

>  <SCORE.INTRA.SOLV.lig_0>
-83.2758

>  <SCORE.INTRA.VDW>
-0.342938

>  <SCORE.INTRA.VDW.0>
-3.26816

>  <SCORE.INTRA.norm>
-0.0722511

>  <SCORE.RESTR>
0

>  <SCORE.RESTR.CAVITY>
0

>  <SCORE.RESTR.norm>
0

>  <SCORE.SYSTEM>
0

>  <SCORE.SYSTEM.CONST>
0

>  <SCORE.SYSTEM.DIHEDRAL>
0

>  <SCORE.SYSTEM.SOLV>
0

>  <SCORE.SYSTEM.norm>
0

>  <SCORE.heavy>
27

>  <SCORE.norm>
-0.470053

>  <RMSD>
3.904

$$$$
ligand
 OpenBabel11021811473D
libRbt.so/2013.1/901 2013/11/27
 27 28  0  0  0  0  0  0  0  0999 V2000
   -8.2727   39.2240    0.0316 C   0  0  0  0  0  0  0  0  0  0  0  0
   -7.3347   41.8712   -6.1294 C   0  0  0  0  0  0  0  0  0  0  0  0
   -4.7526   41.3878   -7.5696 C   0  0  0  0  0  0  0  0  0  0  0  0
   -3.9895   41.1093   -8.8660 C   0  0  0  0  0  0  0  0  0  0  0  0
   -4.8532   41.2349   -9.9985 O   0  0  0  0  0  0  0  0  0  0  0  0
   -4.2482   41.6437  -11.4292 P   0  0  1  0  0  0  0  0  0  0  0  0
   -5.6204   40.0820  -13.3356 P   0  0  2  0  0  0  0  0  0  0  0  0
   -6.2924   37.9132   -7.4837 C   0  0  0  0  0  0  0  0  0  0  0  0
   -7.6427   39.9864   -2.2508 N   0  0  0  0  0  0  0  0  0  0  0  0
   -3.7348   43.1614  -11.4264 O   0  5  0  0  0  0  0  0  0  0  0  0
   -6.7635   40.0854  -14.2715 O   0  0  0  0  0  0  0  0  0  0  0  0
   -7.4946   38.1152   -6.8187 C   0  0  0  0  0  0  0  0  0  0  0  0
   -8.5103   39.3171   -1.4760 C   0  0  0  0  0  0  0  0  0  0  0  0
   -2.9903   40.7276  -11.8676 O   0  0  0  0  0  0  0  0  0  0  0  0
   -5.7997   38.9724  -12.1901 O   0  5  0  0  0  0  0  0  0  0  0  0
   -7.8341   39.3970   -6.3835 N   0  0  0  0  0  0  0  0  0  0  0  0
   -9.5880   38.7264   -2.0123 N   0  0  0  0  0  0  0  0  0  0  0  0
   -5.3804   41.4741  -12.5849 O   0  0  0  0  0  0  0  0  0  0  0  0
   -4.2681   39.6974  -14.0888 O   0  0  0  0  0  0  0  0  0  0  0  0
   -6.9577   40.4643   -6.6136 C   0  0  1  0  0  0  0  0  0  0  0  0
   -9.8131   38.7972   -3.3301 C   0  0  0  0  0  0  0  0  0  0  0  0
  -10.8858   38.2094   -3.8499 N   0  0  0  0  0  0  0  0  0  0  0  0
   -5.7514   40.2606   -7.2817 C   0  0  1  0  0  0  0  0  0  0  0  0
   -8.9310   39.4863   -4.1535 C   0  0  0  0  0  0  0  0  0  0  0  0
   -5.4300   38.9788   -7.7110 C   0  0  0  0  0  0  0  0  0  0  0  0
   -7.8257   40.0820   -3.5571 C   0  0  0  0  0  0  0  0  0  0  0  0
   -9.1155   39.6135   -5.6714 C   0  0  0  0  0  0  0  0  0  0  0  0
  1 13  1  0  0  0  0
  3  4  1  0  0  0  0
  4  5  1  0  0  0  0
  6  5  1  1  0  0  0
  6 10  1  0  0  0  0
  6 14  2  0  0  0  0
  6 18  1  0  0  0  0
  7 11  1  6  0  0  0
  7 15  1  0  0  0  0
  7 19  2  0  0  0  0
  7 18  1  0  0  0  0
  8 25  1  0  0  0  0
  8 12  1  0  0  0  0
  9 26  2  0  0  0  0
  9 13  1  0  0  0  0
 12 16  1  0  0  0  0
 13 17  2  0  0  0  0
 16 20  1  0  0  0  0
 16 27  1  0  0  0  0
 17 21  1  0  0  0  0
 20  2  1  6  0  0  0
 20 23  1  0  0  0  0
 21 22  1  0  0  0  0
 21 24  2  0  0  0  0
 23  3  1  6  0  0  0
 23 25  1  0  0  0  0
 24 27  1  0  0  0  0
 24 26  1  0  0  0  0
M  CHG  2  10  -1  15  -1
M  END
>  <CHROM.1>
69.68215076,152.64831647,-68.80709685,-86.99073881,175.08890798,-149.08373700
-136.32225660,91.79970673,-6.43505284,40.13290584,-8.13301939,-2.06434331
-0.65657416,-1.73546874

>  <Name>
ligand

>  <RI>
0

>  <Rbt.Current_Directory>
/home/itssahil/PROJECTS/Mol_Feturizer/New_Systems/rnas/3D2V

>  <Rbt.Executable>
rbdock ($Id: //depot/dev/client3/rdock/2013.1/src/exe/rbdock.cxx#4 $)

>  <Rbt.Library>
libRbt.so (2013.1, Build901 2013/11/27)

>  <Rbt.Parameter_File>
/export/apps/rDock/src/rDock_2013.1_src/data/scripts/dock_solv.prm

>  <Rbt.Receptor>
prm/pocket_docking_7.prm

>  <SCORE>
-16.1414

>  <SCORE.INTER>
-18.3327

>  <SCORE.INTER.CONST>
1

>  <SCORE.INTER.POLAR>
0

>  <SCORE.INTER.ROT>
8

>  <SCORE.INTER.SOLV>
28.3202

>  <SCORE.INTER.VDW>
-30.5952

>  <SCORE.INTER.norm>
-0.678989

>  <SCORE.INTRA>
2.17264

>  <SCORE.INTRA.DIHEDRAL>
1.95316

>  <SCORE.INTRA.DIHEDRAL.0>
7.82666

>  <SCORE.INTRA.POLAR>
0

>  <SCORE.INTRA.POLAR.0>
0

>  <SCORE.INTRA.REPUL>
0

>  <SCORE.INTRA.REPUL.0>
0

>  <SCORE.INTRA.SOLV>
0.610413

>  <SCORE.INTRA.SOLV.lig_0>
-83.2758

>  <SCORE.INTRA.VDW>
0.890848

>  <SCORE.INTRA.VDW.0>
-3.26816

>  <SCORE.INTRA.norm>
0.080468

>  <SCORE.RESTR>
0.0186383

>  <SCORE.RESTR.CAVITY>
0.0186383

>  <SCORE.RESTR.norm>
0.000690309

>  <SCORE.SYSTEM>
0

>  <SCORE.SYSTEM.CONST>
0

>  <SCORE.SYSTEM.DIHEDRAL>
0

>  <SCORE.SYSTEM.SOLV>
0

>  <SCORE.SYSTEM.norm>
0

>  <SCORE.heavy>
27

>  <SCORE.norm>
-0.597831

>  <RMSD>
3.928

$$$$
ligand
 OpenBabel11021811473D
libRbt.so/2013.1/901 2013/11/27
 27 28  0  0  0  0  0  0  0  0999 V2000
  -11.7415   37.8162   -1.5908 C   0  0  0  0  0  0  0  0  0  0  0  0
   -5.1013   40.4657   -3.7367 C   0  0  0  0  0  0  0  0  0  0  0  0
   -4.9643   43.3029   -4.6890 C   0  0  0  0  0  0  0  0  0  0  0  0
   -3.6383   44.0267   -4.4474 C   0  0  0  0  0  0  0  0  0  0  0  0
   -3.0085   44.3565   -5.6879 O   0  0  0  0  0  0  0  0  0  0  0  0
   -1.6211   45.1658   -5.6945 P   0  0  1  0  0  0  0  0  0  0  0  0
   -0.6617   43.8552   -8.0006 P   0  0  2  0  0  0  0  0  0  0  0  0
   -6.7620   43.6548   -1.3580 C   0  0  0  0  0  0  0  0  0  0  0  0
   -9.7859   38.6503   -0.2995 N   0  0  0  0  0  0  0  0  0  0  0  0
   -1.8292   46.6720   -5.1894 O   0  5  0  0  0  0  0  0  0  0  0  0
    0.3527   44.0207   -9.0618 O   0  0  0  0  0  0  0  0  0  0  0  0
   -6.8358   42.3469   -0.8974 C   0  0  0  0  0  0  0  0  0  0  0  0
  -10.3198   38.3715   -1.4987 C   0  0  0  0  0  0  0  0  0  0  0  0
   -0.4998   44.5041   -4.7362 O   0  0  0  0  0  0  0  0  0  0  0  0
   -2.0532   43.3188   -8.5937 O   0  5  0  0  0  0  0  0  0  0  0  0
   -6.2950   41.3147   -1.6654 N   0  0  0  0  0  0  0  0  0  0  0  0
   -9.6166   38.5755   -2.6221 N   0  0  0  0  0  0  0  0  0  0  0  0
   -0.9983   45.1968   -7.1971 O   0  0  0  0  0  0  0  0  0  0  0  0
   -0.2028   42.7562   -6.9396 O   0  0  0  0  0  0  0  0  0  0  0  0
   -5.6912   41.6054   -2.8946 C   0  0  1  0  0  0  0  0  0  0  0  0
   -8.3706   39.0613   -2.5617 C   0  0  0  0  0  0  0  0  0  0  0  0
   -7.6841   39.2612   -3.6820 N   0  0  0  0  0  0  0  0  0  0  0  0
   -5.6172   42.9187   -3.3559 C   0  0  1  0  0  0  0  0  0  0  0  0
   -7.7960   39.3602   -1.3323 C   0  0  0  0  0  0  0  0  0  0  0  0
   -6.1580   43.9350   -2.5777 C   0  0  0  0  0  0  0  0  0  0  0  0
   -8.5588   39.1318   -0.1928 C   0  0  0  0  0  0  0  0  0  0  0  0
   -6.3753   39.9182   -1.1763 C   0  0  0  0  0  0  0  0  0  0  0  0
  1 13  1  0  0  0  0
  3  4  1  0  0  0  0
  4  5  1  0  0  0  0
  6  5  1  1  0  0  0
  6 10  1  0  0  0  0
  6 14  2  0  0  0  0
  6 18  1  0  0  0  0
  7 11  1  6  0  0  0
  7 15  1  0  0  0  0
  7 19  2  0  0  0  0
  7 18  1  0  0  0  0
  8 25  1  0  0  0  0
  8 12  1  0  0  0  0
  9 26  2  0  0  0  0
  9 13  1  0  0  0  0
 12 16  1  0  0  0  0
 13 17  2  0  0  0  0
 16 20  1  0  0  0  0
 16 27  1  0  0  0  0
 17 21  1  0  0  0  0
 20  2  1  1  0  0  0
 20 23  1  0  0  0  0
 21 22  1  0  0  0  0
 21 24  2  0  0  0  0
 23  3  1  1  0  0  0
 23 25  1  0  0  0  0
 24 27  1  0  0  0  0
 24 26  1  0  0  0  0
M  CHG  2  10  -1  15  -1
M  END
>  <CHROM.1>
178.50204551,178.01956992,-68.64415265,-58.14882279,-156.77173181,-108.43917694
70.11430047,74.88002224,-4.69858888,42.29727423,-4.20128877,3.13734511,0.76061751
0.76361658

>  <Name>
ligand

>  <RI>
0

>  <Rbt.Current_Directory>
/home/itssahil/PROJECTS/Mol_Feturizer/New_Systems/rnas/3D2V

>  <Rbt.Executable>
rbdock ($Id: //depot/dev/client3/rdock/2013.1/src/exe/rbdock.cxx#4 $)

>  <Rbt.Library>
libRbt.so (2013.1, Build901 2013/11/27)

>  <Rbt.Parameter_File>
/export/apps/rDock/src/rDock_2013.1_src/data/scripts/dock_solv.prm

>  <Rbt.Receptor>
prm/pocket_docking_5.prm

>  <SCORE>
-16.9227

>  <SCORE.INTER>
-18.0655

>  <SCORE.INTER.CONST>
1

>  <SCORE.INTER.POLAR>
0

>  <SCORE.INTER.ROT>
8

>  <SCORE.INTER.SOLV>
14.4145

>  <SCORE.INTER.VDW>
-25.7818

>  <SCORE.INTER.norm>
-0.669091

>  <SCORE.INTRA>
0.975973

>  <SCORE.INTRA.DIHEDRAL>
-1.7102

>  <SCORE.INTRA.DIHEDRAL.0>
7.82666

>  <SCORE.INTRA.POLAR>
0

>  <SCORE.INTRA.POLAR.0>
0

>  <SCORE.INTRA.REPUL>
0

>  <SCORE.INTRA.REPUL.0>
0

>  <SCORE.INTRA.SOLV>
3.33457

>  <SCORE.INTRA.SOLV.lig_0>
-83.2758

>  <SCORE.INTRA.VDW>
0.163786

>  <SCORE.INTRA.VDW.0>
-3.26816

>  <SCORE.INTRA.norm>
0.0361471

>  <SCORE.RESTR>
0.16676

>  <SCORE.RESTR.CAVITY>
0.16676

>  <SCORE.RESTR.norm>
0.00617631

>  <SCORE.SYSTEM>
0

>  <SCORE.SYSTEM.CONST>
0

>  <SCORE.SYSTEM.DIHEDRAL>
0

>  <SCORE.SYSTEM.SOLV>
0

>  <SCORE.SYSTEM.norm>
0

>  <SCORE.heavy>
27

>  <SCORE.norm>
-0.626767

>  <RMSD>
3.930

$$$$
ligand
 OpenBabel11021811473D
libRbt.so/2013.1/901 2013/11/27
 27 28  0  0  0  0  0  0  0  0999 V2000
   -5.1600   40.4551    0.9294 C   0  0  0  0  0  0  0  0  0  0  0  0
   -8.1923   40.2544   -7.1765 C   0  0  0  0  0  0  0  0  0  0  0  0
   -6.4679   38.6551   -9.0323 C   0  0  0  0  0  0  0  0  0  0  0  0
   -5.4350   39.4649   -9.8184 C   0  0  0  0  0  0  0  0  0  0  0  0
   -5.5918   40.8638   -9.5680 O   0  0  0  0  0  0  0  0  0  0  0  0
   -4.4989   41.9056  -10.1159 P   0  0  1  0  0  0  0  0  0  0  0  0
   -3.3310   41.9950   -7.5499 P   0  0  2  0  0  0  0  0  0  0  0  0
   -4.7826   38.0868   -5.6726 C   0  0  0  0  0  0  0  0  0  0  0  0
   -6.6029   39.4351   -0.8212 N   0  0  0  0  0  0  0  0  0  0  0  0
   -4.0325   41.5253  -11.6008 O   0  5  0  0  0  0  0  0  0  0  0  0
   -3.8324   40.7569   -6.9188 O   0  0  0  0  0  0  0  0  0  0  0  0
   -5.5689   38.8213   -4.7948 C   0  0  0  0  0  0  0  0  0  0  0  0
   -5.7747   40.4310   -0.4704 C   0  0  0  0  0  0  0  0  0  0  0  0
   -5.0492   43.4246  -10.1755 O   0  0  0  0  0  0  0  0  0  0  0  0
   -4.2877   43.2452   -7.2374 O   0  5  0  0  0  0  0  0  0  0  0  0
   -6.6750   39.5201   -5.2806 N   0  0  0  0  0  0  0  0  0  0  0  0
   -5.4791   41.4096   -1.3382 N   0  0  0  0  0  0  0  0  0  0  0  0
   -3.1960   41.9141   -9.1418 O   0  0  0  0  0  0  0  0  0  0  0  0
   -1.9041   42.3973   -6.9616 O   0  0  0  0  0  0  0  0  0  0  0  0
   -6.9767   39.4810   -6.6472 C   0  0  1  0  0  0  0  0  0  0  0  0
   -6.0073   41.4055   -2.5684 C   0  0  0  0  0  0  0  0  0  0  0  0
   -5.7055   42.3799   -3.4204 N   0  0  0  0  0  0  0  0  0  0  0  0
   -6.1871   38.7430   -7.5275 C   0  0  1  0  0  0  0  0  0  0  0  0
   -6.8658   40.3843   -2.9567 C   0  0  0  0  0  0  0  0  0  0  0  0
   -5.0912   38.0506   -7.0269 C   0  0  0  0  0  0  0  0  0  0  0  0
   -7.1472   39.3910   -2.0258 C   0  0  0  0  0  0  0  0  0  0  0  0
   -7.5134   40.3064   -4.3455 C   0  0  0  0  0  0  0  0  0  0  0  0
  1 13  1  0  0  0  0
  3  4  1  0  0  0  0
  4  5  1  0  0  0  0
  6  5  1  1  0  0  0
  6 10  1  0  0  0  0
  6 14  2  0  0  0  0
  6 18  1  0  0  0  0
  7 11  1  1  0  0  0
  7 15  1  0  0  0  0
  7 19  2  0  0  0  0
  7 18  1  0  0  0  0
  8 25  1  0  0  0  0
  8 12  1  0  0  0  0
  9 26  2  0  0  0  0
  9 13  1  0  0  0  0
 12 16  1  0  0  0  0
 13 17  2  0  0  0  0
 16 20  1  0  0  0  0
 16 27  1  0  0  0  0
 17 21  1  0  0  0  0
 20  2  1  1  0  0  0
 20 23  1  0  0  0  0
 21 22  1  0  0  0  0
 21 24  2  0  0  0  0
 23  3  1  1  0  0  0
 23 25  1  0  0  0  0
 24 27  1  0  0  0  0
 24 26  1  0  0  0  0
M  CHG  2  10  -1  15  -1
M  END
>  <CHROM.1>
-67.74292256,171.48739775,41.31611840,-46.77356269,72.09836752,107.45452591
91.38494787,8.68243469,-5.26049249,40.75902505,-6.29161269,-1.88080273,-0.83720074
-1.65026732

>  <Name>
ligand

>  <RI>
0

>  <Rbt.Current_Directory>
/home/itssahil/PROJECTS/Mol_Feturizer/New_Systems/rnas/3D2V

>  <Rbt.Executable>
rbdock ($Id: //depot/dev/client3/rdock/2013.1/src/exe/rbdock.cxx#4 $)

>  <Rbt.Library>
libRbt.so (2013.1, Build901 2013/11/27)

>  <Rbt.Parameter_File>
/export/apps/rDock/src/rDock_2013.1_src/data/scripts/dock_solv.prm

>  <Rbt.Receptor>
prm/pocket_docking_7.prm

>  <SCORE>
-14.7611

>  <SCORE.INTER>
-12.0888

>  <SCORE.INTER.CONST>
1

>  <SCORE.INTER.POLAR>
0

>  <SCORE.INTER.ROT>
8

>  <SCORE.INTER.SOLV>
13.1656

>  <SCORE.INTER.VDW>
-21.3811

>  <SCORE.INTER.norm>
-0.447734

>  <SCORE.INTRA>
-2.67233

>  <SCORE.INTRA.DIHEDRAL>
-0.987697

>  <SCORE.INTRA.DIHEDRAL.0>
7.82666

>  <SCORE.INTRA.POLAR>
0

>  <SCORE.INTRA.POLAR.0>
0

>  <SCORE.INTRA.REPUL>
0

>  <SCORE.INTRA.REPUL.0>
0

>  <SCORE.INTRA.SOLV>
-1.3429

>  <SCORE.INTRA.SOLV.lig_0>
-83.2758

>  <SCORE.INTRA.VDW>
-1.50703

>  <SCORE.INTRA.VDW.0>
-3.26816

>  <SCORE.INTRA.norm>
-0.098975

>  <SCORE.RESTR>
0

>  <SCORE.RESTR.CAVITY>
0

>  <SCORE.RESTR.norm>
0

>  <SCORE.SYSTEM>
0

>  <SCORE.SYSTEM.CONST>
0

>  <SCORE.SYSTEM.DIHEDRAL>
0

>  <SCORE.SYSTEM.SOLV>
0

>  <SCORE.SYSTEM.norm>
0

>  <SCORE.heavy>
27

>  <SCORE.norm>
-0.546709

>  <RMSD>
3.949

$$$$
ligand
 OpenBabel11021811473D
libRbt.so/2013.1/901 2013/11/27
 27 28  0  0  0  0  0  0  0  0999 V2000
   -7.9766   39.2436    0.5003 C   0  0  0  0  0  0  0  0  0  0  0  0
   -8.4474   39.9211   -7.7409 C   0  0  0  0  0  0  0  0  0  0  0  0
   -6.0406   38.8404   -9.1603 C   0  0  0  0  0  0  0  0  0  0  0  0
   -5.4140   40.2298   -9.0284 C   0  0  0  0  0  0  0  0  0  0  0  0
   -4.5927   40.3057   -7.8605 O   0  0  0  0  0  0  0  0  0  0  0  0
   -4.1306   41.7362   -7.2946 P   0  0  1  0  0  0  0  0  0  0  0  0
   -4.6152   40.8370   -4.6654 P   0  0  2  0  0  0  0  0  0  0  0  0
   -6.0779   36.7913   -5.9586 C   0  0  0  0  0  0  0  0  0  0  0  0
   -7.4278   39.5691   -1.9039 N   0  0  0  0  0  0  0  0  0  0  0  0
   -2.8869   42.3110   -8.1251 O   0  5  0  0  0  0  0  0  0  0  0  0
   -4.8282   39.4072   -4.9700 O   0  0  0  0  0  0  0  0  0  0  0  0
   -7.1899   37.2773   -5.2837 C   0  0  0  0  0  0  0  0  0  0  0  0
   -8.3010   39.1206   -0.9888 C   0  0  0  0  0  0  0  0  0  0  0  0
   -5.2976   42.8523   -7.3717 O   0  0  0  0  0  0  0  0  0  0  0  0
   -6.0043   41.6374   -4.5917 O   0  5  0  0  0  0  0  0  0  0  0  0
   -7.9594   38.2878   -5.8620 N   0  0  0  0  0  0  0  0  0  0  0  0
   -9.4601   38.5632   -1.3682 N   0  0  0  0  0  0  0  0  0  0  0  0
   -3.7036   41.6079   -5.7301 O   0  0  0  0  0  0  0  0  0  0  0  0
   -3.9450   41.0203   -3.2297 O   0  0  0  0  0  0  0  0  0  0  0  0
   -7.5994   38.8072   -7.1113 C   0  0  1  0  0  0  0  0  0  0  0  0
   -9.7619   38.4469   -2.6674 C   0  0  0  0  0  0  0  0  0  0  0  0
  -10.9146   37.8944   -3.0312 N   0  0  0  0  0  0  0  0  0  0  0  0
   -6.4832   38.3184   -7.7882 C   0  0  1  0  0  0  0  0  0  0  0  0
   -8.8756   38.9057   -3.6343 C   0  0  0  0  0  0  0  0  0  0  0  0
   -5.7297   37.3101   -7.1997 C   0  0  0  0  0  0  0  0  0  0  0  0
   -7.6848   39.4748   -3.1979 C   0  0  0  0  0  0  0  0  0  0  0  0
   -9.1448   38.8092   -5.1417 C   0  0  0  0  0  0  0  0  0  0  0  0
  1 13  1  0  0  0  0
  3  4  1  0  0  0  0
  4  5  1  0  0  0  0
  6  5  1  6  0  0  0
  6 10  1  0  0  0  0
  6 14  2  0  0  0  0
  6 18  1  0  0  0  0
  7 11  1  6  0  0  0
  7 15  1  0  0  0  0
  7 19  2  0  0  0  0
  7 18  1  0  0  0  0
  8 25  1  0  0  0  0
  8 12  1  0  0  0  0
  9 26  2  0  0  0  0
  9 13  1  0  0  0  0
 12 16  1  0  0  0  0
 13 17  2  0  0  0  0
 16 20  1  0  0  0  0
 16 27  1  0  0  0  0
 17 21  1  0  0  0  0
 20  2  1  6  0  0  0
 20 23  1  0  0  0  0
 21 22  1  0  0  0  0
 21 24  2  0  0  0  0
 23  3  1  6  0  0  0
 23 25  1  0  0  0  0
 24 27  1  0  0  0  0
 24 26  1  0  0  0  0
M  CHG  2  10  -1  15  -1
M  END
>  <CHROM.1>
40.01082802,-164.39356279,-80.11551168,-47.30747578,60.82259500,73.42311297
-133.32177516,38.36925099,-6.38918613,39.79836674,-5.29822662,-2.43249951
-0.66582264,-1.77855741

>  <Name>
ligand

>  <RI>
0

>  <Rbt.Current_Directory>
/home/itssahil/PROJECTS/Mol_Feturizer/New_Systems/rnas/3D2V

>  <Rbt.Executable>
rbdock ($Id: //depot/dev/client3/rdock/2013.1/src/exe/rbdock.cxx#4 $)

>  <Rbt.Library>
libRbt.so (2013.1, Build901 2013/11/27)

>  <Rbt.Parameter_File>
/export/apps/rDock/src/rDock_2013.1_src/data/scripts/dock_solv.prm

>  <Rbt.Receptor>
prm/pocket_docking_6.prm

>  <SCORE>
-16.9047

>  <SCORE.INTER>
-14.4939

>  <SCORE.INTER.CONST>
1

>  <SCORE.INTER.POLAR>
0

>  <SCORE.INTER.ROT>
8

>  <SCORE.INTER.SOLV>
23.4788

>  <SCORE.INTER.VDW>
-26.4222

>  <SCORE.INTER.norm>
-0.53681

>  <SCORE.INTRA>
-2.41088

>  <SCORE.INTRA.DIHEDRAL>
0.780343

>  <SCORE.INTRA.DIHEDRAL.0>
7.82666

>  <SCORE.INTRA.POLAR>
0

>  <SCORE.INTRA.POLAR.0>
0

>  <SCORE.INTRA.REPUL>
0

>  <SCORE.INTRA.REPUL.0>
0

>  <SCORE.INTRA.SOLV>
-0.905455

>  <SCORE.INTRA.SOLV.lig_0>
-83.2758

>  <SCORE.INTRA.VDW>
-2.34833

>  <SCORE.INTRA.VDW.0>
-3.26816

>  <SCORE.INTRA.norm>
-0.089292

>  <SCORE.RESTR>
0

>  <SCORE.RESTR.CAVITY>
0

>  <SCORE.RESTR.norm>
0

>  <SCORE.SYSTEM>
0

>  <SCORE.SYSTEM.CONST>
0

>  <SCORE.SYSTEM.DIHEDRAL>
0

>  <SCORE.SYSTEM.SOLV>
0

>  <SCORE.SYSTEM.norm>
0

>  <SCORE.heavy>
27

>  <SCORE.norm>
-0.626102

>  <RMSD>
3.954

$$$$
ligand
 OpenBabel11021811473D
libRbt.so/2013.1/901 2013/11/27
 27 28  0  0  0  0  0  0  0  0999 V2000
  -13.0946   37.5869   -1.8492 C   0  0  0  0  0  0  0  0  0  0  0  0
   -6.0451   40.8039   -0.9381 C   0  0  0  0  0  0  0  0  0  0  0  0
   -5.8745   43.7577   -1.4085 C   0  0  0  0  0  0  0  0  0  0  0  0
   -4.9151   44.6219   -2.2291 C   0  0  0  0  0  0  0  0  0  0  0  0
   -3.8445   43.8319   -2.7526 O   0  0  0  0  0  0  0  0  0  0  0  0
   -2.8717   44.4407   -3.8765 P   0  0  1  0  0  0  0  0  0  0  0  0
   -3.6532   42.7147   -5.9661 P   0  0  2  0  0  0  0  0  0  0  0  0
   -8.0927   42.6102   -4.2745 C   0  0  0  0  0  0  0  0  0  0  0  0
  -11.1435   38.0447   -3.3226 N   0  0  0  0  0  0  0  0  0  0  0  0
   -2.6628   46.0154   -3.6676 O   0  5  0  0  0  0  0  0  0  0  0  0
   -4.0621   41.6897   -4.9839 O   0  0  0  0  0  0  0  0  0  0  0  0
   -8.1857   41.2392   -4.0745 C   0  0  0  0  0  0  0  0  0  0  0  0
  -11.6445   38.0144   -2.0780 C   0  0  0  0  0  0  0  0  0  0  0  0
   -1.4004   43.7707   -3.8679 O   0  0  0  0  0  0  0  0  0  0  0  0
   -2.2448   42.3520   -6.6448 O   0  5  0  0  0  0  0  0  0  0  0  0
   -7.5261   40.6546   -2.9924 N   0  0  0  0  0  0  0  0  0  0  0  0
  -10.8835   38.3564   -1.0282 N   0  0  0  0  0  0  0  0  0  0  0  0
   -3.4973   44.1853   -5.3563 O   0  0  0  0  0  0  0  0  0  0  0  0
   -4.6945   42.7969   -7.1714 O   0  0  0  0  0  0  0  0  0  0  0  0
   -6.7714   41.4528   -2.1244 C   0  0  1  0  0  0  0  0  0  0  0  0
   -9.6115   38.7331   -1.2086 C   0  0  0  0  0  0  0  0  0  0  0  0
   -8.8665   39.0681   -0.1602 N   0  0  0  0  0  0  0  0  0  0  0  0
   -6.6791   42.8291   -2.3257 C   0  0  2  0  0  0  0  0  0  0  0  0
   -9.0685   38.7706   -2.4871 C   0  0  0  0  0  0  0  0  0  0  0  0
   -7.3443   43.3955   -3.4062 C   0  0  0  0  0  0  0  0  0  0  0  0
   -9.8925   38.4103   -3.5472 C   0  0  0  0  0  0  0  0  0  0  0  0
   -7.6223   39.1913   -2.7794 C   0  0  0  0  0  0  0  0  0  0  0  0
  1 13  1  0  0  0  0
  3  4  1  0  0  0  0
  4  5  1  0  0  0  0
  6  5  1  1  0  0  0
  6 10  1  0  0  0  0
  6 14  2  0  0  0  0
  6 18  1  0  0  0  0
  7 11  1  1  0  0  0
  7 15  1  0  0  0  0
  7 19  2  0  0  0  0
  7 18  1  0  0  0  0
  8 25  1  0  0  0  0
  8 12  1  0  0  0  0
  9 26  2  0  0  0  0
  9 13  1  0  0  0  0
 12 16  1  0  0  0  0
 13 17  2  0  0  0  0
 16 20  1  0  0  0  0
 16 27  1  0  0  0  0
 17 21  1  0  0  0  0
 20  2  1  1  0  0  0
 20 23  1  0  0  0  0
 21 22  1  0  0  0  0
 21 24  2  0  0  0  0
 23  3  1  6  0  0  0
 23 25  1  0  0  0  0
 24 27  1  0  0  0  0
 24 26  1  0  0  0  0
M  CHG  2  10  -1  15  -1
M  END
>  <CHROM.1>
-71.03783809,167.99656343,33.52877929,-66.12956175,38.34567136,128.21348637
-88.99456078,-63.60525717,-6.27241303,41.72863415,-3.41175222,3.09586286
0.67659119,1.18504628

>  <Name>
ligand

>  <RI>
0

>  <Rbt.Current_Directory>
/home/itssahil/PROJECTS/Mol_Feturizer/New_Systems/rnas/3D2V

>  <Rbt.Executable>
rbdock ($Id: //depot/dev/client3/rdock/2013.1/src/exe/rbdock.cxx#4 $)

>  <Rbt.Library>
libRbt.so (2013.1, Build901 2013/11/27)

>  <Rbt.Parameter_File>
/export/apps/rDock/src/rDock_2013.1_src/data/scripts/dock_solv.prm

>  <Rbt.Receptor>
prm/pocket_docking_7.prm

>  <SCORE>
-19.6453

>  <SCORE.INTER>
-18.5705

>  <SCORE.INTER.CONST>
1

>  <SCORE.INTER.POLAR>
0

>  <SCORE.INTER.ROT>
8

>  <SCORE.INTER.SOLV>
24.0728

>  <SCORE.INTER.VDW>
-29.3379

>  <SCORE.INTER.norm>
-0.687795

>  <SCORE.INTRA>
-1.07484

>  <SCORE.INTRA.DIHEDRAL>
0.213423

>  <SCORE.INTRA.DIHEDRAL.0>
7.82666

>  <SCORE.INTRA.POLAR>
0

>  <SCORE.INTRA.POLAR.0>
0

>  <SCORE.INTRA.REPUL>
0

>  <SCORE.INTRA.REPUL.0>
0

>  <SCORE.INTRA.SOLV>
-0.349609

>  <SCORE.INTRA.SOLV.lig_0>
-83.2758

>  <SCORE.INTRA.VDW>
-1.00675

>  <SCORE.INTRA.VDW.0>
-3.26816

>  <SCORE.INTRA.norm>
-0.0398089

>  <SCORE.RESTR>
0

>  <SCORE.RESTR.CAVITY>
0

>  <SCORE.RESTR.norm>
0

>  <SCORE.SYSTEM>
0

>  <SCORE.SYSTEM.CONST>
0

>  <SCORE.SYSTEM.DIHEDRAL>
0

>  <SCORE.SYSTEM.SOLV>
0

>  <SCORE.SYSTEM.norm>
0

>  <SCORE.heavy>
27

>  <SCORE.norm>
-0.727604

>  <RMSD>
3.968

$$$$
ligand
 OpenBabel11021811473D
libRbt.so/2013.1/901 2013/11/27
 27 28  0  0  0  0  0  0  0  0999 V2000
   -6.5183   42.5122   -0.4175 C   0  0  0  0  0  0  0  0  0  0  0  0
   -5.7461   37.6144   -6.4169 C   0  0  0  0  0  0  0  0  0  0  0  0
   -6.3364   38.7057   -9.1439 C   0  0  0  0  0  0  0  0  0  0  0  0
   -5.2525   39.7753   -9.2914 C   0  0  0  0  0  0  0  0  0  0  0  0
   -5.8288   41.0838   -9.2856 O   0  0  0  0  0  0  0  0  0  0  0  0
   -4.8852   42.3780   -9.4071 P   0  0  1  0  0  0  0  0  0  0  0  0
   -5.4652   43.4550  -11.9488 P   0  0  2  0  0  0  0  0  0  0  0  0
   -9.1871   40.1283   -7.0701 C   0  0  0  0  0  0  0  0  0  0  0  0
   -7.7381   40.4938   -1.2082 N   0  0  0  0  0  0  0  0  0  0  0  0
   -5.6141   43.6804   -8.8244 O   0  5  0  0  0  0  0  0  0  0  0  0
   -5.1731   43.2603  -13.3838 O   0  0  0  0  0  0  0  0  0  0  0  0
   -8.9318   39.6337   -5.7979 C   0  0  0  0  0  0  0  0  0  0  0  0
   -6.7770   41.4022   -1.4367 C   0  0  0  0  0  0  0  0  0  0  0  0
   -3.4937   42.2226   -8.5991 O   0  0  0  0  0  0  0  0  0  0  0  0
   -5.3513   44.9997  -11.5283 O   0  5  0  0  0  0  0  0  0  0  0  0
   -7.8159   38.8229   -5.5853 N   0  0  0  0  0  0  0  0  0  0  0  0
   -6.0380   41.3464   -2.5541 N   0  0  0  0  0  0  0  0  0  0  0  0
   -4.4987   42.6448  -10.9647 O   0  0  0  0  0  0  0  0  0  0  0  0
   -6.9659   43.0343  -11.6102 O   0  0  0  0  0  0  0  0  0  0  0  0
   -6.9700   38.5095   -6.6560 C   0  0  1  0  0  0  0  0  0  0  0  0
   -6.2496   40.3817   -3.4580 C   0  0  0  0  0  0  0  0  0  0  0  0
   -5.5094   40.3355   -4.5609 N   0  0  0  0  0  0  0  0  0  0  0  0
   -7.2269   39.0070   -7.9325 C   0  0  2  0  0  0  0  0  0  0  0  0
   -7.2371   39.4279   -3.2437 C   0  0  0  0  0  0  0  0  0  0  0  0
   -8.3405   39.8151   -8.1264 C   0  0  0  0  0  0  0  0  0  0  0  0
   -7.9814   39.5236   -2.0735 C   0  0  0  0  0  0  0  0  0  0  0  0
   -7.5436   38.2923   -4.2288 C   0  0  0  0  0  0  0  0  0  0  0  0
  1 13  1  0  0  0  0
  3  4  1  0  0  0  0
  4  5  1  0  0  0  0
  6  5  1  1  0  0  0
  6 10  1  0  0  0  0
  6 14  2  0  0  0  0
  6 18  1  0  0  0  0
  7 11  1  6  0  0  0
  7 15  1  0  0  0  0
  7 19  2  0  0  0  0
  7 18  1  0  0  0  0
  8 25  1  0  0  0  0
  8 12  1  0  0  0  0
  9 26  2  0  0  0  0
  9 13  1  0  0  0  0
 12 16  1  0  0  0  0
 13 17  2  0  0  0  0
 16 20  1  0  0  0  0
 16 27  1  0  0  0  0
 17 21  1  0  0  0  0
 20  2  1  1  0  0  0
 20 23  1  0  0  0  0
 21 22  1  0  0  0  0
 21 24  2  0  0  0  0
 23  3  1  6  0  0  0
 23 25  1  0  0  0  0
 24 27  1  0  0  0  0
 24 26  1  0  0  0  0
M  CHG  2  10  -1  15  -1
M  END
>  <CHROM.1>
-51.85965996,179.13807156,-157.92759198,84.08538425,-162.49864947,-91.15919121
-54.30135253,-64.42937008,-6.26814258,41.12142813,-7.34750605,-2.10313227
-1.16981374,-1.73598247

>  <Name>
ligand

>  <RI>
0

>  <Rbt.Current_Directory>
/home/itssahil/PROJECTS/Mol_Feturizer/New_Systems/rnas/3D2V

>  <Rbt.Executable>
rbdock ($Id: //depot/dev/client3/rdock/2013.1/src/exe/rbdock.cxx#4 $)

>  <Rbt.Library>
libRbt.so (2013.1, Build901 2013/11/27)

>  <Rbt.Parameter_File>
/export/apps/rDock/src/rDock_2013.1_src/data/scripts/dock_solv.prm

>  <Rbt.Receptor>
prm/pocket_docking_5.prm

>  <SCORE>
-11.2151

>  <SCORE.INTER>
-11.9723

>  <SCORE.INTER.CONST>
1

>  <SCORE.INTER.POLAR>
0

>  <SCORE.INTER.ROT>
8

>  <SCORE.INTER.SOLV>
13.7999

>  <SCORE.INTER.VDW>
-21.5148

>  <SCORE.INTER.norm>
-0.443418

>  <SCORE.INTRA>
0.757212

>  <SCORE.INTRA.DIHEDRAL>
-0.369876

>  <SCORE.INTRA.DIHEDRAL.0>
7.82666

>  <SCORE.INTRA.POLAR>
0

>  <SCORE.INTRA.POLAR.0>
0

>  <SCORE.INTRA.REPUL>
0

>  <SCORE.INTRA.REPUL.0>
0

>  <SCORE.INTRA.SOLV>
3.54945

>  <SCORE.INTRA.SOLV.lig_0>
-83.2758

>  <SCORE.INTRA.VDW>
-0.832575

>  <SCORE.INTRA.VDW.0>
-3.26816

>  <SCORE.INTRA.norm>
0.0280449

>  <SCORE.RESTR>
0

>  <SCORE.RESTR.CAVITY>
0

>  <SCORE.RESTR.norm>
0

>  <SCORE.SYSTEM>
0

>  <SCORE.SYSTEM.CONST>
0

>  <SCORE.SYSTEM.DIHEDRAL>
0

>  <SCORE.SYSTEM.SOLV>
0

>  <SCORE.SYSTEM.norm>
0

>  <SCORE.heavy>
27

>  <SCORE.norm>
-0.415373

>  <RMSD>
3.984

$$$$
ligand
 OpenBabel11021811473D
libRbt.so/2013.1/901 2013/11/27
 27 28  0  0  0  0  0  0  0  0999 V2000
   -6.0485   40.2115    0.1486 C   0  0  0  0  0  0  0  0  0  0  0  0
   -7.8942   36.5944   -5.7262 C   0  0  0  0  0  0  0  0  0  0  0  0
   -7.0793   37.7306   -8.3758 C   0  0  0  0  0  0  0  0  0  0  0  0
   -5.8209   38.5313   -8.7159 C   0  0  0  0  0  0  0  0  0  0  0  0
   -6.1643   39.7828   -9.3160 O   0  0  0  0  0  0  0  0  0  0  0  0
   -5.0074   40.7787   -9.8158 P   0  0  1  0  0  0  0  0  0  0  0  0
   -4.1402   41.0458   -7.1451 P   0  0  2  0  0  0  0  0  0  0  0  0
   -9.1816   40.5361   -6.9060 C   0  0  0  0  0  0  0  0  0  0  0  0
   -6.5554   39.5365   -2.1912 N   0  0  0  0  0  0  0  0  0  0  0  0
   -4.3778   40.2820  -11.2029 O   0  5  0  0  0  0  0  0  0  0  0  0
   -4.2287   39.7777   -6.3923 O   0  0  0  0  0  0  0  0  0  0  0  0
   -9.5704   40.0290   -5.6731 C   0  0  0  0  0  0  0  0  0  0  0  0
   -6.9925   39.6803   -0.9306 C   0  0  0  0  0  0  0  0  0  0  0  0
   -5.5346   42.2877  -10.0578 O   0  0  0  0  0  0  0  0  0  0  0  0
   -5.5061   41.8832   -7.0520 O   0  5  0  0  0  0  0  0  0  0  0  0
   -9.1507   38.7545   -5.2892 N   0  0  0  0  0  0  0  0  0  0  0  0
   -8.2538   39.3616   -0.6059 N   0  0  0  0  0  0  0  0  0  0  0  0
   -3.8241   40.8655   -8.7028 O   0  0  0  0  0  0  0  0  0  0  0  0
   -3.0181   41.9973   -6.5291 O   0  0  0  0  0  0  0  0  0  0  0  0
   -8.3498   37.9969   -6.1522 C   0  0  1  0  0  0  0  0  0  0  0  0
   -9.0952   38.8953   -1.5370 C   0  0  0  0  0  0  0  0  0  0  0  0
  -10.3437   38.5846   -1.2036 N   0  0  0  0  0  0  0  0  0  0  0  0
   -7.9597   38.5070   -7.3894 C   0  0  1  0  0  0  0  0  0  0  0  0
   -8.6675   38.7395   -2.8500 C   0  0  0  0  0  0  0  0  0  0  0  0
   -8.3838   39.7788   -7.7549 C   0  0  0  0  0  0  0  0  0  0  0  0
   -7.3519   39.0796   -3.1431 C   0  0  0  0  0  0  0  0  0  0  0  0
   -9.5670   38.2111   -3.9750 C   0  0  0  0  0  0  0  0  0  0  0  0
  1 13  1  0  0  0  0
  3  4  1  0  0  0  0
  4  5  1  0  0  0  0
  6  5  1  1  0  0  0
  6 10  1  0  0  0  0
  6 14  2  0  0  0  0
  6 18  1  0  0  0  0
  7 11  1  1  0  0  0
  7 15  1  0  0  0  0
  7 19  2  0  0  0  0
  7 18  1  0  0  0  0
  8 25  1  0  0  0  0
  8 12  1  0  0  0  0
  9 26  2  0  0  0  0
  9 13  1  0  0  0  0
 12 16  1  0  0  0  0
 13 17  2  0  0  0  0
 16 20  1  0  0  0  0
 16 27  1  0  0  0  0
 17 21  1  0  0  0  0
 20  2  1  1  0  0  0
 20 23  1  0  0  0  0
 21 22  1  0  0  0  0
 21 24  2  0  0  0  0
 23  3  1  1  0  0  0
 23 25  1  0  0  0  0
 24 27  1  0  0  0  0
 24 26  1  0  0  0  0
M  CHG  2  10  -1  15  -1
M  END
>  <CHROM.1>
-60.21961934,-177.59004510,76.93501612,-45.63652188,93.09852852,-123.03961852
151.64091142,-81.90603146,-6.62687784,39.77355882,-6.07319349,-2.09237634
-0.54101243,-1.62929483

>  <Name>
ligand

>  <RI>
0

>  <Rbt.Current_Directory>
/home/itssahil/PROJECTS/Mol_Feturizer/New_Systems/rnas/3D2V

>  <Rbt.Executable>
rbdock ($Id: //depot/dev/client3/rdock/2013.1/src/exe/rbdock.cxx#4 $)

>  <Rbt.Library>
libRbt.so (2013.1, Build901 2013/11/27)

>  <Rbt.Parameter_File>
/export/apps/rDock/src/rDock_2013.1_src/data/scripts/dock_solv.prm

>  <Rbt.Receptor>
prm/pocket_docking_8.prm

>  <SCORE>
-20.7216

>  <SCORE.INTER>
-19.5946

>  <SCORE.INTER.CONST>
1

>  <SCORE.INTER.POLAR>
0

>  <SCORE.INTER.ROT>
8

>  <SCORE.INTER.SOLV>
27.261

>  <SCORE.INTER.VDW>
-31.0834

>  <SCORE.INTER.norm>
-0.725726

>  <SCORE.INTRA>
-1.12701

>  <SCORE.INTRA.DIHEDRAL>
-0.466831

>  <SCORE.INTRA.DIHEDRAL.0>
7.82666

>  <SCORE.INTRA.POLAR>
0

>  <SCORE.INTRA.POLAR.0>
0

>  <SCORE.INTRA.REPUL>
0

>  <SCORE.INTRA.REPUL.0>
0

>  <SCORE.INTRA.SOLV>
-0.654918

>  <SCORE.INTRA.SOLV.lig_0>
-83.2758

>  <SCORE.INTRA.VDW>
-0.566133

>  <SCORE.INTRA.VDW.0>
-3.26816

>  <SCORE.INTRA.norm>
-0.041741

>  <SCORE.RESTR>
0

>  <SCORE.RESTR.CAVITY>
0

>  <SCORE.RESTR.norm>
0

>  <SCORE.SYSTEM>
0

>  <SCORE.SYSTEM.CONST>
0

>  <SCORE.SYSTEM.DIHEDRAL>
0

>  <SCORE.SYSTEM.SOLV>
0

>  <SCORE.SYSTEM.norm>
0

>  <SCORE.heavy>
27

>  <SCORE.norm>
-0.767467

>  <RMSD>
3.999

$$$$
ligand
 OpenBabel11021811473D
libRbt.so/2013.1/901 2013/11/27
 27 28  0  0  0  0  0  0  0  0999 V2000
   -4.8942   41.2866    0.7402 C   0  0  0  0  0  0  0  0  0  0  0  0
   -8.6006   39.0992   -6.5273 C   0  0  0  0  0  0  0  0  0  0  0  0
   -6.8727   37.4752   -8.3582 C   0  0  0  0  0  0  0  0  0  0  0  0
   -5.9016   38.3632   -9.1386 C   0  0  0  0  0  0  0  0  0  0  0  0
   -6.0944   39.7398   -8.8040 O   0  0  0  0  0  0  0  0  0  0  0  0
   -5.2648   40.8783   -9.5758 P   0  0  1  0  0  0  0  0  0  0  0  0
   -5.8891   43.3926  -10.6915 P   0  0  2  0  0  0  0  0  0  0  0  0
   -5.2104   36.9292   -4.9834 C   0  0  0  0  0  0  0  0  0  0  0  0
   -6.7881   39.9969   -0.2277 N   0  0  0  0  0  0  0  0  0  0  0  0
   -3.8338   41.1118   -8.8942 O   0  5  0  0  0  0  0  0  0  0  0  0
   -6.3160   42.9699  -12.0411 O   0  0  0  0  0  0  0  0  0  0  0  0
   -5.9984   37.6752   -4.1170 C   0  0  0  0  0  0  0  0  0  0  0  0
   -5.6887   40.7353   -0.4442 C   0  0  0  0  0  0  0  0  0  0  0  0
   -4.9882   40.5157  -11.1268 O   0  0  0  0  0  0  0  0  0  0  0  0
   -4.3357   43.7951  -10.6636 O   0  5  0  0  0  0  0  0  0  0  0  0
   -7.0982   38.3748   -4.6158 N   0  0  0  0  0  0  0  0  0  0  0  0
   -5.2777   40.9961   -1.6936 N   0  0  0  0  0  0  0  0  0  0  0  0
   -6.0898   42.2803   -9.5594 O   0  0  0  0  0  0  0  0  0  0  0  0
   -6.6735   44.7023  -10.2294 O   0  0  0  0  0  0  0  0  0  0  0  0
   -7.3919   38.3248   -5.9838 C   0  0  1  0  0  0  0  0  0  0  0  0
   -5.9600   40.5218   -2.7433 C   0  0  0  0  0  0  0  0  0  0  0  0
   -5.5418   40.7853   -3.9771 N   0  0  0  0  0  0  0  0  0  0  0  0
   -6.6005   37.5752   -6.8526 C   0  0  2  0  0  0  0  0  0  0  0  0
   -7.1003   39.7528   -2.5458 C   0  0  0  0  0  0  0  0  0  0  0  0
   -5.5110   36.8823   -6.3392 C   0  0  0  0  0  0  0  0  0  0  0  0
   -7.4925   39.5081   -1.2348 C   0  0  0  0  0  0  0  0  0  0  0  0
   -7.9385   39.1735   -3.6928 C   0  0  0  0  0  0  0  0  0  0  0  0
  1 13  1  0  0  0  0
  3  4  1  0  0  0  0
  4  5  1  0  0  0  0
  6  5  1  1  0  0  0
  6 10  1  0  0  0  0
  6 14  2  0  0  0  0
  6 18  1  0  0  0  0
  7 11  1  6  0  0  0
  7 15  1  0  0  0  0
  7 19  2  0  0  0  0
  7 18  1  0  0  0  0
  8 25  1  0  0  0  0
  8 12  1  0  0  0  0
  9 26  2  0  0  0  0
  9 13  1  0  0  0  0
 12 16  1  0  0  0  0
 13 17  2  0  0  0  0
 16 20  1  0  0  0  0
 16 27  1  0  0  0  0
 17 21  1  0  0  0  0
 20  2  1  1  0  0  0
 20 23  1  0  0  0  0
 21 22  1  0  0  0  0
 21 24  2  0  0  0  0
 23  3  1  6  0  0  0
 23 25  1  0  0  0  0
 24 27  1  0  0  0  0
 24 26  1  0  0  0  0
M  CHG  2  10  -1  15  -1
M  END
>  <CHROM.1>
-63.37170329,-175.46538763,-85.68091677,-153.89651405,65.02935068,102.87297351
54.37173981,32.23379738,-6.05115702,40.40666756,-6.63946157,-2.00178743,-1.39191153
-1.70615065

>  <Name>
ligand

>  <RI>
0

>  <Rbt.Current_Directory>
/home/itssahil/PROJECTS/Mol_Feturizer/New_Systems/rnas/3D2V

>  <Rbt.Executable>
rbdock ($Id: //depot/dev/client3/rdock/2013.1/src/exe/rbdock.cxx#4 $)

>  <Rbt.Library>
libRbt.so (2013.1, Build901 2013/11/27)

>  <Rbt.Parameter_File>
/export/apps/rDock/src/rDock_2013.1_src/data/scripts/dock_solv.prm

>  <Rbt.Receptor>
prm/pocket_docking_7.prm

>  <SCORE>
-14.8968

>  <SCORE.INTER>
-15.2018

>  <SCORE.INTER.CONST>
1

>  <SCORE.INTER.POLAR>
0

>  <SCORE.INTER.ROT>
8

>  <SCORE.INTER.SOLV>
13.916

>  <SCORE.INTER.VDW>
-23.7065

>  <SCORE.INTER.norm>
-0.563028

>  <SCORE.INTRA>
0.305006

>  <SCORE.INTRA.DIHEDRAL>
-0.528427

>  <SCORE.INTRA.DIHEDRAL.0>
7.82666

>  <SCORE.INTRA.POLAR>
0

>  <SCORE.INTRA.POLAR.0>
0

>  <SCORE.INTRA.REPUL>
0

>  <SCORE.INTRA.REPUL.0>
0

>  <SCORE.INTRA.SOLV>
1.73985

>  <SCORE.INTRA.SOLV.lig_0>
-83.2758

>  <SCORE.INTRA.VDW>
-0.300706

>  <SCORE.INTRA.VDW.0>
-3.26816

>  <SCORE.INTRA.norm>
0.0112965

>  <SCORE.RESTR>
0

>  <SCORE.RESTR.CAVITY>
0

>  <SCORE.RESTR.norm>
0

>  <SCORE.SYSTEM>
0

>  <SCORE.SYSTEM.CONST>
0

>  <SCORE.SYSTEM.DIHEDRAL>
0

>  <SCORE.SYSTEM.SOLV>
0

>  <SCORE.SYSTEM.norm>
0

>  <SCORE.heavy>
27

>  <SCORE.norm>
-0.551732

>  <RMSD>
4.007

$$$$
ligand
 OpenBabel11021811473D
libRbt.so/2013.1/901 2013/11/27
 27 28  0  0  0  0  0  0  0  0999 V2000
   -6.0371   41.0882   -0.2925 C   0  0  0  0  0  0  0  0  0  0  0  0
   -5.3296   41.7534   -6.2006 C   0  0  0  0  0  0  0  0  0  0  0  0
   -7.4814   42.2109   -8.2343 C   0  0  0  0  0  0  0  0  0  0  0  0
   -6.4982   42.7851   -9.2562 C   0  0  0  0  0  0  0  0  0  0  0  0
   -6.9182   44.0812   -9.6896 O   0  0  0  0  0  0  0  0  0  0  0  0
   -5.9656   44.9588  -10.6396 P   0  0  1  0  0  0  0  0  0  0  0  0
   -4.4280   46.2876   -8.6835 P   0  0  2  0  0  0  0  0  0  0  0  0
   -7.3449   38.4168   -8.0425 C   0  0  0  0  0  0  0  0  0  0  0  0
   -4.5494   40.9158   -2.2785 N   0  0  0  0  0  0  0  0  0  0  0  0
   -5.6778   44.2045  -12.0236 O   0  5  0  0  0  0  0  0  0  0  0  0
   -4.6432   47.6981   -9.0667 O   0  0  0  0  0  0  0  0  0  0  0  0
   -6.3509   38.1821   -7.1017 C   0  0  0  0  0  0  0  0  0  0  0  0
   -5.6815   40.5290   -1.6704 C   0  0  0  0  0  0  0  0  0  0  0  0
   -6.6017   46.3964  -11.0165 O   0  0  0  0  0  0  0  0  0  0  0  0
   -2.9749   46.0669   -8.0389 O   0  5  0  0  0  0  0  0  0  0  0  0
   -5.7008   39.2620   -6.5025 N   0  0  0  0  0  0  0  0  0  0  0  0
   -6.5077   39.6534   -2.2610 N   0  0  0  0  0  0  0  0  0  0  0  0
   -4.5487   45.2507   -9.8956 O   0  0  0  0  0  0  0  0  0  0  0  0
   -5.4632   45.8388   -7.5561 O   0  0  0  0  0  0  0  0  0  0  0  0
   -6.0504   40.5696   -6.8603 C   0  0  1  0  0  0  0  0  0  0  0  0
   -6.2135   39.1531   -3.4674 C   0  0  0  0  0  0  0  0  0  0  0  0
   -7.0411   38.2874   -4.0436 N   0  0  0  0  0  0  0  0  0  0  0  0
   -7.0488   40.8041   -7.8045 C   0  0  1  0  0  0  0  0  0  0  0  0
   -5.0486   39.5395   -4.1189 C   0  0  0  0  0  0  0  0  0  0  0  0
   -7.6880   39.7178   -8.3894 C   0  0  0  0  0  0  0  0  0  0  0  0
   -4.2193   40.4474   -3.4705 C   0  0  0  0  0  0  0  0  0  0  0  0
   -4.6381   39.0130   -5.5003 C   0  0  0  0  0  0  0  0  0  0  0  0
  1 13  1  0  0  0  0
  3  4  1  0  0  0  0
  4  5  1  0  0  0  0
  6  5  1  1  0  0  0
  6 10  1  0  0  0  0
  6 14  2  0  0  0  0
  6 18  1  0  0  0  0
  7 11  1  6  0  0  0
  7 15  1  0  0  0  0
  7 19  2  0  0  0  0
  7 18  1  0  0  0  0
  8 25  1  0  0  0  0
  8 12  1  0  0  0  0
  9 26  2  0  0  0  0
  9 13  1  0  0  0  0
 12 16  1  0  0  0  0
 13 17  2  0  0  0  0
 16 20  1  0  0  0  0
 16 27  1  0  0  0  0
 17 21  1  0  0  0  0
 20  2  1  1  0  0  0
 20 23  1  0  0  0  0
 21 22  1  0  0  0  0
 21 24  2  0  0  0  0
 23  3  1  1  0  0  0
 23 25  1  0  0  0  0
 24 27  1  0  0  0  0
 24 26  1  0  0  0  0
M  CHG  2  10  -1  15  -1
M  END
>  <CHROM.1>
178.31162338,173.22977009,60.48616993,-73.14220703,-67.86486337,80.00789456
55.99800035,-115.54770177,-5.71621820,42.49087008,-7.11362127,-1.71480260
-1.14538336,-0.93797009

>  <Name>
ligand

>  <RI>
0

>  <Rbt.Current_Directory>
/home/itssahil/PROJECTS/Mol_Feturizer/New_Systems/rnas/3D2V

>  <Rbt.Executable>
rbdock ($Id: //depot/dev/client3/rdock/2013.1/src/exe/rbdock.cxx#4 $)

>  <Rbt.Library>
libRbt.so (2013.1, Build901 2013/11/27)

>  <Rbt.Parameter_File>
/export/apps/rDock/src/rDock_2013.1_src/data/scripts/dock_solv.prm

>  <Rbt.Receptor>
prm/pocket_docking_8.prm

>  <SCORE>
-11.5454

>  <SCORE.INTER>
-10.7052

>  <SCORE.INTER.CONST>
1

>  <SCORE.INTER.POLAR>
0

>  <SCORE.INTER.ROT>
8

>  <SCORE.INTER.SOLV>
16.5306

>  <SCORE.INTER.VDW>
-21.5803

>  <SCORE.INTER.norm>
-0.39649

>  <SCORE.INTRA>
-0.840174

>  <SCORE.INTRA.DIHEDRAL>
-2.05219

>  <SCORE.INTRA.DIHEDRAL.0>
7.82666

>  <SCORE.INTRA.POLAR>
0

>  <SCORE.INTRA.POLAR.0>
0

>  <SCORE.INTRA.REPUL>
0

>  <SCORE.INTRA.REPUL.0>
0

>  <SCORE.INTRA.SOLV>
1.2315

>  <SCORE.INTRA.SOLV.lig_0>
-83.2758

>  <SCORE.INTRA.VDW>
-0.429826

>  <SCORE.INTRA.VDW.0>
-3.26816

>  <SCORE.INTRA.norm>
-0.0311175

>  <SCORE.RESTR>
0

>  <SCORE.RESTR.CAVITY>
0

>  <SCORE.RESTR.norm>
0

>  <SCORE.SYSTEM>
0

>  <SCORE.SYSTEM.CONST>
0

>  <SCORE.SYSTEM.DIHEDRAL>
0

>  <SCORE.SYSTEM.SOLV>
0

>  <SCORE.SYSTEM.norm>
0

>  <SCORE.heavy>
27

>  <SCORE.norm>
-0.427607

>  <RMSD>
4.024

$$$$
ligand
 OpenBabel11021811463D
libRbt.so/2013.1/901 2013/11/27
 27 28  0  0  0  0  0  0  0  0999 V2000
  -11.3328   37.6138   -2.8212 C   0  0  0  0  0  0  0  0  0  0  0  0
   -5.9253   43.4946   -0.7392 C   0  0  0  0  0  0  0  0  0  0  0  0
   -3.8292   44.1026   -2.7915 C   0  0  0  0  0  0  0  0  0  0  0  0
   -3.7201   44.5094   -4.2623 C   0  0  0  0  0  0  0  0  0  0  0  0
   -2.5349   45.2764   -4.4886 O   0  0  0  0  0  0  0  0  0  0  0  0
   -1.1066   44.5453   -4.5634 P   0  0  1  0  0  0  0  0  0  0  0  0
   -0.0999   46.4638   -6.3695 P   0  0  2  0  0  0  0  0  0  0  0  0
   -4.5939   40.4427   -3.4777 C   0  0  0  0  0  0  0  0  0  0  0  0
   -9.8702   38.3800   -0.9608 N   0  0  0  0  0  0  0  0  0  0  0  0
   -0.6973   43.9313   -3.1413 O   0  5  0  0  0  0  0  0  0  0  0  0
    1.1175   47.2155   -6.7378 O   0  0  0  0  0  0  0  0  0  0  0  0
   -5.5670   40.1395   -2.5347 C   0  0  0  0  0  0  0  0  0  0  0  0
  -10.1931   38.4651   -2.2606 C   0  0  0  0  0  0  0  0  0  0  0  0
   -1.0772   43.3248   -5.6233 O   0  0  0  0  0  0  0  0  0  0  0  0
   -1.3538   47.4419   -6.1532 O   0  5  0  0  0  0  0  0  0  0  0  0
   -6.0010   41.1282   -1.6505 N   0  0  0  0  0  0  0  0  0  0  0  0
   -9.5239   39.2923   -3.0766 N   0  0  0  0  0  0  0  0  0  0  0  0
    0.0394   45.6018   -5.0291 O   0  0  0  0  0  0  0  0  0  0  0  0
   -0.5342   45.4725   -7.5411 O   0  0  0  0  0  0  0  0  0  0  0  0
   -5.4467   42.4122   -1.7166 C   0  0  1  0  0  0  0  0  0  0  0  0
   -8.5232   40.0458   -2.6041 C   0  0  0  0  0  0  0  0  0  0  0  0
   -7.8684   40.8634   -3.4221 N   0  0  0  0  0  0  0  0  0  0  0  0
   -4.4703   42.7157   -2.6640 C   0  0  2  0  0  0  0  0  0  0  0  0
   -8.1710   39.9777   -1.2616 C   0  0  0  0  0  0  0  0  0  0  0  0
   -4.0515   41.7205   -3.5387 C   0  0  0  0  0  0  0  0  0  0  0  0
   -8.8890   39.1057   -0.4513 C   0  0  0  0  0  0  0  0  0  0  0  0
   -7.0375   40.8054   -0.6419 C   0  0  0  0  0  0  0  0  0  0  0  0
  1 13  1  0  0  0  0
  3  4  1  0  0  0  0
  4  5  1  0  0  0  0
  6  5  1  1  0  0  0
  6 10  1  0  0  0  0
  6 14  2  0  0  0  0
  6 18  1  0  0  0  0
  7 11  1  6  0  0  0
  7 15  1  0  0  0  0
  7 19  2  0  0  0  0
  7 18  1  0  0  0  0
  8 25  1  0  0  0  0
  8 12  1  0  0  0  0
  9 26  2  0  0  0  0
  9 13  1  0  0  0  0
 12 16  1  0  0  0  0
 13 17  2  0  0  0  0
 16 20  1  0  0  0  0
 16 27  1  0  0  0  0
 17 21  1  0  0  0  0
 20  2  1  6  0  0  0
 20 23  1  0  0  0  0
 21 22  1  0  0  0  0
 21 24  2  0  0  0  0
 23  3  1  1  0  0  0
 23 25  1  0  0  0  0
 24 27  1  0  0  0  0
 24 26  1  0  0  0  0
M  CHG  2  10  -1  15  -1
M  END
>  <CHROM.1>
-145.39467884,76.44021011,-67.08557940,-54.27056089,-171.30128190,-136.58137143
-27.77924928,-43.74109028,-4.30872329,42.82193247,-3.64063648,2.81220692
0.66517306,1.53469673

>  <Name>
ligand

>  <RI>
0

>  <Rbt.Current_Directory>
/home/itssahil/PROJECTS/Mol_Feturizer/New_Systems/rnas/3D2V

>  <Rbt.Executable>
rbdock ($Id: //depot/dev/client3/rdock/2013.1/src/exe/rbdock.cxx#4 $)

>  <Rbt.Library>
libRbt.so (2013.1, Build901 2013/11/27)

>  <Rbt.Parameter_File>
/export/apps/rDock/src/rDock_2013.1_src/data/scripts/dock_solv.prm

>  <Rbt.Receptor>
prm/blind_docking_60.prm

>  <SCORE>
-14.7829

>  <SCORE.INTER>
-20.2217

>  <SCORE.INTER.CONST>
1

>  <SCORE.INTER.POLAR>
0

>  <SCORE.INTER.ROT>
8

>  <SCORE.INTER.SOLV>
18.8583

>  <SCORE.INTER.VDW>
-28.7006

>  <SCORE.INTER.norm>
-0.748953

>  <SCORE.INTRA>
5.29536

>  <SCORE.INTRA.DIHEDRAL>
2.29633

>  <SCORE.INTRA.DIHEDRAL.0>
7.82666

>  <SCORE.INTRA.POLAR>
0

>  <SCORE.INTRA.POLAR.0>
0

>  <SCORE.INTRA.REPUL>
0

>  <SCORE.INTRA.REPUL.0>
0

>  <SCORE.INTRA.SOLV>
5.24236

>  <SCORE.INTRA.SOLV.lig_0>
-83.2758

>  <SCORE.INTRA.VDW>
1.52601

>  <SCORE.INTRA.VDW.0>
-3.26816

>  <SCORE.INTRA.norm>
0.196124

>  <SCORE.RESTR>
0.143489

>  <SCORE.RESTR.CAVITY>
0.143489

>  <SCORE.RESTR.norm>
0.00531439

>  <SCORE.SYSTEM>
0

>  <SCORE.SYSTEM.CONST>
0

>  <SCORE.SYSTEM.DIHEDRAL>
0

>  <SCORE.SYSTEM.SOLV>
0

>  <SCORE.SYSTEM.norm>
0

>  <SCORE.heavy>
27

>  <SCORE.norm>
-0.547514

>  <RMSD>
4.034

$$$$
ligand
 OpenBabel11021811473D
libRbt.so/2013.1/901 2013/11/27
 27 28  0  0  0  0  0  0  0  0999 V2000
   -5.8722   43.7759   -0.1674 C   0  0  0  0  0  0  0  0  0  0  0  0
   -4.9165   38.2896   -5.2430 C   0  0  0  0  0  0  0  0  0  0  0  0
   -5.8801   38.8472   -8.0244 C   0  0  0  0  0  0  0  0  0  0  0  0
   -5.4949   40.1740   -8.6814 C   0  0  0  0  0  0  0  0  0  0  0  0
   -4.7814   39.9471   -9.8995 O   0  0  0  0  0  0  0  0  0  0  0  0
   -4.3533   41.1893  -10.8234 P   0  0  1  0  0  0  0  0  0  0  0  0
   -5.4969   43.5571  -11.8442 P   0  0  2  0  0  0  0  0  0  0  0  0
   -8.8830   39.8393   -5.9150 C   0  0  0  0  0  0  0  0  0  0  0  0
   -5.3378   42.1359   -1.9595 N   0  0  0  0  0  0  0  0  0  0  0  0
   -3.2086   42.0633  -10.1213 O   0  5  0  0  0  0  0  0  0  0  0  0
   -6.7761   44.2669  -12.0498 O   0  0  0  0  0  0  0  0  0  0  0  0
   -8.4563   39.5885   -4.6176 C   0  0  0  0  0  0  0  0  0  0  0  0
   -6.1084   42.4603   -0.9098 C   0  0  0  0  0  0  0  0  0  0  0  0
   -3.7750   40.7351  -12.2632 O   0  0  0  0  0  0  0  0  0  0  0  0
   -4.7489   43.2751  -13.2358 O   0  5  0  0  0  0  0  0  0  0  0  0
   -7.1710   39.0904   -4.3994 N   0  0  0  0  0  0  0  0  0  0  0  0
   -7.0874   41.6392   -0.5032 N   0  0  0  0  0  0  0  0  0  0  0  0
   -5.6399   42.1423  -11.1114 O   0  0  0  0  0  0  0  0  0  0  0  0
   -4.4828   44.4450  -10.9915 O   0  0  0  0  0  0  0  0  0  0  0  0
   -6.3278   38.8409   -5.4888 C   0  0  1  0  0  0  0  0  0  0  0  0
   -7.3096   40.4832   -1.1408 C   0  0  0  0  0  0  0  0  0  0  0  0
   -8.2842   39.6784   -0.7298 N   0  0  0  0  0  0  0  0  0  0  0  0
   -6.7569   39.0934   -6.7908 C   0  0  1  0  0  0  0  0  0  0  0  0
   -6.5270   40.1254   -2.2319 C   0  0  0  0  0  0  0  0  0  0  0  0
   -8.0384   39.5920   -6.9903 C   0  0  0  0  0  0  0  0  0  0  0  0
   -5.5218   41.0042   -2.6188 C   0  0  0  0  0  0  0  0  0  0  0  0
   -6.7153   38.8199   -3.0156 C   0  0  0  0  0  0  0  0  0  0  0  0
  1 13  1  0  0  0  0
  3  4  1  0  0  0  0
  4  5  1  0  0  0  0
  6  5  1  1  0  0  0
  6 10  1  0  0  0  0
  6 14  2  0  0  0  0
  6 18  1  0  0  0  0
  7 11  1  6  0  0  0
  7 15  1  0  0  0  0
  7 19  2  0  0  0  0
  7 18  1  0  0  0  0
  8 25  1  0  0  0  0
  8 12  1  0  0  0  0
  9 26  2  0  0  0  0
  9 13  1  0  0  0  0
 12 16  1  0  0  0  0
 13 17  2  0  0  0  0
 16 20  1  0  0  0  0
 16 27  1  0  0  0  0
 17 21  1  0  0  0  0
 20  2  1  1  0  0  0
 20 23  1  0  0  0  0
 21 22  1  0  0  0  0
 21 24  2  0  0  0  0
 23  3  1  1  0  0  0
 23 25  1  0  0  0  0
 24 27  1  0  0  0  0
 24 26  1  0  0  0  0
M  CHG  2  10  -1  15  -1
M  END
>  <CHROM.1>
-174.68571615,175.96150907,69.44507556,172.04646781,178.53726231,-111.64509728
113.86541410,-69.16296367,-5.88465763,41.13535823,-7.02547479,-2.44981019
-1.32104583,-2.25239730

>  <Name>
ligand

>  <RI>
0

>  <Rbt.Current_Directory>
/home/itssahil/PROJECTS/Mol_Feturizer/New_Systems/rnas/3D2V

>  <Rbt.Executable>
rbdock ($Id: //depot/dev/client3/rdock/2013.1/src/exe/rbdock.cxx#4 $)

>  <Rbt.Library>
libRbt.so (2013.1, Build901 2013/11/27)

>  <Rbt.Parameter_File>
/export/apps/rDock/src/rDock_2013.1_src/data/scripts/dock_solv.prm

>  <Rbt.Receptor>
prm/pocket_docking_7.prm

>  <SCORE>
-12.634

>  <SCORE.INTER>
-12.1706

>  <SCORE.INTER.CONST>
1

>  <SCORE.INTER.POLAR>
0

>  <SCORE.INTER.ROT>
8

>  <SCORE.INTER.SOLV>
21.7565

>  <SCORE.INTER.VDW>
-24.2992

>  <SCORE.INTER.norm>
-0.450763

>  <SCORE.INTRA>
-0.463355

>  <SCORE.INTRA.DIHEDRAL>
-2.21415

>  <SCORE.INTRA.DIHEDRAL.0>
7.82666

>  <SCORE.INTRA.POLAR>
0

>  <SCORE.INTRA.POLAR.0>
0

>  <SCORE.INTRA.REPUL>
0

>  <SCORE.INTRA.REPUL.0>
0

>  <SCORE.INTRA.SOLV>
1.5253

>  <SCORE.INTRA.SOLV.lig_0>
-83.2758

>  <SCORE.INTRA.VDW>
-0.118932

>  <SCORE.INTRA.VDW.0>
-3.26816

>  <SCORE.INTRA.norm>
-0.0171613

>  <SCORE.RESTR>
0

>  <SCORE.RESTR.CAVITY>
0

>  <SCORE.RESTR.norm>
0

>  <SCORE.SYSTEM>
0

>  <SCORE.SYSTEM.CONST>
0

>  <SCORE.SYSTEM.DIHEDRAL>
0

>  <SCORE.SYSTEM.SOLV>
0

>  <SCORE.SYSTEM.norm>
0

>  <SCORE.heavy>
27

>  <SCORE.norm>
-0.467924

>  <RMSD>
4.041

$$$$
ligand
 OpenBabel11021811473D
libRbt.so/2013.1/901 2013/11/27
 27 28  0  0  0  0  0  0  0  0999 V2000
  -11.6202   37.9168   -1.7968 C   0  0  0  0  0  0  0  0  0  0  0  0
   -4.7680   40.8478   -3.2375 C   0  0  0  0  0  0  0  0  0  0  0  0
   -4.6148   43.7926   -3.7670 C   0  0  0  0  0  0  0  0  0  0  0  0
   -5.4365   43.6611   -5.0507 C   0  0  0  0  0  0  0  0  0  0  0  0
   -4.7948   44.3386   -6.1339 O   0  0  0  0  0  0  0  0  0  0  0  0
   -4.9416   45.9308   -6.2858 P   0  0  1  0  0  0  0  0  0  0  0  0
   -6.4830   46.0420   -8.6455 P   0  0  2  0  0  0  0  0  0  0  0  0
   -6.7434   43.6472   -0.6207 C   0  0  0  0  0  0  0  0  0  0  0  0
   -9.7148   38.5736   -0.3390 N   0  0  0  0  0  0  0  0  0  0  0  0
   -4.9619   46.6478   -4.8530 O   0  5  0  0  0  0  0  0  0  0  0  0
   -5.6131   46.8853   -9.4908 O   0  0  0  0  0  0  0  0  0  0  0  0
   -6.8267   42.2865   -0.3565 C   0  0  0  0  0  0  0  0  0  0  0  0
  -10.2033   38.4502   -1.5828 C   0  0  0  0  0  0  0  0  0  0  0  0
   -3.7314   46.5992   -7.1237 O   0  0  0  0  0  0  0  0  0  0  0  0
   -8.0351   46.2728   -8.9822 O   0  5  0  0  0  0  0  0  0  0  0  0
   -6.1843   41.3802   -1.2012 N   0  0  0  0  0  0  0  0  0  0  0  0
   -9.4588   38.7912   -2.6446 N   0  0  0  0  0  0  0  0  0  0  0  0
   -6.3176   46.2934   -7.0743 O   0  0  0  0  0  0  0  0  0  0  0  0
   -6.2167   44.4935   -8.9198 O   0  0  0  0  0  0  0  0  0  0  0  0
   -5.4696   41.8495   -2.3099 C   0  0  1  0  0  0  0  0  0  0  0  0
   -8.2162   39.2604   -2.4773 C   0  0  0  0  0  0  0  0  0  0  0  0
   -7.4885   39.5969   -3.5373 N   0  0  0  0  0  0  0  0  0  0  0  0
   -5.3861   43.2156   -2.5740 C   0  0  2  0  0  0  0  0  0  0  0  0
   -7.6881   39.3997   -1.1996 C   0  0  0  0  0  0  0  0  0  0  0  0
   -6.0291   44.1046   -1.7214 C   0  0  0  0  0  0  0  0  0  0  0  0
   -8.4927   39.0328   -0.1270 C   0  0  0  0  0  0  0  0  0  0  0  0
   -6.2746   39.9277   -0.9219 C   0  0  0  0  0  0  0  0  0  0  0  0
  1 13  1  0  0  0  0
  3  4  1  0  0  0  0
  4  5  1  0  0  0  0
  6  5  1  1  0  0  0
  6 10  1  0  0  0  0
  6 14  2  0  0  0  0
  6 18  1  0  0  0  0
  7 11  1  6  0  0  0
  7 15  1  0  0  0  0
  7 19  2  0  0  0  0
  7 18  1  0  0  0  0
  8 25  1  0  0  0  0
  8 12  1  0  0  0  0
  9 26  2  0  0  0  0
  9 13  1  0  0  0  0
 12 16  1  0  0  0  0
 13 17  2  0  0  0  0
 16 20  1  0  0  0  0
 16 27  1  0  0  0  0
 17 21  1  0  0  0  0
 20  2  1  1  0  0  0
 20 23  1  0  0  0  0
 21 22  1  0  0  0  0
 21 24  2  0  0  0  0
 23  3  1  6  0  0  0
 23 25  1  0  0  0  0
 24 27  1  0  0  0  0
 24 26  1  0  0  0  0
M  CHG  2  10  -1  15  -1
M  END
>  <CHROM.1>
173.05578445,-80.48671773,36.25489095,-72.82279913,-66.31469513,79.06453561
71.28573447,70.64965088,-6.59503400,43.00360789,-4.33899647,1.95749470,0.68513524
2.12341796

>  <Name>
ligand

>  <RI>
0

>  <Rbt.Current_Directory>
/home/itssahil/PROJECTS/Mol_Feturizer/New_Systems/rnas/3D2V

>  <Rbt.Executable>
rbdock ($Id: //depot/dev/client3/rdock/2013.1/src/exe/rbdock.cxx#4 $)

>  <Rbt.Library>
libRbt.so (2013.1, Build901 2013/11/27)

>  <Rbt.Parameter_File>
/export/apps/rDock/src/rDock_2013.1_src/data/scripts/dock_solv.prm

>  <Rbt.Receptor>
prm/pocket_docking_5.prm

>  <SCORE>
-19.0762

>  <SCORE.INTER>
-20.4633

>  <SCORE.INTER.CONST>
1

>  <SCORE.INTER.POLAR>
0

>  <SCORE.INTER.ROT>
8

>  <SCORE.INTER.SOLV>
13.8209

>  <SCORE.INTER.VDW>
-27.1825

>  <SCORE.INTER.norm>
-0.757898

>  <SCORE.INTRA>
1.38242

>  <SCORE.INTRA.DIHEDRAL>
0.551434

>  <SCORE.INTRA.DIHEDRAL.0>
7.82666

>  <SCORE.INTRA.POLAR>
0

>  <SCORE.INTRA.POLAR.0>
0

>  <SCORE.INTRA.REPUL>
0

>  <SCORE.INTRA.REPUL.0>
0

>  <SCORE.INTRA.SOLV>
2.62587

>  <SCORE.INTRA.SOLV.lig_0>
-83.2758

>  <SCORE.INTRA.VDW>
-0.206232

>  <SCORE.INTRA.VDW.0>
-3.26816

>  <SCORE.INTRA.norm>
0.0512008

>  <SCORE.RESTR>
0.00461956

>  <SCORE.RESTR.CAVITY>
0.00461956

>  <SCORE.RESTR.norm>
0.000171095

>  <SCORE.SYSTEM>
0

>  <SCORE.SYSTEM.CONST>
0

>  <SCORE.SYSTEM.DIHEDRAL>
0

>  <SCORE.SYSTEM.SOLV>
0

>  <SCORE.SYSTEM.norm>
0

>  <SCORE.heavy>
27

>  <SCORE.norm>
-0.706526

>  <RMSD>
4.047

$$$$
ligand
 OpenBabel11021811473D
libRbt.so/2013.1/901 2013/11/27
 27 28  0  0  0  0  0  0  0  0999 V2000
   -8.2086   39.3893   -1.6892 C   0  0  0  0  0  0  0  0  0  0  0  0
   -6.0120   38.2269   -9.6227 C   0  0  0  0  0  0  0  0  0  0  0  0
   -4.5186   40.5255  -10.8316 C   0  0  0  0  0  0  0  0  0  0  0  0
   -4.8510   41.9948  -11.0990 C   0  0  0  0  0  0  0  0  0  0  0  0
   -6.1230   42.3352  -10.5419 O   0  0  0  0  0  0  0  0  0  0  0  0
   -6.5391   43.8773  -10.3717 P   0  0  1  0  0  0  0  0  0  0  0  0
   -5.6007   46.1975   -9.0709 P   0  0  2  0  0  0  0  0  0  0  0  0
   -3.7128   40.8934   -7.1348 C   0  0  0  0  0  0  0  0  0  0  0  0
   -6.3692   38.4628   -3.0839 N   0  0  0  0  0  0  0  0  0  0  0  0
   -6.5278   44.6371  -11.7823 O   0  5  0  0  0  0  0  0  0  0  0  0
   -5.0493   46.6066   -7.7628 O   0  0  0  0  0  0  0  0  0  0  0  0
   -4.3969   39.8338   -6.5539 C   0  0  0  0  0  0  0  0  0  0  0  0
   -7.6050   38.9837   -3.0341 C   0  0  0  0  0  0  0  0  0  0  0  0
   -8.0205   44.0667   -9.7528 O   0  0  0  0  0  0  0  0  0  0  0  0
   -7.1499   46.5940   -9.2077 O   0  5  0  0  0  0  0  0  0  0  0  0
   -5.1382   38.9682   -7.3593 N   0  0  0  0  0  0  0  0  0  0  0  0
   -8.3191   39.1530   -4.1563 N   0  0  0  0  0  0  0  0  0  0  0  0
   -5.5070   44.6274   -9.3625 O   0  0  0  0  0  0  0  0  0  0  0  0
   -4.8630   46.9575  -10.2634 O   0  0  0  0  0  0  0  0  0  0  0  0
   -5.1921   39.1800   -8.7422 C   0  0  1  0  0  0  0  0  0  0  0  0
   -7.8074   38.8042   -5.3433 C   0  0  0  0  0  0  0  0  0  0  0  0
   -8.5240   38.9785   -6.4489 N   0  0  0  0  0  0  0  0  0  0  0  0
   -4.5046   40.2437   -9.3245 C   0  0  1  0  0  0  0  0  0  0  0  0
   -6.5292   38.2648   -5.4217 C   0  0  0  0  0  0  0  0  0  0  0  0
   -3.7688   41.0944   -8.5086 C   0  0  0  0  0  0  0  0  0  0  0  0
   -5.8242   38.1044   -4.2344 C   0  0  0  0  0  0  0  0  0  0  0  0
   -5.8709   37.8386   -6.7404 C   0  0  0  0  0  0  0  0  0  0  0  0
  1 13  1  0  0  0  0
  3  4  1  0  0  0  0
  4  5  1  0  0  0  0
  6  5  1  6  0  0  0
  6 10  1  0  0  0  0
  6 14  2  0  0  0  0
  6 18  1  0  0  0  0
  7 11  1  1  0  0  0
  7 15  1  0  0  0  0
  7 19  2  0  0  0  0
  7 18  1  0  0  0  0
  8 25  1  0  0  0  0
  8 12  1  0  0  0  0
  9 26  2  0  0  0  0
  9 13  1  0  0  0  0
 12 16  1  0  0  0  0
 13 17  2  0  0  0  0
 16 20  1  0  0  0  0
 16 27  1  0  0  0  0
 17 21  1  0  0  0  0
 20  2  1  6  0  0  0
 20 23  1  0  0  0  0
 21 22  1  0  0  0  0
 21 24  2  0  0  0  0
 23  3  1  6  0  0  0
 23 25  1  0  0  0  0
 24 27  1  0  0  0  0
 24 26  1  0  0  0  0
M  CHG  2  10  -1  15  -1
M  END
>  <CHROM.1>
-58.70705875,165.12630237,58.95442057,175.76439164,154.15701989,130.28492778
88.85808034,40.35666352,-6.05810505,41.79673314,-7.96700096,1.87555673,-1.19200729
2.75465464

>  <Name>
ligand

>  <RI>
0

>  <Rbt.Current_Directory>
/home/itssahil/PROJECTS/Mol_Feturizer/New_Systems/rnas/3D2V

>  <Rbt.Executable>
rbdock ($Id: //depot/dev/client3/rdock/2013.1/src/exe/rbdock.cxx#4 $)

>  <Rbt.Library>
libRbt.so (2013.1, Build901 2013/11/27)

>  <Rbt.Parameter_File>
/export/apps/rDock/src/rDock_2013.1_src/data/scripts/dock_solv.prm

>  <Rbt.Receptor>
prm/pocket_docking_4.prm

>  <SCORE>
-13.4115

>  <SCORE.INTER>
-14.3249

>  <SCORE.INTER.CONST>
1

>  <SCORE.INTER.POLAR>
0

>  <SCORE.INTER.ROT>
8

>  <SCORE.INTER.SOLV>
24.1586

>  <SCORE.INTER.VDW>
-26.5361

>  <SCORE.INTER.norm>
-0.530551

>  <SCORE.INTRA>
0.913344

>  <SCORE.INTRA.DIHEDRAL>
-0.622337

>  <SCORE.INTRA.DIHEDRAL.0>
7.82666

>  <SCORE.INTRA.POLAR>
0

>  <SCORE.INTRA.POLAR.0>
0

>  <SCORE.INTRA.REPUL>
0

>  <SCORE.INTRA.REPUL.0>
0

>  <SCORE.INTRA.SOLV>
2.21217

>  <SCORE.INTRA.SOLV.lig_0>
-83.2758

>  <SCORE.INTRA.VDW>
0.118429

>  <SCORE.INTRA.VDW.0>
-3.26816

>  <SCORE.INTRA.norm>
0.0338276

>  <SCORE.RESTR>
0

>  <SCORE.RESTR.CAVITY>
0

>  <SCORE.RESTR.norm>
0

>  <SCORE.SYSTEM>
0

>  <SCORE.SYSTEM.CONST>
0

>  <SCORE.SYSTEM.DIHEDRAL>
0

>  <SCORE.SYSTEM.SOLV>
0

>  <SCORE.SYSTEM.norm>
0

>  <SCORE.heavy>
27

>  <SCORE.norm>
-0.496724

>  <RMSD>
4.087

$$$$
ligand
 OpenBabel11021811473D
libRbt.so/2013.1/901 2013/11/27
 27 28  0  0  0  0  0  0  0  0999 V2000
   -8.3339   39.5238   -1.5970 C   0  0  0  0  0  0  0  0  0  0  0  0
   -5.9897   38.2935   -9.4801 C   0  0  0  0  0  0  0  0  0  0  0  0
   -4.5371   40.6100  -10.7046 C   0  0  0  0  0  0  0  0  0  0  0  0
   -4.1866   42.0696  -11.0000 C   0  0  0  0  0  0  0  0  0  0  0  0
   -5.3656   42.8779  -11.0255 O   0  0  0  0  0  0  0  0  0  0  0  0
   -5.2981   44.3801  -11.5903 P   0  0  1  0  0  0  0  0  0  0  0  0
   -6.0498   45.7818   -9.2609 P   0  0  2  0  0  0  0  0  0  0  0  0
   -3.7995   41.0597   -7.0026 C   0  0  0  0  0  0  0  0  0  0  0  0
   -6.4600   38.6023   -2.9483 N   0  0  0  0  0  0  0  0  0  0  0  0
   -4.1686   44.5225  -12.7178 O   0  5  0  0  0  0  0  0  0  0  0  0
   -7.2729   46.4254   -9.7827 O   0  0  0  0  0  0  0  0  0  0  0  0
   -4.4652   39.9924   -6.4144 C   0  0  0  0  0  0  0  0  0  0  0  0
   -7.7005   39.1137   -2.9268 C   0  0  0  0  0  0  0  0  0  0  0  0
   -6.6873   44.8660  -12.2591 O   0  0  0  0  0  0  0  0  0  0  0  0
   -5.3012   46.7172   -8.1929 O   0  5  0  0  0  0  0  0  0  0  0  0
   -5.1712   39.0946   -7.2164 N   0  0  0  0  0  0  0  0  0  0  0  0
   -8.3935   39.2695   -4.0641 N   0  0  0  0  0  0  0  0  0  0  0  0
   -4.9681   45.4181  -10.3819 O   0  0  0  0  0  0  0  0  0  0  0  0
   -6.4028   44.4403   -8.4737 O   0  0  0  0  0  0  0  0  0  0  0  0
   -5.2087   39.2821   -8.6033 C   0  0  1  0  0  0  0  0  0  0  0  0
   -7.8556   38.9165   -5.2381 C   0  0  0  0  0  0  0  0  0  0  0  0
   -8.5515   39.0774   -6.3590 N   0  0  0  0  0  0  0  0  0  0  0  0
   -4.5397   40.3535   -9.1929 C   0  0  1  0  0  0  0  0  0  0  0  0
   -6.5719   38.3868   -5.2875 C   0  0  0  0  0  0  0  0  0  0  0  0
   -3.8390   41.2365   -8.3803 C   0  0  0  0  0  0  0  0  0  0  0  0
   -5.8894   38.2403   -4.0853 C   0  0  0  0  0  0  0  0  0  0  0  0
   -5.8842   37.9567   -6.5898 C   0  0  0  0  0  0  0  0  0  0  0  0
  1 13  1  0  0  0  0
  3  4  1  0  0  0  0
  4  5  1  0  0  0  0
  6  5  1  1  0  0  0
  6 10  1  0  0  0  0
  6 14  2  0  0  0  0
  6 18  1  0  0  0  0
  7 11  1  6  0  0  0
  7 15  1  0  0  0  0
  7 19  2  0  0  0  0
  7 18  1  0  0  0  0
  8 25  1  0  0  0  0
  8 12  1  0  0  0  0
  9 26  2  0  0  0  0
  9 13  1  0  0  0  0
 12 16  1  0  0  0  0
 13 17  2  0  0  0  0
 16 20  1  0  0  0  0
 16 27  1  0  0  0  0
 17 21  1  0  0  0  0
 20  2  1  6  0  0  0
 20 23  1  0  0  0  0
 21 22  1  0  0  0  0
 21 24  2  0  0  0  0
 23  3  1  6  0  0  0
 23 25  1  0  0  0  0
 24 27  1  0  0  0  0
 24 26  1  0  0  0  0
M  CHG  2  10  -1  15  -1
M  END
>  <CHROM.1>
-89.14068937,-168.20035983,30.11411317,-72.16898146,-61.46223168,159.23713968
87.70468940,40.25481187,-5.88374787,41.84939128,-8.16425613,1.94788146,-1.10555915
2.67799168

>  <Name>
ligand

>  <RI>
0

>  <Rbt.Current_Directory>
/home/itssahil/PROJECTS/Mol_Feturizer/New_Systems/rnas/3D2V

>  <Rbt.Executable>
rbdock ($Id: //depot/dev/client3/rdock/2013.1/src/exe/rbdock.cxx#4 $)

>  <Rbt.Library>
libRbt.so (2013.1, Build901 2013/11/27)

>  <Rbt.Parameter_File>
/export/apps/rDock/src/rDock_2013.1_src/data/scripts/dock_solv.prm

>  <Rbt.Receptor>
prm/pocket_docking_8.prm

>  <SCORE>
-16.2783

>  <SCORE.INTER>
-18.1735

>  <SCORE.INTER.CONST>
1

>  <SCORE.INTER.POLAR>
0

>  <SCORE.INTER.ROT>
8

>  <SCORE.INTER.SOLV>
18.0422

>  <SCORE.INTER.VDW>
-27.0631

>  <SCORE.INTER.norm>
-0.673094

>  <SCORE.INTRA>
1.89523

>  <SCORE.INTRA.DIHEDRAL>
2.11467

>  <SCORE.INTRA.DIHEDRAL.0>
7.82666

>  <SCORE.INTRA.POLAR>
0

>  <SCORE.INTRA.POLAR.0>
0

>  <SCORE.INTRA.REPUL>
0

>  <SCORE.INTRA.REPUL.0>
0

>  <SCORE.INTRA.SOLV>
-0.510039

>  <SCORE.INTRA.SOLV.lig_0>
-83.2758

>  <SCORE.INTRA.VDW>
1.09291

>  <SCORE.INTRA.VDW.0>
-3.26816

>  <SCORE.INTRA.norm>
0.0701937

>  <SCORE.RESTR>
0

>  <SCORE.RESTR.CAVITY>
0

>  <SCORE.RESTR.norm>
0

>  <SCORE.SYSTEM>
0

>  <SCORE.SYSTEM.CONST>
0

>  <SCORE.SYSTEM.DIHEDRAL>
0

>  <SCORE.SYSTEM.SOLV>
0

>  <SCORE.SYSTEM.norm>
0

>  <SCORE.heavy>
27

>  <SCORE.norm>
-0.602901

>  <RMSD>
4.117

$$$$
ligand
 OpenBabel11021811473D
libRbt.so/2013.1/901 2013/11/27
 27 28  0  0  0  0  0  0  0  0999 V2000
  -12.6548   37.7241   -1.5939 C   0  0  0  0  0  0  0  0  0  0  0  0
   -7.0024   41.4185   -4.3267 C   0  0  0  0  0  0  0  0  0  0  0  0
   -6.6932   44.2875   -3.5213 C   0  0  0  0  0  0  0  0  0  0  0  0
   -5.2355   44.7027   -3.7292 C   0  0  0  0  0  0  0  0  0  0  0  0
   -5.0750   45.3778   -4.9793 O   0  0  0  0  0  0  0  0  0  0  0  0
   -3.6603   46.0353   -5.3617 P   0  0  1  0  0  0  0  0  0  0  0  0
   -4.5432   48.6068   -6.1129 P   0  0  2  0  0  0  0  0  0  0  0  0
   -6.8031   42.5126   -0.1614 C   0  0  0  0  0  0  0  0  0  0  0  0
  -10.4531   38.4744   -0.7125 N   0  0  0  0  0  0  0  0  0  0  0  0
   -2.4801   45.4278   -4.4644 O   0  5  0  0  0  0  0  0  0  0  0  0
   -5.9006   48.1204   -6.4345 O   0  0  0  0  0  0  0  0  0  0  0  0
   -6.9460   41.1768   -0.5127 C   0  0  0  0  0  0  0  0  0  0  0  0
  -11.2027   38.1645   -1.7817 C   0  0  0  0  0  0  0  0  0  0  0  0
   -3.2461   45.7886   -6.9048 O   0  0  0  0  0  0  0  0  0  0  0  0
   -3.6542   48.7914   -7.4363 O   0  5  0  0  0  0  0  0  0  0  0  0
   -7.0067   40.8218   -1.8610 N   0  0  0  0  0  0  0  0  0  0  0  0
  -10.6894   38.2374   -3.0183 N   0  0  0  0  0  0  0  0  0  0  0  0
   -3.7134   47.6460   -5.1396 O   0  0  0  0  0  0  0  0  0  0  0  0
   -4.6000   50.0504   -5.4371 O   0  0  0  0  0  0  0  0  0  0  0  0
   -6.9314   41.8145   -2.8454 C   0  0  1  0  0  0  0  0  0  0  0  0
   -9.4202   38.6212   -3.2028 C   0  0  0  0  0  0  0  0  0  0  0  0
   -8.9231   38.6914   -4.4334 N   0  0  0  0  0  0  0  0  0  0  0  0
   -6.7876   43.1551   -2.4919 C   0  0  1  0  0  0  0  0  0  0  0  0
   -8.6240   38.9497   -2.1122 C   0  0  0  0  0  0  0  0  0  0  0  0
   -6.7258   43.4911   -1.1450 C   0  0  0  0  0  0  0  0  0  0  0  0
   -9.1948   38.8585   -0.8480 C   0  0  0  0  0  0  0  0  0  0  0  0
   -7.1618   39.3969   -2.2372 C   0  0  0  0  0  0  0  0  0  0  0  0
  1 13  1  0  0  0  0
  3  4  1  0  0  0  0
  4  5  1  0  0  0  0
  6  5  1  1  0  0  0
  6 10  1  0  0  0  0
  6 14  2  0  0  0  0
  6 18  1  0  0  0  0
  7 11  1  6  0  0  0
  7 15  1  0  0  0  0
  7 19  2  0  0  0  0
  7 18  1  0  0  0  0
  8 25  1  0  0  0  0
  8 12  1  0  0  0  0
  9 26  2  0  0  0  0
  9 13  1  0  0  0  0
 12 16  1  0  0  0  0
 13 17  2  0  0  0  0
 16 20  1  0  0  0  0
 16 27  1  0  0  0  0
 17 21  1  0  0  0  0
 20  2  1  6  0  0  0
 20 23  1  0  0  0  0
 21 22  1  0  0  0  0
 21 24  2  0  0  0  0
 23  3  1  6  0  0  0
 23 25  1  0  0  0  0
 24 27  1  0  0  0  0
 24 26  1  0  0  0  0
M  CHG  2  10  -1  15  -1
M  END
>  <CHROM.1>
159.15356935,174.15492091,18.44574814,-71.87100231,45.42135749,-99.79818272
111.73762953,80.01194836,-6.50331933,43.42651899,-3.78341224,2.29775562,0.71878753
2.19029271

>  <Name>
ligand

>  <RI>
0

>  <Rbt.Current_Directory>
/home/itssahil/PROJECTS/Mol_Feturizer/New_Systems/rnas/3D2V

>  <Rbt.Executable>
rbdock ($Id: //depot/dev/client3/rdock/2013.1/src/exe/rbdock.cxx#4 $)

>  <Rbt.Library>
libRbt.so (2013.1, Build901 2013/11/27)

>  <Rbt.Parameter_File>
/export/apps/rDock/src/rDock_2013.1_src/data/scripts/dock_solv.prm

>  <Rbt.Receptor>
prm/pocket_docking_7.prm

>  <SCORE>
-16.1037

>  <SCORE.INTER>
-16.3501

>  <SCORE.INTER.CONST>
1

>  <SCORE.INTER.POLAR>
0

>  <SCORE.INTER.ROT>
8

>  <SCORE.INTER.SOLV>
9.90735

>  <SCORE.INTER.VDW>
-23.1358

>  <SCORE.INTER.norm>
-0.605558

>  <SCORE.INTRA>
0.246377

>  <SCORE.INTRA.DIHEDRAL>
1.43363

>  <SCORE.INTRA.DIHEDRAL.0>
7.82666

>  <SCORE.INTRA.POLAR>
0

>  <SCORE.INTRA.POLAR.0>
0

>  <SCORE.INTRA.REPUL>
0

>  <SCORE.INTRA.REPUL.0>
0

>  <SCORE.INTRA.SOLV>
-0.475613

>  <SCORE.INTRA.SOLV.lig_0>
-83.2758

>  <SCORE.INTRA.VDW>
-0.23263

>  <SCORE.INTRA.VDW.0>
-3.26816

>  <SCORE.INTRA.norm>
0.00912507

>  <SCORE.RESTR>
0

>  <SCORE.RESTR.CAVITY>
0

>  <SCORE.RESTR.norm>
0

>  <SCORE.SYSTEM>
0

>  <SCORE.SYSTEM.CONST>
0

>  <SCORE.SYSTEM.DIHEDRAL>
0

>  <SCORE.SYSTEM.SOLV>
0

>  <SCORE.SYSTEM.norm>
0

>  <SCORE.heavy>
27

>  <SCORE.norm>
-0.596433

>  <RMSD>
4.208

$$$$
ligand
 OpenBabel11021811473D
libRbt.so/2013.1/901 2013/11/27
 27 28  0  0  0  0  0  0  0  0999 V2000
   -5.7410   44.1543    0.0324 C   0  0  0  0  0  0  0  0  0  0  0  0
   -5.8160   38.8632   -5.4947 C   0  0  0  0  0  0  0  0  0  0  0  0
   -8.0268   39.0316   -7.5095 C   0  0  0  0  0  0  0  0  0  0  0  0
   -7.8961   40.4209   -8.1366 C   0  0  0  0  0  0  0  0  0  0  0  0
   -6.6672   41.0387   -7.7461 O   0  0  0  0  0  0  0  0  0  0  0  0
   -6.2999   42.5073   -8.2830 P   0  0  1  0  0  0  0  0  0  0  0  0
   -6.4757   43.9715  -10.6874 P   0  0  2  0  0  0  0  0  0  0  0  0
   -9.8947   39.4438   -4.2243 C   0  0  0  0  0  0  0  0  0  0  0  0
   -5.1281   42.4417   -1.6642 N   0  0  0  0  0  0  0  0  0  0  0  0
   -6.9036   43.6400   -7.3240 O   0  5  0  0  0  0  0  0  0  0  0  0
   -7.2150   44.0730  -11.9624 O   0  0  0  0  0  0  0  0  0  0  0  0
   -8.8852   39.3692   -3.2737 C   0  0  0  0  0  0  0  0  0  0  0  0
   -5.9519   42.8139   -0.6723 C   0  0  0  0  0  0  0  0  0  0  0  0
   -4.7067   42.7686   -8.3665 O   0  0  0  0  0  0  0  0  0  0  0  0
   -4.8940   43.8513  -10.9311 O   0  5  0  0  0  0  0  0  0  0  0  0
   -7.5643   39.1850   -3.6847 N   0  0  0  0  0  0  0  0  0  0  0  0
   -6.9625   42.0193   -0.2911 N   0  0  0  0  0  0  0  0  0  0  0  0
   -6.8917   42.7190   -9.7835 O   0  0  0  0  0  0  0  0  0  0  0  0
   -6.6692   45.2891   -9.8097 O   0  0  0  0  0  0  0  0  0  0  0  0
   -7.2702   39.0692   -5.0487 C   0  0  1  0  0  0  0  0  0  0  0  0
   -7.1633   40.8422   -0.8965 C   0  0  0  0  0  0  0  0  0  0  0  0
   -8.1694   40.0640   -0.5111 N   0  0  0  0  0  0  0  0  0  0  0  0
   -8.2842   39.1447   -6.0022 C   0  0  1  0  0  0  0  0  0  0  0  0
   -6.3257   40.4350   -1.9277 C   0  0  0  0  0  0  0  0  0  0  0  0
   -9.5936   39.3313   -5.5762 C   0  0  0  0  0  0  0  0  0  0  0  0
   -5.2894   41.2878   -2.2900 C   0  0  0  0  0  0  0  0  0  0  0  0
   -6.4863   39.1026   -2.6713 C   0  0  0  0  0  0  0  0  0  0  0  0
  1 13  1  0  0  0  0
  3  4  1  0  0  0  0
  4  5  1  0  0  0  0
  6  5  1  1  0  0  0
  6 10  1  0  0  0  0
  6 14  2  0  0  0  0
  6 18  1  0  0  0  0
  7 11  1  6  0  0  0
  7 15  1  0  0  0  0
  7 19  2  0  0  0  0
  7 18  1  0  0  0  0
  8 25  1  0  0  0  0
  8 12  1  0  0  0  0
  9 26  2  0  0  0  0
  9 13  1  0  0  0  0
 12 16  1  0  0  0  0
 13 17  2  0  0  0  0
 16 20  1  0  0  0  0
 16 27  1  0  0  0  0
 17 21  1  0  0  0  0
 20  2  1  6  0  0  0
 20 23  1  0  0  0  0
 21 22  1  0  0  0  0
 21 24  2  0  0  0  0
 23  3  1  6  0  0  0
 23 25  1  0  0  0  0
 24 27  1  0  0  0  0
 24 26  1  0  0  0  0
M  CHG  2  10  -1  15  -1
M  END
>  <CHROM.1>
71.35560998,179.83951007,87.50974413,-168.97338356,-174.05198983,-95.56166955
79.24986377,-65.53704286,-6.82880117,41.63977865,-5.91588644,-1.69647237
-1.08060757,-1.38463639

>  <Name>
ligand

>  <RI>
0

>  <Rbt.Current_Directory>
/home/itssahil/PROJECTS/Mol_Feturizer/New_Systems/rnas/3D2V

>  <Rbt.Executable>
rbdock ($Id: //depot/dev/client3/rdock/2013.1/src/exe/rbdock.cxx#4 $)

>  <Rbt.Library>
libRbt.so (2013.1, Build901 2013/11/27)

>  <Rbt.Parameter_File>
/export/apps/rDock/src/rDock_2013.1_src/data/scripts/dock_solv.prm

>  <Rbt.Receptor>
prm/pocket_docking_7.prm

>  <SCORE>
-10.7798

>  <SCORE.INTER>
-11.1873

>  <SCORE.INTER.CONST>
1

>  <SCORE.INTER.POLAR>
0

>  <SCORE.INTER.ROT>
8

>  <SCORE.INTER.SOLV>
15.0702

>  <SCORE.INTER.VDW>
-21.4149

>  <SCORE.INTER.norm>
-0.414343

>  <SCORE.INTRA>
0.407455

>  <SCORE.INTRA.DIHEDRAL>
-0.865703

>  <SCORE.INTRA.DIHEDRAL.0>
7.82666

>  <SCORE.INTRA.POLAR>
0

>  <SCORE.INTRA.POLAR.0>
0

>  <SCORE.INTRA.REPUL>
0

>  <SCORE.INTRA.REPUL.0>
0

>  <SCORE.INTRA.SOLV>
2.68874

>  <SCORE.INTRA.SOLV.lig_0>
-83.2758

>  <SCORE.INTRA.VDW>
-0.504062

>  <SCORE.INTRA.VDW.0>
-3.26816

>  <SCORE.INTRA.norm>
0.0150909

>  <SCORE.RESTR>
0

>  <SCORE.RESTR.CAVITY>
0

>  <SCORE.RESTR.norm>
0

>  <SCORE.SYSTEM>
0

>  <SCORE.SYSTEM.CONST>
0

>  <SCORE.SYSTEM.DIHEDRAL>
0

>  <SCORE.SYSTEM.SOLV>
0

>  <SCORE.SYSTEM.norm>
0

>  <SCORE.heavy>
27

>  <SCORE.norm>
-0.399253

>  <RMSD>
4.234

$$$$
ligand
 OpenBabel11021811473D
libRbt.so/2013.1/901 2013/11/27
 27 28  0  0  0  0  0  0  0  0999 V2000
   -6.8086   34.0181   -6.6766 C   0  0  0  0  0  0  0  0  0  0  0  0
   -4.3497   41.7716   -3.6725 C   0  0  0  0  0  0  0  0  0  0  0  0
   -3.1717   43.5394   -5.7850 C   0  0  0  0  0  0  0  0  0  0  0  0
   -2.4144   44.1124   -6.9845 C   0  0  0  0  0  0  0  0  0  0  0  0
   -3.2870   44.2683   -8.1063 O   0  0  0  0  0  0  0  0  0  0  0  0
   -2.7287   44.8892   -9.4785 P   0  0  1  0  0  0  0  0  0  0  0  0
   -5.3210   45.2558  -10.5282 P   0  0  2  0  0  0  0  0  0  0  0  0
   -3.9731   40.3755   -7.7340 C   0  0  0  0  0  0  0  0  0  0  0  0
   -5.3058   35.4688   -5.3259 N   0  0  0  0  0  0  0  0  0  0  0  0
   -2.4030   46.4495   -9.3155 O   0  5  0  0  0  0  0  0  0  0  0  0
   -5.4094   46.6952  -10.2074 O   0  0  0  0  0  0  0  0  0  0  0  0
   -4.5226   39.5399   -6.7706 C   0  0  0  0  0  0  0  0  0  0  0  0
   -6.4052   35.3709   -6.0893 C   0  0  0  0  0  0  0  0  0  0  0  0
   -1.3670   44.1797   -9.9843 O   0  0  0  0  0  0  0  0  0  0  0  0
   -6.0382   44.3571   -9.4085 O   0  5  0  0  0  0  0  0  0  0  0  0
   -4.6481   39.9928   -5.4566 N   0  0  0  0  0  0  0  0  0  0  0  0
   -7.1568   36.4518   -6.3438 N   0  0  0  0  0  0  0  0  0  0  0  0
   -3.8262   44.7026  -10.6647 O   0  0  0  0  0  0  0  0  0  0  0  0
   -6.0863   44.9268  -11.8883 O   0  0  0  0  0  0  0  0  0  0  0  0
   -4.2124   41.2801   -5.1202 C   0  0  1  0  0  0  0  0  0  0  0  0
   -6.8199   37.6448   -5.8382 C   0  0  0  0  0  0  0  0  0  0  0  0
   -7.5737   38.7086   -6.0958 N   0  0  0  0  0  0  0  0  0  0  0  0
   -3.6614   42.1183   -6.0880 C   0  0  1  0  0  0  0  0  0  0  0  0
   -5.6876   37.7719   -5.0429 C   0  0  0  0  0  0  0  0  0  0  0  0
   -3.5463   41.6529   -7.3922 C   0  0  0  0  0  0  0  0  0  0  0  0
   -4.9356   36.6270   -4.8058 C   0  0  0  0  0  0  0  0  0  0  0  0
   -5.2320   39.1012   -4.4270 C   0  0  0  0  0  0  0  0  0  0  0  0
  1 13  1  0  0  0  0
  3  4  1  0  0  0  0
  4  5  1  0  0  0  0
  6  5  1  1  0  0  0
  6 10  1  0  0  0  0
  6 14  2  0  0  0  0
  6 18  1  0  0  0  0
  7 11  1  1  0  0  0
  7 15  1  0  0  0  0
  7 19  2  0  0  0  0
  7 18  1  0  0  0  0
  8 25  1  0  0  0  0
  8 12  1  0  0  0  0
  9 26  2  0  0  0  0
  9 13  1  0  0  0  0
 12 16  1  0  0  0  0
 13 17  2  0  0  0  0
 16 20  1  0  0  0  0
 16 27  1  0  0  0  0
 17 21  1  0  0  0  0
 20  2  1  6  0  0  0
 20 23  1  0  0  0  0
 21 22  1  0  0  0  0
 21 24  2  0  0  0  0
 23  3  1  6  0  0  0
 23 25  1  0  0  0  0
 24 27  1  0  0  0  0
 24 26  1  0  0  0  0
M  CHG  2  10  -1  15  -1
M  END
>  <CHROM.1>
64.80888631,178.49410888,-69.87544350,55.98730118,54.69900465,170.58046569
-73.61844586,-2.89811594,-4.61921417,41.68700290,-7.59130979,1.89166268,0.81570366
2.43553770

>  <Name>
ligand

>  <RI>
0

>  <Rbt.Current_Directory>
/home/itssahil/PROJECTS/Mol_Feturizer/New_Systems/rnas/3D2V

>  <Rbt.Executable>
rbdock ($Id: //depot/dev/client3/rdock/2013.1/src/exe/rbdock.cxx#4 $)

>  <Rbt.Library>
libRbt.so (2013.1, Build901 2013/11/27)

>  <Rbt.Parameter_File>
/export/apps/rDock/src/rDock_2013.1_src/data/scripts/dock_solv.prm

>  <Rbt.Receptor>
prm/pocket_docking_5.prm

>  <SCORE>
-12.4647

>  <SCORE.INTER>
-12.7711

>  <SCORE.INTER.CONST>
1

>  <SCORE.INTER.POLAR>
0

>  <SCORE.INTER.ROT>
8

>  <SCORE.INTER.SOLV>
17.0076

>  <SCORE.INTER.VDW>
-23.1166

>  <SCORE.INTER.norm>
-0.473004

>  <SCORE.INTRA>
0.301324

>  <SCORE.INTRA.DIHEDRAL>
-2.3245

>  <SCORE.INTRA.DIHEDRAL.0>
7.82666

>  <SCORE.INTRA.POLAR>
0

>  <SCORE.INTRA.POLAR.0>
0

>  <SCORE.INTRA.REPUL>
0

>  <SCORE.INTRA.REPUL.0>
0

>  <SCORE.INTRA.SOLV>
-0.799671

>  <SCORE.INTRA.SOLV.lig_0>
-83.2758

>  <SCORE.INTRA.VDW>
1.86341

>  <SCORE.INTRA.VDW.0>
-3.26816

>  <SCORE.INTRA.norm>
0.0111602

>  <SCORE.RESTR>
0.00505737

>  <SCORE.RESTR.CAVITY>
0.00505737

>  <SCORE.RESTR.norm>
0.00018731

>  <SCORE.SYSTEM>
0

>  <SCORE.SYSTEM.CONST>
0

>  <SCORE.SYSTEM.DIHEDRAL>
0

>  <SCORE.SYSTEM.SOLV>
0

>  <SCORE.SYSTEM.norm>
0

>  <SCORE.heavy>
27

>  <SCORE.norm>
-0.461657

>  <RMSD>
4.249

$$$$
ligand
 OpenBabel11021811473D
libRbt.so/2013.1/901 2013/11/27
 27 28  0  0  0  0  0  0  0  0999 V2000
  -12.2486   37.7692   -1.6647 C   0  0  0  0  0  0  0  0  0  0  0  0
   -7.0194   42.2053   -3.2982 C   0  0  0  0  0  0  0  0  0  0  0  0
   -6.0993   44.1330   -1.1975 C   0  0  0  0  0  0  0  0  0  0  0  0
   -4.8120   44.6547   -1.8390 C   0  0  0  0  0  0  0  0  0  0  0  0
   -4.5653   43.9980   -3.0848 O   0  0  0  0  0  0  0  0  0  0  0  0
   -3.3440   44.4711   -4.0146 P   0  0  1  0  0  0  0  0  0  0  0  0
   -2.6972   46.6653   -5.6649 P   0  0  2  0  0  0  0  0  0  0  0  0
   -5.4128   40.7697    0.4360 C   0  0  0  0  0  0  0  0  0  0  0  0
   -9.9824   38.5242   -0.9708 N   0  0  0  0  0  0  0  0  0  0  0  0
   -1.9503   44.3742   -3.2302 O   0  5  0  0  0  0  0  0  0  0  0  0
   -2.8395   46.0007   -6.9766 O   0  0  0  0  0  0  0  0  0  0  0  0
   -5.8329   39.8589   -0.5242 C   0  0  0  0  0  0  0  0  0  0  0  0
  -10.8097   38.1853   -1.9716 C   0  0  0  0  0  0  0  0  0  0  0  0
   -3.1876   43.5788   -5.3536 O   0  0  0  0  0  0  0  0  0  0  0  0
   -1.1743   46.6503   -5.1586 O   0  5  0  0  0  0  0  0  0  0  0  0
   -6.3495   40.3231   -1.7347 N   0  0  0  0  0  0  0  0  0  0  0  0
  -10.3859   38.2078   -3.2436 N   0  0  0  0  0  0  0  0  0  0  0  0
   -3.5701   46.0085   -4.4963 O   0  0  0  0  0  0  0  0  0  0  0  0
   -3.0957   48.2067   -5.7605 O   0  0  0  0  0  0  0  0  0  0  0  0
   -6.4470   41.7004   -1.9665 C   0  0  1  0  0  0  0  0  0  0  0  0
   -9.1297   38.5696   -3.5321 C   0  0  0  0  0  0  0  0  0  0  0  0
   -8.7216   38.5899   -4.7968 N   0  0  0  0  0  0  0  0  0  0  0  0
   -6.0246   42.6140   -1.0021 C   0  0  2  0  0  0  0  0  0  0  0  0
   -8.2542   38.9272   -2.5140 C   0  0  0  0  0  0  0  0  0  0  0  0
   -5.5100   42.1350    0.1964 C   0  0  0  0  0  0  0  0  0  0  0  0
   -8.7336   38.8881   -1.2096 C   0  0  0  0  0  0  0  0  0  0  0  0
   -6.8006   39.3522   -2.7592 C   0  0  0  0  0  0  0  0  0  0  0  0
  1 13  1  0  0  0  0
  3  4  1  0  0  0  0
  4  5  1  0  0  0  0
  6  5  1  1  0  0  0
  6 10  1  0  0  0  0
  6 14  2  0  0  0  0
  6 18  1  0  0  0  0
  7 11  1  6  0  0  0
  7 15  1  0  0  0  0
  7 19  2  0  0  0  0
  7 18  1  0  0  0  0
  8 25  1  0  0  0  0
  8 12  1  0  0  0  0
  9 26  2  0  0  0  0
  9 13  1  0  0  0  0
 12 16  1  0  0  0  0
 13 17  2  0  0  0  0
 16 20  1  0  0  0  0
 16 27  1  0  0  0  0
 17 21  1  0  0  0  0
 20  2  1  6  0  0  0
 20 23  1  0  0  0  0
 21 22  1  0  0  0  0
 21 24  2  0  0  0  0
 23  3  1  1  0  0  0
 23 25  1  0  0  0  0
 24 27  1  0  0  0  0
 24 26  1  0  0  0  0
M  CHG  2  10  -1  15  -1
M  END
>  <CHROM.1>
57.06338082,174.32671705,57.92498986,-167.06403677,61.75321259,-89.78300337
149.20928077,85.91655977,-5.70994952,42.53179749,-3.16020631,2.65901652,0.76307843
1.82938955

>  <Name>
ligand

>  <RI>
0

>  <Rbt.Current_Directory>
/home/itssahil/PROJECTS/Mol_Feturizer/New_Systems/rnas/3D2V

>  <Rbt.Executable>
rbdock ($Id: //depot/dev/client3/rdock/2013.1/src/exe/rbdock.cxx#4 $)

>  <Rbt.Library>
libRbt.so (2013.1, Build901 2013/11/27)

>  <Rbt.Parameter_File>
/export/apps/rDock/src/rDock_2013.1_src/data/scripts/dock_solv.prm

>  <Rbt.Receptor>
prm/pocket_docking_7.prm

>  <SCORE>
-19.4233

>  <SCORE.INTER>
-17.9013

>  <SCORE.INTER.CONST>
1

>  <SCORE.INTER.POLAR>
0

>  <SCORE.INTER.ROT>
8

>  <SCORE.INTER.SOLV>
13.0594

>  <SCORE.INTER.VDW>
-25.2207

>  <SCORE.INTER.norm>
-0.663009

>  <SCORE.INTRA>
-1.52207

>  <SCORE.INTRA.DIHEDRAL>
-2.19001

>  <SCORE.INTRA.DIHEDRAL.0>
7.82666

>  <SCORE.INTRA.POLAR>
0

>  <SCORE.INTRA.POLAR.0>
0

>  <SCORE.INTRA.REPUL>
0

>  <SCORE.INTRA.REPUL.0>
0

>  <SCORE.INTRA.SOLV>
-0.0960143

>  <SCORE.INTRA.SOLV.lig_0>
-83.2758

>  <SCORE.INTRA.VDW>
-0.379058

>  <SCORE.INTRA.VDW.0>
-3.26816

>  <SCORE.INTRA.norm>
-0.0563729

>  <SCORE.RESTR>
0

>  <SCORE.RESTR.CAVITY>
0

>  <SCORE.RESTR.norm>
0

>  <SCORE.SYSTEM>
0

>  <SCORE.SYSTEM.CONST>
0

>  <SCORE.SYSTEM.DIHEDRAL>
0

>  <SCORE.SYSTEM.SOLV>
0

>  <SCORE.SYSTEM.norm>
0

>  <SCORE.heavy>
27

>  <SCORE.norm>
-0.719382

>  <RMSD>
4.263

$$$$
ligand
 OpenBabel11021811473D
libRbt.so/2013.1/901 2013/11/27
 27 28  0  0  0  0  0  0  0  0999 V2000
   -9.6592   38.8077   -1.9655 C   0  0  0  0  0  0  0  0  0  0  0  0
   -5.8231   38.7075   -9.0374 C   0  0  0  0  0  0  0  0  0  0  0  0
   -4.2798   41.1947   -9.6755 C   0  0  0  0  0  0  0  0  0  0  0  0
   -3.2675   42.1395   -9.0248 C   0  0  0  0  0  0  0  0  0  0  0  0
   -3.1207   41.8435   -7.6338 O   0  0  0  0  0  0  0  0  0  0  0  0
   -2.4309   42.9124   -6.6532 P   0  0  1  0  0  0  0  0  0  0  0  0
   -4.3371   42.2518   -4.6818 P   0  0  2  0  0  0  0  0  0  0  0  0
   -7.3053   42.5721   -7.8316 C   0  0  0  0  0  0  0  0  0  0  0  0
  -10.0516   39.5360   -4.3113 N   0  0  0  0  0  0  0  0  0  0  0  0
   -0.8349   42.8741   -6.7888 O   0  5  0  0  0  0  0  0  0  0  0  0
   -4.9793   41.2095   -5.5086 O   0  0  0  0  0  0  0  0  0  0  0  0
   -8.0363   41.4320   -7.5250 C   0  0  0  0  0  0  0  0  0  0  0  0
   -9.2946   38.8388   -3.4500 C   0  0  0  0  0  0  0  0  0  0  0  0
   -2.8875   44.4334   -6.9562 O   0  0  0  0  0  0  0  0  0  0  0  0
   -5.1542   43.6321   -4.7339 O   0  5  0  0  0  0  0  0  0  0  0  0
   -7.5550   40.1805   -7.9118 N   0  0  0  0  0  0  0  0  0  0  0  0
   -8.2170   38.1663   -3.8795 N   0  0  0  0  0  0  0  0  0  0  0  0
   -2.8348   42.5977   -5.1091 O   0  0  0  0  0  0  0  0  0  0  0  0
   -4.3191   41.8289   -3.1440 O   0  0  0  0  0  0  0  0  0  0  0  0
   -6.3458   40.0863   -8.6113 C   0  0  1  0  0  0  0  0  0  0  0  0
   -7.8820   38.1813   -5.1756 C   0  0  0  0  0  0  0  0  0  0  0  0
   -6.8128   37.5093   -5.5898 N   0  0  0  0  0  0  0  0  0  0  0  0
   -5.6125   41.2314   -8.9181 C   0  0  2  0  0  0  0  0  0  0  0  0
   -8.6509   38.8938   -6.0878 C   0  0  0  0  0  0  0  0  0  0  0  0
   -6.1045   42.4694   -8.5231 C   0  0  0  0  0  0  0  0  0  0  0  0
   -9.7581   39.5786   -5.6001 C   0  0  0  0  0  0  0  0  0  0  0  0
   -8.3353   38.9632   -7.5876 C   0  0  0  0  0  0  0  0  0  0  0  0
  1 13  1  0  0  0  0
  3  4  1  0  0  0  0
  4  5  1  0  0  0  0
  6  5  1  6  0  0  0
  6 10  1  0  0  0  0
  6 14  2  0  0  0  0
  6 18  1  0  0  0  0
  7 11  1  6  0  0  0
  7 15  1  0  0  0  0
  7 19  2  0  0  0  0
  7 18  1  0  0  0  0
  8 25  1  0  0  0  0
  8 12  1  0  0  0  0
  9 26  2  0  0  0  0
  9 13  1  0  0  0  0
 12 16  1  0  0  0  0
 13 17  2  0  0  0  0
 16 20  1  0  0  0  0
 16 27  1  0  0  0  0
 17 21  1  0  0  0  0
 20  2  1  1  0  0  0
 20 23  1  0  0  0  0
 21 22  1  0  0  0  0
 21 24  2  0  0  0  0
 23  3  1  6  0  0  0
 23 25  1  0  0  0  0
 24 27  1  0  0  0  0
 24 26  1  0  0  0  0
M  CHG  2  10  -1  15  -1
M  END
>  <CHROM.1>
54.37008021,-163.80608137,-78.91369075,-44.75594824,49.33611113,-136.63777075
-95.55561573,-53.80255587,-5.69701120,41.03462285,-6.26104251,-2.91663717
-0.60381539,-1.67230779

>  <Name>
ligand

>  <RI>
0

>  <Rbt.Current_Directory>
/home/itssahil/PROJECTS/Mol_Feturizer/New_Systems/rnas/3D2V

>  <Rbt.Executable>
rbdock ($Id: //depot/dev/client3/rdock/2013.1/src/exe/rbdock.cxx#4 $)

>  <Rbt.Library>
libRbt.so (2013.1, Build901 2013/11/27)

>  <Rbt.Parameter_File>
/export/apps/rDock/src/rDock_2013.1_src/data/scripts/dock_solv.prm

>  <Rbt.Receptor>
prm/pocket_docking_5.prm

>  <SCORE>
-14.6293

>  <SCORE.INTER>
-12.7338

>  <SCORE.INTER.CONST>
1

>  <SCORE.INTER.POLAR>
0

>  <SCORE.INTER.ROT>
8

>  <SCORE.INTER.SOLV>
14.479

>  <SCORE.INTER.VDW>
-22.2489

>  <SCORE.INTER.norm>
-0.471623

>  <SCORE.INTRA>
-1.89552

>  <SCORE.INTRA.DIHEDRAL>
-0.214043

>  <SCORE.INTRA.DIHEDRAL.0>
7.82666

>  <SCORE.INTRA.POLAR>
0

>  <SCORE.INTRA.POLAR.0>
0

>  <SCORE.INTRA.REPUL>
0

>  <SCORE.INTRA.REPUL.0>
0

>  <SCORE.INTRA.SOLV>
-0.944859

>  <SCORE.INTRA.SOLV.lig_0>
-83.2758

>  <SCORE.INTRA.VDW>
-1.31607

>  <SCORE.INTRA.VDW.0>
-3.26816

>  <SCORE.INTRA.norm>
-0.0702046

>  <SCORE.RESTR>
0

>  <SCORE.RESTR.CAVITY>
0

>  <SCORE.RESTR.norm>
0

>  <SCORE.SYSTEM>
0

>  <SCORE.SYSTEM.CONST>
0

>  <SCORE.SYSTEM.DIHEDRAL>
0

>  <SCORE.SYSTEM.SOLV>
0

>  <SCORE.SYSTEM.norm>
0

>  <SCORE.heavy>
27

>  <SCORE.norm>
-0.541828

>  <RMSD>
4.344

$$$$
ligand
 OpenBabel11021811473D
libRbt.so/2013.1/901 2013/11/27
 27 28  0  0  0  0  0  0  0  0999 V2000
  -12.0209   37.6383   -1.8791 C   0  0  0  0  0  0  0  0  0  0  0  0
   -4.5752   40.0917   -4.0160 C   0  0  0  0  0  0  0  0  0  0  0  0
   -4.4292   41.8547   -6.4338 C   0  0  0  0  0  0  0  0  0  0  0  0
   -3.4847   43.0283   -6.1670 C   0  0  0  0  0  0  0  0  0  0  0  0
   -2.9546   42.9598   -4.8409 O   0  0  0  0  0  0  0  0  0  0  0  0
   -2.0273   44.1472   -4.2839 P   0  0  1  0  0  0  0  0  0  0  0  0
   -4.1810   44.8519   -2.6042 P   0  0  2  0  0  0  0  0  0  0  0  0
   -7.7576   42.8629   -4.8987 C   0  0  0  0  0  0  0  0  0  0  0  0
  -10.0797   38.8588   -0.9151 N   0  0  0  0  0  0  0  0  0  0  0  0
   -0.5207   43.6482   -4.0641 O   0  5  0  0  0  0  0  0  0  0  0  0
   -4.9381   43.5853   -2.6764 O   0  0  0  0  0  0  0  0  0  0  0  0
   -7.8452   42.0555   -3.7724 C   0  0  0  0  0  0  0  0  0  0  0  0
  -10.6672   38.3381   -2.0036 C   0  0  0  0  0  0  0  0  0  0  0  0
   -1.9565   45.4150   -5.2844 O   0  0  0  0  0  0  0  0  0  0  0  0
   -4.7180   45.9213   -3.6737 O   0  5  0  0  0  0  0  0  0  0  0  0
   -6.8135   41.1609   -3.4842 N   0  0  0  0  0  0  0  0  0  0  0  0
  -10.0771   38.4255   -3.2045 N   0  0  0  0  0  0  0  0  0  0  0  0
   -2.6110   44.6959   -2.8680 O   0  0  0  0  0  0  0  0  0  0  0  0
   -4.3673   45.5472   -1.1809 O   0  0  0  0  0  0  0  0  0  0  0  0
   -5.7052   41.0799   -4.3359 C   0  0  1  0  0  0  0  0  0  0  0  0
   -8.8919   39.0348   -3.3334 C   0  0  0  0  0  0  0  0  0  0  0  0
   -8.3177   39.1169   -4.5292 N   0  0  0  0  0  0  0  0  0  0  0  0
   -5.6180   41.8913   -5.4661 C   0  0  1  0  0  0  0  0  0  0  0  0
   -8.2641   39.5840   -2.2221 C   0  0  0  0  0  0  0  0  0  0  0  0
   -6.6525   42.7785   -5.7368 C   0  0  0  0  0  0  0  0  0  0  0  0
   -8.9093   39.4695   -0.9961 C   0  0  0  0  0  0  0  0  0  0  0  0
   -6.9069   40.2968   -2.2840 C   0  0  0  0  0  0  0  0  0  0  0  0
  1 13  1  0  0  0  0
  3  4  1  0  0  0  0
  4  5  1  0  0  0  0
  6  5  1  6  0  0  0
  6 10  1  0  0  0  0
  6 14  2  0  0  0  0
  6 18  1  0  0  0  0
  7 11  1  6  0  0  0
  7 15  1  0  0  0  0
  7 19  2  0  0  0  0
  7 18  1  0  0  0  0
  8 25  1  0  0  0  0
  8 12  1  0  0  0  0
  9 26  2  0  0  0  0
  9 13  1  0  0  0  0
 12 16  1  0  0  0  0
 13 17  2  0  0  0  0
 16 20  1  0  0  0  0
 16 27  1  0  0  0  0
 17 21  1  0  0  0  0
 20  2  1  1  0  0  0
 20 23  1  0  0  0  0
 21 22  1  0  0  0  0
 21 24  2  0  0  0  0
 23  3  1  1  0  0  0
 23 25  1  0  0  0  0
 24 27  1  0  0  0  0
 24 26  1  0  0  0  0
M  CHG  2  10  -1  15  -1
M  END
>  <CHROM.1>
61.29592266,-175.12450275,-112.61285543,-39.02701944,61.83458573,-101.20128984
41.10461674,49.61795901,-5.70795747,42.13709018,-3.57773061,2.89665588,-0.65349746
-2.23705635

>  <Name>
ligand

>  <RI>
0

>  <Rbt.Current_Directory>
/home/itssahil/PROJECTS/Mol_Feturizer/New_Systems/rnas/3D2V

>  <Rbt.Executable>
rbdock ($Id: //depot/dev/client3/rdock/2013.1/src/exe/rbdock.cxx#4 $)

>  <Rbt.Library>
libRbt.so (2013.1, Build901 2013/11/27)

>  <Rbt.Parameter_File>
/export/apps/rDock/src/rDock_2013.1_src/data/scripts/dock_solv.prm

>  <Rbt.Receptor>
prm/pocket_docking_7.prm

>  <SCORE>
-19.151

>  <SCORE.INTER>
-17.6949

>  <SCORE.INTER.CONST>
1

>  <SCORE.INTER.POLAR>
0

>  <SCORE.INTER.ROT>
8

>  <SCORE.INTER.SOLV>
13.8352

>  <SCORE.INTER.VDW>
-25.3416

>  <SCORE.INTER.norm>
-0.655365

>  <SCORE.INTRA>
-1.45613

>  <SCORE.INTRA.DIHEDRAL>
0.468602

>  <SCORE.INTRA.DIHEDRAL.0>
7.82666

>  <SCORE.INTRA.POLAR>
0

>  <SCORE.INTRA.POLAR.0>
0

>  <SCORE.INTRA.REPUL>
0

>  <SCORE.INTRA.REPUL.0>
0

>  <SCORE.INTRA.SOLV>
1.21806

>  <SCORE.INTRA.SOLV.lig_0>
-83.2758

>  <SCORE.INTRA.VDW>
-2.29946

>  <SCORE.INTRA.VDW.0>
-3.26816

>  <SCORE.INTRA.norm>
-0.0539306

>  <SCORE.RESTR>
0

>  <SCORE.RESTR.CAVITY>
0

>  <SCORE.RESTR.norm>
0

>  <SCORE.SYSTEM>
0

>  <SCORE.SYSTEM.CONST>
0

>  <SCORE.SYSTEM.DIHEDRAL>
0

>  <SCORE.SYSTEM.SOLV>
0

>  <SCORE.SYSTEM.norm>
0

>  <SCORE.heavy>
27

>  <SCORE.norm>
-0.709296

>  <RMSD>
4.351

$$$$
ligand
 OpenBabel11021811473D
libRbt.so/2013.1/901 2013/11/27
 27 28  0  0  0  0  0  0  0  0999 V2000
  -10.4575   38.2323   -2.8618 C   0  0  0  0  0  0  0  0  0  0  0  0
   -6.9969   42.3156   -8.6605 C   0  0  0  0  0  0  0  0  0  0  0  0
   -4.0812   42.8984   -8.2937 C   0  0  0  0  0  0  0  0  0  0  0  0
   -4.2400   43.9036   -7.1514 C   0  0  0  0  0  0  0  0  0  0  0  0
   -3.8796   43.3102   -5.9015 O   0  0  0  0  0  0  0  0  0  0  0  0
   -3.9250   44.1838   -4.5544 P   0  0  1  0  0  0  0  0  0  0  0  0
   -6.6769   44.6815   -4.9225 P   0  0  2  0  0  0  0  0  0  0  0  0
   -4.3592   39.3303   -7.0122 C   0  0  0  0  0  0  0  0  0  0  0  0
  -10.0054   39.8176   -4.7246 N   0  0  0  0  0  0  0  0  0  0  0  0
   -4.0399   43.2449   -3.2612 O   0  5  0  0  0  0  0  0  0  0  0  0
   -6.8812   43.2339   -4.7097 O   0  0  0  0  0  0  0  0  0  0  0  0
   -5.7072   39.0390   -7.1743 C   0  0  0  0  0  0  0  0  0  0  0  0
   -9.7992   38.6036   -4.1910 C   0  0  0  0  0  0  0  0  0  0  0  0
   -2.6073   45.0980   -4.3503 O   0  0  0  0  0  0  0  0  0  0  0  0
   -6.9673   45.1004   -6.4443 O   0  5  0  0  0  0  0  0  0  0  0  0
   -6.5607   40.0038   -7.7113 N   0  0  0  0  0  0  0  0  0  0  0  0
   -9.0185   37.7088   -4.8138 N   0  0  0  0  0  0  0  0  0  0  0  0
   -5.1996   45.1942   -4.5851 O   0  0  0  0  0  0  0  0  0  0  0  0
   -7.6993   45.5365   -4.0462 O   0  0  0  0  0  0  0  0  0  0  0  0
   -6.0528   41.2571   -8.0737 C   0  0  1  0  0  0  0  0  0  0  0  0
   -8.4338   38.0155   -5.9785 C   0  0  0  0  0  0  0  0  0  0  0  0
   -7.6636   37.1197   -6.5874 N   0  0  0  0  0  0  0  0  0  0  0  0
   -4.6994   41.5484   -7.9111 C   0  0  2  0  0  0  0  0  0  0  0  0
   -8.6334   39.2649   -6.5529 C   0  0  0  0  0  0  0  0  0  0  0  0
   -3.8628   40.5756   -7.3777 C   0  0  0  0  0  0  0  0  0  0  0  0
   -9.4481   40.1631   -5.8731 C   0  0  0  0  0  0  0  0  0  0  0  0
   -7.9999   39.6952   -7.8824 C   0  0  0  0  0  0  0  0  0  0  0  0
  1 13  1  0  0  0  0
  3  4  1  0  0  0  0
  4  5  1  0  0  0  0
  6  5  1  6  0  0  0
  6 10  1  0  0  0  0
  6 14  2  0  0  0  0
  6 18  1  0  0  0  0
  7 11  1  1  0  0  0
  7 15  1  0  0  0  0
  7 19  2  0  0  0  0
  7 18  1  0  0  0  0
  8 25  1  0  0  0  0
  8 12  1  0  0  0  0
  9 26  2  0  0  0  0
  9 13  1  0  0  0  0
 12 16  1  0  0  0  0
 13 17  2  0  0  0  0
 16 20  1  0  0  0  0
 16 27  1  0  0  0  0
 17 21  1  0  0  0  0
 20  2  1  6  0  0  0
 20 23  1  0  0  0  0
 21 22  1  0  0  0  0
 21 24  2  0  0  0  0
 23  3  1  1  0  0  0
 23 25  1  0  0  0  0
 24 27  1  0  0  0  0
 24 26  1  0  0  0  0
M  CHG  2  10  -1  15  -1
M  END
>  <CHROM.1>
46.24110630,178.30285618,158.30356313,50.50256012,21.42008952,85.04558050
-75.27131800,56.09316710,-6.37322504,41.86255290,-5.80908718,2.34336361,-0.61240438
-2.55237898

>  <Name>
ligand

>  <RI>
0

>  <Rbt.Current_Directory>
/home/itssahil/PROJECTS/Mol_Feturizer/New_Systems/rnas/3D2V

>  <Rbt.Executable>
rbdock ($Id: //depot/dev/client3/rdock/2013.1/src/exe/rbdock.cxx#4 $)

>  <Rbt.Library>
libRbt.so (2013.1, Build901 2013/11/27)

>  <Rbt.Parameter_File>
/export/apps/rDock/src/rDock_2013.1_src/data/scripts/dock_solv.prm

>  <Rbt.Receptor>
prm/pocket_docking_6.prm

>  <SCORE>
-11.252

>  <SCORE.INTER>
-10.672

>  <SCORE.INTER.CONST>
1

>  <SCORE.INTER.POLAR>
0

>  <SCORE.INTER.ROT>
8

>  <SCORE.INTER.SOLV>
10.5832

>  <SCORE.INTER.VDW>
-19.5757

>  <SCORE.INTER.norm>
-0.395259

>  <SCORE.INTRA>
-0.58003

>  <SCORE.INTRA.DIHEDRAL>
0.590824

>  <SCORE.INTRA.DIHEDRAL.0>
7.82666

>  <SCORE.INTRA.POLAR>
0

>  <SCORE.INTRA.POLAR.0>
0

>  <SCORE.INTRA.REPUL>
0

>  <SCORE.INTRA.REPUL.0>
0

>  <SCORE.INTRA.SOLV>
0.483664

>  <SCORE.INTRA.SOLV.lig_0>
-83.2758

>  <SCORE.INTRA.VDW>
-1.11727

>  <SCORE.INTRA.VDW.0>
-3.26816

>  <SCORE.INTRA.norm>
-0.0214826

>  <SCORE.RESTR>
0

>  <SCORE.RESTR.CAVITY>
0

>  <SCORE.RESTR.norm>
0

>  <SCORE.SYSTEM>
0

>  <SCORE.SYSTEM.CONST>
0

>  <SCORE.SYSTEM.DIHEDRAL>
0

>  <SCORE.SYSTEM.SOLV>
0

>  <SCORE.SYSTEM.norm>
0

>  <SCORE.heavy>
27

>  <SCORE.norm>
-0.416742

>  <RMSD>
4.353

$$$$
ligand
 OpenBabel11021811473D
libRbt.so/2013.1/901 2013/11/27
 27 28  0  0  0  0  0  0  0  0999 V2000
   -6.8895   34.8231   -5.6068 C   0  0  0  0  0  0  0  0  0  0  0  0
   -4.5669   43.0138   -4.6424 C   0  0  0  0  0  0  0  0  0  0  0  0
   -3.8231   44.3362   -7.2257 C   0  0  0  0  0  0  0  0  0  0  0  0
   -5.0173   44.9268   -7.9778 C   0  0  0  0  0  0  0  0  0  0  0  0
   -5.2044   44.2638   -9.2307 O   0  0  0  0  0  0  0  0  0  0  0  0
   -6.4598   44.6399  -10.1593 P   0  0  1  0  0  0  0  0  0  0  0  0
   -5.3381   43.2591  -12.3482 P   0  0  2  0  0  0  0  0  0  0  0  0
   -3.8586   40.6572   -8.1823 C   0  0  0  0  0  0  0  0  0  0  0  0
   -5.0300   36.4518   -5.3291 N   0  0  0  0  0  0  0  0  0  0  0  0
   -7.8256   44.6129   -9.3220 O   0  5  0  0  0  0  0  0  0  0  0  0
   -4.9404   44.3744  -13.2316 O   0  0  0  0  0  0  0  0  0  0  0  0
   -4.2029   40.0240   -6.9954 C   0  0  0  0  0  0  0  0  0  0  0  0
   -6.3534   36.2289   -5.3344 C   0  0  0  0  0  0  0  0  0  0  0  0
   -6.3429   46.1144  -10.8119 O   0  0  0  0  0  0  0  0  0  0  0  0
   -5.7444   41.9553  -13.1914 O   0  5  0  0  0  0  0  0  0  0  0  0
   -4.4360   40.7868   -5.8502 N   0  0  0  0  0  0  0  0  0  0  0  0
   -7.2143   37.2304   -5.1024 N   0  0  0  0  0  0  0  0  0  0  0  0
   -6.5789   43.5864  -11.3932 O   0  0  0  0  0  0  0  0  0  0  0  0
   -4.1213   42.8023  -11.4237 O   0  0  0  0  0  0  0  0  0  0  0  0
   -4.3129   42.1803   -5.9060 C   0  0  1  0  0  0  0  0  0  0  0  0
   -6.7639   38.4679   -4.8617 C   0  0  0  0  0  0  0  0  0  0  0  0
   -7.6268   39.4522   -4.6312 N   0  0  0  0  0  0  0  0  0  0  0  0
   -3.9677   42.8151   -7.0980 C   0  0  1  0  0  0  0  0  0  0  0  0
   -5.3982   38.7242   -4.8484 C   0  0  0  0  0  0  0  0  0  0  0  0
   -3.7420   42.0410   -8.2297 C   0  0  0  0  0  0  0  0  0  0  0  0
   -4.5409   37.6582   -5.0957 C   0  0  0  0  0  0  0  0  0  0  0  0
   -4.8010   40.1121   -4.5823 C   0  0  0  0  0  0  0  0  0  0  0  0
  1 13  1  0  0  0  0
  3  4  1  0  0  0  0
  4  5  1  0  0  0  0
  6  5  1  1  0  0  0
  6 10  1  0  0  0  0
  6 14  2  0  0  0  0
  6 18  1  0  0  0  0
  7 11  1  6  0  0  0
  7 15  1  0  0  0  0
  7 19  2  0  0  0  0
  7 18  1  0  0  0  0
  8 25  1  0  0  0  0
  8 12  1  0  0  0  0
  9 26  2  0  0  0  0
  9 13  1  0  0  0  0
 12 16  1  0  0  0  0
 13 17  2  0  0  0  0
 16 20  1  0  0  0  0
 16 27  1  0  0  0  0
 17 21  1  0  0  0  0
 20  2  1  6  0  0  0
 20 23  1  0  0  0  0
 21 22  1  0  0  0  0
 21 24  2  0  0  0  0
 23  3  1  6  0  0  0
 23 25  1  0  0  0  0
 24 27  1  0  0  0  0
 24 26  1  0  0  0  0
M  CHG  2  10  -1  15  -1
M  END
>  <CHROM.1>
-53.31860512,175.82234206,-50.03560135,-51.98495612,-69.38077496,-105.63907266
-98.84899143,-22.50017435,-5.45986056,41.67566405,-8.18724146,1.66420397
1.35268502,2.28637699

>  <Name>
ligand

>  <RI>
0

>  <Rbt.Current_Directory>
/home/itssahil/PROJECTS/Mol_Feturizer/New_Systems/rnas/3D2V

>  <Rbt.Executable>
rbdock ($Id: //depot/dev/client3/rdock/2013.1/src/exe/rbdock.cxx#4 $)

>  <Rbt.Library>
libRbt.so (2013.1, Build901 2013/11/27)

>  <Rbt.Parameter_File>
/export/apps/rDock/src/rDock_2013.1_src/data/scripts/dock_solv.prm

>  <Rbt.Receptor>
prm/pocket_docking_6.prm

>  <SCORE>
-14.4776

>  <SCORE.INTER>
-12.8422

>  <SCORE.INTER.CONST>
1

>  <SCORE.INTER.POLAR>
0

>  <SCORE.INTER.ROT>
8

>  <SCORE.INTER.SOLV>
17.231

>  <SCORE.INTER.VDW>
-23.2385

>  <SCORE.INTER.norm>
-0.475637

>  <SCORE.INTRA>
-1.63537

>  <SCORE.INTRA.DIHEDRAL>
-2.01315

>  <SCORE.INTRA.DIHEDRAL.0>
7.82666

>  <SCORE.INTRA.POLAR>
0

>  <SCORE.INTRA.POLAR.0>
0

>  <SCORE.INTRA.REPUL>
0

>  <SCORE.INTRA.REPUL.0>
0

>  <SCORE.INTRA.SOLV>
-1.01283

>  <SCORE.INTRA.SOLV.lig_0>
-83.2758

>  <SCORE.INTRA.VDW>
-0.122375

>  <SCORE.INTRA.VDW.0>
-3.26816

>  <SCORE.INTRA.norm>
-0.0605691

>  <SCORE.RESTR>
0

>  <SCORE.RESTR.CAVITY>
0

>  <SCORE.RESTR.norm>
0

>  <SCORE.SYSTEM>
0

>  <SCORE.SYSTEM.CONST>
0

>  <SCORE.SYSTEM.DIHEDRAL>
0

>  <SCORE.SYSTEM.SOLV>
0

>  <SCORE.SYSTEM.norm>
0

>  <SCORE.heavy>
27

>  <SCORE.norm>
-0.536207

>  <RMSD>
4.374

$$$$
ligand
 OpenBabel11021811473D
libRbt.so/2013.1/901 2013/11/27
 27 28  0  0  0  0  0  0  0  0999 V2000
   -4.7371   35.5915   -4.5289 C   0  0  0  0  0  0  0  0  0  0  0  0
   -7.3018   41.7080   -8.0877 C   0  0  0  0  0  0  0  0  0  0  0  0
   -6.4489   44.3492   -6.9598 C   0  0  0  0  0  0  0  0  0  0  0  0
   -4.9296   44.2026   -7.0634 C   0  0  0  0  0  0  0  0  0  0  0  0
   -4.5828   43.1683   -7.9876 O   0  0  0  0  0  0  0  0  0  0  0  0
   -3.0886   43.0788   -8.5700 P   0  0  1  0  0  0  0  0  0  0  0  0
   -4.0526   41.6252  -10.7868 P   0  0  2  0  0  0  0  0  0  0  0  0
   -7.6950   42.5164   -3.8713 C   0  0  0  0  0  0  0  0  0  0  0  0
   -6.1117   37.6313   -4.1588 N   0  0  0  0  0  0  0  0  0  0  0  0
   -2.6753   44.4382   -9.3104 O   0  5  0  0  0  0  0  0  0  0  0  0
   -5.3290   41.0425  -10.3244 O   0  0  0  0  0  0  0  0  0  0  0  0
   -8.0960   41.2852   -4.3730 C   0  0  0  0  0  0  0  0  0  0  0  0
   -5.7051   36.6742   -5.0071 C   0  0  0  0  0  0  0  0  0  0  0  0
   -1.9790   42.8171   -7.4237 O   0  0  0  0  0  0  0  0  0  0  0  0
   -3.3483   40.6996  -11.8927 O   0  5  0  0  0  0  0  0  0  0  0  0
   -7.9654   41.0217   -5.7373 N   0  0  0  0  0  0  0  0  0  0  0  0
   -6.1406   36.6572   -6.2752 N   0  0  0  0  0  0  0  0  0  0  0  0
   -2.9728   41.8482   -9.6278 O   0  0  0  0  0  0  0  0  0  0  0  0
   -4.2934   43.0301  -11.5025 O   0  0  0  0  0  0  0  0  0  0  0  0
   -7.4398   42.0020   -6.5875 C   0  0  1  0  0  0  0  0  0  0  0  0
   -6.9886   37.5965   -6.7122 C   0  0  0  0  0  0  0  0  0  0  0  0
   -7.4149   37.5681   -7.9707 N   0  0  0  0  0  0  0  0  0  0  0  0
   -7.0371   43.2374   -6.0829 C   0  0  2  0  0  0  0  0  0  0  0  0
   -7.4263   38.5969   -5.8529 C   0  0  0  0  0  0  0  0  0  0  0  0
   -7.1713   43.4824   -4.7217 C   0  0  0  0  0  0  0  0  0  0  0  0
   -6.9488   38.5786   -4.5475 C   0  0  0  0  0  0  0  0  0  0  0  0
   -8.3953   39.7093   -6.2744 C   0  0  0  0  0  0  0  0  0  0  0  0
  1 13  1  0  0  0  0
  3  4  1  0  0  0  0
  4  5  1  0  0  0  0
  6  5  1  1  0  0  0
  6 10  1  0  0  0  0
  6 14  2  0  0  0  0
  6 18  1  0  0  0  0
  7 11  1  1  0  0  0
  7 15  1  0  0  0  0
  7 19  2  0  0  0  0
  7 18  1  0  0  0  0
  8 25  1  0  0  0  0
  8 12  1  0  0  0  0
  9 26  2  0  0  0  0
  9 13  1  0  0  0  0
 12 16  1  0  0  0  0
 13 17  2  0  0  0  0
 16 20  1  0  0  0  0
 16 27  1  0  0  0  0
 17 21  1  0  0  0  0
 20  2  1  1  0  0  0
 20 23  1  0  0  0  0
 21 22  1  0  0  0  0
 21 24  2  0  0  0  0
 23  3  1  6  0  0  0
 23 25  1  0  0  0  0
 24 27  1  0  0  0  0
 24 26  1  0  0  0  0
M  CHG  2  10  -1  15  -1
M  END
>  <CHROM.1>
77.75803621,163.55643179,-57.60127040,47.42328120,-76.24398941,-88.98558610
-137.31326250,-72.02941310,-5.47091493,41.07650218,-7.49544333,-2.44985100
0.94093588,-0.00619148

>  <Name>
ligand

>  <RI>
0

>  <Rbt.Current_Directory>
/home/itssahil/PROJECTS/Mol_Feturizer/New_Systems/rnas/3D2V

>  <Rbt.Executable>
rbdock ($Id: //depot/dev/client3/rdock/2013.1/src/exe/rbdock.cxx#4 $)

>  <Rbt.Library>
libRbt.so (2013.1, Build901 2013/11/27)

>  <Rbt.Parameter_File>
/export/apps/rDock/src/rDock_2013.1_src/data/scripts/dock_solv.prm

>  <Rbt.Receptor>
prm/pocket_docking_4.prm

>  <SCORE>
-7.21766

>  <SCORE.INTER>
-6.56185

>  <SCORE.INTER.CONST>
1

>  <SCORE.INTER.POLAR>
0

>  <SCORE.INTER.ROT>
8

>  <SCORE.INTER.SOLV>
15.5137

>  <SCORE.INTER.VDW>
-18.4791

>  <SCORE.INTER.norm>
-0.243031

>  <SCORE.INTRA>
-0.655809

>  <SCORE.INTRA.DIHEDRAL>
0.382262

>  <SCORE.INTRA.DIHEDRAL.0>
7.82666

>  <SCORE.INTRA.POLAR>
0

>  <SCORE.INTRA.POLAR.0>
0

>  <SCORE.INTRA.REPUL>
0

>  <SCORE.INTRA.REPUL.0>
0

>  <SCORE.INTRA.SOLV>
-0.722723

>  <SCORE.INTRA.SOLV.lig_0>
-83.2758

>  <SCORE.INTRA.VDW>
-0.485579

>  <SCORE.INTRA.VDW.0>
-3.26816

>  <SCORE.INTRA.norm>
-0.0242892

>  <SCORE.RESTR>
0

>  <SCORE.RESTR.CAVITY>
0

>  <SCORE.RESTR.norm>
0

>  <SCORE.SYSTEM>
0

>  <SCORE.SYSTEM.CONST>
0

>  <SCORE.SYSTEM.DIHEDRAL>
0

>  <SCORE.SYSTEM.SOLV>
0

>  <SCORE.SYSTEM.norm>
0

>  <SCORE.heavy>
27

>  <SCORE.norm>
-0.267321

>  <RMSD>
4.395

$$$$
ligand
 OpenBabel11021811473D
libRbt.so/2013.1/901 2013/11/27
 27 28  0  0  0  0  0  0  0  0999 V2000
   -4.9703   41.1361   -1.2090 C   0  0  0  0  0  0  0  0  0  0  0  0
   -7.8727   41.1438   -6.5895 C   0  0  0  0  0  0  0  0  0  0  0  0
   -7.0467   42.8481   -8.9108 C   0  0  0  0  0  0  0  0  0  0  0  0
   -6.5362   43.9219   -7.9481 C   0  0  0  0  0  0  0  0  0  0  0  0
   -5.1191   44.0729   -8.0639 O   0  0  0  0  0  0  0  0  0  0  0  0
   -4.3043   44.8918   -6.9478 P   0  0  1  0  0  0  0  0  0  0  0  0
   -3.5297   44.6138   -4.2499 P   0  0  2  0  0  0  0  0  0  0  0  0
   -4.7266   39.8549   -9.2403 C   0  0  0  0  0  0  0  0  0  0  0  0
   -4.5654   40.4724   -3.5717 N   0  0  0  0  0  0  0  0  0  0  0  0
   -2.7964   45.1626   -7.4168 O   0  5  0  0  0  0  0  0  0  0  0  0
   -3.5123   43.6727   -3.1112 O   0  0  0  0  0  0  0  0  0  0  0  0
   -5.0942   39.0491   -8.1708 C   0  0  0  0  0  0  0  0  0  0  0  0
   -5.3921   40.4616   -2.5147 C   0  0  0  0  0  0  0  0  0  0  0  0
   -4.9567   46.3347   -6.6220 O   0  0  0  0  0  0  0  0  0  0  0  0
   -4.2513   45.9941   -3.8629 O   0  5  0  0  0  0  0  0  0  0  0  0
   -6.1152   39.4642   -7.3147 N   0  0  0  0  0  0  0  0  0  0  0  0
   -6.5894   39.8629   -2.5918 N   0  0  0  0  0  0  0  0  0  0  0  0
   -4.2786   44.0596   -5.5503 O   0  0  0  0  0  0  0  0  0  0  0  0
   -2.0474   45.0174   -4.6786 O   0  0  0  0  0  0  0  0  0  0  0  0
   -6.7530   40.6907   -7.5365 C   0  0  1  0  0  0  0  0  0  0  0  0
   -6.9764   39.2673   -3.7266 C   0  0  0  0  0  0  0  0  0  0  0  0
   -8.1663   38.6787   -3.7916 N   0  0  0  0  0  0  0  0  0  0  0  0
   -6.3836   41.4986   -8.6107 C   0  0  1  0  0  0  0  0  0  0  0  0
   -6.1396   39.2667   -4.8360 C   0  0  0  0  0  0  0  0  0  0  0  0
   -5.3672   41.0691   -9.4553 C   0  0  0  0  0  0  0  0  0  0  0  0
   -4.9066   39.8967   -4.7125 C   0  0  0  0  0  0  0  0  0  0  0  0
   -6.5067   38.6066   -6.1714 C   0  0  0  0  0  0  0  0  0  0  0  0
  1 13  1  0  0  0  0
  3  4  1  0  0  0  0
  4  5  1  0  0  0  0
  6  5  1  6  0  0  0
  6 10  1  0  0  0  0
  6 14  2  0  0  0  0
  6 18  1  0  0  0  0
  7 11  1  1  0  0  0
  7 15  1  0  0  0  0
  7 19  2  0  0  0  0
  7 18  1  0  0  0  0
  8 25  1  0  0  0  0
  8 12  1  0  0  0  0
  9 26  2  0  0  0  0
  9 13  1  0  0  0  0
 12 16  1  0  0  0  0
 13 17  2  0  0  0  0
 16 20  1  0  0  0  0
 16 27  1  0  0  0  0
 17 21  1  0  0  0  0
 20  2  1  6  0  0  0
 20 23  1  0  0  0  0
 21 22  1  0  0  0  0
 21 24  2  0  0  0  0
 23  3  1  6  0  0  0
 23 25  1  0  0  0  0
 24 27  1  0  0  0  0
 24 26  1  0  0  0  0
M  CHG  2  10  -1  15  -1
M  END
>  <CHROM.1>
59.56207780,-166.45762373,-169.46838805,179.51132768,-174.99057960,76.65505198
137.78580781,112.41385846,-5.18410595,42.30239793,-5.76319237,-2.73506254
-1.09658416,-1.20081257

>  <Name>
ligand

>  <RI>
0

>  <Rbt.Current_Directory>
/home/itssahil/PROJECTS/Mol_Feturizer/New_Systems/rnas/3D2V

>  <Rbt.Executable>
rbdock ($Id: //depot/dev/client3/rdock/2013.1/src/exe/rbdock.cxx#4 $)

>  <Rbt.Library>
libRbt.so (2013.1, Build901 2013/11/27)

>  <Rbt.Parameter_File>
/export/apps/rDock/src/rDock_2013.1_src/data/scripts/dock_solv.prm

>  <Rbt.Receptor>
prm/pocket_docking_6.prm

>  <SCORE>
-8.63458

>  <SCORE.INTER>
-8.03042

>  <SCORE.INTER.CONST>
1

>  <SCORE.INTER.POLAR>
0

>  <SCORE.INTER.ROT>
8

>  <SCORE.INTER.SOLV>
6.49267

>  <SCORE.INTER.VDW>
-16.4512

>  <SCORE.INTER.norm>
-0.297423

>  <SCORE.INTRA>
-0.604155

>  <SCORE.INTRA.DIHEDRAL>
-1.57961

>  <SCORE.INTRA.DIHEDRAL.0>
7.82666

>  <SCORE.INTRA.POLAR>
0

>  <SCORE.INTRA.POLAR.0>
0

>  <SCORE.INTRA.REPUL>
0

>  <SCORE.INTRA.REPUL.0>
0

>  <SCORE.INTRA.SOLV>
2.24066

>  <SCORE.INTRA.SOLV.lig_0>
-83.2758

>  <SCORE.INTRA.VDW>
-0.934677

>  <SCORE.INTRA.VDW.0>
-3.26816

>  <SCORE.INTRA.norm>
-0.0223761

>  <SCORE.RESTR>
0

>  <SCORE.RESTR.CAVITY>
0

>  <SCORE.RESTR.norm>
0

>  <SCORE.SYSTEM>
0

>  <SCORE.SYSTEM.CONST>
0

>  <SCORE.SYSTEM.DIHEDRAL>
0

>  <SCORE.SYSTEM.SOLV>
0

>  <SCORE.SYSTEM.norm>
0

>  <SCORE.heavy>
27

>  <SCORE.norm>
-0.319799

>  <RMSD>
4.406

$$$$
ligand
 OpenBabel11021811473D
libRbt.so/2013.1/901 2013/11/27
 27 28  0  0  0  0  0  0  0  0999 V2000
   -5.4971   40.9689   -1.0138 C   0  0  0  0  0  0  0  0  0  0  0  0
   -7.2770   40.5384   -8.0691 C   0  0  0  0  0  0  0  0  0  0  0  0
   -6.5540   42.8715   -9.8038 C   0  0  0  0  0  0  0  0  0  0  0  0
   -7.3032   43.9037   -8.9587 C   0  0  0  0  0  0  0  0  0  0  0  0
   -6.4019   44.8881   -8.4461 O   0  0  0  0  0  0  0  0  0  0  0  0
   -5.7356   45.9616   -9.4378 P   0  0  1  0  0  0  0  0  0  0  0  0
   -2.9963   45.5166   -8.9333 P   0  0  2  0  0  0  0  0  0  0  0  0
   -3.2073   41.9488   -8.2549 C   0  0  0  0  0  0  0  0  0  0  0  0
   -4.4719   40.9871   -3.2801 N   0  0  0  0  0  0  0  0  0  0  0  0
   -6.6440   46.1877  -10.7381 O   0  5  0  0  0  0  0  0  0  0  0  0
   -1.8265   44.7484   -9.4065 O   0  0  0  0  0  0  0  0  0  0  0  0
   -3.5204   40.8653   -7.4448 C   0  0  0  0  0  0  0  0  0  0  0  0
   -5.4251   40.5036   -2.4685 C   0  0  0  0  0  0  0  0  0  0  0  0
   -5.5329   47.4123   -8.7536 O   0  0  0  0  0  0  0  0  0  0  0  0
   -3.4984   45.0019   -7.4985 O   0  5  0  0  0  0  0  0  0  0  0  0
   -4.8370   40.4061   -7.3873 N   0  0  0  0  0  0  0  0  0  0  0  0
   -6.3189   39.6127   -2.9218 N   0  0  0  0  0  0  0  0  0  0  0  0
   -4.2637   45.4520   -9.9072 O   0  0  0  0  0  0  0  0  0  0  0  0
   -2.6227   47.0531   -8.7242 O   0  0  0  0  0  0  0  0  0  0  0  0
   -5.8300   41.0456   -8.1391 C   0  0  1  0  0  0  0  0  0  0  0  0
   -6.2721   39.1936   -4.1924 C   0  0  0  0  0  0  0  0  0  0  0  0
   -7.1646   38.3117   -4.6308 N   0  0  0  0  0  0  0  0  0  0  0  0
   -5.5146   42.1328   -8.9524 C   0  0  2  0  0  0  0  0  0  0  0  0
   -5.2963   39.6809   -5.0534 C   0  0  0  0  0  0  0  0  0  0  0  0
   -4.1983   42.5756   -9.0004 C   0  0  0  0  0  0  0  0  0  0  0  0
   -4.3884   40.6012   -4.5423 C   0  0  0  0  0  0  0  0  0  0  0  0
   -5.1731   39.2516   -6.5212 C   0  0  0  0  0  0  0  0  0  0  0  0
  1 13  1  0  0  0  0
  3  4  1  0  0  0  0
  4  5  1  0  0  0  0
  6  5  1  1  0  0  0
  6 10  1  0  0  0  0
  6 14  2  0  0  0  0
  6 18  1  0  0  0  0
  7 11  1  6  0  0  0
  7 15  1  0  0  0  0
  7 19  2  0  0  0  0
  7 18  1  0  0  0  0
  8 25  1  0  0  0  0
  8 12  1  0  0  0  0
  9 26  2  0  0  0  0
  9 13  1  0  0  0  0
 12 16  1  0  0  0  0
 13 17  2  0  0  0  0
 16 20  1  0  0  0  0
 16 27  1  0  0  0  0
 17 21  1  0  0  0  0
 20  2  1  6  0  0  0
 20 23  1  0  0  0  0
 21 22  1  0  0  0  0
 21 24  2  0  0  0  0
 23  3  1  1  0  0  0
 23 25  1  0  0  0  0
 24 27  1  0  0  0  0
 24 26  1  0  0  0  0
M  CHG  2  10  -1  15  -1
M  END
>  <CHROM.1>
61.45084033,70.50046433,25.10462146,-75.31182844,167.13089198,82.80689352
140.00421770,79.01973779,-5.03541896,42.94405001,-7.38191740,-1.76391564
-0.75955837,-0.86602669

>  <Name>
ligand

>  <RI>
0

>  <Rbt.Current_Directory>
/home/itssahil/PROJECTS/Mol_Feturizer/New_Systems/rnas/3D2V

>  <Rbt.Executable>
rbdock ($Id: //depot/dev/client3/rdock/2013.1/src/exe/rbdock.cxx#4 $)

>  <Rbt.Library>
libRbt.so (2013.1, Build901 2013/11/27)

>  <Rbt.Parameter_File>
/export/apps/rDock/src/rDock_2013.1_src/data/scripts/dock_solv.prm

>  <Rbt.Receptor>
prm/pocket_docking_4.prm

>  <SCORE>
-10.127

>  <SCORE.INTER>
-10.1278

>  <SCORE.INTER.CONST>
1

>  <SCORE.INTER.POLAR>
0

>  <SCORE.INTER.ROT>
8

>  <SCORE.INTER.SOLV>
17.4945

>  <SCORE.INTER.VDW>
-21.5167

>  <SCORE.INTER.norm>
-0.375105

>  <SCORE.INTRA>
0.000807634

>  <SCORE.INTRA.DIHEDRAL>
-0.00444457

>  <SCORE.INTRA.DIHEDRAL.0>
7.82666

>  <SCORE.INTRA.POLAR>
0

>  <SCORE.INTRA.POLAR.0>
0

>  <SCORE.INTRA.REPUL>
0

>  <SCORE.INTRA.REPUL.0>
0

>  <SCORE.INTRA.SOLV>
3.42219

>  <SCORE.INTRA.SOLV.lig_0>
-83.2758

>  <SCORE.INTRA.VDW>
-1.70806

>  <SCORE.INTRA.VDW.0>
-3.26816

>  <SCORE.INTRA.norm>
2.99124e-05

>  <SCORE.RESTR>
0

>  <SCORE.RESTR.CAVITY>
0

>  <SCORE.RESTR.norm>
0

>  <SCORE.SYSTEM>
0

>  <SCORE.SYSTEM.CONST>
0

>  <SCORE.SYSTEM.DIHEDRAL>
0

>  <SCORE.SYSTEM.SOLV>
0

>  <SCORE.SYSTEM.norm>
0

>  <SCORE.heavy>
27

>  <SCORE.norm>
-0.375075

>  <RMSD>
4.443

$$$$
ligand
 OpenBabel11021811473D
libRbt.so/2013.1/901 2013/11/27
 27 28  0  0  0  0  0  0  0  0999 V2000
   -6.9849   34.8469   -5.7780 C   0  0  0  0  0  0  0  0  0  0  0  0
   -3.7505   42.7364   -4.2599 C   0  0  0  0  0  0  0  0  0  0  0  0
   -2.8474   44.1243   -6.7567 C   0  0  0  0  0  0  0  0  0  0  0  0
   -3.9939   45.1167   -6.9593 C   0  0  0  0  0  0  0  0  0  0  0  0
   -4.5876   44.9476   -8.2490 O   0  0  0  0  0  0  0  0  0  0  0  0
   -5.8146   45.8820   -8.6977 P   0  0  1  0  0  0  0  0  0  0  0  0
   -6.5488   44.1312  -10.7838 P   0  0  2  0  0  0  0  0  0  0  0  0
   -3.8983   40.7128   -8.0638 C   0  0  0  0  0  0  0  0  0  0  0  0
   -5.0783   36.3658   -5.2829 N   0  0  0  0  0  0  0  0  0  0  0  0
   -7.1079   45.6108   -7.7916 O   0  5  0  0  0  0  0  0  0  0  0  0
   -7.7930   43.5664  -10.2220 O   0  0  0  0  0  0  0  0  0  0  0  0
   -4.3224   40.0511   -6.9190 C   0  0  0  0  0  0  0  0  0  0  0  0
   -6.4039   36.2180   -5.4310 C   0  0  0  0  0  0  0  0  0  0  0  0
   -5.4836   47.4598   -8.5762 O   0  0  0  0  0  0  0  0  0  0  0  0
   -5.2791   43.2080  -10.4503 O   0  5  0  0  0  0  0  0  0  0  0  0
   -4.2782   40.7071   -5.6880 N   0  0  0  0  0  0  0  0  0  0  0  0
   -7.2279   37.2646   -5.2772 N   0  0  0  0  0  0  0  0  0  0  0  0
   -6.1943   45.5984  -10.2539 O   0  0  0  0  0  0  0  0  0  0  0  0
   -6.6192   44.1942  -12.3760 O   0  0  0  0  0  0  0  0  0  0  0  0
   -3.8001   42.0211   -5.6171 C   0  0  1  0  0  0  0  0  0  0  0  0
   -6.7380   38.4728   -4.9730 C   0  0  0  0  0  0  0  0  0  0  0  0
   -7.5648   39.5022   -4.8211 N   0  0  0  0  0  0  0  0  0  0  0  0
   -3.3751   42.6847   -6.7669 C   0  0  2  0  0  0  0  0  0  0  0  0
   -5.3694   38.6514   -4.8121 C   0  0  0  0  0  0  0  0  0  0  0  0
   -3.4284   42.0181   -7.9850 C   0  0  0  0  0  0  0  0  0  0  0  0
   -4.5508   37.5408   -4.9824 C   0  0  0  0  0  0  0  0  0  0  0  0
   -4.7280   40.0013   -4.4652 C   0  0  0  0  0  0  0  0  0  0  0  0
  1 13  1  0  0  0  0
  3  4  1  0  0  0  0
  4  5  1  0  0  0  0
  6  5  1  1  0  0  0
  6 10  1  0  0  0  0
  6 14  2  0  0  0  0
  6 18  1  0  0  0  0
  7 11  1  1  0  0  0
  7 15  1  0  0  0  0
  7 19  2  0  0  0  0
  7 18  1  0  0  0  0
  8 25  1  0  0  0  0
  8 12  1  0  0  0  0
  9 26  2  0  0  0  0
  9 13  1  0  0  0  0
 12 16  1  0  0  0  0
 13 17  2  0  0  0  0
 16 20  1  0  0  0  0
 16 27  1  0  0  0  0
 17 21  1  0  0  0  0
 20  2  1  6  0  0  0
 20 23  1  0  0  0  0
 21 22  1  0  0  0  0
 21 24  2  0  0  0  0
 23  3  1  1  0  0  0
 23 25  1  0  0  0  0
 24 27  1  0  0  0  0
 24 26  1  0  0  0  0
M  CHG  2  10  -1  15  -1
M  END
>  <CHROM.1>
-64.00597954,-179.83840659,-65.48772082,55.31385807,65.74329635,-89.86775820
-94.90868879,-7.65892138,-5.45314419,42.07438164,-7.45541010,1.56021654,0.90128262
2.63576331

>  <Name>
ligand

>  <RI>
0

>  <Rbt.Current_Directory>
/home/itssahil/PROJECTS/Mol_Feturizer/New_Systems/rnas/3D2V

>  <Rbt.Executable>
rbdock ($Id: //depot/dev/client3/rdock/2013.1/src/exe/rbdock.cxx#4 $)

>  <Rbt.Library>
libRbt.so (2013.1, Build901 2013/11/27)

>  <Rbt.Parameter_File>
/export/apps/rDock/src/rDock_2013.1_src/data/scripts/dock_solv.prm

>  <Rbt.Receptor>
prm/pocket_docking_5.prm

>  <SCORE>
-16.3237

>  <SCORE.INTER>
-14.4254

>  <SCORE.INTER.CONST>
1

>  <SCORE.INTER.POLAR>
0

>  <SCORE.INTER.ROT>
8

>  <SCORE.INTER.SOLV>
15.2571

>  <SCORE.INTER.VDW>
-23.636

>  <SCORE.INTER.norm>
-0.534275

>  <SCORE.INTRA>
-1.8983

>  <SCORE.INTRA.DIHEDRAL>
-2.46187

>  <SCORE.INTRA.DIHEDRAL.0>
7.82666

>  <SCORE.INTRA.POLAR>
0

>  <SCORE.INTRA.POLAR.0>
0

>  <SCORE.INTRA.REPUL>
0

>  <SCORE.INTRA.REPUL.0>
0

>  <SCORE.INTRA.SOLV>
-0.95159

>  <SCORE.INTRA.SOLV.lig_0>
-83.2758

>  <SCORE.INTRA.VDW>
-0.19157

>  <SCORE.INTRA.VDW.0>
-3.26816

>  <SCORE.INTRA.norm>
-0.0703075

>  <SCORE.RESTR>
0

>  <SCORE.RESTR.CAVITY>
0

>  <SCORE.RESTR.norm>
0

>  <SCORE.SYSTEM>
0

>  <SCORE.SYSTEM.CONST>
0

>  <SCORE.SYSTEM.DIHEDRAL>
0

>  <SCORE.SYSTEM.SOLV>
0

>  <SCORE.SYSTEM.norm>
0

>  <SCORE.heavy>
27

>  <SCORE.norm>
-0.604582

>  <RMSD>
4.461

$$$$
ligand
 OpenBabel11021811473D
libRbt.so/2013.1/901 2013/11/27
 27 28  0  0  0  0  0  0  0  0999 V2000
   -5.4454   40.9736   -0.3060 C   0  0  0  0  0  0  0  0  0  0  0  0
   -3.9557   40.8542   -7.9227 C   0  0  0  0  0  0  0  0  0  0  0  0
   -5.8564   42.3600   -9.6819 C   0  0  0  0  0  0  0  0  0  0  0  0
   -5.6096   43.7841   -9.1802 C   0  0  0  0  0  0  0  0  0  0  0  0
   -4.3757   43.8607   -8.4620 O   0  0  0  0  0  0  0  0  0  0  0  0
   -3.9266   45.2447   -7.7815 P   0  0  1  0  0  0  0  0  0  0  0  0
   -6.1892   46.2398   -6.4225 P   0  0  2  0  0  0  0  0  0  0  0  0
   -8.2117   40.5633   -7.2996 C   0  0  0  0  0  0  0  0  0  0  0  0
   -4.3599   40.9292   -2.5436 N   0  0  0  0  0  0  0  0  0  0  0  0
   -2.3638   45.2337   -7.4283 O   0  5  0  0  0  0  0  0  0  0  0  0
   -7.0996   45.8011   -7.5002 O   0  0  0  0  0  0  0  0  0  0  0  0
   -7.3484   39.8574   -6.4721 C   0  0  0  0  0  0  0  0  0  0  0  0
   -5.3546   40.4939   -1.7549 C   0  0  0  0  0  0  0  0  0  0  0  0
   -4.1799   46.5271   -8.7327 O   0  0  0  0  0  0  0  0  0  0  0  0
   -5.8783   47.8115   -6.5168 O   0  5  0  0  0  0  0  0  0  0  0  0
   -5.9705   39.9542   -6.6711 N   0  0  0  0  0  0  0  0  0  0  0  0
   -6.2737   39.6388   -2.2262 N   0  0  0  0  0  0  0  0  0  0  0  0
   -4.7724   45.4970   -6.4150 O   0  0  0  0  0  0  0  0  0  0  0  0
   -6.8569   46.0261   -4.9899 O   0  0  0  0  0  0  0  0  0  0  0  0
   -5.4720   40.7543   -7.7062 C   0  0  1  0  0  0  0  0  0  0  0  0
   -6.2110   39.2078   -3.4921 C   0  0  0  0  0  0  0  0  0  0  0  0
   -7.1288   38.3618   -3.9485 N   0  0  0  0  0  0  0  0  0  0  0  0
   -6.3393   41.4629   -8.5361 C   0  0  1  0  0  0  0  0  0  0  0  0
   -5.1922   39.6455   -4.3296 C   0  0  0  0  0  0  0  0  0  0  0  0
   -7.7083   41.3578   -8.3225 C   0  0  0  0  0  0  0  0  0  0  0  0
   -4.2592   40.5299   -3.8004 C   0  0  0  0  0  0  0  0  0  0  0  0
   -5.0482   39.1994   -5.7905 C   0  0  0  0  0  0  0  0  0  0  0  0
  1 13  1  0  0  0  0
  3  4  1  0  0  0  0
  4  5  1  0  0  0  0
  6  5  1  6  0  0  0
  6 10  1  0  0  0  0
  6 14  2  0  0  0  0
  6 18  1  0  0  0  0
  7 11  1  6  0  0  0
  7 15  1  0  0  0  0
  7 19  2  0  0  0  0
  7 18  1  0  0  0  0
  8 25  1  0  0  0  0
  8 12  1  0  0  0  0
  9 26  2  0  0  0  0
  9 13  1  0  0  0  0
 12 16  1  0  0  0  0
 13 17  2  0  0  0  0
 16 20  1  0  0  0  0
 16 27  1  0  0  0  0
 17 21  1  0  0  0  0
 20  2  1  1  0  0  0
 20 23  1  0  0  0  0
 21 22  1  0  0  0  0
 21 24  2  0  0  0  0
 23  3  1  1  0  0  0
 23 25  1  0  0  0  0
 24 27  1  0  0  0  0
 24 26  1  0  0  0  0
M  CHG  2  10  -1  15  -1
M  END
>  <CHROM.1>
77.05891190,-177.39790622,-162.87591653,-87.74159873,44.08680017,-88.99149892
79.96437220,-61.59318084,-5.51145666,42.78176600,-6.20848312,-2.31440559
-1.41711647,-1.32442755

>  <Name>
ligand

>  <RI>
0

>  <Rbt.Current_Directory>
/home/itssahil/PROJECTS/Mol_Feturizer/New_Systems/rnas/3D2V

>  <Rbt.Executable>
rbdock ($Id: //depot/dev/client3/rdock/2013.1/src/exe/rbdock.cxx#4 $)

>  <Rbt.Library>
libRbt.so (2013.1, Build901 2013/11/27)

>  <Rbt.Parameter_File>
/export/apps/rDock/src/rDock_2013.1_src/data/scripts/dock_solv.prm

>  <Rbt.Receptor>
prm/pocket_docking_5.prm

>  <SCORE>
-10.1941

>  <SCORE.INTER>
-9.51008

>  <SCORE.INTER.CONST>
1

>  <SCORE.INTER.POLAR>
0

>  <SCORE.INTER.ROT>
8

>  <SCORE.INTER.SOLV>
12.8671

>  <SCORE.INTER.VDW>
-19.5624

>  <SCORE.INTER.norm>
-0.352225

>  <SCORE.INTRA>
-0.684058

>  <SCORE.INTRA.DIHEDRAL>
0.284881

>  <SCORE.INTRA.DIHEDRAL.0>
7.82666

>  <SCORE.INTRA.POLAR>
0

>  <SCORE.INTRA.POLAR.0>
0

>  <SCORE.INTRA.REPUL>
0

>  <SCORE.INTRA.REPUL.0>
0

>  <SCORE.INTRA.SOLV>
-0.145046

>  <SCORE.INTRA.SOLV.lig_0>
-83.2758

>  <SCORE.INTRA.VDW>
-0.753975

>  <SCORE.INTRA.VDW.0>
-3.26816

>  <SCORE.INTRA.norm>
-0.0253355

>  <SCORE.RESTR>
0

>  <SCORE.RESTR.CAVITY>
0

>  <SCORE.RESTR.norm>
0

>  <SCORE.SYSTEM>
0

>  <SCORE.SYSTEM.CONST>
0

>  <SCORE.SYSTEM.DIHEDRAL>
0

>  <SCORE.SYSTEM.SOLV>
0

>  <SCORE.SYSTEM.norm>
0

>  <SCORE.heavy>
27

>  <SCORE.norm>
-0.377561

>  <RMSD>
4.492

$$$$
ligand
 OpenBabel11021811473D
libRbt.so/2013.1/901 2013/11/27
 27 28  0  0  0  0  0  0  0  0999 V2000
   -6.5283   34.3119   -6.3802 C   0  0  0  0  0  0  0  0  0  0  0  0
   -4.2595   42.1574   -3.6109 C   0  0  0  0  0  0  0  0  0  0  0  0
   -2.6278   43.6720   -5.6157 C   0  0  0  0  0  0  0  0  0  0  0  0
   -2.8481   44.6919   -6.7346 C   0  0  0  0  0  0  0  0  0  0  0  0
   -4.2268   45.0610   -6.8186 O   0  0  0  0  0  0  0  0  0  0  0  0
   -4.6898   46.2121   -7.8386 P   0  0  1  0  0  0  0  0  0  0  0  0
   -6.9531   44.8466   -8.8231 P   0  0  2  0  0  0  0  0  0  0  0  0
   -3.7619   40.6459   -7.6176 C   0  0  0  0  0  0  0  0  0  0  0  0
   -5.0849   36.0419   -5.3262 N   0  0  0  0  0  0  0  0  0  0  0  0
   -4.3498   47.6670   -7.2600 O   0  5  0  0  0  0  0  0  0  0  0  0
   -6.8854   43.5978   -8.0367 O   0  0  0  0  0  0  0  0  0  0  0  0
   -4.5228   39.9282   -6.7044 C   0  0  0  0  0  0  0  0  0  0  0  0
   -6.2716   35.7302   -5.8700 C   0  0  0  0  0  0  0  0  0  0  0  0
   -3.9682   46.1047   -9.2813 O   0  0  0  0  0  0  0  0  0  0  0  0
   -6.2161   44.6914  -10.2403 O   0  5  0  0  0  0  0  0  0  0  0  0
   -4.6873   40.4190   -5.4084 N   0  0  0  0  0  0  0  0  0  0  0  0
   -7.2387   36.6534   -5.9711 N   0  0  0  0  0  0  0  0  0  0  0  0
   -6.2917   46.1135   -8.1043 O   0  0  0  0  0  0  0  0  0  0  0  0
   -8.4642   45.2200   -9.1711 O   0  0  0  0  0  0  0  0  0  0  0  0
   -4.0782   41.6242   -5.0388 C   0  0  1  0  0  0  0  0  0  0  0  0
   -7.0328   37.9005   -5.5296 C   0  0  0  0  0  0  0  0  0  0  0  0
   -7.9996   38.8065   -5.6335 N   0  0  0  0  0  0  0  0  0  0  0  0
   -3.3148   42.3442   -5.9564 C   0  0  1  0  0  0  0  0  0  0  0  0
   -5.8136   38.2477   -4.9605 C   0  0  0  0  0  0  0  0  0  0  0  0
   -3.1636   41.8429   -7.2435 C   0  0  0  0  0  0  0  0  0  0  0  0
   -4.8379   37.2611   -4.8770 C   0  0  0  0  0  0  0  0  0  0  0  0
   -5.4970   39.6529   -4.4320 C   0  0  0  0  0  0  0  0  0  0  0  0
  1 13  1  0  0  0  0
  3  4  1  0  0  0  0
  4  5  1  0  0  0  0
  6  5  1  1  0  0  0
  6 10  1  0  0  0  0
  6 14  2  0  0  0  0
  6 18  1  0  0  0  0
  7 11  1  1  0  0  0
  7 15  1  0  0  0  0
  7 19  2  0  0  0  0
  7 18  1  0  0  0  0
  8 25  1  0  0  0  0
  8 12  1  0  0  0  0
  9 26  2  0  0  0  0
  9 13  1  0  0  0  0
 12 16  1  0  0  0  0
 13 17  2  0  0  0  0
 16 20  1  0  0  0  0
 16 27  1  0  0  0  0
 17 21  1  0  0  0  0
 20  2  1  6  0  0  0
 20 23  1  0  0  0  0
 21 22  1  0  0  0  0
 21 24  2  0  0  0  0
 23  3  1  6  0  0  0
 23 25  1  0  0  0  0
 24 27  1  0  0  0  0
 24 26  1  0  0  0  0
M  CHG  2  10  -1  15  -1
M  END
>  <CHROM.1>
66.77225864,174.93053271,-77.73336296,-64.35964145,67.33309006,-135.08810016
-100.41038346,11.33908564,-5.33250591,42.07268921,-6.83371978,1.66330801
0.58319711,2.79465600

>  <Name>
ligand

>  <RI>
0

>  <Rbt.Current_Directory>
/home/itssahil/PROJECTS/Mol_Feturizer/New_Systems/rnas/3D2V

>  <Rbt.Executable>
rbdock ($Id: //depot/dev/client3/rdock/2013.1/src/exe/rbdock.cxx#4 $)

>  <Rbt.Library>
libRbt.so (2013.1, Build901 2013/11/27)

>  <Rbt.Parameter_File>
/export/apps/rDock/src/rDock_2013.1_src/data/scripts/dock_solv.prm

>  <Rbt.Receptor>
prm/pocket_docking_7.prm

>  <SCORE>
-12.489

>  <SCORE.INTER>
-11.5029

>  <SCORE.INTER.CONST>
1

>  <SCORE.INTER.POLAR>
0

>  <SCORE.INTER.ROT>
8

>  <SCORE.INTER.SOLV>
13.2774

>  <SCORE.INTER.VDW>
-21.0277

>  <SCORE.INTER.norm>
-0.426032

>  <SCORE.INTRA>
-0.986106

>  <SCORE.INTRA.DIHEDRAL>
-1.73943

>  <SCORE.INTRA.DIHEDRAL.0>
7.82666

>  <SCORE.INTRA.POLAR>
0

>  <SCORE.INTRA.POLAR.0>
0

>  <SCORE.INTRA.REPUL>
0

>  <SCORE.INTRA.REPUL.0>
0

>  <SCORE.INTRA.SOLV>
-1.30858

>  <SCORE.INTRA.SOLV.lig_0>
-83.2758

>  <SCORE.INTRA.VDW>
0.5379

>  <SCORE.INTRA.VDW.0>
-3.26816

>  <SCORE.INTRA.norm>
-0.0365224

>  <SCORE.RESTR>
0

>  <SCORE.RESTR.CAVITY>
0

>  <SCORE.RESTR.norm>
0

>  <SCORE.SYSTEM>
0

>  <SCORE.SYSTEM.CONST>
0

>  <SCORE.SYSTEM.DIHEDRAL>
0

>  <SCORE.SYSTEM.SOLV>
0

>  <SCORE.SYSTEM.norm>
0

>  <SCORE.heavy>
27

>  <SCORE.norm>
-0.462555

>  <RMSD>
4.536

$$$$
ligand
 OpenBabel11021811463D
libRbt.so/2013.1/901 2013/11/27
 27 28  0  0  0  0  0  0  0  0999 V2000
  -11.5623   38.0722   -1.6505 C   0  0  0  0  0  0  0  0  0  0  0  0
   -4.6855   41.4408   -3.4633 C   0  0  0  0  0  0  0  0  0  0  0  0
   -4.5640   44.4125   -3.1037 C   0  0  0  0  0  0  0  0  0  0  0  0
   -3.0468   44.3359   -2.9226 C   0  0  0  0  0  0  0  0  0  0  0  0
   -2.3772   45.0801   -3.9435 O   0  0  0  0  0  0  0  0  0  0  0  0
   -0.9769   44.5572   -4.5316 P   0  0  1  0  0  0  0  0  0  0  0  0
   -0.8910   47.0421   -5.8638 P   0  0  2  0  0  0  0  0  0  0  0  0
   -6.5268   43.3078   -0.0413 C   0  0  0  0  0  0  0  0  0  0  0  0
   -9.5033   38.7641   -0.4385 N   0  0  0  0  0  0  0  0  0  0  0  0
   -0.0810   43.8910   -3.3825 O   0  5  0  0  0  0  0  0  0  0  0  0
   -0.2695   47.5141   -7.1181 O   0  0  0  0  0  0  0  0  0  0  0  0
   -6.5944   41.9287   -0.1881 C   0  0  0  0  0  0  0  0  0  0  0  0
  -10.1079   38.5425   -1.6160 C   0  0  0  0  0  0  0  0  0  0  0  0
   -1.1552   43.4419   -5.6883 O   0  0  0  0  0  0  0  0  0  0  0  0
   -0.9294   48.1997   -4.7528 O   0  5  0  0  0  0  0  0  0  0  0  0
   -5.9952   41.3235   -1.2938 N   0  0  0  0  0  0  0  0  0  0  0  0
   -9.4471   38.7300   -2.7676 N   0  0  0  0  0  0  0  0  0  0  0  0
   -0.1506   45.7932   -5.1919 O   0  0  0  0  0  0  0  0  0  0  0  0
   -2.4143   46.6330   -6.1009 O   0  0  0  0  0  0  0  0  0  0  0  0
   -5.3395   42.1115   -2.2474 C   0  0  1  0  0  0  0  0  0  0  0  0
   -8.1732   39.1419   -2.7576 C   0  0  0  0  0  0  0  0  0  0  0  0
   -7.5292   39.3261   -3.9055 N   0  0  0  0  0  0  0  0  0  0  0  0
   -5.2718   43.4958   -2.0988 C   0  0  1  0  0  0  0  0  0  0  0  0
   -7.5255   39.3805   -1.5516 C   0  0  0  0  0  0  0  0  0  0  0  0
   -5.8711   44.0821   -0.9907 C   0  0  0  0  0  0  0  0  0  0  0  0
   -8.2464   39.1717   -0.3815 C   0  0  0  0  0  0  0  0  0  0  0  0
   -6.0689   39.8521   -1.4531 C   0  0  0  0  0  0  0  0  0  0  0  0
  1 13  1  0  0  0  0
  3  4  1  0  0  0  0
  4  5  1  0  0  0  0
  6  5  1  1  0  0  0
  6 10  1  0  0  0  0
  6 14  2  0  0  0  0
  6 18  1  0  0  0  0
  7 11  1  6  0  0  0
  7 15  1  0  0  0  0
  7 19  2  0  0  0  0
  7 18  1  0  0  0  0
  8 25  1  0  0  0  0
  8 12  1  0  0  0  0
  9 26  2  0  0  0  0
  9 13  1  0  0  0  0
 12 16  1  0  0  0  0
 13 17  2  0  0  0  0
 16 20  1  0  0  0  0
 16 27  1  0  0  0  0
 17 21  1  0  0  0  0
 20  2  1  1  0  0  0
 20 23  1  0  0  0  0
 21 22  1  0  0  0  0
 21 24  2  0  0  0  0
 23  3  1  1  0  0  0
 23 25  1  0  0  0  0
 24 27  1  0  0  0  0
 24 26  1  0  0  0  0
M  CHG  2  10  -1  15  -1
M  END
>  <CHROM.1>
174.04105044,-144.64274475,-36.79088947,-30.66037422,-138.96680693,-76.71530330
96.56000449,60.36273767,-4.46465235,42.99716612,-3.27374268,-3.05645621,0.78328291
0.94655649

>  <Name>
ligand

>  <RI>
0

>  <Rbt.Current_Directory>
/home/itssahil/PROJECTS/Mol_Feturizer/New_Systems/rnas/3D2V

>  <Rbt.Executable>
rbdock ($Id: //depot/dev/client3/rdock/2013.1/src/exe/rbdock.cxx#4 $)

>  <Rbt.Library>
libRbt.so (2013.1, Build901 2013/11/27)

>  <Rbt.Parameter_File>
/export/apps/rDock/src/rDock_2013.1_src/data/scripts/dock_solv.prm

>  <Rbt.Receptor>
prm/blind_docking_60.prm

>  <SCORE>
-16.8761

>  <SCORE.INTER>
-20.6872

>  <SCORE.INTER.CONST>
1

>  <SCORE.INTER.POLAR>
0

>  <SCORE.INTER.ROT>
8

>  <SCORE.INTER.SOLV>
18.0464

>  <SCORE.INTER.VDW>
-28.7403

>  <SCORE.INTER.norm>
-0.766192

>  <SCORE.INTRA>
3.70939

>  <SCORE.INTRA.DIHEDRAL>
5.87045

>  <SCORE.INTRA.DIHEDRAL.0>
7.82666

>  <SCORE.INTRA.POLAR>
0

>  <SCORE.INTRA.POLAR.0>
0

>  <SCORE.INTRA.REPUL>
0

>  <SCORE.INTRA.REPUL.0>
0

>  <SCORE.INTRA.SOLV>
1.53483

>  <SCORE.INTRA.SOLV.lig_0>
-83.2758

>  <SCORE.INTRA.VDW>
0.00674967

>  <SCORE.INTRA.VDW.0>
-3.26816

>  <SCORE.INTRA.norm>
0.137385

>  <SCORE.RESTR>
0.10166

>  <SCORE.RESTR.CAVITY>
0.10166

>  <SCORE.RESTR.norm>
0.0037652

>  <SCORE.SYSTEM>
0

>  <SCORE.SYSTEM.CONST>
0

>  <SCORE.SYSTEM.DIHEDRAL>
0

>  <SCORE.SYSTEM.SOLV>
0

>  <SCORE.SYSTEM.norm>
0

>  <SCORE.heavy>
27

>  <SCORE.norm>
-0.625042

>  <RMSD>
4.600

$$$$
ligand
 OpenBabel11021811473D
libRbt.so/2013.1/901 2013/11/27
 27 28  0  0  0  0  0  0  0  0999 V2000
   -6.5643   34.0847   -7.7740 C   0  0  0  0  0  0  0  0  0  0  0  0
   -6.1809   39.7169   -3.8114 C   0  0  0  0  0  0  0  0  0  0  0  0
   -4.7450   42.1624   -4.7772 C   0  0  0  0  0  0  0  0  0  0  0  0
   -3.6843   42.5190   -5.8205 C   0  0  0  0  0  0  0  0  0  0  0  0
   -2.6043   43.2373   -5.2190 O   0  0  0  0  0  0  0  0  0  0  0  0
   -1.4160   43.8150   -6.1322 P   0  0  1  0  0  0  0  0  0  0  0  0
    0.0382   46.2299   -6.2316 P   0  0  2  0  0  0  0  0  0  0  0  0
   -7.6442   41.9092   -7.2230 C   0  0  0  0  0  0  0  0  0  0  0  0
   -6.8306   35.6084   -5.8261 N   0  0  0  0  0  0  0  0  0  0  0  0
   -0.2995   42.6977   -6.4012 O   0  5  0  0  0  0  0  0  0  0  0  0
    0.9805   45.7179   -7.2478 O   0  0  0  0  0  0  0  0  0  0  0  0
   -8.3255   40.7787   -6.7916 C   0  0  0  0  0  0  0  0  0  0  0  0
   -7.1048   35.3540   -7.1149 C   0  0  0  0  0  0  0  0  0  0  0  0
   -1.9233   44.3242   -7.5803 O   0  0  0  0  0  0  0  0  0  0  0  0
    0.7807   47.1597   -5.1546 O   0  5  0  0  0  0  0  0  0  0  0  0
   -7.8543   40.0709   -5.6850 N   0  0  0  0  0  0  0  0  0  0  0  0
   -7.8511   36.2049   -7.8339 N   0  0  0  0  0  0  0  0  0  0  0  0
   -0.7180   45.0902   -5.4020 O   0  0  0  0  0  0  0  0  0  0  0  0
   -1.0711   47.1605   -6.9003 O   0  0  0  0  0  0  0  0  0  0  0  0
   -6.6966   40.5014   -5.0258 C   0  0  1  0  0  0  0  0  0  0  0  0
   -8.3335   37.3213   -7.2741 C   0  0  0  0  0  0  0  0  0  0  0  0
   -9.0735   38.1562   -7.9964 N   0  0  0  0  0  0  0  0  0  0  0  0
   -6.0137   41.6366   -5.4592 C   0  0  2  0  0  0  0  0  0  0  0  0
   -8.0656   37.6064   -5.9408 C   0  0  0  0  0  0  0  0  0  0  0  0
   -6.4979   42.3315   -6.5608 C   0  0  0  0  0  0  0  0  0  0  0  0
   -7.2864   36.6988   -5.2325 C   0  0  0  0  0  0  0  0  0  0  0  0
   -8.5788   38.8628   -5.2252 C   0  0  0  0  0  0  0  0  0  0  0  0
  1 13  1  0  0  0  0
  3  4  1  0  0  0  0
  4  5  1  0  0  0  0
  6  5  1  1  0  0  0
  6 10  1  0  0  0  0
  6 14  2  0  0  0  0
  6 18  1  0  0  0  0
  7 11  1  6  0  0  0
  7 15  1  0  0  0  0
  7 19  2  0  0  0  0
  7 18  1  0  0  0  0
  8 25  1  0  0  0  0
  8 12  1  0  0  0  0
  9 26  2  0  0  0  0
  9 13  1  0  0  0  0
 12 16  1  0  0  0  0
 13 17  2  0  0  0  0
 16 20  1  0  0  0  0
 16 27  1  0  0  0  0
 17 21  1  0  0  0  0
 20  2  1  1  0  0  0
 20 23  1  0  0  0  0
 21 22  1  0  0  0  0
 21 24  2  0  0  0  0
 23  3  1  6  0  0  0
 23 25  1  0  0  0  0
 24 27  1  0  0  0  0
 24 26  1  0  0  0  0
M  CHG  2  10  -1  15  -1
M  END
>  <CHROM.1>
169.17526474,-175.60315570,-84.68538209,-154.42535227,-47.36012329,134.53028142
-72.49236585,88.64208983,-4.35285429,41.52095652,-6.20302292,-2.30190972
0.13954437,0.16400217

>  <Name>
ligand

>  <RI>
0

>  <Rbt.Current_Directory>
/home/itssahil/PROJECTS/Mol_Feturizer/New_Systems/rnas/3D2V

>  <Rbt.Executable>
rbdock ($Id: //depot/dev/client3/rdock/2013.1/src/exe/rbdock.cxx#4 $)

>  <Rbt.Library>
libRbt.so (2013.1, Build901 2013/11/27)

>  <Rbt.Parameter_File>
/export/apps/rDock/src/rDock_2013.1_src/data/scripts/dock_solv.prm

>  <Rbt.Receptor>
prm/pocket_docking_8.prm

>  <SCORE>
-6.91351

>  <SCORE.INTER>
-7.36476

>  <SCORE.INTER.CONST>
1

>  <SCORE.INTER.POLAR>
0

>  <SCORE.INTER.ROT>
8

>  <SCORE.INTER.SOLV>
23.7176

>  <SCORE.INTER.VDW>
-21.749

>  <SCORE.INTER.norm>
-0.272769

>  <SCORE.INTRA>
0.451254

>  <SCORE.INTRA.DIHEDRAL>
-0.063574

>  <SCORE.INTRA.DIHEDRAL.0>
7.82666

>  <SCORE.INTRA.POLAR>
0

>  <SCORE.INTRA.POLAR.0>
0

>  <SCORE.INTRA.REPUL>
0

>  <SCORE.INTRA.REPUL.0>
0

>  <SCORE.INTRA.SOLV>
0.296808

>  <SCORE.INTRA.SOLV.lig_0>
-83.2758

>  <SCORE.INTRA.VDW>
0.334637

>  <SCORE.INTRA.VDW.0>
-3.26816

>  <SCORE.INTRA.norm>
0.0167131

>  <SCORE.RESTR>
0

>  <SCORE.RESTR.CAVITY>
0

>  <SCORE.RESTR.norm>
0

>  <SCORE.SYSTEM>
0

>  <SCORE.SYSTEM.CONST>
0

>  <SCORE.SYSTEM.DIHEDRAL>
0

>  <SCORE.SYSTEM.SOLV>
0

>  <SCORE.SYSTEM.norm>
0

>  <SCORE.heavy>
27

>  <SCORE.norm>
-0.256056

>  <RMSD>
4.651

$$$$
ligand
 OpenBabel11021811473D
libRbt.so/2013.1/901 2013/11/27
 27 28  0  0  0  0  0  0  0  0999 V2000
   -5.1086   40.5729    0.7215 C   0  0  0  0  0  0  0  0  0  0  0  0
   -6.6597   42.6320   -5.2157 C   0  0  0  0  0  0  0  0  0  0  0  0
   -4.6756   43.6481   -7.2173 C   0  0  0  0  0  0  0  0  0  0  0  0
   -3.7482   44.3212   -6.2037 C   0  0  0  0  0  0  0  0  0  0  0  0
   -3.6415   45.7223   -6.4680 O   0  0  0  0  0  0  0  0  0  0  0  0
   -2.7556   46.6561   -5.5072 P   0  0  1  0  0  0  0  0  0  0  0  0
   -4.0985   48.8477   -6.6691 P   0  0  2  0  0  0  0  0  0  0  0  0
   -4.0904   39.8938   -7.3340 C   0  0  0  0  0  0  0  0  0  0  0  0
   -6.7771   39.9114   -1.0007 N   0  0  0  0  0  0  0  0  0  0  0  0
   -3.3051   46.6220   -4.0025 O   0  5  0  0  0  0  0  0  0  0  0  0
   -5.3257   48.6215   -5.8783 O   0  0  0  0  0  0  0  0  0  0  0  0
   -5.0034   39.4014   -6.4109 C   0  0  0  0  0  0  0  0  0  0  0  0
   -5.5433   40.3646   -0.7295 C   0  0  0  0  0  0  0  0  0  0  0  0
   -1.2038   46.2069   -5.4464 O   0  0  0  0  0  0  0  0  0  0  0  0
   -4.2370   48.2562   -8.1546 O   0  5  0  0  0  0  0  0  0  0  0  0
   -5.8379   40.2871   -5.7277 N   0  0  0  0  0  0  0  0  0  0  0  0
   -4.6841   40.6379   -1.7220 N   0  0  0  0  0  0  0  0  0  0  0  0
   -2.7810   48.1925   -6.0412 O   0  0  0  0  0  0  0  0  0  0  0  0
   -3.8218   50.4069   -6.8590 O   0  0  0  0  0  0  0  0  0  0  0  0
   -5.7418   41.6622   -5.9727 C   0  0  1  0  0  0  0  0  0  0  0  0
   -5.0464   40.4616   -2.9987 C   0  0  0  0  0  0  0  0  0  0  0  0
   -4.1854   40.7341   -3.9738 N   0  0  0  0  0  0  0  0  0  0  0  0
   -4.8253   42.1555   -6.8999 C   0  0  2  0  0  0  0  0  0  0  0  0
   -6.3174   39.9912   -3.3056 C   0  0  0  0  0  0  0  0  0  0  0  0
   -4.0039   41.2598   -7.5736 C   0  0  0  0  0  0  0  0  0  0  0  0
   -7.1773   39.7224   -2.2470 C   0  0  0  0  0  0  0  0  0  0  0  0
   -6.8108   39.7633   -4.7404 C   0  0  0  0  0  0  0  0  0  0  0  0
  1 13  1  0  0  0  0
  3  4  1  0  0  0  0
  4  5  1  0  0  0  0
  6  5  1  6  0  0  0
  6 10  1  0  0  0  0
  6 14  2  0  0  0  0
  6 18  1  0  0  0  0
  7 11  1  1  0  0  0
  7 15  1  0  0  0  0
  7 19  2  0  0  0  0
  7 18  1  0  0  0  0
  8 25  1  0  0  0  0
  8 12  1  0  0  0  0
  9 26  2  0  0  0  0
  9 13  1  0  0  0  0
 12 16  1  0  0  0  0
 13 17  2  0  0  0  0
 16 20  1  0  0  0  0
 16 27  1  0  0  0  0
 17 21  1  0  0  0  0
 20  2  1  6  0  0  0
 20 23  1  0  0  0  0
 21 22  1  0  0  0  0
 21 24  2  0  0  0  0
 23  3  1  1  0  0  0
 23 25  1  0  0  0  0
 24 27  1  0  0  0  0
 24 26  1  0  0  0  0
M  CHG  2  10  -1  15  -1
M  END
>  <CHROM.1>
-178.02088546,178.11598737,-60.29592111,37.45396591,47.30560158,84.30592448
-8.04738385,102.97395386,-4.54975976,43.85719260,-5.07338192,-2.96202302
-1.32612939,-1.78088627

>  <Name>
ligand

>  <RI>
0

>  <Rbt.Current_Directory>
/home/itssahil/PROJECTS/Mol_Feturizer/New_Systems/rnas/3D2V

>  <Rbt.Executable>
rbdock ($Id: //depot/dev/client3/rdock/2013.1/src/exe/rbdock.cxx#4 $)

>  <Rbt.Library>
libRbt.so (2013.1, Build901 2013/11/27)

>  <Rbt.Parameter_File>
/export/apps/rDock/src/rDock_2013.1_src/data/scripts/dock_solv.prm

>  <Rbt.Receptor>
prm/pocket_docking_6.prm

>  <SCORE>
-3.6841

>  <SCORE.INTER>
-5.07277

>  <SCORE.INTER.CONST>
1

>  <SCORE.INTER.POLAR>
0

>  <SCORE.INTER.ROT>
8

>  <SCORE.INTER.SOLV>
12.5893

>  <SCORE.INTER.VDW>
-16.5116

>  <SCORE.INTER.norm>
-0.18788

>  <SCORE.INTRA>
1.38867

>  <SCORE.INTRA.DIHEDRAL>
-1.64931

>  <SCORE.INTRA.DIHEDRAL.0>
7.82666

>  <SCORE.INTRA.POLAR>
0

>  <SCORE.INTRA.POLAR.0>
0

>  <SCORE.INTRA.REPUL>
0

>  <SCORE.INTRA.REPUL.0>
0

>  <SCORE.INTRA.SOLV>
3.56526

>  <SCORE.INTRA.SOLV.lig_0>
-83.2758

>  <SCORE.INTRA.VDW>
0.430702

>  <SCORE.INTRA.VDW.0>
-3.26816

>  <SCORE.INTRA.norm>
0.0514324

>  <SCORE.RESTR>
0

>  <SCORE.RESTR.CAVITY>
0

>  <SCORE.RESTR.norm>
0

>  <SCORE.SYSTEM>
0

>  <SCORE.SYSTEM.CONST>
0

>  <SCORE.SYSTEM.DIHEDRAL>
0

>  <SCORE.SYSTEM.SOLV>
0

>  <SCORE.SYSTEM.norm>
0

>  <SCORE.heavy>
27

>  <SCORE.norm>
-0.136448

>  <RMSD>
4.668

$$$$
ligand
 OpenBabel11021811473D
libRbt.so/2013.1/901 2013/11/27
 27 28  0  0  0  0  0  0  0  0999 V2000
   -4.8554   41.4933    0.8231 C   0  0  0  0  0  0  0  0  0  0  0  0
   -8.2671   39.6992   -6.2741 C   0  0  0  0  0  0  0  0  0  0  0  0
   -6.4585   38.4667   -8.3198 C   0  0  0  0  0  0  0  0  0  0  0  0
   -5.6634   39.7150   -8.7075 C   0  0  0  0  0  0  0  0  0  0  0  0
   -5.5600   39.8278  -10.1290 O   0  0  0  0  0  0  0  0  0  0  0  0
   -4.8254   41.0977  -10.7830 P   0  0  1  0  0  0  0  0  0  0  0  0
   -5.2415   39.8689  -13.2877 P   0  0  2  0  0  0  0  0  0  0  0  0
   -5.1142   37.0150   -5.0738 C   0  0  0  0  0  0  0  0  0  0  0  0
   -6.6832   40.0555   -0.0595 N   0  0  0  0  0  0  0  0  0  0  0  0
   -5.8013   42.3675  -10.8309 O   0  5  0  0  0  0  0  0  0  0  0  0
   -6.4376   40.5660  -13.8035 O   0  0  0  0  0  0  0  0  0  0  0  0
   -5.9415   37.5747   -4.1092 C   0  0  0  0  0  0  0  0  0  0  0  0
   -5.6365   40.8526   -0.3245 C   0  0  0  0  0  0  0  0  0  0  0  0
   -3.5072   41.5543   -9.9660 O   0  0  0  0  0  0  0  0  0  0  0  0
   -5.6362   38.5372  -12.4836 O   0  5  0  0  0  0  0  0  0  0  0  0
   -6.9646   38.4407   -4.4977 N   0  0  0  0  0  0  0  0  0  0  0  0
   -5.2669   41.0940   -1.5906 N   0  0  0  0  0  0  0  0  0  0  0  0
   -4.3440   40.7475  -12.2970 O   0  0  0  0  0  0  0  0  0  0  0  0
   -4.3069   39.3792  -14.4838 O   0  0  0  0  0  0  0  0  0  0  0  0
   -7.1424   38.7433   -5.8530 C   0  0  1  0  0  0  0  0  0  0  0  0
   -5.9383   40.5418   -2.6087 C   0  0  0  0  0  0  0  0  0  0  0  0
   -5.5614   40.7870   -3.8594 N   0  0  0  0  0  0  0  0  0  0  0  0
   -6.3118   38.1805   -6.8207 C   0  0  2  0  0  0  0  0  0  0  0  0
   -7.0242   39.7110   -2.3607 C   0  0  0  0  0  0  0  0  0  0  0  0
   -5.2998   37.3180   -6.4172 C   0  0  0  0  0  0  0  0  0  0  0  0
   -7.3749   39.4889   -1.0340 C   0  0  0  0  0  0  0  0  0  0  0  0
   -7.8465   39.0408   -3.4691 C   0  0  0  0  0  0  0  0  0  0  0  0
  1 13  1  0  0  0  0
  3  4  1  0  0  0  0
  4  5  1  0  0  0  0
  6  5  1  1  0  0  0
  6 10  1  0  0  0  0
  6 14  2  0  0  0  0
  6 18  1  0  0  0  0
  7 11  1  6  0  0  0
  7 15  1  0  0  0  0
  7 19  2  0  0  0  0
  7 18  1  0  0  0  0
  8 25  1  0  0  0  0
  8 12  1  0  0  0  0
  9 26  2  0  0  0  0
  9 13  1  0  0  0  0
 12 16  1  0  0  0  0
 13 17  2  0  0  0  0
 16 20  1  0  0  0  0
 16 27  1  0  0  0  0
 17 21  1  0  0  0  0
 20  2  1  6  0  0  0
 20 23  1  0  0  0  0
 21 22  1  0  0  0  0
 21 24  2  0  0  0  0
 23  3  1  1  0  0  0
 23 25  1  0  0  0  0
 24 27  1  0  0  0  0
 24 26  1  0  0  0  0
M  CHG  2  10  -1  15  -1
M  END
>  <CHROM.1>
167.71624005,177.20316092,-80.59289402,38.87850555,72.42565010,87.42732172
45.59425668,51.89001024,-5.78108645,39.84120396,-7.34887141,-1.80140841,-1.11160092
-1.75395317

>  <Name>
ligand

>  <RI>
0

>  <Rbt.Current_Directory>
/home/itssahil/PROJECTS/Mol_Feturizer/New_Systems/rnas/3D2V

>  <Rbt.Executable>
rbdock ($Id: //depot/dev/client3/rdock/2013.1/src/exe/rbdock.cxx#4 $)

>  <Rbt.Library>
libRbt.so (2013.1, Build901 2013/11/27)

>  <Rbt.Parameter_File>
/export/apps/rDock/src/rDock_2013.1_src/data/scripts/dock_solv.prm

>  <Rbt.Receptor>
prm/pocket_docking_8.prm

>  <SCORE>
-18.1884

>  <SCORE.INTER>
-18.372

>  <SCORE.INTER.CONST>
1

>  <SCORE.INTER.POLAR>
0

>  <SCORE.INTER.ROT>
8

>  <SCORE.INTER.SOLV>
21.8036

>  <SCORE.INTER.VDW>
-28.4492

>  <SCORE.INTER.norm>
-0.680445

>  <SCORE.INTRA>
0.183635

>  <SCORE.INTRA.DIHEDRAL>
-0.526037

>  <SCORE.INTRA.DIHEDRAL.0>
7.82666

>  <SCORE.INTRA.POLAR>
0

>  <SCORE.INTRA.POLAR.0>
0

>  <SCORE.INTRA.REPUL>
0

>  <SCORE.INTRA.REPUL.0>
0

>  <SCORE.INTRA.SOLV>
1.67289

>  <SCORE.INTRA.SOLV.lig_0>
-83.2758

>  <SCORE.INTRA.VDW>
-0.38979

>  <SCORE.INTRA.VDW.0>
-3.26816

>  <SCORE.INTRA.norm>
0.00680128

>  <SCORE.RESTR>
0

>  <SCORE.RESTR.CAVITY>
0

>  <SCORE.RESTR.norm>
0

>  <SCORE.SYSTEM>
0

>  <SCORE.SYSTEM.CONST>
0

>  <SCORE.SYSTEM.DIHEDRAL>
0

>  <SCORE.SYSTEM.SOLV>
0

>  <SCORE.SYSTEM.norm>
0

>  <SCORE.heavy>
27

>  <SCORE.norm>
-0.673643

>  <RMSD>
4.696

$$$$
ligand
 OpenBabel11021811473D
libRbt.so/2013.1/901 2013/11/27
 27 28  0  0  0  0  0  0  0  0999 V2000
   -2.5214   44.2357   -4.1474 C   0  0  0  0  0  0  0  0  0  0  0  0
   -8.1252   41.3452   -4.3442 C   0  0  0  0  0  0  0  0  0  0  0  0
   -8.9951   39.7176   -6.7042 C   0  0  0  0  0  0  0  0  0  0  0  0
   -8.2448   40.1978   -7.9480 C   0  0  0  0  0  0  0  0  0  0  0  0
   -7.2609   41.1749   -7.5995 O   0  0  0  0  0  0  0  0  0  0  0  0
   -6.1692   41.6380   -8.6829 P   0  0  1  0  0  0  0  0  0  0  0  0
   -6.0638   43.1097  -11.0869 P   0  0  2  0  0  0  0  0  0  0  0  0
   -6.6259   37.3436   -4.9149 C   0  0  0  0  0  0  0  0  0  0  0  0
   -3.5364   41.9691   -4.2876 N   0  0  0  0  0  0  0  0  0  0  0  0
   -4.9607   42.4247   -7.9846 O   0  5  0  0  0  0  0  0  0  0  0  0
   -5.7671   42.0446  -12.0668 O   0  0  0  0  0  0  0  0  0  0  0  0
   -6.2100   38.0803   -3.8137 C   0  0  0  0  0  0  0  0  0  0  0  0
   -3.5150   43.1688   -3.6865 C   0  0  0  0  0  0  0  0  0  0  0  0
   -5.5142   40.3986   -9.4883 O   0  0  0  0  0  0  0  0  0  0  0  0
   -4.7222   43.8120  -10.5553 O   0  5  0  0  0  0  0  0  0  0  0  0
   -6.6980   39.3743   -3.6266 N   0  0  0  0  0  0  0  0  0  0  0  0
   -4.3593   43.4429   -2.6816 N   0  0  0  0  0  0  0  0  0  0  0  0
   -6.8578   42.6094   -9.7914 O   0  0  0  0  0  0  0  0  0  0  0  0
   -6.9163   44.2794  -11.7569 O   0  0  0  0  0  0  0  0  0  0  0  0
   -7.5945   39.9201   -4.5532 C   0  0  1  0  0  0  0  0  0  0  0  0
   -5.2366   42.5217   -2.2643 C   0  0  0  0  0  0  0  0  0  0  0  0
   -6.0698   42.8057   -1.2685 N   0  0  0  0  0  0  0  0  0  0  0  0
   -8.0117   39.1796   -5.6580 C   0  0  1  0  0  0  0  0  0  0  0  0
   -5.2803   41.2728   -2.8718 C   0  0  0  0  0  0  0  0  0  0  0  0
   -7.5185   37.8917   -5.8279 C   0  0  0  0  0  0  0  0  0  0  0  0
   -4.3863   41.0295   -3.9082 C   0  0  0  0  0  0  0  0  0  0  0  0
   -6.2531   40.1626   -2.4534 C   0  0  0  0  0  0  0  0  0  0  0  0
  1 13  1  0  0  0  0
  3  4  1  0  0  0  0
  4  5  1  0  0  0  0
  6  5  1  1  0  0  0
  6 10  1  0  0  0  0
  6 14  2  0  0  0  0
  6 18  1  0  0  0  0
  7 11  1  6  0  0  0
  7 15  1  0  0  0  0
  7 19  2  0  0  0  0
  7 18  1  0  0  0  0
  8 25  1  0  0  0  0
  8 12  1  0  0  0  0
  9 26  2  0  0  0  0
  9 13  1  0  0  0  0
 12 16  1  0  0  0  0
 13 17  2  0  0  0  0
 16 20  1  0  0  0  0
 16 27  1  0  0  0  0
 17 21  1  0  0  0  0
 20  2  1  1  0  0  0
 20 23  1  0  0  0  0
 21 22  1  0  0  0  0
 21 24  2  0  0  0  0
 23  3  1  1  0  0  0
 23 25  1  0  0  0  0
 24 27  1  0  0  0  0
 24 26  1  0  0  0  0
M  CHG  2  10  -1  15  -1
M  END
>  <CHROM.1>
-55.84509504,169.07471004,-165.12110360,-173.44850943,68.70927280,100.23586333
144.72052616,106.83560764,-6.05295814,41.48989999,-6.59251582,-1.47269912
-0.89243068,-1.28055542

>  <Name>
ligand

>  <RI>
0

>  <Rbt.Current_Directory>
/home/itssahil/PROJECTS/Mol_Feturizer/New_Systems/rnas/3D2V

>  <Rbt.Executable>
rbdock ($Id: //depot/dev/client3/rdock/2013.1/src/exe/rbdock.cxx#4 $)

>  <Rbt.Library>
libRbt.so (2013.1, Build901 2013/11/27)

>  <Rbt.Parameter_File>
/export/apps/rDock/src/rDock_2013.1_src/data/scripts/dock_solv.prm

>  <Rbt.Receptor>
prm/pocket_docking_8.prm

>  <SCORE>
-12.3841

>  <SCORE.INTER>
-10.9348

>  <SCORE.INTER.CONST>
1

>  <SCORE.INTER.POLAR>
0

>  <SCORE.INTER.ROT>
8

>  <SCORE.INTER.SOLV>
13.5551

>  <SCORE.INTER.VDW>
-20.7415

>  <SCORE.INTER.norm>
-0.404991

>  <SCORE.INTRA>
-1.44934

>  <SCORE.INTRA.DIHEDRAL>
-1.49239

>  <SCORE.INTRA.DIHEDRAL.0>
7.82666

>  <SCORE.INTRA.POLAR>
0

>  <SCORE.INTRA.POLAR.0>
0

>  <SCORE.INTRA.REPUL>
0

>  <SCORE.INTRA.REPUL.0>
0

>  <SCORE.INTRA.SOLV>
0.218361

>  <SCORE.INTRA.SOLV.lig_0>
-83.2758

>  <SCORE.INTRA.VDW>
-0.812323

>  <SCORE.INTRA.VDW.0>
-3.26816

>  <SCORE.INTRA.norm>
-0.0536791

>  <SCORE.RESTR>
0

>  <SCORE.RESTR.CAVITY>
0

>  <SCORE.RESTR.norm>
0

>  <SCORE.SYSTEM>
0

>  <SCORE.SYSTEM.CONST>
0

>  <SCORE.SYSTEM.DIHEDRAL>
0

>  <SCORE.SYSTEM.SOLV>
0

>  <SCORE.SYSTEM.norm>
0

>  <SCORE.heavy>
27

>  <SCORE.norm>
-0.45867

>  <RMSD>
4.759

$$$$
ligand
 OpenBabel11021811473D
libRbt.so/2013.1/901 2013/11/27
 27 28  0  0  0  0  0  0  0  0999 V2000
   -7.0200   32.5004   -7.9393 C   0  0  0  0  0  0  0  0  0  0  0  0
   -4.9523   40.0641   -4.4144 C   0  0  0  0  0  0  0  0  0  0  0  0
   -3.6354   41.9266   -6.3567 C   0  0  0  0  0  0  0  0  0  0  0  0
   -3.9135   43.0518   -7.3553 C   0  0  0  0  0  0  0  0  0  0  0  0
   -5.3205   43.2379   -7.5289 O   0  0  0  0  0  0  0  0  0  0  0  0
   -5.8814   43.9185   -8.8713 P   0  0  1  0  0  0  0  0  0  0  0  0
   -6.3784   43.1931  -11.5514 P   0  0  2  0  0  0  0  0  0  0  0  0
   -4.9260   39.1677   -8.6313 C   0  0  0  0  0  0  0  0  0  0  0  0
   -7.4621   34.9363   -7.6973 N   0  0  0  0  0  0  0  0  0  0  0  0
   -7.4321   44.2939   -8.7235 O   0  5  0  0  0  0  0  0  0  0  0  0
   -7.8546   43.2452  -11.5244 O   0  0  0  0  0  0  0  0  0  0  0  0
   -5.5427   38.2910   -7.7485 C   0  0  0  0  0  0  0  0  0  0  0  0
   -6.7944   33.8548   -7.2666 C   0  0  0  0  0  0  0  0  0  0  0  0
   -5.1068   45.2838   -9.2579 O   0  0  0  0  0  0  0  0  0  0  0  0
   -5.8470   42.0528  -12.5479 O   0  5  0  0  0  0  0  0  0  0  0  0
   -5.5547   38.5827   -6.3838 N   0  0  0  0  0  0  0  0  0  0  0  0
   -5.9275   33.9499   -6.2479 N   0  0  0  0  0  0  0  0  0  0  0  0
   -5.7041   42.9033  -10.1300 O   0  0  0  0  0  0  0  0  0  0  0  0
   -5.7698   44.5582  -12.1080 O   0  0  0  0  0  0  0  0  0  0  0  0
   -4.9391   39.7503   -5.9169 C   0  0  1  0  0  0  0  0  0  0  0  0
   -5.7164   35.1272   -5.6466 C   0  0  0  0  0  0  0  0  0  0  0  0
   -4.8534   35.2094   -4.6392 N   0  0  0  0  0  0  0  0  0  0  0  0
   -4.3208   40.6300   -6.8039 C   0  0  1  0  0  0  0  0  0  0  0  0
   -6.3937   36.2622   -6.0754 C   0  0  0  0  0  0  0  0  0  0  0  0
   -4.3204   40.3261   -8.1598 C   0  0  0  0  0  0  0  0  0  0  0  0
   -7.2846   36.1191   -7.1329 C   0  0  0  0  0  0  0  0  0  0  0  0
   -6.2101   37.6467   -5.4403 C   0  0  0  0  0  0  0  0  0  0  0  0
  1 13  1  0  0  0  0
  3  4  1  0  0  0  0
  4  5  1  0  0  0  0
  6  5  1  1  0  0  0
  6 10  1  0  0  0  0
  6 14  2  0  0  0  0
  6 18  1  0  0  0  0
  7 11  1  1  0  0  0
  7 15  1  0  0  0  0
  7 19  2  0  0  0  0
  7 18  1  0  0  0  0
  8 25  1  0  0  0  0
  8 12  1  0  0  0  0
  9 26  2  0  0  0  0
  9 13  1  0  0  0  0
 12 16  1  0  0  0  0
 13 17  2  0  0  0  0
 16 20  1  0  0  0  0
 16 27  1  0  0  0  0
 17 21  1  0  0  0  0
 20  2  1  6  0  0  0
 20 23  1  0  0  0  0
 21 22  1  0  0  0  0
 21 24  2  0  0  0  0
 23  3  1  6  0  0  0
 23 25  1  0  0  0  0
 24 27  1  0  0  0  0
 24 26  1  0  0  0  0
M  CHG  2  10  -1  15  -1
M  END
>  <CHROM.1>
56.05105007,-156.66922552,-168.46481590,169.88616685,-62.06710095,-140.74747975
112.56561970,18.32375728,-5.79690857,40.16088030,-8.15914921,1.63175810,1.13795958
2.67274277

>  <Name>
ligand

>  <RI>
0

>  <Rbt.Current_Directory>
/home/itssahil/PROJECTS/Mol_Feturizer/New_Systems/rnas/3D2V

>  <Rbt.Executable>
rbdock ($Id: //depot/dev/client3/rdock/2013.1/src/exe/rbdock.cxx#4 $)

>  <Rbt.Library>
libRbt.so (2013.1, Build901 2013/11/27)

>  <Rbt.Parameter_File>
/export/apps/rDock/src/rDock_2013.1_src/data/scripts/dock_solv.prm

>  <Rbt.Receptor>
prm/pocket_docking_8.prm

>  <SCORE>
-12.2728

>  <SCORE.INTER>
-12.871

>  <SCORE.INTER.CONST>
1

>  <SCORE.INTER.POLAR>
0

>  <SCORE.INTER.ROT>
8

>  <SCORE.INTER.SOLV>
20.4263

>  <SCORE.INTER.VDW>
-24.3228

>  <SCORE.INTER.norm>
-0.476705

>  <SCORE.INTRA>
0.598255

>  <SCORE.INTRA.DIHEDRAL>
0.163002

>  <SCORE.INTRA.DIHEDRAL.0>
7.82666

>  <SCORE.INTRA.POLAR>
0

>  <SCORE.INTRA.POLAR.0>
0

>  <SCORE.INTRA.REPUL>
0

>  <SCORE.INTRA.REPUL.0>
0

>  <SCORE.INTRA.SOLV>
-0.823797

>  <SCORE.INTRA.SOLV.lig_0>
-83.2758

>  <SCORE.INTRA.VDW>
0.928653

>  <SCORE.INTRA.VDW.0>
-3.26816

>  <SCORE.INTRA.norm>
0.0221576

>  <SCORE.RESTR>
0

>  <SCORE.RESTR.CAVITY>
0

>  <SCORE.RESTR.norm>
0

>  <SCORE.SYSTEM>
0

>  <SCORE.SYSTEM.CONST>
0

>  <SCORE.SYSTEM.DIHEDRAL>
0

>  <SCORE.SYSTEM.SOLV>
0

>  <SCORE.SYSTEM.norm>
0

>  <SCORE.heavy>
27

>  <SCORE.norm>
-0.454547

>  <RMSD>
4.773

$$$$
ligand
 OpenBabel11021811473D
libRbt.so/2013.1/901 2013/11/27
 27 28  0  0  0  0  0  0  0  0999 V2000
   -8.3397   44.2108   -4.1189 C   0  0  0  0  0  0  0  0  0  0  0  0
   -3.6090   41.5806   -8.3029 C   0  0  0  0  0  0  0  0  0  0  0  0
   -4.3860   40.7223  -11.0661 C   0  0  0  0  0  0  0  0  0  0  0  0
   -5.3331   41.8447  -11.4948 C   0  0  0  0  0  0  0  0  0  0  0  0
   -5.2422   42.9540  -10.5973 O   0  0  0  0  0  0  0  0  0  0  0  0
   -6.3456   44.1202  -10.6466 P   0  0  1  0  0  0  0  0  0  0  0  0
   -6.7150   46.1288   -8.7011 P   0  0  2  0  0  0  0  0  0  0  0  0
   -6.3111   38.2726   -8.8880 C   0  0  0  0  0  0  0  0  0  0  0  0
   -6.7301   43.2806   -5.7715 N   0  0  0  0  0  0  0  0  0  0  0  0
   -6.6596   44.5541  -12.1567 O   0  5  0  0  0  0  0  0  0  0  0  0
   -6.9843   45.2851   -7.5186 O   0  0  0  0  0  0  0  0  0  0  0  0
   -5.9647   38.6542   -7.5987 C   0  0  0  0  0  0  0  0  0  0  0  0
   -7.3851   43.1225   -4.6109 C   0  0  0  0  0  0  0  0  0  0  0  0
   -7.7548   43.6841   -9.9850 O   0  0  0  0  0  0  0  0  0  0  0  0
   -8.0745   46.5847   -9.4219 O   0  5  0  0  0  0  0  0  0  0  0  0
   -5.0929   39.7274   -7.4087 N   0  0  0  0  0  0  0  0  0  0  0  0
   -7.2105   42.0153   -3.8749 N   0  0  0  0  0  0  0  0  0  0  0  0
   -5.8213   45.4220   -9.8240 O   0  0  0  0  0  0  0  0  0  0  0  0
   -5.9847   47.4830   -8.2809 O   0  0  0  0  0  0  0  0  0  0  0  0
   -4.5701   40.4033   -8.5178 C   0  0  1  0  0  0  0  0  0  0  0  0
   -6.3791   41.0513   -4.2893 C   0  0  0  0  0  0  0  0  0  0  0  0
   -6.2156   39.9575   -3.5522 N   0  0  0  0  0  0  0  0  0  0  0  0
   -4.9189   40.0197   -9.8117 C   0  0  1  0  0  0  0  0  0  0  0  0
   -5.6909   41.1900   -5.4886 C   0  0  0  0  0  0  0  0  0  0  0  0
   -5.7903   38.9511   -9.9832 C   0  0  0  0  0  0  0  0  0  0  0  0
   -5.8994   42.3540   -6.2193 C   0  0  0  0  0  0  0  0  0  0  0  0
   -4.7203   40.1341   -6.0334 C   0  0  0  0  0  0  0  0  0  0  0  0
  1 13  1  0  0  0  0
  3  4  1  0  0  0  0
  4  5  1  0  0  0  0
  6  5  1  1  0  0  0
  6 10  1  0  0  0  0
  6 14  2  0  0  0  0
  6 18  1  0  0  0  0
  7 11  1  1  0  0  0
  7 15  1  0  0  0  0
  7 19  2  0  0  0  0
  7 18  1  0  0  0  0
  8 25  1  0  0  0  0
  8 12  1  0  0  0  0
  9 26  2  0  0  0  0
  9 13  1  0  0  0  0
 12 16  1  0  0  0  0
 13 17  2  0  0  0  0
 16 20  1  0  0  0  0
 16 27  1  0  0  0  0
 17 21  1  0  0  0  0
 20  2  1  1  0  0  0
 20 23  1  0  0  0  0
 21 22  1  0  0  0  0
 21 24  2  0  0  0  0
 23  3  1  1  0  0  0
 23 25  1  0  0  0  0
 24 27  1  0  0  0  0
 24 26  1  0  0  0  0
M  CHG  2  10  -1  15  -1
M  END
>  <CHROM.1>
72.74007368,-167.13413413,-44.69186528,-128.95270286,64.88753822,-91.59274566
125.39613411,-90.33194335,-6.14351501,42.76902181,-8.15633036,1.21554509
-1.23251503,2.15291427

>  <Name>
ligand

>  <RI>
0

>  <Rbt.Current_Directory>
/home/itssahil/PROJECTS/Mol_Feturizer/New_Systems/rnas/3D2V

>  <Rbt.Executable>
rbdock ($Id: //depot/dev/client3/rdock/2013.1/src/exe/rbdock.cxx#4 $)

>  <Rbt.Library>
libRbt.so (2013.1, Build901 2013/11/27)

>  <Rbt.Parameter_File>
/export/apps/rDock/src/rDock_2013.1_src/data/scripts/dock_solv.prm

>  <Rbt.Receptor>
prm/pocket_docking_5.prm

>  <SCORE>
-12.1633

>  <SCORE.INTER>
-11.539

>  <SCORE.INTER.CONST>
1

>  <SCORE.INTER.POLAR>
0

>  <SCORE.INTER.ROT>
8

>  <SCORE.INTER.SOLV>
25.5908

>  <SCORE.INTER.VDW>
-25.1563

>  <SCORE.INTER.norm>
-0.42737

>  <SCORE.INTRA>
-0.624327

>  <SCORE.INTRA.DIHEDRAL>
1.40626

>  <SCORE.INTRA.DIHEDRAL.0>
7.82666

>  <SCORE.INTRA.POLAR>
0

>  <SCORE.INTRA.POLAR.0>
0

>  <SCORE.INTRA.REPUL>
0

>  <SCORE.INTRA.REPUL.0>
0

>  <SCORE.INTRA.SOLV>
-0.643302

>  <SCORE.INTRA.SOLV.lig_0>
-83.2758

>  <SCORE.INTRA.VDW>
-1.0058

>  <SCORE.INTRA.VDW.0>
-3.26816

>  <SCORE.INTRA.norm>
-0.0231232

>  <SCORE.RESTR>
0

>  <SCORE.RESTR.CAVITY>
0

>  <SCORE.RESTR.norm>
0

>  <SCORE.SYSTEM>
0

>  <SCORE.SYSTEM.CONST>
0

>  <SCORE.SYSTEM.DIHEDRAL>
0

>  <SCORE.SYSTEM.SOLV>
0

>  <SCORE.SYSTEM.norm>
0

>  <SCORE.heavy>
27

>  <SCORE.norm>
-0.450493

>  <RMSD>
4.816

$$$$
ligand
 OpenBabel11021811473D
libRbt.so/2013.1/901 2013/11/27
 27 28  0  0  0  0  0  0  0  0999 V2000
   -5.8465   36.1781   -5.4857 C   0  0  0  0  0  0  0  0  0  0  0  0
   -6.3843   43.5791   -5.5717 C   0  0  0  0  0  0  0  0  0  0  0  0
   -5.8478   44.9228   -8.1950 C   0  0  0  0  0  0  0  0  0  0  0  0
   -6.3022   44.4455   -9.5757 C   0  0  0  0  0  0  0  0  0  0  0  0
   -5.2014   44.4136  -10.4876 O   0  0  0  0  0  0  0  0  0  0  0  0
   -5.4570   44.1198  -12.0459 P   0  0  1  0  0  0  0  0  0  0  0  0
   -4.8794   41.3645  -11.8693 P   0  0  2  0  0  0  0  0  0  0  0  0
   -2.7692   42.7350   -7.7636 C   0  0  0  0  0  0  0  0  0  0  0  0
   -4.7841   38.3302   -6.1392 N   0  0  0  0  0  0  0  0  0  0  0  0
   -6.6286   45.0476  -12.6235 O   0  5  0  0  0  0  0  0  0  0  0  0
   -3.4525   41.6446  -12.1297 O   0  0  0  0  0  0  0  0  0  0  0  0
   -2.9982   42.1005   -6.5498 C   0  0  0  0  0  0  0  0  0  0  0  0
   -5.4761   37.6378   -5.2212 C   0  0  0  0  0  0  0  0  0  0  0  0
   -4.1530   44.3924  -12.9617 O   0  0  0  0  0  0  0  0  0  0  0  0
   -5.3841   40.0737  -12.6786 O   0  5  0  0  0  0  0  0  0  0  0  0
   -4.1701   42.3707   -5.8418 N   0  0  0  0  0  0  0  0  0  0  0  0
   -5.8478   38.2151   -4.0694 N   0  0  0  0  0  0  0  0  0  0  0  0
   -5.8670   42.5603  -12.2616 O   0  0  0  0  0  0  0  0  0  0  0  0
   -5.1214   41.0202  -10.3309 O   0  0  0  0  0  0  0  0  0  0  0  0
   -5.0988   43.2832   -6.3565 C   0  0  1  0  0  0  0  0  0  0  0  0
   -5.5324   39.4920   -3.8198 C   0  0  0  0  0  0  0  0  0  0  0  0
   -5.9046   40.0528   -2.6737 N   0  0  0  0  0  0  0  0  0  0  0  0
   -4.8682   43.9192   -7.5753 C   0  0  2  0  0  0  0  0  0  0  0  0
   -4.8145   40.2298   -4.7532 C   0  0  0  0  0  0  0  0  0  0  0  0
   -3.6978   43.6368   -8.2689 C   0  0  0  0  0  0  0  0  0  0  0  0
   -4.4509   39.5936   -5.9345 C   0  0  0  0  0  0  0  0  0  0  0  0
   -4.4147   41.6963   -4.5451 C   0  0  0  0  0  0  0  0  0  0  0  0
  1 13  1  0  0  0  0
  3  4  1  0  0  0  0
  4  5  1  0  0  0  0
  6  5  1  1  0  0  0
  6 10  1  0  0  0  0
  6 14  2  0  0  0  0
  6 18  1  0  0  0  0
  7 11  1  6  0  0  0
  7 15  1  0  0  0  0
  7 19  2  0  0  0  0
  7 18  1  0  0  0  0
  8 25  1  0  0  0  0
  8 12  1  0  0  0  0
  9 26  2  0  0  0  0
  9 13  1  0  0  0  0
 12 16  1  0  0  0  0
 13 17  2  0  0  0  0
 16 20  1  0  0  0  0
 16 27  1  0  0  0  0
 17 21  1  0  0  0  0
 20  2  1  6  0  0  0
 20 23  1  0  0  0  0
 21 22  1  0  0  0  0
 21 24  2  0  0  0  0
 23  3  1  1  0  0  0
 23 25  1  0  0  0  0
 24 27  1  0  0  0  0
 24 26  1  0  0  0  0
M  CHG  2  10  -1  15  -1
M  END
>  <CHROM.1>
-64.82600068,-172.46565474,49.35347586,-61.42661518,-36.85379551,-121.18272245
-156.95876832,-74.80110763,-5.06130604,41.86505721,-8.51580044,-1.89004514
1.56453327,-0.75364801

>  <Name>
ligand

>  <RI>
0

>  <Rbt.Current_Directory>
/home/itssahil/PROJECTS/Mol_Feturizer/New_Systems/rnas/3D2V

>  <Rbt.Executable>
rbdock ($Id: //depot/dev/client3/rdock/2013.1/src/exe/rbdock.cxx#4 $)

>  <Rbt.Library>
libRbt.so (2013.1, Build901 2013/11/27)

>  <Rbt.Parameter_File>
/export/apps/rDock/src/rDock_2013.1_src/data/scripts/dock_solv.prm

>  <Rbt.Receptor>
prm/pocket_docking_8.prm

>  <SCORE>
-11.0223

>  <SCORE.INTER>
-9.14715

>  <SCORE.INTER.CONST>
1

>  <SCORE.INTER.POLAR>
0

>  <SCORE.INTER.ROT>
8

>  <SCORE.INTER.SOLV>
21.394

>  <SCORE.INTER.VDW>
-22.1628

>  <SCORE.INTER.norm>
-0.338783

>  <SCORE.INTRA>
-1.87512

>  <SCORE.INTRA.DIHEDRAL>
-1.29517

>  <SCORE.INTRA.DIHEDRAL.0>
7.82666

>  <SCORE.INTRA.POLAR>
0

>  <SCORE.INTRA.POLAR.0>
0

>  <SCORE.INTRA.REPUL>
0

>  <SCORE.INTRA.REPUL.0>
0

>  <SCORE.INTRA.SOLV>
-1.55581

>  <SCORE.INTRA.SOLV.lig_0>
-83.2758

>  <SCORE.INTRA.VDW>
-0.449631

>  <SCORE.INTRA.VDW.0>
-3.26816

>  <SCORE.INTRA.norm>
-0.0694489

>  <SCORE.RESTR>
0

>  <SCORE.RESTR.CAVITY>
0

>  <SCORE.RESTR.norm>
0

>  <SCORE.SYSTEM>
0

>  <SCORE.SYSTEM.CONST>
0

>  <SCORE.SYSTEM.DIHEDRAL>
0

>  <SCORE.SYSTEM.SOLV>
0

>  <SCORE.SYSTEM.norm>
0

>  <SCORE.heavy>
27

>  <SCORE.norm>
-0.408232

>  <RMSD>
4.926

$$$$
ligand
 OpenBabel11021811473D
libRbt.so/2013.1/901 2013/11/27
 27 28  0  0  0  0  0  0  0  0999 V2000
   -5.1255   35.4430   -4.2986 C   0  0  0  0  0  0  0  0  0  0  0  0
   -2.8535   42.9019   -6.0611 C   0  0  0  0  0  0  0  0  0  0  0  0
   -1.8798   43.2483   -8.8731 C   0  0  0  0  0  0  0  0  0  0  0  0
   -2.3949   44.6685   -9.1145 C   0  0  0  0  0  0  0  0  0  0  0  0
   -2.9052   45.2341   -7.9046 O   0  0  0  0  0  0  0  0  0  0  0  0
   -3.4588   46.7419   -7.8934 P   0  0  1  0  0  0  0  0  0  0  0  0
   -2.7412   47.2765   -5.2183 P   0  0  2  0  0  0  0  0  0  0  0  0
   -4.7029   40.7384   -9.2993 C   0  0  0  0  0  0  0  0  0  0  0  0
   -4.3761   37.4015   -5.6365 N   0  0  0  0  0  0  0  0  0  0  0  0
   -2.3667   47.7619   -8.4715 O   0  5  0  0  0  0  0  0  0  0  0  0
   -1.8898   46.0756   -5.0944 O   0  0  0  0  0  0  0  0  0  0  0  0
   -5.1704   40.5634   -8.0035 C   0  0  0  0  0  0  0  0  0  0  0  0
   -5.1227   36.9373   -4.6225 C   0  0  0  0  0  0  0  0  0  0  0  0
   -4.7922   46.9315   -8.7876 O   0  0  0  0  0  0  0  0  0  0  0  0
   -3.5364   47.5785   -3.8574 O   0  5  0  0  0  0  0  0  0  0  0  0
   -4.5744   41.2665   -6.9555 N   0  0  0  0  0  0  0  0  0  0  0  0
   -5.8696   37.7738   -3.8873 N   0  0  0  0  0  0  0  0  0  0  0  0
   -3.8416   47.1864   -6.3760 O   0  0  0  0  0  0  0  0  0  0  0  0
   -1.8575   48.5764   -5.4889 O   0  0  0  0  0  0  0  0  0  0  0  0
   -3.5074   42.1340   -7.2182 C   0  0  1  0  0  0  0  0  0  0  0  0
   -5.8799   39.0853   -4.1556 C   0  0  0  0  0  0  0  0  0  0  0  0
   -6.6227   39.9049   -3.4186 N   0  0  0  0  0  0  0  0  0  0  0  0
   -3.0392   42.3093   -8.5194 C   0  0  1  0  0  0  0  0  0  0  0  0
   -5.1137   39.5912   -5.1986 C   0  0  0  0  0  0  0  0  0  0  0  0
   -3.6457   41.6040   -9.5517 C   0  0  0  0  0  0  0  0  0  0  0  0
   -4.3558   38.6894   -5.9368 C   0  0  0  0  0  0  0  0  0  0  0  0
   -5.0705   41.0787   -5.5718 C   0  0  0  0  0  0  0  0  0  0  0  0
  1 13  1  0  0  0  0
  3  4  1  0  0  0  0
  4  5  1  0  0  0  0
  6  5  1  6  0  0  0
  6 10  1  0  0  0  0
  6 14  2  0  0  0  0
  6 18  1  0  0  0  0
  7 11  1  1  0  0  0
  7 15  1  0  0  0  0
  7 19  2  0  0  0  0
  7 18  1  0  0  0  0
  8 25  1  0  0  0  0
  8 12  1  0  0  0  0
  9 26  2  0  0  0  0
  9 13  1  0  0  0  0
 12 16  1  0  0  0  0
 13 17  2  0  0  0  0
 16 20  1  0  0  0  0
 16 27  1  0  0  0  0
 17 21  1  0  0  0  0
 20  2  1  6  0  0  0
 20 23  1  0  0  0  0
 21 22  1  0  0  0  0
 21 24  2  0  0  0  0
 23  3  1  6  0  0  0
 23 25  1  0  0  0  0
 24 27  1  0  0  0  0
 24 26  1  0  0  0  0
M  CHG  2  10  -1  15  -1
M  END
>  <CHROM.1>
66.67916034,177.91198188,-53.80704229,63.07561231,-50.05314570,-87.04785261
-160.39631039,52.35458353,-3.82562001,43.15360401,-6.47813008,2.68980340
-1.29678992,-2.21504500

>  <Name>
ligand

>  <RI>
0

>  <Rbt.Current_Directory>
/home/itssahil/PROJECTS/Mol_Feturizer/New_Systems/rnas/3D2V

>  <Rbt.Executable>
rbdock ($Id: //depot/dev/client3/rdock/2013.1/src/exe/rbdock.cxx#4 $)

>  <Rbt.Library>
libRbt.so (2013.1, Build901 2013/11/27)

>  <Rbt.Parameter_File>
/export/apps/rDock/src/rDock_2013.1_src/data/scripts/dock_solv.prm

>  <Rbt.Receptor>
prm/pocket_docking_7.prm

>  <SCORE>
-12.3856

>  <SCORE.INTER>
-10.2325

>  <SCORE.INTER.CONST>
1

>  <SCORE.INTER.POLAR>
0

>  <SCORE.INTER.ROT>
8

>  <SCORE.INTER.SOLV>
9.50111

>  <SCORE.INTER.VDW>
-18.9221

>  <SCORE.INTER.norm>
-0.378983

>  <SCORE.INTRA>
-2.15309

>  <SCORE.INTRA.DIHEDRAL>
-2.20513

>  <SCORE.INTRA.DIHEDRAL.0>
7.82666

>  <SCORE.INTRA.POLAR>
0

>  <SCORE.INTRA.POLAR.0>
0

>  <SCORE.INTRA.REPUL>
0

>  <SCORE.INTRA.REPUL.0>
0

>  <SCORE.INTRA.SOLV>
-1.92992

>  <SCORE.INTRA.SOLV.lig_0>
-83.2758

>  <SCORE.INTRA.VDW>
-0.0855647

>  <SCORE.INTRA.VDW.0>
-3.26816

>  <SCORE.INTRA.norm>
-0.079744

>  <SCORE.RESTR>
0

>  <SCORE.RESTR.CAVITY>
0

>  <SCORE.RESTR.norm>
0

>  <SCORE.SYSTEM>
0

>  <SCORE.SYSTEM.CONST>
0

>  <SCORE.SYSTEM.DIHEDRAL>
0

>  <SCORE.SYSTEM.SOLV>
0

>  <SCORE.SYSTEM.norm>
0

>  <SCORE.heavy>
27

>  <SCORE.norm>
-0.458727

>  <RMSD>
5.112

$$$$
ligand
 OpenBabel11021811473D
libRbt.so/2013.1/901 2013/11/27
 27 28  0  0  0  0  0  0  0  0999 V2000
   -4.8519   37.0807   -4.9686 C   0  0  0  0  0  0  0  0  0  0  0  0
   -6.4036   45.2277   -5.5075 C   0  0  0  0  0  0  0  0  0  0  0  0
   -6.3629   46.2914   -8.3079 C   0  0  0  0  0  0  0  0  0  0  0  0
   -5.2912   46.3774   -9.3963 C   0  0  0  0  0  0  0  0  0  0  0  0
   -4.6708   47.6656   -9.3948 O   0  0  0  0  0  0  0  0  0  0  0  0
   -3.6304   48.0550   -8.2346 P   0  0  1  0  0  0  0  0  0  0  0  0
   -1.1009   47.2172   -7.3092 P   0  0  2  0  0  0  0  0  0  0  0  0
   -7.2909   42.6439   -8.8426 C   0  0  0  0  0  0  0  0  0  0  0  0
   -6.6856   38.7075   -5.3911 N   0  0  0  0  0  0  0  0  0  0  0  0
   -3.0113   49.5123   -8.4799 O   0  5  0  0  0  0  0  0  0  0  0  0
   -0.3328   48.4193   -7.6935 O   0  0  0  0  0  0  0  0  0  0  0  0
   -7.3160   42.1304   -7.5527 C   0  0  0  0  0  0  0  0  0  0  0  0
   -5.4200   38.5000   -4.9959 C   0  0  0  0  0  0  0  0  0  0  0  0
   -4.3031   48.0764   -6.7647 O   0  0  0  0  0  0  0  0  0  0  0  0
   -0.2147   45.8854   -7.4375 O   0  5  0  0  0  0  0  0  0  0  0  0
   -7.0325   42.9674   -6.4725 N   0  0  0  0  0  0  0  0  0  0  0  0
   -4.6449   39.5287   -4.6231 N   0  0  0  0  0  0  0  0  0  0  0  0
   -2.4184   46.9711   -8.1827 O   0  0  0  0  0  0  0  0  0  0  0  0
   -1.5402   47.2868   -5.7775 O   0  0  0  0  0  0  0  0  0  0  0  0
   -6.7180   44.3127   -6.6991 C   0  0  1  0  0  0  0  0  0  0  0  0
   -5.1244   40.7785   -4.6407 C   0  0  0  0  0  0  0  0  0  0  0  0
   -4.3460   41.7903   -4.2707 N   0  0  0  0  0  0  0  0  0  0  0  0
   -6.6936   44.8274   -7.9943 C   0  0  2  0  0  0  0  0  0  0  0  0
   -6.4308   41.0200   -5.0480 C   0  0  0  0  0  0  0  0  0  0  0  0
   -6.9811   43.9812   -9.0583 C   0  0  0  0  0  0  0  0  0  0  0  0
   -7.2005   39.9252   -5.4242 C   0  0  0  0  0  0  0  0  0  0  0  0
   -7.0564   42.4201   -5.0957 C   0  0  0  0  0  0  0  0  0  0  0  0
  1 13  1  0  0  0  0
  3  4  1  0  0  0  0
  4  5  1  0  0  0  0
  6  5  1  6  0  0  0
  6 10  1  0  0  0  0
  6 14  2  0  0  0  0
  6 18  1  0  0  0  0
  7 11  1  6  0  0  0
  7 15  1  0  0  0  0
  7 19  2  0  0  0  0
  7 18  1  0  0  0  0
  8 25  1  0  0  0  0
  8 12  1  0  0  0  0
  9 26  2  0  0  0  0
  9 13  1  0  0  0  0
 12 16  1  0  0  0  0
 13 17  2  0  0  0  0
 16 20  1  0  0  0  0
 16 27  1  0  0  0  0
 17 21  1  0  0  0  0
 20  2  1  1  0  0  0
 20 23  1  0  0  0  0
 21 22  1  0  0  0  0
 21 24  2  0  0  0  0
 23  3  1  6  0  0  0
 23 25  1  0  0  0  0
 24 27  1  0  0  0  0
 24 26  1  0  0  0  0
M  CHG  2  10  -1  15  -1
M  END
>  <CHROM.1>
-161.26625619,73.97642310,177.15309994,169.29725055,-60.55090056,129.85444679
99.11492481,40.36560606,-4.56072228,44.48542228,-6.90582793,-2.00069523,-0.30889663
-0.44704071

>  <Name>
ligand

>  <RI>
0

>  <Rbt.Current_Directory>
/home/itssahil/PROJECTS/Mol_Feturizer/New_Systems/rnas/3D2V

>  <Rbt.Executable>
rbdock ($Id: //depot/dev/client3/rdock/2013.1/src/exe/rbdock.cxx#4 $)

>  <Rbt.Library>
libRbt.so (2013.1, Build901 2013/11/27)

>  <Rbt.Parameter_File>
/export/apps/rDock/src/rDock_2013.1_src/data/scripts/dock_solv.prm

>  <Rbt.Receptor>
prm/pocket_docking_5.prm

>  <SCORE>
-8.54212

>  <SCORE.INTER>
-9.4025

>  <SCORE.INTER.CONST>
1

>  <SCORE.INTER.POLAR>
0

>  <SCORE.INTER.ROT>
8

>  <SCORE.INTER.SOLV>
13.0839

>  <SCORE.INTER.VDW>
-19.563

>  <SCORE.INTER.norm>
-0.348241

>  <SCORE.INTRA>
0.860388

>  <SCORE.INTRA.DIHEDRAL>
-0.28716

>  <SCORE.INTRA.DIHEDRAL.0>
7.82666

>  <SCORE.INTRA.POLAR>
0

>  <SCORE.INTRA.POLAR.0>
0

>  <SCORE.INTRA.REPUL>
0

>  <SCORE.INTRA.REPUL.0>
0

>  <SCORE.INTRA.SOLV>
1.41496

>  <SCORE.INTRA.SOLV.lig_0>
-83.2758

>  <SCORE.INTRA.VDW>
0.296489

>  <SCORE.INTRA.VDW.0>
-3.26816

>  <SCORE.INTRA.norm>
0.0318662

>  <SCORE.RESTR>
0

>  <SCORE.RESTR.CAVITY>
0

>  <SCORE.RESTR.norm>
0

>  <SCORE.SYSTEM>
0

>  <SCORE.SYSTEM.CONST>
0

>  <SCORE.SYSTEM.DIHEDRAL>
0

>  <SCORE.SYSTEM.SOLV>
0

>  <SCORE.SYSTEM.norm>
0

>  <SCORE.heavy>
27

>  <SCORE.norm>
-0.316375

>  <RMSD>
5.249

$$$$
ligand
 OpenBabel11021811463D
libRbt.so/2013.1/901 2013/11/27
 27 28  0  0  0  0  0  0  0  0999 V2000
  -11.9627   37.8559   -1.9055 C   0  0  0  0  0  0  0  0  0  0  0  0
   -5.7775   38.2712   -4.2673 C   0  0  0  0  0  0  0  0  0  0  0  0
   -5.1845   40.0075   -6.6356 C   0  0  0  0  0  0  0  0  0  0  0  0
   -6.3034   40.2769   -7.6436 C   0  0  0  0  0  0  0  0  0  0  0  0
   -7.1797   39.1512   -7.7396 O   0  0  0  0  0  0  0  0  0  0  0  0
   -8.4167   39.0070   -6.7252 P   0  0  1  0  0  0  0  0  0  0  0  0
   -7.6094   36.3043   -6.7105 P   0  0  2  0  0  0  0  0  0  0  0  0
   -5.9117   42.5663   -3.9200 C   0  0  0  0  0  0  0  0  0  0  0  0
   -9.8006   38.4609   -2.9764 N   0  0  0  0  0  0  0  0  0  0  0  0
   -8.3253   40.0881   -5.5462 O   0  5  0  0  0  0  0  0  0  0  0  0
   -7.6314   35.0648   -5.9070 O   0  0  0  0  0  0  0  0  0  0  0  0
   -6.1894   41.7803   -2.8095 C   0  0  0  0  0  0  0  0  0  0  0  0
  -10.5025   38.3053   -1.8432 C   0  0  0  0  0  0  0  0  0  0  0  0
   -9.8496   39.2206   -7.4426 O   0  0  0  0  0  0  0  0  0  0  0  0
   -6.1119   36.8380   -6.9301 O   0  5  0  0  0  0  0  0  0  0  0  0
   -6.1424   40.3899   -2.9205 N   0  0  0  0  0  0  0  0  0  0  0  0
   -9.9344   38.5409   -0.6517 N   0  0  0  0  0  0  0  0  0  0  0  0
   -8.4340   37.5172   -6.0718 O   0  0  0  0  0  0  0  0  0  0  0  0
   -8.1847   36.0444   -8.1753 O   0  0  0  0  0  0  0  0  0  0  0  0
   -5.8242   39.8010   -4.1502 C   0  0  1  0  0  0  0  0  0  0  0  0
   -8.6571   38.9348   -0.5769 C   0  0  0  0  0  0  0  0  0  0  0  0
   -8.1043   39.1634    0.6099 N   0  0  0  0  0  0  0  0  0  0  0  0
   -5.5451   40.5909   -5.2643 C   0  0  1  0  0  0  0  0  0  0  0  0
   -7.9082   39.1009   -1.7356 C   0  0  0  0  0  0  0  0  0  0  0  0
   -5.5934   41.9736   -5.1358 C   0  0  0  0  0  0  0  0  0  0  0  0
   -8.5363   38.8481   -2.9497 C   0  0  0  0  0  0  0  0  0  0  0  0
   -6.4411   39.5499   -1.7369 C   0  0  0  0  0  0  0  0  0  0  0  0
  1 13  1  0  0  0  0
  3  4  1  0  0  0  0
  4  5  1  0  0  0  0
  6  5  1  6  0  0  0
  6 10  1  0  0  0  0
  6 14  2  0  0  0  0
  6 18  1  0  0  0  0
  7 11  1  1  0  0  0
  7 15  1  0  0  0  0
  7 19  2  0  0  0  0
  7 18  1  0  0  0  0
  8 25  1  0  0  0  0
  8 12  1  0  0  0  0
  9 26  2  0  0  0  0
  9 13  1  0  0  0  0
 12 16  1  0  0  0  0
 13 17  2  0  0  0  0
 16 20  1  0  0  0  0
 16 27  1  0  0  0  0
 17 21  1  0  0  0  0
 20  2  1  1  0  0  0
 20 23  1  0  0  0  0
 21 22  1  0  0  0  0
 21 24  2  0  0  0  0
 23  3  1  1  0  0  0
 23 25  1  0  0  0  0
 24 27  1  0  0  0  0
 24 26  1  0  0  0  0
M  CHG  2  10  -1  15  -1
M  END
>  <CHROM.1>
-95.99332694,86.76192155,-9.85429054,-16.84936168,173.98551424,111.57873894
-145.84237785,95.77507188,-7.70009252,38.80941473,-4.68702931,1.86655881
0.78699644,1.12838052

>  <Name>
ligand

>  <RI>
0

>  <Rbt.Current_Directory>
/home/itssahil/PROJECTS/Mol_Feturizer/New_Systems/rnas/3D2V

>  <Rbt.Executable>
rbdock ($Id: //depot/dev/client3/rdock/2013.1/src/exe/rbdock.cxx#4 $)

>  <Rbt.Library>
libRbt.so (2013.1, Build901 2013/11/27)

>  <Rbt.Parameter_File>
/export/apps/rDock/src/rDock_2013.1_src/data/scripts/dock_solv.prm

>  <Rbt.Receptor>
prm/blind_docking_60.prm

>  <SCORE>
-10.4853

>  <SCORE.INTER>
-15.7982

>  <SCORE.INTER.CONST>
1

>  <SCORE.INTER.POLAR>
0

>  <SCORE.INTER.ROT>
8

>  <SCORE.INTER.SOLV>
29.4719

>  <SCORE.INTER.VDW>
-29.2895

>  <SCORE.INTER.norm>
-0.58512

>  <SCORE.INTRA>
4.93166

>  <SCORE.INTRA.DIHEDRAL>
8.21574

>  <SCORE.INTRA.DIHEDRAL.0>
7.82666

>  <SCORE.INTRA.POLAR>
0

>  <SCORE.INTRA.POLAR.0>
0

>  <SCORE.INTRA.REPUL>
0

>  <SCORE.INTRA.REPUL.0>
0

>  <SCORE.INTRA.SOLV>
6.24028

>  <SCORE.INTRA.SOLV.lig_0>
-83.2758

>  <SCORE.INTRA.VDW>
-2.29635

>  <SCORE.INTRA.VDW.0>
-3.26816

>  <SCORE.INTRA.norm>
0.182654

>  <SCORE.RESTR>
0.381306

>  <SCORE.RESTR.CAVITY>
0.381306

>  <SCORE.RESTR.norm>
0.0141225

>  <SCORE.SYSTEM>
0

>  <SCORE.SYSTEM.CONST>
0

>  <SCORE.SYSTEM.DIHEDRAL>
0

>  <SCORE.SYSTEM.SOLV>
0

>  <SCORE.SYSTEM.norm>
0

>  <SCORE.heavy>
27

>  <SCORE.norm>
-0.388344

>  <RMSD>
5.269

$$$$
ligand
 OpenBabel11021811473D
libRbt.so/2013.1/901 2013/11/27
 27 28  0  0  0  0  0  0  0  0999 V2000
   -9.8031   39.8828   -5.4389 C   0  0  0  0  0  0  0  0  0  0  0  0
   -4.6886   40.5481  -11.5456 C   0  0  0  0  0  0  0  0  0  0  0  0
   -2.8896   42.9405  -11.4200 C   0  0  0  0  0  0  0  0  0  0  0  0
   -4.1009   43.6508  -12.0273 C   0  0  0  0  0  0  0  0  0  0  0  0
   -4.7882   44.4170  -11.0349 O   0  0  0  0  0  0  0  0  0  0  0  0
   -6.3593   44.7117  -11.1927 P   0  0  1  0  0  0  0  0  0  0  0  0
   -6.5656   45.2353   -8.4287 P   0  0  2  0  0  0  0  0  0  0  0  0
   -3.1385   41.9241   -7.7654 C   0  0  0  0  0  0  0  0  0  0  0  0
   -8.5077   40.4469   -7.4860 N   0  0  0  0  0  0  0  0  0  0  0  0
   -6.6668   45.4843  -12.5622 O   0  5  0  0  0  0  0  0  0  0  0  0
   -6.8139   43.8182   -8.0930 O   0  0  0  0  0  0  0  0  0  0  0  0
   -3.9702   40.8128   -7.8009 C   0  0  0  0  0  0  0  0  0  0  0  0
   -8.6206   39.6843   -6.3876 C   0  0  0  0  0  0  0  0  0  0  0  0
   -7.2556   43.3663  -11.2058 O   0  0  0  0  0  0  0  0  0  0  0  0
   -7.4450   46.2202   -7.5164 O   0  5  0  0  0  0  0  0  0  0  0  0
   -4.4692   40.3647   -9.0249 N   0  0  0  0  0  0  0  0  0  0  0  0
   -7.7032   38.7459   -6.1120 N   0  0  0  0  0  0  0  0  0  0  0  0
   -6.8867   45.6175   -9.9485 O   0  0  0  0  0  0  0  0  0  0  0  0
   -5.0483   45.6325   -8.1386 O   0  0  0  0  0  0  0  0  0  0  0  0
   -4.1339   41.0432  -10.2027 C   0  0  1  0  0  0  0  0  0  0  0  0
   -6.6610   38.5571   -6.9308 C   0  0  0  0  0  0  0  0  0  0  0  0
   -5.7592   37.6227   -6.6481 N   0  0  0  0  0  0  0  0  0  0  0  0
   -3.2985   42.1585  -10.1661 C   0  0  1  0  0  0  0  0  0  0  0  0
   -6.5227   39.3323   -8.0758 C   0  0  0  0  0  0  0  0  0  0  0  0
   -2.8080   42.5896   -8.9396 C   0  0  0  0  0  0  0  0  0  0  0  0
   -7.4948   40.2949   -8.3227 C   0  0  0  0  0  0  0  0  0  0  0  0
   -5.3590   39.1804   -9.0640 C   0  0  0  0  0  0  0  0  0  0  0  0
  1 13  1  0  0  0  0
  3  4  1  0  0  0  0
  4  5  1  0  0  0  0
  6  5  1  1  0  0  0
  6 10  1  0  0  0  0
  6 14  2  0  0  0  0
  6 18  1  0  0  0  0
  7 11  1  1  0  0  0
  7 15  1  0  0  0  0
  7 19  2  0  0  0  0
  7 18  1  0  0  0  0
  8 25  1  0  0  0  0
  8 12  1  0  0  0  0
  9 26  2  0  0  0  0
  9 13  1  0  0  0  0
 12 16  1  0  0  0  0
 13 17  2  0  0  0  0
 16 20  1  0  0  0  0
 16 27  1  0  0  0  0
 17 21  1  0  0  0  0
 20  2  1  6  0  0  0
 20 23  1  0  0  0  0
 21 22  1  0  0  0  0
 21 24  2  0  0  0  0
 23  3  1  6  0  0  0
 23 25  1  0  0  0  0
 24 27  1  0  0  0  0
 24 26  1  0  0  0  0
M  CHG  2  10  -1  15  -1
M  END
>  <CHROM.1>
51.40412896,-152.99854332,-58.43239944,-49.71477749,-47.46191628,67.13394374
-111.53129961,51.66480611,-5.94926510,42.40299151,-9.07075017,1.83669622
-0.65921827,2.74108215

>  <Name>
ligand

>  <RI>
0

>  <Rbt.Current_Directory>
/home/itssahil/PROJECTS/Mol_Feturizer/New_Systems/rnas/3D2V

>  <Rbt.Executable>
rbdock ($Id: //depot/dev/client3/rdock/2013.1/src/exe/rbdock.cxx#4 $)

>  <Rbt.Library>
libRbt.so (2013.1, Build901 2013/11/27)

>  <Rbt.Parameter_File>
/export/apps/rDock/src/rDock_2013.1_src/data/scripts/dock_solv.prm

>  <Rbt.Receptor>
prm/pocket_docking_7.prm

>  <SCORE>
-15.3192

>  <SCORE.INTER>
-13.8981

>  <SCORE.INTER.CONST>
1

>  <SCORE.INTER.POLAR>
0

>  <SCORE.INTER.ROT>
8

>  <SCORE.INTER.SOLV>
24.7382

>  <SCORE.INTER.VDW>
-26.4448

>  <SCORE.INTER.norm>
-0.514745

>  <SCORE.INTRA>
-1.42108

>  <SCORE.INTRA.DIHEDRAL>
1.10032

>  <SCORE.INTRA.DIHEDRAL.0>
7.82666

>  <SCORE.INTRA.POLAR>
0

>  <SCORE.INTRA.POLAR.0>
0

>  <SCORE.INTRA.REPUL>
0

>  <SCORE.INTRA.REPUL.0>
0

>  <SCORE.INTRA.SOLV>
-1.44817

>  <SCORE.INTRA.SOLV.lig_0>
-83.2758

>  <SCORE.INTRA.VDW>
-1.24716

>  <SCORE.INTRA.VDW.0>
-3.26816

>  <SCORE.INTRA.norm>
-0.0526327

>  <SCORE.RESTR>
0

>  <SCORE.RESTR.CAVITY>
0

>  <SCORE.RESTR.norm>
0

>  <SCORE.SYSTEM>
0

>  <SCORE.SYSTEM.CONST>
0

>  <SCORE.SYSTEM.DIHEDRAL>
0

>  <SCORE.SYSTEM.SOLV>
0

>  <SCORE.SYSTEM.norm>
0

>  <SCORE.heavy>
27

>  <SCORE.norm>
-0.567378

>  <RMSD>
5.309

$$$$
ligand
 OpenBabel11021811473D
libRbt.so/2013.1/901 2013/11/27
 27 28  0  0  0  0  0  0  0  0999 V2000
   -5.1950   31.9184   -7.5782 C   0  0  0  0  0  0  0  0  0  0  0  0
   -9.3238   39.4820   -7.6873 C   0  0  0  0  0  0  0  0  0  0  0  0
   -7.4761   41.8394   -7.7523 C   0  0  0  0  0  0  0  0  0  0  0  0
   -6.7918   42.7872   -8.7391 C   0  0  0  0  0  0  0  0  0  0  0  0
   -5.4367   43.0286   -8.3520 O   0  0  0  0  0  0  0  0  0  0  0  0
   -4.4909   43.9483   -9.2683 P   0  0  1  0  0  0  0  0  0  0  0  0
   -2.1282   43.4453   -7.8118 P   0  0  2  0  0  0  0  0  0  0  0  0
   -5.1008   38.9344   -8.3603 C   0  0  0  0  0  0  0  0  0  0  0  0
   -6.5703   33.7761   -6.6594 N   0  0  0  0  0  0  0  0  0  0  0  0
   -3.9661   43.1408  -10.5488 O   0  5  0  0  0  0  0  0  0  0  0  0
   -2.7079   42.2220   -7.2200 O   0  0  0  0  0  0  0  0  0  0  0  0
   -5.9394   37.8280   -8.3346 C   0  0  0  0  0  0  0  0  0  0  0  0
   -5.9870   33.2173   -7.7310 C   0  0  0  0  0  0  0  0  0  0  0  0
   -5.2413   45.2675   -9.8252 O   0  0  0  0  0  0  0  0  0  0  0  0
   -1.2715   44.2720   -6.7356 O   0  5  0  0  0  0  0  0  0  0  0  0
   -7.3071   38.0051   -8.1205 N   0  0  0  0  0  0  0  0  0  0  0  0
   -6.0917   33.7885   -8.9397 N   0  0  0  0  0  0  0  0  0  0  0  0
   -3.2084   44.4626   -8.4096 O   0  0  0  0  0  0  0  0  0  0  0  0
   -1.1040   43.0835   -8.9796 O   0  0  0  0  0  0  0  0  0  0  0  0
   -7.8192   39.2935   -7.9259 C   0  0  1  0  0  0  0  0  0  0  0  0
   -6.7812   34.9257   -9.0933 C   0  0  0  0  0  0  0  0  0  0  0  0
   -6.8797   35.4815  -10.2965 N   0  0  0  0  0  0  0  0  0  0  0  0
   -6.9766   40.4036   -7.9523 C   0  0  2  0  0  0  0  0  0  0  0  0
   -7.3965   35.5229   -7.9998 C   0  0  0  0  0  0  0  0  0  0  0  0
   -5.6179   40.2099   -8.1695 C   0  0  0  0  0  0  0  0  0  0  0  0
   -7.2612   34.8990   -6.7650 C   0  0  0  0  0  0  0  0  0  0  0  0
   -8.2028   36.8251   -8.0903 C   0  0  0  0  0  0  0  0  0  0  0  0
  1 13  1  0  0  0  0
  3  4  1  0  0  0  0
  4  5  1  0  0  0  0
  6  5  1  1  0  0  0
  6 10  1  0  0  0  0
  6 14  2  0  0  0  0
  6 18  1  0  0  0  0
  7 11  1  1  0  0  0
  7 15  1  0  0  0  0
  7 19  2  0  0  0  0
  7 18  1  0  0  0  0
  8 25  1  0  0  0  0
  8 12  1  0  0  0  0
  9 26  2  0  0  0  0
  9 13  1  0  0  0  0
 12 16  1  0  0  0  0
 13 17  2  0  0  0  0
 16 20  1  0  0  0  0
 16 27  1  0  0  0  0
 17 21  1  0  0  0  0
 20  2  1  6  0  0  0
 20 23  1  0  0  0  0
 21 22  1  0  0  0  0
 21 24  2  0  0  0  0
 23  3  1  1  0  0  0
 23 25  1  0  0  0  0
 24 27  1  0  0  0  0
 24 26  1  0  0  0  0
M  CHG  2  10  -1  15  -1
M  END
>  <CHROM.1>
-74.14778433,177.49660776,-77.75757559,63.02850097,-41.78580476,-138.17986789
-79.68481634,12.66579300,-5.33549114,39.91427507,-8.31184360,-1.92257888
-0.11279219,-0.09713894

>  <Name>
ligand

>  <RI>
0

>  <Rbt.Current_Directory>
/home/itssahil/PROJECTS/Mol_Feturizer/New_Systems/rnas/3D2V

>  <Rbt.Executable>
rbdock ($Id: //depot/dev/client3/rdock/2013.1/src/exe/rbdock.cxx#4 $)

>  <Rbt.Library>
libRbt.so (2013.1, Build901 2013/11/27)

>  <Rbt.Parameter_File>
/export/apps/rDock/src/rDock_2013.1_src/data/scripts/dock_solv.prm

>  <Rbt.Receptor>
prm/pocket_docking_8.prm

>  <SCORE>
-12.9893

>  <SCORE.INTER>
-12.61

>  <SCORE.INTER.CONST>
1

>  <SCORE.INTER.POLAR>
0

>  <SCORE.INTER.ROT>
8

>  <SCORE.INTER.SOLV>
11.876

>  <SCORE.INTER.VDW>
-21.2987

>  <SCORE.INTER.norm>
-0.467036

>  <SCORE.INTRA>
-0.379362

>  <SCORE.INTRA.DIHEDRAL>
-0.874507

>  <SCORE.INTRA.DIHEDRAL.0>
7.82666

>  <SCORE.INTRA.POLAR>
0

>  <SCORE.INTRA.POLAR.0>
0

>  <SCORE.INTRA.REPUL>
0

>  <SCORE.INTRA.REPUL.0>
0

>  <SCORE.INTRA.SOLV>
-1.20151

>  <SCORE.INTRA.SOLV.lig_0>
-83.2758

>  <SCORE.INTRA.VDW>
0.658646

>  <SCORE.INTRA.VDW.0>
-3.26816

>  <SCORE.INTRA.norm>
-0.0140504

>  <SCORE.RESTR>
0

>  <SCORE.RESTR.CAVITY>
0

>  <SCORE.RESTR.norm>
0

>  <SCORE.SYSTEM>
0

>  <SCORE.SYSTEM.CONST>
0

>  <SCORE.SYSTEM.DIHEDRAL>
0

>  <SCORE.SYSTEM.SOLV>
0

>  <SCORE.SYSTEM.norm>
0

>  <SCORE.heavy>
27

>  <SCORE.norm>
-0.481087

>  <RMSD>
5.382

$$$$
ligand
 OpenBabel11021811473D
libRbt.so/2013.1/901 2013/11/27
 27 28  0  0  0  0  0  0  0  0999 V2000
   -5.0608   40.7724    0.0765 C   0  0  0  0  0  0  0  0  0  0  0  0
   -3.6839   44.8698   -7.4106 C   0  0  0  0  0  0  0  0  0  0  0  0
   -5.9457   46.6488   -8.2441 C   0  0  0  0  0  0  0  0  0  0  0  0
   -7.1497   46.4694   -9.1710 C   0  0  0  0  0  0  0  0  0  0  0  0
   -6.8189   45.6180  -10.2710 O   0  0  0  0  0  0  0  0  0  0  0  0
   -6.7192   44.0293  -10.0560 P   0  0  1  0  0  0  0  0  0  0  0  0
   -4.6732   43.2709  -11.8434 P   0  0  2  0  0  0  0  0  0  0  0  0
   -7.3985   44.8573   -5.2224 C   0  0  0  0  0  0  0  0  0  0  0  0
   -4.5226   40.6442   -2.3486 N   0  0  0  0  0  0  0  0  0  0  0  0
   -7.1164   43.6237   -8.5577 O   0  5  0  0  0  0  0  0  0  0  0  0
   -3.2014   43.2267  -11.9642 O   0  0  0  0  0  0  0  0  0  0  0  0
   -6.3628   44.0252   -4.8185 C   0  0  0  0  0  0  0  0  0  0  0  0
   -4.7972   41.4156   -1.2854 C   0  0  0  0  0  0  0  0  0  0  0  0
   -7.6968   43.1969  -11.0383 O   0  0  0  0  0  0  0  0  0  0  0  0
   -5.3044   44.4347  -12.7505 O   0  5  0  0  0  0  0  0  0  0  0  0
   -5.1589   44.0317   -5.5243 N   0  0  0  0  0  0  0  0  0  0  0  0
   -4.8430   42.7503   -1.4051 N   0  0  0  0  0  0  0  0  0  0  0  0
   -5.2040   43.5180  -10.3547 O   0  0  0  0  0  0  0  0  0  0  0  0
   -5.3297   41.9178  -12.3744 O   0  0  0  0  0  0  0  0  0  0  0  0
   -5.0091   44.8695   -6.6360 C   0  0  1  0  0  0  0  0  0  0  0  0
   -4.6147   43.3318   -2.5892 C   0  0  0  0  0  0  0  0  0  0  0  0
   -4.6610   44.6558   -2.6952 N   0  0  0  0  0  0  0  0  0  0  0  0
   -6.0492   45.7048   -7.0404 C   0  0  1  0  0  0  0  0  0  0  0  0
   -4.3260   42.5553   -3.7048 C   0  0  0  0  0  0  0  0  0  0  0  0
   -7.2402   45.6882   -6.3249 C   0  0  0  0  0  0  0  0  0  0  0  0
   -4.2904   41.1758   -3.5372 C   0  0  0  0  0  0  0  0  0  0  0  0
   -4.0537   43.1423   -5.0960 C   0  0  0  0  0  0  0  0  0  0  0  0
  1 13  1  0  0  0  0
  3  4  1  0  0  0  0
  4  5  1  0  0  0  0
  6  5  1  6  0  0  0
  6 10  1  0  0  0  0
  6 14  2  0  0  0  0
  6 18  1  0  0  0  0
  7 11  1  6  0  0  0
  7 15  1  0  0  0  0
  7 19  2  0  0  0  0
  7 18  1  0  0  0  0
  8 25  1  0  0  0  0
  8 12  1  0  0  0  0
  9 26  2  0  0  0  0
  9 13  1  0  0  0  0
 12 16  1  0  0  0  0
 13 17  2  0  0  0  0
 16 20  1  0  0  0  0
 16 27  1  0  0  0  0
 17 21  1  0  0  0  0
 20  2  1  1  0  0  0
 20 23  1  0  0  0  0
 21 22  1  0  0  0  0
 21 24  2  0  0  0  0
 23  3  1  1  0  0  0
 23 25  1  0  0  0  0
 24 27  1  0  0  0  0
 24 26  1  0  0  0  0
M  CHG  2  10  -1  15  -1
M  END
>  <CHROM.1>
-98.47131350,76.36101592,3.47230937,-80.39078518,161.75549408,129.71344337
-54.13116812,-12.76858411,-5.47498570,43.70696074,-7.32128692,-1.40345724
1.01478481,-1.54425583

>  <Name>
ligand

>  <RI>
0

>  <Rbt.Current_Directory>
/home/itssahil/PROJECTS/Mol_Feturizer/New_Systems/rnas/3D2V

>  <Rbt.Executable>
rbdock ($Id: //depot/dev/client3/rdock/2013.1/src/exe/rbdock.cxx#4 $)

>  <Rbt.Library>
libRbt.so (2013.1, Build901 2013/11/27)

>  <Rbt.Parameter_File>
/export/apps/rDock/src/rDock_2013.1_src/data/scripts/dock_solv.prm

>  <Rbt.Receptor>
prm/pocket_docking_6.prm

>  <SCORE>
-6.47214

>  <SCORE.INTER>
-12.2114

>  <SCORE.INTER.CONST>
1

>  <SCORE.INTER.POLAR>
0

>  <SCORE.INTER.ROT>
8

>  <SCORE.INTER.SOLV>
17.7104

>  <SCORE.INTER.VDW>
-22.9777

>  <SCORE.INTER.norm>
-0.452275

>  <SCORE.INTRA>
5.73929

>  <SCORE.INTRA.DIHEDRAL>
6.01596

>  <SCORE.INTRA.DIHEDRAL.0>
7.82666

>  <SCORE.INTRA.POLAR>
0

>  <SCORE.INTRA.POLAR.0>
0

>  <SCORE.INTRA.REPUL>
0

>  <SCORE.INTRA.REPUL.0>
0

>  <SCORE.INTRA.SOLV>
5.61632

>  <SCORE.INTRA.SOLV.lig_0>
-83.2758

>  <SCORE.INTRA.VDW>
-0.0768453

>  <SCORE.INTRA.VDW.0>
-3.26816

>  <SCORE.INTRA.norm>
0.212566

>  <SCORE.RESTR>
0

>  <SCORE.RESTR.CAVITY>
0

>  <SCORE.RESTR.norm>
0

>  <SCORE.SYSTEM>
0

>  <SCORE.SYSTEM.CONST>
0

>  <SCORE.SYSTEM.DIHEDRAL>
0

>  <SCORE.SYSTEM.SOLV>
0

>  <SCORE.SYSTEM.norm>
0

>  <SCORE.heavy>
27

>  <SCORE.norm>
-0.239709

>  <RMSD>
5.584

$$$$
ligand
 OpenBabel11021811473D
libRbt.so/2013.1/901 2013/11/27
 27 28  0  0  0  0  0  0  0  0999 V2000
   -4.7306   36.8725   -4.8918 C   0  0  0  0  0  0  0  0  0  0  0  0
   -5.2318   43.6747   -8.6782 C   0  0  0  0  0  0  0  0  0  0  0  0
   -3.0731   44.1517  -10.7000 C   0  0  0  0  0  0  0  0  0  0  0  0
   -1.7285   44.1565   -9.9701 C   0  0  0  0  0  0  0  0  0  0  0  0
   -1.9059   43.8683   -8.5810 O   0  0  0  0  0  0  0  0  0  0  0  0
   -0.6581   43.9659   -7.5743 P   0  0  1  0  0  0  0  0  0  0  0  0
   -0.9363   46.7532   -7.2427 P   0  0  2  0  0  0  0  0  0  0  0  0
   -3.9450   40.4999  -11.2956 C   0  0  0  0  0  0  0  0  0  0  0  0
   -4.3028   38.7949   -6.4112 N   0  0  0  0  0  0  0  0  0  0  0  0
   -1.0947   43.5999   -6.0768 O   0  5  0  0  0  0  0  0  0  0  0  0
   -2.2012   46.8354   -8.0017 O   0  0  0  0  0  0  0  0  0  0  0  0
   -4.9477   40.2573  -10.3661 C   0  0  0  0  0  0  0  0  0  0  0  0
   -5.1984   37.9665   -5.8521 C   0  0  0  0  0  0  0  0  0  0  0  0
    0.5484   42.9635   -7.9656 O   0  0  0  0  0  0  0  0  0  0  0  0
   -0.0091   48.0374   -7.5013 O   0  5  0  0  0  0  0  0  0  0  0  0
   -5.3672   41.2858   -9.5211 N   0  0  0  0  0  0  0  0  0  0  0  0
   -6.5050   38.0884   -6.1279 N   0  0  0  0  0  0  0  0  0  0  0  0
   -0.0433   45.4720   -7.5892 O   0  0  0  0  0  0  0  0  0  0  0  0
   -1.2136   46.7412   -5.6721 O   0  0  0  0  0  0  0  0  0  0  0  0
   -4.7689   42.5483   -9.6125 C   0  0  1  0  0  0  0  0  0  0  0  0
   -6.9337   39.0404   -6.9659 C   0  0  0  0  0  0  0  0  0  0  0  0
   -8.2314   39.1527   -7.2302 N   0  0  0  0  0  0  0  0  0  0  0  0
   -3.7628   42.7910  -10.5463 C   0  0  2  0  0  0  0  0  0  0  0  0
   -6.0267   39.9121   -7.5560 C   0  0  0  0  0  0  0  0  0  0  0  0
   -3.3590   41.7568  -11.3819 C   0  0  0  0  0  0  0  0  0  0  0  0
   -4.6817   39.7495   -7.2445 C   0  0  0  0  0  0  0  0  0  0  0  0
   -6.4352   41.0276   -8.5269 C   0  0  0  0  0  0  0  0  0  0  0  0
  1 13  1  0  0  0  0
  3  4  1  0  0  0  0
  4  5  1  0  0  0  0
  6  5  1  6  0  0  0
  6 10  1  0  0  0  0
  6 14  2  0  0  0  0
  6 18  1  0  0  0  0
  7 11  1  6  0  0  0
  7 15  1  0  0  0  0
  7 19  2  0  0  0  0
  7 18  1  0  0  0  0
  8 25  1  0  0  0  0
  8 12  1  0  0  0  0
  9 26  2  0  0  0  0
  9 13  1  0  0  0  0
 12 16  1  0  0  0  0
 13 17  2  0  0  0  0
 16 20  1  0  0  0  0
 16 27  1  0  0  0  0
 17 21  1  0  0  0  0
 20  2  1  6  0  0  0
 20 23  1  0  0  0  0
 21 22  1  0  0  0  0
 21 24  2  0  0  0  0
 23  3  1  1  0  0  0
 23 25  1  0  0  0  0
 24 27  1  0  0  0  0
 24 26  1  0  0  0  0
M  CHG  2  10  -1  15  -1
M  END
>  <CHROM.1>
-58.62618086,-173.67709184,-179.97520000,57.25241350,-51.21624977,99.08607129
-148.88166218,59.60782360,-3.21122439,42.65285184,-7.98516825,-2.67227700
-0.84572331,-1.02039016

>  <Name>
ligand

>  <RI>
0

>  <Rbt.Current_Directory>
/home/itssahil/PROJECTS/Mol_Feturizer/New_Systems/rnas/3D2V

>  <Rbt.Executable>
rbdock ($Id: //depot/dev/client3/rdock/2013.1/src/exe/rbdock.cxx#4 $)

>  <Rbt.Library>
libRbt.so (2013.1, Build901 2013/11/27)

>  <Rbt.Parameter_File>
/export/apps/rDock/src/rDock_2013.1_src/data/scripts/dock_solv.prm

>  <Rbt.Receptor>
prm/pocket_docking_5.prm

>  <SCORE>
-12.5628

>  <SCORE.INTER>
-9.33145

>  <SCORE.INTER.CONST>
1

>  <SCORE.INTER.POLAR>
0

>  <SCORE.INTER.ROT>
8

>  <SCORE.INTER.SOLV>
16.6926

>  <SCORE.INTER.VDW>
-20.7185

>  <SCORE.INTER.norm>
-0.345609

>  <SCORE.INTRA>
-3.23132

>  <SCORE.INTRA.DIHEDRAL>
-2.29648

>  <SCORE.INTRA.DIHEDRAL.0>
7.82666

>  <SCORE.INTRA.POLAR>
0

>  <SCORE.INTRA.POLAR.0>
0

>  <SCORE.INTRA.REPUL>
0

>  <SCORE.INTRA.REPUL.0>
0

>  <SCORE.INTRA.SOLV>
-2.43343

>  <SCORE.INTRA.SOLV.lig_0>
-83.2758

>  <SCORE.INTRA.VDW>
-0.866362

>  <SCORE.INTRA.VDW.0>
-3.26816

>  <SCORE.INTRA.norm>
-0.119678

>  <SCORE.RESTR>
0

>  <SCORE.RESTR.CAVITY>
0

>  <SCORE.RESTR.norm>
0

>  <SCORE.SYSTEM>
0

>  <SCORE.SYSTEM.CONST>
0

>  <SCORE.SYSTEM.DIHEDRAL>
0

>  <SCORE.SYSTEM.SOLV>
0

>  <SCORE.SYSTEM.norm>
0

>  <SCORE.heavy>
27

>  <SCORE.norm>
-0.465288

>  <RMSD>
5.605

$$$$
ligand
 OpenBabel11021811473D
libRbt.so/2013.1/901 2013/11/27
 27 28  0  0  0  0  0  0  0  0999 V2000
   -5.6444   40.2975   -0.1173 C   0  0  0  0  0  0  0  0  0  0  0  0
   -3.8128   44.9368   -7.2050 C   0  0  0  0  0  0  0  0  0  0  0  0
   -6.1144   46.6258   -8.1135 C   0  0  0  0  0  0  0  0  0  0  0  0
   -6.7125   45.9003   -9.3204 C   0  0  0  0  0  0  0  0  0  0  0  0
   -6.0242   44.6710   -9.5640 O   0  0  0  0  0  0  0  0  0  0  0  0
   -6.4517   43.7425  -10.8030 P   0  0  1  0  0  0  0  0  0  0  0  0
   -4.9783   41.8134  -12.2396 P   0  0  2  0  0  0  0  0  0  0  0  0
   -7.5150   44.9612   -4.9960 C   0  0  0  0  0  0  0  0  0  0  0  0
   -4.9051   42.3769   -1.2648 N   0  0  0  0  0  0  0  0  0  0  0  0
   -7.9838   43.2893  -10.6829 O   0  5  0  0  0  0  0  0  0  0  0  0
   -6.0346   41.5558  -13.2398 O   0  0  0  0  0  0  0  0  0  0  0  0
   -6.4607   44.1715   -4.5569 C   0  0  0  0  0  0  0  0  0  0  0  0
   -5.2472   41.0833   -1.3674 C   0  0  0  0  0  0  0  0  0  0  0  0
   -6.2963   44.4845  -12.2309 O   0  0  0  0  0  0  0  0  0  0  0  0
   -4.1749   40.4735  -11.8723 O   0  5  0  0  0  0  0  0  0  0  0  0
   -5.2607   44.1662   -5.2696 N   0  0  0  0  0  0  0  0  0  0  0  0
   -5.2443   40.4698   -2.5597 N   0  0  0  0  0  0  0  0  0  0  0  0
   -5.5136   42.4146  -10.8572 O   0  0  0  0  0  0  0  0  0  0  0  0
   -3.8822   42.8195  -12.8143 O   0  0  0  0  0  0  0  0  0  0  0  0
   -5.1337   44.9493   -6.4232 C   0  0  1  0  0  0  0  0  0  0  0  0
   -4.8998   41.1413   -3.6655 C   0  0  0  0  0  0  0  0  0  0  0  0
   -4.9025   40.5231   -4.8420 N   0  0  0  0  0  0  0  0  0  0  0  0
   -6.1925   45.7421   -6.8629 C   0  0  1  0  0  0  0  0  0  0  0  0
   -4.5438   42.4822   -3.5862 C   0  0  0  0  0  0  0  0  0  0  0  0
   -7.3793   45.7381   -6.1401 C   0  0  0  0  0  0  0  0  0  0  0  0
   -4.5581   43.0788   -2.3307 C   0  0  0  0  0  0  0  0  0  0  0  0
   -4.1356   43.3219   -4.8036 C   0  0  0  0  0  0  0  0  0  0  0  0
  1 13  1  0  0  0  0
  3  4  1  0  0  0  0
  4  5  1  0  0  0  0
  6  5  1  1  0  0  0
  6 10  1  0  0  0  0
  6 14  2  0  0  0  0
  6 18  1  0  0  0  0
  7 11  1  6  0  0  0
  7 15  1  0  0  0  0
  7 19  2  0  0  0  0
  7 18  1  0  0  0  0
  8 25  1  0  0  0  0
  8 12  1  0  0  0  0
  9 26  2  0  0  0  0
  9 13  1  0  0  0  0
 12 16  1  0  0  0  0
 13 17  2  0  0  0  0
 16 20  1  0  0  0  0
 16 27  1  0  0  0  0
 17 21  1  0  0  0  0
 20  2  1  1  0  0  0
 20 23  1  0  0  0  0
 21 22  1  0  0  0  0
 21 24  2  0  0  0  0
 23  3  1  1  0  0  0
 23 25  1  0  0  0  0
 24 27  1  0  0  0  0
 24 26  1  0  0  0  0
M  CHG  2  10  -1  15  -1
M  END
>  <CHROM.1>
-58.63621092,-178.70681375,-59.48688707,-140.25656799,-53.07976321,96.20267303
100.30287190,3.64088395,-5.56025856,43.15562373,-7.58291519,-1.43034429,1.24179267
-1.61501410

>  <Name>
ligand

>  <RI>
0

>  <Rbt.Current_Directory>
/home/itssahil/PROJECTS/Mol_Feturizer/New_Systems/rnas/3D2V

>  <Rbt.Executable>
rbdock ($Id: //depot/dev/client3/rdock/2013.1/src/exe/rbdock.cxx#4 $)

>  <Rbt.Library>
libRbt.so (2013.1, Build901 2013/11/27)

>  <Rbt.Parameter_File>
/export/apps/rDock/src/rDock_2013.1_src/data/scripts/dock_solv.prm

>  <Rbt.Receptor>
prm/pocket_docking_6.prm

>  <SCORE>
-10.869

>  <SCORE.INTER>
-10.3901

>  <SCORE.INTER.CONST>
1

>  <SCORE.INTER.POLAR>
0

>  <SCORE.INTER.ROT>
8

>  <SCORE.INTER.SOLV>
21.1042

>  <SCORE.INTER.VDW>
-22.8948

>  <SCORE.INTER.norm>
-0.384819

>  <SCORE.INTRA>
-0.478913

>  <SCORE.INTRA.DIHEDRAL>
-0.744575

>  <SCORE.INTRA.DIHEDRAL.0>
7.82666

>  <SCORE.INTRA.POLAR>
0

>  <SCORE.INTRA.POLAR.0>
0

>  <SCORE.INTRA.REPUL>
0

>  <SCORE.INTRA.REPUL.0>
0

>  <SCORE.INTRA.SOLV>
-0.813201

>  <SCORE.INTRA.SOLV.lig_0>
-83.2758

>  <SCORE.INTRA.VDW>
0.299975

>  <SCORE.INTRA.VDW.0>
-3.26816

>  <SCORE.INTRA.norm>
-0.0177375

>  <SCORE.RESTR>
0

>  <SCORE.RESTR.CAVITY>
0

>  <SCORE.RESTR.norm>
0

>  <SCORE.SYSTEM>
0

>  <SCORE.SYSTEM.CONST>
0

>  <SCORE.SYSTEM.DIHEDRAL>
0

>  <SCORE.SYSTEM.SOLV>
0

>  <SCORE.SYSTEM.norm>
0

>  <SCORE.heavy>
27

>  <SCORE.norm>
-0.402557

>  <RMSD>
5.628

$$$$
ligand
 OpenBabel11021811463D
libRbt.so/2013.1/901 2013/11/27
 27 28  0  0  0  0  0  0  0  0999 V2000
  -12.0786   37.2781   -1.9692 C   0  0  0  0  0  0  0  0  0  0  0  0
   -7.8083   40.9597   -6.4032 C   0  0  0  0  0  0  0  0  0  0  0  0
   -6.1274   39.4219   -8.3488 C   0  0  0  0  0  0  0  0  0  0  0  0
   -6.0586   38.0839   -9.0875 C   0  0  0  0  0  0  0  0  0  0  0  0
   -6.9173   37.1210   -8.4714 O   0  0  0  0  0  0  0  0  0  0  0  0
   -6.9676   35.6156   -9.0294 P   0  0  1  0  0  0  0  0  0  0  0  0
   -7.6352   35.3598  -11.7580 P   0  0  2  0  0  0  0  0  0  0  0  0
   -4.9895   38.0116   -5.0070 C   0  0  0  0  0  0  0  0  0  0  0  0
  -10.6779   38.4492   -3.6586 N   0  0  0  0  0  0  0  0  0  0  0  0
   -5.5386   35.1614   -9.5939 O   0  5  0  0  0  0  0  0  0  0  0  0
   -6.5173   34.4231  -11.9934 O   0  0  0  0  0  0  0  0  0  0  0  0
   -5.7591   38.7126   -4.0881 C   0  0  0  0  0  0  0  0  0  0  0  0
  -10.8603   38.1090   -2.3733 C   0  0  0  0  0  0  0  0  0  0  0  0
   -7.3861   34.5375   -7.8997 O   0  0  0  0  0  0  0  0  0  0  0  0
   -7.2807   36.8404  -12.2657 O   0  5  0  0  0  0  0  0  0  0  0  0
   -6.6744   39.6644   -4.5398 N   0  0  0  0  0  0  0  0  0  0  0  0
   -9.9817   38.4918   -1.4355 N   0  0  0  0  0  0  0  0  0  0  0  0
   -8.0660   35.4976  -10.2236 O   0  0  0  0  0  0  0  0  0  0  0  0
   -8.9266   34.9262  -12.5876 O   0  0  0  0  0  0  0  0  0  0  0  0
   -6.8025   39.9092   -5.9123 C   0  0  1  0  0  0  0  0  0  0  0  0
   -8.9088   39.2194   -1.7700 C   0  0  0  0  0  0  0  0  0  0  0  0
   -8.0438   39.5914   -0.8319 N   0  0  0  0  0  0  0  0  0  0  0  0
   -6.0298   39.2047   -6.8341 C   0  0  1  0  0  0  0  0  0  0  0  0
   -8.6961   39.5826   -3.0943 C   0  0  0  0  0  0  0  0  0  0  0  0
   -5.1254   38.2585   -6.3677 C   0  0  0  0  0  0  0  0  0  0  0  0
   -9.6324   39.1669   -4.0340 C   0  0  0  0  0  0  0  0  0  0  0  0
   -7.4945   40.4150   -3.5601 C   0  0  0  0  0  0  0  0  0  0  0  0
  1 13  1  0  0  0  0
  3  4  1  0  0  0  0
  4  5  1  0  0  0  0
  6  5  1  1  0  0  0
  6 10  1  0  0  0  0
  6 14  2  0  0  0  0
  6 18  1  0  0  0  0
  7 11  1  6  0  0  0
  7 15  1  0  0  0  0
  7 19  2  0  0  0  0
  7 18  1  0  0  0  0
  8 25  1  0  0  0  0
  8 12  1  0  0  0  0
  9 26  2  0  0  0  0
  9 13  1  0  0  0  0
 12 16  1  0  0  0  0
 13 17  2  0  0  0  0
 16 20  1  0  0  0  0
 16 27  1  0  0  0  0
 17 21  1  0  0  0  0
 20  2  1  6  0  0  0
 20 23  1  0  0  0  0
 21 22  1  0  0  0  0
 21 24  2  0  0  0  0
 23  3  1  6  0  0  0
 23 25  1  0  0  0  0
 24 27  1  0  0  0  0
 24 26  1  0  0  0  0
M  CHG  2  10  -1  15  -1
M  END
>  <CHROM.1>
46.15629197,-177.25950653,33.08386871,106.29580506,43.06327257,-139.31528487
119.57596974,-80.61396425,-7.64311030,37.53707579,-6.95622713,1.79669556
0.54844764,1.04661701

>  <Name>
ligand

>  <RI>
0

>  <Rbt.Current_Directory>
/home/itssahil/PROJECTS/Mol_Feturizer/New_Systems/rnas/3D2V

>  <Rbt.Executable>
rbdock ($Id: //depot/dev/client3/rdock/2013.1/src/exe/rbdock.cxx#4 $)

>  <Rbt.Library>
libRbt.so (2013.1, Build901 2013/11/27)

>  <Rbt.Parameter_File>
/export/apps/rDock/src/rDock_2013.1_src/data/scripts/dock_solv.prm

>  <Rbt.Receptor>
prm/blind_docking_60.prm

>  <SCORE>
-18.0011

>  <SCORE.INTER>
-18.6504

>  <SCORE.INTER.CONST>
1

>  <SCORE.INTER.POLAR>
0

>  <SCORE.INTER.ROT>
8

>  <SCORE.INTER.SOLV>
28.8477

>  <SCORE.INTER.VDW>
-30.9828

>  <SCORE.INTER.norm>
-0.690756

>  <SCORE.INTRA>
0.64929

>  <SCORE.INTRA.DIHEDRAL>
1.66215

>  <SCORE.INTRA.DIHEDRAL.0>
7.82666

>  <SCORE.INTRA.POLAR>
0

>  <SCORE.INTRA.POLAR.0>
0

>  <SCORE.INTRA.REPUL>
0

>  <SCORE.INTRA.REPUL.0>
0

>  <SCORE.INTRA.SOLV>
-1.14431

>  <SCORE.INTRA.SOLV.lig_0>
-83.2758

>  <SCORE.INTRA.VDW>
0.390367

>  <SCORE.INTRA.VDW.0>
-3.26816

>  <SCORE.INTRA.norm>
0.0240478

>  <SCORE.RESTR>
0

>  <SCORE.RESTR.CAVITY>
0

>  <SCORE.RESTR.norm>
0

>  <SCORE.SYSTEM>
0

>  <SCORE.SYSTEM.CONST>
0

>  <SCORE.SYSTEM.DIHEDRAL>
0

>  <SCORE.SYSTEM.SOLV>
0

>  <SCORE.SYSTEM.norm>
0

>  <SCORE.heavy>
27

>  <SCORE.norm>
-0.666708

>  <RMSD>
5.643

$$$$
ligand
 OpenBabel11021811473D
libRbt.so/2013.1/901 2013/11/27
 27 28  0  0  0  0  0  0  0  0999 V2000
   -5.5514   33.4670  -11.5155 C   0  0  0  0  0  0  0  0  0  0  0  0
   -6.9359   39.4036   -8.3367 C   0  0  0  0  0  0  0  0  0  0  0  0
   -4.7230   40.9850   -7.0807 C   0  0  0  0  0  0  0  0  0  0  0  0
   -4.7275   42.0009   -5.9368 C   0  0  0  0  0  0  0  0  0  0  0  0
   -4.4467   43.3148   -6.4259 O   0  0  0  0  0  0  0  0  0  0  0  0
   -5.5983   44.1635   -7.1564 P   0  0  1  0  0  0  0  0  0  0  0  0
   -6.9763   44.0452   -9.6148 P   0  0  2  0  0  0  0  0  0  0  0  0
   -4.7521   37.8214   -4.9731 C   0  0  0  0  0  0  0  0  0  0  0  0
   -6.2817   35.6447  -10.5609 N   0  0  0  0  0  0  0  0  0  0  0  0
   -6.7950   44.5016   -6.1461 O   0  5  0  0  0  0  0  0  0  0  0  0
   -7.8223   43.1392  -10.4186 O   0  0  0  0  0  0  0  0  0  0  0  0
   -5.7737   37.0714   -5.5406 C   0  0  0  0  0  0  0  0  0  0  0  0
   -6.0868   34.3303  -10.3728 C   0  0  0  0  0  0  0  0  0  0  0  0
   -5.0684   45.5751   -7.7395 O   0  0  0  0  0  0  0  0  0  0  0  0
   -5.8617   44.7660  -10.5168 O   0  5  0  0  0  0  0  0  0  0  0  0
   -6.4784   37.5816   -6.6318 N   0  0  0  0  0  0  0  0  0  0  0  0
   -6.3579   33.7635   -9.1882 N   0  0  0  0  0  0  0  0  0  0  0  0
   -6.1957   43.3270   -8.4174 O   0  0  0  0  0  0  0  0  0  0  0  0
   -7.8431   45.2285   -8.9883 O   0  0  0  0  0  0  0  0  0  0  0  0
   -6.1551   38.8460   -7.1387 C   0  0  1  0  0  0  0  0  0  0  0  0
   -6.8271   34.5031   -8.1757 C   0  0  0  0  0  0  0  0  0  0  0  0
   -7.0903   33.9305   -7.0055 N   0  0  0  0  0  0  0  0  0  0  0  0
   -5.1290   39.5979   -6.5687 C   0  0  2  0  0  0  0  0  0  0  0  0
   -7.0353   35.8666   -8.3443 C   0  0  0  0  0  0  0  0  0  0  0  0
   -4.4354   39.0740   -5.4846 C   0  0  0  0  0  0  0  0  0  0  0  0
   -6.7434   36.4133   -9.5886 C   0  0  0  0  0  0  0  0  0  0  0  0
   -7.5706   36.7835   -7.2367 C   0  0  0  0  0  0  0  0  0  0  0  0
  1 13  1  0  0  0  0
  3  4  1  0  0  0  0
  4  5  1  0  0  0  0
  6  5  1  1  0  0  0
  6 10  1  0  0  0  0
  6 14  2  0  0  0  0
  6 18  1  0  0  0  0
  7 11  1  6  0  0  0
  7 15  1  0  0  0  0
  7 19  2  0  0  0  0
  7 18  1  0  0  0  0
  8 25  1  0  0  0  0
  8 12  1  0  0  0  0
  9 26  2  0  0  0  0
  9 13  1  0  0  0  0
 12 16  1  0  0  0  0
 13 17  2  0  0  0  0
 16 20  1  0  0  0  0
 16 27  1  0  0  0  0
 17 21  1  0  0  0  0
 20  2  1  6  0  0  0
 20 23  1  0  0  0  0
 21 22  1  0  0  0  0
 21 24  2  0  0  0  0
 23  3  1  1  0  0  0
 23 25  1  0  0  0  0
 24 27  1  0  0  0  0
 24 26  1  0  0  0  0
M  CHG  2  10  -1  15  -1
M  END
>  <CHROM.1>
-175.69655737,78.30876920,64.42901197,-159.30224529,-160.61428916,126.84103525
102.65077136,-89.44533719,-6.15135683,40.08828413,-8.05192842,1.64148894
1.24427157,3.12825044

>  <Name>
ligand

>  <RI>
0

>  <Rbt.Current_Directory>
/home/itssahil/PROJECTS/Mol_Feturizer/New_Systems/rnas/3D2V

>  <Rbt.Executable>
rbdock ($Id: //depot/dev/client3/rdock/2013.1/src/exe/rbdock.cxx#4 $)

>  <Rbt.Library>
libRbt.so (2013.1, Build901 2013/11/27)

>  <Rbt.Parameter_File>
/export/apps/rDock/src/rDock_2013.1_src/data/scripts/dock_solv.prm

>  <Rbt.Receptor>
prm/pocket_docking_8.prm

>  <SCORE>
-8.39426

>  <SCORE.INTER>
-9.52956

>  <SCORE.INTER.CONST>
1

>  <SCORE.INTER.POLAR>
0

>  <SCORE.INTER.ROT>
8

>  <SCORE.INTER.SOLV>
15.2541

>  <SCORE.INTER.VDW>
-20.3711

>  <SCORE.INTER.norm>
-0.352947

>  <SCORE.INTRA>
1.13529

>  <SCORE.INTRA.DIHEDRAL>
0.225724

>  <SCORE.INTRA.DIHEDRAL.0>
7.82666

>  <SCORE.INTRA.POLAR>
0

>  <SCORE.INTRA.POLAR.0>
0

>  <SCORE.INTRA.REPUL>
0

>  <SCORE.INTRA.REPUL.0>
0

>  <SCORE.INTRA.SOLV>
2.15958

>  <SCORE.INTRA.SOLV.lig_0>
-83.2758

>  <SCORE.INTRA.VDW>
-0.0573589

>  <SCORE.INTRA.VDW.0>
-3.26816

>  <SCORE.INTRA.norm>
0.0420479

>  <SCORE.RESTR>
0

>  <SCORE.RESTR.CAVITY>
0

>  <SCORE.RESTR.norm>
0

>  <SCORE.SYSTEM>
0

>  <SCORE.SYSTEM.CONST>
0

>  <SCORE.SYSTEM.DIHEDRAL>
0

>  <SCORE.SYSTEM.SOLV>
0

>  <SCORE.SYSTEM.norm>
0

>  <SCORE.heavy>
27

>  <SCORE.norm>
-0.310899

>  <RMSD>
5.709

$$$$
ligand
 OpenBabel11021811463D
libRbt.so/2013.1/901 2013/11/27
 27 28  0  0  0  0  0  0  0  0999 V2000
  -12.7679   37.5558   -1.6479 C   0  0  0  0  0  0  0  0  0  0  0  0
   -8.5929   39.0874   -6.6794 C   0  0  0  0  0  0  0  0  0  0  0  0
   -7.1292   36.9309   -8.1567 C   0  0  0  0  0  0  0  0  0  0  0  0
   -6.1295   37.6062   -9.0976 C   0  0  0  0  0  0  0  0  0  0  0  0
   -6.4257   37.2920  -10.4606 O   0  0  0  0  0  0  0  0  0  0  0  0
   -6.0843   35.8340  -11.0417 P   0  0  1  0  0  0  0  0  0  0  0  0
   -3.8911   34.4585  -12.1616 P   0  0  2  0  0  0  0  0  0  0  0  0
   -5.4794   36.8277   -4.7335 C   0  0  0  0  0  0  0  0  0  0  0  0
  -11.3056   38.1814   -3.5604 N   0  0  0  0  0  0  0  0  0  0  0  0
   -6.2165   34.7138   -9.9038 O   0  5  0  0  0  0  0  0  0  0  0  0
   -4.0008   33.3170  -11.2302 O   0  0  0  0  0  0  0  0  0  0  0  0
   -6.1456   37.8225   -4.0300 C   0  0  0  0  0  0  0  0  0  0  0  0
  -11.4646   38.1037   -2.2301 C   0  0  0  0  0  0  0  0  0  0  0  0
   -7.0646   35.3901  -12.2481 O   0  0  0  0  0  0  0  0  0  0  0  0
   -2.3589   34.8138  -12.4807 O   0  5  0  0  0  0  0  0  0  0  0  0
   -7.1561   38.5517   -4.6584 N   0  0  0  0  0  0  0  0  0  0  0  0
  -10.4883   38.5034   -1.4024 N   0  0  0  0  0  0  0  0  0  0  0  0
   -4.5686   35.8074  -11.6318 O   0  0  0  0  0  0  0  0  0  0  0  0
   -4.5466   34.1080  -13.5727 O   0  0  0  0  0  0  0  0  0  0  0  0
   -7.4831   38.2798   -5.9923 C   0  0  1  0  0  0  0  0  0  0  0  0
   -9.3399   38.9857   -1.8933 C   0  0  0  0  0  0  0  0  0  0  0  0
   -8.3787   39.3770   -1.0630 N   0  0  0  0  0  0  0  0  0  0  0  0
   -6.8141   37.2807   -6.6975 C   0  0  1  0  0  0  0  0  0  0  0  0
   -9.1498   39.0741   -3.2670 C   0  0  0  0  0  0  0  0  0  0  0  0
   -5.8126   36.5621   -6.0561 C   0  0  0  0  0  0  0  0  0  0  0  0
  -10.1879   38.6510   -4.0890 C   0  0  0  0  0  0  0  0  0  0  0  0
   -7.8660   39.6153   -3.9097 C   0  0  0  0  0  0  0  0  0  0  0  0
  1 13  1  0  0  0  0
  3  4  1  0  0  0  0
  4  5  1  0  0  0  0
  6  5  1  1  0  0  0
  6 10  1  0  0  0  0
  6 14  2  0  0  0  0
  6 18  1  0  0  0  0
  7 11  1  1  0  0  0
  7 15  1  0  0  0  0
  7 19  2  0  0  0  0
  7 18  1  0  0  0  0
  8 25  1  0  0  0  0
  8 12  1  0  0  0  0
  9 26  2  0  0  0  0
  9 13  1  0  0  0  0
 12 16  1  0  0  0  0
 13 17  2  0  0  0  0
 16 20  1  0  0  0  0
 16 27  1  0  0  0  0
 17 21  1  0  0  0  0
 20  2  1  1  0  0  0
 20 23  1  0  0  0  0
 21 22  1  0  0  0  0
 21 24  2  0  0  0  0
 23  3  1  1  0  0  0
 23 25  1  0  0  0  0
 24 27  1  0  0  0  0
 24 26  1  0  0  0  0
M  CHG  2  10  -1  15  -1
M  END
>  <CHROM.1>
-179.52046452,-74.50253481,31.79407438,174.43799825,-49.49309381,98.57312271
114.36874959,-93.90648464,-7.00964857,36.87317396,-7.46701006,2.05065706
-0.01989305,1.20171318

>  <Name>
ligand

>  <RI>
0

>  <Rbt.Current_Directory>
/home/itssahil/PROJECTS/Mol_Feturizer/New_Systems/rnas/3D2V

>  <Rbt.Executable>
rbdock ($Id: //depot/dev/client3/rdock/2013.1/src/exe/rbdock.cxx#4 $)

>  <Rbt.Library>
libRbt.so (2013.1, Build901 2013/11/27)

>  <Rbt.Parameter_File>
/export/apps/rDock/src/rDock_2013.1_src/data/scripts/dock_solv.prm

>  <Rbt.Receptor>
prm/blind_docking_80.prm

>  <SCORE>
-19.6444

>  <SCORE.INTER>
-19.9558

>  <SCORE.INTER.CONST>
1

>  <SCORE.INTER.POLAR>
0

>  <SCORE.INTER.ROT>
8

>  <SCORE.INTER.SOLV>
23.6184

>  <SCORE.INTER.VDW>
-30.11

>  <SCORE.INTER.norm>
-0.739102

>  <SCORE.INTRA>
0.311321

>  <SCORE.INTRA.DIHEDRAL>
-0.311886

>  <SCORE.INTRA.DIHEDRAL.0>
7.82666

>  <SCORE.INTRA.POLAR>
0

>  <SCORE.INTRA.POLAR.0>
0

>  <SCORE.INTRA.REPUL>
0

>  <SCORE.INTRA.REPUL.0>
0

>  <SCORE.INTRA.SOLV>
0.0617531

>  <SCORE.INTRA.SOLV.lig_0>
-83.2758

>  <SCORE.INTRA.VDW>
0.436387

>  <SCORE.INTRA.VDW.0>
-3.26816

>  <SCORE.INTRA.norm>
0.0115304

>  <SCORE.RESTR>
0

>  <SCORE.RESTR.CAVITY>
0

>  <SCORE.RESTR.norm>
0

>  <SCORE.SYSTEM>
0

>  <SCORE.SYSTEM.CONST>
0

>  <SCORE.SYSTEM.DIHEDRAL>
0

>  <SCORE.SYSTEM.SOLV>
0

>  <SCORE.SYSTEM.norm>
0

>  <SCORE.heavy>
27

>  <SCORE.norm>
-0.727571

>  <RMSD>
5.888

$$$$
ligand
 OpenBabel11021811473D
libRbt.so/2013.1/901 2013/11/27
 27 28  0  0  0  0  0  0  0  0999 V2000
   -5.0667   37.0484   -4.7631 C   0  0  0  0  0  0  0  0  0  0  0  0
   -4.6269   42.2166  -11.5815 C   0  0  0  0  0  0  0  0  0  0  0  0
   -6.1787   44.7544  -11.2250 C   0  0  0  0  0  0  0  0  0  0  0  0
   -5.1880   45.7562  -10.6286 C   0  0  0  0  0  0  0  0  0  0  0  0
   -5.5939   46.1482   -9.3150 O   0  0  0  0  0  0  0  0  0  0  0  0
   -4.5561   46.8949   -8.3426 P   0  0  1  0  0  0  0  0  0  0  0  0
   -3.1927   44.5268   -7.6428 P   0  0  2  0  0  0  0  0  0  0  0  0
   -7.4723   42.6082   -8.3665 C   0  0  0  0  0  0  0  0  0  0  0  0
   -4.3959   38.9743   -6.1872 N   0  0  0  0  0  0  0  0  0  0  0  0
   -4.1886   48.3514   -8.8999 O   0  5  0  0  0  0  0  0  0  0  0  0
   -4.0980   43.6078   -8.3627 O   0  0  0  0  0  0  0  0  0  0  0  0
   -6.7633   41.4233   -8.5131 C   0  0  0  0  0  0  0  0  0  0  0  0
   -5.0814   37.8256   -6.0798 C   0  0  0  0  0  0  0  0  0  0  0  0
   -5.1302   47.1006   -6.8453 O   0  0  0  0  0  0  0  0  0  0  0  0
   -3.5717   44.6289   -6.0867 O   0  5  0  0  0  0  0  0  0  0  0  0
   -5.8393   41.2975   -9.5515 N   0  0  0  0  0  0  0  0  0  0  0  0
   -5.7821   37.3500   -7.1194 N   0  0  0  0  0  0  0  0  0  0  0  0
   -3.1890   46.0235   -8.2077 O   0  0  0  0  0  0  0  0  0  0  0  0
   -1.6907   43.9912   -7.6778 O   0  0  0  0  0  0  0  0  0  0  0  0
   -5.6418   42.3619  -10.4392 C   0  0  1  0  0  0  0  0  0  0  0  0
   -5.8073   38.0166   -8.2802 C   0  0  0  0  0  0  0  0  0  0  0  0
   -6.5070   37.5363   -9.3030 N   0  0  0  0  0  0  0  0  0  0  0  0
   -6.3537   43.5512  -10.2909 C   0  0  1  0  0  0  0  0  0  0  0  0
   -5.1078   39.2095   -8.4162 C   0  0  0  0  0  0  0  0  0  0  0  0
   -7.2676   43.6610   -9.2500 C   0  0  0  0  0  0  0  0  0  0  0  0
   -4.3928   39.6656   -7.3147 C   0  0  0  0  0  0  0  0  0  0  0  0
   -5.0839   40.0327   -9.7107 C   0  0  0  0  0  0  0  0  0  0  0  0
  1 13  1  0  0  0  0
  3  4  1  0  0  0  0
  4  5  1  0  0  0  0
  6  5  1  6  0  0  0
  6 10  1  0  0  0  0
  6 14  2  0  0  0  0
  6 18  1  0  0  0  0
  7 11  1  6  0  0  0
  7 15  1  0  0  0  0
  7 19  2  0  0  0  0
  7 18  1  0  0  0  0
  8 25  1  0  0  0  0
  8 12  1  0  0  0  0
  9 26  2  0  0  0  0
  9 13  1  0  0  0  0
 12 16  1  0  0  0  0
 13 17  2  0  0  0  0
 16 20  1  0  0  0  0
 16 27  1  0  0  0  0
 17 21  1  0  0  0  0
 20  2  1  1  0  0  0
 20 23  1  0  0  0  0
 21 22  1  0  0  0  0
 21 24  2  0  0  0  0
 23  3  1  1  0  0  0
 23 25  1  0  0  0  0
 24 27  1  0  0  0  0
 24 26  1  0  0  0  0
M  CHG  2  10  -1  15  -1
M  END
>  <CHROM.1>
-55.12116303,164.84885273,66.99597488,-59.50757206,55.38858976,-95.70815444
110.09470174,-18.91253242,-4.92080886,42.82864352,-8.39703257,-1.79504525
-0.97746758,-0.33310951

>  <Name>
ligand

>  <RI>
0

>  <Rbt.Current_Directory>
/home/itssahil/PROJECTS/Mol_Feturizer/New_Systems/rnas/3D2V

>  <Rbt.Executable>
rbdock ($Id: //depot/dev/client3/rdock/2013.1/src/exe/rbdock.cxx#4 $)

>  <Rbt.Library>
libRbt.so (2013.1, Build901 2013/11/27)

>  <Rbt.Parameter_File>
/export/apps/rDock/src/rDock_2013.1_src/data/scripts/dock_solv.prm

>  <Rbt.Receptor>
prm/pocket_docking_4.prm

>  <SCORE>
-16.1248

>  <SCORE.INTER>
-12.5337

>  <SCORE.INTER.CONST>
1

>  <SCORE.INTER.POLAR>
0

>  <SCORE.INTER.ROT>
8

>  <SCORE.INTER.SOLV>
16.2567

>  <SCORE.INTER.VDW>
-22.708

>  <SCORE.INTER.norm>
-0.464211

>  <SCORE.INTRA>
-3.59162

>  <SCORE.INTRA.DIHEDRAL>
-1.37902

>  <SCORE.INTRA.DIHEDRAL.0>
7.82666

>  <SCORE.INTRA.POLAR>
0

>  <SCORE.INTRA.POLAR.0>
0

>  <SCORE.INTRA.REPUL>
0

>  <SCORE.INTRA.REPUL.0>
0

>  <SCORE.INTRA.SOLV>
-2.37153

>  <SCORE.INTRA.SOLV.lig_0>
-83.2758

>  <SCORE.INTRA.VDW>
-1.71634

>  <SCORE.INTRA.VDW.0>
-3.26816

>  <SCORE.INTRA.norm>
-0.133023

>  <SCORE.RESTR>
0.000561353

>  <SCORE.RESTR.CAVITY>
0.000561353

>  <SCORE.RESTR.norm>
2.07908e-05

>  <SCORE.SYSTEM>
0

>  <SCORE.SYSTEM.CONST>
0

>  <SCORE.SYSTEM.DIHEDRAL>
0

>  <SCORE.SYSTEM.SOLV>
0

>  <SCORE.SYSTEM.norm>
0

>  <SCORE.heavy>
27

>  <SCORE.norm>
-0.597213

>  <RMSD>
5.900

$$$$
ligand
 OpenBabel11021811473D
libRbt.so/2013.1/901 2013/11/27
 27 28  0  0  0  0  0  0  0  0999 V2000
   -5.4843   48.2124   -6.1732 C   0  0  0  0  0  0  0  0  0  0  0  0
   -4.0783   41.5909   -6.9473 C   0  0  0  0  0  0  0  0  0  0  0  0
   -5.2522   40.0868   -9.2571 C   0  0  0  0  0  0  0  0  0  0  0  0
   -4.7574   41.2149  -10.1644 C   0  0  0  0  0  0  0  0  0  0  0  0
   -5.7871   42.1846  -10.3734 O   0  0  0  0  0  0  0  0  0  0  0  0
   -5.5078   43.4662  -11.3004 P   0  0  1  0  0  0  0  0  0  0  0  0
   -6.6634   45.2547   -9.4505 P   0  0  2  0  0  0  0  0  0  0  0  0
   -8.3315   40.9310   -7.1941 C   0  0  0  0  0  0  0  0  0  0  0  0
   -6.7143   46.0550   -6.0319 N   0  0  0  0  0  0  0  0  0  0  0  0
   -4.0112   44.0043  -11.1057 O   0  5  0  0  0  0  0  0  0  0  0  0
   -5.4304   45.9025   -8.9578 O   0  0  0  0  0  0  0  0  0  0  0  0
   -7.8085   41.6313   -6.1151 C   0  0  0  0  0  0  0  0  0  0  0  0
   -5.5700   46.7255   -5.8272 C   0  0  0  0  0  0  0  0  0  0  0  0
   -5.6897   43.1566  -12.8767 O   0  0  0  0  0  0  0  0  0  0  0  0
   -7.1071   44.0359   -8.5054 O   0  5  0  0  0  0  0  0  0  0  0  0
   -6.4322   41.8484   -6.0368 N   0  0  0  0  0  0  0  0  0  0  0  0
   -4.4962   46.1026   -5.3203 N   0  0  0  0  0  0  0  0  0  0  0  0
   -6.5481   44.6613  -10.9316 O   0  0  0  0  0  0  0  0  0  0  0  0
   -7.8901   46.2738   -9.4302 O   0  0  0  0  0  0  0  0  0  0  0  0
   -5.5917   41.3522   -7.0406 C   0  0  1  0  0  0  0  0  0  0  0  0
   -4.5520   44.8013   -5.0108 C   0  0  0  0  0  0  0  0  0  0  0  0
   -3.4818   44.1952   -4.5072 N   0  0  0  0  0  0  0  0  0  0  0  0
   -6.1177   40.6498   -8.1236 C   0  0  2  0  0  0  0  0  0  0  0  0
   -5.7259   44.0852   -5.2112 C   0  0  0  0  0  0  0  0  0  0  0  0
   -7.4906   40.4449   -8.1878 C   0  0  0  0  0  0  0  0  0  0  0  0
   -6.8145   44.7688   -5.7405 C   0  0  0  0  0  0  0  0  0  0  0  0
   -5.8724   42.5933   -4.8845 C   0  0  0  0  0  0  0  0  0  0  0  0
  1 13  1  0  0  0  0
  3  4  1  0  0  0  0
  4  5  1  0  0  0  0
  6  5  1  1  0  0  0
  6 10  1  0  0  0  0
  6 14  2  0  0  0  0
  6 18  1  0  0  0  0
  7 11  1  1  0  0  0
  7 15  1  0  0  0  0
  7 19  2  0  0  0  0
  7 18  1  0  0  0  0
  8 25  1  0  0  0  0
  8 12  1  0  0  0  0
  9 26  2  0  0  0  0
  9 13  1  0  0  0  0
 12 16  1  0  0  0  0
 13 17  2  0  0  0  0
 16 20  1  0  0  0  0
 16 27  1  0  0  0  0
 17 21  1  0  0  0  0
 20  2  1  6  0  0  0
 20 23  1  0  0  0  0
 21 22  1  0  0  0  0
 21 24  2  0  0  0  0
 23  3  1  1  0  0  0
 23 25  1  0  0  0  0
 24 27  1  0  0  0  0
 24 26  1  0  0  0  0
M  CHG  2  10  -1  15  -1
M  END
>  <CHROM.1>
-39.95956534,-179.76122374,-37.26147180,57.11533442,62.82971023,-73.39284028
-129.20561934,-93.94441223,-5.88826624,43.69444306,-8.15304199,-0.18188475
-1.52779772,-0.61310897

>  <Name>
ligand

>  <RI>
0

>  <Rbt.Current_Directory>
/home/itssahil/PROJECTS/Mol_Feturizer/New_Systems/rnas/3D2V

>  <Rbt.Executable>
rbdock ($Id: //depot/dev/client3/rdock/2013.1/src/exe/rbdock.cxx#4 $)

>  <Rbt.Library>
libRbt.so (2013.1, Build901 2013/11/27)

>  <Rbt.Parameter_File>
/export/apps/rDock/src/rDock_2013.1_src/data/scripts/dock_solv.prm

>  <Rbt.Receptor>
prm/pocket_docking_7.prm

>  <SCORE>
-9.29955

>  <SCORE.INTER>
-7.16786

>  <SCORE.INTER.CONST>
1

>  <SCORE.INTER.POLAR>
0

>  <SCORE.INTER.ROT>
8

>  <SCORE.INTER.SOLV>
15.3979

>  <SCORE.INTER.VDW>
-18.8445

>  <SCORE.INTER.norm>
-0.265476

>  <SCORE.INTRA>
-2.13169

>  <SCORE.INTRA.DIHEDRAL>
-0.474217

>  <SCORE.INTRA.DIHEDRAL.0>
7.82666

>  <SCORE.INTRA.POLAR>
0

>  <SCORE.INTRA.POLAR.0>
0

>  <SCORE.INTRA.REPUL>
0

>  <SCORE.INTRA.REPUL.0>
0

>  <SCORE.INTRA.SOLV>
2.76543

>  <SCORE.INTRA.SOLV.lig_0>
-83.2758

>  <SCORE.INTRA.VDW>
-3.2773

>  <SCORE.INTRA.VDW.0>
-3.26816

>  <SCORE.INTRA.norm>
-0.0789515

>  <SCORE.RESTR>
0

>  <SCORE.RESTR.CAVITY>
0

>  <SCORE.RESTR.norm>
0

>  <SCORE.SYSTEM>
0

>  <SCORE.SYSTEM.CONST>
0

>  <SCORE.SYSTEM.DIHEDRAL>
0

>  <SCORE.SYSTEM.SOLV>
0

>  <SCORE.SYSTEM.norm>
0

>  <SCORE.heavy>
27

>  <SCORE.norm>
-0.344428

>  <RMSD>
6.068

$$$$
ligand
 OpenBabel11021811463D
libRbt.so/2013.1/901 2013/11/27
 27 28  0  0  0  0  0  0  0  0999 V2000
   -8.8897   39.0351   -0.2539 C   0  0  0  0  0  0  0  0  0  0  0  0
   -7.6396   40.5970   -8.0601 C   0  0  0  0  0  0  0  0  0  0  0  0
   -5.8185   38.6811   -9.4702 C   0  0  0  0  0  0  0  0  0  0  0  0
   -5.9628   37.7854  -10.7020 C   0  0  0  0  0  0  0  0  0  0  0  0
   -5.6026   36.4369  -10.3920 O   0  0  0  0  0  0  0  0  0  0  0  0
   -5.2600   35.4047  -11.5740 P   0  0  1  0  0  0  0  0  0  0  0  0
   -3.8047   35.6133  -13.9813 P   0  0  2  0  0  0  0  0  0  0  0  0
   -7.6401   36.4122   -7.0238 C   0  0  0  0  0  0  0  0  0  0  0  0
   -9.9954   38.5559   -2.4299 N   0  0  0  0  0  0  0  0  0  0  0  0
   -4.0567   34.4313  -11.1594 O   0  5  0  0  0  0  0  0  0  0  0  0
   -2.4941   35.2435  -13.4086 O   0  0  0  0  0  0  0  0  0  0  0  0
   -8.4928   37.2828   -6.3580 C   0  0  0  0  0  0  0  0  0  0  0  0
   -9.0116   39.1870   -1.7704 C   0  0  0  0  0  0  0  0  0  0  0  0
   -6.5100   34.4581  -11.9675 O   0  0  0  0  0  0  0  0  0  0  0  0
   -3.6523   36.7115  -15.1417 O   0  5  0  0  0  0  0  0  0  0  0  0
   -8.4956   38.6369   -6.6958 N   0  0  0  0  0  0  0  0  0  0  0  0
   -8.1307   39.9528   -2.4303 N   0  0  0  0  0  0  0  0  0  0  0  0
   -4.8401   36.2150  -12.9207 O   0  0  0  0  0  0  0  0  0  0  0  0
   -4.4980   34.3566  -14.6771 O   0  0  0  0  0  0  0  0  0  0  0  0
   -7.6347   39.1060   -7.6953 C   0  0  1  0  0  0  0  0  0  0  0  0
   -8.2211   40.0978   -3.7581 C   0  0  0  0  0  0  0  0  0  0  0  0
   -7.3409   40.8579   -4.4014 N   0  0  0  0  0  0  0  0  0  0  0  0
   -6.7795   38.2312   -8.3634 C   0  0  1  0  0  0  0  0  0  0  0  0
   -9.2292   39.4529   -4.4643 C   0  0  0  0  0  0  0  0  0  0  0  0
   -6.7914   36.8856   -8.0169 C   0  0  0  0  0  0  0  0  0  0  0  0
  -10.1224   38.6706   -3.7413 C   0  0  0  0  0  0  0  0  0  0  0  0
   -9.4031   39.5676   -5.9843 C   0  0  0  0  0  0  0  0  0  0  0  0
  1 13  1  0  0  0  0
  3  4  1  0  0  0  0
  4  5  1  0  0  0  0
  6  5  1  1  0  0  0
  6 10  1  0  0  0  0
  6 14  2  0  0  0  0
  6 18  1  0  0  0  0
  7 11  1  1  0  0  0
  7 15  1  0  0  0  0
  7 19  2  0  0  0  0
  7 18  1  0  0  0  0
  8 25  1  0  0  0  0
  8 12  1  0  0  0  0
  9 26  2  0  0  0  0
  9 13  1  0  0  0  0
 12 16  1  0  0  0  0
 13 17  2  0  0  0  0
 16 20  1  0  0  0  0
 16 27  1  0  0  0  0
 17 21  1  0  0  0  0
 20  2  1  6  0  0  0
 20 23  1  0  0  0  0
 21 22  1  0  0  0  0
 21 24  2  0  0  0  0
 23  3  1  6  0  0  0
 23 25  1  0  0  0  0
 24 27  1  0  0  0  0
 24 26  1  0  0  0  0
M  CHG  2  10  -1  15  -1
M  END
>  <CHROM.1>
-62.88377557,-162.32301329,142.17778336,149.36770326,-55.87956603,-129.98616706
82.10997620,52.82226181,-6.57321126,37.42108099,-8.66961574,2.85918154,1.14505919
-0.06398338

>  <Name>
ligand

>  <RI>
0

>  <Rbt.Current_Directory>
/home/itssahil/PROJECTS/Mol_Feturizer/New_Systems/rnas/3D2V

>  <Rbt.Executable>
rbdock ($Id: //depot/dev/client3/rdock/2013.1/src/exe/rbdock.cxx#4 $)

>  <Rbt.Library>
libRbt.so (2013.1, Build901 2013/11/27)

>  <Rbt.Parameter_File>
/export/apps/rDock/src/rDock_2013.1_src/data/scripts/dock_solv.prm

>  <Rbt.Receptor>
prm/blind_docking_60.prm

>  <SCORE>
-15.3085

>  <SCORE.INTER>
-17.0038

>  <SCORE.INTER.CONST>
1

>  <SCORE.INTER.POLAR>
0

>  <SCORE.INTER.ROT>
8

>  <SCORE.INTER.SOLV>
23.2055

>  <SCORE.INTER.VDW>
-28.0044

>  <SCORE.INTER.norm>
-0.62977

>  <SCORE.INTRA>
1.69486

>  <SCORE.INTRA.DIHEDRAL>
1.76912

>  <SCORE.INTRA.DIHEDRAL.0>
7.82666

>  <SCORE.INTRA.POLAR>
0

>  <SCORE.INTRA.POLAR.0>
0

>  <SCORE.INTRA.REPUL>
0

>  <SCORE.INTRA.REPUL.0>
0

>  <SCORE.INTRA.SOLV>
0.674433

>  <SCORE.INTRA.SOLV.lig_0>
-83.2758

>  <SCORE.INTRA.VDW>
0.473088

>  <SCORE.INTRA.VDW.0>
-3.26816

>  <SCORE.INTRA.norm>
0.0627727

>  <SCORE.RESTR>
0.000419605

>  <SCORE.RESTR.CAVITY>
0.000419605

>  <SCORE.RESTR.norm>
1.55409e-05

>  <SCORE.SYSTEM>
0

>  <SCORE.SYSTEM.CONST>
0

>  <SCORE.SYSTEM.DIHEDRAL>
0

>  <SCORE.SYSTEM.SOLV>
0

>  <SCORE.SYSTEM.norm>
0

>  <SCORE.heavy>
27

>  <SCORE.norm>
-0.566982

>  <RMSD>
6.145

$$$$
ligand
 OpenBabel11021811473D
libRbt.so/2013.1/901 2013/11/27
 27 28  0  0  0  0  0  0  0  0999 V2000
   -8.6821   40.2871   -4.8201 C   0  0  0  0  0  0  0  0  0  0  0  0
   -3.8191   45.1698   -7.8253 C   0  0  0  0  0  0  0  0  0  0  0  0
   -4.2124   45.7984  -10.7280 C   0  0  0  0  0  0  0  0  0  0  0  0
   -3.6636   44.3751  -10.8452 C   0  0  0  0  0  0  0  0  0  0  0  0
   -4.3126   43.6683  -11.9052 O   0  0  0  0  0  0  0  0  0  0  0  0
   -5.7443   42.9842  -11.6564 P   0  0  1  0  0  0  0  0  0  0  0  0
   -5.0357   40.4686  -12.7175 P   0  0  2  0  0  0  0  0  0  0  0  0
   -7.7121   46.2649   -9.3191 C   0  0  0  0  0  0  0  0  0  0  0  0
   -7.3950   41.8095   -6.3077 N   0  0  0  0  0  0  0  0  0  0  0  0
   -5.8577   42.4085  -10.1655 O   0  5  0  0  0  0  0  0  0  0  0  0
   -5.1208   39.6653  -13.9545 O   0  0  0  0  0  0  0  0  0  0  0  0
   -7.5520   45.9781   -7.9699 C   0  0  0  0  0  0  0  0  0  0  0  0
   -8.0092   41.6249   -5.1289 C   0  0  0  0  0  0  0  0  0  0  0  0
   -6.9773   44.0109  -11.8540 O   0  0  0  0  0  0  0  0  0  0  0  0
   -5.4404   39.6064  -11.4258 O   0  5  0  0  0  0  0  0  0  0  0  0
   -6.2911   45.6272   -7.4852 N   0  0  0  0  0  0  0  0  0  0  0  0
   -8.0391   42.6055   -4.2148 N   0  0  0  0  0  0  0  0  0  0  0  0
   -5.9727   41.7651  -12.7092 O   0  0  0  0  0  0  0  0  0  0  0  0
   -3.5385   40.9501  -12.4523 O   0  0  0  0  0  0  0  0  0  0  0  0
   -5.2027   45.5598   -8.3633 C   0  0  1  0  0  0  0  0  0  0  0  0
   -7.4552   43.7836   -4.4668 C   0  0  0  0  0  0  0  0  0  0  0  0
   -7.4898   44.7475   -3.5523 N   0  0  0  0  0  0  0  0  0  0  0  0
   -5.3644   45.8483   -9.7174 C   0  0  1  0  0  0  0  0  0  0  0  0
   -6.8109   43.9990   -5.6790 C   0  0  0  0  0  0  0  0  0  0  0  0
   -6.6258   46.1988  -10.1830 C   0  0  0  0  0  0  0  0  0  0  0  0
   -6.8052   42.9569   -6.5990 C   0  0  0  0  0  0  0  0  0  0  0  0
   -6.1193   45.3184   -6.0461 C   0  0  0  0  0  0  0  0  0  0  0  0
  1 13  1  0  0  0  0
  3  4  1  0  0  0  0
  4  5  1  0  0  0  0
  6  5  1  6  0  0  0
  6 10  1  0  0  0  0
  6 14  2  0  0  0  0
  6 18  1  0  0  0  0
  7 11  1  6  0  0  0
  7 15  1  0  0  0  0
  7 19  2  0  0  0  0
  7 18  1  0  0  0  0
  8 25  1  0  0  0  0
  8 12  1  0  0  0  0
  9 26  2  0  0  0  0
  9 13  1  0  0  0  0
 12 16  1  0  0  0  0
 13 17  2  0  0  0  0
 16 20  1  0  0  0  0
 16 27  1  0  0  0  0
 17 21  1  0  0  0  0
 20  2  1  1  0  0  0
 20 23  1  0  0  0  0
 21 22  1  0  0  0  0
 21 24  2  0  0  0  0
 23  3  1  1  0  0  0
 23 25  1  0  0  0  0
 24 27  1  0  0  0  0
 24 26  1  0  0  0  0
M  CHG  2  10  -1  15  -1
M  END
>  <CHROM.1>
92.59942345,-82.02510804,-35.15345810,63.18657138,-162.99389221,63.41264129
-143.70669486,69.38643981,-6.00164681,43.20234469,-9.25296987,2.44247174
1.17324635,0.44358852

>  <Name>
ligand

>  <RI>
0

>  <Rbt.Current_Directory>
/home/itssahil/PROJECTS/Mol_Feturizer/New_Systems/rnas/3D2V

>  <Rbt.Executable>
rbdock ($Id: //depot/dev/client3/rdock/2013.1/src/exe/rbdock.cxx#4 $)

>  <Rbt.Library>
libRbt.so (2013.1, Build901 2013/11/27)

>  <Rbt.Parameter_File>
/export/apps/rDock/src/rDock_2013.1_src/data/scripts/dock_solv.prm

>  <Rbt.Receptor>
prm/pocket_docking_6.prm

>  <SCORE>
-12.7292

>  <SCORE.INTER>
-15.6864

>  <SCORE.INTER.CONST>
1

>  <SCORE.INTER.POLAR>
0

>  <SCORE.INTER.ROT>
8

>  <SCORE.INTER.SOLV>
17.8106

>  <SCORE.INTER.VDW>
-25.3278

>  <SCORE.INTER.norm>
-0.580978

>  <SCORE.INTRA>
2.95725

>  <SCORE.INTRA.DIHEDRAL>
3.96018

>  <SCORE.INTRA.DIHEDRAL.0>
7.82666

>  <SCORE.INTRA.POLAR>
0

>  <SCORE.INTRA.POLAR.0>
0

>  <SCORE.INTRA.REPUL>
0

>  <SCORE.INTRA.REPUL.0>
0

>  <SCORE.INTRA.SOLV>
3.49477

>  <SCORE.INTRA.SOLV.lig_0>
-83.2758

>  <SCORE.INTRA.VDW>
-0.770227

>  <SCORE.INTRA.VDW.0>
-3.26816

>  <SCORE.INTRA.norm>
0.109528

>  <SCORE.RESTR>
0

>  <SCORE.RESTR.CAVITY>
0

>  <SCORE.RESTR.norm>
0

>  <SCORE.SYSTEM>
0

>  <SCORE.SYSTEM.CONST>
0

>  <SCORE.SYSTEM.DIHEDRAL>
0

>  <SCORE.SYSTEM.SOLV>
0

>  <SCORE.SYSTEM.norm>
0

>  <SCORE.heavy>
27

>  <SCORE.norm>
-0.47145

>  <RMSD>
6.151

$$$$
ligand
 OpenBabel11021811473D
libRbt.so/2013.1/901 2013/11/27
 27 28  0  0  0  0  0  0  0  0999 V2000
   -6.3380   35.8934  -10.0805 C   0  0  0  0  0  0  0  0  0  0  0  0
   -3.8895   41.9747   -8.5321 C   0  0  0  0  0  0  0  0  0  0  0  0
   -3.4114   43.9744  -10.7112 C   0  0  0  0  0  0  0  0  0  0  0  0
   -3.0924   45.3410  -10.1018 C   0  0  0  0  0  0  0  0  0  0  0  0
   -3.4078   45.3592   -8.7074 O   0  0  0  0  0  0  0  0  0  0  0  0
   -3.0854   46.6638   -7.8276 P   0  0  1  0  0  0  0  0  0  0  0  0
   -5.3929   46.7449   -6.2073 P   0  0  2  0  0  0  0  0  0  0  0  0
   -7.2033   43.7078  -10.6772 C   0  0  0  0  0  0  0  0  0  0  0  0
   -5.6840   38.2922  -10.0072 N   0  0  0  0  0  0  0  0  0  0  0  0
   -1.5080   46.8334   -7.6034 O   0  5  0  0  0  0  0  0  0  0  0  0
   -5.9140   48.0153   -6.7523 O   0  0  0  0  0  0  0  0  0  0  0  0
   -7.4475   42.7832   -9.6704 C   0  0  0  0  0  0  0  0  0  0  0  0
   -6.4287   37.3017   -9.4921 C   0  0  0  0  0  0  0  0  0  0  0  0
   -3.6079   48.0319   -8.5124 O   0  0  0  0  0  0  0  0  0  0  0  0
   -5.7020   46.6055   -4.6387 O   0  5  0  0  0  0  0  0  0  0  0  0
   -6.3752   42.2248   -8.9732 N   0  0  0  0  0  0  0  0  0  0  0  0
   -7.2552   37.5350   -8.4623 N   0  0  0  0  0  0  0  0  0  0  0  0
   -3.8136   46.5547   -6.3770 O   0  0  0  0  0  0  0  0  0  0  0  0
   -6.1086   45.4947   -6.8920 O   0  0  0  0  0  0  0  0  0  0  0  0
   -5.0651   42.5949   -9.2999 C   0  0  1  0  0  0  0  0  0  0  0  0
   -7.3480   38.7614   -7.9334 C   0  0  0  0  0  0  0  0  0  0  0  0
   -8.1693   38.9801   -6.9116 N   0  0  0  0  0  0  0  0  0  0  0  0
   -4.8210   43.5234  -10.3104 C   0  0  1  0  0  0  0  0  0  0  0  0
   -6.5858   39.8035   -8.4473 C   0  0  0  0  0  0  0  0  0  0  0  0
   -5.9000   44.0721  -10.9928 C   0  0  0  0  0  0  0  0  0  0  0  0
   -5.7437   39.5187   -9.5161 C   0  0  0  0  0  0  0  0  0  0  0  0
   -6.6342   41.2361   -7.9003 C   0  0  0  0  0  0  0  0  0  0  0  0
  1 13  1  0  0  0  0
  3  4  1  0  0  0  0
  4  5  1  0  0  0  0
  6  5  1  6  0  0  0
  6 10  1  0  0  0  0
  6 14  2  0  0  0  0
  6 18  1  0  0  0  0
  7 11  1  6  0  0  0
  7 15  1  0  0  0  0
  7 19  2  0  0  0  0
  7 18  1  0  0  0  0
  8 25  1  0  0  0  0
  8 12  1  0  0  0  0
  9 26  2  0  0  0  0
  9 13  1  0  0  0  0
 12 16  1  0  0  0  0
 13 17  2  0  0  0  0
 16 20  1  0  0  0  0
 16 27  1  0  0  0  0
 17 21  1  0  0  0  0
 20  2  1  1  0  0  0
 20 23  1  0  0  0  0
 21 22  1  0  0  0  0
 21 24  2  0  0  0  0
 23  3  1  1  0  0  0
 23 25  1  0  0  0  0
 24 27  1  0  0  0  0
 24 26  1  0  0  0  0
M  CHG  2  10  -1  15  -1
M  END
>  <CHROM.1>
48.72496747,176.69311277,-71.25549541,-73.57342598,-54.79523951,-101.12808841
-148.78052477,92.97477853,-5.23068270,43.37606728,-8.35459471,-2.00628114
0.82391158,0.53795375

>  <Name>
ligand

>  <RI>
0

>  <Rbt.Current_Directory>
/home/itssahil/PROJECTS/Mol_Feturizer/New_Systems/rnas/3D2V

>  <Rbt.Executable>
rbdock ($Id: //depot/dev/client3/rdock/2013.1/src/exe/rbdock.cxx#4 $)

>  <Rbt.Library>
libRbt.so (2013.1, Build901 2013/11/27)

>  <Rbt.Parameter_File>
/export/apps/rDock/src/rDock_2013.1_src/data/scripts/dock_solv.prm

>  <Rbt.Receptor>
prm/pocket_docking_8.prm

>  <SCORE>
-10.8348

>  <SCORE.INTER>
-8.477

>  <SCORE.INTER.CONST>
1

>  <SCORE.INTER.POLAR>
0

>  <SCORE.INTER.ROT>
8

>  <SCORE.INTER.SOLV>
10.104

>  <SCORE.INTER.VDW>
-17.9527

>  <SCORE.INTER.norm>
-0.313963

>  <SCORE.INTRA>
-2.35784

>  <SCORE.INTRA.DIHEDRAL>
-1.59711

>  <SCORE.INTRA.DIHEDRAL.0>
7.82666

>  <SCORE.INTRA.POLAR>
0

>  <SCORE.INTRA.POLAR.0>
0

>  <SCORE.INTRA.REPUL>
0

>  <SCORE.INTRA.REPUL.0>
0

>  <SCORE.INTRA.SOLV>
-1.43597

>  <SCORE.INTRA.SOLV.lig_0>
-83.2758

>  <SCORE.INTRA.VDW>
-0.841295

>  <SCORE.INTRA.VDW.0>
-3.26816

>  <SCORE.INTRA.norm>
-0.0873272

>  <SCORE.RESTR>
0

>  <SCORE.RESTR.CAVITY>
0

>  <SCORE.RESTR.norm>
0

>  <SCORE.SYSTEM>
0

>  <SCORE.SYSTEM.CONST>
0

>  <SCORE.SYSTEM.DIHEDRAL>
0

>  <SCORE.SYSTEM.SOLV>
0

>  <SCORE.SYSTEM.norm>
0

>  <SCORE.heavy>
27

>  <SCORE.norm>
-0.40129

>  <RMSD>
6.159

$$$$
ligand
 OpenBabel11021811463D
libRbt.so/2013.1/901 2013/11/27
 27 28  0  0  0  0  0  0  0  0999 V2000
   -2.4509   44.8101   -3.4215 C   0  0  0  0  0  0  0  0  0  0  0  0
   -7.4673   40.5653   -6.9194 C   0  0  0  0  0  0  0  0  0  0  0  0
   -6.3803   38.2467   -8.4745 C   0  0  0  0  0  0  0  0  0  0  0  0
   -6.2144   36.7661   -8.8222 C   0  0  0  0  0  0  0  0  0  0  0  0
   -6.9108   36.4489  -10.0299 O   0  0  0  0  0  0  0  0  0  0  0  0
   -6.3089   36.9041  -11.4479 P   0  0  1  0  0  0  0  0  0  0  0  0
   -5.3322   39.2402  -12.6908 P   0  0  2  0  0  0  0  0  0  0  0  0
   -4.7309   37.7873   -5.0805 C   0  0  0  0  0  0  0  0  0  0  0  0
   -3.2746   42.5308   -3.9813 N   0  0  0  0  0  0  0  0  0  0  0  0
   -4.9999   36.0574  -11.8178 O   0  5  0  0  0  0  0  0  0  0  0  0
   -4.3770   38.4400  -13.4843 O   0  0  0  0  0  0  0  0  0  0  0  0
   -5.2232   38.8548   -4.3413 C   0  0  0  0  0  0  0  0  0  0  0  0
   -3.5704   43.7857   -3.6089 C   0  0  0  0  0  0  0  0  0  0  0  0
   -7.3508   36.7074  -12.6682 O   0  0  0  0  0  0  0  0  0  0  0  0
   -4.6610   40.5943  -12.1507 O   0  5  0  0  0  0  0  0  0  0  0  0
   -6.1119   39.7521   -4.9350 N   0  0  0  0  0  0  0  0  0  0  0  0
   -4.8429   44.1523   -3.3985 N   0  0  0  0  0  0  0  0  0  0  0  0
   -5.9199   38.4833  -11.4099 O   0  0  0  0  0  0  0  0  0  0  0  0
   -6.5661   39.7081  -13.5866 O   0  0  0  0  0  0  0  0  0  0  0  0
   -6.4923   39.5731   -6.2705 C   0  0  1  0  0  0  0  0  0  0  0  0
   -5.8368   43.2696   -3.5578 C   0  0  0  0  0  0  0  0  0  0  0  0
   -7.0943   43.6451   -3.3482 N   0  0  0  0  0  0  0  0  0  0  0  0
   -5.9980   38.5010   -7.0116 C   0  0  1  0  0  0  0  0  0  0  0  0
   -5.5569   41.9647   -3.9451 C   0  0  0  0  0  0  0  0  0  0  0  0
   -5.1163   37.6151   -6.4044 C   0  0  0  0  0  0  0  0  0  0  0  0
   -4.2244   41.6261   -4.1506 C   0  0  0  0  0  0  0  0  0  0  0  0
   -6.6360   40.8932   -4.1482 C   0  0  0  0  0  0  0  0  0  0  0  0
  1 13  1  0  0  0  0
  3  4  1  0  0  0  0
  4  5  1  0  0  0  0
  6  5  1  1  0  0  0
  6 10  1  0  0  0  0
  6 14  2  0  0  0  0
  6 18  1  0  0  0  0
  7 11  1  6  0  0  0
  7 15  1  0  0  0  0
  7 19  2  0  0  0  0
  7 18  1  0  0  0  0
  8 25  1  0  0  0  0
  8 12  1  0  0  0  0
  9 26  2  0  0  0  0
  9 13  1  0  0  0  0
 12 16  1  0  0  0  0
 13 17  2  0  0  0  0
 16 20  1  0  0  0  0
 16 27  1  0  0  0  0
 17 21  1  0  0  0  0
 20  2  1  1  0  0  0
 20 23  1  0  0  0  0
 21 22  1  0  0  0  0
 21 24  2  0  0  0  0
 23  3  1  1  0  0  0
 23 25  1  0  0  0  0
 24 27  1  0  0  0  0
 24 26  1  0  0  0  0
M  CHG  2  10  -1  15  -1
M  END
>  <CHROM.1>
163.56411952,74.96682356,70.78533453,-178.29339794,-39.02751216,-155.22358512
162.89294730,73.32019904,-5.58763614,39.66837278,-8.08978776,-1.27019637
-1.20948039,-1.80459093

>  <Name>
ligand

>  <RI>
0

>  <Rbt.Current_Directory>
/home/itssahil/PROJECTS/Mol_Feturizer/New_Systems/rnas/3D2V

>  <Rbt.Executable>
rbdock ($Id: //depot/dev/client3/rdock/2013.1/src/exe/rbdock.cxx#4 $)

>  <Rbt.Library>
libRbt.so (2013.1, Build901 2013/11/27)

>  <Rbt.Parameter_File>
/export/apps/rDock/src/rDock_2013.1_src/data/scripts/dock_solv.prm

>  <Rbt.Receptor>
prm/blind_docking_60.prm

>  <SCORE>
-6.7598

>  <SCORE.INTER>
-8.18105

>  <SCORE.INTER.CONST>
1

>  <SCORE.INTER.POLAR>
0

>  <SCORE.INTER.ROT>
8

>  <SCORE.INTER.SOLV>
28.2617

>  <SCORE.INTER.VDW>
-23.8079

>  <SCORE.INTER.norm>
-0.303002

>  <SCORE.INTRA>
1.42125

>  <SCORE.INTRA.DIHEDRAL>
0.180227

>  <SCORE.INTRA.DIHEDRAL.0>
7.82666

>  <SCORE.INTRA.POLAR>
0

>  <SCORE.INTRA.POLAR.0>
0

>  <SCORE.INTRA.REPUL>
0

>  <SCORE.INTRA.REPUL.0>
0

>  <SCORE.INTRA.SOLV>
-0.649942

>  <SCORE.INTRA.SOLV.lig_0>
-83.2758

>  <SCORE.INTRA.VDW>
1.65611

>  <SCORE.INTRA.VDW.0>
-3.26816

>  <SCORE.INTRA.norm>
0.052639

>  <SCORE.RESTR>
0

>  <SCORE.RESTR.CAVITY>
0

>  <SCORE.RESTR.norm>
0

>  <SCORE.SYSTEM>
0

>  <SCORE.SYSTEM.CONST>
0

>  <SCORE.SYSTEM.DIHEDRAL>
0

>  <SCORE.SYSTEM.SOLV>
0

>  <SCORE.SYSTEM.norm>
0

>  <SCORE.heavy>
27

>  <SCORE.norm>
-0.250363

>  <RMSD>
6.237

$$$$
ligand
 OpenBabel11021811463D
libRbt.so/2013.1/901 2013/11/27
 27 28  0  0  0  0  0  0  0  0999 V2000
  -12.7340   37.4465   -1.6550 C   0  0  0  0  0  0  0  0  0  0  0  0
   -6.6343   37.4530   -4.8538 C   0  0  0  0  0  0  0  0  0  0  0  0
   -6.5237   36.6854   -7.7476 C   0  0  0  0  0  0  0  0  0  0  0  0
   -7.4649   35.7724   -8.5356 C   0  0  0  0  0  0  0  0  0  0  0  0
   -7.5253   36.1707   -9.9074 O   0  0  0  0  0  0  0  0  0  0  0  0
   -6.5764   35.4620  -10.9925 P   0  0  1  0  0  0  0  0  0  0  0  0
   -4.2099   33.9272  -11.0172 P   0  0  2  0  0  0  0  0  0  0  0  0
   -8.5999   39.8686   -7.8351 C   0  0  0  0  0  0  0  0  0  0  0  0
  -11.4611   38.3057   -3.6118 N   0  0  0  0  0  0  0  0  0  0  0  0
   -7.3141   34.2158  -11.6781 O   0  5  0  0  0  0  0  0  0  0  0  0
   -2.8451   33.9043  -10.4520 O   0  0  0  0  0  0  0  0  0  0  0  0
   -8.6633   40.2430   -6.4995 C   0  0  0  0  0  0  0  0  0  0  0  0
  -11.4983   38.0867   -2.2883 C   0  0  0  0  0  0  0  0  0  0  0  0
   -6.1329   36.4558  -12.1881 O   0  0  0  0  0  0  0  0  0  0  0  0
   -4.1992   34.3431  -12.5673 O   0  5  0  0  0  0  0  0  0  0  0  0
   -8.0240   39.4634   -5.5345 N   0  0  0  0  0  0  0  0  0  0  0  0
  -10.4586   38.4248   -1.5119 N   0  0  0  0  0  0  0  0  0  0  0  0
   -5.2092   34.9382  -10.2834 O   0  0  0  0  0  0  0  0  0  0  0  0
   -4.8695   32.4757  -10.9736 O   0  0  0  0  0  0  0  0  0  0  0  0
   -7.3326   38.3086   -5.9199 C   0  0  1  0  0  0  0  0  0  0  0  0
   -9.3678   38.9861   -2.0482 C   0  0  0  0  0  0  0  0  0  0  0  0
   -8.3428   39.3153   -1.2688 N   0  0  0  0  0  0  0  0  0  0  0  0
   -7.2691   37.9339   -7.2610 C   0  0  2  0  0  0  0  0  0  0  0  0
   -9.3038   39.2212   -3.4162 C   0  0  0  0  0  0  0  0  0  0  0  0
   -7.9086   38.7228   -8.2094 C   0  0  0  0  0  0  0  0  0  0  0  0
  -10.4041   38.8575   -4.1840 C   0  0  0  0  0  0  0  0  0  0  0  0
   -8.0930   39.8604   -4.1085 C   0  0  0  0  0  0  0  0  0  0  0  0
  1 13  1  0  0  0  0
  3  4  1  0  0  0  0
  4  5  1  0  0  0  0
  6  5  1  1  0  0  0
  6 10  1  0  0  0  0
  6 14  2  0  0  0  0
  6 18  1  0  0  0  0
  7 11  1  1  0  0  0
  7 15  1  0  0  0  0
  7 19  2  0  0  0  0
  7 18  1  0  0  0  0
  8 25  1  0  0  0  0
  8 12  1  0  0  0  0
  9 26  2  0  0  0  0
  9 13  1  0  0  0  0
 12 16  1  0  0  0  0
 13 17  2  0  0  0  0
 16 20  1  0  0  0  0
 16 27  1  0  0  0  0
 17 21  1  0  0  0  0
 20  2  1  6  0  0  0
 20 23  1  0  0  0  0
 21 22  1  0  0  0  0
 21 24  2  0  0  0  0
 23  3  1  1  0  0  0
 23 25  1  0  0  0  0
 24 27  1  0  0  0  0
 24 26  1  0  0  0  0
M  CHG  2  10  -1  15  -1
M  END
>  <CHROM.1>
85.62499069,95.01241736,92.34687316,166.75077330,160.79653444,123.81856491
155.07850476,90.38815519,-7.42490727,36.84732282,-7.44454472,-2.47830014
0.94168089,-1.25174411

>  <Name>
ligand

>  <RI>
0

>  <Rbt.Current_Directory>
/home/itssahil/PROJECTS/Mol_Feturizer/New_Systems/rnas/3D2V

>  <Rbt.Executable>
rbdock ($Id: //depot/dev/client3/rdock/2013.1/src/exe/rbdock.cxx#4 $)

>  <Rbt.Library>
libRbt.so (2013.1, Build901 2013/11/27)

>  <Rbt.Parameter_File>
/export/apps/rDock/src/rDock_2013.1_src/data/scripts/dock_solv.prm

>  <Rbt.Receptor>
prm/blind_docking_100.prm

>  <SCORE>
-14.3401

>  <SCORE.INTER>
-18.2046

>  <SCORE.INTER.CONST>
1

>  <SCORE.INTER.POLAR>
0

>  <SCORE.INTER.ROT>
8

>  <SCORE.INTER.SOLV>
20.4475

>  <SCORE.INTER.VDW>
-27.8855

>  <SCORE.INTER.norm>
-0.674243

>  <SCORE.INTRA>
3.86442

>  <SCORE.INTRA.DIHEDRAL>
6.13759

>  <SCORE.INTRA.DIHEDRAL.0>
7.82666

>  <SCORE.INTRA.POLAR>
0

>  <SCORE.INTRA.POLAR.0>
0

>  <SCORE.INTRA.REPUL>
0

>  <SCORE.INTRA.REPUL.0>
0

>  <SCORE.INTRA.SOLV>
1.82502

>  <SCORE.INTRA.SOLV.lig_0>
-83.2758

>  <SCORE.INTRA.VDW>
-0.116882

>  <SCORE.INTRA.VDW.0>
-3.26816

>  <SCORE.INTRA.norm>
0.143127

>  <SCORE.RESTR>
0

>  <SCORE.RESTR.CAVITY>
0

>  <SCORE.RESTR.norm>
0

>  <SCORE.SYSTEM>
0

>  <SCORE.SYSTEM.CONST>
0

>  <SCORE.SYSTEM.DIHEDRAL>
0

>  <SCORE.SYSTEM.SOLV>
0

>  <SCORE.SYSTEM.norm>
0

>  <SCORE.heavy>
27

>  <SCORE.norm>
-0.531117

>  <RMSD>
6.280

$$$$
ligand
 OpenBabel11021811473D
libRbt.so/2013.1/901 2013/11/27
 27 28  0  0  0  0  0  0  0  0999 V2000
   -5.8710   35.0120  -12.0394 C   0  0  0  0  0  0  0  0  0  0  0  0
   -8.3069   40.2021   -6.3972 C   0  0  0  0  0  0  0  0  0  0  0  0
   -7.4530   39.5924   -3.5911 C   0  0  0  0  0  0  0  0  0  0  0  0
   -7.2744   41.0372   -3.1207 C   0  0  0  0  0  0  0  0  0  0  0  0
   -7.8482   41.9497   -4.0600 O   0  0  0  0  0  0  0  0  0  0  0  0
   -7.5228   43.5193   -3.9571 P   0  0  1  0  0  0  0  0  0  0  0  0
   -6.3605   45.4410   -5.6637 P   0  0  2  0  0  0  0  0  0  0  0  0
   -4.4407   38.4620   -5.6157 C   0  0  0  0  0  0  0  0  0  0  0  0
   -5.6771   37.4384  -11.5270 N   0  0  0  0  0  0  0  0  0  0  0  0
   -8.8508   44.3971   -4.1386 O   0  5  0  0  0  0  0  0  0  0  0  0
   -7.5380   45.8689   -6.4466 O   0  0  0  0  0  0  0  0  0  0  0  0
   -4.8162   38.7372   -6.9239 C   0  0  0  0  0  0  0  0  0  0  0  0
   -6.0363   36.2145  -11.1096 C   0  0  0  0  0  0  0  0  0  0  0  0
   -6.8785   43.9384   -2.5349 O   0  0  0  0  0  0  0  0  0  0  0  0
   -5.0138   45.5212   -6.5330 O   0  5  0  0  0  0  0  0  0  0  0  0
   -6.0662   39.3040   -7.1771 N   0  0  0  0  0  0  0  0  0  0  0  0
   -6.5409   36.0343   -9.8804 N   0  0  0  0  0  0  0  0  0  0  0  0
   -6.4506   43.9450   -5.1042 O   0  0  0  0  0  0  0  0  0  0  0  0
   -6.1194   46.4105   -4.4204 O   0  0  0  0  0  0  0  0  0  0  0  0
   -6.9320   39.5821   -6.1126 C   0  0  1  0  0  0  0  0  0  0  0  0
   -6.6929   37.0749   -9.0519 C   0  0  0  0  0  0  0  0  0  0  0  0
   -7.1924   36.8835   -7.8353 N   0  0  0  0  0  0  0  0  0  0  0  0
   -6.5539   39.3059   -4.7996 C   0  0  1  0  0  0  0  0  0  0  0  0
   -6.3264   38.3518   -9.4595 C   0  0  0  0  0  0  0  0  0  0  0  0
   -5.3048   38.7443   -4.5648 C   0  0  0  0  0  0  0  0  0  0  0  0
   -5.8096   38.4945  -10.7420 C   0  0  0  0  0  0  0  0  0  0  0  0
   -6.4692   39.5957   -8.5729 C   0  0  0  0  0  0  0  0  0  0  0  0
  1 13  1  0  0  0  0
  3  4  1  0  0  0  0
  4  5  1  0  0  0  0
  6  5  1  6  0  0  0
  6 10  1  0  0  0  0
  6 14  2  0  0  0  0
  6 18  1  0  0  0  0
  7 11  1  6  0  0  0
  7 15  1  0  0  0  0
  7 19  2  0  0  0  0
  7 18  1  0  0  0  0
  8 25  1  0  0  0  0
  8 12  1  0  0  0  0
  9 26  2  0  0  0  0
  9 13  1  0  0  0  0
 12 16  1  0  0  0  0
 13 17  2  0  0  0  0
 16 20  1  0  0  0  0
 16 27  1  0  0  0  0
 17 21  1  0  0  0  0
 20  2  1  1  0  0  0
 20 23  1  0  0  0  0
 21 22  1  0  0  0  0
 21 24  2  0  0  0  0
 23  3  1  1  0  0  0
 23 25  1  0  0  0  0
 24 27  1  0  0  0  0
 24 26  1  0  0  0  0
M  CHG  2  10  -1  15  -1
M  END
>  <CHROM.1>
70.86187367,-167.01336690,-135.53909730,154.75183401,-67.72975991,-85.81865874
41.47400046,53.23553935,-6.61120477,40.96493569,-6.46675575,-1.09679200,1.37286727
0.13939888

>  <Name>
ligand

>  <RI>
0

>  <Rbt.Current_Directory>
/home/itssahil/PROJECTS/Mol_Feturizer/New_Systems/rnas/3D2V

>  <Rbt.Executable>
rbdock ($Id: //depot/dev/client3/rdock/2013.1/src/exe/rbdock.cxx#4 $)

>  <Rbt.Library>
libRbt.so (2013.1, Build901 2013/11/27)

>  <Rbt.Parameter_File>
/export/apps/rDock/src/rDock_2013.1_src/data/scripts/dock_solv.prm

>  <Rbt.Receptor>
prm/pocket_docking_8.prm

>  <SCORE>
-10.2266

>  <SCORE.INTER>
-12.0631

>  <SCORE.INTER.CONST>
1

>  <SCORE.INTER.POLAR>
0

>  <SCORE.INTER.ROT>
8

>  <SCORE.INTER.SOLV>
13.8827

>  <SCORE.INTER.VDW>
-21.6029

>  <SCORE.INTER.norm>
-0.44678

>  <SCORE.INTRA>
1.83646

>  <SCORE.INTRA.DIHEDRAL>
1.57257

>  <SCORE.INTRA.DIHEDRAL.0>
7.82666

>  <SCORE.INTRA.POLAR>
0

>  <SCORE.INTRA.POLAR.0>
0

>  <SCORE.INTRA.REPUL>
0

>  <SCORE.INTRA.REPUL.0>
0

>  <SCORE.INTRA.SOLV>
3.0248

>  <SCORE.INTRA.SOLV.lig_0>
-83.2758

>  <SCORE.INTRA.VDW>
-0.46223

>  <SCORE.INTRA.VDW.0>
-3.26816

>  <SCORE.INTRA.norm>
0.0680169

>  <SCORE.RESTR>
0

>  <SCORE.RESTR.CAVITY>
0

>  <SCORE.RESTR.norm>
0

>  <SCORE.SYSTEM>
0

>  <SCORE.SYSTEM.CONST>
0

>  <SCORE.SYSTEM.DIHEDRAL>
0

>  <SCORE.SYSTEM.SOLV>
0

>  <SCORE.SYSTEM.norm>
0

>  <SCORE.heavy>
27

>  <SCORE.norm>
-0.378763

>  <RMSD>
6.303

$$$$
ligand
 OpenBabel11021811473D
libRbt.so/2013.1/901 2013/11/27
 27 28  0  0  0  0  0  0  0  0999 V2000
   -5.4208   32.2101   -7.8206 C   0  0  0  0  0  0  0  0  0  0  0  0
   -8.9423   39.9772   -7.2082 C   0  0  0  0  0  0  0  0  0  0  0  0
   -7.0679   42.1829   -7.9807 C   0  0  0  0  0  0  0  0  0  0  0  0
   -6.8004   42.4488   -6.4981 C   0  0  0  0  0  0  0  0  0  0  0  0
   -7.1054   43.8051   -6.1642 O   0  0  0  0  0  0  0  0  0  0  0  0
   -7.1868   44.2548   -4.6243 P   0  0  1  0  0  0  0  0  0  0  0  0
   -8.6312   46.0654   -3.0143 P   0  0  2  0  0  0  0  0  0  0  0  0
   -5.3065   39.1075   -9.3557 C   0  0  0  0  0  0  0  0  0  0  0  0
   -6.5446   34.0881   -9.0026 N   0  0  0  0  0  0  0  0  0  0  0  0
   -7.6189   43.0292   -3.6872 O   0  5  0  0  0  0  0  0  0  0  0  0
   -9.0627   45.0614   -2.0202 O   0  0  0  0  0  0  0  0  0  0  0  0
   -6.1615   38.0700   -9.0080 C   0  0  0  0  0  0  0  0  0  0  0  0
   -6.1699   33.5429   -7.8350 C   0  0  0  0  0  0  0  0  0  0  0  0
   -5.7783   44.8044   -4.0520 O   0  0  0  0  0  0  0  0  0  0  0  0
   -9.7651   47.1735   -3.2635 O   0  5  0  0  0  0  0  0  0  0  0  0
   -7.3404   38.3515   -8.3161 N   0  0  0  0  0  0  0  0  0  0  0  0
   -6.4467   34.1574   -6.6758 N   0  0  0  0  0  0  0  0  0  0  0  0
   -8.2684   45.4573   -4.4488 O   0  0  0  0  0  0  0  0  0  0  0  0
   -7.3581   46.8729   -2.4935 O   0  0  0  0  0  0  0  0  0  0  0  0
   -7.6460   39.6739   -7.9723 C   0  0  1  0  0  0  0  0  0  0  0  0
   -7.1015   35.3251   -6.6682 C   0  0  0  0  0  0  0  0  0  0  0  0
   -7.3685   35.9256   -5.5130 N   0  0  0  0  0  0  0  0  0  0  0  0
   -6.7873   40.7147   -8.3223 C   0  0  2  0  0  0  0  0  0  0  0  0
   -7.4982   35.9114   -7.8639 C   0  0  0  0  0  0  0  0  0  0  0  0
   -5.6192   40.4174   -9.0135 C   0  0  0  0  0  0  0  0  0  0  0  0
   -7.1931   35.2401   -9.0424 C   0  0  0  0  0  0  0  0  0  0  0  0
   -8.2525   37.2451   -7.9421 C   0  0  0  0  0  0  0  0  0  0  0  0
  1 13  1  0  0  0  0
  3  4  1  0  0  0  0
  4  5  1  0  0  0  0
  6  5  1  6  0  0  0
  6 10  1  0  0  0  0
  6 14  2  0  0  0  0
  6 18  1  0  0  0  0
  7 11  1  1  0  0  0
  7 15  1  0  0  0  0
  7 19  2  0  0  0  0
  7 18  1  0  0  0  0
  8 25  1  0  0  0  0
  8 12  1  0  0  0  0
  9 26  2  0  0  0  0
  9 13  1  0  0  0  0
 12 16  1  0  0  0  0
 13 17  2  0  0  0  0
 16 20  1  0  0  0  0
 16 27  1  0  0  0  0
 17 21  1  0  0  0  0
 20  2  1  6  0  0  0
 20 23  1  0  0  0  0
 21 22  1  0  0  0  0
 21 24  2  0  0  0  0
 23  3  1  1  0  0  0
 23 25  1  0  0  0  0
 24 27  1  0  0  0  0
 24 26  1  0  0  0  0
M  CHG  2  10  -1  15  -1
M  END
>  <CHROM.1>
-177.96663294,167.89756881,-28.20907944,176.62430791,-54.17922873,75.44136391
101.73854625,23.65140551,-7.30802792,40.72830471,-6.11916189,1.14661158,-1.25973213
3.13948733

>  <Name>
ligand

>  <RI>
0

>  <Rbt.Current_Directory>
/home/itssahil/PROJECTS/Mol_Feturizer/New_Systems/rnas/3D2V

>  <Rbt.Executable>
rbdock ($Id: //depot/dev/client3/rdock/2013.1/src/exe/rbdock.cxx#4 $)

>  <Rbt.Library>
libRbt.so (2013.1, Build901 2013/11/27)

>  <Rbt.Parameter_File>
/export/apps/rDock/src/rDock_2013.1_src/data/scripts/dock_solv.prm

>  <Rbt.Receptor>
prm/pocket_docking_8.prm

>  <SCORE>
-14.1196

>  <SCORE.INTER>
-14.3632

>  <SCORE.INTER.CONST>
1

>  <SCORE.INTER.POLAR>
0

>  <SCORE.INTER.ROT>
8

>  <SCORE.INTER.SOLV>
18.2671

>  <SCORE.INTER.VDW>
-24.5978

>  <SCORE.INTER.norm>
-0.53197

>  <SCORE.INTRA>
0.243598

>  <SCORE.INTRA.DIHEDRAL>
-0.538477

>  <SCORE.INTRA.DIHEDRAL.0>
7.82666

>  <SCORE.INTRA.POLAR>
0

>  <SCORE.INTRA.POLAR.0>
0

>  <SCORE.INTRA.REPUL>
0

>  <SCORE.INTRA.REPUL.0>
0

>  <SCORE.INTRA.SOLV>
-0.341293

>  <SCORE.INTRA.SOLV.lig_0>
-83.2758

>  <SCORE.INTRA.VDW>
0.683483

>  <SCORE.INTRA.VDW.0>
-3.26816

>  <SCORE.INTRA.norm>
0.00902214

>  <SCORE.RESTR>
0

>  <SCORE.RESTR.CAVITY>
0

>  <SCORE.RESTR.norm>
0

>  <SCORE.SYSTEM>
0

>  <SCORE.SYSTEM.CONST>
0

>  <SCORE.SYSTEM.DIHEDRAL>
0

>  <SCORE.SYSTEM.SOLV>
0

>  <SCORE.SYSTEM.norm>
0

>  <SCORE.heavy>
27

>  <SCORE.norm>
-0.522948

>  <RMSD>
6.321

$$$$
ligand
 OpenBabel11021811473D
libRbt.so/2013.1/901 2013/11/27
 27 28  0  0  0  0  0  0  0  0999 V2000
   -7.0287   35.8167   -9.0822 C   0  0  0  0  0  0  0  0  0  0  0  0
   -5.9961   42.9905   -7.7551 C   0  0  0  0  0  0  0  0  0  0  0  0
   -7.7109   44.9235   -9.2710 C   0  0  0  0  0  0  0  0  0  0  0  0
   -7.0661   46.2991   -9.4517 C   0  0  0  0  0  0  0  0  0  0  0  0
   -5.7976   46.3535   -8.7944 O   0  0  0  0  0  0  0  0  0  0  0  0
   -5.7260   46.4913   -7.1957 P   0  0  1  0  0  0  0  0  0  0  0  0
   -4.0608   45.6819   -5.0677 P   0  0  2  0  0  0  0  0  0  0  0  0
   -6.2075   42.8200  -12.0577 C   0  0  0  0  0  0  0  0  0  0  0  0
   -6.0735   37.7739  -10.2839 N   0  0  0  0  0  0  0  0  0  0  0  0
   -5.7377   48.0297   -6.7479 O   0  5  0  0  0  0  0  0  0  0  0  0
   -5.1031   44.9808   -4.2901 O   0  0  0  0  0  0  0  0  0  0  0  0
   -5.4068   41.9140  -11.3748 C   0  0  0  0  0  0  0  0  0  0  0  0
   -6.3557   37.1894   -9.1094 C   0  0  0  0  0  0  0  0  0  0  0  0
   -6.9675   45.7784   -6.4446 O   0  0  0  0  0  0  0  0  0  0  0  0
   -3.8422   47.1823   -4.5418 O   0  5  0  0  0  0  0  0  0  0  0  0
   -5.3410   41.9664   -9.9817 N   0  0  0  0  0  0  0  0  0  0  0  0
   -6.0525   37.7991   -7.9542 N   0  0  0  0  0  0  0  0  0  0  0  0
   -4.3697   45.7907   -6.6335 O   0  0  0  0  0  0  0  0  0  0  0  0
   -2.6459   44.9650   -4.9008 O   0  0  0  0  0  0  0  0  0  0  0  0
   -6.0751   42.9352   -9.2870 C   0  0  1  0  0  0  0  0  0  0  0  0
   -5.4629   39.0010   -7.9578 C   0  0  0  0  0  0  0  0  0  0  0  0
   -5.1654   39.5947   -6.8065 N   0  0  0  0  0  0  0  0  0  0  0  0
   -6.8789   43.8440   -9.9734 C   0  0  1  0  0  0  0  0  0  0  0  0
   -5.1582   39.6263   -9.1608 C   0  0  0  0  0  0  0  0  0  0  0  0
   -6.9354   43.7761  -11.3601 C   0  0  0  0  0  0  0  0  0  0  0  0
   -5.4915   38.9604  -10.3347 C   0  0  0  0  0  0  0  0  0  0  0  0
   -4.4850   41.0019   -9.2519 C   0  0  0  0  0  0  0  0  0  0  0  0
  1 13  1  0  0  0  0
  3  4  1  0  0  0  0
  4  5  1  0  0  0  0
  6  5  1  6  0  0  0
  6 10  1  0  0  0  0
  6 14  2  0  0  0  0
  6 18  1  0  0  0  0
  7 11  1  1  0  0  0
  7 15  1  0  0  0  0
  7 19  2  0  0  0  0
  7 18  1  0  0  0  0
  8 25  1  0  0  0  0
  8 12  1  0  0  0  0
  9 26  2  0  0  0  0
  9 13  1  0  0  0  0
 12 16  1  0  0  0  0
 13 17  2  0  0  0  0
 16 20  1  0  0  0  0
 16 27  1  0  0  0  0
 17 21  1  0  0  0  0
 20  2  1  1  0  0  0
 20 23  1  0  0  0  0
 21 22  1  0  0  0  0
 21 24  2  0  0  0  0
 23  3  1  1  0  0  0
 23 25  1  0  0  0  0
 24 27  1  0  0  0  0
 24 26  1  0  0  0  0
M  CHG  2  10  -1  15  -1
M  END
>  <CHROM.1>
-65.15749650,-75.79944621,-88.46131131,-175.99133894,57.18951649,105.51798083
-120.44542640,-77.70230030,-5.57215411,43.17056908,-8.00056827,-1.85159711
-1.14991809,0.13382418

>  <Name>
ligand

>  <RI>
0

>  <Rbt.Current_Directory>
/home/itssahil/PROJECTS/Mol_Feturizer/New_Systems/rnas/3D2V

>  <Rbt.Executable>
rbdock ($Id: //depot/dev/client3/rdock/2013.1/src/exe/rbdock.cxx#4 $)

>  <Rbt.Library>
libRbt.so (2013.1, Build901 2013/11/27)

>  <Rbt.Parameter_File>
/export/apps/rDock/src/rDock_2013.1_src/data/scripts/dock_solv.prm

>  <Rbt.Receptor>
prm/pocket_docking_6.prm

>  <SCORE>
-13.7472

>  <SCORE.INTER>
-14.0548

>  <SCORE.INTER.CONST>
1

>  <SCORE.INTER.POLAR>
0

>  <SCORE.INTER.ROT>
8

>  <SCORE.INTER.SOLV>
12.3184

>  <SCORE.INTER.VDW>
-22.4094

>  <SCORE.INTER.norm>
-0.520549

>  <SCORE.INTRA>
0.307644

>  <SCORE.INTRA.DIHEDRAL>
-0.20629

>  <SCORE.INTRA.DIHEDRAL.0>
7.82666

>  <SCORE.INTRA.POLAR>
0

>  <SCORE.INTRA.POLAR.0>
0

>  <SCORE.INTRA.REPUL>
0

>  <SCORE.INTRA.REPUL.0>
0

>  <SCORE.INTRA.SOLV>
3.05104

>  <SCORE.INTRA.SOLV.lig_0>
-83.2758

>  <SCORE.INTRA.VDW>
-1.11473

>  <SCORE.INTRA.VDW.0>
-3.26816

>  <SCORE.INTRA.norm>
0.0113942

>  <SCORE.RESTR>
0

>  <SCORE.RESTR.CAVITY>
0

>  <SCORE.RESTR.norm>
0

>  <SCORE.SYSTEM>
0

>  <SCORE.SYSTEM.CONST>
0

>  <SCORE.SYSTEM.DIHEDRAL>
0

>  <SCORE.SYSTEM.SOLV>
0

>  <SCORE.SYSTEM.norm>
0

>  <SCORE.heavy>
27

>  <SCORE.norm>
-0.509154

>  <RMSD>
6.343

$$$$
ligand
 OpenBabel11021811473D
libRbt.so/2013.1/901 2013/11/27
 27 28  0  0  0  0  0  0  0  0999 V2000
   -4.6951   37.0819   -5.0570 C   0  0  0  0  0  0  0  0  0  0  0  0
   -2.4769   43.1405   -5.7605 C   0  0  0  0  0  0  0  0  0  0  0  0
    0.0578   43.7145   -7.2509 C   0  0  0  0  0  0  0  0  0  0  0  0
    0.4769   45.1331   -7.6415 C   0  0  0  0  0  0  0  0  0  0  0  0
   -0.4151   46.0976   -7.0773 O   0  0  0  0  0  0  0  0  0  0  0  0
   -0.3078   46.4771   -5.5202 P   0  0  1  0  0  0  0  0  0  0  0  0
   -3.0324   47.1851   -5.3422 P   0  0  2  0  0  0  0  0  0  0  0  0
   -2.3626   42.8854  -10.0626 C   0  0  0  0  0  0  0  0  0  0  0  0
   -4.5263   38.6991   -6.9394 N   0  0  0  0  0  0  0  0  0  0  0  0
   -0.4369   45.1732   -4.5982 O   0  5  0  0  0  0  0  0  0  0  0  0
   -3.4791   45.9316   -4.7006 O   0  0  0  0  0  0  0  0  0  0  0  0
   -3.5481   42.6159   -9.3917 C   0  0  0  0  0  0  0  0  0  0  0  0
   -4.7402   38.4989   -5.6297 C   0  0  0  0  0  0  0  0  0  0  0  0
    1.0964   47.1809   -5.1374 O   0  0  0  0  0  0  0  0  0  0  0  0
   -3.2641   47.1498   -6.9299 O   0  5  0  0  0  0  0  0  0  0  0  0
   -3.5865   42.7020   -7.9993 N   0  0  0  0  0  0  0  0  0  0  0  0
   -4.9942   39.5328   -4.8146 N   0  0  0  0  0  0  0  0  0  0  0  0
   -1.4855   47.5246   -5.1170 O   0  0  0  0  0  0  0  0  0  0  0  0
   -3.8833   48.4283   -4.8184 O   0  0  0  0  0  0  0  0  0  0  0  0
   -2.4297   43.0508   -7.2921 C   0  0  1  0  0  0  0  0  0  0  0  0
   -5.0375   40.7807   -5.2975 C   0  0  0  0  0  0  0  0  0  0  0  0
   -5.2883   41.7977   -4.4795 N   0  0  0  0  0  0  0  0  0  0  0  0
   -1.2402   43.3217   -7.9665 C   0  0  1  0  0  0  0  0  0  0  0  0
   -4.8171   41.0147   -6.6494 C   0  0  0  0  0  0  0  0  0  0  0  0
   -1.2199   43.2343   -9.3531 C   0  0  0  0  0  0  0  0  0  0  0  0
   -4.5593   39.9147   -7.4594 C   0  0  0  0  0  0  0  0  0  0  0  0
   -4.8503   42.4121   -7.2819 C   0  0  0  0  0  0  0  0  0  0  0  0
  1 13  1  0  0  0  0
  3  4  1  0  0  0  0
  4  5  1  0  0  0  0
  6  5  1  6  0  0  0
  6 10  1  0  0  0  0
  6 14  2  0  0  0  0
  6 18  1  0  0  0  0
  7 11  1  1  0  0  0
  7 15  1  0  0  0  0
  7 19  2  0  0  0  0
  7 18  1  0  0  0  0
  8 25  1  0  0  0  0
  8 12  1  0  0  0  0
  9 26  2  0  0  0  0
  9 13  1  0  0  0  0
 12 16  1  0  0  0  0
 13 17  2  0  0  0  0
 16 20  1  0  0  0  0
 16 27  1  0  0  0  0
 17 21  1  0  0  0  0
 20  2  1  6  0  0  0
 20 23  1  0  0  0  0
 21 22  1  0  0  0  0
 21 24  2  0  0  0  0
 23  3  1  6  0  0  0
 23 25  1  0  0  0  0
 24 27  1  0  0  0  0
 24 26  1  0  0  0  0
M  CHG  2  10  -1  15  -1
M  END
>  <CHROM.1>
70.31454160,76.63942111,-55.98487899,57.09819485,55.59610262,-116.17787720
124.50852319,102.59337129,-2.63063710,43.81855280,-6.32238446,2.16430712
-0.71813061,-2.64584271

>  <Name>
ligand

>  <RI>
0

>  <Rbt.Current_Directory>
/home/itssahil/PROJECTS/Mol_Feturizer/New_Systems/rnas/3D2V

>  <Rbt.Executable>
rbdock ($Id: //depot/dev/client3/rdock/2013.1/src/exe/rbdock.cxx#4 $)

>  <Rbt.Library>
libRbt.so (2013.1, Build901 2013/11/27)

>  <Rbt.Parameter_File>
/export/apps/rDock/src/rDock_2013.1_src/data/scripts/dock_solv.prm

>  <Rbt.Receptor>
prm/pocket_docking_7.prm

>  <SCORE>
-11.5656

>  <SCORE.INTER>
-10.76

>  <SCORE.INTER.CONST>
1

>  <SCORE.INTER.POLAR>
0

>  <SCORE.INTER.ROT>
8

>  <SCORE.INTER.SOLV>
13.0816

>  <SCORE.INTER.VDW>
-20.4672

>  <SCORE.INTER.norm>
-0.39852

>  <SCORE.INTRA>
-0.805532

>  <SCORE.INTRA.DIHEDRAL>
-0.919888

>  <SCORE.INTRA.DIHEDRAL.0>
7.82666

>  <SCORE.INTRA.POLAR>
0

>  <SCORE.INTRA.POLAR.0>
0

>  <SCORE.INTRA.REPUL>
0

>  <SCORE.INTRA.REPUL.0>
0

>  <SCORE.INTRA.SOLV>
2.2594

>  <SCORE.INTRA.SOLV.lig_0>
-83.2758

>  <SCORE.INTRA.VDW>
-1.47529

>  <SCORE.INTRA.VDW.0>
-3.26816

>  <SCORE.INTRA.norm>
-0.0298345

>  <SCORE.RESTR>
0

>  <SCORE.RESTR.CAVITY>
0

>  <SCORE.RESTR.norm>
0

>  <SCORE.SYSTEM>
0

>  <SCORE.SYSTEM.CONST>
0

>  <SCORE.SYSTEM.DIHEDRAL>
0

>  <SCORE.SYSTEM.SOLV>
0

>  <SCORE.SYSTEM.norm>
0

>  <SCORE.heavy>
27

>  <SCORE.norm>
-0.428354

>  <RMSD>
6.379

$$$$
ligand
 OpenBabel11021811463D
libRbt.so/2013.1/901 2013/11/27
 27 28  0  0  0  0  0  0  0  0999 V2000
   -6.2860   40.0050    0.2649 C   0  0  0  0  0  0  0  0  0  0  0  0
   -7.5191   36.8496   -5.3821 C   0  0  0  0  0  0  0  0  0  0  0  0
   -6.2544   37.7687   -7.9377 C   0  0  0  0  0  0  0  0  0  0  0  0
   -6.8116   36.9969   -9.1354 C   0  0  0  0  0  0  0  0  0  0  0  0
   -5.8000   36.1745   -9.7224 O   0  0  0  0  0  0  0  0  0  0  0  0
   -5.8201   35.8796  -11.3012 P   0  0  1  0  0  0  0  0  0  0  0  0
   -4.1921   34.6620  -13.2566 P   0  0  2  0  0  0  0  0  0  0  0  0
   -8.7955   40.5138   -7.2610 C   0  0  0  0  0  0  0  0  0  0  0  0
   -6.7083   39.6522   -2.1609 N   0  0  0  0  0  0  0  0  0  0  0  0
   -7.1069   35.0173  -11.7108 O   0  5  0  0  0  0  0  0  0  0  0  0
   -4.0072   35.8125  -14.1646 O   0  0  0  0  0  0  0  0  0  0  0  0
   -9.3948   40.1067   -6.0764 C   0  0  0  0  0  0  0  0  0  0  0  0
   -7.1813   39.5988   -0.9062 C   0  0  0  0  0  0  0  0  0  0  0  0
   -5.8587   37.2265  -12.1944 O   0  0  0  0  0  0  0  0  0  0  0  0
   -5.4161   33.7342  -13.7223 O   0  5  0  0  0  0  0  0  0  0  0  0
   -8.9793   38.9225   -5.4659 N   0  0  0  0  0  0  0  0  0  0  0  0
   -8.4363   39.1913   -0.6675 N   0  0  0  0  0  0  0  0  0  0  0  0
   -4.4811   35.0641  -11.7354 O   0  0  0  0  0  0  0  0  0  0  0  0
   -2.9114   33.7116  -13.2724 O   0  0  0  0  0  0  0  0  0  0  0  0
   -7.9696   38.1529   -6.0562 C   0  0  1  0  0  0  0  0  0  0  0  0
   -9.2352   38.8320   -1.6799 C   0  0  0  0  0  0  0  0  0  0  0  0
  -10.4779   38.4316   -1.4311 N   0  0  0  0  0  0  0  0  0  0  0  0
   -7.3683   38.5628   -7.2451 C   0  0  2  0  0  0  0  0  0  0  0  0
   -8.7699   38.8806   -2.9883 C   0  0  0  0  0  0  0  0  0  0  0  0
   -7.7917   39.7458   -7.8384 C   0  0  0  0  0  0  0  0  0  0  0  0
   -7.4624   39.3068   -3.1911 C   0  0  0  0  0  0  0  0  0  0  0  0
   -9.6197   38.4854   -4.2031 C   0  0  0  0  0  0  0  0  0  0  0  0
  1 13  1  0  0  0  0
  3  4  1  0  0  0  0
  4  5  1  0  0  0  0
  6  5  1  1  0  0  0
  6 10  1  0  0  0  0
  6 14  2  0  0  0  0
  6 18  1  0  0  0  0
  7 11  1  6  0  0  0
  7 15  1  0  0  0  0
  7 19  2  0  0  0  0
  7 18  1  0  0  0  0
  8 25  1  0  0  0  0
  8 12  1  0  0  0  0
  9 26  2  0  0  0  0
  9 13  1  0  0  0  0
 12 16  1  0  0  0  0
 13 17  2  0  0  0  0
 16 20  1  0  0  0  0
 16 27  1  0  0  0  0
 17 21  1  0  0  0  0
 20  2  1  1  0  0  0
 20 23  1  0  0  0  0
 21 22  1  0  0  0  0
 21 24  2  0  0  0  0
 23  3  1  6  0  0  0
 23 25  1  0  0  0  0
 24 27  1  0  0  0  0
 24 26  1  0  0  0  0
M  CHG  2  10  -1  15  -1
M  END
>  <CHROM.1>
-175.53491867,-148.38451711,-65.58026687,-178.15511579,63.87720912,102.58257681
167.22107115,-98.15312092,-6.77260455,37.32830248,-7.74207063,-1.92366678
0.52965994,-1.77016284

>  <Name>
ligand

>  <RI>
0

>  <Rbt.Current_Directory>
/home/itssahil/PROJECTS/Mol_Feturizer/New_Systems/rnas/3D2V

>  <Rbt.Executable>
rbdock ($Id: //depot/dev/client3/rdock/2013.1/src/exe/rbdock.cxx#4 $)

>  <Rbt.Library>
libRbt.so (2013.1, Build901 2013/11/27)

>  <Rbt.Parameter_File>
/export/apps/rDock/src/rDock_2013.1_src/data/scripts/dock_solv.prm

>  <Rbt.Receptor>
prm/blind_docking_100.prm

>  <SCORE>
-14.4444

>  <SCORE.INTER>
-15.0802

>  <SCORE.INTER.CONST>
1

>  <SCORE.INTER.POLAR>
0

>  <SCORE.INTER.ROT>
8

>  <SCORE.INTER.SOLV>
28.7829

>  <SCORE.INTER.VDW>
-28.5811

>  <SCORE.INTER.norm>
-0.558527

>  <SCORE.INTRA>
0.635819

>  <SCORE.INTRA.DIHEDRAL>
1.43068

>  <SCORE.INTRA.DIHEDRAL.0>
7.82666

>  <SCORE.INTRA.POLAR>
0

>  <SCORE.INTRA.POLAR.0>
0

>  <SCORE.INTRA.REPUL>
0

>  <SCORE.INTRA.REPUL.0>
0

>  <SCORE.INTRA.SOLV>
-0.376241

>  <SCORE.INTRA.SOLV.lig_0>
-83.2758

>  <SCORE.INTRA.VDW>
0.108601

>  <SCORE.INTRA.VDW.0>
-3.26816

>  <SCORE.INTRA.norm>
0.0235489

>  <SCORE.RESTR>
0

>  <SCORE.RESTR.CAVITY>
0

>  <SCORE.RESTR.norm>
0

>  <SCORE.SYSTEM>
0

>  <SCORE.SYSTEM.CONST>
0

>  <SCORE.SYSTEM.DIHEDRAL>
0

>  <SCORE.SYSTEM.SOLV>
0

>  <SCORE.SYSTEM.norm>
0

>  <SCORE.heavy>
27

>  <SCORE.norm>
-0.534978

>  <RMSD>
6.414

$$$$
ligand
 OpenBabel11021811473D
libRbt.so/2013.1/901 2013/11/27
 27 28  0  0  0  0  0  0  0  0999 V2000
   -7.8846   41.6659   -4.2480 C   0  0  0  0  0  0  0  0  0  0  0  0
   -7.6729   45.6210   -9.1816 C   0  0  0  0  0  0  0  0  0  0  0  0
   -6.2554   44.9038  -11.7216 C   0  0  0  0  0  0  0  0  0  0  0  0
   -6.3458   43.3770  -11.7601 C   0  0  0  0  0  0  0  0  0  0  0  0
   -5.0508   42.7978  -11.9379 O   0  0  0  0  0  0  0  0  0  0  0  0
   -4.8956   41.2056  -12.0825 P   0  0  1  0  0  0  0  0  0  0  0  0
   -4.6322   40.9831   -9.2830 P   0  0  2  0  0  0  0  0  0  0  0  0
   -3.3755   45.8578   -9.4310 C   0  0  0  0  0  0  0  0  0  0  0  0
   -6.9317   42.8996   -6.1863 N   0  0  0  0  0  0  0  0  0  0  0  0
   -5.8700   40.6316  -13.2175 O   0  5  0  0  0  0  0  0  0  0  0  0
   -4.3378   39.9024   -8.3198 O   0  0  0  0  0  0  0  0  0  0  0  0
   -4.0123   46.1943   -8.2438 C   0  0  0  0  0  0  0  0  0  0  0  0
   -7.4127   42.9481   -4.9344 C   0  0  0  0  0  0  0  0  0  0  0  0
   -3.3965   40.7514  -12.4826 O   0  0  0  0  0  0  0  0  0  0  0  0
   -5.6773   42.0415   -8.6801 O   0  5  0  0  0  0  0  0  0  0  0  0
   -5.4031   46.1142   -8.1615 N   0  0  0  0  0  0  0  0  0  0  0  0
   -7.4844   44.1142   -4.2763 N   0  0  0  0  0  0  0  0  0  0  0  0
   -5.2476   40.4783  -10.6706 O   0  0  0  0  0  0  0  0  0  0  0  0
   -3.3192   41.8264   -9.6126 O   0  0  0  0  0  0  0  0  0  0  0  0
   -6.1432   45.7038   -9.2769 C   0  0  1  0  0  0  0  0  0  0  0  0
   -7.0758   45.2473   -4.8606 C   0  0  0  0  0  0  0  0  0  0  0  0
   -7.1499   46.3968   -4.1976 N   0  0  0  0  0  0  0  0  0  0  0  0
   -5.5030   45.3658  -10.4681 C   0  0  1  0  0  0  0  0  0  0  0  0
   -6.5716   45.2234   -6.1552 C   0  0  0  0  0  0  0  0  0  0  0  0
   -4.1174   45.4483  -10.5322 C   0  0  0  0  0  0  0  0  0  0  0  0
   -6.5168   43.9941   -6.8020 C   0  0  0  0  0  0  0  0  0  0  0  0
   -6.0842   46.4755   -6.8960 C   0  0  0  0  0  0  0  0  0  0  0  0
  1 13  1  0  0  0  0
  3  4  1  0  0  0  0
  4  5  1  0  0  0  0
  6  5  1  1  0  0  0
  6 10  1  0  0  0  0
  6 14  2  0  0  0  0
  6 18  1  0  0  0  0
  7 11  1  1  0  0  0
  7 15  1  0  0  0  0
  7 19  2  0  0  0  0
  7 18  1  0  0  0  0
  8 25  1  0  0  0  0
  8 12  1  0  0  0  0
  9 26  2  0  0  0  0
  9 13  1  0  0  0  0
 12 16  1  0  0  0  0
 13 17  2  0  0  0  0
 16 20  1  0  0  0  0
 16 27  1  0  0  0  0
 17 21  1  0  0  0  0
 20  2  1  1  0  0  0
 20 23  1  0  0  0  0
 21 22  1  0  0  0  0
 21 24  2  0  0  0  0
 23  3  1  1  0  0  0
 23 25  1  0  0  0  0
 24 27  1  0  0  0  0
 24 26  1  0  0  0  0
M  CHG  2  10  -1  15  -1
M  END
>  <CHROM.1>
-66.82791121,-176.97712540,51.95106805,-47.77578001,-144.81835332,-93.28716004
170.75215006,-105.31623670,-5.61778687,43.27865749,-8.91564523,2.83001721
1.25691338,-0.17716612

>  <Name>
ligand

>  <RI>
0

>  <Rbt.Current_Directory>
/home/itssahil/PROJECTS/Mol_Feturizer/New_Systems/rnas/3D2V

>  <Rbt.Executable>
rbdock ($Id: //depot/dev/client3/rdock/2013.1/src/exe/rbdock.cxx#4 $)

>  <Rbt.Library>
libRbt.so (2013.1, Build901 2013/11/27)

>  <Rbt.Parameter_File>
/export/apps/rDock/src/rDock_2013.1_src/data/scripts/dock_solv.prm

>  <Rbt.Receptor>
prm/pocket_docking_5.prm

>  <SCORE>
-14.7934

>  <SCORE.INTER>
-14.1176

>  <SCORE.INTER.CONST>
1

>  <SCORE.INTER.POLAR>
0

>  <SCORE.INTER.ROT>
8

>  <SCORE.INTER.SOLV>
17.2789

>  <SCORE.INTER.VDW>
-24.1047

>  <SCORE.INTER.norm>
-0.522874

>  <SCORE.INTRA>
-0.675827

>  <SCORE.INTRA.DIHEDRAL>
-0.552878

>  <SCORE.INTRA.DIHEDRAL.0>
7.82666

>  <SCORE.INTRA.POLAR>
0

>  <SCORE.INTRA.POLAR.0>
0

>  <SCORE.INTRA.REPUL>
0

>  <SCORE.INTRA.REPUL.0>
0

>  <SCORE.INTRA.SOLV>
1.76008

>  <SCORE.INTRA.SOLV.lig_0>
-83.2758

>  <SCORE.INTRA.VDW>
-1.27943

>  <SCORE.INTRA.VDW.0>
-3.26816

>  <SCORE.INTRA.norm>
-0.0250306

>  <SCORE.RESTR>
0

>  <SCORE.RESTR.CAVITY>
0

>  <SCORE.RESTR.norm>
0

>  <SCORE.SYSTEM>
0

>  <SCORE.SYSTEM.CONST>
0

>  <SCORE.SYSTEM.DIHEDRAL>
0

>  <SCORE.SYSTEM.SOLV>
0

>  <SCORE.SYSTEM.norm>
0

>  <SCORE.heavy>
27

>  <SCORE.norm>
-0.547904

>  <RMSD>
6.454

$$$$
ligand
 OpenBabel11021811473D
libRbt.so/2013.1/901 2013/11/27
 27 28  0  0  0  0  0  0  0  0999 V2000
   -4.7928   37.9781   -5.3656 C   0  0  0  0  0  0  0  0  0  0  0  0
   -3.2291   43.3900  -10.8532 C   0  0  0  0  0  0  0  0  0  0  0  0
   -4.4574   46.0807  -10.3770 C   0  0  0  0  0  0  0  0  0  0  0  0
   -4.6404   47.0583   -9.2145 C   0  0  0  0  0  0  0  0  0  0  0  0
   -4.1434   46.4961   -7.9975 O   0  0  0  0  0  0  0  0  0  0  0  0
   -2.5619   46.3150   -7.7830 P   0  0  1  0  0  0  0  0  0  0  0  0
   -0.7641   44.1796   -8.1884 P   0  0  2  0  0  0  0  0  0  0  0  0
   -7.2583   43.7219   -9.3560 C   0  0  0  0  0  0  0  0  0  0  0  0
   -4.1844   39.9552   -6.7470 N   0  0  0  0  0  0  0  0  0  0  0  0
   -1.7648   47.6324   -8.2260 O   0  5  0  0  0  0  0  0  0  0  0  0
    0.4336   44.9723   -7.8421 O   0  0  0  0  0  0  0  0  0  0  0  0
   -6.7081   42.4649   -9.5690 C   0  0  0  0  0  0  0  0  0  0  0  0
   -4.8079   38.7691   -6.6741 C   0  0  0  0  0  0  0  0  0  0  0  0
   -2.1629   46.0251   -6.2434 O   0  0  0  0  0  0  0  0  0  0  0  0
   -0.4625   43.1445   -9.3772 O   0  5  0  0  0  0  0  0  0  0  0  0
   -5.4025   42.3570  -10.0501 N   0  0  0  0  0  0  0  0  0  0  0  0
   -5.4468   38.2680   -7.7412 N   0  0  0  0  0  0  0  0  0  0  0  0
   -2.0193   45.0541   -8.6561 O   0  0  0  0  0  0  0  0  0  0  0  0
   -1.2302   43.2824   -6.9548 O   0  0  0  0  0  0  0  0  0  0  0  0
   -4.6633   43.5147  -10.3208 C   0  0  1  0  0  0  0  0  0  0  0  0
   -5.4712   38.9460   -8.8953 C   0  0  0  0  0  0  0  0  0  0  0  0
   -6.1093   38.4401   -9.9457 N   0  0  0  0  0  0  0  0  0  0  0  0
   -5.2163   44.7761  -10.1062 C   0  0  1  0  0  0  0  0  0  0  0  0
   -4.8352   40.1774   -8.9959 C   0  0  0  0  0  0  0  0  0  0  0  0
   -6.5164   44.8659   -9.6241 C   0  0  0  0  0  0  0  0  0  0  0  0
   -4.1831   40.6591   -7.8666 C   0  0  0  0  0  0  0  0  0  0  0  0
   -4.8151   41.0162  -10.2804 C   0  0  0  0  0  0  0  0  0  0  0  0
  1 13  1  0  0  0  0
  3  4  1  0  0  0  0
  4  5  1  0  0  0  0
  6  5  1  6  0  0  0
  6 10  1  0  0  0  0
  6 14  2  0  0  0  0
  6 18  1  0  0  0  0
  7 11  1  1  0  0  0
  7 15  1  0  0  0  0
  7 19  2  0  0  0  0
  7 18  1  0  0  0  0
  8 25  1  0  0  0  0
  8 12  1  0  0  0  0
  9 26  2  0  0  0  0
  9 13  1  0  0  0  0
 12 16  1  0  0  0  0
 13 17  2  0  0  0  0
 16 20  1  0  0  0  0
 16 27  1  0  0  0  0
 17 21  1  0  0  0  0
 20  2  1  1  0  0  0
 20 23  1  0  0  0  0
 21 22  1  0  0  0  0
 21 24  2  0  0  0  0
 23  3  1  1  0  0  0
 23 25  1  0  0  0  0
 24 27  1  0  0  0  0
 24 26  1  0  0  0  0
M  CHG  2  10  -1  15  -1
M  END
>  <CHROM.1>
60.09524203,70.86827296,45.52347812,-150.15927019,-50.83758261,-134.65345419
121.86307639,-57.46261936,-3.63943041,43.24481576,-8.53949225,-2.07253149
-0.48811646,-0.26749451

>  <Name>
ligand

>  <RI>
0

>  <Rbt.Current_Directory>
/home/itssahil/PROJECTS/Mol_Feturizer/New_Systems/rnas/3D2V

>  <Rbt.Executable>
rbdock ($Id: //depot/dev/client3/rdock/2013.1/src/exe/rbdock.cxx#4 $)

>  <Rbt.Library>
libRbt.so (2013.1, Build901 2013/11/27)

>  <Rbt.Parameter_File>
/export/apps/rDock/src/rDock_2013.1_src/data/scripts/dock_solv.prm

>  <Rbt.Receptor>
prm/pocket_docking_6.prm

>  <SCORE>
-12.7263

>  <SCORE.INTER>
-12.5797

>  <SCORE.INTER.CONST>
1

>  <SCORE.INTER.POLAR>
0

>  <SCORE.INTER.ROT>
8

>  <SCORE.INTER.SOLV>
19.9613

>  <SCORE.INTER.VDW>
-23.9736

>  <SCORE.INTER.norm>
-0.465916

>  <SCORE.INTRA>
-0.146521

>  <SCORE.INTRA.DIHEDRAL>
-0.401813

>  <SCORE.INTRA.DIHEDRAL.0>
7.82666

>  <SCORE.INTRA.POLAR>
0

>  <SCORE.INTRA.POLAR.0>
0

>  <SCORE.INTRA.REPUL>
0

>  <SCORE.INTRA.REPUL.0>
0

>  <SCORE.INTRA.SOLV>
1.13242

>  <SCORE.INTRA.SOLV.lig_0>
-83.2758

>  <SCORE.INTRA.VDW>
-0.511823

>  <SCORE.INTRA.VDW.0>
-3.26816

>  <SCORE.INTRA.norm>
-0.0054267

>  <SCORE.RESTR>
0

>  <SCORE.RESTR.CAVITY>
0

>  <SCORE.RESTR.norm>
0

>  <SCORE.SYSTEM>
0

>  <SCORE.SYSTEM.CONST>
0

>  <SCORE.SYSTEM.DIHEDRAL>
0

>  <SCORE.SYSTEM.SOLV>
0

>  <SCORE.SYSTEM.norm>
0

>  <SCORE.heavy>
27

>  <SCORE.norm>
-0.471343

>  <RMSD>
6.462

$$$$
ligand
 OpenBabel11021811473D
libRbt.so/2013.1/901 2013/11/27
 27 28  0  0  0  0  0  0  0  0999 V2000
   -4.8874   39.7542  -13.1348 C   0  0  0  0  0  0  0  0  0  0  0  0
   -6.0781   38.7668   -5.5242 C   0  0  0  0  0  0  0  0  0  0  0  0
   -8.1380   40.5676   -4.3039 C   0  0  0  0  0  0  0  0  0  0  0  0
   -7.1455   41.7235   -4.4429 C   0  0  0  0  0  0  0  0  0  0  0  0
   -7.5203   42.5855   -5.5202 O   0  0  0  0  0  0  0  0  0  0  0  0
   -6.5291   43.7573   -5.9940 P   0  0  1  0  0  0  0  0  0  0  0  0
   -6.6626   43.0189   -8.7130 P   0  0  2  0  0  0  0  0  0  0  0  0
   -9.8082   39.5146   -7.5524 C   0  0  0  0  0  0  0  0  0  0  0  0
   -5.2814   39.8739  -10.6817 N   0  0  0  0  0  0  0  0  0  0  0  0
   -6.7382   45.0806   -5.1152 O   0  5  0  0  0  0  0  0  0  0  0  0
   -5.2767   42.5830   -8.9807 O   0  0  0  0  0  0  0  0  0  0  0  0
   -8.8675   38.6761   -8.1357 C   0  0  0  0  0  0  0  0  0  0  0  0
   -5.3601   39.1529  -11.8108 C   0  0  0  0  0  0  0  0  0  0  0  0
   -4.9687   43.3547   -5.8650 O   0  0  0  0  0  0  0  0  0  0  0  0
   -7.3453   43.6497  -10.0214 O   0  5  0  0  0  0  0  0  0  0  0  0
   -7.6615   38.4307   -7.4777 N   0  0  0  0  0  0  0  0  0  0  0  0
   -5.8512   37.9053  -11.7903 N   0  0  0  0  0  0  0  0  0  0  0  0
   -6.7953   44.1176   -7.5579 O   0  0  0  0  0  0  0  0  0  0  0  0
   -7.5828   41.7794   -8.3119 O   0  0  0  0  0  0  0  0  0  0  0  0
   -7.4078   39.0374   -6.2416 C   0  0  1  0  0  0  0  0  0  0  0  0
   -6.2698   37.3616  -10.6407 C   0  0  0  0  0  0  0  0  0  0  0  0
   -6.7528   36.1235  -10.6324 N   0  0  0  0  0  0  0  0  0  0  0  0
   -8.3529   39.8787   -5.6568 C   0  0  1  0  0  0  0  0  0  0  0  0
   -6.1967   38.0866   -9.4575 C   0  0  0  0  0  0  0  0  0  0  0  0
   -9.5497   40.1100   -6.3238 C   0  0  0  0  0  0  0  0  0  0  0  0
   -5.6831   39.3768   -9.5238 C   0  0  0  0  0  0  0  0  0  0  0  0
   -6.6556   37.5382   -8.1001 C   0  0  0  0  0  0  0  0  0  0  0  0
  1 13  1  0  0  0  0
  3  4  1  0  0  0  0
  4  5  1  0  0  0  0
  6  5  1  1  0  0  0
  6 10  1  0  0  0  0
  6 14  2  0  0  0  0
  6 18  1  0  0  0  0
  7 11  1  6  0  0  0
  7 15  1  0  0  0  0
  7 19  2  0  0  0  0
  7 18  1  0  0  0  0
  8 25  1  0  0  0  0
  8 12  1  0  0  0  0
  9 26  2  0  0  0  0
  9 13  1  0  0  0  0
 12 16  1  0  0  0  0
 13 17  2  0  0  0  0
 16 20  1  0  0  0  0
 16 27  1  0  0  0  0
 17 21  1  0  0  0  0
 20  2  1  1  0  0  0
 20 23  1  0  0  0  0
 21 22  1  0  0  0  0
 21 24  2  0  0  0  0
 23  3  1  1  0  0  0
 23 25  1  0  0  0  0
 24 27  1  0  0  0  0
 24 26  1  0  0  0  0
M  CHG  2  10  -1  15  -1
M  END
>  <CHROM.1>
50.71882938,-171.67158996,-85.64340846,-58.30914593,-70.20267971,74.21535216
-124.24302593,60.52656670,-6.79958923,40.83495149,-7.96566027,-1.29273060
1.15422119,0.50961939

>  <Name>
ligand

>  <RI>
0

>  <Rbt.Current_Directory>
/home/itssahil/PROJECTS/Mol_Feturizer/New_Systems/rnas/3D2V

>  <Rbt.Executable>
rbdock ($Id: //depot/dev/client3/rdock/2013.1/src/exe/rbdock.cxx#4 $)

>  <Rbt.Library>
libRbt.so (2013.1, Build901 2013/11/27)

>  <Rbt.Parameter_File>
/export/apps/rDock/src/rDock_2013.1_src/data/scripts/dock_solv.prm

>  <Rbt.Receptor>
prm/pocket_docking_8.prm

>  <SCORE>
-18.1213

>  <SCORE.INTER>
-15.6961

>  <SCORE.INTER.CONST>
1

>  <SCORE.INTER.POLAR>
0

>  <SCORE.INTER.ROT>
8

>  <SCORE.INTER.SOLV>
16.1169

>  <SCORE.INTER.VDW>
-24.7697

>  <SCORE.INTER.norm>
-0.581339

>  <SCORE.INTRA>
-2.42515

>  <SCORE.INTRA.DIHEDRAL>
-0.872076

>  <SCORE.INTRA.DIHEDRAL.0>
7.82666

>  <SCORE.INTRA.POLAR>
0

>  <SCORE.INTRA.POLAR.0>
0

>  <SCORE.INTRA.REPUL>
0

>  <SCORE.INTRA.REPUL.0>
0

>  <SCORE.INTRA.SOLV>
0.784507

>  <SCORE.INTRA.SOLV.lig_0>
-83.2758

>  <SCORE.INTRA.VDW>
-2.38137

>  <SCORE.INTRA.VDW.0>
-3.26816

>  <SCORE.INTRA.norm>
-0.0898204

>  <SCORE.RESTR>
0

>  <SCORE.RESTR.CAVITY>
0

>  <SCORE.RESTR.norm>
0

>  <SCORE.SYSTEM>
0

>  <SCORE.SYSTEM.CONST>
0

>  <SCORE.SYSTEM.DIHEDRAL>
0

>  <SCORE.SYSTEM.SOLV>
0

>  <SCORE.SYSTEM.norm>
0

>  <SCORE.heavy>
27

>  <SCORE.norm>
-0.671159

>  <RMSD>
6.479

$$$$
ligand
 OpenBabel11021811473D
libRbt.so/2013.1/901 2013/11/27
 27 28  0  0  0  0  0  0  0  0999 V2000
   -4.1878   41.5204   -3.9395 C   0  0  0  0  0  0  0  0  0  0  0  0
   -6.6094   42.7502   -9.4895 C   0  0  0  0  0  0  0  0  0  0  0  0
   -6.2608   45.3843  -10.8735 C   0  0  0  0  0  0  0  0  0  0  0  0
   -6.1514   46.2036   -9.5861 C   0  0  0  0  0  0  0  0  0  0  0  0
   -4.9098   46.9112   -9.5407 O   0  0  0  0  0  0  0  0  0  0  0  0
   -4.3858   47.5265   -8.1526 P   0  0  1  0  0  0  0  0  0  0  0  0
   -2.2188   45.7455   -7.8551 P   0  0  2  0  0  0  0  0  0  0  0  0
   -2.9995   43.6075  -11.6849 C   0  0  0  0  0  0  0  0  0  0  0  0
   -3.4830   42.0281   -6.2703 N   0  0  0  0  0  0  0  0  0  0  0  0
   -3.4174   48.7777   -8.4049 O   0  5  0  0  0  0  0  0  0  0  0  0
   -2.2933   45.2653   -9.2502 O   0  0  0  0  0  0  0  0  0  0  0  0
   -3.1407   42.3800  -11.0513 C   0  0  0  0  0  0  0  0  0  0  0  0
   -4.2725   41.3151   -5.4523 C   0  0  0  0  0  0  0  0  0  0  0  0
   -5.5842   48.0496   -7.2019 O   0  0  0  0  0  0  0  0  0  0  0  0
   -1.8442   44.5583   -6.8422 O   0  5  0  0  0  0  0  0  0  0  0  0
   -4.3107   42.1006  -10.3436 N   0  0  0  0  0  0  0  0  0  0  0  0
   -5.1387   40.4205   -5.9497 N   0  0  0  0  0  0  0  0  0  0  0  0
   -3.5748   46.3958   -7.3097 O   0  0  0  0  0  0  0  0  0  0  0  0
   -1.0593   46.8275   -7.6856 O   0  0  0  0  0  0  0  0  0  0  0  0
   -5.3263   43.0616  -10.2722 C   0  0  1  0  0  0  0  0  0  0  0  0
   -5.2275   40.2270   -7.2714 C   0  0  0  0  0  0  0  0  0  0  0  0
   -6.0912   39.3389   -7.7528 N   0  0  0  0  0  0  0  0  0  0  0  0
   -5.1839   44.2934  -10.9090 C   0  0  2  0  0  0  0  0  0  0  0  0
   -4.4226   40.9544   -8.1397 C   0  0  0  0  0  0  0  0  0  0  0  0
   -4.0139   44.5543  -11.6118 C   0  0  0  0  0  0  0  0  0  0  0  0
   -3.5372   41.8697   -7.5822 C   0  0  0  0  0  0  0  0  0  0  0  0
   -4.4616   40.7921   -9.6648 C   0  0  0  0  0  0  0  0  0  0  0  0
  1 13  1  0  0  0  0
  3  4  1  0  0  0  0
  4  5  1  0  0  0  0
  6  5  1  6  0  0  0
  6 10  1  0  0  0  0
  6 14  2  0  0  0  0
  6 18  1  0  0  0  0
  7 11  1  6  0  0  0
  7 15  1  0  0  0  0
  7 19  2  0  0  0  0
  7 18  1  0  0  0  0
  8 25  1  0  0  0  0
  8 12  1  0  0  0  0
  9 26  2  0  0  0  0
  9 13  1  0  0  0  0
 12 16  1  0  0  0  0
 13 17  2  0  0  0  0
 16 20  1  0  0  0  0
 16 27  1  0  0  0  0
 17 21  1  0  0  0  0
 20  2  1  6  0  0  0
 20 23  1  0  0  0  0
 21 22  1  0  0  0  0
 21 24  2  0  0  0  0
 23  3  1  1  0  0  0
 23 25  1  0  0  0  0
 24 27  1  0  0  0  0
 24 26  1  0  0  0  0
M  CHG  2  10  -1  15  -1
M  END
>  <CHROM.1>
64.21623293,-164.04719509,-154.02403587,63.49733970,-49.17352322,83.02990005
141.50257223,110.48705380,-4.12185541,44.19128150,-8.41805796,-1.98031083
-1.17138536,-0.55142055

>  <Name>
ligand

>  <RI>
0

>  <Rbt.Current_Directory>
/home/itssahil/PROJECTS/Mol_Feturizer/New_Systems/rnas/3D2V

>  <Rbt.Executable>
rbdock ($Id: //depot/dev/client3/rdock/2013.1/src/exe/rbdock.cxx#4 $)

>  <Rbt.Library>
libRbt.so (2013.1, Build901 2013/11/27)

>  <Rbt.Parameter_File>
/export/apps/rDock/src/rDock_2013.1_src/data/scripts/dock_solv.prm

>  <Rbt.Receptor>
prm/pocket_docking_7.prm

>  <SCORE>
-13.6406

>  <SCORE.INTER>
-10.8421

>  <SCORE.INTER.CONST>
1

>  <SCORE.INTER.POLAR>
0

>  <SCORE.INTER.ROT>
8

>  <SCORE.INTER.SOLV>
12.9473

>  <SCORE.INTER.VDW>
-20.4771

>  <SCORE.INTER.norm>
-0.401558

>  <SCORE.INTRA>
-2.79848

>  <SCORE.INTRA.DIHEDRAL>
-0.265614

>  <SCORE.INTRA.DIHEDRAL.0>
7.82666

>  <SCORE.INTRA.POLAR>
0

>  <SCORE.INTRA.POLAR.0>
0

>  <SCORE.INTRA.REPUL>
0

>  <SCORE.INTRA.REPUL.0>
0

>  <SCORE.INTRA.SOLV>
-0.882575

>  <SCORE.INTRA.SOLV.lig_0>
-83.2758

>  <SCORE.INTRA.VDW>
-2.22438

>  <SCORE.INTRA.VDW.0>
-3.26816

>  <SCORE.INTRA.norm>
-0.103647

>  <SCORE.RESTR>
0

>  <SCORE.RESTR.CAVITY>
0

>  <SCORE.RESTR.norm>
0

>  <SCORE.SYSTEM>
0

>  <SCORE.SYSTEM.CONST>
0

>  <SCORE.SYSTEM.DIHEDRAL>
0

>  <SCORE.SYSTEM.SOLV>
0

>  <SCORE.SYSTEM.norm>
0

>  <SCORE.heavy>
27

>  <SCORE.norm>
-0.505206

>  <RMSD>
6.492

$$$$
ligand
 OpenBabel11021811463D
libRbt.so/2013.1/901 2013/11/27
 27 28  0  0  0  0  0  0  0  0999 V2000
   -8.1835   45.9212   -3.5827 C   0  0  0  0  0  0  0  0  0  0  0  0
   -5.9050   38.7812   -4.9587 C   0  0  0  0  0  0  0  0  0  0  0  0
   -8.0036   36.9350   -6.0368 C   0  0  0  0  0  0  0  0  0  0  0  0
   -8.4510   37.6162   -7.3316 C   0  0  0  0  0  0  0  0  0  0  0  0
   -8.4734   36.6817   -8.4134 O   0  0  0  0  0  0  0  0  0  0  0  0
   -7.0958   36.1154   -9.0148 P   0  0  1  0  0  0  0  0  0  0  0  0
   -6.5209   35.9106  -11.7687 P   0  0  2  0  0  0  0  0  0  0  0  0
   -9.8109   38.6096   -3.1419 C   0  0  0  0  0  0  0  0  0  0  0  0
   -8.1492   43.4998   -4.1507 N   0  0  0  0  0  0  0  0  0  0  0  0
   -6.0052   37.2807   -9.1553 O   0  5  0  0  0  0  0  0  0  0  0  0
   -6.4476   37.3735  -11.9610 O   0  0  0  0  0  0  0  0  0  0  0  0
   -8.8531   39.4729   -2.6266 C   0  0  0  0  0  0  0  0  0  0  0  0
   -7.7459   44.4788   -3.3262 C   0  0  0  0  0  0  0  0  0  0  0  0
   -6.4312   34.9644   -8.0944 O   0  0  0  0  0  0  0  0  0  0  0  0
   -7.2002   35.1837  -13.0280 O   0  5  0  0  0  0  0  0  0  0  0  0
   -7.5898   39.5316   -3.2168 N   0  0  0  0  0  0  0  0  0  0  0  0
   -6.9599   44.2043   -2.2751 N   0  0  0  0  0  0  0  0  0  0  0  0
   -7.3533   35.4572  -10.4801 O   0  0  0  0  0  0  0  0  0  0  0  0
   -5.0618   35.2771  -11.6514 O   0  0  0  0  0  0  0  0  0  0  0  0
   -7.2973   38.7152   -4.3159 C   0  0  1  0  0  0  0  0  0  0  0  0
   -6.5667   42.9474   -2.0341 C   0  0  0  0  0  0  0  0  0  0  0  0
   -5.7891   42.6873   -0.9881 N   0  0  0  0  0  0  0  0  0  0  0  0
   -8.2596   37.8492   -4.8328 C   0  0  2  0  0  0  0  0  0  0  0  0
   -6.9725   41.9156   -2.8716 C   0  0  0  0  0  0  0  0  0  0  0  0
   -9.5133   37.8053   -4.2352 C   0  0  0  0  0  0  0  0  0  0  0  0
   -7.7851   42.2442   -3.9506 C   0  0  0  0  0  0  0  0  0  0  0  0
   -6.5659   40.4505   -2.6663 C   0  0  0  0  0  0  0  0  0  0  0  0
  1 13  1  0  0  0  0
  3  4  1  0  0  0  0
  4  5  1  0  0  0  0
  6  5  1  1  0  0  0
  6 10  1  0  0  0  0
  6 14  2  0  0  0  0
  6 18  1  0  0  0  0
  7 11  1  6  0  0  0
  7 15  1  0  0  0  0
  7 19  2  0  0  0  0
  7 18  1  0  0  0  0
  8 25  1  0  0  0  0
  8 12  1  0  0  0  0
  9 26  2  0  0  0  0
  9 13  1  0  0  0  0
 12 16  1  0  0  0  0
 13 17  2  0  0  0  0
 16 20  1  0  0  0  0
 16 27  1  0  0  0  0
 17 21  1  0  0  0  0
 20  2  1  6  0  0  0
 20 23  1  0  0  0  0
 21 22  1  0  0  0  0
 21 24  2  0  0  0  0
 23  3  1  1  0  0  0
 23 25  1  0  0  0  0
 24 27  1  0  0  0  0
 24 26  1  0  0  0  0
M  CHG  2  10  -1  15  -1
M  END
>  <CHROM.1>
-168.13581884,-70.67905128,-42.03899599,125.78757853,-48.90396058,-93.48285039
152.09496188,-66.69683957,-7.26804240,38.77284086,-6.54978577,-1.81722782
-1.28113457,-2.50470586

>  <Name>
ligand

>  <RI>
0

>  <Rbt.Current_Directory>
/home/itssahil/PROJECTS/Mol_Feturizer/New_Systems/rnas/3D2V

>  <Rbt.Executable>
rbdock ($Id: //depot/dev/client3/rdock/2013.1/src/exe/rbdock.cxx#4 $)

>  <Rbt.Library>
libRbt.so (2013.1, Build901 2013/11/27)

>  <Rbt.Parameter_File>
/export/apps/rDock/src/rDock_2013.1_src/data/scripts/dock_solv.prm

>  <Rbt.Receptor>
prm/blind_docking_60.prm

>  <SCORE>
-10.1852

>  <SCORE.INTER>
-11.2441

>  <SCORE.INTER.CONST>
1

>  <SCORE.INTER.POLAR>
0

>  <SCORE.INTER.ROT>
8

>  <SCORE.INTER.SOLV>
23.1435

>  <SCORE.INTER.VDW>
-24.1439

>  <SCORE.INTER.norm>
-0.416448

>  <SCORE.INTRA>
1.05885

>  <SCORE.INTRA.DIHEDRAL>
1.41473

>  <SCORE.INTRA.DIHEDRAL.0>
7.82666

>  <SCORE.INTRA.POLAR>
0

>  <SCORE.INTRA.POLAR.0>
0

>  <SCORE.INTRA.REPUL>
0

>  <SCORE.INTRA.REPUL.0>
0

>  <SCORE.INTRA.SOLV>
0.299847

>  <SCORE.INTRA.SOLV.lig_0>
-83.2758

>  <SCORE.INTRA.VDW>
0.201561

>  <SCORE.INTRA.VDW.0>
-3.26816

>  <SCORE.INTRA.norm>
0.0392167

>  <SCORE.RESTR>
0

>  <SCORE.RESTR.CAVITY>
0

>  <SCORE.RESTR.norm>
0

>  <SCORE.SYSTEM>
0

>  <SCORE.SYSTEM.CONST>
0

>  <SCORE.SYSTEM.DIHEDRAL>
0

>  <SCORE.SYSTEM.SOLV>
0

>  <SCORE.SYSTEM.norm>
0

>  <SCORE.heavy>
27

>  <SCORE.norm>
-0.377231

>  <RMSD>
6.525

$$$$
ligand
 OpenBabel11021811463D
libRbt.so/2013.1/901 2013/11/27
 27 28  0  0  0  0  0  0  0  0999 V2000
   -7.3020   45.3837   -3.5011 C   0  0  0  0  0  0  0  0  0  0  0  0
   -8.4147   39.5818   -7.0081 C   0  0  0  0  0  0  0  0  0  0  0  0
   -6.2667   38.4827   -8.7840 C   0  0  0  0  0  0  0  0  0  0  0  0
   -6.3388   37.0207   -9.2290 C   0  0  0  0  0  0  0  0  0  0  0  0
   -6.1081   36.9080  -10.6356 O   0  0  0  0  0  0  0  0  0  0  0  0
   -6.1317   35.4651  -11.3408 P   0  0  1  0  0  0  0  0  0  0  0  0
   -3.7643   35.1174  -12.8344 P   0  0  2  0  0  0  0  0  0  0  0  0
   -4.6977   38.1780   -5.3348 C   0  0  0  0  0  0  0  0  0  0  0  0
   -7.9231   43.3586   -4.8051 N   0  0  0  0  0  0  0  0  0  0  0  0
   -6.9920   34.4186  -10.4853 O   0  5  0  0  0  0  0  0  0  0  0  0
   -4.0598   36.3812  -13.5400 O   0  0  0  0  0  0  0  0  0  0  0  0
   -5.6802   38.6831   -4.4935 C   0  0  0  0  0  0  0  0  0  0  0  0
   -7.4627   43.8708   -3.6533 C   0  0  0  0  0  0  0  0  0  0  0  0
   -6.7773   35.4972  -12.8225 O   0  0  0  0  0  0  0  0  0  0  0  0
   -4.0408   33.8421  -13.7686 O   0  5  0  0  0  0  0  0  0  0  0  0
   -6.8851   39.1341   -5.0344 N   0  0  0  0  0  0  0  0  0  0  0  0
   -7.1406   43.0664   -2.6300 N   0  0  0  0  0  0  0  0  0  0  0  0
   -4.6164   34.8945  -11.4990 O   0  0  0  0  0  0  0  0  0  0  0  0
   -2.2201   35.0294  -12.4450 O   0  0  0  0  0  0  0  0  0  0  0  0
   -7.0890   39.0810   -6.4185 C   0  0  1  0  0  0  0  0  0  0  0  0
   -7.2748   41.7393   -2.7442 C   0  0  0  0  0  0  0  0  0  0  0  0
   -6.9542   40.9522   -1.7224 N   0  0  0  0  0  0  0  0  0  0  0  0
   -6.1023   38.5733   -7.2622 C   0  0  2  0  0  0  0  0  0  0  0  0
   -7.7516   41.1843   -3.9255 C   0  0  0  0  0  0  0  0  0  0  0  0
   -4.9097   38.1257   -6.7071 C   0  0  0  0  0  0  0  0  0  0  0  0
   -8.0716   42.0538   -4.9619 C   0  0  0  0  0  0  0  0  0  0  0  0
   -7.9333   39.6758   -4.1380 C   0  0  0  0  0  0  0  0  0  0  0  0
  1 13  1  0  0  0  0
  3  4  1  0  0  0  0
  4  5  1  0  0  0  0
  6  5  1  1  0  0  0
  6 10  1  0  0  0  0
  6 14  2  0  0  0  0
  6 18  1  0  0  0  0
  7 11  1  6  0  0  0
  7 15  1  0  0  0  0
  7 19  2  0  0  0  0
  7 18  1  0  0  0  0
  8 25  1  0  0  0  0
  8 12  1  0  0  0  0
  9 26  2  0  0  0  0
  9 13  1  0  0  0  0
 12 16  1  0  0  0  0
 13 17  2  0  0  0  0
 16 20  1  0  0  0  0
 16 27  1  0  0  0  0
 17 21  1  0  0  0  0
 20  2  1  1  0  0  0
 20 23  1  0  0  0  0
 21 22  1  0  0  0  0
 21 24  2  0  0  0  0
 23  3  1  6  0  0  0
 23 25  1  0  0  0  0
 24 27  1  0  0  0  0
 24 26  1  0  0  0  0
M  CHG  2  10  -1  15  -1
M  END
>  <CHROM.1>
-163.45040007,179.92866337,23.51343271,-93.71504360,31.85091653,-112.43456739
-106.37577001,88.88071316,-6.09887841,38.28378464,-8.10761251,2.38413268
-1.24682682,1.68295171

>  <Name>
ligand

>  <RI>
0

>  <Rbt.Current_Directory>
/home/itssahil/PROJECTS/Mol_Feturizer/New_Systems/rnas/3D2V

>  <Rbt.Executable>
rbdock ($Id: //depot/dev/client3/rdock/2013.1/src/exe/rbdock.cxx#4 $)

>  <Rbt.Library>
libRbt.so (2013.1, Build901 2013/11/27)

>  <Rbt.Parameter_File>
/export/apps/rDock/src/rDock_2013.1_src/data/scripts/dock_solv.prm

>  <Rbt.Receptor>
prm/blind_docking_60.prm

>  <SCORE>
-8.5968

>  <SCORE.INTER>
-9.29864

>  <SCORE.INTER.CONST>
1

>  <SCORE.INTER.POLAR>
0

>  <SCORE.INTER.ROT>
8

>  <SCORE.INTER.SOLV>
18.475

>  <SCORE.INTER.VDW>
-21.2908

>  <SCORE.INTER.norm>
-0.344394

>  <SCORE.INTRA>
0.642023

>  <SCORE.INTRA.DIHEDRAL>
2.38977

>  <SCORE.INTRA.DIHEDRAL.0>
7.82666

>  <SCORE.INTRA.POLAR>
0

>  <SCORE.INTRA.POLAR.0>
0

>  <SCORE.INTRA.REPUL>
0

>  <SCORE.INTRA.REPUL.0>
0

>  <SCORE.INTRA.SOLV>
-1.72382

>  <SCORE.INTRA.SOLV.lig_0>
-83.2758

>  <SCORE.INTRA.VDW>
0.309045

>  <SCORE.INTRA.VDW.0>
-3.26816

>  <SCORE.INTRA.norm>
0.0237786

>  <SCORE.RESTR>
0.0598191

>  <SCORE.RESTR.CAVITY>
0.0598191

>  <SCORE.RESTR.norm>
0.00221552

>  <SCORE.SYSTEM>
0

>  <SCORE.SYSTEM.CONST>
0

>  <SCORE.SYSTEM.DIHEDRAL>
0

>  <SCORE.SYSTEM.SOLV>
0

>  <SCORE.SYSTEM.norm>
0

>  <SCORE.heavy>
27

>  <SCORE.norm>
-0.3184

>  <RMSD>
6.534

$$$$
ligand
 OpenBabel11021811463D
libRbt.so/2013.1/901 2013/11/27
 27 28  0  0  0  0  0  0  0  0999 V2000
   -5.8513   40.0532    0.3627 C   0  0  0  0  0  0  0  0  0  0  0  0
   -6.7714   40.1047   -7.3266 C   0  0  0  0  0  0  0  0  0  0  0  0
   -6.5000   37.4558   -8.6995 C   0  0  0  0  0  0  0  0  0  0  0  0
   -6.6155   36.0199   -9.2149 C   0  0  0  0  0  0  0  0  0  0  0  0
   -5.6976   35.7918  -10.2870 O   0  0  0  0  0  0  0  0  0  0  0  0
   -5.9607   36.4566  -11.7254 P   0  0  1  0  0  0  0  0  0  0  0  0
   -4.0739   34.6595  -12.8056 P   0  0  2  0  0  0  0  0  0  0  0  0
   -8.6272   36.5825   -5.6724 C   0  0  0  0  0  0  0  0  0  0  0  0
   -7.6946   39.5601   -1.2331 N   0  0  0  0  0  0  0  0  0  0  0  0
   -7.3227   35.9139  -12.3715 O   0  5  0  0  0  0  0  0  0  0  0  0
   -3.9739   33.9723  -11.5016 O   0  0  0  0  0  0  0  0  0  0  0  0
   -8.7662   37.8004   -5.0201 C   0  0  0  0  0  0  0  0  0  0  0  0
   -6.4891   40.1122   -1.0257 C   0  0  0  0  0  0  0  0  0  0  0  0
   -6.0844   38.0673  -11.6631 O   0  0  0  0  0  0  0  0  0  0  0  0
   -2.6327   34.8423  -13.4876 O   0  5  0  0  0  0  0  0  0  0  0  0
   -8.1687   38.9416   -5.5572 N   0  0  0  0  0  0  0  0  0  0  0  0
   -5.8352   40.7179   -2.0275 N   0  0  0  0  0  0  0  0  0  0  0  0
   -4.7293   36.1169  -12.7328 O   0  0  0  0  0  0  0  0  0  0  0  0
   -4.9253   33.7957  -13.8414 O   0  0  0  0  0  0  0  0  0  0  0  0
   -7.4293   38.8470   -6.7423 C   0  0  1  0  0  0  0  0  0  0  0  0
   -6.3774   40.7794   -3.2500 C   0  0  0  0  0  0  0  0  0  0  0  0
   -5.7189   41.3806   -4.2355 N   0  0  0  0  0  0  0  0  0  0  0  0
   -7.2908   37.6240   -7.3967 C   0  0  2  0  0  0  0  0  0  0  0  0
   -7.6233   40.2133   -3.4911 C   0  0  0  0  0  0  0  0  0  0  0  0
   -7.8945   36.4981   -6.8500 C   0  0  0  0  0  0  0  0  0  0  0  0
   -8.2677   39.5972   -2.4244 C   0  0  0  0  0  0  0  0  0  0  0  0
   -8.3140   40.2415   -4.8608 C   0  0  0  0  0  0  0  0  0  0  0  0
  1 13  1  0  0  0  0
  3  4  1  0  0  0  0
  4  5  1  0  0  0  0
  6  5  1  1  0  0  0
  6 10  1  0  0  0  0
  6 14  2  0  0  0  0
  6 18  1  0  0  0  0
  7 11  1  1  0  0  0
  7 15  1  0  0  0  0
  7 19  2  0  0  0  0
  7 18  1  0  0  0  0
  8 25  1  0  0  0  0
  8 12  1  0  0  0  0
  9 26  2  0  0  0  0
  9 13  1  0  0  0  0
 12 16  1  0  0  0  0
 13 17  2  0  0  0  0
 16 20  1  0  0  0  0
 16 27  1  0  0  0  0
 17 21  1  0  0  0  0
 20  2  1  6  0  0  0
 20 23  1  0  0  0  0
 21 22  1  0  0  0  0
 21 24  2  0  0  0  0
 23  3  1  1  0  0  0
 23 25  1  0  0  0  0
 24 27  1  0  0  0  0
 24 26  1  0  0  0  0
M  CHG  2  10  -1  15  -1
M  END
>  <CHROM.1>
-169.67334068,-71.90908984,-62.77412514,42.75130986,-37.28651735,-176.11477391
101.32707773,64.94044612,-6.28193666,37.56233113,-7.90763931,-1.77369810
0.04379686,-2.00966085

>  <Name>
ligand

>  <RI>
0

>  <Rbt.Current_Directory>
/home/itssahil/PROJECTS/Mol_Feturizer/New_Systems/rnas/3D2V

>  <Rbt.Executable>
rbdock ($Id: //depot/dev/client3/rdock/2013.1/src/exe/rbdock.cxx#4 $)

>  <Rbt.Library>
libRbt.so (2013.1, Build901 2013/11/27)

>  <Rbt.Parameter_File>
/export/apps/rDock/src/rDock_2013.1_src/data/scripts/dock_solv.prm

>  <Rbt.Receptor>
prm/blind_docking_60.prm

>  <SCORE>
-10.82

>  <SCORE.INTER>
-12.5499

>  <SCORE.INTER.CONST>
1

>  <SCORE.INTER.POLAR>
0

>  <SCORE.INTER.ROT>
8

>  <SCORE.INTER.SOLV>
21.0387

>  <SCORE.INTER.VDW>
-24.3129

>  <SCORE.INTER.norm>
-0.464812

>  <SCORE.INTRA>
1.72991

>  <SCORE.INTRA.DIHEDRAL>
-0.368605

>  <SCORE.INTRA.DIHEDRAL.0>
7.82666

>  <SCORE.INTRA.POLAR>
0

>  <SCORE.INTRA.POLAR.0>
0

>  <SCORE.INTRA.REPUL>
0

>  <SCORE.INTRA.REPUL.0>
0

>  <SCORE.INTRA.SOLV>
0.257322

>  <SCORE.INTRA.SOLV.lig_0>
-83.2758

>  <SCORE.INTRA.VDW>
1.78555

>  <SCORE.INTRA.VDW.0>
-3.26816

>  <SCORE.INTRA.norm>
0.0640708

>  <SCORE.RESTR>
0

>  <SCORE.RESTR.CAVITY>
0

>  <SCORE.RESTR.norm>
0

>  <SCORE.SYSTEM>
0

>  <SCORE.SYSTEM.CONST>
0

>  <SCORE.SYSTEM.DIHEDRAL>
0

>  <SCORE.SYSTEM.SOLV>
0

>  <SCORE.SYSTEM.norm>
0

>  <SCORE.heavy>
27

>  <SCORE.norm>
-0.400741

>  <RMSD>
6.558

$$$$
ligand
 OpenBabel11021811463D
libRbt.so/2013.1/901 2013/11/27
 27 28  0  0  0  0  0  0  0  0999 V2000
   -8.3522   39.1655    0.0720 C   0  0  0  0  0  0  0  0  0  0  0  0
   -5.4597   39.8450   -6.6547 C   0  0  0  0  0  0  0  0  0  0  0  0
   -6.4848   37.9641   -8.7491 C   0  0  0  0  0  0  0  0  0  0  0  0
   -6.7101   36.4835   -8.4364 C   0  0  0  0  0  0  0  0  0  0  0  0
   -6.2608   36.1714   -7.1154 O   0  0  0  0  0  0  0  0  0  0  0  0
   -6.4195   34.6785   -6.5444 P   0  0  1  0  0  0  0  0  0  0  0  0
   -4.9365   35.4661   -4.2780 P   0  0  2  0  0  0  0  0  0  0  0  0
   -9.6905   39.5093   -7.4122 C   0  0  0  0  0  0  0  0  0  0  0  0
   -8.7447   39.3229   -2.3792 N   0  0  0  0  0  0  0  0  0  0  0  0
   -7.8883   34.1050   -6.8287 O   0  5  0  0  0  0  0  0  0  0  0  0
   -3.6398   35.2810   -4.9612 O   0  0  0  0  0  0  0  0  0  0  0  0
   -9.2368   40.3878   -6.4373 C   0  0  0  0  0  0  0  0  0  0  0  0
   -8.0838   39.7774   -1.3033 C   0  0  0  0  0  0  0  0  0  0  0  0
   -5.3765   33.6354   -7.2060 O   0  0  0  0  0  0  0  0  0  0  0  0
   -4.8660   35.0015   -2.7434 O   0  5  0  0  0  0  0  0  0  0  0  0
   -7.8670   40.4995   -6.1943 N   0  0  0  0  0  0  0  0  0  0  0  0
   -7.1867   40.7669   -1.4221 N   0  0  0  0  0  0  0  0  0  0  0  0
   -6.1500   34.6611   -4.9402 O   0  0  0  0  0  0  0  0  0  0  0  0
   -5.3432   37.0078   -4.2347 O   0  0  0  0  0  0  0  0  0  0  0  0
   -6.9648   39.7205   -6.9287 C   0  0  1  0  0  0  0  0  0  0  0  0
   -6.9380   41.3149   -2.6180 C   0  0  0  0  0  0  0  0  0  0  0  0
   -6.0452   42.2938   -2.7236 N   0  0  0  0  0  0  0  0  0  0  0  0
   -7.4212   38.8393   -7.9075 C   0  0  2  0  0  0  0  0  0  0  0  0
   -7.6074   40.8605   -3.7477 C   0  0  0  0  0  0  0  0  0  0  0  0
   -8.7879   38.7423   -8.1388 C   0  0  0  0  0  0  0  0  0  0  0  0
   -8.5305   39.8348   -3.5797 C   0  0  0  0  0  0  0  0  0  0  0  0
   -7.3817   41.4347   -5.1524 C   0  0  0  0  0  0  0  0  0  0  0  0
  1 13  1  0  0  0  0
  3  4  1  0  0  0  0
  4  5  1  0  0  0  0
  6  5  1  6  0  0  0
  6 10  1  0  0  0  0
  6 14  2  0  0  0  0
  6 18  1  0  0  0  0
  7 11  1  6  0  0  0
  7 15  1  0  0  0  0
  7 19  2  0  0  0  0
  7 18  1  0  0  0  0
  8 25  1  0  0  0  0
  8 12  1  0  0  0  0
  9 26  2  0  0  0  0
  9 13  1  0  0  0  0
 12 16  1  0  0  0  0
 13 17  2  0  0  0  0
 16 20  1  0  0  0  0
 16 27  1  0  0  0  0
 17 21  1  0  0  0  0
 20  2  1  6  0  0  0
 20 23  1  0  0  0  0
 21 22  1  0  0  0  0
 21 24  2  0  0  0  0
 23  3  1  1  0  0  0
 23 25  1  0  0  0  0
 24 27  1  0  0  0  0
 24 26  1  0  0  0  0
M  CHG  2  10  -1  15  -1
M  END
>  <CHROM.1>
-68.95895670,178.77072709,-46.68905606,-43.58047241,-47.10849287,114.48293228
161.34781939,76.26093136,-6.77279841,37.81614894,-5.14729326,-2.25920641
1.13612172,-1.97745610

>  <Name>
ligand

>  <RI>
0

>  <Rbt.Current_Directory>
/home/itssahil/PROJECTS/Mol_Feturizer/New_Systems/rnas/3D2V

>  <Rbt.Executable>
rbdock ($Id: //depot/dev/client3/rdock/2013.1/src/exe/rbdock.cxx#4 $)

>  <Rbt.Library>
libRbt.so (2013.1, Build901 2013/11/27)

>  <Rbt.Parameter_File>
/export/apps/rDock/src/rDock_2013.1_src/data/scripts/dock_solv.prm

>  <Rbt.Receptor>
prm/blind_docking_60.prm

>  <SCORE>
-17.8782

>  <SCORE.INTER>
-15.6507

>  <SCORE.INTER.CONST>
1

>  <SCORE.INTER.POLAR>
0

>  <SCORE.INTER.ROT>
8

>  <SCORE.INTER.SOLV>
32.2918

>  <SCORE.INTER.VDW>
-30.131

>  <SCORE.INTER.norm>
-0.579654

>  <SCORE.INTRA>
-2.25864

>  <SCORE.INTRA.DIHEDRAL>
-1.39801

>  <SCORE.INTRA.DIHEDRAL.0>
7.82666

>  <SCORE.INTRA.POLAR>
0

>  <SCORE.INTRA.POLAR.0>
0

>  <SCORE.INTRA.REPUL>
0

>  <SCORE.INTRA.REPUL.0>
0

>  <SCORE.INTRA.SOLV>
-2.03663

>  <SCORE.INTRA.SOLV.lig_0>
-83.2758

>  <SCORE.INTRA.VDW>
-0.541321

>  <SCORE.INTRA.VDW.0>
-3.26816

>  <SCORE.INTRA.norm>
-0.0836534

>  <SCORE.RESTR>
0.0311381

>  <SCORE.RESTR.CAVITY>
0.0311381

>  <SCORE.RESTR.norm>
0.00115326

>  <SCORE.SYSTEM>
0

>  <SCORE.SYSTEM.CONST>
0

>  <SCORE.SYSTEM.DIHEDRAL>
0

>  <SCORE.SYSTEM.SOLV>
0

>  <SCORE.SYSTEM.norm>
0

>  <SCORE.heavy>
27

>  <SCORE.norm>
-0.662155

>  <RMSD>
6.601

$$$$
ligand
 OpenBabel11021811473D
libRbt.so/2013.1/901 2013/11/27
 27 28  0  0  0  0  0  0  0  0999 V2000
   -4.9556   39.7553  -12.9990 C   0  0  0  0  0  0  0  0  0  0  0  0
   -6.2975   38.2101   -5.2187 C   0  0  0  0  0  0  0  0  0  0  0  0
   -8.2935   40.0330   -3.9272 C   0  0  0  0  0  0  0  0  0  0  0  0
   -7.5040   41.3406   -3.8412 C   0  0  0  0  0  0  0  0  0  0  0  0
   -8.2326   42.4122   -4.4455 O   0  0  0  0  0  0  0  0  0  0  0  0
   -7.5322   43.8425   -4.6550 P   0  0  1  0  0  0  0  0  0  0  0  0
   -6.3989   45.3156   -6.7767 P   0  0  2  0  0  0  0  0  0  0  0  0
   -9.6913   39.6660   -7.4433 C   0  0  0  0  0  0  0  0  0  0  0  0
   -5.3506   39.8340  -10.5444 N   0  0  0  0  0  0  0  0  0  0  0  0
   -8.5937   45.0328   -4.5021 O   0  5  0  0  0  0  0  0  0  0  0  0
   -7.5112   46.1611   -7.2569 O   0  0  0  0  0  0  0  0  0  0  0  0
   -8.7785   38.8215   -8.0611 C   0  0  0  0  0  0  0  0  0  0  0  0
   -5.4234   39.1298  -11.6845 C   0  0  0  0  0  0  0  0  0  0  0  0
   -6.3531   44.1303   -3.5871 O   0  0  0  0  0  0  0  0  0  0  0  0
   -5.3795   44.9533   -7.9622 O   0  5  0  0  0  0  0  0  0  0  0  0
   -7.6817   38.3469   -7.3403 N   0  0  0  0  0  0  0  0  0  0  0  0
   -5.9041   37.8781  -11.6831 N   0  0  0  0  0  0  0  0  0  0  0  0
   -6.8594   43.9250   -6.1339 O   0  0  0  0  0  0  0  0  0  0  0  0
   -5.5247   46.0874   -5.6886 O   0  0  0  0  0  0  0  0  0  0  0  0
   -7.5075   38.7322   -6.0056 C   0  0  1  0  0  0  0  0  0  0  0  0
   -6.3182   37.3134  -10.5420 C   0  0  0  0  0  0  0  0  0  0  0  0
   -6.7910   36.0713  -10.5528 N   0  0  0  0  0  0  0  0  0  0  0  0
   -8.4246   39.5797   -5.3861 C   0  0  1  0  0  0  0  0  0  0  0  0
   -6.2510   38.0207   -9.3479 C   0  0  0  0  0  0  0  0  0  0  0  0
   -9.5126   40.0408   -6.1172 C   0  0  0  0  0  0  0  0  0  0  0  0
   -5.7482   39.3159   -9.3943 C   0  0  0  0  0  0  0  0  0  0  0  0
   -6.7055   37.4477   -7.9991 C   0  0  0  0  0  0  0  0  0  0  0  0
  1 13  1  0  0  0  0
  3  4  1  0  0  0  0
  4  5  1  0  0  0  0
  6  5  1  1  0  0  0
  6 10  1  0  0  0  0
  6 14  2  0  0  0  0
  6 18  1  0  0  0  0
  7 11  1  6  0  0  0
  7 15  1  0  0  0  0
  7 19  2  0  0  0  0
  7 18  1  0  0  0  0
  8 25  1  0  0  0  0
  8 12  1  0  0  0  0
  9 26  2  0  0  0  0
  9 13  1  0  0  0  0
 12 16  1  0  0  0  0
 13 17  2  0  0  0  0
 16 20  1  0  0  0  0
 16 27  1  0  0  0  0
 17 21  1  0  0  0  0
 20  2  1  1  0  0  0
 20 23  1  0  0  0  0
 21 22  1  0  0  0  0
 21 24  2  0  0  0  0
 23  3  1  1  0  0  0
 23 25  1  0  0  0  0
 24 27  1  0  0  0  0
 24 26  1  0  0  0  0
M  CHG  2  10  -1  15  -1
M  END
>  <CHROM.1>
66.59176891,-171.87759378,-146.54427427,165.04915576,-74.69449242,90.99940880
-126.31183352,49.57545460,-6.98293410,41.30873076,-7.14959009,-1.36424695
1.12797852,0.44615953

>  <Name>
ligand

>  <RI>
0

>  <Rbt.Current_Directory>
/home/itssahil/PROJECTS/Mol_Feturizer/New_Systems/rnas/3D2V

>  <Rbt.Executable>
rbdock ($Id: //depot/dev/client3/rdock/2013.1/src/exe/rbdock.cxx#4 $)

>  <Rbt.Library>
libRbt.so (2013.1, Build901 2013/11/27)

>  <Rbt.Parameter_File>
/export/apps/rDock/src/rDock_2013.1_src/data/scripts/dock_solv.prm

>  <Rbt.Receptor>
prm/pocket_docking_7.prm

>  <SCORE>
-18.4302

>  <SCORE.INTER>
-17.883

>  <SCORE.INTER.CONST>
1

>  <SCORE.INTER.POLAR>
0

>  <SCORE.INTER.ROT>
8

>  <SCORE.INTER.SOLV>
15.0122

>  <SCORE.INTER.VDW>
-25.8594

>  <SCORE.INTER.norm>
-0.662333

>  <SCORE.INTRA>
-0.547172

>  <SCORE.INTRA.DIHEDRAL>
-0.0848155

>  <SCORE.INTRA.DIHEDRAL.0>
7.82666

>  <SCORE.INTRA.POLAR>
0

>  <SCORE.INTRA.POLAR.0>
0

>  <SCORE.INTRA.REPUL>
0

>  <SCORE.INTRA.REPUL.0>
0

>  <SCORE.INTRA.SOLV>
-0.575263

>  <SCORE.INTRA.SOLV.lig_0>
-83.2758

>  <SCORE.INTRA.VDW>
-0.217133

>  <SCORE.INTRA.VDW.0>
-3.26816

>  <SCORE.INTRA.norm>
-0.0202656

>  <SCORE.RESTR>
0

>  <SCORE.RESTR.CAVITY>
0

>  <SCORE.RESTR.norm>
0

>  <SCORE.SYSTEM>
0

>  <SCORE.SYSTEM.CONST>
0

>  <SCORE.SYSTEM.DIHEDRAL>
0

>  <SCORE.SYSTEM.SOLV>
0

>  <SCORE.SYSTEM.norm>
0

>  <SCORE.heavy>
27

>  <SCORE.norm>
-0.682599

>  <RMSD>
6.660

$$$$
ligand
 OpenBabel11021811473D
libRbt.so/2013.1/901 2013/11/27
 27 28  0  0  0  0  0  0  0  0999 V2000
   -4.2035   41.6634   -4.1803 C   0  0  0  0  0  0  0  0  0  0  0  0
   -6.7487   42.8236   -9.6143 C   0  0  0  0  0  0  0  0  0  0  0  0
   -6.2861   45.3610  -11.1384 C   0  0  0  0  0  0  0  0  0  0  0  0
   -6.1083   46.1413   -9.8345 C   0  0  0  0  0  0  0  0  0  0  0  0
   -4.8239   46.7680   -9.7911 O   0  0  0  0  0  0  0  0  0  0  0  0
   -4.2813   47.3939   -8.4149 P   0  0  1  0  0  0  0  0  0  0  0  0
   -6.2280   46.3358   -6.6692 P   0  0  2  0  0  0  0  0  0  0  0  0
   -3.2471   43.2836  -12.0869 C   0  0  0  0  0  0  0  0  0  0  0  0
   -3.6682   42.1077   -6.5684 N   0  0  0  0  0  0  0  0  0  0  0  0
   -3.1718   46.4491   -7.7490 O   0  5  0  0  0  0  0  0  0  0  0  0
   -7.5020   45.9385   -7.3029 O   0  0  0  0  0  0  0  0  0  0  0  0
   -3.4423   42.0988  -11.3895 C   0  0  0  0  0  0  0  0  0  0  0  0
   -4.3691   41.3915   -5.6758 C   0  0  0  0  0  0  0  0  0  0  0  0
   -3.6001   48.8473   -8.6078 O   0  0  0  0  0  0  0  0  0  0  0  0
   -6.4343   46.7301   -5.1272 O   0  5  0  0  0  0  0  0  0  0  0  0
   -4.5776   41.9481  -10.5919 N   0  0  0  0  0  0  0  0  0  0  0  0
   -5.2167   40.4357   -6.0832 N   0  0  0  0  0  0  0  0  0  0  0  0
   -5.5086   47.5843   -7.3642 O   0  0  0  0  0  0  0  0  0  0  0  0
   -5.1928   45.1224   -6.6605 O   0  0  0  0  0  0  0  0  0  0  0  0
   -5.5037   42.9937  -10.4959 C   0  0  1  0  0  0  0  0  0  0  0  0
   -5.3753   40.1833   -7.3884 C   0  0  0  0  0  0  0  0  0  0  0  0
   -6.2198   39.2348   -7.7803 N   0  0  0  0  0  0  0  0  0  0  0  0
   -5.3071   44.1824  -11.1968 C   0  0  1  0  0  0  0  0  0  0  0  0
   -4.6629   40.9125   -8.3327 C   0  0  0  0  0  0  0  0  0  0  0  0
   -4.1730   44.3150  -11.9887 C   0  0  0  0  0  0  0  0  0  0  0  0
   -3.7936   41.8924   -7.8673 C   0  0  0  0  0  0  0  0  0  0  0  0
   -4.7858   40.6853   -9.8450 C   0  0  0  0  0  0  0  0  0  0  0  0
  1 13  1  0  0  0  0
  3  4  1  0  0  0  0
  4  5  1  0  0  0  0
  6  5  1  6  0  0  0
  6 10  1  0  0  0  0
  6 14  2  0  0  0  0
  6 18  1  0  0  0  0
  7 11  1  6  0  0  0
  7 15  1  0  0  0  0
  7 19  2  0  0  0  0
  7 18  1  0  0  0  0
  8 25  1  0  0  0  0
  8 12  1  0  0  0  0
  9 26  2  0  0  0  0
  9 13  1  0  0  0  0
 12 16  1  0  0  0  0
 13 17  2  0  0  0  0
 16 20  1  0  0  0  0
 16 27  1  0  0  0  0
 17 21  1  0  0  0  0
 20  2  1  6  0  0  0
 20 23  1  0  0  0  0
 21 22  1  0  0  0  0
 21 24  2  0  0  0  0
 23  3  1  6  0  0  0
 23 25  1  0  0  0  0
 24 27  1  0  0  0  0
 24 26  1  0  0  0  0
M  CHG  2  10  -1  15  -1
M  END
>  <CHROM.1>
65.77873225,-167.67302693,104.04285097,70.53061989,-99.27679120,77.59067590
148.46573588,112.04809369,-5.03509446,44.21764373,-8.33957841,1.25230323
-1.43448984,2.82644923

>  <Name>
ligand

>  <RI>
0

>  <Rbt.Current_Directory>
/home/itssahil/PROJECTS/Mol_Feturizer/New_Systems/rnas/3D2V

>  <Rbt.Executable>
rbdock ($Id: //depot/dev/client3/rdock/2013.1/src/exe/rbdock.cxx#4 $)

>  <Rbt.Library>
libRbt.so (2013.1, Build901 2013/11/27)

>  <Rbt.Parameter_File>
/export/apps/rDock/src/rDock_2013.1_src/data/scripts/dock_solv.prm

>  <Rbt.Receptor>
prm/pocket_docking_6.prm

>  <SCORE>
-12.5513

>  <SCORE.INTER>
-14.0209

>  <SCORE.INTER.CONST>
1

>  <SCORE.INTER.POLAR>
0

>  <SCORE.INTER.ROT>
8

>  <SCORE.INTER.SOLV>
11.6903

>  <SCORE.INTER.VDW>
-22.1774

>  <SCORE.INTER.norm>
-0.519294

>  <SCORE.INTRA>
1.46966

>  <SCORE.INTRA.DIHEDRAL>
2.10445

>  <SCORE.INTRA.DIHEDRAL.0>
7.82666

>  <SCORE.INTRA.POLAR>
0

>  <SCORE.INTRA.POLAR.0>
0

>  <SCORE.INTRA.REPUL>
0

>  <SCORE.INTRA.REPUL.0>
0

>  <SCORE.INTRA.SOLV>
1.54969

>  <SCORE.INTRA.SOLV.lig_0>
-83.2758

>  <SCORE.INTRA.VDW>
-0.357411

>  <SCORE.INTRA.VDW.0>
-3.26816

>  <SCORE.INTRA.norm>
0.0544319

>  <SCORE.RESTR>
0

>  <SCORE.RESTR.CAVITY>
0

>  <SCORE.RESTR.norm>
0

>  <SCORE.SYSTEM>
0

>  <SCORE.SYSTEM.CONST>
0

>  <SCORE.SYSTEM.DIHEDRAL>
0

>  <SCORE.SYSTEM.SOLV>
0

>  <SCORE.SYSTEM.norm>
0

>  <SCORE.heavy>
27

>  <SCORE.norm>
-0.464862

>  <RMSD>
6.677

$$$$
ligand
 OpenBabel11021811473D
libRbt.so/2013.1/901 2013/11/27
 27 28  0  0  0  0  0  0  0  0999 V2000
   -6.7609   36.3594   -9.3754 C   0  0  0  0  0  0  0  0  0  0  0  0
   -3.3209   44.2671   -9.4305 C   0  0  0  0  0  0  0  0  0  0  0  0
   -5.3350   46.4036  -10.0256 C   0  0  0  0  0  0  0  0  0  0  0  0
   -5.4177   47.2230   -8.7363 C   0  0  0  0  0  0  0  0  0  0  0  0
   -4.5526   46.6803   -7.7355 O   0  0  0  0  0  0  0  0  0  0  0  0
   -4.5867   47.2660   -6.2403 P   0  0  1  0  0  0  0  0  0  0  0  0
   -6.5578   45.3949   -5.4853 P   0  0  2  0  0  0  0  0  0  0  0  0
   -7.5263   43.3295   -9.5787 C   0  0  0  0  0  0  0  0  0  0  0  0
   -5.7969   38.4359  -10.3482 N   0  0  0  0  0  0  0  0  0  0  0  0
   -3.3881   46.6703   -5.3597 O   0  5  0  0  0  0  0  0  0  0  0  0
   -6.7045   44.7655   -6.8138 O   0  0  0  0  0  0  0  0  0  0  0  0
   -6.6098   42.3241   -9.3005 C   0  0  0  0  0  0  0  0  0  0  0  0
   -6.1022   37.7332   -9.2464 C   0  0  0  0  0  0  0  0  0  0  0  0
   -4.4461   48.8758   -6.1897 O   0  0  0  0  0  0  0  0  0  0  0  0
   -7.9574   45.4514   -4.7020 O   0  5  0  0  0  0  0  0  0  0  0  0
   -5.2486   42.6280   -9.2487 N   0  0  0  0  0  0  0  0  0  0  0  0
   -5.8345   38.2253   -8.0281 N   0  0  0  0  0  0  0  0  0  0  0  0
   -5.9997   46.8935   -5.5252 O   0  0  0  0  0  0  0  0  0  0  0  0
   -5.5860   44.5398   -4.5535 O   0  0  0  0  0  0  0  0  0  0  0  0
   -4.8194   43.9395   -9.4852 C   0  0  1  0  0  0  0  0  0  0  0  0
   -5.2579   39.4262   -7.8949 C   0  0  0  0  0  0  0  0  0  0  0  0
   -4.9957   39.9026   -6.6822 N   0  0  0  0  0  0  0  0  0  0  0  0
   -5.7403   44.9481   -9.7639 C   0  0  1  0  0  0  0  0  0  0  0  0
   -4.9298   40.1724   -9.0203 C   0  0  0  0  0  0  0  0  0  0  0  0
   -7.0920   44.6293   -9.8088 C   0  0  0  0  0  0  0  0  0  0  0  0
   -5.2264   39.6261  -10.2637 C   0  0  0  0  0  0  0  0  0  0  0  0
   -4.2692   41.5555   -8.9545 C   0  0  0  0  0  0  0  0  0  0  0  0
  1 13  1  0  0  0  0
  3  4  1  0  0  0  0
  4  5  1  0  0  0  0
  6  5  1  6  0  0  0
  6 10  1  0  0  0  0
  6 14  2  0  0  0  0
  6 18  1  0  0  0  0
  7 11  1  6  0  0  0
  7 15  1  0  0  0  0
  7 19  2  0  0  0  0
  7 18  1  0  0  0  0
  8 25  1  0  0  0  0
  8 12  1  0  0  0  0
  9 26  2  0  0  0  0
  9 13  1  0  0  0  0
 12 16  1  0  0  0  0
 13 17  2  0  0  0  0
 16 20  1  0  0  0  0
 16 27  1  0  0  0  0
 17 21  1  0  0  0  0
 20  2  1  1  0  0  0
 20 23  1  0  0  0  0
 21 22  1  0  0  0  0
 21 24  2  0  0  0  0
 23  3  1  1  0  0  0
 23 25  1  0  0  0  0
 24 27  1  0  0  0  0
 24 26  1  0  0  0  0
M  CHG  2  10  -1  15  -1
M  END
>  <CHROM.1>
59.56287506,-173.08064692,-171.20285354,51.80300246,-56.34071006,-94.63356311
-104.53113833,11.28192022,-5.53910029,43.65398581,-7.75817569,1.80449861
-1.30389923,-2.58015929

>  <Name>
ligand

>  <RI>
0

>  <Rbt.Current_Directory>
/home/itssahil/PROJECTS/Mol_Feturizer/New_Systems/rnas/3D2V

>  <Rbt.Executable>
rbdock ($Id: //depot/dev/client3/rdock/2013.1/src/exe/rbdock.cxx#4 $)

>  <Rbt.Library>
libRbt.so (2013.1, Build901 2013/11/27)

>  <Rbt.Parameter_File>
/export/apps/rDock/src/rDock_2013.1_src/data/scripts/dock_solv.prm

>  <Rbt.Receptor>
prm/pocket_docking_6.prm

>  <SCORE>
-15.4318

>  <SCORE.INTER>
-11.8296

>  <SCORE.INTER.CONST>
1

>  <SCORE.INTER.POLAR>
0

>  <SCORE.INTER.ROT>
8

>  <SCORE.INTER.SOLV>
11.3143

>  <SCORE.INTER.VDW>
-20.5912

>  <SCORE.INTER.norm>
-0.438135

>  <SCORE.INTRA>
-3.60216

>  <SCORE.INTRA.DIHEDRAL>
-2.16892

>  <SCORE.INTRA.DIHEDRAL.0>
7.82666

>  <SCORE.INTRA.POLAR>
0

>  <SCORE.INTRA.POLAR.0>
0

>  <SCORE.INTRA.REPUL>
0

>  <SCORE.INTRA.REPUL.0>
0

>  <SCORE.INTRA.SOLV>
-2.2284

>  <SCORE.INTRA.SOLV.lig_0>
-83.2758

>  <SCORE.INTRA.VDW>
-1.4035

>  <SCORE.INTRA.VDW.0>
-3.26816

>  <SCORE.INTRA.norm>
-0.133413

>  <SCORE.RESTR>
0

>  <SCORE.RESTR.CAVITY>
0

>  <SCORE.RESTR.norm>
0

>  <SCORE.SYSTEM>
0

>  <SCORE.SYSTEM.CONST>
0

>  <SCORE.SYSTEM.DIHEDRAL>
0

>  <SCORE.SYSTEM.SOLV>
0

>  <SCORE.SYSTEM.norm>
0

>  <SCORE.heavy>
27

>  <SCORE.norm>
-0.571548

>  <RMSD>
6.680

$$$$
ligand
 OpenBabel11021811463D
libRbt.so/2013.1/901 2013/11/27
 27 28  0  0  0  0  0  0  0  0999 V2000
   -3.6152   44.2555   -4.1155 C   0  0  0  0  0  0  0  0  0  0  0  0
   -5.8086   38.3411   -4.2906 C   0  0  0  0  0  0  0  0  0  0  0  0
   -8.2474   37.5049   -5.8165 C   0  0  0  0  0  0  0  0  0  0  0  0
   -8.4360   38.5166   -6.9486 C   0  0  0  0  0  0  0  0  0  0  0  0
   -8.1292   37.9240   -8.2131 O   0  0  0  0  0  0  0  0  0  0  0  0
   -6.6453   37.3851   -8.5091 P   0  0  1  0  0  0  0  0  0  0  0  0
   -6.9152   35.5851  -10.6640 P   0  0  2  0  0  0  0  0  0  0  0  0
   -9.7461   39.0739   -2.6952 C   0  0  0  0  0  0  0  0  0  0  0  0
   -3.8385   41.8118   -3.7090 N   0  0  0  0  0  0  0  0  0  0  0  0
   -5.5447   38.4840   -8.1240 O   0  5  0  0  0  0  0  0  0  0  0  0
   -6.3448   34.4371   -9.9296 O   0  0  0  0  0  0  0  0  0  0  0  0
   -8.6292   39.4703   -1.9716 C   0  0  0  0  0  0  0  0  0  0  0  0
   -4.3004   43.0494   -3.4725 C   0  0  0  0  0  0  0  0  0  0  0  0
   -6.2810   36.0491   -7.6748 O   0  0  0  0  0  0  0  0  0  0  0  0
   -6.4804   35.5717  -12.2088 O   0  5  0  0  0  0  0  0  0  0  0  0
   -7.3545   39.2367   -2.4894 N   0  0  0  0  0  0  0  0  0  0  0  0
   -5.3611   43.2403   -2.6747 N   0  0  0  0  0  0  0  0  0  0  0  0
   -6.4885   37.0141  -10.0852 O   0  0  0  0  0  0  0  0  0  0  0  0
   -8.5089   35.5213  -10.6728 O   0  0  0  0  0  0  0  0  0  0  0  0
   -7.2132   38.5987   -3.7277 C   0  0  1  0  0  0  0  0  0  0  0  0
   -5.9745   42.1966   -2.1030 C   0  0  0  0  0  0  0  0  0  0  0  0
   -7.0261   42.3981   -1.3156 N   0  0  0  0  0  0  0  0  0  0  0  0
   -8.3350   38.2017   -4.4535 C   0  0  2  0  0  0  0  0  0  0  0  0
   -5.5170   40.9050   -2.3339 C   0  0  0  0  0  0  0  0  0  0  0  0
   -9.5970   38.4445   -3.9249 C   0  0  0  0  0  0  0  0  0  0  0  0
   -4.4135   40.7520   -3.1655 C   0  0  0  0  0  0  0  0  0  0  0  0
   -6.1616   39.6568   -1.7171 C   0  0  0  0  0  0  0  0  0  0  0  0
  1 13  1  0  0  0  0
  3  4  1  0  0  0  0
  4  5  1  0  0  0  0
  6  5  1  1  0  0  0
  6 10  1  0  0  0  0
  6 14  2  0  0  0  0
  6 18  1  0  0  0  0
  7 11  1  1  0  0  0
  7 15  1  0  0  0  0
  7 19  2  0  0  0  0
  7 18  1  0  0  0  0
  8 25  1  0  0  0  0
  8 12  1  0  0  0  0
  9 26  2  0  0  0  0
  9 13  1  0  0  0  0
 12 16  1  0  0  0  0
 13 17  2  0  0  0  0
 16 20  1  0  0  0  0
 16 27  1  0  0  0  0
 17 21  1  0  0  0  0
 20  2  1  6  0  0  0
 20 23  1  0  0  0  0
 21 22  1  0  0  0  0
 21 24  2  0  0  0  0
 23  3  1  1  0  0  0
 23 25  1  0  0  0  0
 24 27  1  0  0  0  0
 24 26  1  0  0  0  0
M  CHG  2  10  -1  15  -1
M  END
>  <CHROM.1>
170.04022624,-62.29652275,-49.03305716,-85.54498729,-51.23085445,-97.67559586
81.66304315,-105.66926286,-6.68483801,38.69017236,-6.02379966,-1.42177923
-0.67335221,-2.11494434

>  <Name>
ligand

>  <RI>
0

>  <Rbt.Current_Directory>
/home/itssahil/PROJECTS/Mol_Feturizer/New_Systems/rnas/3D2V

>  <Rbt.Executable>
rbdock ($Id: //depot/dev/client3/rdock/2013.1/src/exe/rbdock.cxx#4 $)

>  <Rbt.Library>
libRbt.so (2013.1, Build901 2013/11/27)

>  <Rbt.Parameter_File>
/export/apps/rDock/src/rDock_2013.1_src/data/scripts/dock_solv.prm

>  <Rbt.Receptor>
prm/blind_docking_60.prm

>  <SCORE>
-10.5704

>  <SCORE.INTER>
-11.144

>  <SCORE.INTER.CONST>
1

>  <SCORE.INTER.POLAR>
0

>  <SCORE.INTER.ROT>
8

>  <SCORE.INTER.SOLV>
22.8561

>  <SCORE.INTER.VDW>
-23.9813

>  <SCORE.INTER.norm>
-0.41274

>  <SCORE.INTRA>
0.573576

>  <SCORE.INTRA.DIHEDRAL>
-1.02581

>  <SCORE.INTRA.DIHEDRAL.0>
7.82666

>  <SCORE.INTRA.POLAR>
0

>  <SCORE.INTRA.POLAR.0>
0

>  <SCORE.INTRA.REPUL>
0

>  <SCORE.INTRA.REPUL.0>
0

>  <SCORE.INTRA.SOLV>
1.45503

>  <SCORE.INTRA.SOLV.lig_0>
-83.2758

>  <SCORE.INTRA.VDW>
0.358965

>  <SCORE.INTRA.VDW.0>
-3.26816

>  <SCORE.INTRA.norm>
0.0212436

>  <SCORE.RESTR>
0

>  <SCORE.RESTR.CAVITY>
0

>  <SCORE.RESTR.norm>
0

>  <SCORE.SYSTEM>
0

>  <SCORE.SYSTEM.CONST>
0

>  <SCORE.SYSTEM.DIHEDRAL>
0

>  <SCORE.SYSTEM.SOLV>
0

>  <SCORE.SYSTEM.norm>
0

>  <SCORE.heavy>
27

>  <SCORE.norm>
-0.391496

>  <RMSD>
6.689

$$$$
ligand
 OpenBabel11021811463D
libRbt.so/2013.1/901 2013/11/27
 27 28  0  0  0  0  0  0  0  0999 V2000
   -4.8997   40.4155    0.5558 C   0  0  0  0  0  0  0  0  0  0  0  0
   -5.5463   39.3430   -6.8825 C   0  0  0  0  0  0  0  0  0  0  0  0
   -6.3747   36.5989   -7.7537 C   0  0  0  0  0  0  0  0  0  0  0  0
   -6.4977   37.3228   -9.0959 C   0  0  0  0  0  0  0  0  0  0  0  0
   -6.2179   36.4320  -10.1786 O   0  0  0  0  0  0  0  0  0  0  0  0
   -6.0461   37.0071  -11.6685 P   0  0  1  0  0  0  0  0  0  0  0  0
   -8.2018   35.4911  -12.6740 P   0  0  2  0  0  0  0  0  0  0  0  0
   -8.9376   37.4002   -5.0629 C   0  0  0  0  0  0  0  0  0  0  0  0
   -6.6086   39.8580   -1.1636 N   0  0  0  0  0  0  0  0  0  0  0  0
   -5.5878   38.5422  -11.6453 O   0  5  0  0  0  0  0  0  0  0  0  0
   -9.3060   35.5249  -13.6548 O   0  0  0  0  0  0  0  0  0  0  0  0
   -8.5713   38.6726   -4.6445 C   0  0  0  0  0  0  0  0  0  0  0  0
   -5.4639   40.4908   -0.8633 C   0  0  0  0  0  0  0  0  0  0  0  0
   -4.9397   36.2040  -12.5314 O   0  0  0  0  0  0  0  0  0  0  0  0
   -8.7173   35.0451  -11.2211 O   0  5  0  0  0  0  0  0  0  0  0  0
   -7.4758   39.3034   -5.2359 N   0  0  0  0  0  0  0  0  0  0  0  0
   -4.8067   41.1914   -1.7988 N   0  0  0  0  0  0  0  0  0  0  0  0
   -7.4517   36.8906  -12.4791 O   0  0  0  0  0  0  0  0  0  0  0  0
   -7.1068   34.4068  -13.0854 O   0  0  0  0  0  0  0  0  0  0  0  0
   -6.7525   38.6459   -6.2382 C   0  0  1  0  0  0  0  0  0  0  0  0
   -5.2848   41.2687   -3.0469 C   0  0  0  0  0  0  0  0  0  0  0  0
   -4.6235   41.9646   -3.9661 N   0  0  0  0  0  0  0  0  0  0  0  0
   -7.1213   37.3688   -6.6578 C   0  0  1  0  0  0  0  0  0  0  0  0
   -6.4669   40.6206   -3.3837 C   0  0  0  0  0  0  0  0  0  0  0  0
   -8.2162   36.7562   -6.0607 C   0  0  0  0  0  0  0  0  0  0  0  0
   -7.1173   39.9072   -2.3834 C   0  0  0  0  0  0  0  0  0  0  0  0
   -7.0822   40.6602   -4.7886 C   0  0  0  0  0  0  0  0  0  0  0  0
  1 13  1  0  0  0  0
  3  4  1  0  0  0  0
  4  5  1  0  0  0  0
  6  5  1  1  0  0  0
  6 10  1  0  0  0  0
  6 14  2  0  0  0  0
  6 18  1  0  0  0  0
  7 11  1  6  0  0  0
  7 15  1  0  0  0  0
  7 19  2  0  0  0  0
  7 18  1  0  0  0  0
  8 25  1  0  0  0  0
  8 12  1  0  0  0  0
  9 26  2  0  0  0  0
  9 13  1  0  0  0  0
 12 16  1  0  0  0  0
 13 17  2  0  0  0  0
 16 20  1  0  0  0  0
 16 27  1  0  0  0  0
 17 21  1  0  0  0  0
 20  2  1  6  0  0  0
 20 23  1  0  0  0  0
 21 22  1  0  0  0  0
 21 24  2  0  0  0  0
 23  3  1  6  0  0  0
 23 25  1  0  0  0  0
 24 27  1  0  0  0  0
 24 26  1  0  0  0  0
M  CHG  2  10  -1  15  -1
M  END
>  <CHROM.1>
-160.42736663,-169.99979750,24.98407274,-57.16111761,-168.26864827,-64.36056974
132.70583888,71.11260809,-6.73960710,38.00761871,-7.65495385,-1.42427717
-0.62192558,-1.90222956

>  <Name>
ligand

>  <RI>
0

>  <Rbt.Current_Directory>
/home/itssahil/PROJECTS/Mol_Feturizer/New_Systems/rnas/3D2V

>  <Rbt.Executable>
rbdock ($Id: //depot/dev/client3/rdock/2013.1/src/exe/rbdock.cxx#4 $)

>  <Rbt.Library>
libRbt.so (2013.1, Build901 2013/11/27)

>  <Rbt.Parameter_File>
/export/apps/rDock/src/rDock_2013.1_src/data/scripts/dock_solv.prm

>  <Rbt.Receptor>
prm/blind_docking_60.prm

>  <SCORE>
-11.8365

>  <SCORE.INTER>
-13.4627

>  <SCORE.INTER.CONST>
1

>  <SCORE.INTER.POLAR>
0

>  <SCORE.INTER.ROT>
8

>  <SCORE.INTER.SOLV>
25.8261

>  <SCORE.INTER.VDW>
-26.5171

>  <SCORE.INTER.norm>
-0.498617

>  <SCORE.INTRA>
1.62616

>  <SCORE.INTRA.DIHEDRAL>
0.910466

>  <SCORE.INTRA.DIHEDRAL.0>
7.82666

>  <SCORE.INTRA.POLAR>
0

>  <SCORE.INTRA.POLAR.0>
0

>  <SCORE.INTRA.REPUL>
0

>  <SCORE.INTRA.REPUL.0>
0

>  <SCORE.INTRA.SOLV>
1.10949

>  <SCORE.INTRA.SOLV.lig_0>
-83.2758

>  <SCORE.INTRA.VDW>
0.616187

>  <SCORE.INTRA.VDW.0>
-3.26816

>  <SCORE.INTRA.norm>
0.0602283

>  <SCORE.RESTR>
0

>  <SCORE.RESTR.CAVITY>
0

>  <SCORE.RESTR.norm>
0

>  <SCORE.SYSTEM>
0

>  <SCORE.SYSTEM.CONST>
0

>  <SCORE.SYSTEM.DIHEDRAL>
0

>  <SCORE.SYSTEM.SOLV>
0

>  <SCORE.SYSTEM.norm>
0

>  <SCORE.heavy>
27

>  <SCORE.norm>
-0.438389

>  <RMSD>
6.704

$$$$
ligand
 OpenBabel11021811463D
libRbt.so/2013.1/901 2013/11/27
 27 28  0  0  0  0  0  0  0  0999 V2000
   -4.9241   41.5979    0.7222 C   0  0  0  0  0  0  0  0  0  0  0  0
   -8.2175   39.2795   -5.7847 C   0  0  0  0  0  0  0  0  0  0  0  0
   -8.0944   36.3334   -6.3148 C   0  0  0  0  0  0  0  0  0  0  0  0
   -8.5323   36.7832   -7.7100 C   0  0  0  0  0  0  0  0  0  0  0  0
   -8.0089   35.9073   -8.7115 O   0  0  0  0  0  0  0  0  0  0  0  0
   -6.5714   36.2017   -9.3650 P   0  0  1  0  0  0  0  0  0  0  0  0
   -7.2905   35.4805  -11.9954 P   0  0  2  0  0  0  0  0  0  0  0  0
   -4.5266   37.1141   -5.2601 C   0  0  0  0  0  0  0  0  0  0  0  0
   -5.6782   40.2012   -1.1929 N   0  0  0  0  0  0  0  0  0  0  0  0
   -5.8464   37.4300   -8.6352 O   0  5  0  0  0  0  0  0  0  0  0  0
   -8.0721   34.3833  -11.3889 O   0  0  0  0  0  0  0  0  0  0  0  0
   -4.5616   38.4792   -5.0082 C   0  0  0  0  0  0  0  0  0  0  0  0
   -5.1485   41.3599   -0.7714 C   0  0  0  0  0  0  0  0  0  0  0  0
   -5.5636   34.9414   -9.2671 O   0  0  0  0  0  0  0  0  0  0  0  0
   -6.0145   34.9238  -12.7940 O   0  5  0  0  0  0  0  0  0  0  0  0
   -5.7571   39.1798   -5.1743 N   0  0  0  0  0  0  0  0  0  0  0  0
   -4.8125   42.3155   -1.6501 N   0  0  0  0  0  0  0  0  0  0  0  0
   -6.7360   36.5521  -10.9451 O   0  0  0  0  0  0  0  0  0  0  0  0
   -8.1573   36.2667  -13.0791 O   0  0  0  0  0  0  0  0  0  0  0  0
   -6.9063   38.5030   -5.6003 C   0  0  1  0  0  0  0  0  0  0  0  0
   -5.0012   42.1253   -2.9618 C   0  0  0  0  0  0  0  0  0  0  0  0
   -4.6625   43.0790   -3.8233 N   0  0  0  0  0  0  0  0  0  0  0  0
   -6.8703   37.1326   -5.8524 C   0  0  2  0  0  0  0  0  0  0  0  0
   -5.5459   40.9334   -3.4238 C   0  0  0  0  0  0  0  0  0  0  0  0
   -5.6727   36.4495   -5.6794 C   0  0  0  0  0  0  0  0  0  0  0  0
   -5.8820   39.9705   -2.4791 C   0  0  0  0  0  0  0  0  0  0  0  0
   -5.7953   40.6371   -4.9083 C   0  0  0  0  0  0  0  0  0  0  0  0
  1 13  1  0  0  0  0
  3  4  1  0  0  0  0
  4  5  1  0  0  0  0
  6  5  1  1  0  0  0
  6 10  1  0  0  0  0
  6 14  2  0  0  0  0
  6 18  1  0  0  0  0
  7 11  1  1  0  0  0
  7 15  1  0  0  0  0
  7 19  2  0  0  0  0
  7 18  1  0  0  0  0
  8 25  1  0  0  0  0
  8 12  1  0  0  0  0
  9 26  2  0  0  0  0
  9 13  1  0  0  0  0
 12 16  1  0  0  0  0
 13 17  2  0  0  0  0
 16 20  1  0  0  0  0
 16 27  1  0  0  0  0
 17 21  1  0  0  0  0
 20  2  1  1  0  0  0
 20 23  1  0  0  0  0
 21 22  1  0  0  0  0
 21 24  2  0  0  0  0
 23  3  1  6  0  0  0
 23 25  1  0  0  0  0
 24 27  1  0  0  0  0
 24 26  1  0  0  0  0
M  CHG  2  10  -1  15  -1
M  END
>  <CHROM.1>
97.49799111,-89.41327967,6.02338420,-64.13687216,20.96318753,65.69733185
153.20878444,-65.59754983,-6.36396313,37.96702957,-6.85265622,1.01007397
1.23574477,1.55362466

>  <Name>
ligand

>  <RI>
0

>  <Rbt.Current_Directory>
/home/itssahil/PROJECTS/Mol_Feturizer/New_Systems/rnas/3D2V

>  <Rbt.Executable>
rbdock ($Id: //depot/dev/client3/rdock/2013.1/src/exe/rbdock.cxx#4 $)

>  <Rbt.Library>
libRbt.so (2013.1, Build901 2013/11/27)

>  <Rbt.Parameter_File>
/export/apps/rDock/src/rDock_2013.1_src/data/scripts/dock_solv.prm

>  <Rbt.Receptor>
prm/blind_docking_60.prm

>  <SCORE>
-6.9209

>  <SCORE.INTER>
-11.0119

>  <SCORE.INTER.CONST>
1

>  <SCORE.INTER.POLAR>
0

>  <SCORE.INTER.ROT>
8

>  <SCORE.INTER.SOLV>
25.9013

>  <SCORE.INTER.VDW>
-24.9083

>  <SCORE.INTER.norm>
-0.407847

>  <SCORE.INTRA>
4.079

>  <SCORE.INTRA.DIHEDRAL>
8.74554

>  <SCORE.INTRA.DIHEDRAL.0>
7.82666

>  <SCORE.INTRA.POLAR>
0

>  <SCORE.INTRA.POLAR.0>
0

>  <SCORE.INTRA.REPUL>
0

>  <SCORE.INTRA.REPUL.0>
0

>  <SCORE.INTRA.SOLV>
0.0933479

>  <SCORE.INTRA.SOLV.lig_0>
-83.2758

>  <SCORE.INTRA.VDW>
-0.340446

>  <SCORE.INTRA.VDW.0>
-3.26816

>  <SCORE.INTRA.norm>
0.151074

>  <SCORE.RESTR>
0.0119775

>  <SCORE.RESTR.CAVITY>
0.0119775

>  <SCORE.RESTR.norm>
0.00044361

>  <SCORE.SYSTEM>
0

>  <SCORE.SYSTEM.CONST>
0

>  <SCORE.SYSTEM.DIHEDRAL>
0

>  <SCORE.SYSTEM.SOLV>
0

>  <SCORE.SYSTEM.norm>
0

>  <SCORE.heavy>
27

>  <SCORE.norm>
-0.25633

>  <RMSD>
6.728

$$$$
ligand
 OpenBabel11021811463D
libRbt.so/2013.1/901 2013/11/27
 27 28  0  0  0  0  0  0  0  0999 V2000
   -7.9063   45.2949   -3.4305 C   0  0  0  0  0  0  0  0  0  0  0  0
   -5.4608   40.4864   -5.6930 C   0  0  0  0  0  0  0  0  0  0  0  0
   -6.0158   39.3952   -8.4273 C   0  0  0  0  0  0  0  0  0  0  0  0
   -5.6185   38.1714   -9.2550 C   0  0  0  0  0  0  0  0  0  0  0  0
   -6.7781   37.4634   -9.7002 O   0  0  0  0  0  0  0  0  0  0  0  0
   -6.6259   36.2339  -10.7224 P   0  0  1  0  0  0  0  0  0  0  0  0
   -8.2637   34.7767  -12.4973 P   0  0  2  0  0  0  0  0  0  0  0  0
   -8.6265   37.6247   -6.3058 C   0  0  0  0  0  0  0  0  0  0  0  0
   -8.2945   43.0133   -4.3418 N   0  0  0  0  0  0  0  0  0  0  0  0
   -5.7355   36.6439  -11.9898 O   0  5  0  0  0  0  0  0  0  0  0  0
   -7.0008   34.4458  -13.1887 O   0  0  0  0  0  0  0  0  0  0  0  0
   -8.3867   38.1181   -5.0302 C   0  0  0  0  0  0  0  0  0  0  0  0
   -7.6832   43.7823   -3.4275 C   0  0  0  0  0  0  0  0  0  0  0  0
   -5.9189   34.9422  -10.0552 O   0  0  0  0  0  0  0  0  0  0  0  0
   -9.3086   35.4876  -13.4866 O   0  5  0  0  0  0  0  0  0  0  0  0
   -7.3645   39.0474   -4.8320 N   0  0  0  0  0  0  0  0  0  0  0  0
   -6.8754   43.2358   -2.5073 N   0  0  0  0  0  0  0  0  0  0  0  0
   -8.0906   35.7536  -11.2425 O   0  0  0  0  0  0  0  0  0  0  0  0
   -8.9970   33.4557  -11.9864 O   0  0  0  0  0  0  0  0  0  0  0  0
   -6.5861   39.4669   -5.9175 C   0  0  1  0  0  0  0  0  0  0  0  0
   -6.6680   41.9133   -2.4886 C   0  0  0  0  0  0  0  0  0  0  0  0
   -5.8667   41.3829   -1.5705 N   0  0  0  0  0  0  0  0  0  0  0  0
   -6.8279   38.9713   -7.1977 C   0  0  1  0  0  0  0  0  0  0  0  0
   -7.2911   41.0951   -3.4231 C   0  0  0  0  0  0  0  0  0  0  0  0
   -7.8514   38.0490   -7.3782 C   0  0  0  0  0  0  0  0  0  0  0  0
   -8.1186   41.7026   -4.3604 C   0  0  0  0  0  0  0  0  0  0  0  0
   -7.1058   39.5728   -3.4708 C   0  0  0  0  0  0  0  0  0  0  0  0
  1 13  1  0  0  0  0
  3  4  1  0  0  0  0
  4  5  1  0  0  0  0
  6  5  1  1  0  0  0
  6 10  1  0  0  0  0
  6 14  2  0  0  0  0
  6 18  1  0  0  0  0
  7 11  1  6  0  0  0
  7 15  1  0  0  0  0
  7 19  2  0  0  0  0
  7 18  1  0  0  0  0
  8 25  1  0  0  0  0
  8 12  1  0  0  0  0
  9 26  2  0  0  0  0
  9 13  1  0  0  0  0
 12 16  1  0  0  0  0
 13 17  2  0  0  0  0
 16 20  1  0  0  0  0
 16 27  1  0  0  0  0
 17 21  1  0  0  0  0
 20  2  1  6  0  0  0
 20 23  1  0  0  0  0
 21 22  1  0  0  0  0
 21 24  2  0  0  0  0
 23  3  1  6  0  0  0
 23 25  1  0  0  0  0
 24 27  1  0  0  0  0
 24 26  1  0  0  0  0
M  CHG  2  10  -1  15  -1
M  END
>  <CHROM.1>
59.79150465,173.25001481,-50.71855826,166.35861302,-4.50932255,133.98961465
-155.17630513,-119.46019529,-7.23830067,38.44398240,-7.78096097,-0.88650518
-1.51160274,-1.57005557

>  <Name>
ligand

>  <RI>
0

>  <Rbt.Current_Directory>
/home/itssahil/PROJECTS/Mol_Feturizer/New_Systems/rnas/3D2V

>  <Rbt.Executable>
rbdock ($Id: //depot/dev/client3/rdock/2013.1/src/exe/rbdock.cxx#4 $)

>  <Rbt.Library>
libRbt.so (2013.1, Build901 2013/11/27)

>  <Rbt.Parameter_File>
/export/apps/rDock/src/rDock_2013.1_src/data/scripts/dock_solv.prm

>  <Rbt.Receptor>
prm/blind_docking_60.prm

>  <SCORE>
-2.42948

>  <SCORE.INTER>
-4.37876

>  <SCORE.INTER.CONST>
1

>  <SCORE.INTER.POLAR>
0

>  <SCORE.INTER.ROT>
8

>  <SCORE.INTER.SOLV>
21.0233

>  <SCORE.INTER.VDW>
-18.8603

>  <SCORE.INTER.norm>
-0.162176

>  <SCORE.INTRA>
1.49835

>  <SCORE.INTRA.DIHEDRAL>
0.337159

>  <SCORE.INTRA.DIHEDRAL.0>
7.82666

>  <SCORE.INTRA.POLAR>
0

>  <SCORE.INTRA.POLAR.0>
0

>  <SCORE.INTRA.REPUL>
0

>  <SCORE.INTRA.REPUL.0>
0

>  <SCORE.INTRA.SOLV>
-0.858188

>  <SCORE.INTRA.SOLV.lig_0>
-83.2758

>  <SCORE.INTRA.VDW>
1.75886

>  <SCORE.INTRA.VDW.0>
-3.26816

>  <SCORE.INTRA.norm>
0.0554943

>  <SCORE.RESTR>
0.450932

>  <SCORE.RESTR.CAVITY>
0.450932

>  <SCORE.RESTR.norm>
0.0167012

>  <SCORE.SYSTEM>
0

>  <SCORE.SYSTEM.CONST>
0

>  <SCORE.SYSTEM.DIHEDRAL>
0

>  <SCORE.SYSTEM.SOLV>
0

>  <SCORE.SYSTEM.norm>
0

>  <SCORE.heavy>
27

>  <SCORE.norm>
-0.0899807

>  <RMSD>
6.750

$$$$
ligand
 OpenBabel11021811473D
libRbt.so/2013.1/901 2013/11/27
 27 28  0  0  0  0  0  0  0  0999 V2000
   -4.9149   38.1275   -5.8351 C   0  0  0  0  0  0  0  0  0  0  0  0
   -3.1298   44.4694   -9.8535 C   0  0  0  0  0  0  0  0  0  0  0  0
   -4.8102   46.9036   -9.3774 C   0  0  0  0  0  0  0  0  0  0  0  0
   -5.2864   47.5256   -8.0633 C   0  0  0  0  0  0  0  0  0  0  0  0
   -4.8182   46.7670   -6.9454 O   0  0  0  0  0  0  0  0  0  0  0  0
   -3.4525   47.1814   -6.2084 P   0  0  1  0  0  0  0  0  0  0  0  0
   -0.7192   47.4927   -6.8318 P   0  0  2  0  0  0  0  0  0  0  0  0
   -7.4261   44.1611   -9.6713 C   0  0  0  0  0  0  0  0  0  0  0  0
   -5.1778   38.8021   -8.2148 N   0  0  0  0  0  0  0  0  0  0  0  0
   -3.5925   48.6085   -5.4937 O   0  5  0  0  0  0  0  0  0  0  0  0
   -0.5727   48.3311   -5.6242 O   0  0  0  0  0  0  0  0  0  0  0  0
   -6.6663   43.0200   -9.8923 C   0  0  0  0  0  0  0  0  0  0  0  0
   -4.7891   39.1385   -6.9752 C   0  0  0  0  0  0  0  0  0  0  0  0
   -3.0085   46.1292   -5.0641 O   0  0  0  0  0  0  0  0  0  0  0  0
    0.0343   48.1387   -8.0929 O   0  5  0  0  0  0  0  0  0  0  0  0
   -5.2753   43.1188   -9.9477 N   0  0  0  0  0  0  0  0  0  0  0  0
   -4.2894   40.3573   -6.7246 N   0  0  0  0  0  0  0  0  0  0  0  0
   -2.2342   47.2498   -7.2843 O   0  0  0  0  0  0  0  0  0  0  0  0
   -0.0410   46.0647   -6.6201 O   0  0  0  0  0  0  0  0  0  0  0  0
   -4.6599   44.3662   -9.7882 C   0  0  1  0  0  0  0  0  0  0  0  0
   -4.1712   41.2560   -7.7100 C   0  0  0  0  0  0  0  0  0  0  0  0
   -3.6727   42.4602   -7.4499 N   0  0  0  0  0  0  0  0  0  0  0  0
   -5.4235   45.5110   -9.5658 C   0  0  2  0  0  0  0  0  0  0  0  0
   -4.5644   40.9313   -9.0026 C   0  0  0  0  0  0  0  0  0  0  0  0
   -6.8071   45.3947   -9.5106 C   0  0  0  0  0  0  0  0  0  0  0  0
   -5.0789   39.6580   -9.2182 C   0  0  0  0  0  0  0  0  0  0  0  0
   -4.4633   41.9024  -10.1861 C   0  0  0  0  0  0  0  0  0  0  0  0
  1 13  1  0  0  0  0
  3  4  1  0  0  0  0
  4  5  1  0  0  0  0
  6  5  1  6  0  0  0
  6 10  1  0  0  0  0
  6 14  2  0  0  0  0
  6 18  1  0  0  0  0
  7 11  1  1  0  0  0
  7 15  1  0  0  0  0
  7 19  2  0  0  0  0
  7 18  1  0  0  0  0
  8 25  1  0  0  0  0
  8 12  1  0  0  0  0
  9 26  2  0  0  0  0
  9 13  1  0  0  0  0
 12 16  1  0  0  0  0
 13 17  2  0  0  0  0
 16 20  1  0  0  0  0
 16 27  1  0  0  0  0
 17 21  1  0  0  0  0
 20  2  1  1  0  0  0
 20 23  1  0  0  0  0
 21 22  1  0  0  0  0
 21 24  2  0  0  0  0
 23  3  1  6  0  0  0
 23 25  1  0  0  0  0
 24 27  1  0  0  0  0
 24 26  1  0  0  0  0
M  CHG  2  10  -1  15  -1
M  END
>  <CHROM.1>
64.38305678,94.05738022,65.67969012,-173.74483012,-31.48678968,-125.00877184
-60.41558361,-66.86523630,-3.74342246,44.60997842,-7.74975258,-2.10166935
-0.67843618,-0.13424617

>  <Name>
ligand

>  <RI>
0

>  <Rbt.Current_Directory>
/home/itssahil/PROJECTS/Mol_Feturizer/New_Systems/rnas/3D2V

>  <Rbt.Executable>
rbdock ($Id: //depot/dev/client3/rdock/2013.1/src/exe/rbdock.cxx#4 $)

>  <Rbt.Library>
libRbt.so (2013.1, Build901 2013/11/27)

>  <Rbt.Parameter_File>
/export/apps/rDock/src/rDock_2013.1_src/data/scripts/dock_solv.prm

>  <Rbt.Receptor>
prm/pocket_docking_6.prm

>  <SCORE>
-11.0291

>  <SCORE.INTER>
-12.5369

>  <SCORE.INTER.CONST>
1

>  <SCORE.INTER.POLAR>
0

>  <SCORE.INTER.ROT>
8

>  <SCORE.INTER.SOLV>
9.48444

>  <SCORE.INTER.VDW>
-20.4527

>  <SCORE.INTER.norm>
-0.464329

>  <SCORE.INTRA>
1.50782

>  <SCORE.INTRA.DIHEDRAL>
3.00671

>  <SCORE.INTRA.DIHEDRAL.0>
7.82666

>  <SCORE.INTRA.POLAR>
0

>  <SCORE.INTRA.POLAR.0>
0

>  <SCORE.INTRA.REPUL>
0

>  <SCORE.INTRA.REPUL.0>
0

>  <SCORE.INTRA.SOLV>
2.12837

>  <SCORE.INTRA.SOLV.lig_0>
-83.2758

>  <SCORE.INTRA.VDW>
-1.05972

>  <SCORE.INTRA.VDW.0>
-3.26816

>  <SCORE.INTRA.norm>
0.0558452

>  <SCORE.RESTR>
0

>  <SCORE.RESTR.CAVITY>
0

>  <SCORE.RESTR.norm>
0

>  <SCORE.SYSTEM>
0

>  <SCORE.SYSTEM.CONST>
0

>  <SCORE.SYSTEM.DIHEDRAL>
0

>  <SCORE.SYSTEM.SOLV>
0

>  <SCORE.SYSTEM.norm>
0

>  <SCORE.heavy>
27

>  <SCORE.norm>
-0.408484

>  <RMSD>
6.761

$$$$
ligand
 OpenBabel11021811463D
libRbt.so/2013.1/901 2013/11/27
 27 28  0  0  0  0  0  0  0  0999 V2000
   -4.9817   40.4801    0.3574 C   0  0  0  0  0  0  0  0  0  0  0  0
   -8.5123   38.8907   -7.3970 C   0  0  0  0  0  0  0  0  0  0  0  0
   -7.7200   36.2238   -8.5086 C   0  0  0  0  0  0  0  0  0  0  0  0
   -6.5307   35.9006   -9.4151 C   0  0  0  0  0  0  0  0  0  0  0  0
   -6.9748   35.3278  -10.6475 O   0  0  0  0  0  0  0  0  0  0  0  0
   -5.9123   34.6716  -11.6577 P   0  0  1  0  0  0  0  0  0  0  0  0
   -3.8468   35.4903  -13.3954 P   0  0  2  0  0  0  0  0  0  0  0  0
   -5.9249   36.2680   -5.1580 C   0  0  0  0  0  0  0  0  0  0  0  0
   -6.7326   39.5090   -1.1186 N   0  0  0  0  0  0  0  0  0  0  0  0
   -4.9240   33.6732  -10.8873 O   0  5  0  0  0  0  0  0  0  0  0  0
   -2.7090   34.7715  -12.7862 O   0  0  0  0  0  0  0  0  0  0  0  0
   -6.2802   37.4994   -4.6238 C   0  0  0  0  0  0  0  0  0  0  0  0
   -5.6357   40.2745   -1.0092 C   0  0  0  0  0  0  0  0  0  0  0  0
   -6.6097   33.8165  -12.8393 O   0  0  0  0  0  0  0  0  0  0  0  0
   -3.3848   36.8839  -14.0435 O   0  5  0  0  0  0  0  0  0  0  0  0
   -7.1208   38.3472   -5.3466 N   0  0  0  0  0  0  0  0  0  0  0  0
   -5.1049   40.8635   -2.0906 N   0  0  0  0  0  0  0  0  0  0  0  0
   -5.0299   35.8347  -12.3752 O   0  0  0  0  0  0  0  0  0  0  0  0
   -4.4727   34.6513  -14.5989 O   0  0  0  0  0  0  0  0  0  0  0  0
   -7.5910   37.9527   -6.6050 C   0  0  1  0  0  0  0  0  0  0  0  0
   -5.6633   40.6950   -3.2957 C   0  0  0  0  0  0  0  0  0  0  0  0
   -5.1270   41.2824   -4.3605 N   0  0  0  0  0  0  0  0  0  0  0  0
   -7.2341   36.7160   -7.1402 C   0  0  1  0  0  0  0  0  0  0  0  0
   -6.7980   39.9054   -3.4357 C   0  0  0  0  0  0  0  0  0  0  0  0
   -6.3988   35.8828   -6.4062 C   0  0  0  0  0  0  0  0  0  0  0  0
   -7.3169   39.3150   -2.2891 C   0  0  0  0  0  0  0  0  0  0  0  0
   -7.4987   39.6627   -4.7789 C   0  0  0  0  0  0  0  0  0  0  0  0
  1 13  1  0  0  0  0
  3  4  1  0  0  0  0
  4  5  1  0  0  0  0
  6  5  1  1  0  0  0
  6 10  1  0  0  0  0
  6 14  2  0  0  0  0
  6 18  1  0  0  0  0
  7 11  1  1  0  0  0
  7 15  1  0  0  0  0
  7 19  2  0  0  0  0
  7 18  1  0  0  0  0
  8 25  1  0  0  0  0
  8 12  1  0  0  0  0
  9 26  2  0  0  0  0
  9 13  1  0  0  0  0
 12 16  1  0  0  0  0
 13 17  2  0  0  0  0
 16 20  1  0  0  0  0
 16 27  1  0  0  0  0
 17 21  1  0  0  0  0
 20  2  1  1  0  0  0
 20 23  1  0  0  0  0
 21 22  1  0  0  0  0
 21 24  2  0  0  0  0
 23  3  1  1  0  0  0
 23 25  1  0  0  0  0
 24 27  1  0  0  0  0
 24 26  1  0  0  0  0
M  CHG  2  10  -1  15  -1
M  END
>  <CHROM.1>
174.76903807,-169.44052229,48.36461498,177.59297563,-64.80555347,122.58908019
100.12146693,2.90636291,-5.85055615,37.13308477,-7.97620195,-1.71428135,-0.51610935
-2.08127075

>  <Name>
ligand

>  <RI>
0

>  <Rbt.Current_Directory>
/home/itssahil/PROJECTS/Mol_Feturizer/New_Systems/rnas/3D2V

>  <Rbt.Executable>
rbdock ($Id: //depot/dev/client3/rdock/2013.1/src/exe/rbdock.cxx#4 $)

>  <Rbt.Library>
libRbt.so (2013.1, Build901 2013/11/27)

>  <Rbt.Parameter_File>
/export/apps/rDock/src/rDock_2013.1_src/data/scripts/dock_solv.prm

>  <Rbt.Receptor>
prm/blind_docking_100.prm

>  <SCORE>
-14.2789

>  <SCORE.INTER>
-14.0885

>  <SCORE.INTER.CONST>
1

>  <SCORE.INTER.POLAR>
0

>  <SCORE.INTER.ROT>
8

>  <SCORE.INTER.SOLV>
17.914

>  <SCORE.INTER.VDW>
-24.297

>  <SCORE.INTER.norm>
-0.521796

>  <SCORE.INTRA>
-0.190446

>  <SCORE.INTRA.DIHEDRAL>
-1.72454

>  <SCORE.INTRA.DIHEDRAL.0>
7.82666

>  <SCORE.INTRA.POLAR>
0

>  <SCORE.INTRA.POLAR.0>
0

>  <SCORE.INTRA.REPUL>
0

>  <SCORE.INTRA.REPUL.0>
0

>  <SCORE.INTRA.SOLV>
-0.449216

>  <SCORE.INTRA.SOLV.lig_0>
-83.2758

>  <SCORE.INTRA.VDW>
0.896431

>  <SCORE.INTRA.VDW.0>
-3.26816

>  <SCORE.INTRA.norm>
-0.00705354

>  <SCORE.RESTR>
0

>  <SCORE.RESTR.CAVITY>
0

>  <SCORE.RESTR.norm>
0

>  <SCORE.SYSTEM>
0

>  <SCORE.SYSTEM.CONST>
0

>  <SCORE.SYSTEM.DIHEDRAL>
0

>  <SCORE.SYSTEM.SOLV>
0

>  <SCORE.SYSTEM.norm>
0

>  <SCORE.heavy>
27

>  <SCORE.norm>
-0.52885

>  <RMSD>
6.793

$$$$
ligand
 OpenBabel11021811473D
libRbt.so/2013.1/901 2013/11/27
 27 28  0  0  0  0  0  0  0  0999 V2000
   -4.8941   38.0332   -5.4134 C   0  0  0  0  0  0  0  0  0  0  0  0
   -3.3495   44.1007  -10.3625 C   0  0  0  0  0  0  0  0  0  0  0  0
   -5.1295   46.4954  -10.0930 C   0  0  0  0  0  0  0  0  0  0  0  0
   -5.2935   47.2617   -8.7790 C   0  0  0  0  0  0  0  0  0  0  0  0
   -4.5592   46.6279   -7.7286 O   0  0  0  0  0  0  0  0  0  0  0  0
   -4.7101   47.1471   -6.2161 P   0  0  1  0  0  0  0  0  0  0  0  0
   -6.7815   45.3903   -5.4547 P   0  0  2  0  0  0  0  0  0  0  0  0
   -7.5545   43.6203   -9.5415 C   0  0  0  0  0  0  0  0  0  0  0  0
   -5.2388   38.5343   -7.8253 N   0  0  0  0  0  0  0  0  0  0  0  0
   -3.6718   46.4072   -5.2457 O   0  5  0  0  0  0  0  0  0  0  0  0
   -6.8206   44.5646   -6.6792 O   0  0  0  0  0  0  0  0  0  0  0  0
   -6.7474   42.4968   -9.6619 C   0  0  0  0  0  0  0  0  0  0  0  0
   -4.7889   38.9511   -6.6317 C   0  0  0  0  0  0  0  0  0  0  0  0
   -4.4404   48.7337   -6.0635 O   0  0  0  0  0  0  0  0  0  0  0  0
   -8.2400   45.5494   -4.8042 O   0  5  0  0  0  0  0  0  0  0  0  0
   -5.3854   42.6519   -9.9239 N   0  0  0  0  0  0  0  0  0  0  0  0
   -4.2457   40.1695   -6.4955 N   0  0  0  0  0  0  0  0  0  0  0  0
   -6.2204   46.8717   -5.6778 O   0  0  0  0  0  0  0  0  0  0  0  0
   -5.8894   44.6979   -4.3284 O   0  0  0  0  0  0  0  0  0  0  0  0
   -4.8475   43.9362  -10.0708 C   0  0  1  0  0  0  0  0  0  0  0  0
   -4.1447   40.9873   -7.5507 C   0  0  0  0  0  0  0  0  0  0  0  0
   -3.6027   42.1919   -7.4038 N   0  0  0  0  0  0  0  0  0  0  0  0
   -5.6584   45.0634   -9.9492 C   0  0  2  0  0  0  0  0  0  0  0  0
   -4.6010   40.5782   -8.7978 C   0  0  0  0  0  0  0  0  0  0  0  0
   -7.0118   44.8913   -9.6853 C   0  0  0  0  0  0  0  0  0  0  0  0
   -5.1590   39.3087   -8.8944 C   0  0  0  0  0  0  0  0  0  0  0  0
   -4.5234   41.4538  -10.0553 C   0  0  0  0  0  0  0  0  0  0  0  0
  1 13  1  0  0  0  0
  3  4  1  0  0  0  0
  4  5  1  0  0  0  0
  6  5  1  6  0  0  0
  6 10  1  0  0  0  0
  6 14  2  0  0  0  0
  6 18  1  0  0  0  0
  7 11  1  6  0  0  0
  7 15  1  0  0  0  0
  7 19  2  0  0  0  0
  7 18  1  0  0  0  0
  8 25  1  0  0  0  0
  8 12  1  0  0  0  0
  9 26  2  0  0  0  0
  9 13  1  0  0  0  0
 12 16  1  0  0  0  0
 13 17  2  0  0  0  0
 16 20  1  0  0  0  0
 16 27  1  0  0  0  0
 17 21  1  0  0  0  0
 20  2  1  1  0  0  0
 20 23  1  0  0  0  0
 21 22  1  0  0  0  0
 21 24  2  0  0  0  0
 23  3  1  6  0  0  0
 23 25  1  0  0  0  0
 24 27  1  0  0  0  0
 24 26  1  0  0  0  0
M  CHG  2  10  -1  15  -1
M  END
>  <CHROM.1>
60.63416687,-172.92137659,-173.33055970,66.57169151,-61.22597967,-116.57456903
-65.36817488,-56.78435308,-5.34452941,43.94155095,-7.47506880,0.96519447
-1.41778393,2.74702430

>  <Name>
ligand

>  <RI>
0

>  <Rbt.Current_Directory>
/home/itssahil/PROJECTS/Mol_Feturizer/New_Systems/rnas/3D2V

>  <Rbt.Executable>
rbdock ($Id: //depot/dev/client3/rdock/2013.1/src/exe/rbdock.cxx#4 $)

>  <Rbt.Library>
libRbt.so (2013.1, Build901 2013/11/27)

>  <Rbt.Parameter_File>
/export/apps/rDock/src/rDock_2013.1_src/data/scripts/dock_solv.prm

>  <Rbt.Receptor>
prm/pocket_docking_6.prm

>  <SCORE>
-16.6469

>  <SCORE.INTER>
-13.8715

>  <SCORE.INTER.CONST>
1

>  <SCORE.INTER.POLAR>
0

>  <SCORE.INTER.ROT>
8

>  <SCORE.INTER.SOLV>
11.3825

>  <SCORE.INTER.VDW>
-21.9752

>  <SCORE.INTER.norm>
-0.513758

>  <SCORE.INTRA>
-2.77539

>  <SCORE.INTRA.DIHEDRAL>
-2.25786

>  <SCORE.INTRA.DIHEDRAL.0>
7.82666

>  <SCORE.INTRA.POLAR>
0

>  <SCORE.INTRA.POLAR.0>
0

>  <SCORE.INTRA.REPUL>
0

>  <SCORE.INTRA.REPUL.0>
0

>  <SCORE.INTRA.SOLV>
0.433609

>  <SCORE.INTRA.SOLV.lig_0>
-83.2758

>  <SCORE.INTRA.VDW>
-1.86326

>  <SCORE.INTRA.VDW.0>
-3.26816

>  <SCORE.INTRA.norm>
-0.102792

>  <SCORE.RESTR>
0

>  <SCORE.RESTR.CAVITY>
0

>  <SCORE.RESTR.norm>
0

>  <SCORE.SYSTEM>
0

>  <SCORE.SYSTEM.CONST>
0

>  <SCORE.SYSTEM.DIHEDRAL>
0

>  <SCORE.SYSTEM.SOLV>
0

>  <SCORE.SYSTEM.norm>
0

>  <SCORE.heavy>
27

>  <SCORE.norm>
-0.61655

>  <RMSD>
6.797

$$$$
ligand
 OpenBabel11021811463D
libRbt.so/2013.1/901 2013/11/27
 27 28  0  0  0  0  0  0  0  0999 V2000
   -6.1421   35.6417  -10.4742 C   0  0  0  0  0  0  0  0  0  0  0  0
   -5.6561   39.8814   -4.6481 C   0  0  0  0  0  0  0  0  0  0  0  0
   -7.1863   39.2027   -2.1635 C   0  0  0  0  0  0  0  0  0  0  0  0
   -7.7510   40.1634   -1.1153 C   0  0  0  0  0  0  0  0  0  0  0  0
   -6.7833   40.4259   -0.0960 O   0  0  0  0  0  0  0  0  0  0  0  0
   -5.4839   41.3090   -0.4299 P   0  0  1  0  0  0  0  0  0  0  0  0
   -5.9847   43.4892   -2.1481 P   0  0  2  0  0  0  0  0  0  0  0  0
   -9.9458   39.4676   -4.7648 C   0  0  0  0  0  0  0  0  0  0  0  0
   -5.9856   38.0681   -9.9492 N   0  0  0  0  0  0  0  0  0  0  0  0
   -5.3043   42.4958    0.6314 O   0  5  0  0  0  0  0  0  0  0  0  0
   -6.9767   44.0221   -1.1919 O   0  0  0  0  0  0  0  0  0  0  0  0
   -9.2561   39.7819   -5.9283 C   0  0  0  0  0  0  0  0  0  0  0  0
   -6.4123   36.8510   -9.5783 C   0  0  0  0  0  0  0  0  0  0  0  0
   -4.1140   40.4508   -0.4047 O   0  0  0  0  0  0  0  0  0  0  0  0
   -6.5010   43.6116   -3.6628 O   0  5  0  0  0  0  0  0  0  0  0  0
   -7.8670   39.9123   -5.8917 N   0  0  0  0  0  0  0  0  0  0  0  0
   -7.0760   36.6833   -8.4253 N   0  0  0  0  0  0  0  0  0  0  0  0
   -5.6108   41.9507   -1.9194 O   0  0  0  0  0  0  0  0  0  0  0  0
   -4.6310   44.3309   -2.0936 O   0  0  0  0  0  0  0  0  0  0  0  0
   -7.1834   39.7332   -4.6831 C   0  0  1  0  0  0  0  0  0  0  0  0
   -7.3217   37.7300   -7.6275 C   0  0  0  0  0  0  0  0  0  0  0  0
   -7.9788   37.5511   -6.4862 N   0  0  0  0  0  0  0  0  0  0  0  0
   -7.8766   39.4172   -3.5158 C   0  0  1  0  0  0  0  0  0  0  0  0
   -6.8884   39.0001   -7.9879 C   0  0  0  0  0  0  0  0  0  0  0  0
   -9.2591   39.2882   -3.5701 C   0  0  0  0  0  0  0  0  0  0  0  0
   -6.2061   39.1298   -9.1921 C   0  0  0  0  0  0  0  0  0  0  0  0
   -7.1300   40.2503   -7.1320 C   0  0  0  0  0  0  0  0  0  0  0  0
  1 13  1  0  0  0  0
  3  4  1  0  0  0  0
  4  5  1  0  0  0  0
  6  5  1  1  0  0  0
  6 10  1  0  0  0  0
  6 14  2  0  0  0  0
  6 18  1  0  0  0  0
  7 11  1  1  0  0  0
  7 15  1  0  0  0  0
  7 19  2  0  0  0  0
  7 18  1  0  0  0  0
  8 25  1  0  0  0  0
  8 12  1  0  0  0  0
  9 26  2  0  0  0  0
  9 13  1  0  0  0  0
 12 16  1  0  0  0  0
 13 17  2  0  0  0  0
 16 20  1  0  0  0  0
 16 27  1  0  0  0  0
 17 21  1  0  0  0  0
 20  2  1  6  0  0  0
 20 23  1  0  0  0  0
 21 22  1  0  0  0  0
 21 24  2  0  0  0  0
 23  3  1  6  0  0  0
 23 25  1  0  0  0  0
 24 27  1  0  0  0  0
 24 26  1  0  0  0  0
M  CHG  2  10  -1  15  -1
M  END
>  <CHROM.1>
-153.46818207,70.30862275,128.58903322,103.60803743,-37.32267611,122.68109145
0.35219603,-82.08724541,-6.65672301,40.31242466,-4.16012306,-1.82984838,1.06127502
1.25016703

>  <Name>
ligand

>  <RI>
0

>  <Rbt.Current_Directory>
/home/itssahil/PROJECTS/Mol_Feturizer/New_Systems/rnas/3D2V

>  <Rbt.Executable>
rbdock ($Id: //depot/dev/client3/rdock/2013.1/src/exe/rbdock.cxx#4 $)

>  <Rbt.Library>
libRbt.so (2013.1, Build901 2013/11/27)

>  <Rbt.Parameter_File>
/export/apps/rDock/src/rDock_2013.1_src/data/scripts/dock_solv.prm

>  <Rbt.Receptor>
prm/blind_docking_60.prm

>  <SCORE>
-6.97778

>  <SCORE.INTER>
-12.8319

>  <SCORE.INTER.CONST>
1

>  <SCORE.INTER.POLAR>
0

>  <SCORE.INTER.ROT>
8

>  <SCORE.INTER.SOLV>
20.5648

>  <SCORE.INTER.VDW>
-24.3429

>  <SCORE.INTER.norm>
-0.475255

>  <SCORE.INTRA>
5.85409

>  <SCORE.INTRA.DIHEDRAL>
5.16351

>  <SCORE.INTRA.DIHEDRAL.0>
7.82666

>  <SCORE.INTRA.POLAR>
0

>  <SCORE.INTRA.POLAR.0>
0

>  <SCORE.INTRA.REPUL>
0

>  <SCORE.INTRA.REPUL.0>
0

>  <SCORE.INTRA.SOLV>
5.44761

>  <SCORE.INTRA.SOLV.lig_0>
-83.2758

>  <SCORE.INTRA.VDW>
0.548538

>  <SCORE.INTRA.VDW.0>
-3.26816

>  <SCORE.INTRA.norm>
0.216818

>  <SCORE.RESTR>
0

>  <SCORE.RESTR.CAVITY>
0

>  <SCORE.RESTR.norm>
0

>  <SCORE.SYSTEM>
0

>  <SCORE.SYSTEM.CONST>
0

>  <SCORE.SYSTEM.DIHEDRAL>
0

>  <SCORE.SYSTEM.SOLV>
0

>  <SCORE.SYSTEM.norm>
0

>  <SCORE.heavy>
27

>  <SCORE.norm>
-0.258436

>  <RMSD>
6.807

$$$$
ligand
 OpenBabel11021811463D
libRbt.so/2013.1/901 2013/11/27
 27 28  0  0  0  0  0  0  0  0999 V2000
   -7.0268   34.3906  -11.1361 C   0  0  0  0  0  0  0  0  0  0  0  0
   -8.8662   39.2223   -4.8878 C   0  0  0  0  0  0  0  0  0  0  0  0
   -7.4010   41.8354   -4.8712 C   0  0  0  0  0  0  0  0  0  0  0  0
   -6.3521   42.6979   -4.1666 C   0  0  0  0  0  0  0  0  0  0  0  0
   -6.0901   42.2024   -2.8513 O   0  0  0  0  0  0  0  0  0  0  0  0
   -5.1229   40.9363   -2.6474 P   0  0  1  0  0  0  0  0  0  0  0  0
   -5.3449   41.0022    0.1638 P   0  0  2  0  0  0  0  0  0  0  0  0
   -4.8333   39.4791   -6.3897 C   0  0  0  0  0  0  0  0  0  0  0  0
   -7.7912   36.2013   -9.6115 N   0  0  0  0  0  0  0  0  0  0  0  0
   -5.9284   39.5616   -2.8156 O   0  5  0  0  0  0  0  0  0  0  0  0
   -6.8015   41.0259   -0.0814 O   0  0  0  0  0  0  0  0  0  0  0  0
   -5.4943   38.2580   -6.4073 C   0  0  0  0  0  0  0  0  0  0  0  0
   -7.1452   35.0336   -9.7540 C   0  0  0  0  0  0  0  0  0  0  0  0
   -3.9049   40.8951   -3.7097 O   0  0  0  0  0  0  0  0  0  0  0  0
   -4.8678   42.2824    1.0058 O   0  5  0  0  0  0  0  0  0  0  0  0
   -6.8012   38.1753   -5.9246 N   0  0  0  0  0  0  0  0  0  0  0  0
   -6.6001   34.4222   -8.6924 N   0  0  0  0  0  0  0  0  0  0  0  0
   -4.4543   40.9757   -1.1649 O   0  0  0  0  0  0  0  0  0  0  0  0
   -4.9360   39.7388    1.0473 O   0  0  0  0  0  0  0  0  0  0  0  0
   -7.4301   39.3201   -5.4206 C   0  0  1  0  0  0  0  0  0  0  0  0
   -6.6932   34.9699   -7.4743 C   0  0  0  0  0  0  0  0  0  0  0  0
   -6.1472   34.3554   -6.4299 N   0  0  0  0  0  0  0  0  0  0  0  0
   -6.7658   40.5455   -5.4038 C   0  0  1  0  0  0  0  0  0  0  0  0
   -7.3549   36.1794   -7.3007 C   0  0  0  0  0  0  0  0  0  0  0  0
   -5.4661   40.6111   -5.8908 C   0  0  0  0  0  0  0  0  0  0  0  0
   -7.9071   36.7783   -8.4271 C   0  0  0  0  0  0  0  0  0  0  0  0
   -7.5069   36.8723   -5.9404 C   0  0  0  0  0  0  0  0  0  0  0  0
  1 13  1  0  0  0  0
  3  4  1  0  0  0  0
  4  5  1  0  0  0  0
  6  5  1  6  0  0  0
  6 10  1  0  0  0  0
  6 14  2  0  0  0  0
  6 18  1  0  0  0  0
  7 11  1  6  0  0  0
  7 15  1  0  0  0  0
  7 19  2  0  0  0  0
  7 18  1  0  0  0  0
  8 25  1  0  0  0  0
  8 12  1  0  0  0  0
  9 26  2  0  0  0  0
  9 13  1  0  0  0  0
 12 16  1  0  0  0  0
 13 17  2  0  0  0  0
 16 20  1  0  0  0  0
 16 27  1  0  0  0  0
 17 21  1  0  0  0  0
 20  2  1  6  0  0  0
 20 23  1  0  0  0  0
 21 22  1  0  0  0  0
 21 24  2  0  0  0  0
 23  3  1  6  0  0  0
 23 25  1  0  0  0  0
 24 27  1  0  0  0  0
 24 26  1  0  0  0  0
M  CHG  2  10  -1  15  -1
M  END
>  <CHROM.1>
-78.68358246,79.31960262,-84.92410539,57.80412027,-1.62916301,144.22397152
116.04053586,-47.28159048,-6.20584397,39.09458664,-4.49704096,-2.32979288
-1.31364086,0.20084974

>  <Name>
ligand

>  <RI>
0

>  <Rbt.Current_Directory>
/home/itssahil/PROJECTS/Mol_Feturizer/New_Systems/rnas/3D2V

>  <Rbt.Executable>
rbdock ($Id: //depot/dev/client3/rdock/2013.1/src/exe/rbdock.cxx#4 $)

>  <Rbt.Library>
libRbt.so (2013.1, Build901 2013/11/27)

>  <Rbt.Parameter_File>
/export/apps/rDock/src/rDock_2013.1_src/data/scripts/dock_solv.prm

>  <Rbt.Receptor>
prm/blind_docking_60.prm

>  <SCORE>
-6.10666

>  <SCORE.INTER>
-8.44814

>  <SCORE.INTER.CONST>
1

>  <SCORE.INTER.POLAR>
0

>  <SCORE.INTER.ROT>
8

>  <SCORE.INTER.SOLV>
31.3702

>  <SCORE.INTER.VDW>
-25.0222

>  <SCORE.INTER.norm>
-0.312894

>  <SCORE.INTRA>
2.29795

>  <SCORE.INTRA.DIHEDRAL>
3.52832

>  <SCORE.INTRA.DIHEDRAL.0>
7.82666

>  <SCORE.INTRA.POLAR>
0

>  <SCORE.INTRA.POLAR.0>
0

>  <SCORE.INTRA.REPUL>
0

>  <SCORE.INTRA.REPUL.0>
0

>  <SCORE.INTRA.SOLV>
1.99962

>  <SCORE.INTRA.SOLV.lig_0>
-83.2758

>  <SCORE.INTRA.VDW>
-0.466019

>  <SCORE.INTRA.VDW.0>
-3.26816

>  <SCORE.INTRA.norm>
0.0851093

>  <SCORE.RESTR>
0.043527

>  <SCORE.RESTR.CAVITY>
0.043527

>  <SCORE.RESTR.norm>
0.00161211

>  <SCORE.SYSTEM>
0

>  <SCORE.SYSTEM.CONST>
0

>  <SCORE.SYSTEM.DIHEDRAL>
0

>  <SCORE.SYSTEM.SOLV>
0

>  <SCORE.SYSTEM.norm>
0

>  <SCORE.heavy>
27

>  <SCORE.norm>
-0.226173

>  <RMSD>
6.883

$$$$
ligand
 OpenBabel11021811473D
libRbt.so/2013.1/901 2013/11/27
 27 28  0  0  0  0  0  0  0  0999 V2000
   -7.3147   46.0879   -8.6985 C   0  0  0  0  0  0  0  0  0  0  0  0
   -3.5143   43.4074   -4.5271 C   0  0  0  0  0  0  0  0  0  0  0  0
   -4.2536   40.9137   -3.0405 C   0  0  0  0  0  0  0  0  0  0  0  0
   -5.1941   40.2731   -4.0631 C   0  0  0  0  0  0  0  0  0  0  0  0
   -5.2432   41.0506   -5.2620 O   0  0  0  0  0  0  0  0  0  0  0  0
   -6.3848   40.7688   -6.3563 P   0  0  1  0  0  0  0  0  0  0  0  0
   -4.8548   41.3226   -8.6605 P   0  0  2  0  0  0  0  0  0  0  0  0
   -6.1172   43.5961   -1.0956 C   0  0  0  0  0  0  0  0  0  0  0  0
   -7.1685   45.5092   -6.2838 N   0  0  0  0  0  0  0  0  0  0  0  0
   -6.4414   39.2153   -6.7444 O   0  5  0  0  0  0  0  0  0  0  0  0
   -3.6089   40.9751   -7.9468 O   0  0  0  0  0  0  0  0  0  0  0  0
   -5.7878   44.7641   -1.7705 C   0  0  0  0  0  0  0  0  0  0  0  0
   -6.5805   46.0589   -7.3576 C   0  0  0  0  0  0  0  0  0  0  0  0
   -7.8635   41.1750   -5.8448 O   0  0  0  0  0  0  0  0  0  0  0  0
   -4.6602   42.6157   -9.5910 O   0  5  0  0  0  0  0  0  0  0  0  0
   -4.9482   44.7030   -2.8836 N   0  0  0  0  0  0  0  0  0  0  0  0
   -5.3506   46.5852   -7.2667 N   0  0  0  0  0  0  0  0  0  0  0  0
   -6.0966   41.6364   -7.7020 O   0  0  0  0  0  0  0  0  0  0  0  0
   -5.2903   40.1507   -9.6509 O   0  0  0  0  0  0  0  0  0  0  0  0
   -4.4401   43.4681   -3.3044 C   0  0  1  0  0  0  0  0  0  0  0  0
   -4.6922   46.5694   -6.1011 C   0  0  0  0  0  0  0  0  0  0  0  0
   -3.4743   47.0959   -6.0228 N   0  0  0  0  0  0  0  0  0  0  0  0
   -4.7718   42.2961   -2.6265 C   0  0  2  0  0  0  0  0  0  0  0  0
   -5.2801   46.0082   -4.9741 C   0  0  0  0  0  0  0  0  0  0  0  0
   -5.6112   42.3742   -1.5220 C   0  0  0  0  0  0  0  0  0  0  0  0
   -6.5551   45.4720   -5.1126 C   0  0  0  0  0  0  0  0  0  0  0  0
   -4.5937   45.9490   -3.6032 C   0  0  0  0  0  0  0  0  0  0  0  0
  1 13  1  0  0  0  0
  3  4  1  0  0  0  0
  4  5  1  0  0  0  0
  6  5  1  1  0  0  0
  6 10  1  0  0  0  0
  6 14  2  0  0  0  0
  6 18  1  0  0  0  0
  7 11  1  1  0  0  0
  7 15  1  0  0  0  0
  7 19  2  0  0  0  0
  7 18  1  0  0  0  0
  8 25  1  0  0  0  0
  8 12  1  0  0  0  0
  9 26  2  0  0  0  0
  9 13  1  0  0  0  0
 12 16  1  0  0  0  0
 13 17  2  0  0  0  0
 16 20  1  0  0  0  0
 16 27  1  0  0  0  0
 17 21  1  0  0  0  0
 20  2  1  6  0  0  0
 20 23  1  0  0  0  0
 21 22  1  0  0  0  0
 21 24  2  0  0  0  0
 23  3  1  1  0  0  0
 23 25  1  0  0  0  0
 24 27  1  0  0  0  0
 24 26  1  0  0  0  0
M  CHG  2  10  -1  15  -1
M  END
>  <CHROM.1>
62.87212766,-166.87558733,-51.46670194,68.59677614,-39.96956241,-88.68060811
-144.83729125,-109.00836730,-5.42891491,43.02062466,-5.80004681,2.55494110
1.51317133,2.96676953

>  <Name>
ligand

>  <RI>
0

>  <Rbt.Current_Directory>
/home/itssahil/PROJECTS/Mol_Feturizer/New_Systems/rnas/3D2V

>  <Rbt.Executable>
rbdock ($Id: //depot/dev/client3/rdock/2013.1/src/exe/rbdock.cxx#4 $)

>  <Rbt.Library>
libRbt.so (2013.1, Build901 2013/11/27)

>  <Rbt.Parameter_File>
/export/apps/rDock/src/rDock_2013.1_src/data/scripts/dock_solv.prm

>  <Rbt.Receptor>
prm/pocket_docking_7.prm

>  <SCORE>
-9.54532

>  <SCORE.INTER>
-7.45145

>  <SCORE.INTER.CONST>
1

>  <SCORE.INTER.POLAR>
0

>  <SCORE.INTER.ROT>
8

>  <SCORE.INTER.SOLV>
7.82547

>  <SCORE.INTER.VDW>
-16.5095

>  <SCORE.INTER.norm>
-0.27598

>  <SCORE.INTRA>
-2.09387

>  <SCORE.INTRA.DIHEDRAL>
-0.940514

>  <SCORE.INTRA.DIHEDRAL.0>
7.82666

>  <SCORE.INTRA.POLAR>
0

>  <SCORE.INTRA.POLAR.0>
0

>  <SCORE.INTRA.REPUL>
0

>  <SCORE.INTRA.REPUL.0>
0

>  <SCORE.INTRA.SOLV>
-1.07179

>  <SCORE.INTRA.SOLV.lig_0>
-83.2758

>  <SCORE.INTRA.VDW>
-1.08772

>  <SCORE.INTRA.VDW.0>
-3.26816

>  <SCORE.INTRA.norm>
-0.0775508

>  <SCORE.RESTR>
0

>  <SCORE.RESTR.CAVITY>
0

>  <SCORE.RESTR.norm>
0

>  <SCORE.SYSTEM>
0

>  <SCORE.SYSTEM.CONST>
0

>  <SCORE.SYSTEM.DIHEDRAL>
0

>  <SCORE.SYSTEM.SOLV>
0

>  <SCORE.SYSTEM.norm>
0

>  <SCORE.heavy>
27

>  <SCORE.norm>
-0.35353

>  <RMSD>
6.886

$$$$
ligand
 OpenBabel11021811473D
libRbt.so/2013.1/901 2013/11/27
 27 28  0  0  0  0  0  0  0  0999 V2000
   -4.8403   38.2621   -5.3826 C   0  0  0  0  0  0  0  0  0  0  0  0
   -3.3489   43.9003  -10.6605 C   0  0  0  0  0  0  0  0  0  0  0  0
   -4.8892   46.4426  -10.2868 C   0  0  0  0  0  0  0  0  0  0  0  0
   -4.2329   46.9123   -8.9871 C   0  0  0  0  0  0  0  0  0  0  0  0
   -5.2235   47.2876   -8.0269 O   0  0  0  0  0  0  0  0  0  0  0  0
   -4.7935   47.6138   -6.5140 P   0  0  1  0  0  0  0  0  0  0  0  0
   -6.0097   45.2733   -5.5145 P   0  0  2  0  0  0  0  0  0  0  0  0
   -7.5130   43.7926   -9.5489 C   0  0  0  0  0  0  0  0  0  0  0  0
   -4.2312   40.2770   -6.7079 N   0  0  0  0  0  0  0  0  0  0  0  0
   -3.3532   48.3138   -6.4617 O   0  5  0  0  0  0  0  0  0  0  0  0
   -6.6654   44.9625   -6.8014 O   0  0  0  0  0  0  0  0  0  0  0  0
   -6.8177   42.6023   -9.7163 C   0  0  0  0  0  0  0  0  0  0  0  0
   -4.8185   39.0707   -6.6802 C   0  0  0  0  0  0  0  0  0  0  0  0
   -5.8231   48.6108   -5.7662 O   0  0  0  0  0  0  0  0  0  0  0  0
   -7.0249   45.9781   -4.4907 O   0  5  0  0  0  0  0  0  0  0  0  0
   -5.4688   42.6368  -10.0724 N   0  0  0  0  0  0  0  0  0  0  0  0
   -5.3889   38.5646   -7.7832 N   0  0  0  0  0  0  0  0  0  0  0  0
   -4.7440   46.2437   -5.6383 O   0  0  0  0  0  0  0  0  0  0  0  0
   -5.5292   43.9400   -4.7828 O   0  0  0  0  0  0  0  0  0  0  0  0
   -4.8318   43.8685  -10.2653 C   0  0  1  0  0  0  0  0  0  0  0  0
   -5.3802   39.2578   -8.9285 C   0  0  0  0  0  0  0  0  0  0  0  0
   -5.9504   38.7467  -10.0148 N   0  0  0  0  0  0  0  0  0  0  0  0
   -5.5304   45.0629  -10.0965 C   0  0  2  0  0  0  0  0  0  0  0  0
   -4.7805   40.5102   -8.9826 C   0  0  0  0  0  0  0  0  0  0  0  0
   -6.8722   45.0108   -9.7389 C   0  0  0  0  0  0  0  0  0  0  0  0
   -4.1992   40.9964   -7.8172 C   0  0  0  0  0  0  0  0  0  0  0  0
   -4.7263   41.3673  -10.2540 C   0  0  0  0  0  0  0  0  0  0  0  0
  1 13  1  0  0  0  0
  3  4  1  0  0  0  0
  4  5  1  0  0  0  0
  6  5  1  6  0  0  0
  6 10  1  0  0  0  0
  6 14  2  0  0  0  0
  6 18  1  0  0  0  0
  7 11  1  6  0  0  0
  7 15  1  0  0  0  0
  7 19  2  0  0  0  0
  7 18  1  0  0  0  0
  8 25  1  0  0  0  0
  8 12  1  0  0  0  0
  9 26  2  0  0  0  0
  9 13  1  0  0  0  0
 12 16  1  0  0  0  0
 13 17  2  0  0  0  0
 16 20  1  0  0  0  0
 16 27  1  0  0  0  0
 17 21  1  0  0  0  0
 20  2  1  1  0  0  0
 20 23  1  0  0  0  0
 21 22  1  0  0  0  0
 21 24  2  0  0  0  0
 23  3  1  6  0  0  0
 23 25  1  0  0  0  0
 24 27  1  0  0  0  0
 24 26  1  0  0  0  0
M  CHG  2  10  -1  15  -1
M  END
>  <CHROM.1>
-72.67779729,171.20131818,34.40812085,-56.15072159,47.51389320,-87.04320799
116.96303303,-57.39145730,-5.28972343,43.92224342,-7.71766144,1.48003325
-1.49934627,-3.00996134

>  <Name>
ligand

>  <RI>
0

>  <Rbt.Current_Directory>
/home/itssahil/PROJECTS/Mol_Feturizer/New_Systems/rnas/3D2V

>  <Rbt.Executable>
rbdock ($Id: //depot/dev/client3/rdock/2013.1/src/exe/rbdock.cxx#4 $)

>  <Rbt.Library>
libRbt.so (2013.1, Build901 2013/11/27)

>  <Rbt.Parameter_File>
/export/apps/rDock/src/rDock_2013.1_src/data/scripts/dock_solv.prm

>  <Rbt.Receptor>
prm/pocket_docking_8.prm

>  <SCORE>
-14.6929

>  <SCORE.INTER>
-11.8184

>  <SCORE.INTER.CONST>
1

>  <SCORE.INTER.POLAR>
0

>  <SCORE.INTER.ROT>
8

>  <SCORE.INTER.SOLV>
15.4052

>  <SCORE.INTER.VDW>
-21.9473

>  <SCORE.INTER.norm>
-0.437718

>  <SCORE.INTRA>
-2.87453

>  <SCORE.INTRA.DIHEDRAL>
-0.471948

>  <SCORE.INTRA.DIHEDRAL.0>
7.82666

>  <SCORE.INTRA.POLAR>
0

>  <SCORE.INTRA.POLAR.0>
0

>  <SCORE.INTRA.REPUL>
0

>  <SCORE.INTRA.REPUL.0>
0

>  <SCORE.INTRA.SOLV>
-2.47349

>  <SCORE.INTRA.SOLV.lig_0>
-83.2758

>  <SCORE.INTRA.VDW>
-1.40181

>  <SCORE.INTRA.VDW.0>
-3.26816

>  <SCORE.INTRA.norm>
-0.106464

>  <SCORE.RESTR>
0

>  <SCORE.RESTR.CAVITY>
0

>  <SCORE.RESTR.norm>
0

>  <SCORE.SYSTEM>
0

>  <SCORE.SYSTEM.CONST>
0

>  <SCORE.SYSTEM.DIHEDRAL>
0

>  <SCORE.SYSTEM.SOLV>
0

>  <SCORE.SYSTEM.norm>
0

>  <SCORE.heavy>
27

>  <SCORE.norm>
-0.544182

>  <RMSD>
6.902

$$$$
ligand
 OpenBabel11021811463D
libRbt.so/2013.1/901 2013/11/27
 27 28  0  0  0  0  0  0  0  0999 V2000
   -5.2113   41.0106    0.4634 C   0  0  0  0  0  0  0  0  0  0  0  0
   -6.6546   38.7376   -7.5697 C   0  0  0  0  0  0  0  0  0  0  0  0
   -7.1581   35.8089   -7.9499 C   0  0  0  0  0  0  0  0  0  0  0  0
   -6.2837   36.0005   -9.1906 C   0  0  0  0  0  0  0  0  0  0  0  0
   -6.9578   35.5334  -10.3617 O   0  0  0  0  0  0  0  0  0  0  0  0
   -6.3216   35.7948  -11.8132 P   0  0  1  0  0  0  0  0  0  0  0  0
   -4.1133   34.8917  -13.3180 P   0  0  2  0  0  0  0  0  0  0  0  0
   -5.4000   35.8956   -4.5805 C   0  0  0  0  0  0  0  0  0  0  0  0
   -4.2001   40.9011   -1.8065 N   0  0  0  0  0  0  0  0  0  0  0  0
   -7.2592   35.2023  -12.9695 O   0  5  0  0  0  0  0  0  0  0  0  0
   -3.8166   36.1473  -14.0377 O   0  0  0  0  0  0  0  0  0  0  0  0
   -5.1573   37.2485   -4.3839 C   0  0  0  0  0  0  0  0  0  0  0  0
   -5.2525   40.6338   -1.0178 C   0  0  0  0  0  0  0  0  0  0  0  0
   -6.1165   37.3650  -12.1390 O   0  0  0  0  0  0  0  0  0  0  0  0
   -5.0467   33.9192  -14.1892 O   0  5  0  0  0  0  0  0  0  0  0  0
   -5.5666   38.1692   -5.3495 N   0  0  0  0  0  0  0  0  0  0  0  0
   -6.3445   40.0370   -1.5172 N   0  0  0  0  0  0  0  0  0  0  0  0
   -4.8558   35.0966  -11.9159 O   0  0  0  0  0  0  0  0  0  0  0  0
   -2.7786   34.0626  -13.0437 O   0  0  0  0  0  0  0  0  0  0  0  0
   -6.2098   37.7208   -6.5094 C   0  0  1  0  0  0  0  0  0  0  0  0
   -6.3992   39.6998   -2.8117 C   0  0  0  0  0  0  0  0  0  0  0  0
   -7.4877   39.1104   -3.2957 N   0  0  0  0  0  0  0  0  0  0  0  0
   -6.4535   36.3624   -6.7056 C   0  0  1  0  0  0  0  0  0  0  0  0
   -5.3237   39.9679   -3.6497 C   0  0  0  0  0  0  0  0  0  0  0  0
   -6.0422   35.4593   -5.7330 C   0  0  0  0  0  0  0  0  0  0  0  0
   -4.2108   40.5858   -3.0909 C   0  0  0  0  0  0  0  0  0  0  0  0
   -5.3058   39.6132   -5.1422 C   0  0  0  0  0  0  0  0  0  0  0  0
  1 13  1  0  0  0  0
  3  4  1  0  0  0  0
  4  5  1  0  0  0  0
  6  5  1  1  0  0  0
  6 10  1  0  0  0  0
  6 14  2  0  0  0  0
  6 18  1  0  0  0  0
  7 11  1  6  0  0  0
  7 15  1  0  0  0  0
  7 19  2  0  0  0  0
  7 18  1  0  0  0  0
  8 25  1  0  0  0  0
  8 12  1  0  0  0  0
  9 26  2  0  0  0  0
  9 13  1  0  0  0  0
 12 16  1  0  0  0  0
 13 17  2  0  0  0  0
 16 20  1  0  0  0  0
 16 27  1  0  0  0  0
 17 21  1  0  0  0  0
 20  2  1  1  0  0  0
 20 23  1  0  0  0  0
 21 22  1  0  0  0  0
 21 24  2  0  0  0  0
 23  3  1  1  0  0  0
 23 25  1  0  0  0  0
 24 27  1  0  0  0  0
 24 26  1  0  0  0  0
M  CHG  2  10  -1  15  -1
M  END
>  <CHROM.1>
-177.73884804,172.32232876,-179.20261307,165.92584612,61.40024479,67.58165089
-55.78472420,-31.06309817,-5.58320582,37.17811407,-7.91316720,-1.61492076
-0.39343872,-2.00645398

>  <Name>
ligand

>  <RI>
0

>  <Rbt.Current_Directory>
/home/itssahil/PROJECTS/Mol_Feturizer/New_Systems/rnas/3D2V

>  <Rbt.Executable>
rbdock ($Id: //depot/dev/client3/rdock/2013.1/src/exe/rbdock.cxx#4 $)

>  <Rbt.Library>
libRbt.so (2013.1, Build901 2013/11/27)

>  <Rbt.Parameter_File>
/export/apps/rDock/src/rDock_2013.1_src/data/scripts/dock_solv.prm

>  <Rbt.Receptor>
prm/blind_docking_60.prm

>  <SCORE>
-16.9702

>  <SCORE.INTER>
-17.0317

>  <SCORE.INTER.CONST>
1

>  <SCORE.INTER.POLAR>
0

>  <SCORE.INTER.ROT>
8

>  <SCORE.INTER.SOLV>
23.9719

>  <SCORE.INTER.VDW>
-28.2784

>  <SCORE.INTER.norm>
-0.630804

>  <SCORE.INTRA>
0.0615268

>  <SCORE.INTRA.DIHEDRAL>
-2.05224

>  <SCORE.INTRA.DIHEDRAL.0>
7.82666

>  <SCORE.INTRA.POLAR>
0

>  <SCORE.INTRA.POLAR.0>
0

>  <SCORE.INTRA.REPUL>
0

>  <SCORE.INTRA.REPUL.0>
0

>  <SCORE.INTRA.SOLV>
1.22174

>  <SCORE.INTRA.SOLV.lig_0>
-83.2758

>  <SCORE.INTRA.VDW>
0.476778

>  <SCORE.INTRA.VDW.0>
-3.26816

>  <SCORE.INTRA.norm>
0.00227877

>  <SCORE.RESTR>
0

>  <SCORE.RESTR.CAVITY>
0

>  <SCORE.RESTR.norm>
0

>  <SCORE.SYSTEM>
0

>  <SCORE.SYSTEM.CONST>
0

>  <SCORE.SYSTEM.DIHEDRAL>
0

>  <SCORE.SYSTEM.SOLV>
0

>  <SCORE.SYSTEM.norm>
0

>  <SCORE.heavy>
27

>  <SCORE.norm>
-0.628525

>  <RMSD>
6.932

$$$$
ligand
 OpenBabel11021811463D
libRbt.so/2013.1/901 2013/11/27
 27 28  0  0  0  0  0  0  0  0999 V2000
   -6.4066   34.8040  -12.2360 C   0  0  0  0  0  0  0  0  0  0  0  0
   -6.9940   38.4560   -7.0215 C   0  0  0  0  0  0  0  0  0  0  0  0
   -4.6758   39.4671   -5.4155 C   0  0  0  0  0  0  0  0  0  0  0  0
   -4.7384   40.1563   -4.0511 C   0  0  0  0  0  0  0  0  0  0  0  0
   -6.0425   40.0285   -3.4790 O   0  0  0  0  0  0  0  0  0  0  0  0
   -6.3655   40.7009   -2.0565 P   0  0  1  0  0  0  0  0  0  0  0  0
   -7.0679   43.0538   -3.4445 P   0  0  2  0  0  0  0  0  0  0  0  0
   -4.9163   35.8430   -4.2936 C   0  0  0  0  0  0  0  0  0  0  0  0
   -7.7003   35.9247  -10.4311 N   0  0  0  0  0  0  0  0  0  0  0  0
   -7.7835   40.2102   -1.4949 O   0  5  0  0  0  0  0  0  0  0  0  0
   -8.2136   42.3248   -4.0262 O   0  0  0  0  0  0  0  0  0  0  0  0
   -5.9878   35.3536   -5.0288 C   0  0  0  0  0  0  0  0  0  0  0  0
   -6.7648   35.0227  -10.7657 C   0  0  0  0  0  0  0  0  0  0  0  0
   -5.2675   40.3426   -0.9253 O   0  0  0  0  0  0  0  0  0  0  0  0
   -5.9047   43.2834   -4.5261 O   0  5  0  0  0  0  0  0  0  0  0  0
   -6.6583   36.1981   -5.9147 N   0  0  0  0  0  0  0  0  0  0  0  0
   -6.1380   34.3078   -9.8201 N   0  0  0  0  0  0  0  0  0  0  0  0
   -6.3876   42.3216   -2.1955 O   0  0  0  0  0  0  0  0  0  0  0  0
   -7.5014   44.5147   -2.9735 O   0  0  0  0  0  0  0  0  0  0  0  0
   -6.2506   37.5308   -6.0482 C   0  0  1  0  0  0  0  0  0  0  0  0
   -6.4378   34.4854   -8.5274 C   0  0  0  0  0  0  0  0  0  0  0  0
   -5.8086   33.7724   -7.5990 N   0  0  0  0  0  0  0  0  0  0  0  0
   -5.1744   38.0210   -5.3102 C   0  0  2  0  0  0  0  0  0  0  0  0
   -7.4012   35.4150   -8.1549 C   0  0  0  0  0  0  0  0  0  0  0  0
   -4.5160   37.1661   -4.4347 C   0  0  0  0  0  0  0  0  0  0  0  0
   -8.0280   36.1330   -9.1669 C   0  0  0  0  0  0  0  0  0  0  0  0
   -7.8036   35.6779   -6.6979 C   0  0  0  0  0  0  0  0  0  0  0  0
  1 13  1  0  0  0  0
  3  4  1  0  0  0  0
  4  5  1  0  0  0  0
  6  5  1  6  0  0  0
  6 10  1  0  0  0  0
  6 14  2  0  0  0  0
  6 18  1  0  0  0  0
  7 11  1  6  0  0  0
  7 15  1  0  0  0  0
  7 19  2  0  0  0  0
  7 18  1  0  0  0  0
  8 25  1  0  0  0  0
  8 12  1  0  0  0  0
  9 26  2  0  0  0  0
  9 13  1  0  0  0  0
 12 16  1  0  0  0  0
 13 17  2  0  0  0  0
 16 20  1  0  0  0  0
 16 27  1  0  0  0  0
 17 21  1  0  0  0  0
 20  2  1  6  0  0  0
 20 23  1  0  0  0  0
 21 22  1  0  0  0  0
 21 24  2  0  0  0  0
 23  3  1  1  0  0  0
 23 25  1  0  0  0  0
 24 27  1  0  0  0  0
 24 26  1  0  0  0  0
M  CHG  2  10  -1  15  -1
M  END
>  <CHROM.1>
-52.57618870,-178.67066977,-169.68821455,41.58145925,30.77006149,121.30909071
62.68549530,-103.94363727,-6.45370746,38.68226525,-5.39941192,1.58247746
1.19066765,-2.41288477

>  <Name>
ligand

>  <RI>
0

>  <Rbt.Current_Directory>
/home/itssahil/PROJECTS/Mol_Feturizer/New_Systems/rnas/3D2V

>  <Rbt.Executable>
rbdock ($Id: //depot/dev/client3/rdock/2013.1/src/exe/rbdock.cxx#4 $)

>  <Rbt.Library>
libRbt.so (2013.1, Build901 2013/11/27)

>  <Rbt.Parameter_File>
/export/apps/rDock/src/rDock_2013.1_src/data/scripts/dock_solv.prm

>  <Rbt.Receptor>
prm/blind_docking_60.prm

>  <SCORE>
-10.7798

>  <SCORE.INTER>
-9.44231

>  <SCORE.INTER.CONST>
1

>  <SCORE.INTER.POLAR>
0

>  <SCORE.INTER.ROT>
8

>  <SCORE.INTER.SOLV>
16.5839

>  <SCORE.INTER.VDW>
-20.7562

>  <SCORE.INTER.norm>
-0.349715

>  <SCORE.INTRA>
-1.44678

>  <SCORE.INTRA.DIHEDRAL>
-0.623683

>  <SCORE.INTRA.DIHEDRAL.0>
7.82666

>  <SCORE.INTRA.POLAR>
0

>  <SCORE.INTRA.POLAR.0>
0

>  <SCORE.INTRA.REPUL>
0

>  <SCORE.INTRA.REPUL.0>
0

>  <SCORE.INTRA.SOLV>
-0.56093

>  <SCORE.INTRA.SOLV.lig_0>
-83.2758

>  <SCORE.INTRA.VDW>
-0.854477

>  <SCORE.INTRA.VDW.0>
-3.26816

>  <SCORE.INTRA.norm>
-0.0535846

>  <SCORE.RESTR>
0.109267

>  <SCORE.RESTR.CAVITY>
0.109267

>  <SCORE.RESTR.norm>
0.00404692

>  <SCORE.SYSTEM>
0

>  <SCORE.SYSTEM.CONST>
0

>  <SCORE.SYSTEM.DIHEDRAL>
0

>  <SCORE.SYSTEM.SOLV>
0

>  <SCORE.SYSTEM.norm>
0

>  <SCORE.heavy>
27

>  <SCORE.norm>
-0.399253

>  <RMSD>
6.941

$$$$
ligand
 OpenBabel11021811473D
libRbt.so/2013.1/901 2013/11/27
 27 28  0  0  0  0  0  0  0  0999 V2000
   -4.8569   37.9927   -5.7219 C   0  0  0  0  0  0  0  0  0  0  0  0
   -3.3482   44.1392  -10.5073 C   0  0  0  0  0  0  0  0  0  0  0  0
   -4.9939   46.6006  -10.0510 C   0  0  0  0  0  0  0  0  0  0  0  0
   -5.0506   47.3012   -8.6921 C   0  0  0  0  0  0  0  0  0  0  0  0
   -4.3131   46.5658   -7.7126 O   0  0  0  0  0  0  0  0  0  0  0  0
   -4.2757   47.0711   -6.1884 P   0  0  1  0  0  0  0  0  0  0  0  0
   -3.3640   46.1612   -3.6789 P   0  0  2  0  0  0  0  0  0  0  0  0
   -7.5367   43.8221   -9.5364 C   0  0  0  0  0  0  0  0  0  0  0  0
   -5.3180   38.5754   -8.0957 N   0  0  0  0  0  0  0  0  0  0  0  0
   -3.5915   48.5155   -6.0759 O   0  5  0  0  0  0  0  0  0  0  0  0
   -2.8420   47.4604   -3.2077 O   0  0  0  0  0  0  0  0  0  0  0  0
   -6.7923   42.6683   -9.7434 C   0  0  0  0  0  0  0  0  0  0  0  0
   -4.7916   38.9436   -6.9174 C   0  0  0  0  0  0  0  0  0  0  0  0
   -5.7465   47.2001   -5.5300 O   0  0  0  0  0  0  0  0  0  0  0  0
   -2.4641   44.9396   -3.1559 O   0  5  0  0  0  0  0  0  0  0  0  0
   -5.4355   42.7704  -10.0540 N   0  0  0  0  0  0  0  0  0  0  0  0
   -4.2065   40.1419   -6.7768 N   0  0  0  0  0  0  0  0  0  0  0  0
   -3.4388   46.0204   -5.2707 O   0  0  0  0  0  0  0  0  0  0  0  0
   -4.8245   45.8892   -3.0985 O   0  0  0  0  0  0  0  0  0  0  0  0
   -4.8400   44.0329  -10.1619 C   0  0  1  0  0  0  0  0  0  0  0  0
   -4.1394   40.9880   -7.8122 C   0  0  0  0  0  0  0  0  0  0  0  0
   -3.5553   42.1722   -7.6612 N   0  0  0  0  0  0  0  0  0  0  0  0
   -5.5880   45.1905   -9.9535 C   0  0  2  0  0  0  0  0  0  0  0  0
   -4.6748   40.6294   -9.0433 C   0  0  0  0  0  0  0  0  0  0  0  0
   -6.9370   45.0711   -9.6422 C   0  0  0  0  0  0  0  0  0  0  0  0
   -5.2741   39.3792   -9.1451 C   0  0  0  0  0  0  0  0  0  0  0  0
   -4.6405   41.5400  -10.2776 C   0  0  0  0  0  0  0  0  0  0  0  0
  1 13  1  0  0  0  0
  3  4  1  0  0  0  0
  4  5  1  0  0  0  0
  6  5  1  6  0  0  0
  6 10  1  0  0  0  0
  6 14  2  0  0  0  0
  6 18  1  0  0  0  0
  7 11  1  1  0  0  0
  7 15  1  0  0  0  0
  7 19  2  0  0  0  0
  7 18  1  0  0  0  0
  8 25  1  0  0  0  0
  8 12  1  0  0  0  0
  9 26  2  0  0  0  0
  9 13  1  0  0  0  0
 12 16  1  0  0  0  0
 13 17  2  0  0  0  0
 16 20  1  0  0  0  0
 16 27  1  0  0  0  0
 17 21  1  0  0  0  0
 20  2  1  1  0  0  0
 20 23  1  0  0  0  0
 21 22  1  0  0  0  0
 21 24  2  0  0  0  0
 23  3  1  6  0  0  0
 23 25  1  0  0  0  0
 24 27  1  0  0  0  0
 24 26  1  0  0  0  0
M  CHG  2  10  -1  15  -1
M  END
>  <CHROM.1>
59.80038654,-177.45440547,-62.29623826,-172.99661902,-56.80008587,-115.81087328
-64.17452555,-58.66060210,-4.55431473,44.15420623,-7.17250880,-2.13577077
-1.26593672,-0.02429891

>  <Name>
ligand

>  <RI>
0

>  <Rbt.Current_Directory>
/home/itssahil/PROJECTS/Mol_Feturizer/New_Systems/rnas/3D2V

>  <Rbt.Executable>
rbdock ($Id: //depot/dev/client3/rdock/2013.1/src/exe/rbdock.cxx#4 $)

>  <Rbt.Library>
libRbt.so (2013.1, Build901 2013/11/27)

>  <Rbt.Parameter_File>
/export/apps/rDock/src/rDock_2013.1_src/data/scripts/dock_solv.prm

>  <Rbt.Receptor>
prm/pocket_docking_8.prm

>  <SCORE>
-13.2851

>  <SCORE.INTER>
-12.2688

>  <SCORE.INTER.CONST>
1

>  <SCORE.INTER.POLAR>
0

>  <SCORE.INTER.ROT>
8

>  <SCORE.INTER.SOLV>
10.5107

>  <SCORE.INTER.VDW>
-20.6161

>  <SCORE.INTER.norm>
-0.454399

>  <SCORE.INTRA>
-1.01636

>  <SCORE.INTRA.DIHEDRAL>
-2.50134

>  <SCORE.INTRA.DIHEDRAL.0>
7.82666

>  <SCORE.INTRA.POLAR>
0

>  <SCORE.INTRA.POLAR.0>
0

>  <SCORE.INTRA.REPUL>
0

>  <SCORE.INTRA.REPUL.0>
0

>  <SCORE.INTRA.SOLV>
1.91122

>  <SCORE.INTRA.SOLV.lig_0>
-83.2758

>  <SCORE.INTRA.VDW>
-0.721303

>  <SCORE.INTRA.VDW.0>
-3.26816

>  <SCORE.INTRA.norm>
-0.0376431

>  <SCORE.RESTR>
0

>  <SCORE.RESTR.CAVITY>
0

>  <SCORE.RESTR.norm>
0

>  <SCORE.SYSTEM>
0

>  <SCORE.SYSTEM.CONST>
0

>  <SCORE.SYSTEM.DIHEDRAL>
0

>  <SCORE.SYSTEM.SOLV>
0

>  <SCORE.SYSTEM.norm>
0

>  <SCORE.heavy>
27

>  <SCORE.norm>
-0.492042

>  <RMSD>
6.979

$$$$
ligand
 OpenBabel11021811463D
libRbt.so/2013.1/901 2013/11/27
 27 28  0  0  0  0  0  0  0  0999 V2000
   -4.4595   32.1405   -7.0720 C   0  0  0  0  0  0  0  0  0  0  0  0
   -9.2264   38.5718   -4.3588 C   0  0  0  0  0  0  0  0  0  0  0  0
   -7.9422   41.2648   -4.6308 C   0  0  0  0  0  0  0  0  0  0  0  0
   -7.2335   41.2903   -3.2752 C   0  0  0  0  0  0  0  0  0  0  0  0
   -7.7499   40.2717   -2.4150 O   0  0  0  0  0  0  0  0  0  0  0  0
   -7.2490   40.1760   -0.8919 P   0  0  1  0  0  0  0  0  0  0  0  0
   -5.6785   42.3929   -0.1332 P   0  0  2  0  0  0  0  0  0  0  0  0
   -5.9768   39.1767   -7.1265 C   0  0  0  0  0  0  0  0  0  0  0  0
   -6.6098   33.3343   -7.4435 N   0  0  0  0  0  0  0  0  0  0  0  0
   -8.2783   39.3346    0.0024 O   0  5  0  0  0  0  0  0  0  0  0  0
   -4.8159   41.8611    0.9417 O   0  0  0  0  0  0  0  0  0  0  0  0
   -6.5581   37.9205   -7.0167 C   0  0  0  0  0  0  0  0  0  0  0  0
   -5.4470   33.2699   -6.7768 C   0  0  0  0  0  0  0  0  0  0  0  0
   -5.8087   39.4566   -0.7451 O   0  0  0  0  0  0  0  0  0  0  0  0
   -5.9833   43.9549    0.0739 O   0  5  0  0  0  0  0  0  0  0  0  0
   -7.6126   37.7251   -6.1236 N   0  0  0  0  0  0  0  0  0  0  0  0
   -5.1405   34.1896   -5.8503 N   0  0  0  0  0  0  0  0  0  0  0  0
   -7.0984   41.6665   -0.2575 O   0  0  0  0  0  0  0  0  0  0  0  0
   -4.9540   42.2878   -1.5502 O   0  0  0  0  0  0  0  0  0  0  0  0
   -8.0687   38.7934   -5.3420 C   0  0  1  0  0  0  0  0  0  0  0  0
   -5.9922   35.1860   -5.5782 C   0  0  0  0  0  0  0  0  0  0  0  0
   -5.6766   36.0928   -4.6591 N   0  0  0  0  0  0  0  0  0  0  0  0
   -7.4848   40.0542   -5.4533 C   0  0  2  0  0  0  0  0  0  0  0  0
   -7.2017   35.2762   -6.2563 C   0  0  0  0  0  0  0  0  0  0  0  0
   -6.4379   40.2323   -6.3494 C   0  0  0  0  0  0  0  0  0  0  0  0
   -7.4807   34.3012   -7.2071 C   0  0  0  0  0  0  0  0  0  0  0  0
   -8.2322   36.3844   -6.0035 C   0  0  0  0  0  0  0  0  0  0  0  0
  1 13  1  0  0  0  0
  3  4  1  0  0  0  0
  4  5  1  0  0  0  0
  6  5  1  6  0  0  0
  6 10  1  0  0  0  0
  6 14  2  0  0  0  0
  6 18  1  0  0  0  0
  7 11  1  1  0  0  0
  7 15  1  0  0  0  0
  7 19  2  0  0  0  0
  7 18  1  0  0  0  0
  8 25  1  0  0  0  0
  8 12  1  0  0  0  0
  9 26  2  0  0  0  0
  9 13  1  0  0  0  0
 12 16  1  0  0  0  0
 13 17  2  0  0  0  0
 16 20  1  0  0  0  0
 16 27  1  0  0  0  0
 17 21  1  0  0  0  0
 20  2  1  6  0  0  0
 20 23  1  0  0  0  0
 21 22  1  0  0  0  0
 21 24  2  0  0  0  0
 23  3  1  1  0  0  0
 23 25  1  0  0  0  0
 24 27  1  0  0  0  0
 24 26  1  0  0  0  0
M  CHG  2  10  -1  15  -1
M  END
>  <CHROM.1>
-73.00734872,-174.92613991,160.57631128,-100.22855120,-74.30111677,86.12889045
53.45635558,31.78739017,-6.65173654,38.76964994,-3.62010957,-1.57001713,-1.06830054
0.71276005

>  <Name>
ligand

>  <RI>
0

>  <Rbt.Current_Directory>
/home/itssahil/PROJECTS/Mol_Feturizer/New_Systems/rnas/3D2V

>  <Rbt.Executable>
rbdock ($Id: //depot/dev/client3/rdock/2013.1/src/exe/rbdock.cxx#4 $)

>  <Rbt.Library>
libRbt.so (2013.1, Build901 2013/11/27)

>  <Rbt.Parameter_File>
/export/apps/rDock/src/rDock_2013.1_src/data/scripts/dock_solv.prm

>  <Rbt.Receptor>
prm/blind_docking_60.prm

>  <SCORE>
-9.1944

>  <SCORE.INTER>
-10.6827

>  <SCORE.INTER.CONST>
1

>  <SCORE.INTER.POLAR>
0

>  <SCORE.INTER.ROT>
8

>  <SCORE.INTER.SOLV>
28.4618

>  <SCORE.INTER.VDW>
-25.5424

>  <SCORE.INTER.norm>
-0.395657

>  <SCORE.INTRA>
1.48834

>  <SCORE.INTRA.DIHEDRAL>
0.790067

>  <SCORE.INTRA.DIHEDRAL.0>
7.82666

>  <SCORE.INTRA.POLAR>
0

>  <SCORE.INTRA.POLAR.0>
0

>  <SCORE.INTRA.REPUL>
0

>  <SCORE.INTRA.REPUL.0>
0

>  <SCORE.INTRA.SOLV>
2.52936

>  <SCORE.INTRA.SOLV.lig_0>
-83.2758

>  <SCORE.INTRA.VDW>
-0.171377

>  <SCORE.INTRA.VDW.0>
-3.26816

>  <SCORE.INTRA.norm>
0.0551236

>  <SCORE.RESTR>
0

>  <SCORE.RESTR.CAVITY>
0

>  <SCORE.RESTR.norm>
0

>  <SCORE.SYSTEM>
0

>  <SCORE.SYSTEM.CONST>
0

>  <SCORE.SYSTEM.DIHEDRAL>
0

>  <SCORE.SYSTEM.SOLV>
0

>  <SCORE.SYSTEM.norm>
0

>  <SCORE.heavy>
27

>  <SCORE.norm>
-0.340533

>  <RMSD>
7.009

$$$$
ligand
 OpenBabel11021811463D
libRbt.so/2013.1/901 2013/11/27
 27 28  0  0  0  0  0  0  0  0999 V2000
   -5.2902   40.7660    0.4251 C   0  0  0  0  0  0  0  0  0  0  0  0
   -7.0750   39.3696   -7.5460 C   0  0  0  0  0  0  0  0  0  0  0  0
   -7.4640   36.4676   -8.1804 C   0  0  0  0  0  0  0  0  0  0  0  0
   -6.6856   35.5360   -9.1115 C   0  0  0  0  0  0  0  0  0  0  0  0
   -6.0126   36.2832  -10.1279 O   0  0  0  0  0  0  0  0  0  0  0  0
   -5.4009   35.5293  -11.4075 P   0  0  1  0  0  0  0  0  0  0  0  0
   -2.9769   34.2251  -12.0234 P   0  0  2  0  0  0  0  0  0  0  0  0
   -5.1133   36.3339   -5.1959 C   0  0  0  0  0  0  0  0  0  0  0  0
   -6.0627   39.6572   -1.6632 N   0  0  0  0  0  0  0  0  0  0  0  0
   -6.4852   34.5595  -12.0789 O   0  5  0  0  0  0  0  0  0  0  0  0
   -2.0497   35.3152  -12.3900 O   0  0  0  0  0  0  0  0  0  0  0  0
   -4.9197   37.6731   -4.8842 C   0  0  0  0  0  0  0  0  0  0  0  0
   -5.2947   40.5995   -1.0948 C   0  0  0  0  0  0  0  0  0  0  0  0
   -4.9074   36.5465  -12.5631 O   0  0  0  0  0  0  0  0  0  0  0  0
   -3.7458   33.6481  -13.3085 O   0  5  0  0  0  0  0  0  0  0  0  0
   -5.5575   38.6560   -5.6423 N   0  0  0  0  0  0  0  0  0  0  0  0
   -4.5278   41.4002   -1.8489 N   0  0  0  0  0  0  0  0  0  0  0  0
   -4.1056   34.6472  -10.9713 O   0  0  0  0  0  0  0  0  0  0  0  0
   -2.1839   32.9834  -11.4124 O   0  0  0  0  0  0  0  0  0  0  0  0
   -6.3789   38.2841   -6.7134 C   0  0  1  0  0  0  0  0  0  0  0  0
   -4.5181   41.2694   -3.1813 C   0  0  0  0  0  0  0  0  0  0  0  0
   -3.7525   42.0676   -3.9182 N   0  0  0  0  0  0  0  0  0  0  0  0
   -6.5730   36.9394   -7.0252 C   0  0  2  0  0  0  0  0  0  0  0  0
   -5.3027   40.2998   -3.7938 C   0  0  0  0  0  0  0  0  0  0  0  0
   -5.9329   35.9734   -6.2586 C   0  0  0  0  0  0  0  0  0  0  0  0
   -6.0841   39.4925   -2.9752 C   0  0  0  0  0  0  0  0  0  0  0  0
   -5.3498   40.0856   -5.3123 C   0  0  0  0  0  0  0  0  0  0  0  0
  1 13  1  0  0  0  0
  3  4  1  0  0  0  0
  4  5  1  0  0  0  0
  6  5  1  1  0  0  0
  6 10  1  0  0  0  0
  6 14  2  0  0  0  0
  6 18  1  0  0  0  0
  7 11  1  6  0  0  0
  7 15  1  0  0  0  0
  7 19  2  0  0  0  0
  7 18  1  0  0  0  0
  8 25  1  0  0  0  0
  8 12  1  0  0  0  0
  9 26  2  0  0  0  0
  9 13  1  0  0  0  0
 12 16  1  0  0  0  0
 13 17  2  0  0  0  0
 16 20  1  0  0  0  0
 16 27  1  0  0  0  0
 17 21  1  0  0  0  0
 20  2  1  1  0  0  0
 20 23  1  0  0  0  0
 21 22  1  0  0  0  0
 21 24  2  0  0  0  0
 23  3  1  6  0  0  0
 23 25  1  0  0  0  0
 24 27  1  0  0  0  0
 24 26  1  0  0  0  0
M  CHG  2  10  -1  15  -1
M  END
>  <CHROM.1>
-88.51175025,-166.46837229,50.18221358,-157.17076702,76.21846547,126.02000001
146.91827212,-38.92555629,-5.04958528,37.23235759,-7.68489432,-1.67581292
0.02620300,-2.11548599

>  <Name>
ligand

>  <RI>
0

>  <Rbt.Current_Directory>
/home/itssahil/PROJECTS/Mol_Feturizer/New_Systems/rnas/3D2V

>  <Rbt.Executable>
rbdock ($Id: //depot/dev/client3/rdock/2013.1/src/exe/rbdock.cxx#4 $)

>  <Rbt.Library>
libRbt.so (2013.1, Build901 2013/11/27)

>  <Rbt.Parameter_File>
/export/apps/rDock/src/rDock_2013.1_src/data/scripts/dock_solv.prm

>  <Rbt.Receptor>
prm/blind_docking_60.prm

>  <SCORE>
-12.0781

>  <SCORE.INTER>
-13.6912

>  <SCORE.INTER.CONST>
1

>  <SCORE.INTER.POLAR>
0

>  <SCORE.INTER.ROT>
8

>  <SCORE.INTER.SOLV>
19.6533

>  <SCORE.INTER.VDW>
-24.6119

>  <SCORE.INTER.norm>
-0.507081

>  <SCORE.INTRA>
1.58236

>  <SCORE.INTRA.DIHEDRAL>
2.08452

>  <SCORE.INTRA.DIHEDRAL.0>
7.82666

>  <SCORE.INTRA.POLAR>
0

>  <SCORE.INTRA.POLAR.0>
0

>  <SCORE.INTRA.REPUL>
0

>  <SCORE.INTRA.REPUL.0>
0

>  <SCORE.INTRA.SOLV>
-0.561064

>  <SCORE.INTRA.SOLV.lig_0>
-83.2758

>  <SCORE.INTRA.VDW>
0.820634

>  <SCORE.INTRA.VDW.0>
-3.26816

>  <SCORE.INTRA.norm>
0.058606

>  <SCORE.RESTR>
0.0307379

>  <SCORE.RESTR.CAVITY>
0.0307379

>  <SCORE.RESTR.norm>
0.00113844

>  <SCORE.SYSTEM>
0

>  <SCORE.SYSTEM.CONST>
0

>  <SCORE.SYSTEM.DIHEDRAL>
0

>  <SCORE.SYSTEM.SOLV>
0

>  <SCORE.SYSTEM.norm>
0

>  <SCORE.heavy>
27

>  <SCORE.norm>
-0.447337

>  <RMSD>
7.012

$$$$
ligand
 OpenBabel11021811473D
libRbt.so/2013.1/901 2013/11/27
 27 28  0  0  0  0  0  0  0  0999 V2000
   -4.9009   38.6194   -5.8318 C   0  0  0  0  0  0  0  0  0  0  0  0
   -5.8985   43.7005  -10.5262 C   0  0  0  0  0  0  0  0  0  0  0  0
   -4.6003   46.3548  -10.0318 C   0  0  0  0  0  0  0  0  0  0  0  0
   -4.7590   46.6736   -8.5440 C   0  0  0  0  0  0  0  0  0  0  0  0
   -3.4828   46.8673   -7.9291 O   0  0  0  0  0  0  0  0  0  0  0  0
   -3.3543   46.8700   -6.3280 P   0  0  1  0  0  0  0  0  0  0  0  0
   -0.5645   46.8554   -6.7437 P   0  0  2  0  0  0  0  0  0  0  0  0
   -1.6049   44.0327  -10.3251 C   0  0  0  0  0  0  0  0  0  0  0  0
   -4.0069   40.4649   -7.2396 N   0  0  0  0  0  0  0  0  0  0  0  0
   -4.3897   47.8991   -5.6677 O   0  5  0  0  0  0  0  0  0  0  0  0
   -0.6155   45.4704   -7.2554 O   0  0  0  0  0  0  0  0  0  0  0  0
   -2.1859   42.7928  -10.5558 C   0  0  0  0  0  0  0  0  0  0  0  0
   -4.7240   39.3325   -7.1727 C   0  0  0  0  0  0  0  0  0  0  0  0
   -3.6506   45.4241   -5.6685 O   0  0  0  0  0  0  0  0  0  0  0  0
    0.7129   47.0887   -5.8005 O   0  5  0  0  0  0  0  0  0  0  0  0
   -3.5756   42.6854  -10.6247 N   0  0  0  0  0  0  0  0  0  0  0  0
   -5.2895   38.8176   -8.2741 N   0  0  0  0  0  0  0  0  0  0  0  0
   -1.8450   47.2884   -5.8882 O   0  0  0  0  0  0  0  0  0  0  0  0
   -0.4037   47.8991   -7.9390 O   0  0  0  0  0  0  0  0  0  0  0  0
   -4.3704   43.8251  -10.4529 C   0  0  1  0  0  0  0  0  0  0  0  0
   -5.1460   39.4279   -9.4570 C   0  0  0  0  0  0  0  0  0  0  0  0
   -5.7127   38.9090  -10.5414 N   0  0  0  0  0  0  0  0  0  0  0  0
   -3.7862   45.0695  -10.2219 C   0  0  2  0  0  0  0  0  0  0  0  0
   -4.4102   40.6028   -9.5524 C   0  0  0  0  0  0  0  0  0  0  0  0
   -2.4010   45.1594  -10.1591 C   0  0  0  0  0  0  0  0  0  0  0  0
   -3.8393   41.1011   -8.3869 C   0  0  0  0  0  0  0  0  0  0  0  0
   -4.1971   41.3624  -10.8682 C   0  0  0  0  0  0  0  0  0  0  0  0
  1 13  1  0  0  0  0
  3  4  1  0  0  0  0
  4  5  1  0  0  0  0
  6  5  1  6  0  0  0
  6 10  1  0  0  0  0
  6 14  2  0  0  0  0
  6 18  1  0  0  0  0
  7 11  1  6  0  0  0
  7 15  1  0  0  0  0
  7 19  2  0  0  0  0
  7 18  1  0  0  0  0
  8 25  1  0  0  0  0
  8 12  1  0  0  0  0
  9 26  2  0  0  0  0
  9 13  1  0  0  0  0
 12 16  1  0  0  0  0
 13 17  2  0  0  0  0
 16 20  1  0  0  0  0
 16 27  1  0  0  0  0
 17 21  1  0  0  0  0
 20  2  1  6  0  0  0
 20 23  1  0  0  0  0
 21 22  1  0  0  0  0
 21 24  2  0  0  0  0
 23  3  1  1  0  0  0
 23 25  1  0  0  0  0
 24 27  1  0  0  0  0
 24 26  1  0  0  0  0
M  CHG  2  10  -1  15  -1
M  END
>  <CHROM.1>
60.52461427,-165.61578869,-52.39997892,-35.19618525,-40.98675017,98.23546130
170.32819425,86.91898248,-3.27376018,44.13798011,-8.17192929,-2.78276132
-1.15678536,-0.87627833

>  <Name>
ligand

>  <RI>
0

>  <Rbt.Current_Directory>
/home/itssahil/PROJECTS/Mol_Feturizer/New_Systems/rnas/3D2V

>  <Rbt.Executable>
rbdock ($Id: //depot/dev/client3/rdock/2013.1/src/exe/rbdock.cxx#4 $)

>  <Rbt.Library>
libRbt.so (2013.1, Build901 2013/11/27)

>  <Rbt.Parameter_File>
/export/apps/rDock/src/rDock_2013.1_src/data/scripts/dock_solv.prm

>  <Rbt.Receptor>
prm/pocket_docking_7.prm

>  <SCORE>
-14.0693

>  <SCORE.INTER>
-11.4861

>  <SCORE.INTER.CONST>
1

>  <SCORE.INTER.POLAR>
0

>  <SCORE.INTER.ROT>
8

>  <SCORE.INTER.SOLV>
17.6504

>  <SCORE.INTER.VDW>
-22.4742

>  <SCORE.INTER.norm>
-0.42541

>  <SCORE.INTRA>
-2.58324

>  <SCORE.INTRA.DIHEDRAL>
-0.167425

>  <SCORE.INTRA.DIHEDRAL.0>
7.82666

>  <SCORE.INTRA.POLAR>
0

>  <SCORE.INTRA.POLAR.0>
0

>  <SCORE.INTRA.REPUL>
0

>  <SCORE.INTRA.REPUL.0>
0

>  <SCORE.INTRA.SOLV>
-2.94289

>  <SCORE.INTRA.SOLV.lig_0>
-83.2758

>  <SCORE.INTRA.VDW>
-1.02808

>  <SCORE.INTRA.VDW.0>
-3.26816

>  <SCORE.INTRA.norm>
-0.0956754

>  <SCORE.RESTR>
0

>  <SCORE.RESTR.CAVITY>
0

>  <SCORE.RESTR.norm>
0

>  <SCORE.SYSTEM>
0

>  <SCORE.SYSTEM.CONST>
0

>  <SCORE.SYSTEM.DIHEDRAL>
0

>  <SCORE.SYSTEM.SOLV>
0

>  <SCORE.SYSTEM.norm>
0

>  <SCORE.heavy>
27

>  <SCORE.norm>
-0.521085

>  <RMSD>
7.065

$$$$
ligand
 OpenBabel11021811463D
libRbt.so/2013.1/901 2013/11/27
 27 28  0  0  0  0  0  0  0  0999 V2000
   -6.4809   34.5060  -10.1136 C   0  0  0  0  0  0  0  0  0  0  0  0
   -7.9028   41.2387   -5.7727 C   0  0  0  0  0  0  0  0  0  0  0  0
   -5.4634   42.5013   -4.5766 C   0  0  0  0  0  0  0  0  0  0  0  0
   -5.3611   42.8509   -3.0907 C   0  0  0  0  0  0  0  0  0  0  0  0
   -6.4319   42.2534   -2.3554 O   0  0  0  0  0  0  0  0  0  0  0  0
   -6.6193   42.5862   -0.7953 P   0  0  1  0  0  0  0  0  0  0  0  0
   -6.9858   39.8510   -0.2118 P   0  0  2  0  0  0  0  0  0  0  0  0
   -4.5782   38.8051   -4.5032 C   0  0  0  0  0  0  0  0  0  0  0  0
   -7.0471   36.8017   -9.3412 N   0  0  0  0  0  0  0  0  0  0  0  0
   -5.2027   42.7780   -0.0718 O   0  5  0  0  0  0  0  0  0  0  0  0
   -6.9658   39.3607   -1.6053 O   0  0  0  0  0  0  0  0  0  0  0  0
   -5.6989   38.1993   -5.0557 C   0  0  0  0  0  0  0  0  0  0  0  0
   -6.8759   35.5080   -9.0282 C   0  0  0  0  0  0  0  0  0  0  0  0
   -7.4617   43.9415   -0.5359 O   0  0  0  0  0  0  0  0  0  0  0  0
   -7.9911   38.9945    0.7000 O   0  5  0  0  0  0  0  0  0  0  0  0
   -6.7738   38.9870   -5.4702 N   0  0  0  0  0  0  0  0  0  0  0  0
   -7.0483   35.0828   -7.7683 N   0  0  0  0  0  0  0  0  0  0  0  0
   -7.4267   41.3811   -0.0588 O   0  0  0  0  0  0  0  0  0  0  0  0
   -5.5533   39.6881    0.4704 O   0  0  0  0  0  0  0  0  0  0  0  0
   -6.7161   40.3776   -5.3183 C   0  0  1  0  0  0  0  0  0  0  0  0
   -7.3938   35.9452   -6.8043 C   0  0  0  0  0  0  0  0  0  0  0  0
   -7.5600   35.5124   -5.5587 N   0  0  0  0  0  0  0  0  0  0  0  0
   -5.5905   40.9849   -4.7641 C   0  0  2  0  0  0  0  0  0  0  0  0
   -7.5749   37.2903   -7.1022 C   0  0  0  0  0  0  0  0  0  0  0  0
   -4.5278   40.1863   -4.3592 C   0  0  0  0  0  0  0  0  0  0  0  0
   -7.3882   37.6883   -8.4210 C   0  0  0  0  0  0  0  0  0  0  0  0
   -7.9715   38.3417   -6.0575 C   0  0  0  0  0  0  0  0  0  0  0  0
  1 13  1  0  0  0  0
  3  4  1  0  0  0  0
  4  5  1  0  0  0  0
  6  5  1  6  0  0  0
  6 10  1  0  0  0  0
  6 14  2  0  0  0  0
  6 18  1  0  0  0  0
  7 11  1  6  0  0  0
  7 15  1  0  0  0  0
  7 19  2  0  0  0  0
  7 18  1  0  0  0  0
  8 25  1  0  0  0  0
  8 12  1  0  0  0  0
  9 26  2  0  0  0  0
  9 13  1  0  0  0  0
 12 16  1  0  0  0  0
 13 17  2  0  0  0  0
 16 20  1  0  0  0  0
 16 27  1  0  0  0  0
 17 21  1  0  0  0  0
 20  2  1  6  0  0  0
 20 23  1  0  0  0  0
 21 22  1  0  0  0  0
 21 24  2  0  0  0  0
 23  3  1  1  0  0  0
 23 25  1  0  0  0  0
 24 27  1  0  0  0  0
 24 26  1  0  0  0  0
M  CHG  2  10  -1  15  -1
M  END
>  <CHROM.1>
-52.23544096,-174.33834288,-35.18486443,50.67304727,-58.41465873,116.36333288
92.44972528,-46.21420658,-6.65195147,39.57734573,-3.84395103,1.78760161,-1.34762544
-1.99101608

>  <Name>
ligand

>  <RI>
0

>  <Rbt.Current_Directory>
/home/itssahil/PROJECTS/Mol_Feturizer/New_Systems/rnas/3D2V

>  <Rbt.Executable>
rbdock ($Id: //depot/dev/client3/rdock/2013.1/src/exe/rbdock.cxx#4 $)

>  <Rbt.Library>
libRbt.so (2013.1, Build901 2013/11/27)

>  <Rbt.Parameter_File>
/export/apps/rDock/src/rDock_2013.1_src/data/scripts/dock_solv.prm

>  <Rbt.Receptor>
prm/blind_docking_60.prm

>  <SCORE>
-7.91395

>  <SCORE.INTER>
-5.82696

>  <SCORE.INTER.CONST>
1

>  <SCORE.INTER.POLAR>
0

>  <SCORE.INTER.ROT>
8

>  <SCORE.INTER.SOLV>
31.7979

>  <SCORE.INTER.VDW>
-23.4173

>  <SCORE.INTER.norm>
-0.215813

>  <SCORE.INTRA>
-2.25661

>  <SCORE.INTRA.DIHEDRAL>
-1.26501

>  <SCORE.INTRA.DIHEDRAL.0>
7.82666

>  <SCORE.INTRA.POLAR>
0

>  <SCORE.INTRA.POLAR.0>
0

>  <SCORE.INTRA.REPUL>
0

>  <SCORE.INTRA.REPUL.0>
0

>  <SCORE.INTRA.SOLV>
-1.30486

>  <SCORE.INTRA.SOLV.lig_0>
-83.2758

>  <SCORE.INTRA.VDW>
-0.971678

>  <SCORE.INTRA.VDW.0>
-3.26816

>  <SCORE.INTRA.norm>
-0.0835782

>  <SCORE.RESTR>
0.169616

>  <SCORE.RESTR.CAVITY>
0.169616

>  <SCORE.RESTR.norm>
0.00628209

>  <SCORE.SYSTEM>
0

>  <SCORE.SYSTEM.CONST>
0

>  <SCORE.SYSTEM.DIHEDRAL>
0

>  <SCORE.SYSTEM.SOLV>
0

>  <SCORE.SYSTEM.norm>
0

>  <SCORE.heavy>
27

>  <SCORE.norm>
-0.293109

>  <RMSD>
7.147

$$$$
ligand
 OpenBabel11021811463D
libRbt.so/2013.1/901 2013/11/27
 27 28  0  0  0  0  0  0  0  0999 V2000
   -3.0221   45.7333   -3.7745 C   0  0  0  0  0  0  0  0  0  0  0  0
   -7.9345   39.4123   -2.9624 C   0  0  0  0  0  0  0  0  0  0  0  0
   -8.3303   37.8387   -5.4809 C   0  0  0  0  0  0  0  0  0  0  0  0
   -8.1316   36.3501   -5.7724 C   0  0  0  0  0  0  0  0  0  0  0  0
   -7.3848   36.1658   -6.9776 O   0  0  0  0  0  0  0  0  0  0  0  0
   -6.6230   34.7775   -7.2466 P   0  0  1  0  0  0  0  0  0  0  0  0
   -6.3406   35.8345   -9.8465 P   0  0  2  0  0  0  0  0  0  0  0  0
   -4.7000   38.9285   -5.7714 C   0  0  0  0  0  0  0  0  0  0  0  0
   -3.2469   43.2722   -4.0569 N   0  0  0  0  0  0  0  0  0  0  0  0
   -5.5184   34.4977   -6.1202 O   0  5  0  0  0  0  0  0  0  0  0  0
   -6.2008   37.2584   -9.4783 O   0  0  0  0  0  0  0  0  0  0  0  0
   -4.4947   39.6613   -4.6099 C   0  0  0  0  0  0  0  0  0  0  0  0
   -3.6409   44.3823   -3.4140 C   0  0  0  0  0  0  0  0  0  0  0  0
   -7.6170   33.5026   -7.2507 O   0  0  0  0  0  0  0  0  0  0  0  0
   -7.8584   35.4677  -10.2173 O   0  5  0  0  0  0  0  0  0  0  0  0
   -5.5404   39.8150   -3.6986 N   0  0  0  0  0  0  0  0  0  0  0  0
   -4.5756   44.3191   -2.4547 N   0  0  0  0  0  0  0  0  0  0  0  0
   -5.8940   34.8116   -8.7005 O   0  0  0  0  0  0  0  0  0  0  0  0
   -5.4926   35.4980  -11.1548 O   0  0  0  0  0  0  0  0  0  0  0  0
   -6.7870   39.2369   -3.9667 C   0  0  1  0  0  0  0  0  0  0  0  0
   -5.1292   43.1455   -2.1254 C   0  0  0  0  0  0  0  0  0  0  0  0
   -6.0560   43.0956   -1.1742 N   0  0  0  0  0  0  0  0  0  0  0  0
   -6.9920   38.5011   -5.1327 C   0  0  1  0  0  0  0  0  0  0  0  0
   -4.7401   41.9819   -2.7778 C   0  0  0  0  0  0  0  0  0  0  0  0
   -5.9395   38.3552   -6.0281 C   0  0  0  0  0  0  0  0  0  0  0  0
   -3.7668   42.0918   -3.7643 C   0  0  0  0  0  0  0  0  0  0  0  0
   -5.3234   40.5990   -2.4599 C   0  0  0  0  0  0  0  0  0  0  0  0
  1 13  1  0  0  0  0
  3  4  1  0  0  0  0
  4  5  1  0  0  0  0
  6  5  1  1  0  0  0
  6 10  1  0  0  0  0
  6 14  2  0  0  0  0
  6 18  1  0  0  0  0
  7 11  1  1  0  0  0
  7 15  1  0  0  0  0
  7 19  2  0  0  0  0
  7 18  1  0  0  0  0
  8 25  1  0  0  0  0
  8 12  1  0  0  0  0
  9 26  2  0  0  0  0
  9 13  1  0  0  0  0
 12 16  1  0  0  0  0
 13 17  2  0  0  0  0
 16 20  1  0  0  0  0
 16 27  1  0  0  0  0
 17 21  1  0  0  0  0
 20  2  1  1  0  0  0
 20 23  1  0  0  0  0
 21 22  1  0  0  0  0
 21 24  2  0  0  0  0
 23  3  1  1  0  0  0
 23 25  1  0  0  0  0
 24 27  1  0  0  0  0
 24 26  1  0  0  0  0
M  CHG  2  10  -1  15  -1
M  END
>  <CHROM.1>
-67.67482942,159.28103804,-61.11418379,-20.42425347,60.79615253,-126.13621568
139.98716869,52.07258970,-5.93354650,38.56489393,-5.83199464,-1.19249682
-0.94779074,-2.20156835

>  <Name>
ligand

>  <RI>
0

>  <Rbt.Current_Directory>
/home/itssahil/PROJECTS/Mol_Feturizer/New_Systems/rnas/3D2V

>  <Rbt.Executable>
rbdock ($Id: //depot/dev/client3/rdock/2013.1/src/exe/rbdock.cxx#4 $)

>  <Rbt.Library>
libRbt.so (2013.1, Build901 2013/11/27)

>  <Rbt.Parameter_File>
/export/apps/rDock/src/rDock_2013.1_src/data/scripts/dock_solv.prm

>  <Rbt.Receptor>
prm/blind_docking_60.prm

>  <SCORE>
-6.90404

>  <SCORE.INTER>
-7.52733

>  <SCORE.INTER.CONST>
1

>  <SCORE.INTER.POLAR>
0

>  <SCORE.INTER.ROT>
8

>  <SCORE.INTER.SOLV>
23.8027

>  <SCORE.INTER.VDW>
-21.8858

>  <SCORE.INTER.norm>
-0.27879

>  <SCORE.INTRA>
0.606855

>  <SCORE.INTRA.DIHEDRAL>
1.27949

>  <SCORE.INTRA.DIHEDRAL.0>
7.82666

>  <SCORE.INTRA.POLAR>
0

>  <SCORE.INTRA.POLAR.0>
0

>  <SCORE.INTRA.REPUL>
0

>  <SCORE.INTRA.REPUL.0>
0

>  <SCORE.INTRA.SOLV>
-1.79033

>  <SCORE.INTRA.SOLV.lig_0>
-83.2758

>  <SCORE.INTRA.VDW>
0.862272

>  <SCORE.INTRA.VDW.0>
-3.26816

>  <SCORE.INTRA.norm>
0.0224761

>  <SCORE.RESTR>
0.0164346

>  <SCORE.RESTR.CAVITY>
0.0164346

>  <SCORE.RESTR.norm>
0.000608687

>  <SCORE.SYSTEM>
0

>  <SCORE.SYSTEM.CONST>
0

>  <SCORE.SYSTEM.DIHEDRAL>
0

>  <SCORE.SYSTEM.SOLV>
0

>  <SCORE.SYSTEM.norm>
0

>  <SCORE.heavy>
27

>  <SCORE.norm>
-0.255705

>  <RMSD>
7.167

$$$$
ligand
 OpenBabel11021811463D
libRbt.so/2013.1/901 2013/11/27
 27 28  0  0  0  0  0  0  0  0999 V2000
   -7.2064   35.2192  -12.6758 C   0  0  0  0  0  0  0  0  0  0  0  0
   -5.0412   38.4867   -5.4589 C   0  0  0  0  0  0  0  0  0  0  0  0
   -7.2907   38.9197   -3.5281 C   0  0  0  0  0  0  0  0  0  0  0  0
   -8.3118   39.8054   -2.8116 C   0  0  0  0  0  0  0  0  0  0  0  0
   -7.8418   40.1692   -1.5112 O   0  0  0  0  0  0  0  0  0  0  0  0
   -6.5092   41.0525   -1.3563 P   0  0  1  0  0  0  0  0  0  0  0  0
   -6.9503   42.8853   -3.4546 P   0  0  2  0  0  0  0  0  0  0  0  0
   -9.0191   39.3350   -6.8883 C   0  0  0  0  0  0  0  0  0  0  0  0
   -6.3207   37.3499  -11.7470 N   0  0  0  0  0  0  0  0  0  0  0  0
   -6.7190   42.2318   -0.2922 O   0  5  0  0  0  0  0  0  0  0  0  0
   -8.2267   42.4499   -4.0578 O   0  0  0  0  0  0  0  0  0  0  0  0
   -7.9911   39.1370   -7.8006 C   0  0  0  0  0  0  0  0  0  0  0  0
   -6.7875   36.1144  -11.5092 C   0  0  0  0  0  0  0  0  0  0  0  0
   -5.2366   40.1920   -0.8529 O   0  0  0  0  0  0  0  0  0  0  0  0
   -5.9927   43.5803   -4.5389 O   0  5  0  0  0  0  0  0  0  0  0  0
   -6.7040   38.8586   -7.3384 N   0  0  0  0  0  0  0  0  0  0  0  0
   -6.8910   35.6545  -10.2539 N   0  0  0  0  0  0  0  0  0  0  0  0
   -6.1002   41.7046   -2.7895 O   0  0  0  0  0  0  0  0  0  0  0  0
   -7.1975   43.9949   -2.3360 O   0  0  0  0  0  0  0  0  0  0  0  0
   -6.4595   38.7896   -5.9616 C   0  0  1  0  0  0  0  0  0  0  0  0
   -6.5289   36.4235   -9.2195 C   0  0  0  0  0  0  0  0  0  0  0  0
   -6.6342   35.9561   -7.9798 N   0  0  0  0  0  0  0  0  0  0  0  0
   -7.4922   38.9880   -5.0466 C   0  0  2  0  0  0  0  0  0  0  0  0
   -6.0404   37.7056   -9.4393 C   0  0  0  0  0  0  0  0  0  0  0  0
   -8.7683   39.2613   -5.5236 C   0  0  0  0  0  0  0  0  0  0  0  0
   -5.9514   38.1436  -10.7556 C   0  0  0  0  0  0  0  0  0  0  0  0
   -5.6056   38.6497   -8.3108 C   0  0  0  0  0  0  0  0  0  0  0  0
  1 13  1  0  0  0  0
  3  4  1  0  0  0  0
  4  5  1  0  0  0  0
  6  5  1  6  0  0  0
  6 10  1  0  0  0  0
  6 14  2  0  0  0  0
  6 18  1  0  0  0  0
  7 11  1  6  0  0  0
  7 15  1  0  0  0  0
  7 19  2  0  0  0  0
  7 18  1  0  0  0  0
  8 25  1  0  0  0  0
  8 12  1  0  0  0  0
  9 26  2  0  0  0  0
  9 13  1  0  0  0  0
 12 16  1  0  0  0  0
 13 17  2  0  0  0  0
 16 20  1  0  0  0  0
 16 27  1  0  0  0  0
 17 21  1  0  0  0  0
 20  2  1  6  0  0  0
 20 23  1  0  0  0  0
 21 22  1  0  0  0  0
 21 24  2  0  0  0  0
 23  3  1  1  0  0  0
 23 25  1  0  0  0  0
 24 27  1  0  0  0  0
 24 26  1  0  0  0  0
M  CHG  2  10  -1  15  -1
M  END
>  <CHROM.1>
-157.37333341,63.03080775,134.69787070,71.19710596,-75.54916941,152.04297231
-56.27521615,-46.34794092,-6.84650806,39.64813485,-5.55420464,1.23465886
1.52291035,-1.78946221

>  <Name>
ligand

>  <RI>
0

>  <Rbt.Current_Directory>
/home/itssahil/PROJECTS/Mol_Feturizer/New_Systems/rnas/3D2V

>  <Rbt.Executable>
rbdock ($Id: //depot/dev/client3/rdock/2013.1/src/exe/rbdock.cxx#4 $)

>  <Rbt.Library>
libRbt.so (2013.1, Build901 2013/11/27)

>  <Rbt.Parameter_File>
/export/apps/rDock/src/rDock_2013.1_src/data/scripts/dock_solv.prm

>  <Rbt.Receptor>
prm/blind_docking_60.prm

>  <SCORE>
-9.98111

>  <SCORE.INTER>
-12.5018

>  <SCORE.INTER.CONST>
1

>  <SCORE.INTER.POLAR>
0

>  <SCORE.INTER.ROT>
8

>  <SCORE.INTER.SOLV>
17.1335

>  <SCORE.INTER.VDW>
-22.979

>  <SCORE.INTER.norm>
-0.46303

>  <SCORE.INTRA>
2.5207

>  <SCORE.INTRA.DIHEDRAL>
1.76569

>  <SCORE.INTRA.DIHEDRAL.0>
7.82666

>  <SCORE.INTRA.POLAR>
0

>  <SCORE.INTRA.POLAR.0>
0

>  <SCORE.INTRA.REPUL>
0

>  <SCORE.INTRA.REPUL.0>
0

>  <SCORE.INTRA.SOLV>
2.34994

>  <SCORE.INTRA.SOLV.lig_0>
-83.2758

>  <SCORE.INTRA.VDW>
0.46289

>  <SCORE.INTRA.VDW.0>
-3.26816

>  <SCORE.INTRA.norm>
0.0933594

>  <SCORE.RESTR>
0

>  <SCORE.RESTR.CAVITY>
0

>  <SCORE.RESTR.norm>
0

>  <SCORE.SYSTEM>
0

>  <SCORE.SYSTEM.CONST>
0

>  <SCORE.SYSTEM.DIHEDRAL>
0

>  <SCORE.SYSTEM.SOLV>
0

>  <SCORE.SYSTEM.norm>
0

>  <SCORE.heavy>
27

>  <SCORE.norm>
-0.369671

>  <RMSD>
7.185

$$$$
ligand
 OpenBabel11021811463D
libRbt.so/2013.1/901 2013/11/27
 27 28  0  0  0  0  0  0  0  0999 V2000
   -4.9952   39.9224  -12.3002 C   0  0  0  0  0  0  0  0  0  0  0  0
   -8.5157   38.7230   -6.5648 C   0  0  0  0  0  0  0  0  0  0  0  0
   -7.6183   40.0087   -4.0120 C   0  0  0  0  0  0  0  0  0  0  0  0
   -8.0277   39.5022   -2.6276 C   0  0  0  0  0  0  0  0  0  0  0  0
   -7.7968   40.5036   -1.6337 O   0  0  0  0  0  0  0  0  0  0  0  0
   -6.3001   40.8192   -1.1434 P   0  0  1  0  0  0  0  0  0  0  0  0
   -5.4412   42.4968   -3.2421 P   0  0  2  0  0  0  0  0  0  0  0  0
   -4.7334   37.6588   -4.7905 C   0  0  0  0  0  0  0  0  0  0  0  0
   -5.4246   39.5624   -9.8767 N   0  0  0  0  0  0  0  0  0  0  0  0
   -6.2694   42.0840   -0.1604 O   0  5  0  0  0  0  0  0  0  0  0  0
   -6.8117   42.8629   -3.6547 O   0  0  0  0  0  0  0  0  0  0  0  0
   -5.1297   37.0510   -5.9745 C   0  0  0  0  0  0  0  0  0  0  0  0
   -5.4713   39.0693  -11.1239 C   0  0  0  0  0  0  0  0  0  0  0  0
   -5.6265   39.5887   -0.3399 O   0  0  0  0  0  0  0  0  0  0  0  0
   -4.4663   42.3412   -4.5075 O   0  5  0  0  0  0  0  0  0  0  0  0
   -6.3524   37.3980   -6.5511 N   0  0  0  0  0  0  0  0  0  0  0  0
   -5.9331   37.8311  -11.3506 N   0  0  0  0  0  0  0  0  0  0  0  0
   -5.3445   41.1256   -2.4239 O   0  0  0  0  0  0  0  0  0  0  0  0
   -4.7901   43.6439   -2.3454 O   0  0  0  0  0  0  0  0  0  0  0  0
   -7.1705   38.3479   -5.9279 C   0  0  1  0  0  0  0  0  0  0  0  0
   -6.3541   37.0690  -10.3335 C   0  0  0  0  0  0  0  0  0  0  0  0
   -6.8079   35.8425  -10.5703 N   0  0  0  0  0  0  0  0  0  0  0  0
   -6.7715   38.9578   -4.7396 C   0  0  1  0  0  0  0  0  0  0  0  0
   -6.3138   37.5556   -9.0326 C   0  0  0  0  0  0  0  0  0  0  0  0
   -5.5499   38.6031   -4.1803 C   0  0  0  0  0  0  0  0  0  0  0  0
   -5.8299   38.8449   -8.8423 C   0  0  0  0  0  0  0  0  0  0  0  0
   -6.7778   36.7483   -7.8132 C   0  0  0  0  0  0  0  0  0  0  0  0
  1 13  1  0  0  0  0
  3  4  1  0  0  0  0
  4  5  1  0  0  0  0
  6  5  1  6  0  0  0
  6 10  1  0  0  0  0
  6 14  2  0  0  0  0
  6 18  1  0  0  0  0
  7 11  1  6  0  0  0
  7 15  1  0  0  0  0
  7 19  2  0  0  0  0
  7 18  1  0  0  0  0
  8 25  1  0  0  0  0
  8 12  1  0  0  0  0
  9 26  2  0  0  0  0
  9 13  1  0  0  0  0
 12 16  1  0  0  0  0
 13 17  2  0  0  0  0
 16 20  1  0  0  0  0
 16 27  1  0  0  0  0
 17 21  1  0  0  0  0
 20  2  1  6  0  0  0
 20 23  1  0  0  0  0
 21 22  1  0  0  0  0
 21 24  2  0  0  0  0
 23  3  1  6  0  0  0
 23 25  1  0  0  0  0
 24 27  1  0  0  0  0
 24 26  1  0  0  0  0
M  CHG  2  10  -1  15  -1
M  END
>  <CHROM.1>
132.94503052,-74.58241715,173.39309295,73.53791368,-50.15203796,117.19012887
167.82060415,-91.17222776,-6.15010781,39.73377267,-5.31525089,-1.55616619
1.18563726,1.15364324

>  <Name>
ligand

>  <RI>
0

>  <Rbt.Current_Directory>
/home/itssahil/PROJECTS/Mol_Feturizer/New_Systems/rnas/3D2V

>  <Rbt.Executable>
rbdock ($Id: //depot/dev/client3/rdock/2013.1/src/exe/rbdock.cxx#4 $)

>  <Rbt.Library>
libRbt.so (2013.1, Build901 2013/11/27)

>  <Rbt.Parameter_File>
/export/apps/rDock/src/rDock_2013.1_src/data/scripts/dock_solv.prm

>  <Rbt.Receptor>
prm/blind_docking_60.prm

>  <SCORE>
-11.9861

>  <SCORE.INTER>
-12.6409

>  <SCORE.INTER.CONST>
1

>  <SCORE.INTER.POLAR>
0

>  <SCORE.INTER.ROT>
8

>  <SCORE.INTER.SOLV>
17.4398

>  <SCORE.INTER.VDW>
-23.1739

>  <SCORE.INTER.norm>
-0.468181

>  <SCORE.INTRA>
0.654794

>  <SCORE.INTRA.DIHEDRAL>
3.80742

>  <SCORE.INTRA.DIHEDRAL.0>
7.82666

>  <SCORE.INTRA.POLAR>
0

>  <SCORE.INTRA.POLAR.0>
0

>  <SCORE.INTRA.REPUL>
0

>  <SCORE.INTRA.REPUL.0>
0

>  <SCORE.INTRA.SOLV>
-0.442902

>  <SCORE.INTRA.SOLV.lig_0>
-83.2758

>  <SCORE.INTRA.VDW>
-1.02747

>  <SCORE.INTRA.VDW.0>
-3.26816

>  <SCORE.INTRA.norm>
0.0242516

>  <SCORE.RESTR>
0

>  <SCORE.RESTR.CAVITY>
0

>  <SCORE.RESTR.norm>
0

>  <SCORE.SYSTEM>
0

>  <SCORE.SYSTEM.CONST>
0

>  <SCORE.SYSTEM.DIHEDRAL>
0

>  <SCORE.SYSTEM.SOLV>
0

>  <SCORE.SYSTEM.norm>
0

>  <SCORE.heavy>
27

>  <SCORE.norm>
-0.44393

>  <RMSD>
7.211

$$$$
ligand
 OpenBabel11021811463D
libRbt.so/2013.1/901 2013/11/27
 27 28  0  0  0  0  0  0  0  0999 V2000
   -5.1833   39.7495  -12.9774 C   0  0  0  0  0  0  0  0  0  0  0  0
   -5.5812   36.8117   -5.3220 C   0  0  0  0  0  0  0  0  0  0  0  0
   -6.6611   38.7850   -3.3434 C   0  0  0  0  0  0  0  0  0  0  0  0
   -7.6324   39.6186   -2.5053 C   0  0  0  0  0  0  0  0  0  0  0  0
   -7.2836   41.0042   -2.5556 O   0  0  0  0  0  0  0  0  0  0  0  0
   -6.0479   41.5539   -1.6890 P   0  0  1  0  0  0  0  0  0  0  0  0
   -5.1417   43.4739   -3.5460 P   0  0  2  0  0  0  0  0  0  0  0  0
   -8.4170   39.8164   -6.5534 C   0  0  0  0  0  0  0  0  0  0  0  0
   -5.3615   39.5947  -10.5012 N   0  0  0  0  0  0  0  0  0  0  0  0
   -6.3724   41.4979   -0.1210 O   0  5  0  0  0  0  0  0  0  0  0  0
   -4.0979   42.5568   -4.0481 O   0  0  0  0  0  0  0  0  0  0  0  0
   -7.9296   38.9111   -7.4867 C   0  0  0  0  0  0  0  0  0  0  0  0
   -5.5350   39.0002  -11.6918 C   0  0  0  0  0  0  0  0  0  0  0  0
   -4.6914   40.7037   -1.9142 O   0  0  0  0  0  0  0  0  0  0  0  0
   -4.5994   44.9805   -3.4360 O   0  5  0  0  0  0  0  0  0  0  0  0
   -7.0145   37.9359   -7.0877 N   0  0  0  0  0  0  0  0  0  0  0  0
   -6.0156   37.7506  -11.7662 N   0  0  0  0  0  0  0  0  0  0  0  0
   -5.7145   43.0916   -2.1021 O   0  0  0  0  0  0  0  0  0  0  0  0
   -6.3750   43.5412   -4.5551 O   0  0  0  0  0  0  0  0  0  0  0  0
   -6.5906   37.8841   -5.7544 C   0  0  1  0  0  0  0  0  0  0  0  0
   -6.3289   37.0785  -10.6516 C   0  0  0  0  0  0  0  0  0  0  0  0
   -6.8027   35.8398  -10.7379 N   0  0  0  0  0  0  0  0  0  0  0  0
   -7.0808   38.7930   -4.8181 C   0  0  2  0  0  0  0  0  0  0  0  0
   -6.1563   37.6710   -9.4066 C   0  0  0  0  0  0  0  0  0  0  0  0
   -7.9936   39.7558   -5.2313 C   0  0  0  0  0  0  0  0  0  0  0  0
   -5.6575   38.9682   -9.3747 C   0  0  0  0  0  0  0  0  0  0  0  0
   -6.4915   36.9708   -8.0832 C   0  0  0  0  0  0  0  0  0  0  0  0
  1 13  1  0  0  0  0
  3  4  1  0  0  0  0
  4  5  1  0  0  0  0
  6  5  1  6  0  0  0
  6 10  1  0  0  0  0
  6 14  2  0  0  0  0
  6 18  1  0  0  0  0
  7 11  1  6  0  0  0
  7 15  1  0  0  0  0
  7 19  2  0  0  0  0
  7 18  1  0  0  0  0
  8 25  1  0  0  0  0
  8 12  1  0  0  0  0
  9 26  2  0  0  0  0
  9 13  1  0  0  0  0
 12 16  1  0  0  0  0
 13 17  2  0  0  0  0
 16 20  1  0  0  0  0
 16 27  1  0  0  0  0
 17 21  1  0  0  0  0
 20  2  1  1  0  0  0
 20 23  1  0  0  0  0
 21 22  1  0  0  0  0
 21 24  2  0  0  0  0
 23  3  1  6  0  0  0
 23 25  1  0  0  0  0
 24 27  1  0  0  0  0
 24 26  1  0  0  0  0
M  CHG  2  10  -1  15  -1
M  END
>  <CHROM.1>
-83.70222204,-76.90648242,-68.35818956,-66.99069469,-42.21244115,-164.27166193
-144.98067377,42.31009242,-6.14289882,40.11505477,-5.71979541,-1.67265749
1.18739416,1.18081340

>  <Name>
ligand

>  <RI>
0

>  <Rbt.Current_Directory>
/home/itssahil/PROJECTS/Mol_Feturizer/New_Systems/rnas/3D2V

>  <Rbt.Executable>
rbdock ($Id: //depot/dev/client3/rdock/2013.1/src/exe/rbdock.cxx#4 $)

>  <Rbt.Library>
libRbt.so (2013.1, Build901 2013/11/27)

>  <Rbt.Parameter_File>
/export/apps/rDock/src/rDock_2013.1_src/data/scripts/dock_solv.prm

>  <Rbt.Receptor>
prm/blind_docking_60.prm

>  <SCORE>
-11.7008

>  <SCORE.INTER>
-13.2339

>  <SCORE.INTER.CONST>
1

>  <SCORE.INTER.POLAR>
0

>  <SCORE.INTER.ROT>
8

>  <SCORE.INTER.SOLV>
14.7509

>  <SCORE.INTER.VDW>
-22.6729

>  <SCORE.INTER.norm>
-0.490146

>  <SCORE.INTRA>
1.53311

>  <SCORE.INTRA.DIHEDRAL>
1.23783

>  <SCORE.INTRA.DIHEDRAL.0>
7.82666

>  <SCORE.INTRA.POLAR>
0

>  <SCORE.INTRA.POLAR.0>
0

>  <SCORE.INTRA.REPUL>
0

>  <SCORE.INTRA.REPUL.0>
0

>  <SCORE.INTRA.SOLV>
-1.24142

>  <SCORE.INTRA.SOLV.lig_0>
-83.2758

>  <SCORE.INTRA.VDW>
1.53491

>  <SCORE.INTRA.VDW.0>
-3.26816

>  <SCORE.INTRA.norm>
0.056782

>  <SCORE.RESTR>
0

>  <SCORE.RESTR.CAVITY>
0

>  <SCORE.RESTR.norm>
0

>  <SCORE.SYSTEM>
0

>  <SCORE.SYSTEM.CONST>
0

>  <SCORE.SYSTEM.DIHEDRAL>
0

>  <SCORE.SYSTEM.SOLV>
0

>  <SCORE.SYSTEM.norm>
0

>  <SCORE.heavy>
27

>  <SCORE.norm>
-0.433364

>  <RMSD>
7.241

$$$$
ligand
 OpenBabel11021811473D
libRbt.so/2013.1/901 2013/11/27
 27 28  0  0  0  0  0  0  0  0999 V2000
   -4.1317   40.1370  -13.2794 C   0  0  0  0  0  0  0  0  0  0  0  0
   -7.4926   41.0448   -6.0620 C   0  0  0  0  0  0  0  0  0  0  0  0
   -5.6061   40.6640   -3.7660 C   0  0  0  0  0  0  0  0  0  0  0  0
   -6.1050   41.7182   -2.7759 C   0  0  0  0  0  0  0  0  0  0  0  0
   -7.2318   42.4190   -3.3081 O   0  0  0  0  0  0  0  0  0  0  0  0
   -7.1378   43.9982   -3.5866 P   0  0  1  0  0  0  0  0  0  0  0  0
   -5.4986   45.8051   -5.0023 P   0  0  2  0  0  0  0  0  0  0  0  0
   -3.3977   42.3614   -6.3530 C   0  0  0  0  0  0  0  0  0  0  0  0
   -4.7977   40.0113  -10.8860 N   0  0  0  0  0  0  0  0  0  0  0  0
   -8.4151   44.5174   -4.4027 O   0  5  0  0  0  0  0  0  0  0  0  0
   -5.5608   46.8706   -3.9808 O   0  0  0  0  0  0  0  0  0  0  0  0
   -4.2553   42.5483   -7.4289 C   0  0  0  0  0  0  0  0  0  0  0  0
   -4.7611   40.7304  -12.0185 C   0  0  0  0  0  0  0  0  0  0  0  0
   -7.0640   44.8749   -2.2304 O   0  0  0  0  0  0  0  0  0  0  0  0
   -6.5520   46.0609   -6.1858 O   0  5  0  0  0  0  0  0  0  0  0  0
   -5.5820   42.1257   -7.3338 N   0  0  0  0  0  0  0  0  0  0  0  0
   -5.2728   41.9693  -12.0563 N   0  0  0  0  0  0  0  0  0  0  0  0
   -5.7953   44.3370   -4.4406 O   0  0  0  0  0  0  0  0  0  0  0  0
   -4.0687   45.7749   -5.7083 O   0  0  0  0  0  0  0  0  0  0  0  0
   -6.0334   41.5109   -6.1597 C   0  0  1  0  0  0  0  0  0  0  0  0
   -5.8282   42.5057  -10.9626 C   0  0  0  0  0  0  0  0  0  0  0  0
   -6.3338   43.7338  -11.0127 N   0  0  0  0  0  0  0  0  0  0  0  0
   -5.1718   41.3242   -5.0800 C   0  0  2  0  0  0  0  0  0  0  0  0
   -5.8805   41.7807   -9.7783 C   0  0  0  0  0  0  0  0  0  0  0  0
   -3.8548   41.7534   -5.1901 C   0  0  0  0  0  0  0  0  0  0  0  0
   -5.3368   40.5013   -9.7822 C   0  0  0  0  0  0  0  0  0  0  0  0
   -6.4977   42.3221   -8.4822 C   0  0  0  0  0  0  0  0  0  0  0  0
  1 13  1  0  0  0  0
  3  4  1  0  0  0  0
  4  5  1  0  0  0  0
  6  5  1  1  0  0  0
  6 10  1  0  0  0  0
  6 14  2  0  0  0  0
  6 18  1  0  0  0  0
  7 11  1  1  0  0  0
  7 15  1  0  0  0  0
  7 19  2  0  0  0  0
  7 18  1  0  0  0  0
  8 25  1  0  0  0  0
  8 12  1  0  0  0  0
  9 26  2  0  0  0  0
  9 13  1  0  0  0  0
 12 16  1  0  0  0  0
 13 17  2  0  0  0  0
 16 20  1  0  0  0  0
 16 27  1  0  0  0  0
 17 21  1  0  0  0  0
 20  2  1  1  0  0  0
 20 23  1  0  0  0  0
 21 22  1  0  0  0  0
 21 24  2  0  0  0  0
 23  3  1  6  0  0  0
 23 25  1  0  0  0  0
 24 27  1  0  0  0  0
 24 26  1  0  0  0  0
M  CHG  2  10  -1  15  -1
M  END
>  <CHROM.1>
60.54876083,-117.11292603,170.45314928,173.62746999,53.07046502,-91.17333517
-130.75399571,50.97424925,-5.79991156,43.01116101,-6.59113420,-0.35088557
1.39960476,-0.04837073

>  <Name>
ligand

>  <RI>
0

>  <Rbt.Current_Directory>
/home/itssahil/PROJECTS/Mol_Feturizer/New_Systems/rnas/3D2V

>  <Rbt.Executable>
rbdock ($Id: //depot/dev/client3/rdock/2013.1/src/exe/rbdock.cxx#4 $)

>  <Rbt.Library>
libRbt.so (2013.1, Build901 2013/11/27)

>  <Rbt.Parameter_File>
/export/apps/rDock/src/rDock_2013.1_src/data/scripts/dock_solv.prm

>  <Rbt.Receptor>
prm/pocket_docking_8.prm

>  <SCORE>
-4.38388

>  <SCORE.INTER>
-4.16249

>  <SCORE.INTER.CONST>
1

>  <SCORE.INTER.POLAR>
0

>  <SCORE.INTER.ROT>
8

>  <SCORE.INTER.SOLV>
9.07633

>  <SCORE.INTER.VDW>
-14.7338

>  <SCORE.INTER.norm>
-0.154166

>  <SCORE.INTRA>
-0.221385

>  <SCORE.INTRA.DIHEDRAL>
4.81815

>  <SCORE.INTRA.DIHEDRAL.0>
7.82666

>  <SCORE.INTRA.POLAR>
0

>  <SCORE.INTRA.POLAR.0>
0

>  <SCORE.INTRA.REPUL>
0

>  <SCORE.INTRA.REPUL.0>
0

>  <SCORE.INTRA.SOLV>
0.306969

>  <SCORE.INTRA.SOLV.lig_0>
-83.2758

>  <SCORE.INTRA.VDW>
-2.78394

>  <SCORE.INTRA.VDW.0>
-3.26816

>  <SCORE.INTRA.norm>
-0.00819944

>  <SCORE.RESTR>
0

>  <SCORE.RESTR.CAVITY>
0

>  <SCORE.RESTR.norm>
0

>  <SCORE.SYSTEM>
0

>  <SCORE.SYSTEM.CONST>
0

>  <SCORE.SYSTEM.DIHEDRAL>
0

>  <SCORE.SYSTEM.SOLV>
0

>  <SCORE.SYSTEM.norm>
0

>  <SCORE.heavy>
27

>  <SCORE.norm>
-0.162366

>  <RMSD>
7.249

$$$$
ligand
 OpenBabel11021811473D
libRbt.so/2013.1/901 2013/11/27
 27 28  0  0  0  0  0  0  0  0999 V2000
   -5.7467   42.6314  -11.9359 C   0  0  0  0  0  0  0  0  0  0  0  0
   -5.2141   41.4928   -5.3385 C   0  0  0  0  0  0  0  0  0  0  0  0
   -7.6800   40.9631   -3.7217 C   0  0  0  0  0  0  0  0  0  0  0  0
   -8.3979   40.0637   -4.7298 C   0  0  0  0  0  0  0  0  0  0  0  0
   -7.7212   40.0745   -5.9892 O   0  0  0  0  0  0  0  0  0  0  0  0
   -8.3778   39.3448   -7.2606 P   0  0  1  0  0  0  0  0  0  0  0  0
   -6.1144   39.2281   -8.9398 P   0  0  2  0  0  0  0  0  0  0  0  0
   -8.1033   44.6211   -4.6658 C   0  0  0  0  0  0  0  0  0  0  0  0
   -6.5115   43.1847   -9.6346 N   0  0  0  0  0  0  0  0  0  0  0  0
   -8.3239   37.7513   -7.1030 O   0  5  0  0  0  0  0  0  0  0  0  0
   -5.5165   39.7917  -10.1675 O   0  0  0  0  0  0  0  0  0  0  0  0
   -6.9675   44.8880   -5.4188 C   0  0  0  0  0  0  0  0  0  0  0  0
   -5.4840   43.0356  -10.4849 C   0  0  0  0  0  0  0  0  0  0  0  0
   -9.9301   39.7385   -7.4821 O   0  0  0  0  0  0  0  0  0  0  0  0
   -6.2211   37.6286   -9.0167 O   0  5  0  0  0  0  0  0  0  0  0  0
   -6.0338   43.8746   -5.6399 N   0  0  0  0  0  0  0  0  0  0  0  0
   -4.2239   43.2381  -10.0737 N   0  0  0  0  0  0  0  0  0  0  0  0
   -7.5864   39.7657   -8.6181 O   0  0  0  0  0  0  0  0  0  0  0  0
   -5.1990   39.5302   -7.6692 O   0  0  0  0  0  0  0  0  0  0  0  0
   -6.2461   42.6025   -5.0950 C   0  0  1  0  0  0  0  0  0  0  0  0
   -3.9741   43.5927   -8.8071 C   0  0  0  0  0  0  0  0  0  0  0  0
   -2.7210   43.7925   -8.4116 N   0  0  0  0  0  0  0  0  0  0  0  0
   -7.3868   42.3354   -4.3397 C   0  0  1  0  0  0  0  0  0  0  0  0
   -5.0207   43.7559   -7.9078 C   0  0  0  0  0  0  0  0  0  0  0  0
   -8.3079   43.3548   -4.1315 C   0  0  0  0  0  0  0  0  0  0  0  0
   -6.3111   43.5340   -8.3748 C   0  0  0  0  0  0  0  0  0  0  0  0
   -4.8200   44.1588   -6.4411 C   0  0  0  0  0  0  0  0  0  0  0  0
  1 13  1  0  0  0  0
  3  4  1  0  0  0  0
  4  5  1  0  0  0  0
  6  5  1  1  0  0  0
  6 10  1  0  0  0  0
  6 14  2  0  0  0  0
  6 18  1  0  0  0  0
  7 11  1  6  0  0  0
  7 15  1  0  0  0  0
  7 19  2  0  0  0  0
  7 18  1  0  0  0  0
  8 25  1  0  0  0  0
  8 12  1  0  0  0  0
  9 26  2  0  0  0  0
  9 13  1  0  0  0  0
 12 16  1  0  0  0  0
 13 17  2  0  0  0  0
 16 20  1  0  0  0  0
 16 27  1  0  0  0  0
 17 21  1  0  0  0  0
 20  2  1  6  0  0  0
 20 23  1  0  0  0  0
 21 22  1  0  0  0  0
 21 24  2  0  0  0  0
 23  3  1  6  0  0  0
 23 25  1  0  0  0  0
 24 27  1  0  0  0  0
 24 26  1  0  0  0  0
M  CHG  2  10  -1  15  -1
M  END
>  <CHROM.1>
48.86849810,-172.78326300,-71.33960337,72.01026064,-175.81394325,-86.21805406
-163.41439499,-95.44879774,-6.53794757,41.40745854,-7.43826423,-0.32355821
-0.94265877,-2.38979166

>  <Name>
ligand

>  <RI>
0

>  <Rbt.Current_Directory>
/home/itssahil/PROJECTS/Mol_Feturizer/New_Systems/rnas/3D2V

>  <Rbt.Executable>
rbdock ($Id: //depot/dev/client3/rdock/2013.1/src/exe/rbdock.cxx#4 $)

>  <Rbt.Library>
libRbt.so (2013.1, Build901 2013/11/27)

>  <Rbt.Parameter_File>
/export/apps/rDock/src/rDock_2013.1_src/data/scripts/dock_solv.prm

>  <Rbt.Receptor>
prm/pocket_docking_4.prm

>  <SCORE>
-7.85721

>  <SCORE.INTER>
-6.03481

>  <SCORE.INTER.CONST>
1

>  <SCORE.INTER.POLAR>
0

>  <SCORE.INTER.ROT>
8

>  <SCORE.INTER.SOLV>
20.0563

>  <SCORE.INTER.VDW>
-19.642

>  <SCORE.INTER.norm>
-0.223512

>  <SCORE.INTRA>
-1.84347

>  <SCORE.INTRA.DIHEDRAL>
-1.42713

>  <SCORE.INTRA.DIHEDRAL.0>
7.82666

>  <SCORE.INTRA.POLAR>
0

>  <SCORE.INTRA.POLAR.0>
0

>  <SCORE.INTRA.REPUL>
0

>  <SCORE.INTRA.REPUL.0>
0

>  <SCORE.INTRA.SOLV>
1.63689

>  <SCORE.INTRA.SOLV.lig_0>
-83.2758

>  <SCORE.INTRA.VDW>
-1.94835

>  <SCORE.INTRA.VDW.0>
-3.26816

>  <SCORE.INTRA.norm>
-0.0682767

>  <SCORE.RESTR>
0.0210725

>  <SCORE.RESTR.CAVITY>
0.0210725

>  <SCORE.RESTR.norm>
0.000780464

>  <SCORE.SYSTEM>
0

>  <SCORE.SYSTEM.CONST>
0

>  <SCORE.SYSTEM.DIHEDRAL>
0

>  <SCORE.SYSTEM.SOLV>
0

>  <SCORE.SYSTEM.norm>
0

>  <SCORE.heavy>
27

>  <SCORE.norm>
-0.291008

>  <RMSD>
7.316

$$$$
ligand
 OpenBabel11021811473D
libRbt.so/2013.1/901 2013/11/27
 27 28  0  0  0  0  0  0  0  0999 V2000
   -6.8019   46.0831   -8.5579 C   0  0  0  0  0  0  0  0  0  0  0  0
   -5.0755   38.7435   -6.5793 C   0  0  0  0  0  0  0  0  0  0  0  0
   -6.5134   36.6435   -8.1599 C   0  0  0  0  0  0  0  0  0  0  0  0
   -7.7476   37.0052   -7.3314 C   0  0  0  0  0  0  0  0  0  0  0  0
   -8.5446   37.9794   -8.0096 O   0  0  0  0  0  0  0  0  0  0  0  0
   -8.6873   39.4616   -7.4071 P   0  0  1  0  0  0  0  0  0  0  0  0
   -7.9497   40.8389   -5.0587 P   0  0  2  0  0  0  0  0  0  0  0  0
   -5.5486   39.1561  -10.8446 C   0  0  0  0  0  0  0  0  0  0  0  0
   -6.7055   43.5979   -8.5181 N   0  0  0  0  0  0  0  0  0  0  0  0
   -8.2314   40.5652   -8.4755 O   0  5  0  0  0  0  0  0  0  0  0  0
   -9.2359   40.8444   -4.3319 O   0  0  0  0  0  0  0  0  0  0  0  0
   -4.8782   40.1409  -10.1313 C   0  0  0  0  0  0  0  0  0  0  0  0
   -6.0475   44.7620   -8.4049 C   0  0  0  0  0  0  0  0  0  0  0  0
  -10.2032   39.8258   -6.9796 O   0  0  0  0  0  0  0  0  0  0  0  0
   -7.7560   42.1763   -5.9244 O   0  5  0  0  0  0  0  0  0  0  0  0
   -4.7215   40.0059   -8.7511 N   0  0  0  0  0  0  0  0  0  0  0  0
   -4.7296   44.7790   -8.1581 N   0  0  0  0  0  0  0  0  0  0  0  0
   -7.7713   39.6134   -6.0713 O   0  0  0  0  0  0  0  0  0  0  0  0
   -6.7207   40.8115   -4.0424 O   0  0  0  0  0  0  0  0  0  0  0  0
   -5.2477   38.8849   -8.0980 C   0  0  1  0  0  0  0  0  0  0  0  0
   -4.0520   43.6326   -8.0207 C   0  0  0  0  0  0  0  0  0  0  0  0
   -2.7463   43.6621   -7.7743 N   0  0  0  0  0  0  0  0  0  0  0  0
   -5.9202   37.8965   -8.8149 C   0  0  1  0  0  0  0  0  0  0  0  0
   -4.7107   42.4141   -8.1311 C   0  0  0  0  0  0  0  0  0  0  0  0
   -6.0648   38.0450  -10.1889 C   0  0  0  0  0  0  0  0  0  0  0  0
   -6.0763   42.4417   -8.3895 C   0  0  0  0  0  0  0  0  0  0  0  0
   -4.0085   41.0574   -7.9884 C   0  0  0  0  0  0  0  0  0  0  0  0
  1 13  1  0  0  0  0
  3  4  1  0  0  0  0
  4  5  1  0  0  0  0
  6  5  1  6  0  0  0
  6 10  1  0  0  0  0
  6 14  2  0  0  0  0
  6 18  1  0  0  0  0
  7 11  1  1  0  0  0
  7 15  1  0  0  0  0
  7 19  2  0  0  0  0
  7 18  1  0  0  0  0
  8 25  1  0  0  0  0
  8 12  1  0  0  0  0
  9 26  2  0  0  0  0
  9 13  1  0  0  0  0
 12 16  1  0  0  0  0
 13 17  2  0  0  0  0
 16 20  1  0  0  0  0
 16 27  1  0  0  0  0
 17 21  1  0  0  0  0
 20  2  1  6  0  0  0
 20 23  1  0  0  0  0
 21 22  1  0  0  0  0
 21 24  2  0  0  0  0
 23  3  1  6  0  0  0
 23 25  1  0  0  0  0
 24 27  1  0  0  0  0
 24 26  1  0  0  0  0
M  CHG  2  10  -1  15  -1
M  END
>  <CHROM.1>
40.33882966,-112.95927205,123.58279943,-165.68747736,66.92265640,71.54213021
-152.89622345,59.91722220,-6.66321522,40.71656044,-7.51449576,0.92842507
0.72471093,0.28489038

>  <Name>
ligand

>  <RI>
0

>  <Rbt.Current_Directory>
/home/itssahil/PROJECTS/Mol_Feturizer/New_Systems/rnas/3D2V

>  <Rbt.Executable>
rbdock ($Id: //depot/dev/client3/rdock/2013.1/src/exe/rbdock.cxx#4 $)

>  <Rbt.Library>
libRbt.so (2013.1, Build901 2013/11/27)

>  <Rbt.Parameter_File>
/export/apps/rDock/src/rDock_2013.1_src/data/scripts/dock_solv.prm

>  <Rbt.Receptor>
prm/pocket_docking_7.prm

>  <SCORE>
-11.4945

>  <SCORE.INTER>
-15.4771

>  <SCORE.INTER.CONST>
1

>  <SCORE.INTER.POLAR>
0

>  <SCORE.INTER.ROT>
8

>  <SCORE.INTER.SOLV>
20.8233

>  <SCORE.INTER.VDW>
-26.1925

>  <SCORE.INTER.norm>
-0.573226

>  <SCORE.INTRA>
3.98261

>  <SCORE.INTRA.DIHEDRAL>
8.45597

>  <SCORE.INTRA.DIHEDRAL.0>
7.82666

>  <SCORE.INTRA.POLAR>
0

>  <SCORE.INTRA.POLAR.0>
0

>  <SCORE.INTRA.REPUL>
0

>  <SCORE.INTRA.REPUL.0>
0

>  <SCORE.INTRA.SOLV>
4.40847

>  <SCORE.INTRA.SOLV.lig_0>
-83.2758

>  <SCORE.INTRA.VDW>
-2.44961

>  <SCORE.INTRA.VDW.0>
-3.26816

>  <SCORE.INTRA.norm>
0.147504

>  <SCORE.RESTR>
0

>  <SCORE.RESTR.CAVITY>
0

>  <SCORE.RESTR.norm>
0

>  <SCORE.SYSTEM>
0

>  <SCORE.SYSTEM.CONST>
0

>  <SCORE.SYSTEM.DIHEDRAL>
0

>  <SCORE.SYSTEM.SOLV>
0

>  <SCORE.SYSTEM.norm>
0

>  <SCORE.heavy>
27

>  <SCORE.norm>
-0.425722

>  <RMSD>
7.342

$$$$
ligand
 OpenBabel11021811473D
libRbt.so/2013.1/901 2013/11/27
 27 28  0  0  0  0  0  0  0  0999 V2000
   -5.6609   38.8242   -8.1196 C   0  0  0  0  0  0  0  0  0  0  0  0
   -4.2413   45.5814  -10.6455 C   0  0  0  0  0  0  0  0  0  0  0  0
   -4.0685   47.7873   -8.6256 C   0  0  0  0  0  0  0  0  0  0  0  0
   -3.3554   47.6000   -7.2851 C   0  0  0  0  0  0  0  0  0  0  0  0
   -3.0110   46.2272   -7.0826 O   0  0  0  0  0  0  0  0  0  0  0  0
   -2.3671   45.7576   -5.6880 P   0  0  1  0  0  0  0  0  0  0  0  0
   -3.5979   43.2880   -6.2737 P   0  0  2  0  0  0  0  0  0  0  0  0
   -7.4642   46.2581   -7.8632 C   0  0  0  0  0  0  0  0  0  0  0  0
   -6.8294   41.0103   -8.3265 N   0  0  0  0  0  0  0  0  0  0  0  0
   -0.8322   46.2045   -5.5814 O   0  5  0  0  0  0  0  0  0  0  0  0
   -4.8647   44.0208   -6.4759 O   0  0  0  0  0  0  0  0  0  0  0  0
   -7.5647   45.2297   -8.7908 C   0  0  0  0  0  0  0  0  0  0  0  0
   -5.9037   40.1671   -8.8092 C   0  0  0  0  0  0  0  0  0  0  0  0
   -3.1237   46.3801   -4.4021 O   0  0  0  0  0  0  0  0  0  0  0  0
   -3.8153   41.9686   -5.3862 O   0  5  0  0  0  0  0  0  0  0  0  0
   -6.5200   45.0079   -9.6892 N   0  0  0  0  0  0  0  0  0  0  0  0
   -5.1863   40.4912   -9.8947 N   0  0  0  0  0  0  0  0  0  0  0  0
   -2.4540   44.1391   -5.5482 O   0  0  0  0  0  0  0  0  0  0  0  0
   -3.0104   42.7707   -7.6633 O   0  0  0  0  0  0  0  0  0  0  0  0
   -5.3857   45.8277   -9.6526 C   0  0  1  0  0  0  0  0  0  0  0  0
   -5.3849   41.6623  -10.5123 C   0  0  0  0  0  0  0  0  0  0  0  0
   -4.6690   41.9717  -11.5885 N   0  0  0  0  0  0  0  0  0  0  0  0
   -5.2855   46.8595   -8.7207 C   0  0  2  0  0  0  0  0  0  0  0  0
   -6.3391   42.5518  -10.0335 C   0  0  0  0  0  0  0  0  0  0  0  0
   -6.3334   47.0649   -7.8315 C   0  0  0  0  0  0  0  0  0  0  0  0
   -7.0590   42.1774   -8.9047 C   0  0  0  0  0  0  0  0  0  0  0  0
   -6.6270   43.9124  -10.6813 C   0  0  0  0  0  0  0  0  0  0  0  0
  1 13  1  0  0  0  0
  3  4  1  0  0  0  0
  4  5  1  0  0  0  0
  6  5  1  6  0  0  0
  6 10  1  0  0  0  0
  6 14  2  0  0  0  0
  6 18  1  0  0  0  0
  7 11  1  6  0  0  0
  7 15  1  0  0  0  0
  7 19  2  0  0  0  0
  7 18  1  0  0  0  0
  8 25  1  0  0  0  0
  8 12  1  0  0  0  0
  9 26  2  0  0  0  0
  9 13  1  0  0  0  0
 12 16  1  0  0  0  0
 13 17  2  0  0  0  0
 16 20  1  0  0  0  0
 16 27  1  0  0  0  0
 17 21  1  0  0  0  0
 20  2  1  1  0  0  0
 20 23  1  0  0  0  0
 21 22  1  0  0  0  0
 21 24  2  0  0  0  0
 23  3  1  6  0  0  0
 23 25  1  0  0  0  0
 24 27  1  0  0  0  0
 24 26  1  0  0  0  0
M  CHG  2  10  -1  15  -1
M  END
>  <CHROM.1>
54.80464318,-174.67997944,-75.08580412,-27.55459125,-28.99445801,-115.46510208
-125.87113003,-78.04246169,-4.57018056,44.13749603,-7.86750329,-2.40133050
-0.87569484,-0.07176094

>  <Name>
ligand

>  <RI>
0

>  <Rbt.Current_Directory>
/home/itssahil/PROJECTS/Mol_Feturizer/New_Systems/rnas/3D2V

>  <Rbt.Executable>
rbdock ($Id: //depot/dev/client3/rdock/2013.1/src/exe/rbdock.cxx#4 $)

>  <Rbt.Library>
libRbt.so (2013.1, Build901 2013/11/27)

>  <Rbt.Parameter_File>
/export/apps/rDock/src/rDock_2013.1_src/data/scripts/dock_solv.prm

>  <Rbt.Receptor>
prm/pocket_docking_7.prm

>  <SCORE>
-13.1489

>  <SCORE.INTER>
-10.1712

>  <SCORE.INTER.CONST>
1

>  <SCORE.INTER.POLAR>
0

>  <SCORE.INTER.ROT>
8

>  <SCORE.INTER.SOLV>
8.35187

>  <SCORE.INTER.VDW>
-18.4981

>  <SCORE.INTER.norm>
-0.376709

>  <SCORE.INTRA>
-2.97772

>  <SCORE.INTRA.DIHEDRAL>
0.595087

>  <SCORE.INTRA.DIHEDRAL.0>
7.82666

>  <SCORE.INTRA.POLAR>
0

>  <SCORE.INTRA.POLAR.0>
0

>  <SCORE.INTRA.REPUL>
0

>  <SCORE.INTRA.REPUL.0>
0

>  <SCORE.INTRA.SOLV>
-1.43364

>  <SCORE.INTRA.SOLV.lig_0>
-83.2758

>  <SCORE.INTRA.VDW>
-2.55844

>  <SCORE.INTRA.VDW.0>
-3.26816

>  <SCORE.INTRA.norm>
-0.110286

>  <SCORE.RESTR>
0

>  <SCORE.RESTR.CAVITY>
0

>  <SCORE.RESTR.norm>
0

>  <SCORE.SYSTEM>
0

>  <SCORE.SYSTEM.CONST>
0

>  <SCORE.SYSTEM.DIHEDRAL>
0

>  <SCORE.SYSTEM.SOLV>
0

>  <SCORE.SYSTEM.norm>
0

>  <SCORE.heavy>
27

>  <SCORE.norm>
-0.486996

>  <RMSD>
7.370

$$$$
ligand
 OpenBabel11021811473D
libRbt.so/2013.1/901 2013/11/27
 27 28  0  0  0  0  0  0  0  0999 V2000
   -4.8382   43.8181   -3.3478 C   0  0  0  0  0  0  0  0  0  0  0  0
   -4.6620   46.4433  -10.2519 C   0  0  0  0  0  0  0  0  0  0  0  0
   -4.8874   44.4323  -12.4611 C   0  0  0  0  0  0  0  0  0  0  0  0
   -4.1112   43.1150  -12.4082 C   0  0  0  0  0  0  0  0  0  0  0  0
   -5.0054   41.9996  -12.4304 O   0  0  0  0  0  0  0  0  0  0  0  0
   -4.4289   40.5049  -12.3143 P   0  0  1  0  0  0  0  0  0  0  0  0
   -4.9253   40.5252   -9.5377 P   0  0  2  0  0  0  0  0  0  0  0  0
   -7.9109   43.6100  -10.3087 C   0  0  0  0  0  0  0  0  0  0  0  0
   -6.1893   43.9173   -5.4339 N   0  0  0  0  0  0  0  0  0  0  0  0
   -4.8621   39.6195  -13.5774 O   0  5  0  0  0  0  0  0  0  0  0  0
   -3.6146   41.1261   -9.2161 O   0  0  0  0  0  0  0  0  0  0  0  0
   -7.8258   44.5340   -9.2756 C   0  0  0  0  0  0  0  0  0  0  0  0
   -5.3167   44.5258   -4.6159 C   0  0  0  0  0  0  0  0  0  0  0  0
   -2.8146   40.4550  -12.2424 O   0  0  0  0  0  0  0  0  0  0  0  0
   -5.3558   39.4304   -8.4460 O   0  5  0  0  0  0  0  0  0  0  0  0
   -6.7764   45.4538   -9.2589 N   0  0  0  0  0  0  0  0  0  0  0  0
   -4.8578   45.7533   -4.9001 N   0  0  0  0  0  0  0  0  0  0  0  0
   -4.9832   39.7948  -10.9597 O   0  0  0  0  0  0  0  0  0  0  0  0
   -6.0793   41.6260   -9.5102 O   0  0  0  0  0  0  0  0  0  0  0  0
   -5.8160   45.4316  -10.2774 C   0  0  1  0  0  0  0  0  0  0  0  0
   -5.2649   46.3887   -6.0059 C   0  0  0  0  0  0  0  0  0  0  0  0
   -4.8017   47.6044   -6.2780 N   0  0  0  0  0  0  0  0  0  0  0  0
   -5.9026   44.5040  -11.3143 C   0  0  1  0  0  0  0  0  0  0  0  0
   -6.1662   45.7792   -6.8703 C   0  0  0  0  0  0  0  0  0  0  0  0
   -6.9554   43.5972  -11.3175 C   0  0  0  0  0  0  0  0  0  0  0  0
   -6.6182   44.5076   -6.5370 C   0  0  0  0  0  0  0  0  0  0  0  0
   -6.6829   46.4386   -8.1556 C   0  0  0  0  0  0  0  0  0  0  0  0
  1 13  1  0  0  0  0
  3  4  1  0  0  0  0
  4  5  1  0  0  0  0
  6  5  1  6  0  0  0
  6 10  1  0  0  0  0
  6 14  2  0  0  0  0
  6 18  1  0  0  0  0
  7 11  1  1  0  0  0
  7 15  1  0  0  0  0
  7 19  2  0  0  0  0
  7 18  1  0  0  0  0
  8 25  1  0  0  0  0
  8 12  1  0  0  0  0
  9 26  2  0  0  0  0
  9 13  1  0  0  0  0
 12 16  1  0  0  0  0
 13 17  2  0  0  0  0
 16 20  1  0  0  0  0
 16 27  1  0  0  0  0
 17 21  1  0  0  0  0
 20  2  1  6  0  0  0
 20 23  1  0  0  0  0
 21 22  1  0  0  0  0
 21 24  2  0  0  0  0
 23  3  1  6  0  0  0
 23 25  1  0  0  0  0
 24 27  1  0  0  0  0
 24 26  1  0  0  0  0
M  CHG  2  10  -1  15  -1
M  END
>  <CHROM.1>
55.99396666,-177.15107186,-122.35858489,-48.37310792,-48.17331721,114.42118838
140.11278788,75.89828552,-5.33082768,43.12159163,-9.38058370,-2.20646042
1.33836458,-1.63271806

>  <Name>
ligand

>  <RI>
0

>  <Rbt.Current_Directory>
/home/itssahil/PROJECTS/Mol_Feturizer/New_Systems/rnas/3D2V

>  <Rbt.Executable>
rbdock ($Id: //depot/dev/client3/rdock/2013.1/src/exe/rbdock.cxx#4 $)

>  <Rbt.Library>
libRbt.so (2013.1, Build901 2013/11/27)

>  <Rbt.Parameter_File>
/export/apps/rDock/src/rDock_2013.1_src/data/scripts/dock_solv.prm

>  <Rbt.Receptor>
prm/pocket_docking_8.prm

>  <SCORE>
-14.5359

>  <SCORE.INTER>
-13.8846

>  <SCORE.INTER.CONST>
1

>  <SCORE.INTER.POLAR>
0

>  <SCORE.INTER.ROT>
8

>  <SCORE.INTER.SOLV>
19.4595

>  <SCORE.INTER.VDW>
-24.6762

>  <SCORE.INTER.norm>
-0.514245

>  <SCORE.INTRA>
-0.651265

>  <SCORE.INTRA.DIHEDRAL>
0.271504

>  <SCORE.INTRA.DIHEDRAL.0>
7.82666

>  <SCORE.INTRA.POLAR>
0

>  <SCORE.INTRA.POLAR.0>
0

>  <SCORE.INTRA.REPUL>
0

>  <SCORE.INTRA.REPUL.0>
0

>  <SCORE.INTRA.SOLV>
0.193784

>  <SCORE.INTRA.SOLV.lig_0>
-83.2758

>  <SCORE.INTRA.VDW>
-0.883909

>  <SCORE.INTRA.VDW.0>
-3.26816

>  <SCORE.INTRA.norm>
-0.0241209

>  <SCORE.RESTR>
0

>  <SCORE.RESTR.CAVITY>
0

>  <SCORE.RESTR.norm>
0

>  <SCORE.SYSTEM>
0

>  <SCORE.SYSTEM.CONST>
0

>  <SCORE.SYSTEM.DIHEDRAL>
0

>  <SCORE.SYSTEM.SOLV>
0

>  <SCORE.SYSTEM.norm>
0

>  <SCORE.heavy>
27

>  <SCORE.norm>
-0.538366

>  <RMSD>
7.371

$$$$
ligand
 OpenBabel11021811473D
libRbt.so/2013.1/901 2013/11/27
 27 28  0  0  0  0  0  0  0  0999 V2000
   -6.3360   37.6225   -8.8452 C   0  0  0  0  0  0  0  0  0  0  0  0
   -2.7448   44.9291   -9.6430 C   0  0  0  0  0  0  0  0  0  0  0  0
   -4.5556   47.2854   -9.2636 C   0  0  0  0  0  0  0  0  0  0  0  0
   -4.5609   47.2375   -7.7345 C   0  0  0  0  0  0  0  0  0  0  0  0
   -3.2982   46.7867   -7.2380 O   0  0  0  0  0  0  0  0  0  0  0  0
   -3.0612   46.6447   -5.6557 P   0  0  1  0  0  0  0  0  0  0  0  0
   -0.3718   47.4950   -5.6810 P   0  0  2  0  0  0  0  0  0  0  0  0
   -6.9094   44.6857  -10.7306 C   0  0  0  0  0  0  0  0  0  0  0  0
   -5.4458   39.0924  -10.6437 N   0  0  0  0  0  0  0  0  0  0  0  0
   -3.5382   47.9630   -4.8801 O   0  5  0  0  0  0  0  0  0  0  0  0
    0.9879   47.1439   -5.2222 O   0  0  0  0  0  0  0  0  0  0  0  0
   -6.0878   43.5814  -10.9142 C   0  0  0  0  0  0  0  0  0  0  0  0
   -5.6809   38.9146   -9.3344 C   0  0  0  0  0  0  0  0  0  0  0  0
   -3.8685   45.4042   -5.0053 O   0  0  0  0  0  0  0  0  0  0  0  0
   -0.8791   48.8688   -5.0245 O   0  5  0  0  0  0  0  0  0  0  0  0
   -4.7405   43.6585  -10.5588 N   0  0  0  0  0  0  0  0  0  0  0  0
   -5.3460   39.8622   -8.4468 N   0  0  0  0  0  0  0  0  0  0  0  0
   -1.4838   46.3948   -5.3462 O   0  0  0  0  0  0  0  0  0  0  0  0
   -0.3953   47.7451   -7.2560 O   0  0  0  0  0  0  0  0  0  0  0  0
   -4.2282   44.8489  -10.0288 C   0  0  1  0  0  0  0  0  0  0  0  0
   -4.7713   41.0000   -8.8560 C   0  0  0  0  0  0  0  0  0  0  0  0
   -4.4421   41.9312   -7.9667 N   0  0  0  0  0  0  0  0  0  0  0  0
   -5.0539   45.9567   -9.8444 C   0  0  2  0  0  0  0  0  0  0  0  0
   -4.5152   41.2073  -10.2059 C   0  0  0  0  0  0  0  0  0  0  0  0
   -6.3936   45.8622  -10.2008 C   0  0  0  0  0  0  0  0  0  0  0  0
   -4.8801   40.2005  -11.0923 C   0  0  0  0  0  0  0  0  0  0  0  0
   -3.8620   42.4817  -10.7566 C   0  0  0  0  0  0  0  0  0  0  0  0
  1 13  1  0  0  0  0
  3  4  1  0  0  0  0
  4  5  1  0  0  0  0
  6  5  1  6  0  0  0
  6 10  1  0  0  0  0
  6 14  2  0  0  0  0
  6 18  1  0  0  0  0
  7 11  1  1  0  0  0
  7 15  1  0  0  0  0
  7 19  2  0  0  0  0
  7 18  1  0  0  0  0
  8 25  1  0  0  0  0
  8 12  1  0  0  0  0
  9 26  2  0  0  0  0
  9 13  1  0  0  0  0
 12 16  1  0  0  0  0
 13 17  2  0  0  0  0
 16 20  1  0  0  0  0
 16 27  1  0  0  0  0
 17 21  1  0  0  0  0
 20  2  1  1  0  0  0
 20 23  1  0  0  0  0
 21 22  1  0  0  0  0
 21 24  2  0  0  0  0
 23  3  1  6  0  0  0
 23 25  1  0  0  0  0
 24 27  1  0  0  0  0
 24 26  1  0  0  0  0
M  CHG  2  10  -1  15  -1
M  END
>  <CHROM.1>
91.39441806,-179.65580324,-48.56608438,64.25529844,174.82875097,-84.00229902
-65.85663042,-47.95860748,-3.62501673,44.62863169,-7.99647825,-2.33586951
-0.88281900,-0.09636094

>  <Name>
ligand

>  <RI>
0

>  <Rbt.Current_Directory>
/home/itssahil/PROJECTS/Mol_Feturizer/New_Systems/rnas/3D2V

>  <Rbt.Executable>
rbdock ($Id: //depot/dev/client3/rdock/2013.1/src/exe/rbdock.cxx#4 $)

>  <Rbt.Library>
libRbt.so (2013.1, Build901 2013/11/27)

>  <Rbt.Parameter_File>
/export/apps/rDock/src/rDock_2013.1_src/data/scripts/dock_solv.prm

>  <Rbt.Receptor>
prm/pocket_docking_8.prm

>  <SCORE>
-12.7137

>  <SCORE.INTER>
-13.6439

>  <SCORE.INTER.CONST>
1

>  <SCORE.INTER.POLAR>
0

>  <SCORE.INTER.ROT>
8

>  <SCORE.INTER.SOLV>
8.53909

>  <SCORE.INTER.VDW>
-20.8757

>  <SCORE.INTER.norm>
-0.505331

>  <SCORE.INTRA>
0.930245

>  <SCORE.INTRA.DIHEDRAL>
0.581113

>  <SCORE.INTRA.DIHEDRAL.0>
7.82666

>  <SCORE.INTRA.POLAR>
0

>  <SCORE.INTRA.POLAR.0>
0

>  <SCORE.INTRA.REPUL>
0

>  <SCORE.INTRA.REPUL.0>
0

>  <SCORE.INTRA.SOLV>
2.89448

>  <SCORE.INTRA.SOLV.lig_0>
-83.2758

>  <SCORE.INTRA.VDW>
-0.807549

>  <SCORE.INTRA.VDW.0>
-3.26816

>  <SCORE.INTRA.norm>
0.0344535

>  <SCORE.RESTR>
0

>  <SCORE.RESTR.CAVITY>
0

>  <SCORE.RESTR.norm>
0

>  <SCORE.SYSTEM>
0

>  <SCORE.SYSTEM.CONST>
0

>  <SCORE.SYSTEM.DIHEDRAL>
0

>  <SCORE.SYSTEM.SOLV>
0

>  <SCORE.SYSTEM.norm>
0

>  <SCORE.heavy>
27

>  <SCORE.norm>
-0.470877

>  <RMSD>
7.381

$$$$
ligand
 OpenBabel11021811473D
libRbt.so/2013.1/901 2013/11/27
 27 28  0  0  0  0  0  0  0  0999 V2000
   -6.0415   38.9527   -8.2279 C   0  0  0  0  0  0  0  0  0  0  0  0
   -7.2446   45.9731   -8.4208 C   0  0  0  0  0  0  0  0  0  0  0  0
   -5.2521   47.8273   -7.1688 C   0  0  0  0  0  0  0  0  0  0  0  0
   -4.6358   47.3605   -5.8487 C   0  0  0  0  0  0  0  0  0  0  0  0
   -4.9169   45.9774   -5.6201 O   0  0  0  0  0  0  0  0  0  0  0  0
   -4.2218   45.2082   -4.3933 P   0  0  1  0  0  0  0  0  0  0  0  0
   -4.0995   42.8813   -5.9830 P   0  0  2  0  0  0  0  0  0  0  0  0
   -3.1553   46.0351   -9.7846 C   0  0  0  0  0  0  0  0  0  0  0  0
   -7.0282   41.2267   -8.4344 N   0  0  0  0  0  0  0  0  0  0  0  0
   -2.6640   45.5695   -4.2937 O   0  5  0  0  0  0  0  0  0  0  0  0
   -4.8387   43.4644   -7.1215 O   0  0  0  0  0  0  0  0  0  0  0  0
   -4.0626   45.1683  -10.3793 C   0  0  0  0  0  0  0  0  0  0  0  0
   -6.1109   40.3437   -8.8587 C   0  0  0  0  0  0  0  0  0  0  0  0
   -4.8779   45.5785   -2.9630 O   0  0  0  0  0  0  0  0  0  0  0  0
   -4.4592   41.3306   -5.7787 O   0  5  0  0  0  0  0  0  0  0  0  0
   -5.3874   45.1506   -9.9406 N   0  0  0  0  0  0  0  0  0  0  0  0
   -5.2509   40.6700   -9.8343 N   0  0  0  0  0  0  0  0  0  0  0  0
   -4.3772   43.5997   -4.5809 O   0  0  0  0  0  0  0  0  0  0  0  0
   -2.5266   42.9195   -6.2448 O   0  0  0  0  0  0  0  0  0  0  0  0
   -5.7872   45.9995   -8.9015 C   0  0  1  0  0  0  0  0  0  0  0  0
   -5.2964   41.8830  -10.3990 C   0  0  0  0  0  0  0  0  0  0  0  0
   -4.4399   42.1941  -11.3665 N   0  0  0  0  0  0  0  0  0  0  0  0
   -4.8757   46.8696   -8.3056 C   0  0  2  0  0  0  0  0  0  0  0  0
   -6.2383   42.8143   -9.9791 C   0  0  0  0  0  0  0  0  0  0  0  0
   -3.5613   46.8767   -8.7562 C   0  0  0  0  0  0  0  0  0  0  0  0
   -7.1093   42.4359   -8.9639 C   0  0  0  0  0  0  0  0  0  0  0  0
   -6.3561   44.2242  -10.5725 C   0  0  0  0  0  0  0  0  0  0  0  0
  1 13  1  0  0  0  0
  3  4  1  0  0  0  0
  4  5  1  0  0  0  0
  6  5  1  6  0  0  0
  6 10  1  0  0  0  0
  6 14  2  0  0  0  0
  6 18  1  0  0  0  0
  7 11  1  6  0  0  0
  7 15  1  0  0  0  0
  7 19  2  0  0  0  0
  7 18  1  0  0  0  0
  8 25  1  0  0  0  0
  8 12  1  0  0  0  0
  9 26  2  0  0  0  0
  9 13  1  0  0  0  0
 12 16  1  0  0  0  0
 13 17  2  0  0  0  0
 16 20  1  0  0  0  0
 16 27  1  0  0  0  0
 17 21  1  0  0  0  0
 20  2  1  6  0  0  0
 20 23  1  0  0  0  0
 21 22  1  0  0  0  0
 21 24  2  0  0  0  0
 23  3  1  1  0  0  0
 23 25  1  0  0  0  0
 24 27  1  0  0  0  0
 24 26  1  0  0  0  0
M  CHG  2  10  -1  15  -1
M  END
>  <CHROM.1>
-50.14368543,172.28103145,-44.14913324,45.25640040,-52.50719876,108.62202978
-83.12166487,81.68376597,-4.89593626,44.00493212,-7.44821565,-2.77548156
-1.30745140,-0.34818369

>  <Name>
ligand

>  <RI>
0

>  <Rbt.Current_Directory>
/home/itssahil/PROJECTS/Mol_Feturizer/New_Systems/rnas/3D2V

>  <Rbt.Executable>
rbdock ($Id: //depot/dev/client3/rdock/2013.1/src/exe/rbdock.cxx#4 $)

>  <Rbt.Library>
libRbt.so (2013.1, Build901 2013/11/27)

>  <Rbt.Parameter_File>
/export/apps/rDock/src/rDock_2013.1_src/data/scripts/dock_solv.prm

>  <Rbt.Receptor>
prm/pocket_docking_8.prm

>  <SCORE>
-12.4377

>  <SCORE.INTER>
-8.03531

>  <SCORE.INTER.CONST>
1

>  <SCORE.INTER.POLAR>
0

>  <SCORE.INTER.ROT>
8

>  <SCORE.INTER.SOLV>
7.06133

>  <SCORE.INTER.VDW>
-16.644

>  <SCORE.INTER.norm>
-0.297604

>  <SCORE.INTRA>
-4.40241

>  <SCORE.INTRA.DIHEDRAL>
-1.22641

>  <SCORE.INTRA.DIHEDRAL.0>
7.82666

>  <SCORE.INTRA.POLAR>
0

>  <SCORE.INTRA.POLAR.0>
0

>  <SCORE.INTRA.REPUL>
0

>  <SCORE.INTRA.REPUL.0>
0

>  <SCORE.INTRA.SOLV>
-0.845169

>  <SCORE.INTRA.SOLV.lig_0>
-83.2758

>  <SCORE.INTRA.VDW>
-3.36662

>  <SCORE.INTRA.VDW.0>
-3.26816

>  <SCORE.INTRA.norm>
-0.163052

>  <SCORE.RESTR>
0

>  <SCORE.RESTR.CAVITY>
0

>  <SCORE.RESTR.norm>
0

>  <SCORE.SYSTEM>
0

>  <SCORE.SYSTEM.CONST>
0

>  <SCORE.SYSTEM.DIHEDRAL>
0

>  <SCORE.SYSTEM.SOLV>
0

>  <SCORE.SYSTEM.norm>
0

>  <SCORE.heavy>
27

>  <SCORE.norm>
-0.460656

>  <RMSD>
7.387

$$$$
ligand
 OpenBabel11021811463D
libRbt.so/2013.1/901 2013/11/27
 27 28  0  0  0  0  0  0  0  0999 V2000
   -5.1251   39.5957  -13.1675 C   0  0  0  0  0  0  0  0  0  0  0  0
   -6.2437   37.3009   -5.2221 C   0  0  0  0  0  0  0  0  0  0  0  0
   -8.1755   39.0507   -3.7450 C   0  0  0  0  0  0  0  0  0  0  0  0
   -7.0970   40.0553   -3.3349 C   0  0  0  0  0  0  0  0  0  0  0  0
   -7.0375   40.1811   -1.9119 O   0  0  0  0  0  0  0  0  0  0  0  0
   -5.9077   41.0989   -1.2328 P   0  0  1  0  0  0  0  0  0  0  0  0
   -5.8850   43.1814   -3.1353 P   0  0  2  0  0  0  0  0  0  0  0  0
   -9.2746   39.5025   -7.3559 C   0  0  0  0  0  0  0  0  0  0  0  0
   -5.3108   39.5903  -10.6871 N   0  0  0  0  0  0  0  0  0  0  0  0
   -5.9460   40.9745    0.3641 O   0  5  0  0  0  0  0  0  0  0  0  0
   -7.1201   43.3767   -3.9218 O   0  0  0  0  0  0  0  0  0  0  0  0
   -8.3897   38.6968   -8.0602 C   0  0  0  0  0  0  0  0  0  0  0  0
   -5.4850   38.9268  -11.8405 C   0  0  0  0  0  0  0  0  0  0  0  0
   -4.4102   40.7020   -1.6949 O   0  0  0  0  0  0  0  0  0  0  0  0
   -4.9025   42.1219   -3.8340 O   0  5  0  0  0  0  0  0  0  0  0  0
   -7.4108   37.9810   -7.3695 N   0  0  0  0  0  0  0  0  0  0  0  0
   -5.9736   37.6781  -11.8416 N   0  0  0  0  0  0  0  0  0  0  0  0
   -6.1305   42.6571   -1.6440 O   0  0  0  0  0  0  0  0  0  0  0  0
   -5.0483   44.5360   -3.0418 O   0  0  0  0  0  0  0  0  0  0  0  0
   -7.3247   38.0877   -5.9762 C   0  0  1  0  0  0  0  0  0  0  0  0
   -6.2942   37.0758  -10.6897 C   0  0  0  0  0  0  0  0  0  0  0  0
   -6.7758   35.8372  -10.7033 N   0  0  0  0  0  0  0  0  0  0  0  0
   -8.2137   38.8964   -5.2700 C   0  0  1  0  0  0  0  0  0  0  0  0
   -6.1209   37.7406   -9.4818 C   0  0  0  0  0  0  0  0  0  0  0  0
   -9.1842   39.6000   -5.9727 C   0  0  0  0  0  0  0  0  0  0  0  0
   -5.6138   39.0341   -9.5260 C   0  0  0  0  0  0  0  0  0  0  0  0
   -6.4642   37.1228   -8.1200 C   0  0  0  0  0  0  0  0  0  0  0  0
  1 13  1  0  0  0  0
  3  4  1  0  0  0  0
  4  5  1  0  0  0  0
  6  5  1  6  0  0  0
  6 10  1  0  0  0  0
  6 14  2  0  0  0  0
  6 18  1  0  0  0  0
  7 11  1  6  0  0  0
  7 15  1  0  0  0  0
  7 19  2  0  0  0  0
  7 18  1  0  0  0  0
  8 25  1  0  0  0  0
  8 12  1  0  0  0  0
  9 26  2  0  0  0  0
  9 13  1  0  0  0  0
 12 16  1  0  0  0  0
 13 17  2  0  0  0  0
 16 20  1  0  0  0  0
 16 27  1  0  0  0  0
 17 21  1  0  0  0  0
 20  2  1  1  0  0  0
 20 23  1  0  0  0  0
 21 22  1  0  0  0  0
 21 24  2  0  0  0  0
 23  3  1  1  0  0  0
 23 25  1  0  0  0  0
 24 27  1  0  0  0  0
 24 26  1  0  0  0  0
M  CHG  2  10  -1  15  -1
M  END
>  <CHROM.1>
-178.74156384,175.52165723,-174.43627530,-69.37817867,101.80896205,80.88661153
-124.37310115,34.74721821,-6.43286310,39.97939782,-5.69330172,-1.63747491
1.09816518,1.20898452

>  <Name>
ligand

>  <RI>
0

>  <Rbt.Current_Directory>
/home/itssahil/PROJECTS/Mol_Feturizer/New_Systems/rnas/3D2V

>  <Rbt.Executable>
rbdock ($Id: //depot/dev/client3/rdock/2013.1/src/exe/rbdock.cxx#4 $)

>  <Rbt.Library>
libRbt.so (2013.1, Build901 2013/11/27)

>  <Rbt.Parameter_File>
/export/apps/rDock/src/rDock_2013.1_src/data/scripts/dock_solv.prm

>  <Rbt.Receptor>
prm/blind_docking_60.prm

>  <SCORE>
-15.0845

>  <SCORE.INTER>
-15.3648

>  <SCORE.INTER.CONST>
1

>  <SCORE.INTER.POLAR>
0

>  <SCORE.INTER.ROT>
8

>  <SCORE.INTER.SOLV>
16.9376

>  <SCORE.INTER.VDW>
-24.8224

>  <SCORE.INTER.norm>
-0.569068

>  <SCORE.INTRA>
0.263051

>  <SCORE.INTRA.DIHEDRAL>
-0.470022

>  <SCORE.INTRA.DIHEDRAL.0>
7.82666

>  <SCORE.INTRA.POLAR>
0

>  <SCORE.INTRA.POLAR.0>
0

>  <SCORE.INTRA.REPUL>
0

>  <SCORE.INTRA.REPUL.0>
0

>  <SCORE.INTRA.SOLV>
0.355134

>  <SCORE.INTRA.SOLV.lig_0>
-83.2758

>  <SCORE.INTRA.VDW>
0.320495

>  <SCORE.INTRA.VDW.0>
-3.26816

>  <SCORE.INTRA.norm>
0.00974262

>  <SCORE.RESTR>
0.0172855

>  <SCORE.RESTR.CAVITY>
0.0172855

>  <SCORE.RESTR.norm>
0.000640203

>  <SCORE.SYSTEM>
0

>  <SCORE.SYSTEM.CONST>
0

>  <SCORE.SYSTEM.DIHEDRAL>
0

>  <SCORE.SYSTEM.SOLV>
0

>  <SCORE.SYSTEM.norm>
0

>  <SCORE.heavy>
27

>  <SCORE.norm>
-0.558686

>  <RMSD>
7.457

$$$$
ligand
 OpenBabel11021811473D
libRbt.so/2013.1/901 2013/11/27
 27 28  0  0  0  0  0  0  0  0999 V2000
    0.5900   46.8945   -5.7572 C   0  0  0  0  0  0  0  0  0  0  0  0
   -4.8582   40.7871   -3.1934 C   0  0  0  0  0  0  0  0  0  0  0  0
   -5.2272   38.6078   -5.2157 C   0  0  0  0  0  0  0  0  0  0  0  0
   -6.7110   38.6498   -5.5862 C   0  0  0  0  0  0  0  0  0  0  0  0
   -6.8891   39.1796   -6.9021 O   0  0  0  0  0  0  0  0  0  0  0  0
   -8.3372   39.6899   -7.3738 P   0  0  1  0  0  0  0  0  0  0  0  0
   -7.0066   41.9384   -8.4369 P   0  0  2  0  0  0  0  0  0  0  0  0
   -3.4726   41.3025   -7.2432 C   0  0  0  0  0  0  0  0  0  0  0  0
   -0.2043   44.8266   -4.6258 N   0  0  0  0  0  0  0  0  0  0  0  0
   -9.2006   38.4883   -7.9886 O   0  5  0  0  0  0  0  0  0  0  0  0
   -6.7441   42.4730   -7.0849 O   0  0  0  0  0  0  0  0  0  0  0  0
   -3.2908   42.3252   -6.3216 C   0  0  0  0  0  0  0  0  0  0  0  0
   -0.5164   45.9406   -5.3059 C   0  0  0  0  0  0  0  0  0  0  0  0
   -9.2088   40.3191   -6.1663 O   0  0  0  0  0  0  0  0  0  0  0  0
   -7.4085   43.1042   -9.4640 O   0  5  0  0  0  0  0  0  0  0  0  0
   -3.7358   42.1573   -5.0096 N   0  0  0  0  0  0  0  0  0  0  0  0
   -1.7940   46.2273   -5.5952 N   0  0  0  0  0  0  0  0  0  0  0  0
   -8.1813   40.8543   -8.4991 O   0  0  0  0  0  0  0  0  0  0  0  0
   -5.6952   41.2686   -9.0496 O   0  0  0  0  0  0  0  0  0  0  0  0
   -4.3676   40.9648   -4.6369 C   0  0  1  0  0  0  0  0  0  0  0  0
   -2.7765   45.4041   -5.2088 C   0  0  0  0  0  0  0  0  0  0  0  0
   -4.0389   45.6978   -5.5029 N   0  0  0  0  0  0  0  0  0  0  0  0
   -4.5491   39.9385   -5.5626 C   0  0  2  0  0  0  0  0  0  0  0  0
   -2.4792   44.2431   -4.5054 C   0  0  0  0  0  0  0  0  0  0  0  0
   -4.0976   40.1208   -6.8640 C   0  0  0  0  0  0  0  0  0  0  0  0
   -1.1424   43.9851   -4.2247 C   0  0  0  0  0  0  0  0  0  0  0  0
   -3.5448   43.2489   -4.0258 C   0  0  0  0  0  0  0  0  0  0  0  0
  1 13  1  0  0  0  0
  3  4  1  0  0  0  0
  4  5  1  0  0  0  0
  6  5  1  1  0  0  0
  6 10  1  0  0  0  0
  6 14  2  0  0  0  0
  6 18  1  0  0  0  0
  7 11  1  1  0  0  0
  7 15  1  0  0  0  0
  7 19  2  0  0  0  0
  7 18  1  0  0  0  0
  8 25  1  0  0  0  0
  8 12  1  0  0  0  0
  9 26  2  0  0  0  0
  9 13  1  0  0  0  0
 12 16  1  0  0  0  0
 13 17  2  0  0  0  0
 16 20  1  0  0  0  0
 16 27  1  0  0  0  0
 17 21  1  0  0  0  0
 20  2  1  1  0  0  0
 20 23  1  0  0  0  0
 21 22  1  0  0  0  0
 21 24  2  0  0  0  0
 23  3  1  6  0  0  0
 23 25  1  0  0  0  0
 24 27  1  0  0  0  0
 24 26  1  0  0  0  0
M  CHG  2  10  -1  15  -1
M  END
>  <CHROM.1>
46.89007209,-163.67573386,-87.31703699,-36.58401029,-42.07273713,95.52683009
93.96161060,-18.11255066,-5.03952685,41.99852739,-6.34818702,0.32838727,-0.66206217
-0.63506649

>  <Name>
ligand

>  <RI>
0

>  <Rbt.Current_Directory>
/home/itssahil/PROJECTS/Mol_Feturizer/New_Systems/rnas/3D2V

>  <Rbt.Executable>
rbdock ($Id: //depot/dev/client3/rdock/2013.1/src/exe/rbdock.cxx#4 $)

>  <Rbt.Library>
libRbt.so (2013.1, Build901 2013/11/27)

>  <Rbt.Parameter_File>
/export/apps/rDock/src/rDock_2013.1_src/data/scripts/dock_solv.prm

>  <Rbt.Receptor>
prm/pocket_docking_8.prm

>  <SCORE>
-16.1745

>  <SCORE.INTER>
-14.9362

>  <SCORE.INTER.CONST>
1

>  <SCORE.INTER.POLAR>
0

>  <SCORE.INTER.ROT>
8

>  <SCORE.INTER.SOLV>
19.3327

>  <SCORE.INTER.VDW>
-25.335

>  <SCORE.INTER.norm>
-0.553192

>  <SCORE.INTRA>
-1.23828

>  <SCORE.INTRA.DIHEDRAL>
1.56008

>  <SCORE.INTRA.DIHEDRAL.0>
7.82666

>  <SCORE.INTRA.POLAR>
0

>  <SCORE.INTRA.POLAR.0>
0

>  <SCORE.INTRA.REPUL>
0

>  <SCORE.INTRA.REPUL.0>
0

>  <SCORE.INTRA.SOLV>
-0.914585

>  <SCORE.INTRA.SOLV.lig_0>
-83.2758

>  <SCORE.INTRA.VDW>
-1.56103

>  <SCORE.INTRA.VDW.0>
-3.26816

>  <SCORE.INTRA.norm>
-0.0458624

>  <SCORE.RESTR>
0

>  <SCORE.RESTR.CAVITY>
0

>  <SCORE.RESTR.norm>
0

>  <SCORE.SYSTEM>
0

>  <SCORE.SYSTEM.CONST>
0

>  <SCORE.SYSTEM.DIHEDRAL>
0

>  <SCORE.SYSTEM.SOLV>
0

>  <SCORE.SYSTEM.norm>
0

>  <SCORE.heavy>
27

>  <SCORE.norm>
-0.599054

>  <RMSD>
7.549

$$$$
ligand
 OpenBabel11021811473D
libRbt.so/2013.1/901 2013/11/27
 27 28  0  0  0  0  0  0  0  0999 V2000
   -5.7606   38.3417   -7.9450 C   0  0  0  0  0  0  0  0  0  0  0  0
   -6.1876   43.4961  -11.6258 C   0  0  0  0  0  0  0  0  0  0  0  0
   -6.6395   46.2312  -10.4900 C   0  0  0  0  0  0  0  0  0  0  0  0
   -7.3348   46.1288   -9.1310 C   0  0  0  0  0  0  0  0  0  0  0  0
   -6.6303   46.8863   -8.1440 O   0  0  0  0  0  0  0  0  0  0  0  0
   -6.1475   46.1816   -6.7837 P   0  0  1  0  0  0  0  0  0  0  0  0
   -4.3898   44.1289   -5.9758 P   0  0  2  0  0  0  0  0  0  0  0  0
   -2.9477   45.6631   -9.7837 C   0  0  0  0  0  0  0  0  0  0  0  0
   -4.4253   40.3912   -8.3963 N   0  0  0  0  0  0  0  0  0  0  0  0
   -5.3462   47.2109   -5.8534 O   0  5  0  0  0  0  0  0  0  0  0  0
   -5.2449   43.6270   -4.8806 O   0  0  0  0  0  0  0  0  0  0  0  0
   -2.7162   44.3968  -10.3043 C   0  0  0  0  0  0  0  0  0  0  0  0
   -5.1744   39.3924   -8.8885 C   0  0  0  0  0  0  0  0  0  0  0  0
   -7.3742   45.6117   -5.8983 O   0  0  0  0  0  0  0  0  0  0  0  0
   -3.2617   45.1318   -5.4306 O   0  5  0  0  0  0  0  0  0  0  0  0
   -3.7638   43.6965  -10.9041 N   0  0  0  0  0  0  0  0  0  0  0  0
   -5.4153   39.3057  -10.2047 N   0  0  0  0  0  0  0  0  0  0  0  0
   -5.1819   44.9166   -7.1208 O   0  0  0  0  0  0  0  0  0  0  0  0
   -3.5934   42.9343   -6.6705 O   0  0  0  0  0  0  0  0  0  0  0  0
   -5.0383   44.2724  -10.9682 C   0  0  1  0  0  0  0  0  0  0  0  0
   -4.9109   40.2164  -11.0465 C   0  0  0  0  0  0  0  0  0  0  0  0
   -5.1581   40.1211  -12.3489 N   0  0  0  0  0  0  0  0  0  0  0  0
   -5.2697   45.5438  -10.4457 C   0  0  2  0  0  0  0  0  0  0  0  0
   -4.1341   41.2615  -10.5616 C   0  0  0  0  0  0  0  0  0  0  0  0
   -4.2150   46.2287   -9.8545 C   0  0  0  0  0  0  0  0  0  0  0  0
   -3.9073   41.3128   -9.1910 C   0  0  0  0  0  0  0  0  0  0  0  0
   -3.5187   42.3441  -11.4578 C   0  0  0  0  0  0  0  0  0  0  0  0
  1 13  1  0  0  0  0
  3  4  1  0  0  0  0
  4  5  1  0  0  0  0
  6  5  1  6  0  0  0
  6 10  1  0  0  0  0
  6 14  2  0  0  0  0
  6 18  1  0  0  0  0
  7 11  1  1  0  0  0
  7 15  1  0  0  0  0
  7 19  2  0  0  0  0
  7 18  1  0  0  0  0
  8 25  1  0  0  0  0
  8 12  1  0  0  0  0
  9 26  2  0  0  0  0
  9 13  1  0  0  0  0
 12 16  1  0  0  0  0
 13 17  2  0  0  0  0
 16 20  1  0  0  0  0
 16 27  1  0  0  0  0
 17 21  1  0  0  0  0
 20  2  1  6  0  0  0
 20 23  1  0  0  0  0
 21 22  1  0  0  0  0
 21 24  2  0  0  0  0
 23  3  1  1  0  0  0
 23 25  1  0  0  0  0
 24 27  1  0  0  0  0
 24 26  1  0  0  0  0
M  CHG  2  10  -1  15  -1
M  END
>  <CHROM.1>
66.69597961,-125.30051867,178.35733549,171.92372209,54.40123258,101.46775612
132.52749835,106.20865994,-5.02287538,43.71340817,-8.55418716,-0.55862637
-1.42631370,1.58935477

>  <Name>
ligand

>  <RI>
0

>  <Rbt.Current_Directory>
/home/itssahil/PROJECTS/Mol_Feturizer/New_Systems/rnas/3D2V

>  <Rbt.Executable>
rbdock ($Id: //depot/dev/client3/rdock/2013.1/src/exe/rbdock.cxx#4 $)

>  <Rbt.Library>
libRbt.so (2013.1, Build901 2013/11/27)

>  <Rbt.Parameter_File>
/export/apps/rDock/src/rDock_2013.1_src/data/scripts/dock_solv.prm

>  <Rbt.Receptor>
prm/pocket_docking_7.prm

>  <SCORE>
-14.6429

>  <SCORE.INTER>
-15.0187

>  <SCORE.INTER.CONST>
1

>  <SCORE.INTER.POLAR>
0

>  <SCORE.INTER.ROT>
8

>  <SCORE.INTER.SOLV>
13.0079

>  <SCORE.INTER.VDW>
-23.2818

>  <SCORE.INTER.norm>
-0.556249

>  <SCORE.INTRA>
0.375792

>  <SCORE.INTRA.DIHEDRAL>
4.72083

>  <SCORE.INTRA.DIHEDRAL.0>
7.82666

>  <SCORE.INTRA.POLAR>
0

>  <SCORE.INTRA.POLAR.0>
0

>  <SCORE.INTRA.REPUL>
0

>  <SCORE.INTRA.REPUL.0>
0

>  <SCORE.INTRA.SOLV>
1.10793

>  <SCORE.INTRA.SOLV.lig_0>
-83.2758

>  <SCORE.INTRA.VDW>
-2.53859

>  <SCORE.INTRA.VDW.0>
-3.26816

>  <SCORE.INTRA.norm>
0.0139182

>  <SCORE.RESTR>
0

>  <SCORE.RESTR.CAVITY>
0

>  <SCORE.RESTR.norm>
0

>  <SCORE.SYSTEM>
0

>  <SCORE.SYSTEM.CONST>
0

>  <SCORE.SYSTEM.DIHEDRAL>
0

>  <SCORE.SYSTEM.SOLV>
0

>  <SCORE.SYSTEM.norm>
0

>  <SCORE.heavy>
27

>  <SCORE.norm>
-0.542331

>  <RMSD>
7.554

$$$$
ligand
 OpenBabel11021811463D
libRbt.so/2013.1/901 2013/11/27
 27 28  0  0  0  0  0  0  0  0999 V2000
   -5.1750   35.7234  -12.3299 C   0  0  0  0  0  0  0  0  0  0  0  0
   -7.9321   37.4560   -6.4308 C   0  0  0  0  0  0  0  0  0  0  0  0
   -6.3119   38.8393   -4.3243 C   0  0  0  0  0  0  0  0  0  0  0  0
   -7.2759   38.9119   -3.1385 C   0  0  0  0  0  0  0  0  0  0  0  0
   -7.5121   40.2705   -2.7610 O   0  0  0  0  0  0  0  0  0  0  0  0
   -6.3411   41.1288   -2.0739 P   0  0  1  0  0  0  0  0  0  0  0  0
   -6.0029   43.6287   -0.8119 P   0  0  2  0  0  0  0  0  0  0  0  0
   -4.7593   35.3699   -4.3891 C   0  0  0  0  0  0  0  0  0  0  0  0
   -6.5142   36.3357  -10.3252 N   0  0  0  0  0  0  0  0  0  0  0  0
   -5.7524   40.3761   -0.7878 O   0  5  0  0  0  0  0  0  0  0  0  0
   -5.4406   43.1007    0.4481 O   0  0  0  0  0  0  0  0  0  0  0  0
   -5.4975   34.7100   -5.3626 C   0  0  0  0  0  0  0  0  0  0  0  0
   -5.7328   35.4320  -10.9365 C   0  0  0  0  0  0  0  0  0  0  0  0
   -5.0936   41.4016   -3.0653 O   0  0  0  0  0  0  0  0  0  0  0  0
   -6.9203   44.9198   -0.5527 O   0  5  0  0  0  0  0  0  0  0  0  0
   -6.5222   35.3861   -6.0265 N   0  0  0  0  0  0  0  0  0  0  0  0
   -5.4348   34.2709  -10.3355 N   0  0  0  0  0  0  0  0  0  0  0  0
   -6.9076   42.5840   -1.6175 O   0  0  0  0  0  0  0  0  0  0  0  0
   -4.8443   44.1230   -1.7903 O   0  0  0  0  0  0  0  0  0  0  0  0
   -6.8016   36.7185   -5.6999 C   0  0  1  0  0  0  0  0  0  0  0  0
   -5.9137   33.9979   -9.1155 C   0  0  0  0  0  0  0  0  0  0  0  0
   -5.6099   32.8445   -8.5291 N   0  0  0  0  0  0  0  0  0  0  0  0
   -6.0597   37.3803   -4.7228 C   0  0  1  0  0  0  0  0  0  0  0  0
   -6.7230   34.9181   -8.4605 C   0  0  0  0  0  0  0  0  0  0  0  0
   -5.0410   36.6935   -4.0736 C   0  0  0  0  0  0  0  0  0  0  0  0
   -7.0089   36.1080   -9.1200 C   0  0  0  0  0  0  0  0  0  0  0  0
   -7.3124   34.6822   -7.0638 C   0  0  0  0  0  0  0  0  0  0  0  0
  1 13  1  0  0  0  0
  3  4  1  0  0  0  0
  4  5  1  0  0  0  0
  6  5  1  6  0  0  0
  6 10  1  0  0  0  0
  6 14  2  0  0  0  0
  6 18  1  0  0  0  0
  7 11  1  1  0  0  0
  7 15  1  0  0  0  0
  7 19  2  0  0  0  0
  7 18  1  0  0  0  0
  8 25  1  0  0  0  0
  8 12  1  0  0  0  0
  9 26  2  0  0  0  0
  9 13  1  0  0  0  0
 12 16  1  0  0  0  0
 13 17  2  0  0  0  0
 16 20  1  0  0  0  0
 16 27  1  0  0  0  0
 17 21  1  0  0  0  0
 20  2  1  6  0  0  0
 20 23  1  0  0  0  0
 21 22  1  0  0  0  0
 21 24  2  0  0  0  0
 23  3  1  6  0  0  0
 23 25  1  0  0  0  0
 24 27  1  0  0  0  0
 24 26  1  0  0  0  0
M  CHG  2  10  -1  15  -1
M  END
>  <CHROM.1>
179.86774764,-69.81240965,-53.94751557,175.70959381,-56.20609806,92.85829139
100.04787377,-93.37507799,-6.17331117,38.64995059,-4.81140594,-0.60346222
1.56794805,-0.17864444

>  <Name>
ligand

>  <RI>
0

>  <Rbt.Current_Directory>
/home/itssahil/PROJECTS/Mol_Feturizer/New_Systems/rnas/3D2V

>  <Rbt.Executable>
rbdock ($Id: //depot/dev/client3/rdock/2013.1/src/exe/rbdock.cxx#4 $)

>  <Rbt.Library>
libRbt.so (2013.1, Build901 2013/11/27)

>  <Rbt.Parameter_File>
/export/apps/rDock/src/rDock_2013.1_src/data/scripts/dock_solv.prm

>  <Rbt.Receptor>
prm/blind_docking_100.prm

>  <SCORE>
-14.0181

>  <SCORE.INTER>
-13.6073

>  <SCORE.INTER.CONST>
1

>  <SCORE.INTER.POLAR>
0

>  <SCORE.INTER.ROT>
8

>  <SCORE.INTER.SOLV>
15.2122

>  <SCORE.INTER.VDW>
-23.0756

>  <SCORE.INTER.norm>
-0.503974

>  <SCORE.INTRA>
-0.4108

>  <SCORE.INTRA.DIHEDRAL>
-2.04992

>  <SCORE.INTRA.DIHEDRAL.0>
7.82666

>  <SCORE.INTRA.POLAR>
0

>  <SCORE.INTRA.POLAR.0>
0

>  <SCORE.INTRA.REPUL>
0

>  <SCORE.INTRA.REPUL.0>
0

>  <SCORE.INTRA.SOLV>
1.0699

>  <SCORE.INTRA.SOLV.lig_0>
-83.2758

>  <SCORE.INTRA.VDW>
0.0792146

>  <SCORE.INTRA.VDW.0>
-3.26816

>  <SCORE.INTRA.norm>
-0.0152148

>  <SCORE.RESTR>
0

>  <SCORE.RESTR.CAVITY>
0

>  <SCORE.RESTR.norm>
0

>  <SCORE.SYSTEM>
0

>  <SCORE.SYSTEM.CONST>
0

>  <SCORE.SYSTEM.DIHEDRAL>
0

>  <SCORE.SYSTEM.SOLV>
0

>  <SCORE.SYSTEM.norm>
0

>  <SCORE.heavy>
27

>  <SCORE.norm>
-0.519189

>  <RMSD>
7.601

$$$$
ligand
 OpenBabel11021811473D
libRbt.so/2013.1/901 2013/11/27
 27 28  0  0  0  0  0  0  0  0999 V2000
   -0.7461   44.1353   -4.0183 C   0  0  0  0  0  0  0  0  0  0  0  0
   -6.2869   43.0002   -6.1122 C   0  0  0  0  0  0  0  0  0  0  0  0
   -6.9264   42.5727   -9.0077 C   0  0  0  0  0  0  0  0  0  0  0  0
   -5.5255   41.9695   -9.1264 C   0  0  0  0  0  0  0  0  0  0  0  0
   -5.5947   40.6136   -9.5748 O   0  0  0  0  0  0  0  0  0  0  0  0
   -6.3212   39.5037   -8.6690 P   0  0  1  0  0  0  0  0  0  0  0  0
   -8.8674   38.9925   -7.5682 P   0  0  2  0  0  0  0  0  0  0  0  0
   -7.0548   46.3597   -8.7026 C   0  0  0  0  0  0  0  0  0  0  0  0
   -2.5314   45.0637   -5.4804 N   0  0  0  0  0  0  0  0  0  0  0  0
   -6.2387   38.0569   -9.3523 O   0  5  0  0  0  0  0  0  0  0  0  0
   -8.9537   37.5830   -8.0021 O   0  0  0  0  0  0  0  0  0  0  0  0
   -6.7596   46.5805   -7.3638 C   0  0  0  0  0  0  0  0  0  0  0  0
   -2.1926   44.5512   -4.2873 C   0  0  0  0  0  0  0  0  0  0  0  0
   -5.6657   39.3619   -7.1980 O   0  0  0  0  0  0  0  0  0  0  0  0
  -10.3024   39.7102   -7.6068 O   0  5  0  0  0  0  0  0  0  0  0  0
   -6.5073   45.4935   -6.5258 N   0  0  0  0  0  0  0  0  0  0  0  0
   -3.1133   44.3992   -3.3244 N   0  0  0  0  0  0  0  0  0  0  0  0
   -7.8855   39.8942   -8.4525 O   0  0  0  0  0  0  0  0  0  0  0  0
   -8.3848   39.0935   -6.0514 O   0  0  0  0  0  0  0  0  0  0  0  0
   -6.5618   44.1922   -7.0394 C   0  0  1  0  0  0  0  0  0  0  0  0
   -4.3849   44.7579   -3.5411 C   0  0  0  0  0  0  0  0  0  0  0  0
   -5.2882   44.6043   -2.5784 N   0  0  0  0  0  0  0  0  0  0  0  0
   -6.8576   43.9716   -8.3836 C   0  0  2  0  0  0  0  0  0  0  0  0
   -4.7606   45.2931   -4.7672 C   0  0  0  0  0  0  0  0  0  0  0  0
   -7.1034   45.0651   -9.2050 C   0  0  0  0  0  0  0  0  0  0  0  0
   -3.7754   45.4315   -5.7382 C   0  0  0  0  0  0  0  0  0  0  0  0
   -6.1948   45.7274   -5.0963 C   0  0  0  0  0  0  0  0  0  0  0  0
  1 13  1  0  0  0  0
  3  4  1  0  0  0  0
  4  5  1  0  0  0  0
  6  5  1  6  0  0  0
  6 10  1  0  0  0  0
  6 14  2  0  0  0  0
  6 18  1  0  0  0  0
  7 11  1  6  0  0  0
  7 15  1  0  0  0  0
  7 19  2  0  0  0  0
  7 18  1  0  0  0  0
  8 25  1  0  0  0  0
  8 12  1  0  0  0  0
  9 26  2  0  0  0  0
  9 13  1  0  0  0  0
 12 16  1  0  0  0  0
 13 17  2  0  0  0  0
 16 20  1  0  0  0  0
 16 27  1  0  0  0  0
 17 21  1  0  0  0  0
 20  2  1  6  0  0  0
 20 23  1  0  0  0  0
 21 22  1  0  0  0  0
 21 24  2  0  0  0  0
 23  3  1  1  0  0  0
 23 25  1  0  0  0  0
 24 27  1  0  0  0  0
 24 26  1  0  0  0  0
M  CHG  2  10  -1  15  -1
M  END
>  <CHROM.1>
173.87273533,-63.40902765,-178.37899249,-178.84918219,-56.30605680,-71.53312808
-146.49647915,-114.83340322,-6.15366116,42.29799804,-6.92482805,-0.85042288
0.72701490,3.11889466

>  <Name>
ligand

>  <RI>
0

>  <Rbt.Current_Directory>
/home/itssahil/PROJECTS/Mol_Feturizer/New_Systems/rnas/3D2V

>  <Rbt.Executable>
rbdock ($Id: //depot/dev/client3/rdock/2013.1/src/exe/rbdock.cxx#4 $)

>  <Rbt.Library>
libRbt.so (2013.1, Build901 2013/11/27)

>  <Rbt.Parameter_File>
/export/apps/rDock/src/rDock_2013.1_src/data/scripts/dock_solv.prm

>  <Rbt.Receptor>
prm/pocket_docking_6.prm

>  <SCORE>
-13.0962

>  <SCORE.INTER>
-12.9907

>  <SCORE.INTER.CONST>
1

>  <SCORE.INTER.POLAR>
0

>  <SCORE.INTER.ROT>
8

>  <SCORE.INTER.SOLV>
19.9184

>  <SCORE.INTER.VDW>
-24.2333

>  <SCORE.INTER.norm>
-0.481138

>  <SCORE.INTRA>
-0.10551

>  <SCORE.INTRA.DIHEDRAL>
-2.40165

>  <SCORE.INTRA.DIHEDRAL.0>
7.82666

>  <SCORE.INTRA.POLAR>
0

>  <SCORE.INTRA.POLAR.0>
0

>  <SCORE.INTRA.REPUL>
0

>  <SCORE.INTRA.REPUL.0>
0

>  <SCORE.INTRA.SOLV>
1.57691

>  <SCORE.INTRA.SOLV.lig_0>
-83.2758

>  <SCORE.INTRA.VDW>
0.30686

>  <SCORE.INTRA.VDW.0>
-3.26816

>  <SCORE.INTRA.norm>
-0.00390776

>  <SCORE.RESTR>
0

>  <SCORE.RESTR.CAVITY>
0

>  <SCORE.RESTR.norm>
0

>  <SCORE.SYSTEM>
0

>  <SCORE.SYSTEM.CONST>
0

>  <SCORE.SYSTEM.DIHEDRAL>
0

>  <SCORE.SYSTEM.SOLV>
0

>  <SCORE.SYSTEM.norm>
0

>  <SCORE.heavy>
27

>  <SCORE.norm>
-0.485046

>  <RMSD>
7.615

$$$$
ligand
 OpenBabel11021811473D
libRbt.so/2013.1/901 2013/11/27
 27 28  0  0  0  0  0  0  0  0999 V2000
   -7.5251   46.0986   -8.9739 C   0  0  0  0  0  0  0  0  0  0  0  0
   -4.4707   40.0749   -6.8207 C   0  0  0  0  0  0  0  0  0  0  0  0
   -5.9822   37.5035   -7.1021 C   0  0  0  0  0  0  0  0  0  0  0  0
   -7.4207   37.7624   -6.6503 C   0  0  0  0  0  0  0  0  0  0  0  0
   -7.5317   39.0429   -6.0240 O   0  0  0  0  0  0  0  0  0  0  0  0
   -8.9446   39.5298   -5.4352 P   0  0  1  0  0  0  0  0  0  0  0  0
   -7.7735   42.0350   -4.8794 P   0  0  2  0  0  0  0  0  0  0  0  0
   -5.7509   38.7027  -10.7021 C   0  0  0  0  0  0  0  0  0  0  0  0
   -6.2792   44.2018   -7.9555 N   0  0  0  0  0  0  0  0  0  0  0  0
   -9.9562   39.9234   -6.6138 O   0  5  0  0  0  0  0  0  0  0  0  0
   -8.1979   43.3494   -4.3553 O   0  0  0  0  0  0  0  0  0  0  0  0
   -5.0510   39.8972  -10.5944 C   0  0  0  0  0  0  0  0  0  0  0  0
   -6.5609   44.9149   -9.0569 C   0  0  0  0  0  0  0  0  0  0  0  0
   -9.6821   38.3979   -4.5473 O   0  0  0  0  0  0  0  0  0  0  0  0
   -7.6993   42.0355   -6.4826 O   0  5  0  0  0  0  0  0  0  0  0  0
   -4.6331   40.3398   -9.3385 N   0  0  0  0  0  0  0  0  0  0  0  0
   -6.0033   44.5989  -10.2347 N   0  0  0  0  0  0  0  0  0  0  0  0
   -8.7335   40.8224   -4.4703 O   0  0  0  0  0  0  0  0  0  0  0  0
   -6.2997   41.6741   -4.3880 O   0  0  0  0  0  0  0  0  0  0  0  0
   -4.9297   39.5813   -8.1998 C   0  0  1  0  0  0  0  0  0  0  0  0
   -5.1565   43.5661  -10.3272 C   0  0  0  0  0  0  0  0  0  0  0  0
   -4.6085   43.2636  -11.4997 N   0  0  0  0  0  0  0  0  0  0  0  0
   -5.6320   38.3821   -8.3090 C   0  0  1  0  0  0  0  0  0  0  0  0
   -4.8467   42.8135   -9.2009 C   0  0  0  0  0  0  0  0  0  0  0  0
   -6.0381   37.9543   -9.5671 C   0  0  0  0  0  0  0  0  0  0  0  0
   -5.4483   43.1739   -8.0006 C   0  0  0  0  0  0  0  0  0  0  0  0
   -3.8884   41.6156   -9.2218 C   0  0  0  0  0  0  0  0  0  0  0  0
  1 13  1  0  0  0  0
  3  4  1  0  0  0  0
  4  5  1  0  0  0  0
  6  5  1  6  0  0  0
  6 10  1  0  0  0  0
  6 14  2  0  0  0  0
  6 18  1  0  0  0  0
  7 11  1  1  0  0  0
  7 15  1  0  0  0  0
  7 19  2  0  0  0  0
  7 18  1  0  0  0  0
  8 25  1  0  0  0  0
  8 12  1  0  0  0  0
  9 26  2  0  0  0  0
  9 13  1  0  0  0  0
 12 16  1  0  0  0  0
 13 17  2  0  0  0  0
 16 20  1  0  0  0  0
 16 27  1  0  0  0  0
 17 21  1  0  0  0  0
 20  2  1  6  0  0  0
 20 23  1  0  0  0  0
 21 22  1  0  0  0  0
 21 24  2  0  0  0  0
 23  3  1  6  0  0  0
 23 25  1  0  0  0  0
 24 27  1  0  0  0  0
 24 26  1  0  0  0  0
M  CHG  2  10  -1  15  -1
M  END
>  <CHROM.1>
-71.73089096,-178.69185115,-73.20137859,43.96923516,148.91951855,98.32833829
-96.81482540,82.57843153,-6.74101163,41.12901517,-7.37252855,0.62463130,0.94560549
-0.08329206

>  <Name>
ligand

>  <RI>
0

>  <Rbt.Current_Directory>
/home/itssahil/PROJECTS/Mol_Feturizer/New_Systems/rnas/3D2V

>  <Rbt.Executable>
rbdock ($Id: //depot/dev/client3/rdock/2013.1/src/exe/rbdock.cxx#4 $)

>  <Rbt.Library>
libRbt.so (2013.1, Build901 2013/11/27)

>  <Rbt.Parameter_File>
/export/apps/rDock/src/rDock_2013.1_src/data/scripts/dock_solv.prm

>  <Rbt.Receptor>
prm/pocket_docking_8.prm

>  <SCORE>
-14.5798

>  <SCORE.INTER>
-13.7576

>  <SCORE.INTER.CONST>
1

>  <SCORE.INTER.POLAR>
0

>  <SCORE.INTER.ROT>
8

>  <SCORE.INTER.SOLV>
18.1334

>  <SCORE.INTER.VDW>
-24.1496

>  <SCORE.INTER.norm>
-0.509542

>  <SCORE.INTRA>
-0.822168

>  <SCORE.INTRA.DIHEDRAL>
-0.241651

>  <SCORE.INTRA.DIHEDRAL.0>
7.82666

>  <SCORE.INTRA.POLAR>
0

>  <SCORE.INTRA.POLAR.0>
0

>  <SCORE.INTRA.REPUL>
0

>  <SCORE.INTRA.REPUL.0>
0

>  <SCORE.INTRA.SOLV>
2.58552

>  <SCORE.INTRA.SOLV.lig_0>
-83.2758

>  <SCORE.INTRA.VDW>
-1.9941

>  <SCORE.INTRA.VDW.0>
-3.26816

>  <SCORE.INTRA.norm>
-0.0304507

>  <SCORE.RESTR>
0

>  <SCORE.RESTR.CAVITY>
0

>  <SCORE.RESTR.norm>
0

>  <SCORE.SYSTEM>
0

>  <SCORE.SYSTEM.CONST>
0

>  <SCORE.SYSTEM.DIHEDRAL>
0

>  <SCORE.SYSTEM.SOLV>
0

>  <SCORE.SYSTEM.norm>
0

>  <SCORE.heavy>
27

>  <SCORE.norm>
-0.539993

>  <RMSD>
7.619

$$$$
ligand
 OpenBabel11021811473D
libRbt.so/2013.1/901 2013/11/27
 27 28  0  0  0  0  0  0  0  0999 V2000
   -6.2778   44.7773  -11.9206 C   0  0  0  0  0  0  0  0  0  0  0  0
   -7.0732   42.9903   -5.0875 C   0  0  0  0  0  0  0  0  0  0  0  0
   -4.9492   41.3400   -3.7680 C   0  0  0  0  0  0  0  0  0  0  0  0
   -4.7817   40.2370   -4.8149 C   0  0  0  0  0  0  0  0  0  0  0  0
   -5.6711   40.4443   -5.9150 O   0  0  0  0  0  0  0  0  0  0  0  0
   -5.6591   39.4297   -7.1602 P   0  0  1  0  0  0  0  0  0  0  0  0
   -8.4754   39.5571   -7.2538 P   0  0  2  0  0  0  0  0  0  0  0  0
   -3.0159   44.4288   -4.8510 C   0  0  0  0  0  0  0  0  0  0  0  0
   -6.9522   44.1609   -9.6070 N   0  0  0  0  0  0  0  0  0  0  0  0
   -4.4412   39.7471   -8.1516 O   0  5  0  0  0  0  0  0  0  0  0  0
   -8.7676   40.8048   -6.5186 O   0  0  0  0  0  0  0  0  0  0  0  0
   -3.9849   45.2101   -5.4664 C   0  0  0  0  0  0  0  0  0  0  0  0
   -6.2820   45.0033  -10.4084 C   0  0  0  0  0  0  0  0  0  0  0  0
   -5.5048   37.8837   -6.7132 O   0  0  0  0  0  0  0  0  0  0  0  0
   -8.4964   38.2809   -6.2809 O   0  5  0  0  0  0  0  0  0  0  0  0
   -5.2992   44.7465   -5.5399 N   0  0  0  0  0  0  0  0  0  0  0  0
   -5.6130   46.0457   -9.8947 N   0  0  0  0  0  0  0  0  0  0  0  0
   -7.0545   39.5438   -7.9886 O   0  0  0  0  0  0  0  0  0  0  0  0
   -9.5935   39.2684   -8.3540 O   0  0  0  0  0  0  0  0  0  0  0  0
   -5.6268   43.4967   -5.0006 C   0  0  1  0  0  0  0  0  0  0  0  0
   -5.6053   46.2602   -8.5732 C   0  0  0  0  0  0  0  0  0  0  0  0
   -4.9403   47.2978   -8.0759 N   0  0  0  0  0  0  0  0  0  0  0  0
   -4.6534   42.7133   -4.3826 C   0  0  2  0  0  0  0  0  0  0  0  0
   -6.2934   45.4037   -7.7224 C   0  0  0  0  0  0  0  0  0  0  0  0
   -3.3503   43.1910   -4.3154 C   0  0  0  0  0  0  0  0  0  0  0  0
   -6.9719   44.3346   -8.2961 C   0  0  0  0  0  0  0  0  0  0  0  0
   -6.3337   45.5781   -6.1986 C   0  0  0  0  0  0  0  0  0  0  0  0
  1 13  1  0  0  0  0
  3  4  1  0  0  0  0
  4  5  1  0  0  0  0
  6  5  1  1  0  0  0
  6 10  1  0  0  0  0
  6 14  2  0  0  0  0
  6 18  1  0  0  0  0
  7 11  1  1  0  0  0
  7 15  1  0  0  0  0
  7 19  2  0  0  0  0
  7 18  1  0  0  0  0
  8 25  1  0  0  0  0
  8 12  1  0  0  0  0
  9 26  2  0  0  0  0
  9 13  1  0  0  0  0
 12 16  1  0  0  0  0
 13 17  2  0  0  0  0
 16 20  1  0  0  0  0
 16 27  1  0  0  0  0
 17 21  1  0  0  0  0
 20  2  1  1  0  0  0
 20 23  1  0  0  0  0
 21 22  1  0  0  0  0
 21 24  2  0  0  0  0
 23  3  1  6  0  0  0
 23 25  1  0  0  0  0
 24 27  1  0  0  0  0
 24 26  1  0  0  0  0
M  CHG  2  10  -1  15  -1
M  END
>  <CHROM.1>
-59.68628020,178.71875841,-79.42378970,-46.38544479,71.78163585,89.04419791
-95.48056501,82.03491129,-6.15678760,42.22789986,-7.02291854,1.13295568,-0.95372003
-0.55017397

>  <Name>
ligand

>  <RI>
0

>  <Rbt.Current_Directory>
/home/itssahil/PROJECTS/Mol_Feturizer/New_Systems/rnas/3D2V

>  <Rbt.Executable>
rbdock ($Id: //depot/dev/client3/rdock/2013.1/src/exe/rbdock.cxx#4 $)

>  <Rbt.Library>
libRbt.so (2013.1, Build901 2013/11/27)

>  <Rbt.Parameter_File>
/export/apps/rDock/src/rDock_2013.1_src/data/scripts/dock_solv.prm

>  <Rbt.Receptor>
prm/pocket_docking_4.prm

>  <SCORE>
-8.69965

>  <SCORE.INTER>
-6.51318

>  <SCORE.INTER.CONST>
1

>  <SCORE.INTER.POLAR>
0

>  <SCORE.INTER.ROT>
8

>  <SCORE.INTER.SOLV>
23.824

>  <SCORE.INTER.VDW>
-21.2168

>  <SCORE.INTER.norm>
-0.241229

>  <SCORE.INTRA>
-2.18648

>  <SCORE.INTRA.DIHEDRAL>
-1.55424

>  <SCORE.INTRA.DIHEDRAL.0>
7.82666

>  <SCORE.INTRA.POLAR>
0

>  <SCORE.INTRA.POLAR.0>
0

>  <SCORE.INTRA.REPUL>
0

>  <SCORE.INTRA.REPUL.0>
0

>  <SCORE.INTRA.SOLV>
-0.658145

>  <SCORE.INTRA.SOLV.lig_0>
-83.2758

>  <SCORE.INTRA.VDW>
-1.08028

>  <SCORE.INTRA.VDW.0>
-3.26816

>  <SCORE.INTRA.norm>
-0.0809806

>  <SCORE.RESTR>
0

>  <SCORE.RESTR.CAVITY>
0

>  <SCORE.RESTR.norm>
0

>  <SCORE.SYSTEM>
0

>  <SCORE.SYSTEM.CONST>
0

>  <SCORE.SYSTEM.DIHEDRAL>
0

>  <SCORE.SYSTEM.SOLV>
0

>  <SCORE.SYSTEM.norm>
0

>  <SCORE.heavy>
27

>  <SCORE.norm>
-0.322209

>  <RMSD>
7.667

$$$$
ligand
 OpenBabel11021811473D
libRbt.so/2013.1/901 2013/11/27
 27 28  0  0  0  0  0  0  0  0999 V2000
   -7.1542   46.3202   -8.9537 C   0  0  0  0  0  0  0  0  0  0  0  0
   -6.4609   44.0682   -1.4275 C   0  0  0  0  0  0  0  0  0  0  0  0
   -5.8203   41.1663   -1.0481 C   0  0  0  0  0  0  0  0  0  0  0  0
   -6.1736   39.7700   -1.5641 C   0  0  0  0  0  0  0  0  0  0  0  0
   -7.3850   39.8026   -2.3228 O   0  0  0  0  0  0  0  0  0  0  0  0
   -7.3722   40.3461   -3.8343 P   0  0  1  0  0  0  0  0  0  0  0  0
   -5.6754   38.4837   -5.1025 P   0  0  2  0  0  0  0  0  0  0  0  0
   -3.6661   42.0842   -4.0427 C   0  0  0  0  0  0  0  0  0  0  0  0
   -6.9378   45.0155   -6.8470 N   0  0  0  0  0  0  0  0  0  0  0  0
   -8.5794   39.7215   -4.6825 O   0  5  0  0  0  0  0  0  0  0  0  0
   -4.3122   38.2926   -5.6389 O   0  0  0  0  0  0  0  0  0  0  0  0
   -3.9481   43.4301   -4.2360 C   0  0  0  0  0  0  0  0  0  0  0  0
   -6.6159   46.1209   -7.5365 C   0  0  0  0  0  0  0  0  0  0  0  0
   -7.5199   41.9533   -3.9283 O   0  0  0  0  0  0  0  0  0  0  0  0
   -6.7937   38.1802   -6.2128 O   0  5  0  0  0  0  0  0  0  0  0  0
   -4.8499   44.0736   -3.3873 N   0  0  0  0  0  0  0  0  0  0  0  0
   -5.8237   47.0565   -6.9934 N   0  0  0  0  0  0  0  0  0  0  0  0
   -5.9669   39.9588   -4.5565 O   0  0  0  0  0  0  0  0  0  0  0  0
   -5.9696   37.4599   -3.9154 O   0  0  0  0  0  0  0  0  0  0  0  0
   -5.4671   43.3561   -2.3556 C   0  0  1  0  0  0  0  0  0  0  0  0
   -5.3430   46.8999   -5.7538 C   0  0  0  0  0  0  0  0  0  0  0  0
   -4.5602   47.8350   -5.2253 N   0  0  0  0  0  0  0  0  0  0  0  0
   -5.1830   42.0052   -2.1621 C   0  0  1  0  0  0  0  0  0  0  0  0
   -5.6635   45.7653   -5.0183 C   0  0  0  0  0  0  0  0  0  0  0  0
   -4.2805   41.3804   -3.0142 C   0  0  0  0  0  0  0  0  0  0  0  0
   -6.4858   44.8194   -5.6197 C   0  0  0  0  0  0  0  0  0  0  0  0
   -5.1539   45.5092   -3.5940 C   0  0  0  0  0  0  0  0  0  0  0  0
  1 13  1  0  0  0  0
  3  4  1  0  0  0  0
  4  5  1  0  0  0  0
  6  5  1  1  0  0  0
  6 10  1  0  0  0  0
  6 14  2  0  0  0  0
  6 18  1  0  0  0  0
  7 11  1  6  0  0  0
  7 15  1  0  0  0  0
  7 19  2  0  0  0  0
  7 18  1  0  0  0  0
  8 25  1  0  0  0  0
  8 12  1  0  0  0  0
  9 26  2  0  0  0  0
  9 13  1  0  0  0  0
 12 16  1  0  0  0  0
 13 17  2  0  0  0  0
 16 20  1  0  0  0  0
 16 27  1  0  0  0  0
 17 21  1  0  0  0  0
 20  2  1  1  0  0  0
 20 23  1  0  0  0  0
 21 22  1  0  0  0  0
 21 24  2  0  0  0  0
 23  3  1  1  0  0  0
 23 25  1  0  0  0  0
 24 27  1  0  0  0  0
 24 26  1  0  0  0  0
M  CHG  2  10  -1  15  -1
M  END
>  <CHROM.1>
-78.82090705,77.85777545,154.69910512,77.59001099,-175.77913090,139.79578767
-142.70309081,56.25583189,-6.00816353,42.20094471,-4.41673430,1.32488807
-1.32754949,-0.50838949

>  <Name>
ligand

>  <RI>
0

>  <Rbt.Current_Directory>
/home/itssahil/PROJECTS/Mol_Feturizer/New_Systems/rnas/3D2V

>  <Rbt.Executable>
rbdock ($Id: //depot/dev/client3/rdock/2013.1/src/exe/rbdock.cxx#4 $)

>  <Rbt.Library>
libRbt.so (2013.1, Build901 2013/11/27)

>  <Rbt.Parameter_File>
/export/apps/rDock/src/rDock_2013.1_src/data/scripts/dock_solv.prm

>  <Rbt.Receptor>
prm/pocket_docking_5.prm

>  <SCORE>
-8.51545

>  <SCORE.INTER>
-10.0643

>  <SCORE.INTER.CONST>
1

>  <SCORE.INTER.POLAR>
0

>  <SCORE.INTER.ROT>
8

>  <SCORE.INTER.SOLV>
10.4169

>  <SCORE.INTER.VDW>
-19.1151

>  <SCORE.INTER.norm>
-0.372751

>  <SCORE.INTRA>
1.54882

>  <SCORE.INTRA.DIHEDRAL>
1.50662

>  <SCORE.INTRA.DIHEDRAL.0>
7.82666

>  <SCORE.INTRA.POLAR>
0

>  <SCORE.INTRA.POLAR.0>
0

>  <SCORE.INTRA.REPUL>
0

>  <SCORE.INTRA.REPUL.0>
0

>  <SCORE.INTRA.SOLV>
4.6836

>  <SCORE.INTRA.SOLV.lig_0>
-83.2758

>  <SCORE.INTRA.VDW>
-1.54629

>  <SCORE.INTRA.VDW.0>
-3.26816

>  <SCORE.INTRA.norm>
0.0573636

>  <SCORE.RESTR>
0

>  <SCORE.RESTR.CAVITY>
0

>  <SCORE.RESTR.norm>
0

>  <SCORE.SYSTEM>
0

>  <SCORE.SYSTEM.CONST>
0

>  <SCORE.SYSTEM.DIHEDRAL>
0

>  <SCORE.SYSTEM.SOLV>
0

>  <SCORE.SYSTEM.norm>
0

>  <SCORE.heavy>
27

>  <SCORE.norm>
-0.315387

>  <RMSD>
7.670

$$$$
ligand
 OpenBabel11021811473D
libRbt.so/2013.1/901 2013/11/27
 27 28  0  0  0  0  0  0  0  0999 V2000
   -6.4664   45.9270   -3.1839 C   0  0  0  0  0  0  0  0  0  0  0  0
   -4.0219   45.8029  -10.3963 C   0  0  0  0  0  0  0  0  0  0  0  0
   -4.2635   43.1761  -11.8166 C   0  0  0  0  0  0  0  0  0  0  0  0
   -3.3758   42.3014  -10.9294 C   0  0  0  0  0  0  0  0  0  0  0  0
   -4.1416   41.2615  -10.3159 O   0  0  0  0  0  0  0  0  0  0  0  0
   -4.6434   41.4214   -8.7984 P   0  0  1  0  0  0  0  0  0  0  0  0
   -6.0279   38.9692   -8.6366 P   0  0  2  0  0  0  0  0  0  0  0  0
   -7.6885   43.5430  -10.2085 C   0  0  0  0  0  0  0  0  0  0  0  0
   -7.3529   45.6349   -5.4895 N   0  0  0  0  0  0  0  0  0  0  0  0
   -3.5310   40.9086   -7.7656 O   0  5  0  0  0  0  0  0  0  0  0  0
   -5.0567   38.3102   -7.7394 O   0  0  0  0  0  0  0  0  0  0  0  0
   -7.5982   44.7585   -9.5433 C   0  0  0  0  0  0  0  0  0  0  0  0
   -6.4117   46.1650   -4.6932 C   0  0  0  0  0  0  0  0  0  0  0  0
   -4.9762   42.9529   -8.4018 O   0  0  0  0  0  0  0  0  0  0  0  0
   -5.7724   38.5773  -10.1718 O   0  5  0  0  0  0  0  0  0  0  0  0
   -6.4127   45.4922   -9.6069 N   0  0  0  0  0  0  0  0  0  0  0  0
   -5.4193   46.9044   -5.2095 N   0  0  0  0  0  0  0  0  0  0  0  0
   -6.0086   40.5673   -8.5673 O   0  0  0  0  0  0  0  0  0  0  0  0
   -7.5150   38.4877   -8.3192 O   0  0  0  0  0  0  0  0  0  0  0  0
   -5.3244   44.9933  -10.3328 C   0  0  1  0  0  0  0  0  0  0  0  0
   -5.3544   47.1236   -6.5286 C   0  0  0  0  0  0  0  0  0  0  0  0
   -4.3651   47.8566   -7.0290 N   0  0  0  0  0  0  0  0  0  0  0  0
   -5.4162   43.7733  -11.0007 C   0  0  2  0  0  0  0  0  0  0  0  0
   -6.3155   46.5838   -7.3747 C   0  0  0  0  0  0  0  0  0  0  0  0
   -6.6047   43.0569  -10.9295 C   0  0  0  0  0  0  0  0  0  0  0  0
   -7.3279   45.8254   -6.7980 C   0  0  0  0  0  0  0  0  0  0  0  0
   -6.3141   46.7882   -8.8953 C   0  0  0  0  0  0  0  0  0  0  0  0
  1 13  1  0  0  0  0
  3  4  1  0  0  0  0
  4  5  1  0  0  0  0
  6  5  1  6  0  0  0
  6 10  1  0  0  0  0
  6 14  2  0  0  0  0
  6 18  1  0  0  0  0
  7 11  1  1  0  0  0
  7 15  1  0  0  0  0
  7 19  2  0  0  0  0
  7 18  1  0  0  0  0
  8 25  1  0  0  0  0
  8 12  1  0  0  0  0
  9 26  2  0  0  0  0
  9 13  1  0  0  0  0
 12 16  1  0  0  0  0
 13 17  2  0  0  0  0
 16 20  1  0  0  0  0
 16 27  1  0  0  0  0
 17 21  1  0  0  0  0
 20  2  1  6  0  0  0
 20 23  1  0  0  0  0
 21 22  1  0  0  0  0
 21 24  2  0  0  0  0
 23  3  1  1  0  0  0
 23 25  1  0  0  0  0
 24 27  1  0  0  0  0
 24 26  1  0  0  0  0
M  CHG  2  10  -1  15  -1
M  END
>  <CHROM.1>
57.41840932,-99.42779304,-86.96429612,66.45266954,54.56736133,89.48997602
128.06508886,68.77277749,-5.61391954,43.14593429,-8.48600343,1.86510912,1.31126602
0.07967668

>  <Name>
ligand

>  <RI>
0

>  <Rbt.Current_Directory>
/home/itssahil/PROJECTS/Mol_Feturizer/New_Systems/rnas/3D2V

>  <Rbt.Executable>
rbdock ($Id: //depot/dev/client3/rdock/2013.1/src/exe/rbdock.cxx#4 $)

>  <Rbt.Library>
libRbt.so (2013.1, Build901 2013/11/27)

>  <Rbt.Parameter_File>
/export/apps/rDock/src/rDock_2013.1_src/data/scripts/dock_solv.prm

>  <Rbt.Receptor>
prm/pocket_docking_6.prm

>  <SCORE>
-10.8439

>  <SCORE.INTER>
-12.2929

>  <SCORE.INTER.CONST>
1

>  <SCORE.INTER.POLAR>
0

>  <SCORE.INTER.ROT>
8

>  <SCORE.INTER.SOLV>
17.5908

>  <SCORE.INTER.VDW>
-22.9922

>  <SCORE.INTER.norm>
-0.455291

>  <SCORE.INTRA>
1.44899

>  <SCORE.INTRA.DIHEDRAL>
3.82164

>  <SCORE.INTRA.DIHEDRAL.0>
7.82666

>  <SCORE.INTRA.POLAR>
0

>  <SCORE.INTRA.POLAR.0>
0

>  <SCORE.INTRA.REPUL>
0

>  <SCORE.INTRA.REPUL.0>
0

>  <SCORE.INTRA.SOLV>
2.80911

>  <SCORE.INTRA.SOLV.lig_0>
-83.2758

>  <SCORE.INTRA.VDW>
-1.86639

>  <SCORE.INTRA.VDW.0>
-3.26816

>  <SCORE.INTRA.norm>
0.0536662

>  <SCORE.RESTR>
0

>  <SCORE.RESTR.CAVITY>
0

>  <SCORE.RESTR.norm>
0

>  <SCORE.SYSTEM>
0

>  <SCORE.SYSTEM.CONST>
0

>  <SCORE.SYSTEM.DIHEDRAL>
0

>  <SCORE.SYSTEM.SOLV>
0

>  <SCORE.SYSTEM.norm>
0

>  <SCORE.heavy>
27

>  <SCORE.norm>
-0.401625

>  <RMSD>
7.671

$$$$
ligand
 OpenBabel11021811463D
libRbt.so/2013.1/901 2013/11/27
 27 28  0  0  0  0  0  0  0  0999 V2000
   -5.0326   39.6106  -13.2479 C   0  0  0  0  0  0  0  0  0  0  0  0
   -7.0805   36.6686   -5.4251 C   0  0  0  0  0  0  0  0  0  0  0  0
   -9.0558   38.4293   -4.0204 C   0  0  0  0  0  0  0  0  0  0  0  0
   -8.3702   39.5086   -3.1803 C   0  0  0  0  0  0  0  0  0  0  0  0
   -6.9522   39.4631   -3.3577 O   0  0  0  0  0  0  0  0  0  0  0  0
   -6.0048   40.4476   -2.5132 P   0  0  1  0  0  0  0  0  0  0  0  0
   -5.9362   43.1455   -1.6926 P   0  0  2  0  0  0  0  0  0  0  0  0
   -9.0892   39.8351   -7.5522 C   0  0  0  0  0  0  0  0  0  0  0  0
   -5.2970   39.6041  -10.7746 N   0  0  0  0  0  0  0  0  0  0  0  0
   -5.7899   39.9031   -1.0217 O   0  5  0  0  0  0  0  0  0  0  0  0
   -4.6703   43.5750   -2.3216 O   0  0  0  0  0  0  0  0  0  0  0  0
   -8.1777   39.0303   -8.2228 C   0  0  0  0  0  0  0  0  0  0  0  0
   -5.4409   38.9437  -11.9340 C   0  0  0  0  0  0  0  0  0  0  0  0
   -4.5343   40.6191   -3.1625 O   0  0  0  0  0  0  0  0  0  0  0  0
   -5.7103   42.6743   -0.1752 O   0  5  0  0  0  0  0  0  0  0  0  0
   -7.5301   38.0027   -7.5355 N   0  0  0  0  0  0  0  0  0  0  0  0
   -5.9412   37.6998  -11.9525 N   0  0  0  0  0  0  0  0  0  0  0  0
   -6.6642   41.9330   -2.4404 O   0  0  0  0  0  0  0  0  0  0  0  0
   -6.9712   44.3562   -1.6098 O   0  0  0  0  0  0  0  0  0  0  0  0
   -7.7985   37.7979   -6.1768 C   0  0  1  0  0  0  0  0  0  0  0  0
   -6.3040   37.0992  -10.8123 C   0  0  0  0  0  0  0  0  0  0  0  0
   -6.7969   35.8653  -10.8430 N   0  0  0  0  0  0  0  0  0  0  0  0
   -8.7140   38.6061   -5.5046 C   0  0  1  0  0  0  0  0  0  0  0  0
   -6.1628   37.7608   -9.5985 C   0  0  0  0  0  0  0  0  0  0  0  0
   -9.3523   39.6228   -6.2044 C   0  0  0  0  0  0  0  0  0  0  0  0
   -5.6421   39.0495   -9.6246 C   0  0  0  0  0  0  0  0  0  0  0  0
   -6.5552   37.1448   -8.2492 C   0  0  0  0  0  0  0  0  0  0  0  0
  1 13  1  0  0  0  0
  3  4  1  0  0  0  0
  4  5  1  0  0  0  0
  6  5  1  6  0  0  0
  6 10  1  0  0  0  0
  6 14  2  0  0  0  0
  6 18  1  0  0  0  0
  7 11  1  6  0  0  0
  7 15  1  0  0  0  0
  7 19  2  0  0  0  0
  7 18  1  0  0  0  0
  8 25  1  0  0  0  0
  8 12  1  0  0  0  0
  9 26  2  0  0  0  0
  9 13  1  0  0  0  0
 12 16  1  0  0  0  0
 13 17  2  0  0  0  0
 16 20  1  0  0  0  0
 16 27  1  0  0  0  0
 17 21  1  0  0  0  0
 20  2  1  6  0  0  0
 20 23  1  0  0  0  0
 21 22  1  0  0  0  0
 21 24  2  0  0  0  0
 23  3  1  6  0  0  0
 23 25  1  0  0  0  0
 24 27  1  0  0  0  0
 24 26  1  0  0  0  0
M  CHG  2  10  -1  15  -1
M  END
>  <CHROM.1>
-58.21440042,-176.54271686,79.16349146,-178.58817185,65.71346466,103.87156446
-123.64898513,13.81717318,-6.60134980,39.79501583,-5.69762898,-1.60082815
0.93778491,1.17110987

>  <Name>
ligand

>  <RI>
0

>  <Rbt.Current_Directory>
/home/itssahil/PROJECTS/Mol_Feturizer/New_Systems/rnas/3D2V

>  <Rbt.Executable>
rbdock ($Id: //depot/dev/client3/rdock/2013.1/src/exe/rbdock.cxx#4 $)

>  <Rbt.Library>
libRbt.so (2013.1, Build901 2013/11/27)

>  <Rbt.Parameter_File>
/export/apps/rDock/src/rDock_2013.1_src/data/scripts/dock_solv.prm

>  <Rbt.Receptor>
prm/blind_docking_60.prm

>  <SCORE>
-16.9216

>  <SCORE.INTER>
-15.9412

>  <SCORE.INTER.CONST>
1

>  <SCORE.INTER.POLAR>
0

>  <SCORE.INTER.ROT>
8

>  <SCORE.INTER.SOLV>
19.3215

>  <SCORE.INTER.VDW>
-26.0013

>  <SCORE.INTER.norm>
-0.590417

>  <SCORE.INTRA>
-0.984445

>  <SCORE.INTRA.DIHEDRAL>
-1.96027

>  <SCORE.INTRA.DIHEDRAL.0>
7.82666

>  <SCORE.INTRA.POLAR>
0

>  <SCORE.INTRA.POLAR.0>
0

>  <SCORE.INTRA.REPUL>
0

>  <SCORE.INTRA.REPUL.0>
0

>  <SCORE.INTRA.SOLV>
-0.912318

>  <SCORE.INTRA.SOLV.lig_0>
-83.2758

>  <SCORE.INTRA.VDW>
0.45185

>  <SCORE.INTRA.VDW.0>
-3.26816

>  <SCORE.INTRA.norm>
-0.0364609

>  <SCORE.RESTR>
0.00407513

>  <SCORE.RESTR.CAVITY>
0.00407513

>  <SCORE.RESTR.norm>
0.000150931

>  <SCORE.SYSTEM>
0

>  <SCORE.SYSTEM.CONST>
0

>  <SCORE.SYSTEM.DIHEDRAL>
0

>  <SCORE.SYSTEM.SOLV>
0

>  <SCORE.SYSTEM.norm>
0

>  <SCORE.heavy>
27

>  <SCORE.norm>
-0.626727

>  <RMSD>
7.685

$$$$
ligand
 OpenBabel11021811463D
libRbt.so/2013.1/901 2013/11/27
 27 28  0  0  0  0  0  0  0  0999 V2000
   -6.3914   35.1368  -12.2056 C   0  0  0  0  0  0  0  0  0  0  0  0
   -8.3546   39.8261   -6.8492 C   0  0  0  0  0  0  0  0  0  0  0  0
   -8.3380   38.7396   -4.0574 C   0  0  0  0  0  0  0  0  0  0  0  0
   -7.9217   39.3003   -2.6962 C   0  0  0  0  0  0  0  0  0  0  0  0
   -7.6184   40.6941   -2.7944 O   0  0  0  0  0  0  0  0  0  0  0  0
   -6.0891   41.1810   -2.8595 P   0  0  1  0  0  0  0  0  0  0  0  0
   -5.7519   40.6992   -0.1008 P   0  0  2  0  0  0  0  0  0  0  0  0
   -4.8500   37.8606   -5.2869 C   0  0  0  0  0  0  0  0  0  0  0  0
   -6.5770   36.1370   -9.9357 N   0  0  0  0  0  0  0  0  0  0  0  0
   -5.3959   40.7246   -4.2300 O   0  5  0  0  0  0  0  0  0  0  0  0
   -7.0057   39.9753    0.1933 O   0  0  0  0  0  0  0  0  0  0  0  0
   -4.8359   38.3575   -6.5835 C   0  0  0  0  0  0  0  0  0  0  0  0
   -6.2703   36.3086  -11.2308 C   0  0  0  0  0  0  0  0  0  0  0  0
   -5.9342   42.7879   -2.7721 O   0  0  0  0  0  0  0  0  0  0  0  0
   -5.8982   42.2717    0.1850 O   0  5  0  0  0  0  0  0  0  0  0  0
   -5.9689   38.9972   -7.0883 N   0  0  0  0  0  0  0  0  0  0  0  0
   -5.8568   37.5020  -11.6812 N   0  0  0  0  0  0  0  0  0  0  0  0
   -5.2497   40.5580   -1.6130 O   0  0  0  0  0  0  0  0  0  0  0  0
   -4.5713   40.2047    0.8508 O   0  0  0  0  0  0  0  0  0  0  0  0
   -7.1101   39.1249   -6.2875 C   0  0  1  0  0  0  0  0  0  0  0  0
   -5.7448   38.5399  -10.8430 C   0  0  0  0  0  0  0  0  0  0  0  0
   -5.3358   39.7185  -11.3013 N   0  0  0  0  0  0  0  0  0  0  0  0
   -7.1231   38.6262   -4.9858 C   0  0  2  0  0  0  0  0  0  0  0  0
   -6.0586   38.3886   -9.4978 C   0  0  0  0  0  0  0  0  0  0  0  0
   -5.9857   37.9946   -4.4976 C   0  0  0  0  0  0  0  0  0  0  0  0
   -6.4811   37.1344   -9.0725 C   0  0  0  0  0  0  0  0  0  0  0  0
   -5.9562   39.5256   -8.4727 C   0  0  0  0  0  0  0  0  0  0  0  0
  1 13  1  0  0  0  0
  3  4  1  0  0  0  0
  4  5  1  0  0  0  0
  6  5  1  1  0  0  0
  6 10  1  0  0  0  0
  6 14  2  0  0  0  0
  6 18  1  0  0  0  0
  7 11  1  1  0  0  0
  7 15  1  0  0  0  0
  7 19  2  0  0  0  0
  7 18  1  0  0  0  0
  8 25  1  0  0  0  0
  8 12  1  0  0  0  0
  9 26  2  0  0  0  0
  9 13  1  0  0  0  0
 12 16  1  0  0  0  0
 13 17  2  0  0  0  0
 16 20  1  0  0  0  0
 16 27  1  0  0  0  0
 17 21  1  0  0  0  0
 20  2  1  1  0  0  0
 20 23  1  0  0  0  0
 21 22  1  0  0  0  0
 21 24  2  0  0  0  0
 23  3  1  6  0  0  0
 23 25  1  0  0  0  0
 24 27  1  0  0  0  0
 24 26  1  0  0  0  0
M  CHG  2  10  -1  15  -1
M  END
>  <CHROM.1>
72.62823252,-101.18426255,67.63223839,-51.85791466,65.96982646,-130.14333536
-163.62175856,74.15708206,-6.22458951,39.37731958,-5.20491976,1.61197167
-1.27448852,-1.87716241

>  <Name>
ligand

>  <RI>
0

>  <Rbt.Current_Directory>
/home/itssahil/PROJECTS/Mol_Feturizer/New_Systems/rnas/3D2V

>  <Rbt.Executable>
rbdock ($Id: //depot/dev/client3/rdock/2013.1/src/exe/rbdock.cxx#4 $)

>  <Rbt.Library>
libRbt.so (2013.1, Build901 2013/11/27)

>  <Rbt.Parameter_File>
/export/apps/rDock/src/rDock_2013.1_src/data/scripts/dock_solv.prm

>  <Rbt.Receptor>
prm/blind_docking_60.prm

>  <SCORE>
-13.926

>  <SCORE.INTER>
-15.2428

>  <SCORE.INTER.CONST>
1

>  <SCORE.INTER.POLAR>
0

>  <SCORE.INTER.ROT>
8

>  <SCORE.INTER.SOLV>
24.8708

>  <SCORE.INTER.VDW>
-27.3855

>  <SCORE.INTER.norm>
-0.56455

>  <SCORE.INTRA>
1.31687

>  <SCORE.INTRA.DIHEDRAL>
3.78703

>  <SCORE.INTRA.DIHEDRAL.0>
7.82666

>  <SCORE.INTRA.POLAR>
0

>  <SCORE.INTRA.POLAR.0>
0

>  <SCORE.INTRA.REPUL>
0

>  <SCORE.INTRA.REPUL.0>
0

>  <SCORE.INTRA.SOLV>
1.43504

>  <SCORE.INTRA.SOLV.lig_0>
-83.2758

>  <SCORE.INTRA.VDW>
-1.29416

>  <SCORE.INTRA.VDW.0>
-3.26816

>  <SCORE.INTRA.norm>
0.0487731

>  <SCORE.RESTR>
0

>  <SCORE.RESTR.CAVITY>
0

>  <SCORE.RESTR.norm>
0

>  <SCORE.SYSTEM>
0

>  <SCORE.SYSTEM.CONST>
0

>  <SCORE.SYSTEM.DIHEDRAL>
0

>  <SCORE.SYSTEM.SOLV>
0

>  <SCORE.SYSTEM.norm>
0

>  <SCORE.heavy>
27

>  <SCORE.norm>
-0.515777

>  <RMSD>
7.700

$$$$
ligand
 OpenBabel11021811463D
libRbt.so/2013.1/901 2013/11/27
 27 28  0  0  0  0  0  0  0  0999 V2000
   -4.1124   35.5774  -13.5669 C   0  0  0  0  0  0  0  0  0  0  0  0
   -7.3188   36.1504   -6.1011 C   0  0  0  0  0  0  0  0  0  0  0  0
   -5.5844   37.5577   -4.1045 C   0  0  0  0  0  0  0  0  0  0  0  0
   -6.4546   38.5329   -3.3092 C   0  0  0  0  0  0  0  0  0  0  0  0
   -5.7633   39.7652   -3.0907 O   0  0  0  0  0  0  0  0  0  0  0  0
   -6.0817   40.6446   -1.7848 P   0  0  1  0  0  0  0  0  0  0  0  0
   -6.2008   42.9613   -3.3895 P   0  0  2  0  0  0  0  0  0  0  0  0
   -4.6986   39.3408   -7.3428 C   0  0  0  0  0  0  0  0  0  0  0  0
   -5.4206   37.1732  -12.1780 N   0  0  0  0  0  0  0  0  0  0  0  0
   -7.6266   40.5315   -1.3754 O   0  5  0  0  0  0  0  0  0  0  0  0
   -7.6054   42.7006   -3.7656 O   0  0  0  0  0  0  0  0  0  0  0  0
   -5.4945   38.7023   -8.2847 C   0  0  0  0  0  0  0  0  0  0  0  0
   -4.9261   35.9340  -12.3225 C   0  0  0  0  0  0  0  0  0  0  0  0
   -5.2233   40.1894   -0.4927 O   0  0  0  0  0  0  0  0  0  0  0  0
   -5.1872   42.5184   -4.5524 O   0  5  0  0  0  0  0  0  0  0  0  0
   -6.3456   37.6720   -7.8825 N   0  0  0  0  0  0  0  0  0  0  0  0
   -5.1391   35.0012  -11.3831 N   0  0  0  0  0  0  0  0  0  0  0  0
   -5.7244   42.2074   -2.0614 O   0  0  0  0  0  0  0  0  0  0  0  0
   -5.9471   44.5218   -3.1792 O   0  0  0  0  0  0  0  0  0  0  0  0
   -6.3835   37.2866   -6.5371 C   0  0  1  0  0  0  0  0  0  0  0  0
   -5.8488   35.2948  -10.2865 C   0  0  0  0  0  0  0  0  0  0  0  0
   -6.0517   34.3624   -9.3613 N   0  0  0  0  0  0  0  0  0  0  0  0
   -5.5844   37.9285   -5.5923 C   0  0  1  0  0  0  0  0  0  0  0  0
   -6.3696   36.5712  -10.1122 C   0  0  0  0  0  0  0  0  0  0  0  0
   -4.7448   38.9542   -6.0089 C   0  0  0  0  0  0  0  0  0  0  0  0
   -6.1271   37.5072  -11.1110 C   0  0  0  0  0  0  0  0  0  0  0  0
   -7.1936   36.9881   -8.8870 C   0  0  0  0  0  0  0  0  0  0  0  0
  1 13  1  0  0  0  0
  3  4  1  0  0  0  0
  4  5  1  0  0  0  0
  6  5  1  6  0  0  0
  6 10  1  0  0  0  0
  6 14  2  0  0  0  0
  6 18  1  0  0  0  0
  7 11  1  6  0  0  0
  7 15  1  0  0  0  0
  7 19  2  0  0  0  0
  7 18  1  0  0  0  0
  8 25  1  0  0  0  0
  8 12  1  0  0  0  0
  9 26  2  0  0  0  0
  9 13  1  0  0  0  0
 12 16  1  0  0  0  0
 13 17  2  0  0  0  0
 16 20  1  0  0  0  0
 16 27  1  0  0  0  0
 17 21  1  0  0  0  0
 20  2  1  1  0  0  0
 20 23  1  0  0  0  0
 21 22  1  0  0  0  0
 21 24  2  0  0  0  0
 23  3  1  1  0  0  0
 23 25  1  0  0  0  0
 24 27  1  0  0  0  0
 24 26  1  0  0  0  0
M  CHG  2  10  -1  15  -1
M  END
>  <CHROM.1>
-77.87046554,-150.85232493,-34.19071239,47.37327845,44.44117818,-99.42493460
97.12175632,48.75713970,-5.93711212,39.02000041,-6.05639273,-1.17025039,1.41239591
0.58677053

>  <Name>
ligand

>  <RI>
0

>  <Rbt.Current_Directory>
/home/itssahil/PROJECTS/Mol_Feturizer/New_Systems/rnas/3D2V

>  <Rbt.Executable>
rbdock ($Id: //depot/dev/client3/rdock/2013.1/src/exe/rbdock.cxx#4 $)

>  <Rbt.Library>
libRbt.so (2013.1, Build901 2013/11/27)

>  <Rbt.Parameter_File>
/export/apps/rDock/src/rDock_2013.1_src/data/scripts/dock_solv.prm

>  <Rbt.Receptor>
prm/blind_docking_60.prm

>  <SCORE>
-9.09101

>  <SCORE.INTER>
-10.0659

>  <SCORE.INTER.CONST>
1

>  <SCORE.INTER.POLAR>
0

>  <SCORE.INTER.ROT>
8

>  <SCORE.INTER.SOLV>
15.7136

>  <SCORE.INTER.VDW>
-20.8818

>  <SCORE.INTER.norm>
-0.37281

>  <SCORE.INTRA>
0.643094

>  <SCORE.INTRA.DIHEDRAL>
3.46815

>  <SCORE.INTRA.DIHEDRAL.0>
7.82666

>  <SCORE.INTRA.POLAR>
0

>  <SCORE.INTRA.POLAR.0>
0

>  <SCORE.INTRA.REPUL>
0

>  <SCORE.INTRA.REPUL.0>
0

>  <SCORE.INTRA.SOLV>
-1.06945

>  <SCORE.INTRA.SOLV.lig_0>
-83.2758

>  <SCORE.INTRA.VDW>
-0.556252

>  <SCORE.INTRA.VDW.0>
-3.26816

>  <SCORE.INTRA.norm>
0.0238183

>  <SCORE.RESTR>
0.331764

>  <SCORE.RESTR.CAVITY>
0.331764

>  <SCORE.RESTR.norm>
0.0122876

>  <SCORE.SYSTEM>
0

>  <SCORE.SYSTEM.CONST>
0

>  <SCORE.SYSTEM.DIHEDRAL>
0

>  <SCORE.SYSTEM.SOLV>
0

>  <SCORE.SYSTEM.norm>
0

>  <SCORE.heavy>
27

>  <SCORE.norm>
-0.336704

>  <RMSD>
7.724

$$$$
ligand
 OpenBabel11021811463D
libRbt.so/2013.1/901 2013/11/27
 27 28  0  0  0  0  0  0  0  0999 V2000
   -0.9980   43.7870   -5.2605 C   0  0  0  0  0  0  0  0  0  0  0  0
   -7.3756   42.4131   -3.6981 C   0  0  0  0  0  0  0  0  0  0  0  0
   -8.1512   39.6074   -2.9895 C   0  0  0  0  0  0  0  0  0  0  0  0
   -7.3968   39.1931   -4.2544 C   0  0  0  0  0  0  0  0  0  0  0  0
   -6.3758   38.2410   -3.9455 O   0  0  0  0  0  0  0  0  0  0  0  0
   -5.3717   37.7383   -5.0941 P   0  0  1  0  0  0  0  0  0  0  0  0
   -7.3428   36.0672   -6.2248 P   0  0  2  0  0  0  0  0  0  0  0  0
   -5.9825   40.6166   -0.0350 C   0  0  0  0  0  0  0  0  0  0  0  0
   -2.9457   42.7159   -4.1440 N   0  0  0  0  0  0  0  0  0  0  0  0
   -4.4081   38.9236   -5.5775 O   0  5  0  0  0  0  0  0  0  0  0  0
   -8.5741   36.5282   -5.5510 O   0  0  0  0  0  0  0  0  0  0  0  0
   -5.6114   41.9186   -0.3437 C   0  0  0  0  0  0  0  0  0  0  0  0
   -2.2310   43.8315   -4.3573 C   0  0  0  0  0  0  0  0  0  0  0  0
   -4.4149   36.5283   -4.6106 O   0  0  0  0  0  0  0  0  0  0  0  0
   -6.6647   34.8423   -5.4402 O   0  5  0  0  0  0  0  0  0  0  0  0
   -6.0653   42.5018   -1.5276 N   0  0  0  0  0  0  0  0  0  0  0  0
   -2.5881   44.9900   -3.7842 N   0  0  0  0  0  0  0  0  0  0  0  0
   -6.2140   37.1909   -6.3737 O   0  0  0  0  0  0  0  0  0  0  0  0
   -7.6662   35.5079   -7.6831 O   0  0  0  0  0  0  0  0  0  0  0  0
   -6.8823   41.7677   -2.3957 C   0  0  1  0  0  0  0  0  0  0  0  0
   -3.6647   45.0488   -2.9906 C   0  0  0  0  0  0  0  0  0  0  0  0
   -4.0100   46.2032   -2.4296 N   0  0  0  0  0  0  0  0  0  0  0  0
   -7.2547   40.4609   -2.0847 C   0  0  2  0  0  0  0  0  0  0  0  0
   -4.4227   43.9082   -2.7557 C   0  0  0  0  0  0  0  0  0  0  0  0
   -6.7965   39.8962   -0.9006 C   0  0  0  0  0  0  0  0  0  0  0  0
   -4.0163   42.7279   -3.3675 C   0  0  0  0  0  0  0  0  0  0  0  0
   -5.6680   43.8903   -1.8596 C   0  0  0  0  0  0  0  0  0  0  0  0
  1 13  1  0  0  0  0
  3  4  1  0  0  0  0
  4  5  1  0  0  0  0
  6  5  1  1  0  0  0
  6 10  1  0  0  0  0
  6 14  2  0  0  0  0
  6 18  1  0  0  0  0
  7 11  1  1  0  0  0
  7 15  1  0  0  0  0
  7 19  2  0  0  0  0
  7 18  1  0  0  0  0
  8 25  1  0  0  0  0
  8 12  1  0  0  0  0
  9 26  2  0  0  0  0
  9 13  1  0  0  0  0
 12 16  1  0  0  0  0
 13 17  2  0  0  0  0
 16 20  1  0  0  0  0
 16 27  1  0  0  0  0
 17 21  1  0  0  0  0
 20  2  1  1  0  0  0
 20 23  1  0  0  0  0
 21 22  1  0  0  0  0
 21 24  2  0  0  0  0
 23  3  1  6  0  0  0
 23 25  1  0  0  0  0
 24 27  1  0  0  0  0
 24 26  1  0  0  0  0
M  CHG  2  10  -1  15  -1
M  END
>  <CHROM.1>
70.09253660,-175.31895655,67.54508362,-53.89880849,71.17797485,71.13519059
-165.89326697,94.15262713,-5.62590728,40.13527974,-3.99131441,-1.12371755
-0.66250988,-2.49093163

>  <Name>
ligand

>  <RI>
0

>  <Rbt.Current_Directory>
/home/itssahil/PROJECTS/Mol_Feturizer/New_Systems/rnas/3D2V

>  <Rbt.Executable>
rbdock ($Id: //depot/dev/client3/rdock/2013.1/src/exe/rbdock.cxx#4 $)

>  <Rbt.Library>
libRbt.so (2013.1, Build901 2013/11/27)

>  <Rbt.Parameter_File>
/export/apps/rDock/src/rDock_2013.1_src/data/scripts/dock_solv.prm

>  <Rbt.Receptor>
prm/blind_docking_60.prm

>  <SCORE>
-13.4882

>  <SCORE.INTER>
-11.252

>  <SCORE.INTER.CONST>
1

>  <SCORE.INTER.POLAR>
0

>  <SCORE.INTER.ROT>
8

>  <SCORE.INTER.SOLV>
24.302

>  <SCORE.INTER.VDW>
-24.5353

>  <SCORE.INTER.norm>
-0.41674

>  <SCORE.INTRA>
-2.32251

>  <SCORE.INTRA.DIHEDRAL>
-1.81577

>  <SCORE.INTRA.DIHEDRAL.0>
7.82666

>  <SCORE.INTRA.POLAR>
0

>  <SCORE.INTRA.POLAR.0>
0

>  <SCORE.INTRA.REPUL>
0

>  <SCORE.INTRA.REPUL.0>
0

>  <SCORE.INTRA.SOLV>
-1.89655

>  <SCORE.INTRA.SOLV.lig_0>
-83.2758

>  <SCORE.INTRA.VDW>
-0.466345

>  <SCORE.INTRA.VDW.0>
-3.26816

>  <SCORE.INTRA.norm>
-0.0860188

>  <SCORE.RESTR>
0.0863133

>  <SCORE.RESTR.CAVITY>
0.0863133

>  <SCORE.RESTR.norm>
0.00319679

>  <SCORE.SYSTEM>
0

>  <SCORE.SYSTEM.CONST>
0

>  <SCORE.SYSTEM.DIHEDRAL>
0

>  <SCORE.SYSTEM.SOLV>
0

>  <SCORE.SYSTEM.norm>
0

>  <SCORE.heavy>
27

>  <SCORE.norm>
-0.499562

>  <RMSD>
7.796

$$$$
ligand
 OpenBabel11021811463D
libRbt.so/2013.1/901 2013/11/27
 27 28  0  0  0  0  0  0  0  0999 V2000
   -5.1245   39.6641  -13.0845 C   0  0  0  0  0  0  0  0  0  0  0  0
   -6.2998   37.0717   -5.2452 C   0  0  0  0  0  0  0  0  0  0  0  0
   -8.1328   38.8473   -3.6758 C   0  0  0  0  0  0  0  0  0  0  0  0
   -7.4700   40.1551   -3.2388 C   0  0  0  0  0  0  0  0  0  0  0  0
   -6.1052   40.1970   -3.6627 O   0  0  0  0  0  0  0  0  0  0  0  0
   -5.1268   41.3446   -3.1097 P   0  0  1  0  0  0  0  0  0  0  0  0
   -5.4981   40.8748   -0.3532 P   0  0  2  0  0  0  0  0  0  0  0  0
   -9.2392   39.5037   -7.2530 C   0  0  0  0  0  0  0  0  0  0  0  0
   -5.3741   39.5849  -10.6109 N   0  0  0  0  0  0  0  0  0  0  0  0
   -3.8903   41.5763   -4.1018 O   0  5  0  0  0  0  0  0  0  0  0  0
   -6.2533   42.1182   -0.0957 O   0  0  0  0  0  0  0  0  0  0  0  0
   -8.4000   38.6873   -7.9997 C   0  0  0  0  0  0  0  0  0  0  0  0
   -5.5076   38.9520  -11.7867 C   0  0  0  0  0  0  0  0  0  0  0  0
   -5.8627   42.7741   -2.9412 O   0  0  0  0  0  0  0  0  0  0  0  0
   -4.5521   40.4924    0.8855 O   0  5  0  0  0  0  0  0  0  0  0  0
   -7.4509   37.8971   -7.3498 N   0  0  0  0  0  0  0  0  0  0  0  0
   -5.9754   37.6964  -11.8358 N   0  0  0  0  0  0  0  0  0  0  0  0
   -4.5543   40.9334   -1.6435 O   0  0  0  0  0  0  0  0  0  0  0  0
   -6.4852   39.6345   -0.5300 O   0  0  0  0  0  0  0  0  0  0  0  0
   -7.3480   37.9403   -5.9542 C   0  0  1  0  0  0  0  0  0  0  0  0
   -6.3158   37.0565  -10.7102 C   0  0  0  0  0  0  0  0  0  0  0  0
   -6.7765   35.8113  -10.7713 N   0  0  0  0  0  0  0  0  0  0  0  0
   -8.1912   38.7598   -5.2055 C   0  0  1  0  0  0  0  0  0  0  0  0
   -6.1847   37.6890   -9.4799 C   0  0  0  0  0  0  0  0  0  0  0  0
   -9.1326   39.5380   -5.8680 C   0  0  0  0  0  0  0  0  0  0  0  0
   -5.6979   38.9911   -9.4743 C   0  0  0  0  0  0  0  0  0  0  0  0
   -6.5529   37.0274   -8.1456 C   0  0  0  0  0  0  0  0  0  0  0  0
  1 13  1  0  0  0  0
  3  4  1  0  0  0  0
  4  5  1  0  0  0  0
  6  5  1  6  0  0  0
  6 10  1  0  0  0  0
  6 14  2  0  0  0  0
  6 18  1  0  0  0  0
  7 11  1  1  0  0  0
  7 15  1  0  0  0  0
  7 19  2  0  0  0  0
  7 18  1  0  0  0  0
  8 25  1  0  0  0  0
  8 12  1  0  0  0  0
  9 26  2  0  0  0  0
  9 13  1  0  0  0  0
 12 16  1  0  0  0  0
 13 17  2  0  0  0  0
 16 20  1  0  0  0  0
 16 27  1  0  0  0  0
 17 21  1  0  0  0  0
 20  2  1  1  0  0  0
 20 23  1  0  0  0  0
 21 22  1  0  0  0  0
 21 24  2  0  0  0  0
 23  3  1  1  0  0  0
 23 25  1  0  0  0  0
 24 27  1  0  0  0  0
 24 26  1  0  0  0  0
M  CHG  2  10  -1  15  -1
M  END
>  <CHROM.1>
-64.17091053,-169.36609793,-157.14693342,-68.68451090,-54.17554783,104.96260833
-128.75076880,35.10328430,-6.25526817,39.52867898,-5.46368627,-1.66688686
0.74016684,1.33613921

>  <Name>
ligand

>  <RI>
0

>  <Rbt.Current_Directory>
/home/itssahil/PROJECTS/Mol_Feturizer/New_Systems/rnas/3D2V

>  <Rbt.Executable>
rbdock ($Id: //depot/dev/client3/rdock/2013.1/src/exe/rbdock.cxx#4 $)

>  <Rbt.Library>
libRbt.so (2013.1, Build901 2013/11/27)

>  <Rbt.Parameter_File>
/export/apps/rDock/src/rDock_2013.1_src/data/scripts/dock_solv.prm

>  <Rbt.Receptor>
prm/blind_docking_60.prm

>  <SCORE>
-20.4316

>  <SCORE.INTER>
-19.2795

>  <SCORE.INTER.CONST>
1

>  <SCORE.INTER.POLAR>
0

>  <SCORE.INTER.ROT>
8

>  <SCORE.INTER.SOLV>
23.2435

>  <SCORE.INTER.VDW>
-29.5341

>  <SCORE.INTER.norm>
-0.714055

>  <SCORE.INTRA>
-1.15395

>  <SCORE.INTRA.DIHEDRAL>
-1.10041

>  <SCORE.INTRA.DIHEDRAL.0>
7.82666

>  <SCORE.INTRA.POLAR>
0

>  <SCORE.INTRA.POLAR.0>
0

>  <SCORE.INTRA.REPUL>
0

>  <SCORE.INTRA.REPUL.0>
0

>  <SCORE.INTRA.SOLV>
-0.659807

>  <SCORE.INTRA.SOLV.lig_0>
-83.2758

>  <SCORE.INTRA.VDW>
-0.273846

>  <SCORE.INTRA.VDW.0>
-3.26816

>  <SCORE.INTRA.norm>
-0.042739

>  <SCORE.RESTR>
0.00182347

>  <SCORE.RESTR.CAVITY>
0.00182347

>  <SCORE.RESTR.norm>
6.7536e-05

>  <SCORE.SYSTEM>
0

>  <SCORE.SYSTEM.CONST>
0

>  <SCORE.SYSTEM.DIHEDRAL>
0

>  <SCORE.SYSTEM.SOLV>
0

>  <SCORE.SYSTEM.norm>
0

>  <SCORE.heavy>
27

>  <SCORE.norm>
-0.756726

>  <RMSD>
7.837

$$$$
ligand
 OpenBabel11021811463D
libRbt.so/2013.1/901 2013/11/27
 27 28  0  0  0  0  0  0  0  0999 V2000
   -5.4728   35.4766  -11.9598 C   0  0  0  0  0  0  0  0  0  0  0  0
   -8.1662   40.4343   -5.4819 C   0  0  0  0  0  0  0  0  0  0  0  0
   -6.0557   40.9722   -3.4249 C   0  0  0  0  0  0  0  0  0  0  0  0
   -4.7904   41.0746   -2.5709 C   0  0  0  0  0  0  0  0  0  0  0  0
   -4.8393   42.2302   -1.7305 O   0  0  0  0  0  0  0  0  0  0  0  0
   -5.6773   42.1928   -0.3607 P   0  0  1  0  0  0  0  0  0  0  0  0
   -7.0847   39.7484   -0.3339 P   0  0  2  0  0  0  0  0  0  0  0  0
   -4.4972   38.1706   -5.4677 C   0  0  0  0  0  0  0  0  0  0  0  0
   -6.8832   35.6460   -9.9179 N   0  0  0  0  0  0  0  0  0  0  0  0
   -4.8203   41.5348    0.8224 O   0  5  0  0  0  0  0  0  0  0  0  0
   -7.8150   39.3294    0.8801 O   0  0  0  0  0  0  0  0  0  0  0  0
   -5.4619   37.9054   -6.4306 C   0  0  0  0  0  0  0  0  0  0  0  0
   -6.0476   36.2531  -10.7747 C   0  0  0  0  0  0  0  0  0  0  0  0
   -6.1217   43.6617    0.1477 O   0  0  0  0  0  0  0  0  0  0  0  0
   -5.5588   39.2519   -0.3047 O   0  5  0  0  0  0  0  0  0  0  0  0
   -6.6482   38.6405   -6.4378 N   0  0  0  0  0  0  0  0  0  0  0  0
   -5.7099   37.5392  -10.6017 N   0  0  0  0  0  0  0  0  0  0  0  0
   -7.0423   41.3311   -0.5628 O   0  0  0  0  0  0  0  0  0  0  0  0
   -7.7198   39.0862   -1.6384 O   0  0  0  0  0  0  0  0  0  0  0  0
   -6.8581   39.6314   -5.4713 C   0  0  1  0  0  0  0  0  0  0  0  0
   -6.2031   38.2356   -9.5702 C   0  0  0  0  0  0  0  0  0  0  0  0
   -5.8626   39.5103   -9.4102 N   0  0  0  0  0  0  0  0  0  0  0  0
   -5.8888   39.8973   -4.5054 C   0  0  2  0  0  0  0  0  0  0  0  0
   -7.0720   37.6305   -8.6703 C   0  0  0  0  0  0  0  0  0  0  0  0
   -4.7122   39.1582   -4.5141 C   0  0  0  0  0  0  0  0  0  0  0  0
   -7.3943   36.2954   -8.8853 C   0  0  0  0  0  0  0  0  0  0  0  0
   -7.6797   38.3568   -7.4632 C   0  0  0  0  0  0  0  0  0  0  0  0
  1 13  1  0  0  0  0
  3  4  1  0  0  0  0
  4  5  1  0  0  0  0
  6  5  1  6  0  0  0
  6 10  1  0  0  0  0
  6 14  2  0  0  0  0
  6 18  1  0  0  0  0
  7 11  1  1  0  0  0
  7 15  1  0  0  0  0
  7 19  2  0  0  0  0
  7 18  1  0  0  0  0
  8 25  1  0  0  0  0
  8 12  1  0  0  0  0
  9 26  2  0  0  0  0
  9 13  1  0  0  0  0
 12 16  1  0  0  0  0
 13 17  2  0  0  0  0
 16 20  1  0  0  0  0
 16 27  1  0  0  0  0
 17 21  1  0  0  0  0
 20  2  1  6  0  0  0
 20 23  1  0  0  0  0
 21 22  1  0  0  0  0
 21 24  2  0  0  0  0
 23  3  1  1  0  0  0
 23 25  1  0  0  0  0
 24 27  1  0  0  0  0
 24 26  1  0  0  0  0
M  CHG  2  10  -1  15  -1
M  END
>  <CHROM.1>
169.25816426,80.47054630,83.14456554,88.35279679,108.49792931,-176.73027348
-69.82495247,-20.54103741,-6.25201329,39.47274605,-4.36905478,1.59393181
-0.98557639,-1.96326903

>  <Name>
ligand

>  <RI>
0

>  <Rbt.Current_Directory>
/home/itssahil/PROJECTS/Mol_Feturizer/New_Systems/rnas/3D2V

>  <Rbt.Executable>
rbdock ($Id: //depot/dev/client3/rdock/2013.1/src/exe/rbdock.cxx#4 $)

>  <Rbt.Library>
libRbt.so (2013.1, Build901 2013/11/27)

>  <Rbt.Parameter_File>
/export/apps/rDock/src/rDock_2013.1_src/data/scripts/dock_solv.prm

>  <Rbt.Receptor>
prm/blind_docking_60.prm

>  <SCORE>
-8.66448

>  <SCORE.INTER>
-14.6528

>  <SCORE.INTER.CONST>
1

>  <SCORE.INTER.POLAR>
0

>  <SCORE.INTER.ROT>
8

>  <SCORE.INTER.SOLV>
30.0388

>  <SCORE.INTER.VDW>
-28.7148

>  <SCORE.INTER.norm>
-0.542698

>  <SCORE.INTRA>
5.98835

>  <SCORE.INTRA.DIHEDRAL>
3.67699

>  <SCORE.INTRA.DIHEDRAL.0>
7.82666

>  <SCORE.INTRA.POLAR>
0

>  <SCORE.INTRA.POLAR.0>
0

>  <SCORE.INTRA.REPUL>
0

>  <SCORE.INTRA.REPUL.0>
0

>  <SCORE.INTRA.SOLV>
4.94043

>  <SCORE.INTRA.SOLV.lig_0>
-83.2758

>  <SCORE.INTRA.VDW>
1.67964

>  <SCORE.INTRA.VDW.0>
-3.26816

>  <SCORE.INTRA.norm>
0.221791

>  <SCORE.RESTR>
0

>  <SCORE.RESTR.CAVITY>
0

>  <SCORE.RESTR.norm>
0

>  <SCORE.SYSTEM>
0

>  <SCORE.SYSTEM.CONST>
0

>  <SCORE.SYSTEM.DIHEDRAL>
0

>  <SCORE.SYSTEM.SOLV>
0

>  <SCORE.SYSTEM.norm>
0

>  <SCORE.heavy>
27

>  <SCORE.norm>
-0.320907

>  <RMSD>
7.842

$$$$
ligand
 OpenBabel11021811473D
libRbt.so/2013.1/901 2013/11/27
 27 28  0  0  0  0  0  0  0  0999 V2000
   -7.6976   45.5418   -8.9967 C   0  0  0  0  0  0  0  0  0  0  0  0
   -3.8763   40.8799   -7.3725 C   0  0  0  0  0  0  0  0  0  0  0  0
   -4.6527   38.8123   -5.3483 C   0  0  0  0  0  0  0  0  0  0  0  0
   -5.8385   38.9632   -4.3934 C   0  0  0  0  0  0  0  0  0  0  0  0
   -6.1871   40.3405   -4.2333 O   0  0  0  0  0  0  0  0  0  0  0  0
   -5.2022   41.3319   -3.4414 P   0  0  1  0  0  0  0  0  0  0  0  0
   -5.9009   40.4893   -0.8418 P   0  0  2  0  0  0  0  0  0  0  0  0
   -6.4367   37.5914   -8.4753 C   0  0  0  0  0  0  0  0  0  0  0  0
   -7.2253   43.1310   -8.6067 N   0  0  0  0  0  0  0  0  0  0  0  0
   -3.8569   41.5935   -4.2715 O   0  5  0  0  0  0  0  0  0  0  0  0
   -6.5880   41.7289   -0.4248 O   0  0  0  0  0  0  0  0  0  0  0  0
   -6.0886   38.5383   -9.4295 C   0  0  0  0  0  0  0  0  0  0  0  0
   -6.9447   44.2458   -9.2991 C   0  0  0  0  0  0  0  0  0  0  0  0
   -5.8612   42.7800   -3.1545 O   0  0  0  0  0  0  0  0  0  0  0  0
   -5.1351   39.7977    0.3874 O   0  5  0  0  0  0  0  0  0  0  0  0
   -5.2567   39.6009   -9.0738 N   0  0  0  0  0  0  0  0  0  0  0  0
   -6.0070   44.2352  -10.2575 N   0  0  0  0  0  0  0  0  0  0  0  0
   -4.8123   40.6966   -1.9954 O   0  0  0  0  0  0  0  0  0  0  0  0
   -6.9488   39.4010   -1.3532 O   0  0  0  0  0  0  0  0  0  0  0  0
   -4.7880   39.7071   -7.7589 C   0  0  1  0  0  0  0  0  0  0  0  0
   -5.3370   43.1101  -10.5363 C   0  0  0  0  0  0  0  0  0  0  0  0
   -4.4084   43.1123  -11.4872 N   0  0  0  0  0  0  0  0  0  0  0  0
   -5.1376   38.7558   -6.8019 C   0  0  1  0  0  0  0  0  0  0  0  0
   -5.6073   41.9431   -9.8321 C   0  0  0  0  0  0  0  0  0  0  0  0
   -5.9642   37.7024   -7.1733 C   0  0  0  0  0  0  0  0  0  0  0  0
   -6.5882   41.9975   -8.8485 C   0  0  0  0  0  0  0  0  0  0  0  0
   -4.8866   40.6136  -10.0904 C   0  0  0  0  0  0  0  0  0  0  0  0
  1 13  1  0  0  0  0
  3  4  1  0  0  0  0
  4  5  1  0  0  0  0
  6  5  1  6  0  0  0
  6 10  1  0  0  0  0
  6 14  2  0  0  0  0
  6 18  1  0  0  0  0
  7 11  1  1  0  0  0
  7 15  1  0  0  0  0
  7 19  2  0  0  0  0
  7 18  1  0  0  0  0
  8 25  1  0  0  0  0
  8 12  1  0  0  0  0
  9 26  2  0  0  0  0
  9 13  1  0  0  0  0
 12 16  1  0  0  0  0
 13 17  2  0  0  0  0
 16 20  1  0  0  0  0
 16 27  1  0  0  0  0
 17 21  1  0  0  0  0
 20  2  1  6  0  0  0
 20 23  1  0  0  0  0
 21 22  1  0  0  0  0
 21 24  2  0  0  0  0
 23  3  1  6  0  0  0
 23 25  1  0  0  0  0
 24 27  1  0  0  0  0
 24 26  1  0  0  0  0
M  CHG  2  10  -1  15  -1
M  END
>  <CHROM.1>
-86.11611905,-69.49108929,69.28744518,-66.04697541,-58.38279406,117.66224574
172.55159325,107.58312719,-5.65509162,41.01430322,-5.82272415,1.63158984
1.38605310,-1.42503622

>  <Name>
ligand

>  <RI>
0

>  <Rbt.Current_Directory>
/home/itssahil/PROJECTS/Mol_Feturizer/New_Systems/rnas/3D2V

>  <Rbt.Executable>
rbdock ($Id: //depot/dev/client3/rdock/2013.1/src/exe/rbdock.cxx#4 $)

>  <Rbt.Library>
libRbt.so (2013.1, Build901 2013/11/27)

>  <Rbt.Parameter_File>
/export/apps/rDock/src/rDock_2013.1_src/data/scripts/dock_solv.prm

>  <Rbt.Receptor>
prm/pocket_docking_8.prm

>  <SCORE>
-17.0396

>  <SCORE.INTER>
-17.2398

>  <SCORE.INTER.CONST>
1

>  <SCORE.INTER.POLAR>
0

>  <SCORE.INTER.ROT>
8

>  <SCORE.INTER.SOLV>
16.1524

>  <SCORE.INTER.VDW>
-25.8106

>  <SCORE.INTER.norm>
-0.63851

>  <SCORE.INTRA>
0.200199

>  <SCORE.INTRA.DIHEDRAL>
0.169187

>  <SCORE.INTRA.DIHEDRAL.0>
7.82666

>  <SCORE.INTRA.POLAR>
0

>  <SCORE.INTRA.POLAR.0>
0

>  <SCORE.INTRA.REPUL>
0

>  <SCORE.INTRA.REPUL.0>
0

>  <SCORE.INTRA.SOLV>
0.721629

>  <SCORE.INTRA.SOLV.lig_0>
-83.2758

>  <SCORE.INTRA.VDW>
-0.245209

>  <SCORE.INTRA.VDW.0>
-3.26816

>  <SCORE.INTRA.norm>
0.00741479

>  <SCORE.RESTR>
0

>  <SCORE.RESTR.CAVITY>
0

>  <SCORE.RESTR.norm>
0

>  <SCORE.SYSTEM>
0

>  <SCORE.SYSTEM.CONST>
0

>  <SCORE.SYSTEM.DIHEDRAL>
0

>  <SCORE.SYSTEM.SOLV>
0

>  <SCORE.SYSTEM.norm>
0

>  <SCORE.heavy>
27

>  <SCORE.norm>
-0.631095

>  <RMSD>
7.847

$$$$
ligand
 OpenBabel11021811473D
libRbt.so/2013.1/901 2013/11/27
 27 28  0  0  0  0  0  0  0  0999 V2000
   -6.8619   46.1054   -9.7987 C   0  0  0  0  0  0  0  0  0  0  0  0
   -5.2954   39.7329   -5.9857 C   0  0  0  0  0  0  0  0  0  0  0  0
   -7.3235   38.9240   -3.9343 C   0  0  0  0  0  0  0  0  0  0  0  0
   -8.2536   39.5763   -2.9096 C   0  0  0  0  0  0  0  0  0  0  0  0
   -7.6908   39.5041   -1.5973 O   0  0  0  0  0  0  0  0  0  0  0  0
   -6.4640   40.4597   -1.1953 P   0  0  1  0  0  0  0  0  0  0  0  0
   -5.9565   43.2108   -0.8345 P   0  0  2  0  0  0  0  0  0  0  0  0
   -9.4947   39.6857   -6.9602 C   0  0  0  0  0  0  0  0  0  0  0  0
   -7.2248   44.0794   -8.4020 N   0  0  0  0  0  0  0  0  0  0  0  0
   -5.8059   40.0014    0.1918 O   0  5  0  0  0  0  0  0  0  0  0  0
   -4.9394   43.3476   -1.8972 O   0  0  0  0  0  0  0  0  0  0  0  0
   -8.5716   40.0633   -7.9263 C   0  0  0  0  0  0  0  0  0  0  0  0
   -6.6846   44.6149   -9.5076 C   0  0  0  0  0  0  0  0  0  0  0  0
   -5.2788   40.4615   -2.2948 O   0  0  0  0  0  0  0  0  0  0  0  0
   -5.2801   42.9853    0.6033 O   0  5  0  0  0  0  0  0  0  0  0  0
   -7.2118   40.0751   -7.6124 N   0  0  0  0  0  0  0  0  0  0  0  0
   -5.9878   43.8534  -10.3636 N   0  0  0  0  0  0  0  0  0  0  0  0
   -6.9758   41.9972   -1.0514 O   0  0  0  0  0  0  0  0  0  0  0  0
   -6.8159   44.5469   -0.6924 O   0  0  0  0  0  0  0  0  0  0  0  0
   -6.7920   39.7146   -6.3263 C   0  0  1  0  0  0  0  0  0  0  0  0
   -5.8215   42.5464  -10.1256 C   0  0  0  0  0  0  0  0  0  0  0  0
   -5.1273   41.8021  -10.9803 N   0  0  0  0  0  0  0  0  0  0  0  0
   -7.7194   39.3352   -5.3573 C   0  0  1  0  0  0  0  0  0  0  0  0
   -6.3690   41.9684   -8.9868 C   0  0  0  0  0  0  0  0  0  0  0  0
   -9.0692   39.3261   -5.6873 C   0  0  0  0  0  0  0  0  0  0  0  0
   -7.0855   42.7932   -8.1272 C   0  0  0  0  0  0  0  0  0  0  0  0
   -6.2257   40.4803   -8.6416 C   0  0  0  0  0  0  0  0  0  0  0  0
  1 13  1  0  0  0  0
  3  4  1  0  0  0  0
  4  5  1  0  0  0  0
  6  5  1  6  0  0  0
  6 10  1  0  0  0  0
  6 14  2  0  0  0  0
  6 18  1  0  0  0  0
  7 11  1  6  0  0  0
  7 15  1  0  0  0  0
  7 19  2  0  0  0  0
  7 18  1  0  0  0  0
  8 25  1  0  0  0  0
  8 12  1  0  0  0  0
  9 26  2  0  0  0  0
  9 13  1  0  0  0  0
 12 16  1  0  0  0  0
 13 17  2  0  0  0  0
 16 20  1  0  0  0  0
 16 27  1  0  0  0  0
 17 21  1  0  0  0  0
 20  2  1  6  0  0  0
 20 23  1  0  0  0  0
 21 22  1  0  0  0  0
 21 24  2  0  0  0  0
 23  3  1  6  0  0  0
 23 25  1  0  0  0  0
 24 27  1  0  0  0  0
 24 26  1  0  0  0  0
M  CHG  2  10  -1  15  -1
M  END
>  <CHROM.1>
-164.24817631,74.22503030,-168.16166560,-172.43942929,57.99135209,135.83039023
-163.63011424,67.45201144,-6.64962688,41.58636897,-4.82003562,-1.71410524
1.26964003,1.82146279

>  <Name>
ligand

>  <RI>
0

>  <Rbt.Current_Directory>
/home/itssahil/PROJECTS/Mol_Feturizer/New_Systems/rnas/3D2V

>  <Rbt.Executable>
rbdock ($Id: //depot/dev/client3/rdock/2013.1/src/exe/rbdock.cxx#4 $)

>  <Rbt.Library>
libRbt.so (2013.1, Build901 2013/11/27)

>  <Rbt.Parameter_File>
/export/apps/rDock/src/rDock_2013.1_src/data/scripts/dock_solv.prm

>  <Rbt.Receptor>
prm/pocket_docking_7.prm

>  <SCORE>
-11.8591

>  <SCORE.INTER>
-12.5201

>  <SCORE.INTER.CONST>
1

>  <SCORE.INTER.POLAR>
0

>  <SCORE.INTER.ROT>
8

>  <SCORE.INTER.SOLV>
17.4146

>  <SCORE.INTER.VDW>
-23.0849

>  <SCORE.INTER.norm>
-0.463707

>  <SCORE.INTRA>
0.661014

>  <SCORE.INTRA.DIHEDRAL>
-0.481447

>  <SCORE.INTRA.DIHEDRAL.0>
7.82666

>  <SCORE.INTRA.POLAR>
0

>  <SCORE.INTRA.POLAR.0>
0

>  <SCORE.INTRA.REPUL>
0

>  <SCORE.INTRA.REPUL.0>
0

>  <SCORE.INTRA.SOLV>
0.52657

>  <SCORE.INTRA.SOLV.lig_0>
-83.2758

>  <SCORE.INTRA.VDW>
0.638453

>  <SCORE.INTRA.VDW.0>
-3.26816

>  <SCORE.INTRA.norm>
0.024482

>  <SCORE.RESTR>
0

>  <SCORE.RESTR.CAVITY>
0

>  <SCORE.RESTR.norm>
0

>  <SCORE.SYSTEM>
0

>  <SCORE.SYSTEM.CONST>
0

>  <SCORE.SYSTEM.DIHEDRAL>
0

>  <SCORE.SYSTEM.SOLV>
0

>  <SCORE.SYSTEM.norm>
0

>  <SCORE.heavy>
27

>  <SCORE.norm>
-0.439225

>  <RMSD>
7.873

$$$$
ligand
 OpenBabel11021811473D
libRbt.so/2013.1/901 2013/11/27
 27 28  0  0  0  0  0  0  0  0999 V2000
   -5.8897   38.1633   -8.5152 C   0  0  0  0  0  0  0  0  0  0  0  0
   -6.6269   43.5958  -11.4597 C   0  0  0  0  0  0  0  0  0  0  0  0
   -6.7793   46.2089  -10.0024 C   0  0  0  0  0  0  0  0  0  0  0  0
   -7.2738   45.8462   -8.6007 C   0  0  0  0  0  0  0  0  0  0  0  0
   -6.3523   46.2996   -7.6060 O   0  0  0  0  0  0  0  0  0  0  0  0
   -6.3501   45.6281   -6.1469 P   0  0  1  0  0  0  0  0  0  0  0  0
   -5.4698   47.9909   -4.8824 P   0  0  2  0  0  0  0  0  0  0  0  0
   -3.0354   45.5576  -10.1036 C   0  0  0  0  0  0  0  0  0  0  0  0
   -4.8764   40.4006   -8.9093 N   0  0  0  0  0  0  0  0  0  0  0  0
   -7.8142   45.6562   -5.4965 O   0  5  0  0  0  0  0  0  0  0  0  0
   -5.7832   48.7985   -6.0791 O   0  0  0  0  0  0  0  0  0  0  0  0
   -2.9419   44.3472  -10.7777 C   0  0  0  0  0  0  0  0  0  0  0  0
   -5.3954   39.2802   -9.4351 C   0  0  0  0  0  0  0  0  0  0  0  0
   -5.8780   44.0820   -6.1643 O   0  0  0  0  0  0  0  0  0  0  0  0
   -4.0954   48.4590   -4.1987 O   0  5  0  0  0  0  0  0  0  0  0  0
   -4.1041   43.7137  -11.2202 N   0  0  0  0  0  0  0  0  0  0  0  0
   -5.4853   39.1291  -10.7644 N   0  0  0  0  0  0  0  0  0  0  0  0
   -5.3242   46.4233   -5.1662 O   0  0  0  0  0  0  0  0  0  0  0  0
   -6.5863   48.1790   -3.7591 O   0  0  0  0  0  0  0  0  0  0  0  0
   -5.3519   44.2989  -10.9739 C   0  0  1  0  0  0  0  0  0  0  0  0
   -5.0580   40.0961  -11.5858 C   0  0  0  0  0  0  0  0  0  0  0  0
   -5.1541   39.9357  -12.9017 N   0  0  0  0  0  0  0  0  0  0  0  0
   -5.4446   45.5142  -10.2975 C   0  0  2  0  0  0  0  0  0  0  0  0
   -4.5189   41.2666  -11.0663 C   0  0  0  0  0  0  0  0  0  0  0  0
   -4.2777   46.1331   -9.8663 C   0  0  0  0  0  0  0  0  0  0  0  0
   -4.4422   41.3814   -9.6830 C   0  0  0  0  0  0  0  0  0  0  0  0
   -4.0059   42.4207  -11.9374 C   0  0  0  0  0  0  0  0  0  0  0  0
  1 13  1  0  0  0  0
  3  4  1  0  0  0  0
  4  5  1  0  0  0  0
  6  5  1  6  0  0  0
  6 10  1  0  0  0  0
  6 14  2  0  0  0  0
  6 18  1  0  0  0  0
  7 11  1  6  0  0  0
  7 15  1  0  0  0  0
  7 19  2  0  0  0  0
  7 18  1  0  0  0  0
  8 25  1  0  0  0  0
  8 12  1  0  0  0  0
  9 26  2  0  0  0  0
  9 13  1  0  0  0  0
 12 16  1  0  0  0  0
 13 17  2  0  0  0  0
 16 20  1  0  0  0  0
 16 27  1  0  0  0  0
 17 21  1  0  0  0  0
 20  2  1  6  0  0  0
 20 23  1  0  0  0  0
 21 22  1  0  0  0  0
 21 24  2  0  0  0  0
 23  3  1  1  0  0  0
 23 25  1  0  0  0  0
 24 27  1  0  0  0  0
 24 26  1  0  0  0  0
M  CHG  2  10  -1  15  -1
M  END
>  <CHROM.1>
62.28823549,-158.57886839,-53.43513666,57.31313323,-42.30816400,94.97245437
152.75009320,108.85563239,-5.45504758,44.38060019,-8.35100383,1.23682169
-1.27821369,-2.76902859

>  <Name>
ligand

>  <RI>
0

>  <Rbt.Current_Directory>
/home/itssahil/PROJECTS/Mol_Feturizer/New_Systems/rnas/3D2V

>  <Rbt.Executable>
rbdock ($Id: //depot/dev/client3/rdock/2013.1/src/exe/rbdock.cxx#4 $)

>  <Rbt.Library>
libRbt.so (2013.1, Build901 2013/11/27)

>  <Rbt.Parameter_File>
/export/apps/rDock/src/rDock_2013.1_src/data/scripts/dock_solv.prm

>  <Rbt.Receptor>
prm/pocket_docking_8.prm

>  <SCORE>
-16.6926

>  <SCORE.INTER>
-15.1274

>  <SCORE.INTER.CONST>
1

>  <SCORE.INTER.POLAR>
0

>  <SCORE.INTER.ROT>
8

>  <SCORE.INTER.SOLV>
14.4435

>  <SCORE.INTER.VDW>
-23.8327

>  <SCORE.INTER.norm>
-0.560273

>  <SCORE.INTRA>
-1.56526

>  <SCORE.INTRA.DIHEDRAL>
-0.057709

>  <SCORE.INTRA.DIHEDRAL.0>
7.82666

>  <SCORE.INTRA.POLAR>
0

>  <SCORE.INTRA.POLAR.0>
0

>  <SCORE.INTRA.REPUL>
0

>  <SCORE.INTRA.REPUL.0>
0

>  <SCORE.INTRA.SOLV>
-1.77742

>  <SCORE.INTRA.SOLV.lig_0>
-83.2758

>  <SCORE.INTRA.VDW>
-0.647693

>  <SCORE.INTRA.VDW.0>
-3.26816

>  <SCORE.INTRA.norm>
-0.0579725

>  <SCORE.RESTR>
0

>  <SCORE.RESTR.CAVITY>
0

>  <SCORE.RESTR.norm>
0

>  <SCORE.SYSTEM>
0

>  <SCORE.SYSTEM.CONST>
0

>  <SCORE.SYSTEM.DIHEDRAL>
0

>  <SCORE.SYSTEM.SOLV>
0

>  <SCORE.SYSTEM.norm>
0

>  <SCORE.heavy>
27

>  <SCORE.norm>
-0.618246

>  <RMSD>
7.881

$$$$
ligand
 OpenBabel11021811473D
libRbt.so/2013.1/901 2013/11/27
 27 28  0  0  0  0  0  0  0  0999 V2000
   -7.1995   43.5203  -11.0376 C   0  0  0  0  0  0  0  0  0  0  0  0
   -4.5709   45.2462   -3.9759 C   0  0  0  0  0  0  0  0  0  0  0  0
   -5.9258   43.9142   -1.6596 C   0  0  0  0  0  0  0  0  0  0  0  0
   -5.5981   42.4484   -1.9506 C   0  0  0  0  0  0  0  0  0  0  0  0
   -6.7508   41.7604   -2.4428 O   0  0  0  0  0  0  0  0  0  0  0  0
   -6.6477   40.2106   -2.8521 P   0  0  1  0  0  0  0  0  0  0  0  0
   -5.4300   38.7349   -4.9247 P   0  0  2  0  0  0  0  0  0  0  0  0
   -8.8713   44.9940   -3.8064 C   0  0  0  0  0  0  0  0  0  0  0  0
   -7.4090   45.4987   -9.5445 N   0  0  0  0  0  0  0  0  0  0  0  0
   -6.3460   39.2946   -1.5726 O   0  5  0  0  0  0  0  0  0  0  0  0
   -4.2510   38.6840   -5.8136 O   0  0  0  0  0  0  0  0  0  0  0  0
   -8.2638   45.6152   -4.8896 C   0  0  0  0  0  0  0  0  0  0  0  0
   -6.9322   44.2573   -9.7249 C   0  0  0  0  0  0  0  0  0  0  0  0
   -8.0055   39.6429   -3.5213 O   0  0  0  0  0  0  0  0  0  0  0  0
   -6.7983   38.7777   -5.7623 O   0  5  0  0  0  0  0  0  0  0  0  0
   -6.8716   45.6937   -4.9467 N   0  0  0  0  0  0  0  0  0  0  0  0
   -6.2207   43.6536   -8.7619 N   0  0  0  0  0  0  0  0  0  0  0  0
   -5.4597   39.9975   -3.9429 O   0  0  0  0  0  0  0  0  0  0  0  0
   -5.5246   37.4199   -4.0273 O   0  0  0  0  0  0  0  0  0  0  0  0
   -6.1016   45.1538   -3.9095 C   0  0  1  0  0  0  0  0  0  0  0  0
   -5.9760   44.2830   -7.6058 C   0  0  0  0  0  0  0  0  0  0  0  0
   -5.2680   43.6752   -6.6594 N   0  0  0  0  0  0  0  0  0  0  0  0
   -6.7124   44.5299   -2.8228 C   0  0  2  0  0  0  0  0  0  0  0  0
   -6.4567   45.5696   -7.3954 C   0  0  0  0  0  0  0  0  0  0  0  0
   -8.0995   44.4577   -2.7830 C   0  0  0  0  0  0  0  0  0  0  0  0
   -7.1913   46.1577   -8.4187 C   0  0  0  0  0  0  0  0  0  0  0  0
   -6.2220   46.3586   -6.1007 C   0  0  0  0  0  0  0  0  0  0  0  0
  1 13  1  0  0  0  0
  3  4  1  0  0  0  0
  4  5  1  0  0  0  0
  6  5  1  1  0  0  0
  6 10  1  0  0  0  0
  6 14  2  0  0  0  0
  6 18  1  0  0  0  0
  7 11  1  6  0  0  0
  7 15  1  0  0  0  0
  7 19  2  0  0  0  0
  7 18  1  0  0  0  0
  8 25  1  0  0  0  0
  8 12  1  0  0  0  0
  9 26  2  0  0  0  0
  9 13  1  0  0  0  0
 12 16  1  0  0  0  0
 13 17  2  0  0  0  0
 16 20  1  0  0  0  0
 16 27  1  0  0  0  0
 17 21  1  0  0  0  0
 20  2  1  6  0  0  0
 20 23  1  0  0  0  0
 21 22  1  0  0  0  0
 21 24  2  0  0  0  0
 23  3  1  1  0  0  0
 23 25  1  0  0  0  0
 24 27  1  0  0  0  0
 24 26  1  0  0  0  0
M  CHG  2  10  -1  15  -1
M  END
>  <CHROM.1>
-46.28008987,178.63671610,65.74467013,-157.65819984,-177.93665921,-89.65322148
-63.79025755,-66.40119594,-6.40397907,42.45464563,-5.05079757,-2.33818652
-1.41362642,1.75953501

>  <Name>
ligand

>  <RI>
0

>  <Rbt.Current_Directory>
/home/itssahil/PROJECTS/Mol_Feturizer/New_Systems/rnas/3D2V

>  <Rbt.Executable>
rbdock ($Id: //depot/dev/client3/rdock/2013.1/src/exe/rbdock.cxx#4 $)

>  <Rbt.Library>
libRbt.so (2013.1, Build901 2013/11/27)

>  <Rbt.Parameter_File>
/export/apps/rDock/src/rDock_2013.1_src/data/scripts/dock_solv.prm

>  <Rbt.Receptor>
prm/pocket_docking_5.prm

>  <SCORE>
-9.17618

>  <SCORE.INTER>
-10.0774

>  <SCORE.INTER.CONST>
1

>  <SCORE.INTER.POLAR>
0

>  <SCORE.INTER.ROT>
8

>  <SCORE.INTER.SOLV>
12.474

>  <SCORE.INTER.VDW>
-19.8096

>  <SCORE.INTER.norm>
-0.373237

>  <SCORE.INTRA>
0.901231

>  <SCORE.INTRA.DIHEDRAL>
-1.14716

>  <SCORE.INTRA.DIHEDRAL.0>
7.82666

>  <SCORE.INTRA.POLAR>
0

>  <SCORE.INTRA.POLAR.0>
0

>  <SCORE.INTRA.REPUL>
0

>  <SCORE.INTRA.REPUL.0>
0

>  <SCORE.INTRA.SOLV>
4.17534

>  <SCORE.INTRA.SOLV.lig_0>
-83.2758

>  <SCORE.INTRA.VDW>
-0.612864

>  <SCORE.INTRA.VDW.0>
-3.26816

>  <SCORE.INTRA.norm>
0.0333789

>  <SCORE.RESTR>
0

>  <SCORE.RESTR.CAVITY>
0

>  <SCORE.RESTR.norm>
0

>  <SCORE.SYSTEM>
0

>  <SCORE.SYSTEM.CONST>
0

>  <SCORE.SYSTEM.DIHEDRAL>
0

>  <SCORE.SYSTEM.SOLV>
0

>  <SCORE.SYSTEM.norm>
0

>  <SCORE.heavy>
27

>  <SCORE.norm>
-0.339858

>  <RMSD>
7.903

$$$$
ligand
 OpenBabel11021811473D
libRbt.so/2013.1/901 2013/11/27
 27 28  0  0  0  0  0  0  0  0999 V2000
   -2.1779   42.7447   -7.1814 C   0  0  0  0  0  0  0  0  0  0  0  0
   -7.5994   40.6315   -7.0957 C   0  0  0  0  0  0  0  0  0  0  0  0
   -8.8705   39.2194   -4.7794 C   0  0  0  0  0  0  0  0  0  0  0  0
   -8.2758   38.9091   -3.4044 C   0  0  0  0  0  0  0  0  0  0  0  0
   -8.4123   40.0313   -2.5291 O   0  0  0  0  0  0  0  0  0  0  0  0
   -7.8140   39.9664   -1.0398 P   0  0  1  0  0  0  0  0  0  0  0  0
   -6.4860   42.4272   -0.6692 P   0  0  2  0  0  0  0  0  0  0  0  0
   -7.3354   36.3436   -6.7349 C   0  0  0  0  0  0  0  0  0  0  0  0
   -3.6275   40.7375   -6.9425 N   0  0  0  0  0  0  0  0  0  0  0  0
   -8.7233   39.0488   -0.0921 O   0  5  0  0  0  0  0  0  0  0  0  0
   -5.2428   42.0167    0.0153 O   0  0  0  0  0  0  0  0  0  0  0  0
   -6.7384   36.9780   -7.8162 C   0  0  0  0  0  0  0  0  0  0  0  0
   -3.2402   41.7751   -7.7003 C   0  0  0  0  0  0  0  0  0  0  0  0
   -6.3192   39.3531   -0.9864 O   0  0  0  0  0  0  0  0  0  0  0  0
   -6.9465   43.8983   -0.2228 O   0  5  0  0  0  0  0  0  0  0  0  0
   -6.8204   38.3664   -7.9314 N   0  0  0  0  0  0  0  0  0  0  0  0
   -3.7773   41.9715   -8.9132 N   0  0  0  0  0  0  0  0  0  0  0  0
   -7.7332   41.4614   -0.4034 O   0  0  0  0  0  0  0  0  0  0  0  0
   -6.2665   42.5134   -2.2467 O   0  0  0  0  0  0  0  0  0  0  0  0
   -7.5094   39.1051   -6.9619 C   0  0  1  0  0  0  0  0  0  0  0  0
   -4.7084   41.1331   -9.3847 C   0  0  0  0  0  0  0  0  0  0  0  0
   -5.2322   41.3368  -10.5891 N   0  0  0  0  0  0  0  0  0  0  0  0
   -8.1079   38.4673   -5.8765 C   0  0  2  0  0  0  0  0  0  0  0  0
   -5.1248   40.0499   -8.6204 C   0  0  0  0  0  0  0  0  0  0  0  0
   -8.0144   37.0846   -5.7754 C   0  0  0  0  0  0  0  0  0  0  0  0
   -4.5439   39.8844   -7.3683 C   0  0  0  0  0  0  0  0  0  0  0  0
   -6.1861   39.0445   -9.0862 C   0  0  0  0  0  0  0  0  0  0  0  0
  1 13  1  0  0  0  0
  3  4  1  0  0  0  0
  4  5  1  0  0  0  0
  6  5  1  6  0  0  0
  6 10  1  0  0  0  0
  6 14  2  0  0  0  0
  6 18  1  0  0  0  0
  7 11  1  1  0  0  0
  7 15  1  0  0  0  0
  7 19  2  0  0  0  0
  7 18  1  0  0  0  0
  8 25  1  0  0  0  0
  8 12  1  0  0  0  0
  9 26  2  0  0  0  0
  9 13  1  0  0  0  0
 12 16  1  0  0  0  0
 13 17  2  0  0  0  0
 16 20  1  0  0  0  0
 16 27  1  0  0  0  0
 17 21  1  0  0  0  0
 20  2  1  1  0  0  0
 20 23  1  0  0  0  0
 21 22  1  0  0  0  0
 21 24  2  0  0  0  0
 23  3  1  6  0  0  0
 23 25  1  0  0  0  0
 24 27  1  0  0  0  0
 24 26  1  0  0  0  0
M  CHG  2  10  -1  15  -1
M  END
>  <CHROM.1>
148.45463352,-177.80967534,-74.67996729,-84.96496160,-71.17792727,-123.61516150
-156.77597220,-120.23869864,-6.45628887,40.34604064,-4.60814814,-1.19559063
0.83205470,1.14983430

>  <Name>
ligand

>  <RI>
0

>  <Rbt.Current_Directory>
/home/itssahil/PROJECTS/Mol_Feturizer/New_Systems/rnas/3D2V

>  <Rbt.Executable>
rbdock ($Id: //depot/dev/client3/rdock/2013.1/src/exe/rbdock.cxx#4 $)

>  <Rbt.Library>
libRbt.so (2013.1, Build901 2013/11/27)

>  <Rbt.Parameter_File>
/export/apps/rDock/src/rDock_2013.1_src/data/scripts/dock_solv.prm

>  <Rbt.Receptor>
prm/pocket_docking_7.prm

>  <SCORE>
-12.418

>  <SCORE.INTER>
-14.0564

>  <SCORE.INTER.CONST>
1

>  <SCORE.INTER.POLAR>
0

>  <SCORE.INTER.ROT>
8

>  <SCORE.INTER.SOLV>
23.2422

>  <SCORE.INTER.VDW>
-26.0517

>  <SCORE.INTER.norm>
-0.520606

>  <SCORE.INTRA>
1.63839

>  <SCORE.INTRA.DIHEDRAL>
1.77816

>  <SCORE.INTRA.DIHEDRAL.0>
7.82666

>  <SCORE.INTRA.POLAR>
0

>  <SCORE.INTRA.POLAR.0>
0

>  <SCORE.INTRA.REPUL>
0

>  <SCORE.INTRA.REPUL.0>
0

>  <SCORE.INTRA.SOLV>
-0.751218

>  <SCORE.INTRA.SOLV.lig_0>
-83.2758

>  <SCORE.INTRA.VDW>
1.12492

>  <SCORE.INTRA.VDW.0>
-3.26816

>  <SCORE.INTRA.norm>
0.0606809

>  <SCORE.RESTR>
0

>  <SCORE.RESTR.CAVITY>
0

>  <SCORE.RESTR.norm>
0

>  <SCORE.SYSTEM>
0

>  <SCORE.SYSTEM.CONST>
0

>  <SCORE.SYSTEM.DIHEDRAL>
0

>  <SCORE.SYSTEM.SOLV>
0

>  <SCORE.SYSTEM.norm>
0

>  <SCORE.heavy>
27

>  <SCORE.norm>
-0.459925

>  <RMSD>
7.910

$$$$
ligand
 OpenBabel11021811463D
libRbt.so/2013.1/901 2013/11/27
 27 28  0  0  0  0  0  0  0  0999 V2000
   -4.8081   42.3334   -3.4134 C   0  0  0  0  0  0  0  0  0  0  0  0
   -7.0326   35.6564   -8.3810 C   0  0  0  0  0  0  0  0  0  0  0  0
   -5.9760   33.0503   -7.3480 C   0  0  0  0  0  0  0  0  0  0  0  0
   -4.5828   32.4403   -7.5137 C   0  0  0  0  0  0  0  0  0  0  0  0
   -3.8597   33.1052   -8.5526 O   0  0  0  0  0  0  0  0  0  0  0  0
   -2.2798   32.8638   -8.7134 P   0  0  1  0  0  0  0  0  0  0  0  0
   -0.0737   34.1391   -9.9230 P   0  0  2  0  0  0  0  0  0  0  0  0
   -5.2246   35.4226   -4.4743 C   0  0  0  0  0  0  0  0  0  0  0  0
   -4.5157   40.4484   -5.0098 N   0  0  0  0  0  0  0  0  0  0  0  0
   -1.5275   33.0102   -7.3063 O   0  5  0  0  0  0  0  0  0  0  0  0
    0.7010   32.8812   -9.9142 O   0  0  0  0  0  0  0  0  0  0  0  0
   -5.7085   36.6405   -4.9333 C   0  0  0  0  0  0  0  0  0  0  0  0
   -5.3547   41.1941   -4.2743 C   0  0  0  0  0  0  0  0  0  0  0  0
   -1.9206   31.3940   -9.2826 O   0  0  0  0  0  0  0  0  0  0  0  0
    0.3862   35.1230   -8.7414 O   0  5  0  0  0  0  0  0  0  0  0  0
   -6.2972   36.7159   -6.1964 N   0  0  0  0  0  0  0  0  0  0  0  0
   -6.6730   40.9497   -4.2864 N   0  0  0  0  0  0  0  0  0  0  0  0
   -1.6526   33.9406   -9.7591 O   0  0  0  0  0  0  0  0  0  0  0  0
    0.1757   34.9529  -11.2719 O   0  0  0  0  0  0  0  0  0  0  0  0
   -6.3873   35.5669   -6.9912 C   0  0  1  0  0  0  0  0  0  0  0  0
   -7.1704   39.9568   -5.0341 C   0  0  0  0  0  0  0  0  0  0  0  0
   -8.4791   39.7252   -5.0395 N   0  0  0  0  0  0  0  0  0  0  0  0
   -5.9018   34.3446   -6.5293 C   0  0  2  0  0  0  0  0  0  0  0  0
   -6.3229   39.1717   -5.8064 C   0  0  0  0  0  0  0  0  0  0  0  0
   -5.3212   34.2863   -5.2682 C   0  0  0  0  0  0  0  0  0  0  0  0
   -4.9632   39.4577   -5.7631 C   0  0  0  0  0  0  0  0  0  0  0  0
   -6.8116   38.0155   -6.6886 C   0  0  0  0  0  0  0  0  0  0  0  0
  1 13  1  0  0  0  0
  3  4  1  0  0  0  0
  4  5  1  0  0  0  0
  6  5  1  1  0  0  0
  6 10  1  0  0  0  0
  6 14  2  0  0  0  0
  6 18  1  0  0  0  0
  7 11  1  1  0  0  0
  7 15  1  0  0  0  0
  7 19  2  0  0  0  0
  7 18  1  0  0  0  0
  8 25  1  0  0  0  0
  8 12  1  0  0  0  0
  9 26  2  0  0  0  0
  9 13  1  0  0  0  0
 12 16  1  0  0  0  0
 13 17  2  0  0  0  0
 16 20  1  0  0  0  0
 16 27  1  0  0  0  0
 17 21  1  0  0  0  0
 20  2  1  1  0  0  0
 20 23  1  0  0  0  0
 21 22  1  0  0  0  0
 21 24  2  0  0  0  0
 23  3  1  6  0  0  0
 23 25  1  0  0  0  0
 24 27  1  0  0  0  0
 24 26  1  0  0  0  0
M  CHG  2  10  -1  15  -1
M  END
>  <CHROM.1>
-79.94351037,167.10545993,-48.20229137,168.29186884,41.15559408,124.07716276
-114.63465841,12.55386974,-3.92531090,35.82747208,-7.24266466,-2.21256795
-0.39964771,-2.81804795

>  <Name>
ligand

>  <RI>
0

>  <Rbt.Current_Directory>
/home/itssahil/PROJECTS/Mol_Feturizer/New_Systems/rnas/3D2V

>  <Rbt.Executable>
rbdock ($Id: //depot/dev/client3/rdock/2013.1/src/exe/rbdock.cxx#4 $)

>  <Rbt.Library>
libRbt.so (2013.1, Build901 2013/11/27)

>  <Rbt.Parameter_File>
/export/apps/rDock/src/rDock_2013.1_src/data/scripts/dock_solv.prm

>  <Rbt.Receptor>
prm/blind_docking_60.prm

>  <SCORE>
-6.09489

>  <SCORE.INTER>
-7.03164

>  <SCORE.INTER.CONST>
1

>  <SCORE.INTER.POLAR>
0

>  <SCORE.INTER.ROT>
8

>  <SCORE.INTER.SOLV>
16.3034

>  <SCORE.INTER.VDW>
-19.0556

>  <SCORE.INTER.norm>
-0.260431

>  <SCORE.INTRA>
0.340174

>  <SCORE.INTRA.DIHEDRAL>
0.472091

>  <SCORE.INTRA.DIHEDRAL.0>
7.82666

>  <SCORE.INTRA.POLAR>
0

>  <SCORE.INTRA.POLAR.0>
0

>  <SCORE.INTRA.REPUL>
0

>  <SCORE.INTRA.REPUL.0>
0

>  <SCORE.INTRA.SOLV>
-1.09622

>  <SCORE.INTRA.SOLV.lig_0>
-83.2758

>  <SCORE.INTRA.VDW>
0.652237

>  <SCORE.INTRA.VDW.0>
-3.26816

>  <SCORE.INTRA.norm>
0.012599

>  <SCORE.RESTR>
0.596579

>  <SCORE.RESTR.CAVITY>
0.596579

>  <SCORE.RESTR.norm>
0.0220955

>  <SCORE.SYSTEM>
0

>  <SCORE.SYSTEM.CONST>
0

>  <SCORE.SYSTEM.DIHEDRAL>
0

>  <SCORE.SYSTEM.SOLV>
0

>  <SCORE.SYSTEM.norm>
0

>  <SCORE.heavy>
27

>  <SCORE.norm>
-0.225737

>  <RMSD>
7.941

$$$$
ligand
 OpenBabel11021811463D
libRbt.so/2013.1/901 2013/11/27
 27 28  0  0  0  0  0  0  0  0999 V2000
   -4.3582   34.8079  -13.8298 C   0  0  0  0  0  0  0  0  0  0  0  0
   -6.9214   38.3910   -8.1583 C   0  0  0  0  0  0  0  0  0  0  0  0
   -5.4430   38.1205   -5.5667 C   0  0  0  0  0  0  0  0  0  0  0  0
   -6.2269   38.3712   -4.2770 C   0  0  0  0  0  0  0  0  0  0  0  0
   -5.5317   39.2926   -3.4333 O   0  0  0  0  0  0  0  0  0  0  0  0
   -5.6934   40.8738   -3.6650 P   0  0  1  0  0  0  0  0  0  0  0  0
   -5.7745   43.2359   -2.1255 P   0  0  2  0  0  0  0  0  0  0  0  0
   -6.3130   34.5106   -6.3809 C   0  0  0  0  0  0  0  0  0  0  0  0
   -4.8413   35.5958  -11.5205 N   0  0  0  0  0  0  0  0  0  0  0  0
   -4.4444   41.4694   -4.4726 O   0  5  0  0  0  0  0  0  0  0  0  0
   -4.5951   43.8634   -2.7563 O   0  0  0  0  0  0  0  0  0  0  0  0
   -7.0005   34.6132   -7.5830 C   0  0  0  0  0  0  0  0  0  0  0  0
   -5.3172   35.1132  -12.6788 C   0  0  0  0  0  0  0  0  0  0  0  0
   -7.0183   41.2557   -4.5089 O   0  0  0  0  0  0  0  0  0  0  0  0
   -5.8633   43.5869   -0.5620 O   0  5  0  0  0  0  0  0  0  0  0  0
   -7.1944   35.8688   -8.1606 N   0  0  0  0  0  0  0  0  0  0  0  0
   -6.6306   34.8951  -12.8381 N   0  0  0  0  0  0  0  0  0  0  0  0
   -5.8082   41.6403   -2.2347 O   0  0  0  0  0  0  0  0  0  0  0  0
   -7.1262   43.7946   -2.7617 O   0  0  0  0  0  0  0  0  0  0  0  0
   -6.7021   37.0123   -7.5202 C   0  0  1  0  0  0  0  0  0  0  0  0
   -7.4858   35.1560  -11.8417 C   0  0  0  0  0  0  0  0  0  0  0  0
   -8.7852   34.9339  -12.0107 N   0  0  0  0  0  0  0  0  0  0  0  0
   -6.0116   36.9082   -6.3137 C   0  0  1  0  0  0  0  0  0  0  0  0
   -7.0178   35.6540  -10.6317 C   0  0  0  0  0  0  0  0  0  0  0  0
   -5.8247   35.6504   -5.7537 C   0  0  0  0  0  0  0  0  0  0  0  0
   -5.6496   35.8675  -10.5096 C   0  0  0  0  0  0  0  0  0  0  0  0
   -7.9302   35.9800   -9.4421 C   0  0  0  0  0  0  0  0  0  0  0  0
  1 13  1  0  0  0  0
  3  4  1  0  0  0  0
  4  5  1  0  0  0  0
  6  5  1  1  0  0  0
  6 10  1  0  0  0  0
  6 14  2  0  0  0  0
  6 18  1  0  0  0  0
  7 11  1  6  0  0  0
  7 15  1  0  0  0  0
  7 19  2  0  0  0  0
  7 18  1  0  0  0  0
  8 25  1  0  0  0  0
  8 12  1  0  0  0  0
  9 26  2  0  0  0  0
  9 13  1  0  0  0  0
 12 16  1  0  0  0  0
 13 17  2  0  0  0  0
 16 20  1  0  0  0  0
 16 27  1  0  0  0  0
 17 21  1  0  0  0  0
 20  2  1  6  0  0  0
 20 23  1  0  0  0  0
 21 22  1  0  0  0  0
 21 24  2  0  0  0  0
 23  3  1  6  0  0  0
 23 25  1  0  0  0  0
 24 27  1  0  0  0  0
 24 26  1  0  0  0  0
M  CHG  2  10  -1  15  -1
M  END
>  <CHROM.1>
166.94844580,83.91958521,-100.05322344,171.36822221,-54.52965620,110.30178306
153.22914188,-80.73995691,-6.14035632,38.58919647,-6.55078192,-1.80257880
1.31461362,1.09751377

>  <Name>
ligand

>  <RI>
0

>  <Rbt.Current_Directory>
/home/itssahil/PROJECTS/Mol_Feturizer/New_Systems/rnas/3D2V

>  <Rbt.Executable>
rbdock ($Id: //depot/dev/client3/rdock/2013.1/src/exe/rbdock.cxx#4 $)

>  <Rbt.Library>
libRbt.so (2013.1, Build901 2013/11/27)

>  <Rbt.Parameter_File>
/export/apps/rDock/src/rDock_2013.1_src/data/scripts/dock_solv.prm

>  <Rbt.Receptor>
prm/blind_docking_60.prm

>  <SCORE>
-6.49011

>  <SCORE.INTER>
-7.84028

>  <SCORE.INTER.CONST>
1

>  <SCORE.INTER.POLAR>
0

>  <SCORE.INTER.ROT>
8

>  <SCORE.INTER.SOLV>
15.4368

>  <SCORE.INTER.VDW>
-19.3058

>  <SCORE.INTER.norm>
-0.290381

>  <SCORE.INTRA>
1.35017

>  <SCORE.INTRA.DIHEDRAL>
2.4276

>  <SCORE.INTRA.DIHEDRAL.0>
7.82666

>  <SCORE.INTRA.POLAR>
0

>  <SCORE.INTRA.POLAR.0>
0

>  <SCORE.INTRA.REPUL>
0

>  <SCORE.INTRA.REPUL.0>
0

>  <SCORE.INTRA.SOLV>
0.341385

>  <SCORE.INTRA.SOLV.lig_0>
-83.2758

>  <SCORE.INTRA.VDW>
-0.0343237

>  <SCORE.INTRA.VDW.0>
-3.26816

>  <SCORE.INTRA.norm>
0.0500062

>  <SCORE.RESTR>
0

>  <SCORE.RESTR.CAVITY>
0

>  <SCORE.RESTR.norm>
0

>  <SCORE.SYSTEM>
0

>  <SCORE.SYSTEM.CONST>
0

>  <SCORE.SYSTEM.DIHEDRAL>
0

>  <SCORE.SYSTEM.SOLV>
0

>  <SCORE.SYSTEM.norm>
0

>  <SCORE.heavy>
27

>  <SCORE.norm>
-0.240375

>  <RMSD>
7.950

$$$$
ligand
 OpenBabel11021811473D
libRbt.so/2013.1/901 2013/11/27
 27 28  0  0  0  0  0  0  0  0999 V2000
   -7.5283   44.9941   -9.2659 C   0  0  0  0  0  0  0  0  0  0  0  0
   -6.8346   37.5358   -8.8764 C   0  0  0  0  0  0  0  0  0  0  0  0
   -6.9903   36.3424   -6.1329 C   0  0  0  0  0  0  0  0  0  0  0  0
   -8.3528   36.8413   -5.6477 C   0  0  0  0  0  0  0  0  0  0  0  0
   -8.2050   37.6782   -4.4980 O   0  0  0  0  0  0  0  0  0  0  0  0
   -9.4681   38.4900   -3.9273 P   0  0  1  0  0  0  0  0  0  0  0  0
   -7.7072   40.1301   -2.4556 P   0  0  2  0  0  0  0  0  0  0  0  0
   -4.4371   39.1191   -5.6621 C   0  0  0  0  0  0  0  0  0  0  0  0
   -7.0961   42.7393   -8.3086 N   0  0  0  0  0  0  0  0  0  0  0  0
  -10.0034   39.5531   -4.9999 O   0  5  0  0  0  0  0  0  0  0  0  0
   -7.6527   41.3017   -3.3538 O   0  0  0  0  0  0  0  0  0  0  0  0
   -4.3499   39.6877   -6.9259 C   0  0  0  0  0  0  0  0  0  0  0  0
   -6.8607   43.6188   -9.2945 C   0  0  0  0  0  0  0  0  0  0  0  0
  -10.7176   37.5338   -3.5560 O   0  0  0  0  0  0  0  0  0  0  0  0
   -6.5020   39.1101   -2.7434 O   0  5  0  0  0  0  0  0  0  0  0  0
   -5.1286   39.1779   -7.9658 N   0  0  0  0  0  0  0  0  0  0  0  0
   -6.0426   43.3029  -10.3089 N   0  0  0  0  0  0  0  0  0  0  0  0
   -9.0574   39.2792   -2.5653 O   0  0  0  0  0  0  0  0  0  0  0  0
   -7.5336   40.5706   -0.9325 O   0  0  0  0  0  0  0  0  0  0  0  0
   -5.9831   38.0947   -7.7280 C   0  0  1  0  0  0  0  0  0  0  0  0
   -5.4487   42.1038  -10.3512 C   0  0  0  0  0  0  0  0  0  0  0  0
   -4.6384   41.8029  -11.3608 N   0  0  0  0  0  0  0  0  0  0  0  0
   -6.0703   37.5249   -6.4589 C   0  0  1  0  0  0  0  0  0  0  0  0
   -5.6743   41.1764   -9.3414 C   0  0  0  0  0  0  0  0  0  0  0  0
   -5.2903   38.0464   -5.4339 C   0  0  0  0  0  0  0  0  0  0  0  0
   -6.5308   41.5436   -8.3098 C   0  0  0  0  0  0  0  0  0  0  0  0
   -5.0346   39.7821   -9.3156 C   0  0  0  0  0  0  0  0  0  0  0  0
  1 13  1  0  0  0  0
  3  4  1  0  0  0  0
  4  5  1  0  0  0  0
  6  5  1  6  0  0  0
  6 10  1  0  0  0  0
  6 14  2  0  0  0  0
  6 18  1  0  0  0  0
  7 11  1  6  0  0  0
  7 15  1  0  0  0  0
  7 19  2  0  0  0  0
  7 18  1  0  0  0  0
  8 25  1  0  0  0  0
  8 12  1  0  0  0  0
  9 26  2  0  0  0  0
  9 13  1  0  0  0  0
 12 16  1  0  0  0  0
 13 17  2  0  0  0  0
 16 20  1  0  0  0  0
 16 27  1  0  0  0  0
 17 21  1  0  0  0  0
 20  2  1  1  0  0  0
 20 23  1  0  0  0  0
 21 22  1  0  0  0  0
 21 24  2  0  0  0  0
 23  3  1  1  0  0  0
 23 25  1  0  0  0  0
 24 27  1  0  0  0  0
 24 26  1  0  0  0  0
M  CHG  2  10  -1  15  -1
M  END
>  <CHROM.1>
-57.82722272,171.39961463,-63.15853589,46.13615390,64.56078319,-91.44455366
163.43100080,-70.97010655,-7.11232640,39.82063380,-6.08221766,0.68439209
1.10126906,-0.29600494

>  <Name>
ligand

>  <RI>
0

>  <Rbt.Current_Directory>
/home/itssahil/PROJECTS/Mol_Feturizer/New_Systems/rnas/3D2V

>  <Rbt.Executable>
rbdock ($Id: //depot/dev/client3/rdock/2013.1/src/exe/rbdock.cxx#4 $)

>  <Rbt.Library>
libRbt.so (2013.1, Build901 2013/11/27)

>  <Rbt.Parameter_File>
/export/apps/rDock/src/rDock_2013.1_src/data/scripts/dock_solv.prm

>  <Rbt.Receptor>
prm/pocket_docking_8.prm

>  <SCORE>
-16.8746

>  <SCORE.INTER>
-14.3326

>  <SCORE.INTER.CONST>
1

>  <SCORE.INTER.POLAR>
0

>  <SCORE.INTER.ROT>
8

>  <SCORE.INTER.SOLV>
22.587

>  <SCORE.INTER.VDW>
-26.0174

>  <SCORE.INTER.norm>
-0.530836

>  <SCORE.INTRA>
-2.54201

>  <SCORE.INTRA.DIHEDRAL>
-1.92746

>  <SCORE.INTRA.DIHEDRAL.0>
7.82666

>  <SCORE.INTRA.POLAR>
0

>  <SCORE.INTRA.POLAR.0>
0

>  <SCORE.INTRA.REPUL>
0

>  <SCORE.INTRA.REPUL.0>
0

>  <SCORE.INTRA.SOLV>
-1.36542

>  <SCORE.INTRA.SOLV.lig_0>
-83.2758

>  <SCORE.INTRA.VDW>
-0.895574

>  <SCORE.INTRA.VDW.0>
-3.26816

>  <SCORE.INTRA.norm>
-0.0941485

>  <SCORE.RESTR>
0

>  <SCORE.RESTR.CAVITY>
0

>  <SCORE.RESTR.norm>
0

>  <SCORE.SYSTEM>
0

>  <SCORE.SYSTEM.CONST>
0

>  <SCORE.SYSTEM.DIHEDRAL>
0

>  <SCORE.SYSTEM.SOLV>
0

>  <SCORE.SYSTEM.norm>
0

>  <SCORE.heavy>
27

>  <SCORE.norm>
-0.624985

>  <RMSD>
7.967

$$$$
ligand
 OpenBabel11021811473D
libRbt.so/2013.1/901 2013/11/27
 27 28  0  0  0  0  0  0  0  0999 V2000
   -5.3086   48.2139   -6.8014 C   0  0  0  0  0  0  0  0  0  0  0  0
   -7.8479   41.0796   -7.7296 C   0  0  0  0  0  0  0  0  0  0  0  0
   -5.8009   38.8972   -7.5802 C   0  0  0  0  0  0  0  0  0  0  0  0
   -4.7869   38.8296   -6.4366 C   0  0  0  0  0  0  0  0  0  0  0  0
   -5.0842   39.8088   -5.4381 O   0  0  0  0  0  0  0  0  0  0  0  0
   -6.2989   39.5696   -4.4147 P   0  0  1  0  0  0  0  0  0  0  0  0
   -5.1450   41.0940   -2.3408 P   0  0  2  0  0  0  0  0  0  0  0  0
   -4.1341   41.4112   -9.8937 C   0  0  0  0  0  0  0  0  0  0  0  0
   -6.3239   45.9434   -6.7651 N   0  0  0  0  0  0  0  0  0  0  0  0
   -7.6996   39.4944   -5.1890 O   0  5  0  0  0  0  0  0  0  0  0  0
   -3.8121   40.8005   -2.9062 O   0  0  0  0  0  0  0  0  0  0  0  0
   -5.0688   42.4347   -9.9765 C   0  0  0  0  0  0  0  0  0  0  0  0
   -5.8237   46.9523   -7.4950 C   0  0  0  0  0  0  0  0  0  0  0  0
   -6.1562   38.1950   -3.5759 O   0  0  0  0  0  0  0  0  0  0  0  0
   -5.4163   40.2510   -1.0023 O   0  5  0  0  0  0  0  0  0  0  0  0
   -6.2696   42.3295   -9.2731 N   0  0  0  0  0  0  0  0  0  0  0  0
   -5.7706   46.8655   -8.8320 N   0  0  0  0  0  0  0  0  0  0  0  0
   -6.3629   40.7797   -3.3293 O   0  0  0  0  0  0  0  0  0  0  0  0
   -5.2554   42.6246   -1.9061 O   0  0  0  0  0  0  0  0  0  0  0  0
   -6.5240   41.1915   -8.4982 C   0  0  1  0  0  0  0  0  0  0  0  0
   -6.2165   45.7688   -9.4572 C   0  0  0  0  0  0  0  0  0  0  0  0
   -6.1570   45.6934  -10.7828 N   0  0  0  0  0  0  0  0  0  0  0  0
   -5.5849   40.1648   -8.4154 C   0  0  1  0  0  0  0  0  0  0  0  0
   -6.7369   44.7094   -8.7239 C   0  0  0  0  0  0  0  0  0  0  0  0
   -4.3933   40.2867   -9.1196 C   0  0  0  0  0  0  0  0  0  0  0  0
   -6.7753   44.8415   -7.3406 C   0  0  0  0  0  0  0  0  0  0  0  0
   -7.2691   43.4198   -9.3625 C   0  0  0  0  0  0  0  0  0  0  0  0
  1 13  1  0  0  0  0
  3  4  1  0  0  0  0
  4  5  1  0  0  0  0
  6  5  1  6  0  0  0
  6 10  1  0  0  0  0
  6 14  2  0  0  0  0
  6 18  1  0  0  0  0
  7 11  1  6  0  0  0
  7 15  1  0  0  0  0
  7 19  2  0  0  0  0
  7 18  1  0  0  0  0
  8 25  1  0  0  0  0
  8 12  1  0  0  0  0
  9 26  2  0  0  0  0
  9 13  1  0  0  0  0
 12 16  1  0  0  0  0
 13 17  2  0  0  0  0
 16 20  1  0  0  0  0
 16 27  1  0  0  0  0
 17 21  1  0  0  0  0
 20  2  1  1  0  0  0
 20 23  1  0  0  0  0
 21 22  1  0  0  0  0
 21 24  2  0  0  0  0
 23  3  1  1  0  0  0
 23 25  1  0  0  0  0
 24 27  1  0  0  0  0
 24 26  1  0  0  0  0
M  CHG  2  10  -1  15  -1
M  END
>  <CHROM.1>
71.33336073,76.02997078,-62.89185824,-60.44817824,32.02580304,-115.04985522
100.52442302,-66.01824890,-5.84667753,42.03024405,-6.28071565,-2.37328054
1.49200617,3.12618931

>  <Name>
ligand

>  <RI>
0

>  <Rbt.Current_Directory>
/home/itssahil/PROJECTS/Mol_Feturizer/New_Systems/rnas/3D2V

>  <Rbt.Executable>
rbdock ($Id: //depot/dev/client3/rdock/2013.1/src/exe/rbdock.cxx#4 $)

>  <Rbt.Library>
libRbt.so (2013.1, Build901 2013/11/27)

>  <Rbt.Parameter_File>
/export/apps/rDock/src/rDock_2013.1_src/data/scripts/dock_solv.prm

>  <Rbt.Receptor>
prm/pocket_docking_7.prm

>  <SCORE>
-12.5122

>  <SCORE.INTER>
-12.3032

>  <SCORE.INTER.CONST>
1

>  <SCORE.INTER.POLAR>
0

>  <SCORE.INTER.ROT>
8

>  <SCORE.INTER.SOLV>
17.6297

>  <SCORE.INTER.VDW>
-23.012

>  <SCORE.INTER.norm>
-0.455673

>  <SCORE.INTRA>
-0.209074

>  <SCORE.INTRA.DIHEDRAL>
0.109639

>  <SCORE.INTRA.DIHEDRAL.0>
7.82666

>  <SCORE.INTRA.POLAR>
0

>  <SCORE.INTRA.POLAR.0>
0

>  <SCORE.INTRA.REPUL>
0

>  <SCORE.INTRA.REPUL.0>
0

>  <SCORE.INTRA.SOLV>
0.635561

>  <SCORE.INTRA.SOLV.lig_0>
-83.2758

>  <SCORE.INTRA.VDW>
-0.581674

>  <SCORE.INTRA.VDW.0>
-3.26816

>  <SCORE.INTRA.norm>
-0.00774347

>  <SCORE.RESTR>
0

>  <SCORE.RESTR.CAVITY>
0

>  <SCORE.RESTR.norm>
0

>  <SCORE.SYSTEM>
0

>  <SCORE.SYSTEM.CONST>
0

>  <SCORE.SYSTEM.DIHEDRAL>
0

>  <SCORE.SYSTEM.SOLV>
0

>  <SCORE.SYSTEM.norm>
0

>  <SCORE.heavy>
27

>  <SCORE.norm>
-0.463416

>  <RMSD>
7.975

$$$$
ligand
 OpenBabel11021811473D
libRbt.so/2013.1/901 2013/11/27
 27 28  0  0  0  0  0  0  0  0999 V2000
   -2.0432   43.6294   -8.2555 C   0  0  0  0  0  0  0  0  0  0  0  0
   -8.1200   39.1310   -7.1563 C   0  0  0  0  0  0  0  0  0  0  0  0
   -8.6600   38.3712   -4.3091 C   0  0  0  0  0  0  0  0  0  0  0  0
   -8.6912   39.3987   -3.1759 C   0  0  0  0  0  0  0  0  0  0  0  0
   -7.8729   38.9723   -2.0837 O   0  0  0  0  0  0  0  0  0  0  0  0
   -7.8625   39.8093   -0.7128 P   0  0  1  0  0  0  0  0  0  0  0  0
   -5.6421   41.4032   -1.4099 P   0  0  2  0  0  0  0  0  0  0  0  0
   -4.9206   37.7588   -4.6131 C   0  0  0  0  0  0  0  0  0  0  0  0
   -3.1028   41.6915   -7.1113 N   0  0  0  0  0  0  0  0  0  0  0  0
   -9.3501   40.0314   -0.1609 O   0  5  0  0  0  0  0  0  0  0  0  0
   -4.6781   40.6845   -0.5515 O   0  0  0  0  0  0  0  0  0  0  0  0
   -4.6480   38.1065   -5.9296 C   0  0  0  0  0  0  0  0  0  0  0  0
   -2.9337   42.3865   -8.2468 C   0  0  0  0  0  0  0  0  0  0  0  0
   -7.0327   39.0785    0.4665 O   0  0  0  0  0  0  0  0  0  0  0  0
   -5.3271   42.9761   -1.4613 O   0  5  0  0  0  0  0  0  0  0  0  0
   -5.6828   38.5543   -6.7521 N   0  0  0  0  0  0  0  0  0  0  0  0
   -3.5400   42.0008   -9.3788 N   0  0  0  0  0  0  0  0  0  0  0  0
   -7.1672   41.2611   -0.9486 O   0  0  0  0  0  0  0  0  0  0  0  0
   -5.5435   40.9027   -2.9210 O   0  0  0  0  0  0  0  0  0  0  0  0
   -6.9853   38.6412   -6.2460 C   0  0  1  0  0  0  0  0  0  0  0  0
   -4.3232   40.9151   -9.3910 C   0  0  0  0  0  0  0  0  0  0  0  0
   -4.9175   40.5414  -10.5196 N   0  0  0  0  0  0  0  0  0  0  0  0
   -7.2578   38.2925   -4.9242 C   0  0  2  0  0  0  0  0  0  0  0  0
   -4.5126   40.1771   -8.2289 C   0  0  0  0  0  0  0  0  0  0  0  0
   -6.2156   37.8513   -4.1179 C   0  0  0  0  0  0  0  0  0  0  0  0
   -3.8673   40.6129   -7.0774 C   0  0  0  0  0  0  0  0  0  0  0  0
   -5.3938   38.9232   -8.1579 C   0  0  0  0  0  0  0  0  0  0  0  0
  1 13  1  0  0  0  0
  3  4  1  0  0  0  0
  4  5  1  0  0  0  0
  6  5  1  6  0  0  0
  6 10  1  0  0  0  0
  6 14  2  0  0  0  0
  6 18  1  0  0  0  0
  7 11  1  1  0  0  0
  7 15  1  0  0  0  0
  7 19  2  0  0  0  0
  7 18  1  0  0  0  0
  8 25  1  0  0  0  0
  8 12  1  0  0  0  0
  9 26  2  0  0  0  0
  9 13  1  0  0  0  0
 12 16  1  0  0  0  0
 13 17  2  0  0  0  0
 16 20  1  0  0  0  0
 16 27  1  0  0  0  0
 17 21  1  0  0  0  0
 20  2  1  1  0  0  0
 20 23  1  0  0  0  0
 21 22  1  0  0  0  0
 21 24  2  0  0  0  0
 23  3  1  6  0  0  0
 23 25  1  0  0  0  0
 24 27  1  0  0  0  0
 24 26  1  0  0  0  0
M  CHG  2  10  -1  15  -1
M  END
>  <CHROM.1>
-66.00452339,-173.68352750,52.66909664,-61.89722133,-53.80971783,-116.24664366
-165.55729092,-67.22628448,-5.92765353,40.17325345,-4.43244188,-0.99554801
0.77701578,1.25372877

>  <Name>
ligand

>  <RI>
0

>  <Rbt.Current_Directory>
/home/itssahil/PROJECTS/Mol_Feturizer/New_Systems/rnas/3D2V

>  <Rbt.Executable>
rbdock ($Id: //depot/dev/client3/rdock/2013.1/src/exe/rbdock.cxx#4 $)

>  <Rbt.Library>
libRbt.so (2013.1, Build901 2013/11/27)

>  <Rbt.Parameter_File>
/export/apps/rDock/src/rDock_2013.1_src/data/scripts/dock_solv.prm

>  <Rbt.Receptor>
prm/pocket_docking_5.prm

>  <SCORE>
-19.3827

>  <SCORE.INTER>
-17.3312

>  <SCORE.INTER.CONST>
1

>  <SCORE.INTER.POLAR>
0

>  <SCORE.INTER.ROT>
8

>  <SCORE.INTER.SOLV>
26.1886

>  <SCORE.INTER.VDW>
-29.217

>  <SCORE.INTER.norm>
-0.641897

>  <SCORE.INTRA>
-2.05149

>  <SCORE.INTRA.DIHEDRAL>
-2.14086

>  <SCORE.INTRA.DIHEDRAL.0>
7.82666

>  <SCORE.INTRA.POLAR>
0

>  <SCORE.INTRA.POLAR.0>
0

>  <SCORE.INTRA.REPUL>
0

>  <SCORE.INTRA.REPUL.0>
0

>  <SCORE.INTRA.SOLV>
-1.03891

>  <SCORE.INTRA.SOLV.lig_0>
-83.2758

>  <SCORE.INTRA.VDW>
-0.461607

>  <SCORE.INTRA.VDW.0>
-3.26816

>  <SCORE.INTRA.norm>
-0.0759811

>  <SCORE.RESTR>
0

>  <SCORE.RESTR.CAVITY>
0

>  <SCORE.RESTR.norm>
0

>  <SCORE.SYSTEM>
0

>  <SCORE.SYSTEM.CONST>
0

>  <SCORE.SYSTEM.DIHEDRAL>
0

>  <SCORE.SYSTEM.SOLV>
0

>  <SCORE.SYSTEM.norm>
0

>  <SCORE.heavy>
27

>  <SCORE.norm>
-0.717878

>  <RMSD>
7.998

$$$$
ligand
 OpenBabel11021811463D
libRbt.so/2013.1/901 2013/11/27
 27 28  0  0  0  0  0  0  0  0999 V2000
   -3.5681   35.1170  -13.1096 C   0  0  0  0  0  0  0  0  0  0  0  0
   -6.3370   38.7995   -8.6237 C   0  0  0  0  0  0  0  0  0  0  0  0
   -5.1416   39.3138   -5.9252 C   0  0  0  0  0  0  0  0  0  0  0  0
   -4.7510   39.3398   -4.4462 C   0  0  0  0  0  0  0  0  0  0  0  0
   -5.8932   39.1112   -3.6172 O   0  0  0  0  0  0  0  0  0  0  0  0
   -6.9808   40.2747   -3.4089 P   0  0  1  0  0  0  0  0  0  0  0  0
   -5.7060   41.3326   -1.1259 P   0  0  2  0  0  0  0  0  0  0  0  0
   -6.4911   35.7797   -5.5507 C   0  0  0  0  0  0  0  0  0  0  0  0
   -5.4109   36.4810  -12.1449 N   0  0  0  0  0  0  0  0  0  0  0  0
   -6.6512   41.5443   -4.3290 O   0  5  0  0  0  0  0  0  0  0  0  0
   -4.4315   40.7573   -1.6028 O   0  0  0  0  0  0  0  0  0  0  0  0
   -7.0509   35.5202   -6.7947 C   0  0  0  0  0  0  0  0  0  0  0  0
   -4.6298   35.3943  -12.0449 C   0  0  0  0  0  0  0  0  0  0  0  0
   -8.4834   39.8079   -3.7805 O   0  0  0  0  0  0  0  0  0  0  0  0
   -5.9128   41.0851    0.4462 O   0  5  0  0  0  0  0  0  0  0  0  0
   -6.9979   36.4961   -7.7910 N   0  0  0  0  0  0  0  0  0  0  0  0
   -4.7714   34.5454  -11.0167 N   0  0  0  0  0  0  0  0  0  0  0  0
   -7.0051   40.7461   -1.8521 O   0  0  0  0  0  0  0  0  0  0  0  0
   -5.7206   42.9168   -1.3100 O   0  0  0  0  0  0  0  0  0  0  0  0
   -6.3892   37.7286   -7.5253 C   0  0  1  0  0  0  0  0  0  0  0  0
   -5.6952   34.7715  -10.0745 C   0  0  0  0  0  0  0  0  0  0  0  0
   -5.8249   33.9240   -9.0590 N   0  0  0  0  0  0  0  0  0  0  0  0
   -5.8271   37.9880   -6.2764 C   0  0  2  0  0  0  0  0  0  0  0  0
   -6.5148   35.8909  -10.1540 C   0  0  0  0  0  0  0  0  0  0  0  0
   -5.8859   37.0044   -5.2966 C   0  0  0  0  0  0  0  0  0  0  0  0
   -6.3362   36.7437  -11.2372 C   0  0  0  0  0  0  0  0  0  0  0  0
   -7.5971   36.2215   -9.1181 C   0  0  0  0  0  0  0  0  0  0  0  0
  1 13  1  0  0  0  0
  3  4  1  0  0  0  0
  4  5  1  0  0  0  0
  6  5  1  6  0  0  0
  6 10  1  0  0  0  0
  6 14  2  0  0  0  0
  6 18  1  0  0  0  0
  7 11  1  6  0  0  0
  7 15  1  0  0  0  0
  7 19  2  0  0  0  0
  7 18  1  0  0  0  0
  8 25  1  0  0  0  0
  8 12  1  0  0  0  0
  9 26  2  0  0  0  0
  9 13  1  0  0  0  0
 12 16  1  0  0  0  0
 13 17  2  0  0  0  0
 16 20  1  0  0  0  0
 16 27  1  0  0  0  0
 17 21  1  0  0  0  0
 20  2  1  6  0  0  0
 20 23  1  0  0  0  0
 21 22  1  0  0  0  0
 21 24  2  0  0  0  0
 23  3  1  1  0  0  0
 23 25  1  0  0  0  0
 24 27  1  0  0  0  0
 24 26  1  0  0  0  0
M  CHG  2  10  -1  15  -1
M  END
>  <CHROM.1>
-56.26106152,-74.80509828,5.31070335,59.26355937,-32.58271970,174.51667966
64.23418891,-102.85053811,-6.02948788,38.35101860,-5.99193898,-1.46244523
1.05399438,0.92245691

>  <Name>
ligand

>  <RI>
0

>  <Rbt.Current_Directory>
/home/itssahil/PROJECTS/Mol_Feturizer/New_Systems/rnas/3D2V

>  <Rbt.Executable>
rbdock ($Id: //depot/dev/client3/rdock/2013.1/src/exe/rbdock.cxx#4 $)

>  <Rbt.Library>
libRbt.so (2013.1, Build901 2013/11/27)

>  <Rbt.Parameter_File>
/export/apps/rDock/src/rDock_2013.1_src/data/scripts/dock_solv.prm

>  <Rbt.Receptor>
prm/blind_docking_60.prm

>  <SCORE>
-9.40046

>  <SCORE.INTER>
-12.5394

>  <SCORE.INTER.CONST>
1

>  <SCORE.INTER.POLAR>
0

>  <SCORE.INTER.ROT>
8

>  <SCORE.INTER.SOLV>
17.7762

>  <SCORE.INTER.VDW>
-23.2184

>  <SCORE.INTER.norm>
-0.464424

>  <SCORE.INTRA>
2.4702

>  <SCORE.INTRA.DIHEDRAL>
1.8383

>  <SCORE.INTRA.DIHEDRAL.0>
7.82666

>  <SCORE.INTRA.POLAR>
0

>  <SCORE.INTRA.POLAR.0>
0

>  <SCORE.INTRA.REPUL>
0

>  <SCORE.INTRA.REPUL.0>
0

>  <SCORE.INTRA.SOLV>
0.421137

>  <SCORE.INTRA.SOLV.lig_0>
-83.2758

>  <SCORE.INTRA.VDW>
1.34048

>  <SCORE.INTRA.VDW.0>
-3.26816

>  <SCORE.INTRA.norm>
0.0914889

>  <SCORE.RESTR>
0.668784

>  <SCORE.RESTR.CAVITY>
0.668784

>  <SCORE.RESTR.norm>
0.0247698

>  <SCORE.SYSTEM>
0

>  <SCORE.SYSTEM.CONST>
0

>  <SCORE.SYSTEM.DIHEDRAL>
0

>  <SCORE.SYSTEM.SOLV>
0

>  <SCORE.SYSTEM.norm>
0

>  <SCORE.heavy>
27

>  <SCORE.norm>
-0.348165

>  <RMSD>
8.005

$$$$
ligand
 OpenBabel11021811473D
libRbt.so/2013.1/901 2013/11/27
 27 28  0  0  0  0  0  0  0  0999 V2000
   -7.3196   46.1267   -9.0356 C   0  0  0  0  0  0  0  0  0  0  0  0
   -3.8914   41.1457   -7.2125 C   0  0  0  0  0  0  0  0  0  0  0  0
   -4.9553   38.7621   -5.7422 C   0  0  0  0  0  0  0  0  0  0  0  0
   -6.2076   38.1360   -5.1255 C   0  0  0  0  0  0  0  0  0  0  0  0
   -6.1543   38.1991   -3.6981 O   0  0  0  0  0  0  0  0  0  0  0  0
   -6.4020   39.5964   -2.9457 P   0  0  1  0  0  0  0  0  0  0  0  0
   -6.1022   40.6893   -0.3626 P   0  0  2  0  0  0  0  0  0  0  0  0
   -5.9995   38.0340   -9.3241 C   0  0  0  0  0  0  0  0  0  0  0  0
   -5.3363   44.9020   -9.9041 N   0  0  0  0  0  0  0  0  0  0  0  0
   -5.4465   40.7429   -3.5283 O   0  5  0  0  0  0  0  0  0  0  0  0
   -7.3913   41.4053   -0.2721 O   0  0  0  0  0  0  0  0  0  0  0  0
   -5.5141   39.1298  -10.0253 C   0  0  0  0  0  0  0  0  0  0  0  0
   -6.5365   44.8417   -9.3067 C   0  0  0  0  0  0  0  0  0  0  0  0
   -7.9193   40.1339   -3.0961 O   0  0  0  0  0  0  0  0  0  0  0  0
   -4.9255   41.6555   -0.8698 O   0  5  0  0  0  0  0  0  0  0  0  0
   -4.8283   40.1356   -9.3427 N   0  0  0  0  0  0  0  0  0  0  0  0
   -7.0585   43.6612   -8.9434 N   0  0  0  0  0  0  0  0  0  0  0  0
   -6.1156   39.4328   -1.3526 O   0  0  0  0  0  0  0  0  0  0  0  0
   -5.6355   40.1718    1.0720 O   0  0  0  0  0  0  0  0  0  0  0  0
   -4.6432   40.0348   -7.9586 C   0  0  1  0  0  0  0  0  0  0  0  0
   -6.3880   42.5254   -9.1727 C   0  0  0  0  0  0  0  0  0  0  0  0
   -6.9165   41.3611   -8.8098 N   0  0  0  0  0  0  0  0  0  0  0  0
   -5.1304   38.9341   -7.2557 C   0  0  2  0  0  0  0  0  0  0  0  0
   -5.1445   42.5609   -9.7918 C   0  0  0  0  0  0  0  0  0  0  0  0
   -5.8084   37.9402   -7.9510 C   0  0  0  0  0  0  0  0  0  0  0  0
   -4.6393   43.8054  -10.1502 C   0  0  0  0  0  0  0  0  0  0  0  0
   -4.3120   41.3069  -10.0892 C   0  0  0  0  0  0  0  0  0  0  0  0
  1 13  1  0  0  0  0
  3  4  1  0  0  0  0
  4  5  1  0  0  0  0
  6  5  1  6  0  0  0
  6 10  1  0  0  0  0
  6 14  2  0  0  0  0
  6 18  1  0  0  0  0
  7 11  1  1  0  0  0
  7 15  1  0  0  0  0
  7 19  2  0  0  0  0
  7 18  1  0  0  0  0
  8 25  1  0  0  0  0
  8 12  1  0  0  0  0
  9 26  2  0  0  0  0
  9 13  1  0  0  0  0
 12 16  1  0  0  0  0
 13 17  2  0  0  0  0
 16 20  1  0  0  0  0
 16 27  1  0  0  0  0
 17 21  1  0  0  0  0
 20  2  1  6  0  0  0
 20 23  1  0  0  0  0
 21 22  1  0  0  0  0
 21 24  2  0  0  0  0
 23  3  1  1  0  0  0
 23 25  1  0  0  0  0
 24 27  1  0  0  0  0
 24 26  1  0  0  0  0
M  CHG  2  10  -1  15  -1
M  END
>  <CHROM.1>
-169.30090919,74.38346199,-52.70255942,172.37668940,62.29520528,142.35480101
-14.33860571,107.17293112,-5.86665760,40.86669653,-5.65304718,1.21945653
1.39312476,-0.96600166

>  <Name>
ligand

>  <RI>
0

>  <Rbt.Current_Directory>
/home/itssahil/PROJECTS/Mol_Feturizer/New_Systems/rnas/3D2V

>  <Rbt.Executable>
rbdock ($Id: //depot/dev/client3/rdock/2013.1/src/exe/rbdock.cxx#4 $)

>  <Rbt.Library>
libRbt.so (2013.1, Build901 2013/11/27)

>  <Rbt.Parameter_File>
/export/apps/rDock/src/rDock_2013.1_src/data/scripts/dock_solv.prm

>  <Rbt.Receptor>
prm/pocket_docking_5.prm

>  <SCORE>
-14.5407

>  <SCORE.INTER>
-18.5704

>  <SCORE.INTER.CONST>
1

>  <SCORE.INTER.POLAR>
0

>  <SCORE.INTER.ROT>
8

>  <SCORE.INTER.SOLV>
19.5845

>  <SCORE.INTER.VDW>
-27.8418

>  <SCORE.INTER.norm>
-0.687792

>  <SCORE.INTRA>
4.02964

>  <SCORE.INTRA.DIHEDRAL>
-1.07565

>  <SCORE.INTRA.DIHEDRAL.0>
7.82666

>  <SCORE.INTRA.POLAR>
0

>  <SCORE.INTRA.POLAR.0>
0

>  <SCORE.INTRA.REPUL>
0

>  <SCORE.INTRA.REPUL.0>
0

>  <SCORE.INTRA.SOLV>
6.35804

>  <SCORE.INTRA.SOLV.lig_0>
-83.2758

>  <SCORE.INTRA.VDW>
1.38844

>  <SCORE.INTRA.VDW.0>
-3.26816

>  <SCORE.INTRA.norm>
0.149246

>  <SCORE.RESTR>
0

>  <SCORE.RESTR.CAVITY>
0

>  <SCORE.RESTR.norm>
0

>  <SCORE.SYSTEM>
0

>  <SCORE.SYSTEM.CONST>
0

>  <SCORE.SYSTEM.DIHEDRAL>
0

>  <SCORE.SYSTEM.SOLV>
0

>  <SCORE.SYSTEM.norm>
0

>  <SCORE.heavy>
27

>  <SCORE.norm>
-0.538546

>  <RMSD>
8.067

$$$$
ligand
 OpenBabel11021811463D
libRbt.so/2013.1/901 2013/11/27
 27 28  0  0  0  0  0  0  0  0999 V2000
   -2.4756   34.5192  -13.1778 C   0  0  0  0  0  0  0  0  0  0  0  0
   -7.3468   35.4231   -7.2176 C   0  0  0  0  0  0  0  0  0  0  0  0
   -6.5908   37.4873   -5.1822 C   0  0  0  0  0  0  0  0  0  0  0  0
   -5.6287   38.3913   -4.4089 C   0  0  0  0  0  0  0  0  0  0  0  0
   -6.1715   39.7067   -4.2704 O   0  0  0  0  0  0  0  0  0  0  0  0
   -5.4941   40.7530   -3.2573 P   0  0  1  0  0  0  0  0  0  0  0  0
   -5.8293   43.4271   -2.4247 P   0  0  2  0  0  0  0  0  0  0  0  0
   -5.8758   39.2816   -8.4564 C   0  0  0  0  0  0  0  0  0  0  0  0
   -4.5134   35.8854  -12.7682 N   0  0  0  0  0  0  0  0  0  0  0  0
   -5.5568   40.2183   -1.7482 O   0  5  0  0  0  0  0  0  0  0  0  0
   -5.5389   43.0746   -1.0197 O   0  0  0  0  0  0  0  0  0  0  0  0
   -6.2211   38.3398   -9.4164 C   0  0  0  0  0  0  0  0  0  0  0  0
   -3.6865   34.9212  -12.3352 C   0  0  0  0  0  0  0  0  0  0  0  0
   -3.9365   41.0332   -3.5875 O   0  0  0  0  0  0  0  0  0  0  0  0
   -7.0166   44.5019   -2.5295 O   0  5  0  0  0  0  0  0  0  0  0  0
   -6.7009   37.0919   -9.0159 N   0  0  0  0  0  0  0  0  0  0  0  0
   -3.9119   34.3038  -11.1664 N   0  0  0  0  0  0  0  0  0  0  0  0
   -6.2586   42.1866   -3.3390 O   0  0  0  0  0  0  0  0  0  0  0  0
   -4.5682   44.1220   -3.1105 O   0  0  0  0  0  0  0  0  0  0  0  0
   -6.8220   36.7985   -7.6523 C   0  0  1  0  0  0  0  0  0  0  0  0
   -4.9668   34.6423  -10.4147 C   0  0  0  0  0  0  0  0  0  0  0  0
   -5.1788   34.0246   -9.2572 N   0  0  0  0  0  0  0  0  0  0  0  0
   -6.4755   37.7448   -6.6893 C   0  0  1  0  0  0  0  0  0  0  0  0
   -5.8366   35.6391  -10.8397 C   0  0  0  0  0  0  0  0  0  0  0  0
   -6.0022   38.9834   -7.1051 C   0  0  0  0  0  0  0  0  0  0  0  0
   -5.5673   36.2519  -12.0581 C   0  0  0  0  0  0  0  0  0  0  0  0
   -7.0673   36.0849  -10.0394 C   0  0  0  0  0  0  0  0  0  0  0  0
  1 13  1  0  0  0  0
  3  4  1  0  0  0  0
  4  5  1  0  0  0  0
  6  5  1  6  0  0  0
  6 10  1  0  0  0  0
  6 14  2  0  0  0  0
  6 18  1  0  0  0  0
  7 11  1  1  0  0  0
  7 15  1  0  0  0  0
  7 19  2  0  0  0  0
  7 18  1  0  0  0  0
  8 25  1  0  0  0  0
  8 12  1  0  0  0  0
  9 26  2  0  0  0  0
  9 13  1  0  0  0  0
 12 16  1  0  0  0  0
 13 17  2  0  0  0  0
 16 20  1  0  0  0  0
 16 27  1  0  0  0  0
 17 21  1  0  0  0  0
 20  2  1  6  0  0  0
 20 23  1  0  0  0  0
 21 22  1  0  0  0  0
 21 24  2  0  0  0  0
 23  3  1  6  0  0  0
 23 25  1  0  0  0  0
 24 27  1  0  0  0  0
 24 26  1  0  0  0  0
M  CHG  2  10  -1  15  -1
M  END
>  <CHROM.1>
79.82717503,167.89889378,-61.84590107,178.84747511,-42.79375208,155.74543522
84.35960509,64.95634386,-5.59722047,38.81065099,-6.54130586,-1.42907545,1.07107668
0.74543777

>  <Name>
ligand

>  <RI>
0

>  <Rbt.Current_Directory>
/home/itssahil/PROJECTS/Mol_Feturizer/New_Systems/rnas/3D2V

>  <Rbt.Executable>
rbdock ($Id: //depot/dev/client3/rdock/2013.1/src/exe/rbdock.cxx#4 $)

>  <Rbt.Library>
libRbt.so (2013.1, Build901 2013/11/27)

>  <Rbt.Parameter_File>
/export/apps/rDock/src/rDock_2013.1_src/data/scripts/dock_solv.prm

>  <Rbt.Receptor>
prm/blind_docking_60.prm

>  <SCORE>
-5.74922

>  <SCORE.INTER>
-8.08661

>  <SCORE.INTER.CONST>
1

>  <SCORE.INTER.POLAR>
0

>  <SCORE.INTER.ROT>
8

>  <SCORE.INTER.SOLV>
17.5228

>  <SCORE.INTER.VDW>
-20.1653

>  <SCORE.INTER.norm>
-0.299504

>  <SCORE.INTRA>
1.44901

>  <SCORE.INTRA.DIHEDRAL>
-0.120888

>  <SCORE.INTRA.DIHEDRAL.0>
7.82666

>  <SCORE.INTRA.POLAR>
0

>  <SCORE.INTRA.POLAR.0>
0

>  <SCORE.INTRA.REPUL>
0

>  <SCORE.INTRA.REPUL.0>
0

>  <SCORE.INTRA.SOLV>
1.35704

>  <SCORE.INTRA.SOLV.lig_0>
-83.2758

>  <SCORE.INTRA.VDW>
0.830936

>  <SCORE.INTRA.VDW.0>
-3.26816

>  <SCORE.INTRA.norm>
0.053667

>  <SCORE.RESTR>
0.888373

>  <SCORE.RESTR.CAVITY>
0.888373

>  <SCORE.RESTR.norm>
0.0329027

>  <SCORE.SYSTEM>
0

>  <SCORE.SYSTEM.CONST>
0

>  <SCORE.SYSTEM.DIHEDRAL>
0

>  <SCORE.SYSTEM.SOLV>
0

>  <SCORE.SYSTEM.norm>
0

>  <SCORE.heavy>
27

>  <SCORE.norm>
-0.212934

>  <RMSD>
8.069

$$$$
ligand
 OpenBabel11021811473D
libRbt.so/2013.1/901 2013/11/27
 27 28  0  0  0  0  0  0  0  0999 V2000
   -0.9692   44.3660   -7.7690 C   0  0  0  0  0  0  0  0  0  0  0  0
   -8.3487   40.7469   -6.6664 C   0  0  0  0  0  0  0  0  0  0  0  0
   -8.2993   37.7821   -7.0941 C   0  0  0  0  0  0  0  0  0  0  0  0
   -7.5516   36.7092   -6.3002 C   0  0  0  0  0  0  0  0  0  0  0  0
   -7.3629   37.1223   -4.9445 O   0  0  0  0  0  0  0  0  0  0  0  0
   -6.0444   37.9405   -4.5298 P   0  0  1  0  0  0  0  0  0  0  0  0
   -7.4144   39.4821   -2.6055 P   0  0  2  0  0  0  0  0  0  0  0  0
   -5.4368   38.9640   -9.2987 C   0  0  0  0  0  0  0  0  0  0  0  0
   -2.7886   42.7954   -7.1285 N   0  0  0  0  0  0  0  0  0  0  0  0
   -4.7432   37.0076   -4.5909 O   0  5  0  0  0  0  0  0  0  0  0  0
   -7.5107   40.7223   -3.4025 O   0  0  0  0  0  0  0  0  0  0  0  0
   -5.4416   40.3402   -9.1143 C   0  0  0  0  0  0  0  0  0  0  0  0
   -2.4076   43.8552   -7.8584 C   0  0  0  0  0  0  0  0  0  0  0  0
   -5.7564   39.2049   -5.4952 O   0  0  0  0  0  0  0  0  0  0  0  0
   -7.2311   39.7984   -1.0428 O   0  5  0  0  0  0  0  0  0  0  0  0
   -6.3816   40.9174   -8.2594 N   0  0  0  0  0  0  0  0  0  0  0  0
   -3.2787   44.4735   -8.6687 N   0  0  0  0  0  0  0  0  0  0  0  0
   -6.2007   38.5261   -3.0201 O   0  0  0  0  0  0  0  0  0  0  0  0
   -8.7596   38.6315   -2.7097 O   0  0  0  0  0  0  0  0  0  0  0  0
   -7.3148   40.1062   -7.6028 C   0  0  1  0  0  0  0  0  0  0  0  0
   -4.5423   44.0406   -8.7606 C   0  0  0  0  0  0  0  0  0  0  0  0
   -5.3962   44.6604   -9.5687 N   0  0  0  0  0  0  0  0  0  0  0  0
   -7.3089   38.7247   -7.7881 C   0  0  2  0  0  0  0  0  0  0  0  0
   -4.9609   42.9439   -8.0170 C   0  0  0  0  0  0  0  0  0  0  0  0
   -6.3645   38.1658   -8.6404 C   0  0  0  0  0  0  0  0  0  0  0  0
   -4.0265   42.3337   -7.1881 C   0  0  0  0  0  0  0  0  0  0  0  0
   -6.3895   42.3863   -8.0637 C   0  0  0  0  0  0  0  0  0  0  0  0
  1 13  1  0  0  0  0
  3  4  1  0  0  0  0
  4  5  1  0  0  0  0
  6  5  1  6  0  0  0
  6 10  1  0  0  0  0
  6 14  2  0  0  0  0
  6 18  1  0  0  0  0
  7 11  1  6  0  0  0
  7 15  1  0  0  0  0
  7 19  2  0  0  0  0
  7 18  1  0  0  0  0
  8 25  1  0  0  0  0
  8 12  1  0  0  0  0
  9 26  2  0  0  0  0
  9 13  1  0  0  0  0
 12 16  1  0  0  0  0
 13 17  2  0  0  0  0
 16 20  1  0  0  0  0
 16 27  1  0  0  0  0
 17 21  1  0  0  0  0
 20  2  1  1  0  0  0
 20 23  1  0  0  0  0
 21 22  1  0  0  0  0
 21 24  2  0  0  0  0
 23  3  1  6  0  0  0
 23 25  1  0  0  0  0
 24 27  1  0  0  0  0
 24 26  1  0  0  0  0
M  CHG  2  10  -1  15  -1
M  END
>  <CHROM.1>
92.77418360,-90.06640466,-69.90675919,-57.06371132,-58.03850612,-123.82904160
131.10795967,-38.38417935,-5.98230749,40.25156142,-6.10724818,-0.61529164
0.99304919,1.52571416

>  <Name>
ligand

>  <RI>
0

>  <Rbt.Current_Directory>
/home/itssahil/PROJECTS/Mol_Feturizer/New_Systems/rnas/3D2V

>  <Rbt.Executable>
rbdock ($Id: //depot/dev/client3/rdock/2013.1/src/exe/rbdock.cxx#4 $)

>  <Rbt.Library>
libRbt.so (2013.1, Build901 2013/11/27)

>  <Rbt.Parameter_File>
/export/apps/rDock/src/rDock_2013.1_src/data/scripts/dock_solv.prm

>  <Rbt.Receptor>
prm/pocket_docking_3.prm

>  <SCORE>
-7.15643

>  <SCORE.INTER>
-9.57226

>  <SCORE.INTER.CONST>
1

>  <SCORE.INTER.POLAR>
0

>  <SCORE.INTER.ROT>
8

>  <SCORE.INTER.SOLV>
17.5999

>  <SCORE.INTER.VDW>
-21.1815

>  <SCORE.INTER.norm>
-0.354528

>  <SCORE.INTRA>
1.83731

>  <SCORE.INTRA.DIHEDRAL>
4.29686

>  <SCORE.INTRA.DIHEDRAL.0>
7.82666

>  <SCORE.INTRA.POLAR>
0

>  <SCORE.INTRA.POLAR.0>
0

>  <SCORE.INTRA.REPUL>
0

>  <SCORE.INTRA.REPUL.0>
0

>  <SCORE.INTRA.SOLV>
2.06603

>  <SCORE.INTRA.SOLV.lig_0>
-83.2758

>  <SCORE.INTRA.VDW>
-1.34413

>  <SCORE.INTRA.VDW.0>
-3.26816

>  <SCORE.INTRA.norm>
0.0680487

>  <SCORE.RESTR>
0.578524

>  <SCORE.RESTR.CAVITY>
0.578524

>  <SCORE.RESTR.norm>
0.0214268

>  <SCORE.SYSTEM>
0

>  <SCORE.SYSTEM.CONST>
0

>  <SCORE.SYSTEM.DIHEDRAL>
0

>  <SCORE.SYSTEM.SOLV>
0

>  <SCORE.SYSTEM.norm>
0

>  <SCORE.heavy>
27

>  <SCORE.norm>
-0.265053

>  <RMSD>
8.069

$$$$
ligand
 OpenBabel11021811463D
libRbt.so/2013.1/901 2013/11/27
 27 28  0  0  0  0  0  0  0  0999 V2000
   -3.7548   35.0939  -13.0541 C   0  0  0  0  0  0  0  0  0  0  0  0
   -5.7893   38.4219   -7.7738 C   0  0  0  0  0  0  0  0  0  0  0  0
   -4.6870   37.9740   -5.0243 C   0  0  0  0  0  0  0  0  0  0  0  0
   -5.4682   39.1971   -4.5402 C   0  0  0  0  0  0  0  0  0  0  0  0
   -4.6574   40.0108   -3.6889 O   0  0  0  0  0  0  0  0  0  0  0  0
   -5.2211   41.4118   -3.1415 P   0  0  1  0  0  0  0  0  0  0  0  0
   -5.4103   41.2526   -0.3317 P   0  0  2  0  0  0  0  0  0  0  0  0
   -6.8136   34.8685   -5.5577 C   0  0  0  0  0  0  0  0  0  0  0  0
   -5.4399   36.5811  -11.9881 N   0  0  0  0  0  0  0  0  0  0  0  0
   -4.8082   42.6185   -4.1113 O   0  5  0  0  0  0  0  0  0  0  0  0
   -6.8010   41.7435   -0.2439 O   0  0  0  0  0  0  0  0  0  0  0  0
   -7.3352   35.0559   -6.8309 C   0  0  0  0  0  0  0  0  0  0  0  0
   -4.7582   35.4257  -11.9491 C   0  0  0  0  0  0  0  0  0  0  0  0
   -6.8331   41.4405   -3.0230 O   0  0  0  0  0  0  0  0  0  0  0  0
   -4.5279   41.7562    0.9108 O   0  5  0  0  0  0  0  0  0  0  0  0
   -7.0009   36.2042   -7.5501 N   0  0  0  0  0  0  0  0  0  0  0  0
   -4.9486   34.5554  -10.9470 N   0  0  0  0  0  0  0  0  0  0  0  0
   -4.6337   41.7087   -1.6538 O   0  0  0  0  0  0  0  0  0  0  0  0
   -5.3627   39.6597   -0.2660 O   0  0  0  0  0  0  0  0  0  0  0  0
   -6.1507   37.1591   -6.9795 C   0  0  1  0  0  0  0  0  0  0  0  0
   -5.8226   34.8284   -9.9703 C   0  0  0  0  0  0  0  0  0  0  0  0
   -6.0014   33.9589   -8.9812 N   0  0  0  0  0  0  0  0  0  0  0  0
   -5.6272   36.9698   -5.7016 C   0  0  2  0  0  0  0  0  0  0  0  0
   -6.5391   36.0189   -9.9866 C   0  0  0  0  0  0  0  0  0  0  0  0
   -5.9678   35.8196   -5.0003 C   0  0  0  0  0  0  0  0  0  0  0  0
   -6.3129   36.8919  -11.0445 C   0  0  0  0  0  0  0  0  0  0  0  0
   -7.5589   36.4067   -8.9079 C   0  0  0  0  0  0  0  0  0  0  0  0
  1 13  1  0  0  0  0
  3  4  1  0  0  0  0
  4  5  1  0  0  0  0
  6  5  1  6  0  0  0
  6 10  1  0  0  0  0
  6 14  2  0  0  0  0
  6 18  1  0  0  0  0
  7 11  1  1  0  0  0
  7 15  1  0  0  0  0
  7 19  2  0  0  0  0
  7 18  1  0  0  0  0
  8 25  1  0  0  0  0
  8 12  1  0  0  0  0
  9 26  2  0  0  0  0
  9 13  1  0  0  0  0
 12 16  1  0  0  0  0
 13 17  2  0  0  0  0
 16 20  1  0  0  0  0
 16 27  1  0  0  0  0
 17 21  1  0  0  0  0
 20  2  1  6  0  0  0
 20 23  1  0  0  0  0
 21 22  1  0  0  0  0
 21 24  2  0  0  0  0
 23  3  1  1  0  0  0
 23 25  1  0  0  0  0
 24 27  1  0  0  0  0
 24 26  1  0  0  0  0
M  CHG  2  10  -1  15  -1
M  END
>  <CHROM.1>
168.84874887,175.44556866,-92.42740389,-91.54444335,-55.13536132,75.11215266
48.10882777,-99.64441402,-5.64425691,38.37179836,-5.61375788,-1.65101711
1.22166463,1.07821220

>  <Name>
ligand

>  <RI>
0

>  <Rbt.Current_Directory>
/home/itssahil/PROJECTS/Mol_Feturizer/New_Systems/rnas/3D2V

>  <Rbt.Executable>
rbdock ($Id: //depot/dev/client3/rdock/2013.1/src/exe/rbdock.cxx#4 $)

>  <Rbt.Library>
libRbt.so (2013.1, Build901 2013/11/27)

>  <Rbt.Parameter_File>
/export/apps/rDock/src/rDock_2013.1_src/data/scripts/dock_solv.prm

>  <Rbt.Receptor>
prm/blind_docking_60.prm

>  <SCORE>
-15.5883

>  <SCORE.INTER>
-17.0356

>  <SCORE.INTER.CONST>
1

>  <SCORE.INTER.POLAR>
0

>  <SCORE.INTER.ROT>
8

>  <SCORE.INTER.SOLV>
23.2442

>  <SCORE.INTER.VDW>
-28.0385

>  <SCORE.INTER.norm>
-0.630948

>  <SCORE.INTRA>
0.879854

>  <SCORE.INTRA.DIHEDRAL>
0.596866

>  <SCORE.INTRA.DIHEDRAL.0>
7.82666

>  <SCORE.INTRA.POLAR>
0

>  <SCORE.INTRA.POLAR.0>
0

>  <SCORE.INTRA.REPUL>
0

>  <SCORE.INTRA.REPUL.0>
0

>  <SCORE.INTRA.SOLV>
1.11174

>  <SCORE.INTRA.SOLV.lig_0>
-83.2758

>  <SCORE.INTRA.VDW>
0.0255536

>  <SCORE.INTRA.VDW.0>
-3.26816

>  <SCORE.INTRA.norm>
0.0325872

>  <SCORE.RESTR>
0.567486

>  <SCORE.RESTR.CAVITY>
0.567486

>  <SCORE.RESTR.norm>
0.021018

>  <SCORE.SYSTEM>
0

>  <SCORE.SYSTEM.CONST>
0

>  <SCORE.SYSTEM.DIHEDRAL>
0

>  <SCORE.SYSTEM.SOLV>
0

>  <SCORE.SYSTEM.norm>
0

>  <SCORE.heavy>
27

>  <SCORE.norm>
-0.577343

>  <RMSD>
8.092

$$$$
ligand
 OpenBabel11021811463D
libRbt.so/2013.1/901 2013/11/27
 27 28  0  0  0  0  0  0  0  0999 V2000
   -9.9740   35.0128  -13.9319 C   0  0  0  0  0  0  0  0  0  0  0  0
   -7.4196   37.7513   -8.3735 C   0  0  0  0  0  0  0  0  0  0  0  0
   -8.5536   37.0319   -5.6955 C   0  0  0  0  0  0  0  0  0  0  0  0
   -7.6054   37.8552   -4.8217 C   0  0  0  0  0  0  0  0  0  0  0  0
   -8.3405   38.6606   -3.8969 O   0  0  0  0  0  0  0  0  0  0  0  0
   -7.5631   39.6465   -2.8951 P   0  0  1  0  0  0  0  0  0  0  0  0
   -6.5019   42.2599   -2.8980 P   0  0  2  0  0  0  0  0  0  0  0  0
   -6.8751   33.7911   -6.7590 C   0  0  0  0  0  0  0  0  0  0  0  0
   -8.8068   34.3511  -11.8375 N   0  0  0  0  0  0  0  0  0  0  0  0
   -8.4768   40.0269   -1.6351 O   0  5  0  0  0  0  0  0  0  0  0  0
   -7.4196   43.4051   -2.7280 O   0  0  0  0  0  0  0  0  0  0  0  0
   -6.3405   34.1036   -8.0019 C   0  0  0  0  0  0  0  0  0  0  0  0
   -8.9019   35.2144  -12.8606 C   0  0  0  0  0  0  0  0  0  0  0  0
   -6.2022   39.0029   -2.3059 O   0  0  0  0  0  0  0  0  0  0  0  0
   -5.1857   42.6758   -3.7169 O   0  5  0  0  0  0  0  0  0  0  0  0
   -6.5133   35.3865   -8.5233 N   0  0  0  0  0  0  0  0  0  0  0  0
   -8.0631   36.2563  -12.9537 N   0  0  0  0  0  0  0  0  0  0  0  0
   -7.1412   41.0132   -3.6700 O   0  0  0  0  0  0  0  0  0  0  0  0
   -5.9741   41.7378   -1.4864 O   0  0  0  0  0  0  0  0  0  0  0  0
   -7.2296   36.3429   -7.7936 C   0  0  1  0  0  0  0  0  0  0  0  0
   -7.1182   36.4495  -12.0252 C   0  0  0  0  0  0  0  0  0  0  0  0
   -6.2937   37.4869  -12.1271 N   0  0  0  0  0  0  0  0  0  0  0  0
   -7.7654   36.0285   -6.5458 C   0  0  1  0  0  0  0  0  0  0  0  0
   -7.0004   35.5712  -10.9548 C   0  0  0  0  0  0  0  0  0  0  0  0
   -7.5817   34.7474   -6.0399 C   0  0  0  0  0  0  0  0  0  0  0  0
   -7.8887   34.5034  -10.8977 C   0  0  0  0  0  0  0  0  0  0  0  0
   -5.9457   35.7206   -9.8507 C   0  0  0  0  0  0  0  0  0  0  0  0
  1 13  1  0  0  0  0
  3  4  1  0  0  0  0
  4  5  1  0  0  0  0
  6  5  1  6  0  0  0
  6 10  1  0  0  0  0
  6 14  2  0  0  0  0
  6 18  1  0  0  0  0
  7 11  1  1  0  0  0
  7 15  1  0  0  0  0
  7 19  2  0  0  0  0
  7 18  1  0  0  0  0
  8 25  1  0  0  0  0
  8 12  1  0  0  0  0
  9 26  2  0  0  0  0
  9 13  1  0  0  0  0
 12 16  1  0  0  0  0
 13 17  2  0  0  0  0
 16 20  1  0  0  0  0
 16 27  1  0  0  0  0
 17 21  1  0  0  0  0
 20  2  1  1  0  0  0
 20 23  1  0  0  0  0
 21 22  1  0  0  0  0
 21 24  2  0  0  0  0
 23  3  1  1  0  0  0
 23 25  1  0  0  0  0
 24 27  1  0  0  0  0
 24 26  1  0  0  0  0
M  CHG  2  10  -1  15  -1
M  END
>  <CHROM.1>
-172.05766749,-178.35503156,-159.25764632,172.87668184,-106.35747880,-87.09832392
140.62984582,96.14275297,-7.32255115,37.98167382,-6.65844924,-2.35748019
1.44327442,1.76433545

>  <Name>
ligand

>  <RI>
0

>  <Rbt.Current_Directory>
/home/itssahil/PROJECTS/Mol_Feturizer/New_Systems/rnas/3D2V

>  <Rbt.Executable>
rbdock ($Id: //depot/dev/client3/rdock/2013.1/src/exe/rbdock.cxx#4 $)

>  <Rbt.Library>
libRbt.so (2013.1, Build901 2013/11/27)

>  <Rbt.Parameter_File>
/export/apps/rDock/src/rDock_2013.1_src/data/scripts/dock_solv.prm

>  <Rbt.Receptor>
prm/blind_docking_60.prm

>  <SCORE>
-5.57596

>  <SCORE.INTER>
-6.34257

>  <SCORE.INTER.CONST>
1

>  <SCORE.INTER.POLAR>
0

>  <SCORE.INTER.ROT>
8

>  <SCORE.INTER.SOLV>
23.4005

>  <SCORE.INTER.VDW>
-20.9619

>  <SCORE.INTER.norm>
-0.23491

>  <SCORE.INTRA>
0.739126

>  <SCORE.INTRA.DIHEDRAL>
0.359248

>  <SCORE.INTRA.DIHEDRAL.0>
7.82666

>  <SCORE.INTRA.POLAR>
0

>  <SCORE.INTRA.POLAR.0>
0

>  <SCORE.INTRA.REPUL>
0

>  <SCORE.INTRA.REPUL.0>
0

>  <SCORE.INTRA.SOLV>
1.24555

>  <SCORE.INTRA.SOLV.lig_0>
-83.2758

>  <SCORE.INTRA.VDW>
-0.0632701

>  <SCORE.INTRA.VDW.0>
-3.26816

>  <SCORE.INTRA.norm>
0.0273751

>  <SCORE.RESTR>
0.0274925

>  <SCORE.RESTR.CAVITY>
0.0274925

>  <SCORE.RESTR.norm>
0.00101824

>  <SCORE.SYSTEM>
0

>  <SCORE.SYSTEM.CONST>
0

>  <SCORE.SYSTEM.DIHEDRAL>
0

>  <SCORE.SYSTEM.SOLV>
0

>  <SCORE.SYSTEM.norm>
0

>  <SCORE.heavy>
27

>  <SCORE.norm>
-0.206517

>  <RMSD>
8.099

$$$$
ligand
 OpenBabel11021811473D
libRbt.so/2013.1/901 2013/11/27
 27 28  0  0  0  0  0  0  0  0999 V2000
   -7.2716   45.8419   -4.3677 C   0  0  0  0  0  0  0  0  0  0  0  0
   -3.2137   44.2072   -9.6073 C   0  0  0  0  0  0  0  0  0  0  0  0
   -4.0056   41.9692  -11.4348 C   0  0  0  0  0  0  0  0  0  0  0  0
   -4.7325   40.8366  -10.7069 C   0  0  0  0  0  0  0  0  0  0  0  0
   -4.7599   41.0764   -9.2977 O   0  0  0  0  0  0  0  0  0  0  0  0
   -5.5757   40.0874   -8.3300 P   0  0  1  0  0  0  0  0  0  0  0  0
   -8.2506   39.3780   -7.7839 P   0  0  2  0  0  0  0  0  0  0  0  0
   -6.7126   44.5533  -12.1022 C   0  0  0  0  0  0  0  0  0  0  0  0
   -7.3139   45.8061   -6.8545 N   0  0  0  0  0  0  0  0  0  0  0  0
   -5.1884   38.5579   -8.6087 O   0  5  0  0  0  0  0  0  0  0  0  0
   -9.6526   39.6456   -8.1651 O   0  0  0  0  0  0  0  0  0  0  0  0
   -6.3632   45.6030  -11.2629 C   0  0  0  0  0  0  0  0  0  0  0  0
   -6.6175   46.0511   -5.7338 C   0  0  0  0  0  0  0  0  0  0  0  0
   -5.2911   40.3614   -6.7624 O   0  0  0  0  0  0  0  0  0  0  0  0
   -8.0075   39.6282   -6.2173 O   0  5  0  0  0  0  0  0  0  0  0  0
   -5.2285   45.4928  -10.4579 N   0  0  0  0  0  0  0  0  0  0  0  0
   -5.3485   46.4792   -5.7996 N   0  0  0  0  0  0  0  0  0  0  0  0
   -7.1755   40.2744   -8.5584 O   0  0  0  0  0  0  0  0  0  0  0  0
   -7.8747   37.8477   -8.0309 O   0  0  0  0  0  0  0  0  0  0  0  0
   -4.4586   44.3242  -10.4976 C   0  0  1  0  0  0  0  0  0  0  0  0
   -4.7586   46.6679   -6.9866 C   0  0  0  0  0  0  0  0  0  0  0  0
   -3.4997   47.0907   -7.0392 N   0  0  0  0  0  0  0  0  0  0  0  0
   -4.8099   43.2712  -11.3408 C   0  0  1  0  0  0  0  0  0  0  0  0
   -5.4575   46.4192   -8.1615 C   0  0  0  0  0  0  0  0  0  0  0  0
   -5.9409   43.3983  -12.1379 C   0  0  0  0  0  0  0  0  0  0  0  0
   -6.7711   45.9787   -8.0481 C   0  0  0  0  0  0  0  0  0  0  0  0
   -4.8560   46.6111   -9.5598 C   0  0  0  0  0  0  0  0  0  0  0  0
  1 13  1  0  0  0  0
  3  4  1  0  0  0  0
  4  5  1  0  0  0  0
  6  5  1  6  0  0  0
  6 10  1  0  0  0  0
  6 14  2  0  0  0  0
  6 18  1  0  0  0  0
  7 11  1  6  0  0  0
  7 15  1  0  0  0  0
  7 19  2  0  0  0  0
  7 18  1  0  0  0  0
  8 25  1  0  0  0  0
  8 12  1  0  0  0  0
  9 26  2  0  0  0  0
  9 13  1  0  0  0  0
 12 16  1  0  0  0  0
 13 17  2  0  0  0  0
 16 20  1  0  0  0  0
 16 27  1  0  0  0  0
 17 21  1  0  0  0  0
 20  2  1  6  0  0  0
 20 23  1  0  0  0  0
 21 22  1  0  0  0  0
 21 24  2  0  0  0  0
 23  3  1  6  0  0  0
 23 25  1  0  0  0  0
 24 27  1  0  0  0  0
 24 26  1  0  0  0  0
M  CHG  2  10  -1  15  -1
M  END
>  <CHROM.1>
-67.38873649,174.91306447,50.25903190,177.20006281,-177.26543005,104.75020935
137.69647092,92.76645956,-6.01289944,42.75198315,-8.53842909,1.00684483,1.06857141
0.49688811

>  <Name>
ligand

>  <RI>
0

>  <Rbt.Current_Directory>
/home/itssahil/PROJECTS/Mol_Feturizer/New_Systems/rnas/3D2V

>  <Rbt.Executable>
rbdock ($Id: //depot/dev/client3/rdock/2013.1/src/exe/rbdock.cxx#4 $)

>  <Rbt.Library>
libRbt.so (2013.1, Build901 2013/11/27)

>  <Rbt.Parameter_File>
/export/apps/rDock/src/rDock_2013.1_src/data/scripts/dock_solv.prm

>  <Rbt.Receptor>
prm/pocket_docking_8.prm

>  <SCORE>
-17.0703

>  <SCORE.INTER>
-16.424

>  <SCORE.INTER.CONST>
1

>  <SCORE.INTER.POLAR>
0

>  <SCORE.INTER.ROT>
8

>  <SCORE.INTER.SOLV>
13.2417

>  <SCORE.INTER.VDW>
-24.2966

>  <SCORE.INTER.norm>
-0.608297

>  <SCORE.INTRA>
-0.646324

>  <SCORE.INTRA.DIHEDRAL>
-2.15504

>  <SCORE.INTRA.DIHEDRAL.0>
7.82666

>  <SCORE.INTRA.POLAR>
0

>  <SCORE.INTRA.POLAR.0>
0

>  <SCORE.INTRA.REPUL>
0

>  <SCORE.INTRA.REPUL.0>
0

>  <SCORE.INTRA.SOLV>
2.2727

>  <SCORE.INTRA.SOLV.lig_0>
-83.2758

>  <SCORE.INTRA.VDW>
-0.705155

>  <SCORE.INTRA.VDW.0>
-3.26816

>  <SCORE.INTRA.norm>
-0.0239379

>  <SCORE.RESTR>
0

>  <SCORE.RESTR.CAVITY>
0

>  <SCORE.RESTR.norm>
0

>  <SCORE.SYSTEM>
0

>  <SCORE.SYSTEM.CONST>
0

>  <SCORE.SYSTEM.DIHEDRAL>
0

>  <SCORE.SYSTEM.SOLV>
0

>  <SCORE.SYSTEM.norm>
0

>  <SCORE.heavy>
27

>  <SCORE.norm>
-0.632235

>  <RMSD>
8.106

$$$$
ligand
 OpenBabel11021811463D
libRbt.so/2013.1/901 2013/11/27
 27 28  0  0  0  0  0  0  0  0999 V2000
   -4.1991   34.9785  -12.8841 C   0  0  0  0  0  0  0  0  0  0  0  0
   -6.3688   38.4294   -7.8061 C   0  0  0  0  0  0  0  0  0  0  0  0
   -4.6182   39.1539   -5.4854 C   0  0  0  0  0  0  0  0  0  0  0  0
   -5.1035   39.7161   -4.1479 C   0  0  0  0  0  0  0  0  0  0  0  0
   -6.4477   39.3061   -3.8845 O   0  0  0  0  0  0  0  0  0  0  0  0
   -7.2644   39.9631   -2.6674 P   0  0  1  0  0  0  0  0  0  0  0  0
   -5.4832   40.5690   -0.5658 P   0  0  2  0  0  0  0  0  0  0  0  0
   -5.2451   35.4507   -4.8991 C   0  0  0  0  0  0  0  0  0  0  0  0
   -5.5559   36.3369  -11.3025 N   0  0  0  0  0  0  0  0  0  0  0  0
   -7.3346   41.5571   -2.8133 O   0  5  0  0  0  0  0  0  0  0  0  0
   -4.2948   40.8497   -1.3973 O   0  0  0  0  0  0  0  0  0  0  0  0
   -6.0569   35.0931   -5.9674 C   0  0  0  0  0  0  0  0  0  0  0  0
   -5.0136   35.1461  -11.6010 C   0  0  0  0  0  0  0  0  0  0  0  0
   -8.7900   39.4365   -2.5740 O   0  0  0  0  0  0  0  0  0  0  0  0
   -5.0786   39.8884    0.8301 O   0  5  0  0  0  0  0  0  0  0  0  0
   -6.4178   36.0562   -6.9108 N   0  0  0  0  0  0  0  0  0  0  0  0
   -5.1793   34.0972  -10.7823 N   0  0  0  0  0  0  0  0  0  0  0  0
   -6.5515   39.5958   -1.2520 O   0  0  0  0  0  0  0  0  0  0  0  0
   -6.2374   41.9190   -0.1750 O   0  0  0  0  0  0  0  0  0  0  0  0
   -5.9657   37.3735   -6.7675 C   0  0  1  0  0  0  0  0  0  0  0  0
   -5.8890   34.2245   -9.6543 C   0  0  0  0  0  0  0  0  0  0  0  0
   -6.0447   33.1781   -8.8497 N   0  0  0  0  0  0  0  0  0  0  0  0
   -5.1505   37.7313   -5.6949 C   0  0  1  0  0  0  0  0  0  0  0  0
   -6.4586   35.4475   -9.3215 C   0  0  0  0  0  0  0  0  0  0  0  0
   -4.7981   36.7596   -4.7663 C   0  0  0  0  0  0  0  0  0  0  0  0
   -6.2642   36.5081  -10.1988 C   0  0  0  0  0  0  0  0  0  0  0  0
   -7.2861   35.6767   -8.0500 C   0  0  0  0  0  0  0  0  0  0  0  0
  1 13  1  0  0  0  0
  3  4  1  0  0  0  0
  4  5  1  0  0  0  0
  6  5  1  6  0  0  0
  6 10  1  0  0  0  0
  6 14  2  0  0  0  0
  6 18  1  0  0  0  0
  7 11  1  6  0  0  0
  7 15  1  0  0  0  0
  7 19  2  0  0  0  0
  7 18  1  0  0  0  0
  8 25  1  0  0  0  0
  8 12  1  0  0  0  0
  9 26  2  0  0  0  0
  9 13  1  0  0  0  0
 12 16  1  0  0  0  0
 13 17  2  0  0  0  0
 16 20  1  0  0  0  0
 16 27  1  0  0  0  0
 17 21  1  0  0  0  0
 20  2  1  6  0  0  0
 20 23  1  0  0  0  0
 21 22  1  0  0  0  0
 21 24  2  0  0  0  0
 23  3  1  6  0  0  0
 23 25  1  0  0  0  0
 24 27  1  0  0  0  0
 24 26  1  0  0  0  0
M  CHG  2  10  -1  15  -1
M  END
>  <CHROM.1>
-37.90255266,-169.79717895,56.90246279,93.77294727,-59.09339490,119.82119536
87.88502243,-99.93508361,-5.95682863,37.95563868,-5.35516731,1.20187483,1.43175498
-1.74547059

>  <Name>
ligand

>  <RI>
0

>  <Rbt.Current_Directory>
/home/itssahil/PROJECTS/Mol_Feturizer/New_Systems/rnas/3D2V

>  <Rbt.Executable>
rbdock ($Id: //depot/dev/client3/rdock/2013.1/src/exe/rbdock.cxx#4 $)

>  <Rbt.Library>
libRbt.so (2013.1, Build901 2013/11/27)

>  <Rbt.Parameter_File>
/export/apps/rDock/src/rDock_2013.1_src/data/scripts/dock_solv.prm

>  <Rbt.Receptor>
prm/blind_docking_100.prm

>  <SCORE>
-15.8486

>  <SCORE.INTER>
-15.9531

>  <SCORE.INTER.CONST>
1

>  <SCORE.INTER.POLAR>
0

>  <SCORE.INTER.ROT>
8

>  <SCORE.INTER.SOLV>
24.6807

>  <SCORE.INTER.VDW>
-27.7956

>  <SCORE.INTER.norm>
-0.590855

>  <SCORE.INTRA>
0.104491

>  <SCORE.INTRA.DIHEDRAL>
0.999772

>  <SCORE.INTRA.DIHEDRAL.0>
7.82666

>  <SCORE.INTRA.POLAR>
0

>  <SCORE.INTRA.POLAR.0>
0

>  <SCORE.INTRA.REPUL>
0

>  <SCORE.INTRA.REPUL.0>
0

>  <SCORE.INTRA.SOLV>
-0.596117

>  <SCORE.INTRA.SOLV.lig_0>
-83.2758

>  <SCORE.INTRA.VDW>
-0.0973362

>  <SCORE.INTRA.VDW.0>
-3.26816

>  <SCORE.INTRA.norm>
0.00387004

>  <SCORE.RESTR>
0

>  <SCORE.RESTR.CAVITY>
0

>  <SCORE.RESTR.norm>
0

>  <SCORE.SYSTEM>
0

>  <SCORE.SYSTEM.CONST>
0

>  <SCORE.SYSTEM.DIHEDRAL>
0

>  <SCORE.SYSTEM.SOLV>
0

>  <SCORE.SYSTEM.norm>
0

>  <SCORE.heavy>
27

>  <SCORE.norm>
-0.586985

>  <RMSD>
8.117

$$$$
ligand
 OpenBabel11021811473D
libRbt.so/2013.1/901 2013/11/27
 27 28  0  0  0  0  0  0  0  0999 V2000
   -7.1829   45.7926   -4.3453 C   0  0  0  0  0  0  0  0  0  0  0  0
   -3.2709   44.2568   -9.5483 C   0  0  0  0  0  0  0  0  0  0  0  0
   -4.0241   42.0097  -11.3810 C   0  0  0  0  0  0  0  0  0  0  0  0
   -4.7518   40.9079  -10.6084 C   0  0  0  0  0  0  0  0  0  0  0  0
   -4.9219   41.2786   -9.2380 O   0  0  0  0  0  0  0  0  0  0  0  0
   -5.6986   40.2978   -8.2306 P   0  0  1  0  0  0  0  0  0  0  0  0
   -8.3680   39.6822   -7.5585 P   0  0  2  0  0  0  0  0  0  0  0  0
   -6.6836   44.6123  -12.1586 C   0  0  0  0  0  0  0  0  0  0  0  0
   -7.2742   45.7823   -6.8310 N   0  0  0  0  0  0  0  0  0  0  0  0
   -5.1404   38.7998   -8.3385 O   0  5  0  0  0  0  0  0  0  0  0  0
   -8.5325   40.4534   -6.3092 O   0  0  0  0  0  0  0  0  0  0  0  0
   -6.3518   45.6662  -11.3176 C   0  0  0  0  0  0  0  0  0  0  0  0
   -6.5616   46.0323   -5.7216 C   0  0  0  0  0  0  0  0  0  0  0  0
   -5.5523   40.7388   -6.6822 O   0  0  0  0  0  0  0  0  0  0  0  0
   -7.9125   38.1719   -7.2633 O   0  5  0  0  0  0  0  0  0  0  0  0
   -5.2449   45.5530  -10.4752 N   0  0  0  0  0  0  0  0  0  0  0  0
   -5.3049   46.4919   -5.8078 N   0  0  0  0  0  0  0  0  0  0  0  0
   -7.2895   40.2915   -8.5707 O   0  0  0  0  0  0  0  0  0  0  0  0
   -9.7530   39.5609   -8.3402 O   0  0  0  0  0  0  0  0  0  0  0  0
   -4.4851   44.3771  -10.4796 C   0  0  1  0  0  0  0  0  0  0  0  0
   -4.7437   46.7076   -7.0040 C   0  0  0  0  0  0  0  0  0  0  0  0
   -3.4967   47.1616   -7.0767 N   0  0  0  0  0  0  0  0  0  0  0  0
   -4.8187   43.3198  -11.3246 C   0  0  1  0  0  0  0  0  0  0  0  0
   -5.4598   46.4545   -8.1676 C   0  0  0  0  0  0  0  0  0  0  0  0
   -5.9220   43.4500  -12.1591 C   0  0  0  0  0  0  0  0  0  0  0  0
   -6.7598   45.9808   -8.0331 C   0  0  0  0  0  0  0  0  0  0  0  0
   -4.8912   46.6759   -9.5753 C   0  0  0  0  0  0  0  0  0  0  0  0
  1 13  1  0  0  0  0
  3  4  1  0  0  0  0
  4  5  1  0  0  0  0
  6  5  1  6  0  0  0
  6 10  1  0  0  0  0
  6 14  2  0  0  0  0
  6 18  1  0  0  0  0
  7 11  1  1  0  0  0
  7 15  1  0  0  0  0
  7 19  2  0  0  0  0
  7 18  1  0  0  0  0
  8 25  1  0  0  0  0
  8 12  1  0  0  0  0
  9 26  2  0  0  0  0
  9 13  1  0  0  0  0
 12 16  1  0  0  0  0
 13 17  2  0  0  0  0
 16 20  1  0  0  0  0
 16 27  1  0  0  0  0
 17 21  1  0  0  0  0
 20  2  1  6  0  0  0
 20 23  1  0  0  0  0
 21 22  1  0  0  0  0
 21 24  2  0  0  0  0
 23  3  1  6  0  0  0
 23 25  1  0  0  0  0
 24 27  1  0  0  0  0
 24 26  1  0  0  0  0
M  CHG  2  10  -1  15  -1
M  END
>  <CHROM.1>
-59.66841085,178.28211843,49.12655297,-166.04176753,68.20308177,101.96076862
137.22153791,96.65166499,-6.07191306,42.88498972,-8.47531663,0.90337664,1.06029750
0.54289174

>  <Name>
ligand

>  <RI>
0

>  <Rbt.Current_Directory>
/home/itssahil/PROJECTS/Mol_Feturizer/New_Systems/rnas/3D2V

>  <Rbt.Executable>
rbdock ($Id: //depot/dev/client3/rdock/2013.1/src/exe/rbdock.cxx#4 $)

>  <Rbt.Library>
libRbt.so (2013.1, Build901 2013/11/27)

>  <Rbt.Parameter_File>
/export/apps/rDock/src/rDock_2013.1_src/data/scripts/dock_solv.prm

>  <Rbt.Receptor>
prm/pocket_docking_7.prm

>  <SCORE>
-14.902

>  <SCORE.INTER>
-13.2896

>  <SCORE.INTER.CONST>
1

>  <SCORE.INTER.POLAR>
0

>  <SCORE.INTER.ROT>
8

>  <SCORE.INTER.SOLV>
18.4967

>  <SCORE.INTER.VDW>
-23.9586

>  <SCORE.INTER.norm>
-0.492206

>  <SCORE.INTRA>
-1.61247

>  <SCORE.INTRA.DIHEDRAL>
-2.02731

>  <SCORE.INTRA.DIHEDRAL.0>
7.82666

>  <SCORE.INTRA.POLAR>
0

>  <SCORE.INTRA.POLAR.0>
0

>  <SCORE.INTRA.REPUL>
0

>  <SCORE.INTRA.REPUL.0>
0

>  <SCORE.INTRA.SOLV>
0.260542

>  <SCORE.INTRA.SOLV.lig_0>
-83.2758

>  <SCORE.INTRA.VDW>
-0.729083

>  <SCORE.INTRA.VDW.0>
-3.26816

>  <SCORE.INTRA.norm>
-0.0597211

>  <SCORE.RESTR>
0

>  <SCORE.RESTR.CAVITY>
0

>  <SCORE.RESTR.norm>
0

>  <SCORE.SYSTEM>
0

>  <SCORE.SYSTEM.CONST>
0

>  <SCORE.SYSTEM.DIHEDRAL>
0

>  <SCORE.SYSTEM.SOLV>
0

>  <SCORE.SYSTEM.norm>
0

>  <SCORE.heavy>
27

>  <SCORE.norm>
-0.551927

>  <RMSD>
8.134

$$$$
ligand
 OpenBabel11021811473D
libRbt.so/2013.1/901 2013/11/27
 27 28  0  0  0  0  0  0  0  0999 V2000
   -6.1952   37.7234   -9.3670 C   0  0  0  0  0  0  0  0  0  0  0  0
   -5.9803   44.5020  -11.7614 C   0  0  0  0  0  0  0  0  0  0  0  0
   -4.6927   46.5416   -9.9845 C   0  0  0  0  0  0  0  0  0  0  0  0
   -5.8049   46.1621   -9.0049 C   0  0  0  0  0  0  0  0  0  0  0  0
   -6.1540   47.2761   -8.1794 O   0  0  0  0  0  0  0  0  0  0  0  0
   -5.1773   47.7305   -6.9879 P   0  0  1  0  0  0  0  0  0  0  0  0
   -6.1950   45.8462   -5.1522 P   0  0  2  0  0  0  0  0  0  0  0  0
   -1.9040   44.0005  -10.4504 C   0  0  0  0  0  0  0  0  0  0  0  0
   -5.3946   40.0605   -9.6568 N   0  0  0  0  0  0  0  0  0  0  0  0
   -3.7466   48.1782   -7.5533 O   0  5  0  0  0  0  0  0  0  0  0  0
   -7.3928   45.6102   -5.9841 O   0  0  0  0  0  0  0  0  0  0  0  0
   -2.4812   43.0433  -11.2743 C   0  0  0  0  0  0  0  0  0  0  0  0
   -5.7263   38.8940  -10.2316 C   0  0  0  0  0  0  0  0  0  0  0  0
   -5.7548   48.9802   -6.1404 O   0  0  0  0  0  0  0  0  0  0  0  0
   -6.5179   46.8171   -3.9157 O   0  5  0  0  0  0  0  0  0  0  0  0
   -3.7995   43.2072  -11.7020 N   0  0  0  0  0  0  0  0  0  0  0  0
   -5.6503   38.7436  -11.5618 N   0  0  0  0  0  0  0  0  0  0  0  0
   -4.9676   46.5056   -5.9380 O   0  0  0  0  0  0  0  0  0  0  0  0
   -5.6782   44.4864   -4.4981 O   0  0  0  0  0  0  0  0  0  0  0  0
   -4.5296   44.3288  -11.2908 C   0  0  1  0  0  0  0  0  0  0  0  0
   -5.2422   39.7572  -12.3354 C   0  0  0  0  0  0  0  0  0  0  0  0
   -5.1729   39.5968  -13.6529 N   0  0  0  0  0  0  0  0  0  0  0  0
   -3.9491   45.2894  -10.4641 C   0  0  1  0  0  0  0  0  0  0  0  0
   -4.8954   40.9758  -11.7648 C   0  0  0  0  0  0  0  0  0  0  0  0
   -2.6347   45.1125  -10.0498 C   0  0  0  0  0  0  0  0  0  0  0  0
   -4.9865   41.0884  -10.3822 C   0  0  0  0  0  0  0  0  0  0  0  0
   -4.4176   42.1852  -12.5791 C   0  0  0  0  0  0  0  0  0  0  0  0
  1 13  1  0  0  0  0
  3  4  1  0  0  0  0
  4  5  1  0  0  0  0
  6  5  1  6  0  0  0
  6 10  1  0  0  0  0
  6 14  2  0  0  0  0
  6 18  1  0  0  0  0
  7 11  1  6  0  0  0
  7 15  1  0  0  0  0
  7 19  2  0  0  0  0
  7 18  1  0  0  0  0
  8 25  1  0  0  0  0
  8 12  1  0  0  0  0
  9 26  2  0  0  0  0
  9 13  1  0  0  0  0
 12 16  1  0  0  0  0
 13 17  2  0  0  0  0
 16 20  1  0  0  0  0
 16 27  1  0  0  0  0
 17 21  1  0  0  0  0
 20  2  1  6  0  0  0
 20 23  1  0  0  0  0
 21 22  1  0  0  0  0
 21 24  2  0  0  0  0
 23  3  1  6  0  0  0
 23 25  1  0  0  0  0
 24 27  1  0  0  0  0
 24 26  1  0  0  0  0
M  CHG  2  10  -1  15  -1
M  END
>  <CHROM.1>
157.84188889,-74.65570007,61.59550508,-59.83020664,43.09365756,68.67265390
-165.51262103,80.15750287,-5.13103895,44.19558807,-8.88341365,1.39938328
-1.10568029,-2.61685942

>  <Name>
ligand

>  <RI>
0

>  <Rbt.Current_Directory>
/home/itssahil/PROJECTS/Mol_Feturizer/New_Systems/rnas/3D2V

>  <Rbt.Executable>
rbdock ($Id: //depot/dev/client3/rdock/2013.1/src/exe/rbdock.cxx#4 $)

>  <Rbt.Library>
libRbt.so (2013.1, Build901 2013/11/27)

>  <Rbt.Parameter_File>
/export/apps/rDock/src/rDock_2013.1_src/data/scripts/dock_solv.prm

>  <Rbt.Receptor>
prm/pocket_docking_7.prm

>  <SCORE>
-15.5638

>  <SCORE.INTER>
-15.1939

>  <SCORE.INTER.CONST>
1

>  <SCORE.INTER.POLAR>
0

>  <SCORE.INTER.ROT>
8

>  <SCORE.INTER.SOLV>
18.4687

>  <SCORE.INTER.VDW>
-25.2189

>  <SCORE.INTER.norm>
-0.562738

>  <SCORE.INTRA>
-0.369834

>  <SCORE.INTRA.DIHEDRAL>
0.452215

>  <SCORE.INTRA.DIHEDRAL.0>
7.82666

>  <SCORE.INTRA.POLAR>
0

>  <SCORE.INTRA.POLAR.0>
0

>  <SCORE.INTRA.REPUL>
0

>  <SCORE.INTRA.REPUL.0>
0

>  <SCORE.INTRA.SOLV>
-1.39042

>  <SCORE.INTRA.SOLV.lig_0>
-83.2758

>  <SCORE.INTRA.VDW>
0.0992701

>  <SCORE.INTRA.VDW.0>
-3.26816

>  <SCORE.INTRA.norm>
-0.0136975

>  <SCORE.RESTR>
0

>  <SCORE.RESTR.CAVITY>
0

>  <SCORE.RESTR.norm>
0

>  <SCORE.SYSTEM>
0

>  <SCORE.SYSTEM.CONST>
0

>  <SCORE.SYSTEM.DIHEDRAL>
0

>  <SCORE.SYSTEM.SOLV>
0

>  <SCORE.SYSTEM.norm>
0

>  <SCORE.heavy>
27

>  <SCORE.norm>
-0.576436

>  <RMSD>
8.171

$$$$
ligand
 OpenBabel11021811463D
libRbt.so/2013.1/901 2013/11/27
 27 28  0  0  0  0  0  0  0  0999 V2000
   -8.5075   38.9082   -7.9629 C   0  0  0  0  0  0  0  0  0  0  0  0
   -4.6812   31.9641   -7.5131 C   0  0  0  0  0  0  0  0  0  0  0  0
   -1.7077   32.1235   -7.1842 C   0  0  0  0  0  0  0  0  0  0  0  0
   -0.5376   32.8833   -7.8121 C   0  0  0  0  0  0  0  0  0  0  0  0
   -1.0026   34.0409   -8.5107 O   0  0  0  0  0  0  0  0  0  0  0  0
    0.0466   35.1375   -9.0367 P   0  0  1  0  0  0  0  0  0  0  0  0
   -0.5020   34.9206  -11.7950 P   0  0  2  0  0  0  0  0  0  0  0  0
   -2.9174   34.9840   -4.9921 C   0  0  0  0  0  0  0  0  0  0  0  0
   -7.9928   36.4883   -8.2200 N   0  0  0  0  0  0  0  0  0  0  0  0
    0.2303   36.3187   -7.9698 O   0  5  0  0  0  0  0  0  0  0  0  0
    0.8210   34.7183  -12.4204 O   0  0  0  0  0  0  0  0  0  0  0  0
   -4.2979   34.9276   -5.1299 C   0  0  0  0  0  0  0  0  0  0  0  0
   -7.9293   37.5877   -7.4531 C   0  0  0  0  0  0  0  0  0  0  0  0
    1.5172   34.5240   -9.3097 O   0  0  0  0  0  0  0  0  0  0  0  0
   -1.5126   35.6780  -12.7853 O   0  5  0  0  0  0  0  0  0  0  0  0
   -4.8695   33.9478   -5.9429 N   0  0  0  0  0  0  0  0  0  0  0  0
   -7.3617   37.5403   -6.2393 N   0  0  0  0  0  0  0  0  0  0  0  0
   -0.4670   35.7745  -10.4427 O   0  0  0  0  0  0  0  0  0  0  0  0
   -1.1980   33.5231  -11.4686 O   0  0  0  0  0  0  0  0  0  0  0  0
   -4.0472   33.0373   -6.6174 C   0  0  1  0  0  0  0  0  0  0  0  0
   -6.8502   36.3933   -5.7756 C   0  0  0  0  0  0  0  0  0  0  0  0
   -6.2918   36.3581   -4.5701 N   0  0  0  0  0  0  0  0  0  0  0  0
   -2.6614   33.0944   -6.4780 C   0  0  1  0  0  0  0  0  0  0  0  0
   -6.9055   35.2404   -6.5494 C   0  0  0  0  0  0  0  0  0  0  0  0
   -2.1087   34.0743   -5.6624 C   0  0  0  0  0  0  0  0  0  0  0  0
   -7.5006   35.3340   -7.8022 C   0  0  0  0  0  0  0  0  0  0  0  0
   -6.3425   33.8881   -6.0930 C   0  0  0  0  0  0  0  0  0  0  0  0
  1 13  1  0  0  0  0
  3  4  1  0  0  0  0
  4  5  1  0  0  0  0
  6  5  1  1  0  0  0
  6 10  1  0  0  0  0
  6 14  2  0  0  0  0
  6 18  1  0  0  0  0
  7 11  1  6  0  0  0
  7 15  1  0  0  0  0
  7 19  2  0  0  0  0
  7 18  1  0  0  0  0
  8 25  1  0  0  0  0
  8 12  1  0  0  0  0
  9 26  2  0  0  0  0
  9 13  1  0  0  0  0
 12 16  1  0  0  0  0
 13 17  2  0  0  0  0
 16 20  1  0  0  0  0
 16 27  1  0  0  0  0
 17 21  1  0  0  0  0
 20  2  1  1  0  0  0
 20 23  1  0  0  0  0
 21 22  1  0  0  0  0
 21 24  2  0  0  0  0
 23  3  1  1  0  0  0
 23 25  1  0  0  0  0
 24 27  1  0  0  0  0
 24 26  1  0  0  0  0
M  CHG  2  10  -1  15  -1
M  END
>  <CHROM.1>
-45.51908381,169.38522513,-93.83150784,-69.13965668,-75.95018349,134.33642658
-65.13654297,54.33622032,-3.10357802,34.94954530,-8.21056368,2.78972448,-0.43785630
2.08441653

>  <Name>
ligand

>  <RI>
0

>  <Rbt.Current_Directory>
/home/itssahil/PROJECTS/Mol_Feturizer/New_Systems/rnas/3D2V

>  <Rbt.Executable>
rbdock ($Id: //depot/dev/client3/rdock/2013.1/src/exe/rbdock.cxx#4 $)

>  <Rbt.Library>
libRbt.so (2013.1, Build901 2013/11/27)

>  <Rbt.Parameter_File>
/export/apps/rDock/src/rDock_2013.1_src/data/scripts/dock_solv.prm

>  <Rbt.Receptor>
prm/blind_docking_40.prm

>  <SCORE>
-6.60672

>  <SCORE.INTER>
-9.94347

>  <SCORE.INTER.CONST>
1

>  <SCORE.INTER.POLAR>
0

>  <SCORE.INTER.ROT>
8

>  <SCORE.INTER.SOLV>
33.1507

>  <SCORE.INTER.VDW>
-26.6126

>  <SCORE.INTER.norm>
-0.368277

>  <SCORE.INTRA>
2.23612

>  <SCORE.INTRA.DIHEDRAL>
0.621124

>  <SCORE.INTRA.DIHEDRAL.0>
7.82666

>  <SCORE.INTRA.POLAR>
0

>  <SCORE.INTRA.POLAR.0>
0

>  <SCORE.INTRA.REPUL>
0

>  <SCORE.INTRA.REPUL.0>
0

>  <SCORE.INTRA.SOLV>
1.1804

>  <SCORE.INTRA.SOLV.lig_0>
-83.2758

>  <SCORE.INTRA.VDW>
1.33535

>  <SCORE.INTRA.VDW.0>
-3.26816

>  <SCORE.INTRA.norm>
0.0828191

>  <SCORE.RESTR>
1.10063

>  <SCORE.RESTR.CAVITY>
1.10063

>  <SCORE.RESTR.norm>
0.0407642

>  <SCORE.SYSTEM>
0

>  <SCORE.SYSTEM.CONST>
0

>  <SCORE.SYSTEM.DIHEDRAL>
0

>  <SCORE.SYSTEM.SOLV>
0

>  <SCORE.SYSTEM.norm>
0

>  <SCORE.heavy>
27

>  <SCORE.norm>
-0.244693

>  <RMSD>
8.175

$$$$
ligand
 OpenBabel11021811473D
libRbt.so/2013.1/901 2013/11/27
 27 28  0  0  0  0  0  0  0  0999 V2000
   -1.0743   42.9973  -10.8782 C   0  0  0  0  0  0  0  0  0  0  0  0
   -4.5771   41.8579   -4.4516 C   0  0  0  0  0  0  0  0  0  0  0  0
   -7.5449   42.2671   -4.4370 C   0  0  0  0  0  0  0  0  0  0  0  0
   -8.0530   41.3969   -5.5881 C   0  0  0  0  0  0  0  0  0  0  0  0
   -6.9763   41.0167   -6.4485 O   0  0  0  0  0  0  0  0  0  0  0  0
   -7.1845   39.8443   -7.5265 P   0  0  1  0  0  0  0  0  0  0  0  0
   -5.6297   38.1366   -5.9070 P   0  0  2  0  0  0  0  0  0  0  0  0
   -6.2867   45.5318   -5.9236 C   0  0  0  0  0  0  0  0  0  0  0  0
   -2.5882   42.6020   -8.9445 N   0  0  0  0  0  0  0  0  0  0  0  0
   -8.6755   39.8576   -8.1129 O   0  5  0  0  0  0  0  0  0  0  0  0
   -4.3705   38.7121   -6.4226 O   0  0  0  0  0  0  0  0  0  0  0  0
   -4.9085   45.3627   -5.9401 C   0  0  0  0  0  0  0  0  0  0  0  0
   -1.5401   43.2721   -9.4480 C   0  0  0  0  0  0  0  0  0  0  0  0
   -6.1855   39.9655   -8.7918 O   0  0  0  0  0  0  0  0  0  0  0  0
   -5.5186   36.5464   -5.7214 O   0  5  0  0  0  0  0  0  0  0  0  0
   -4.3549   44.1721   -5.4672 N   0  0  0  0  0  0  0  0  0  0  0  0
   -0.8942   44.1840   -8.7069 N   0  0  0  0  0  0  0  0  0  0  0  0
   -6.9026   38.3964   -6.8403 O   0  0  0  0  0  0  0  0  0  0  0  0
   -5.9663   38.7090   -4.4568 O   0  0  0  0  0  0  0  0  0  0  0  0
   -5.1918   43.1639   -4.9738 C   0  0  1  0  0  0  0  0  0  0  0  0
   -1.2875   44.4385   -7.4528 C   0  0  0  0  0  0  0  0  0  0  0  0
   -0.6406   45.3459   -6.7285 N   0  0  0  0  0  0  0  0  0  0  0  0
   -6.5752   43.3344   -4.9581 C   0  0  1  0  0  0  0  0  0  0  0  0
   -2.3713   43.7598   -6.9091 C   0  0  0  0  0  0  0  0  0  0  0  0
   -7.1102   44.5247   -5.4354 C   0  0  0  0  0  0  0  0  0  0  0  0
   -3.0111   42.8215   -7.7108 C   0  0  0  0  0  0  0  0  0  0  0  0
   -2.8842   43.9913   -5.4818 C   0  0  0  0  0  0  0  0  0  0  0  0
  1 13  1  0  0  0  0
  3  4  1  0  0  0  0
  4  5  1  0  0  0  0
  6  5  1  1  0  0  0
  6 10  1  0  0  0  0
  6 14  2  0  0  0  0
  6 18  1  0  0  0  0
  7 11  1  6  0  0  0
  7 15  1  0  0  0  0
  7 19  2  0  0  0  0
  7 18  1  0  0  0  0
  8 25  1  0  0  0  0
  8 12  1  0  0  0  0
  9 26  2  0  0  0  0
  9 13  1  0  0  0  0
 12 16  1  0  0  0  0
 13 17  2  0  0  0  0
 16 20  1  0  0  0  0
 16 27  1  0  0  0  0
 17 21  1  0  0  0  0
 20  2  1  6  0  0  0
 20 23  1  0  0  0  0
 21 22  1  0  0  0  0
 21 24  2  0  0  0  0
 23  3  1  6  0  0  0
 23 25  1  0  0  0  0
 24 27  1  0  0  0  0
 24 26  1  0  0  0  0
M  CHG  2  10  -1  15  -1
M  END
>  <CHROM.1>
44.97732012,166.11688572,34.83280643,-45.56366249,-43.25319503,-94.40250424
131.93090958,-73.41123116,-4.95631442,41.63904727,-6.67078726,-0.68425604
-0.57548893,-2.81091915

>  <Name>
ligand

>  <RI>
0

>  <Rbt.Current_Directory>
/home/itssahil/PROJECTS/Mol_Feturizer/New_Systems/rnas/3D2V

>  <Rbt.Executable>
rbdock ($Id: //depot/dev/client3/rdock/2013.1/src/exe/rbdock.cxx#4 $)

>  <Rbt.Library>
libRbt.so (2013.1, Build901 2013/11/27)

>  <Rbt.Parameter_File>
/export/apps/rDock/src/rDock_2013.1_src/data/scripts/dock_solv.prm

>  <Rbt.Receptor>
prm/pocket_docking_6.prm

>  <SCORE>
-7.72293

>  <SCORE.INTER>
-6.22409

>  <SCORE.INTER.CONST>
1

>  <SCORE.INTER.POLAR>
0

>  <SCORE.INTER.ROT>
8

>  <SCORE.INTER.SOLV>
16.0012

>  <SCORE.INTER.VDW>
-18.4165

>  <SCORE.INTER.norm>
-0.230522

>  <SCORE.INTRA>
-1.49884

>  <SCORE.INTRA.DIHEDRAL>
0.763614

>  <SCORE.INTRA.DIHEDRAL.0>
7.82666

>  <SCORE.INTRA.POLAR>
0

>  <SCORE.INTRA.POLAR.0>
0

>  <SCORE.INTRA.REPUL>
0

>  <SCORE.INTRA.REPUL.0>
0

>  <SCORE.INTRA.SOLV>
-0.889654

>  <SCORE.INTRA.SOLV.lig_0>
-83.2758

>  <SCORE.INTRA.VDW>
-1.43582

>  <SCORE.INTRA.VDW.0>
-3.26816

>  <SCORE.INTRA.norm>
-0.0555125

>  <SCORE.RESTR>
0

>  <SCORE.RESTR.CAVITY>
0

>  <SCORE.RESTR.norm>
0

>  <SCORE.SYSTEM>
0

>  <SCORE.SYSTEM.CONST>
0

>  <SCORE.SYSTEM.DIHEDRAL>
0

>  <SCORE.SYSTEM.SOLV>
0

>  <SCORE.SYSTEM.norm>
0

>  <SCORE.heavy>
27

>  <SCORE.norm>
-0.286035

>  <RMSD>
8.201

$$$$
ligand
 OpenBabel11021811463D
libRbt.so/2013.1/901 2013/11/27
 27 28  0  0  0  0  0  0  0  0999 V2000
   -5.2342   39.1956  -12.5254 C   0  0  0  0  0  0  0  0  0  0  0  0
   -8.1816   37.8376   -7.3915 C   0  0  0  0  0  0  0  0  0  0  0  0
   -7.0571   38.3393   -4.6603 C   0  0  0  0  0  0  0  0  0  0  0  0
   -5.8308   39.2475   -4.5502 C   0  0  0  0  0  0  0  0  0  0  0  0
   -6.2084   40.5572   -4.1185 O   0  0  0  0  0  0  0  0  0  0  0  0
   -6.7917   40.7784   -2.6383 P   0  0  1  0  0  0  0  0  0  0  0  0
   -6.0121   40.3409    0.0370 P   0  0  2  0  0  0  0  0  0  0  0  0
   -5.5161   34.9838   -5.5645 C   0  0  0  0  0  0  0  0  0  0  0  0
   -5.6564   38.3470  -10.2257 N   0  0  0  0  0  0  0  0  0  0  0  0
   -7.0250   42.3346   -2.3365 O   0  5  0  0  0  0  0  0  0  0  0  0
   -7.1934   39.6106    0.5409 O   0  0  0  0  0  0  0  0  0  0  0  0
   -6.0254   34.7318   -6.8315 C   0  0  0  0  0  0  0  0  0  0  0  0
   -5.8226   38.1789  -11.5467 C   0  0  0  0  0  0  0  0  0  0  0  0
   -8.2107   40.0406   -2.4023 O   0  0  0  0  0  0  0  0  0  0  0  0
   -6.1292   41.9166    0.3180 O   0  5  0  0  0  0  0  0  0  0  0  0
   -6.8853   35.6571   -7.4248 N   0  0  0  0  0  0  0  0  0  0  0  0
   -6.5023   37.1242  -12.0195 N   0  0  0  0  0  0  0  0  0  0  0  0
   -5.7588   40.1781   -1.5341 O   0  0  0  0  0  0  0  0  0  0  0  0
   -4.6877   39.8738    0.7931 O   0  0  0  0  0  0  0  0  0  0  0  0
   -7.2326   36.8251   -6.7354 C   0  0  1  0  0  0  0  0  0  0  0  0
   -7.0246   36.2232  -11.1782 C   0  0  0  0  0  0  0  0  0  0  0  0
   -7.6946   35.1808  -11.6587 N   0  0  0  0  0  0  0  0  0  0  0  0
   -6.7204   37.0775   -5.4638 C   0  0  2  0  0  0  0  0  0  0  0  0
   -6.8643   36.3734   -9.8061 C   0  0  0  0  0  0  0  0  0  0  0  0
   -5.8632   36.1473   -4.8887 C   0  0  0  0  0  0  0  0  0  0  0  0
   -6.1549   37.4819   -9.3584 C   0  0  0  0  0  0  0  0  0  0  0  0
   -7.4316   35.3882   -8.7758 C   0  0  0  0  0  0  0  0  0  0  0  0
  1 13  1  0  0  0  0
  3  4  1  0  0  0  0
  4  5  1  0  0  0  0
  6  5  1  6  0  0  0
  6 10  1  0  0  0  0
  6 14  2  0  0  0  0
  6 18  1  0  0  0  0
  7 11  1  1  0  0  0
  7 15  1  0  0  0  0
  7 19  2  0  0  0  0
  7 18  1  0  0  0  0
  8 25  1  0  0  0  0
  8 12  1  0  0  0  0
  9 26  2  0  0  0  0
  9 13  1  0  0  0  0
 12 16  1  0  0  0  0
 13 17  2  0  0  0  0
 16 20  1  0  0  0  0
 16 27  1  0  0  0  0
 17 21  1  0  0  0  0
 20  2  1  6  0  0  0
 20 23  1  0  0  0  0
 21 22  1  0  0  0  0
 21 24  2  0  0  0  0
 23  3  1  1  0  0  0
 23 25  1  0  0  0  0
 24 27  1  0  0  0  0
 24 26  1  0  0  0  0
M  CHG  2  10  -1  15  -1
M  END
>  <CHROM.1>
164.97012708,66.72320203,175.11474588,175.56061273,66.29520234,-110.61794034
168.95803313,-112.14431317,-6.50512666,38.50779494,-5.38313115,-1.90751372
1.49733728,1.53125325

>  <Name>
ligand

>  <RI>
0

>  <Rbt.Current_Directory>
/home/itssahil/PROJECTS/Mol_Feturizer/New_Systems/rnas/3D2V

>  <Rbt.Executable>
rbdock ($Id: //depot/dev/client3/rdock/2013.1/src/exe/rbdock.cxx#4 $)

>  <Rbt.Library>
libRbt.so (2013.1, Build901 2013/11/27)

>  <Rbt.Parameter_File>
/export/apps/rDock/src/rDock_2013.1_src/data/scripts/dock_solv.prm

>  <Rbt.Receptor>
prm/blind_docking_60.prm

>  <SCORE>
-9.93817

>  <SCORE.INTER>
-11.5946

>  <SCORE.INTER.CONST>
1

>  <SCORE.INTER.POLAR>
0

>  <SCORE.INTER.ROT>
8

>  <SCORE.INTER.SOLV>
25.1056

>  <SCORE.INTER.VDW>
-25.0316

>  <SCORE.INTER.norm>
-0.429428

>  <SCORE.INTRA>
1.65639

>  <SCORE.INTRA.DIHEDRAL>
-1.47646

>  <SCORE.INTRA.DIHEDRAL.0>
7.82666

>  <SCORE.INTRA.POLAR>
0

>  <SCORE.INTRA.POLAR.0>
0

>  <SCORE.INTRA.REPUL>
0

>  <SCORE.INTRA.REPUL.0>
0

>  <SCORE.INTRA.SOLV>
0.167202

>  <SCORE.INTRA.SOLV.lig_0>
-83.2758

>  <SCORE.INTRA.VDW>
2.31101

>  <SCORE.INTRA.VDW.0>
-3.26816

>  <SCORE.INTRA.norm>
0.0613476

>  <SCORE.RESTR>
0

>  <SCORE.RESTR.CAVITY>
0

>  <SCORE.RESTR.norm>
0

>  <SCORE.SYSTEM>
0

>  <SCORE.SYSTEM.CONST>
0

>  <SCORE.SYSTEM.DIHEDRAL>
0

>  <SCORE.SYSTEM.SOLV>
0

>  <SCORE.SYSTEM.norm>
0

>  <SCORE.heavy>
27

>  <SCORE.norm>
-0.36808

>  <RMSD>
8.204

$$$$
ligand
 OpenBabel11021811463D
libRbt.so/2013.1/901 2013/11/27
 27 28  0  0  0  0  0  0  0  0999 V2000
   -4.7312   39.5021   -4.6461 C   0  0  0  0  0  0  0  0  0  0  0  0
   -5.7092   33.9841   -9.2628 C   0  0  0  0  0  0  0  0  0  0  0  0
   -3.9966   33.8211  -11.7155 C   0  0  0  0  0  0  0  0  0  0  0  0
   -2.6418   33.9117  -11.0105 C   0  0  0  0  0  0  0  0  0  0  0  0
   -1.7372   34.7302  -11.7562 O   0  0  0  0  0  0  0  0  0  0  0  0
   -0.2210   34.9118  -11.2582 P   0  0  1  0  0  0  0  0  0  0  0  0
    0.7447   36.4553   -9.1037 P   0  0  2  0  0  0  0  0  0  0  0  0
   -5.5676   37.2661  -12.0547 C   0  0  0  0  0  0  0  0  0  0  0  0
   -5.5739   37.3730   -5.6178 N   0  0  0  0  0  0  0  0  0  0  0  0
    0.2059   33.7292  -10.2651 O   0  5  0  0  0  0  0  0  0  0  0  0
    1.0380   37.8434   -8.6917 O   0  0  0  0  0  0  0  0  0  0  0  0
   -6.3676   37.3628  -10.9239 C   0  0  0  0  0  0  0  0  0  0  0  0
   -5.4044   38.6968   -5.7580 C   0  0  0  0  0  0  0  0  0  0  0  0
    0.8467   34.9085  -12.4721 O   0  0  0  0  0  0  0  0  0  0  0  0
    2.0886   35.5951   -9.2760 O   0  5  0  0  0  0  0  0  0  0  0  0
   -6.4108   36.3022  -10.0179 N   0  0  0  0  0  0  0  0  0  0  0  0
   -5.8211   39.3237   -6.8677 N   0  0  0  0  0  0  0  0  0  0  0  0
   -0.0520   36.3335  -10.4856 O   0  0  0  0  0  0  0  0  0  0  0  0
   -0.1030   35.6958   -7.9863 O   0  0  0  0  0  0  0  0  0  0  0  0
   -5.6550   35.1490  -10.2609 C   0  0  1  0  0  0  0  0  0  0  0  0
   -6.4124   38.6355   -7.8522 C   0  0  0  0  0  0  0  0  0  0  0  0
   -6.8195   39.2675   -8.9482 N   0  0  0  0  0  0  0  0  0  0  0  0
   -4.8518   35.0530  -11.3961 C   0  0  1  0  0  0  0  0  0  0  0  0
   -6.5974   37.2636   -7.7322 C   0  0  0  0  0  0  0  0  0  0  0  0
   -4.8179   36.1193  -12.2865 C   0  0  0  0  0  0  0  0  0  0  0  0
   -6.1527   36.6537   -6.5648 C   0  0  0  0  0  0  0  0  0  0  0  0
   -7.2662   36.4030   -8.8121 C   0  0  0  0  0  0  0  0  0  0  0  0
  1 13  1  0  0  0  0
  3  4  1  0  0  0  0
  4  5  1  0  0  0  0
  6  5  1  6  0  0  0
  6 10  1  0  0  0  0
  6 14  2  0  0  0  0
  6 18  1  0  0  0  0
  7 11  1  1  0  0  0
  7 15  1  0  0  0  0
  7 19  2  0  0  0  0
  7 18  1  0  0  0  0
  8 25  1  0  0  0  0
  8 12  1  0  0  0  0
  9 26  2  0  0  0  0
  9 13  1  0  0  0  0
 12 16  1  0  0  0  0
 13 17  2  0  0  0  0
 16 20  1  0  0  0  0
 16 27  1  0  0  0  0
 17 21  1  0  0  0  0
 20  2  1  1  0  0  0
 20 23  1  0  0  0  0
 21 22  1  0  0  0  0
 21 24  2  0  0  0  0
 23  3  1  1  0  0  0
 23 25  1  0  0  0  0
 24 27  1  0  0  0  0
 24 26  1  0  0  0  0
M  CHG  2  10  -1  15  -1
M  END
>  <CHROM.1>
-81.97018056,-176.63918654,20.32463428,135.10558751,167.96124970,-85.57683579
69.08840218,-78.58486621,-3.08760641,36.27346566,-9.44979554,-2.64415181
0.07763552,-2.16282964

>  <Name>
ligand

>  <RI>
0

>  <Rbt.Current_Directory>
/home/itssahil/PROJECTS/Mol_Feturizer/New_Systems/rnas/3D2V

>  <Rbt.Executable>
rbdock ($Id: //depot/dev/client3/rdock/2013.1/src/exe/rbdock.cxx#4 $)

>  <Rbt.Library>
libRbt.so (2013.1, Build901 2013/11/27)

>  <Rbt.Parameter_File>
/export/apps/rDock/src/rDock_2013.1_src/data/scripts/dock_solv.prm

>  <Rbt.Receptor>
prm/blind_docking_60.prm

>  <SCORE>
-10.444

>  <SCORE.INTER>
-13.9268

>  <SCORE.INTER.CONST>
1

>  <SCORE.INTER.POLAR>
0

>  <SCORE.INTER.ROT>
8

>  <SCORE.INTER.SOLV>
32.3462

>  <SCORE.INTER.VDW>
-28.9999

>  <SCORE.INTER.norm>
-0.515807

>  <SCORE.INTRA>
2.95244

>  <SCORE.INTRA.DIHEDRAL>
3.10067

>  <SCORE.INTRA.DIHEDRAL.0>
7.82666

>  <SCORE.INTRA.POLAR>
0

>  <SCORE.INTRA.POLAR.0>
0

>  <SCORE.INTRA.REPUL>
0

>  <SCORE.INTRA.REPUL.0>
0

>  <SCORE.INTRA.SOLV>
3.03846

>  <SCORE.INTRA.SOLV.lig_0>
-83.2758

>  <SCORE.INTRA.VDW>
-0.117129

>  <SCORE.INTRA.VDW.0>
-3.26816

>  <SCORE.INTRA.norm>
0.10935

>  <SCORE.RESTR>
0.530331

>  <SCORE.RESTR.CAVITY>
0.530331

>  <SCORE.RESTR.norm>
0.0196419

>  <SCORE.SYSTEM>
0

>  <SCORE.SYSTEM.CONST>
0

>  <SCORE.SYSTEM.DIHEDRAL>
0

>  <SCORE.SYSTEM.SOLV>
0

>  <SCORE.SYSTEM.norm>
0

>  <SCORE.heavy>
27

>  <SCORE.norm>
-0.386815

>  <RMSD>
8.213

$$$$
ligand
 OpenBabel11021811463D
libRbt.so/2013.1/901 2013/11/27
 27 28  0  0  0  0  0  0  0  0999 V2000
   -4.8936   35.4578   -3.7592 C   0  0  0  0  0  0  0  0  0  0  0  0
   -5.8791   33.6211   -9.3704 C   0  0  0  0  0  0  0  0  0  0  0  0
   -3.9472   33.7638  -11.6558 C   0  0  0  0  0  0  0  0  0  0  0  0
   -2.5309   34.0535  -11.1549 C   0  0  0  0  0  0  0  0  0  0  0  0
   -2.4468   33.8678   -9.7397 O   0  0  0  0  0  0  0  0  0  0  0  0
   -1.0239   33.9599   -9.0003 P   0  0  1  0  0  0  0  0  0  0  0  0
    0.7934   36.0192   -9.6427 P   0  0  2  0  0  0  0  0  0  0  0  0
   -5.6509   37.1578  -11.8253 C   0  0  0  0  0  0  0  0  0  0  0  0
   -6.2245   34.5389   -5.6491 N   0  0  0  0  0  0  0  0  0  0  0  0
   -1.1046   33.3600   -7.5168 O   0  5  0  0  0  0  0  0  0  0  0  0
    2.0380   35.4102   -9.1301 O   0  0  0  0  0  0  0  0  0  0  0  0
   -6.5531   37.1131  -10.7706 C   0  0  0  0  0  0  0  0  0  0  0  0
   -5.6025   35.5972   -5.1067 C   0  0  0  0  0  0  0  0  0  0  0  0
    0.1410   33.1444   -9.7694 O   0  0  0  0  0  0  0  0  0  0  0  0
    0.8124   37.6167   -9.4896 O   0  5  0  0  0  0  0  0  0  0  0  0
   -6.6246   35.9699   -9.9734 N   0  0  0  0  0  0  0  0  0  0  0  0
   -5.5962   36.7809   -5.7368 N   0  0  0  0  0  0  0  0  0  0  0  0
   -0.5367   35.5097   -8.9146 O   0  0  0  0  0  0  0  0  0  0  0  0
    0.6265   35.7462  -11.2052 O   0  0  0  0  0  0  0  0  0  0  0  0
   -5.7935   34.8773  -10.2484 C   0  0  1  0  0  0  0  0  0  0  0  0
   -6.2111   36.9224   -6.9175 C   0  0  0  0  0  0  0  0  0  0  0  0
   -6.1964   38.1000   -7.5334 N   0  0  0  0  0  0  0  0  0  0  0  0
   -4.8879   34.9233  -11.3071 C   0  0  1  0  0  0  0  0  0  0  0  0
   -6.8603   35.8412   -7.5012 C   0  0  0  0  0  0  0  0  0  0  0  0
   -4.8273   36.0702  -12.0892 C   0  0  0  0  0  0  0  0  0  0  0  0
   -6.8445   34.6332   -6.8135 C   0  0  0  0  0  0  0  0  0  0  0  0
   -7.5887   35.9198   -8.8492 C   0  0  0  0  0  0  0  0  0  0  0  0
  1 13  1  0  0  0  0
  3  4  1  0  0  0  0
  4  5  1  0  0  0  0
  6  5  1  6  0  0  0
  6 10  1  0  0  0  0
  6 14  2  0  0  0  0
  6 18  1  0  0  0  0
  7 11  1  1  0  0  0
  7 15  1  0  0  0  0
  7 19  2  0  0  0  0
  7 18  1  0  0  0  0
  8 25  1  0  0  0  0
  8 12  1  0  0  0  0
  9 26  2  0  0  0  0
  9 13  1  0  0  0  0
 12 16  1  0  0  0  0
 13 17  2  0  0  0  0
 16 20  1  0  0  0  0
 16 27  1  0  0  0  0
 17 21  1  0  0  0  0
 20  2  1  1  0  0  0
 20 23  1  0  0  0  0
 21 22  1  0  0  0  0
 21 24  2  0  0  0  0
 23  3  1  1  0  0  0
 23 25  1  0  0  0  0
 24 27  1  0  0  0  0
 24 26  1  0  0  0  0
M  CHG  2  10  -1  15  -1
M  END
>  <CHROM.1>
75.80728123,173.48841288,-165.47030562,-117.13268061,-63.97077268,-102.34206723
74.38697621,-114.92237113,-3.31149477,35.33025210,-8.94080911,-2.84239093
0.10456653,-1.57869837

>  <Name>
ligand

>  <RI>
0

>  <Rbt.Current_Directory>
/home/itssahil/PROJECTS/Mol_Feturizer/New_Systems/rnas/3D2V

>  <Rbt.Executable>
rbdock ($Id: //depot/dev/client3/rdock/2013.1/src/exe/rbdock.cxx#4 $)

>  <Rbt.Library>
libRbt.so (2013.1, Build901 2013/11/27)

>  <Rbt.Parameter_File>
/export/apps/rDock/src/rDock_2013.1_src/data/scripts/dock_solv.prm

>  <Rbt.Receptor>
prm/blind_docking_40.prm

>  <SCORE>
-10.4174

>  <SCORE.INTER>
-12.5447

>  <SCORE.INTER.CONST>
1

>  <SCORE.INTER.POLAR>
0

>  <SCORE.INTER.ROT>
8

>  <SCORE.INTER.SOLV>
28.6893

>  <SCORE.INTER.VDW>
-26.8596

>  <SCORE.INTER.norm>
-0.46462

>  <SCORE.INTRA>
1.40891

>  <SCORE.INTRA.DIHEDRAL>
1.18109

>  <SCORE.INTRA.DIHEDRAL.0>
7.82666

>  <SCORE.INTRA.POLAR>
0

>  <SCORE.INTRA.POLAR.0>
0

>  <SCORE.INTRA.REPUL>
0

>  <SCORE.INTRA.REPUL.0>
0

>  <SCORE.INTRA.SOLV>
0.44741

>  <SCORE.INTRA.SOLV.lig_0>
-83.2758

>  <SCORE.INTRA.VDW>
0.594657

>  <SCORE.INTRA.VDW.0>
-3.26816

>  <SCORE.INTRA.norm>
0.0521817

>  <SCORE.RESTR>
0.718396

>  <SCORE.RESTR.CAVITY>
0.718396

>  <SCORE.RESTR.norm>
0.0266073

>  <SCORE.SYSTEM>
0

>  <SCORE.SYSTEM.CONST>
0

>  <SCORE.SYSTEM.DIHEDRAL>
0

>  <SCORE.SYSTEM.SOLV>
0

>  <SCORE.SYSTEM.norm>
0

>  <SCORE.heavy>
27

>  <SCORE.norm>
-0.385831

>  <RMSD>
8.227

$$$$
ligand
 OpenBabel11021811473D
libRbt.so/2013.1/901 2013/11/27
 27 28  0  0  0  0  0  0  0  0999 V2000
   -5.8821   38.0368  -11.6581 C   0  0  0  0  0  0  0  0  0  0  0  0
   -6.5546   44.5522  -11.8172 C   0  0  0  0  0  0  0  0  0  0  0  0
   -6.4201   46.2809   -9.3741 C   0  0  0  0  0  0  0  0  0  0  0  0
   -6.9478   45.4408   -8.2094 C   0  0  0  0  0  0  0  0  0  0  0  0
   -5.9268   45.2365   -7.2296 O   0  0  0  0  0  0  0  0  0  0  0  0
   -6.2016   44.2775   -5.9707 P   0  0  1  0  0  0  0  0  0  0  0  0
   -3.7930   44.9704   -4.6765 P   0  0  2  0  0  0  0  0  0  0  0  0
   -2.7807   45.3026   -9.8726 C   0  0  0  0  0  0  0  0  0  0  0  0
   -5.7778   40.0699  -13.0874 N   0  0  0  0  0  0  0  0  0  0  0  0
   -7.1377   44.9992   -4.8889 O   0  5  0  0  0  0  0  0  0  0  0  0
   -4.3653   45.8030   -3.5986 O   0  0  0  0  0  0  0  0  0  0  0  0
   -2.8203   44.4988  -11.0043 C   0  0  0  0  0  0  0  0  0  0  0  0
   -5.3979   39.4562  -11.9561 C   0  0  0  0  0  0  0  0  0  0  0  0
   -6.9389   42.8975   -6.3775 O   0  0  0  0  0  0  0  0  0  0  0  0
   -3.3213   45.8634   -5.9238 O   0  5  0  0  0  0  0  0  0  0  0  0
   -4.0412   44.2587  -11.6363 N   0  0  0  0  0  0  0  0  0  0  0  0
   -4.5947   40.0773  -11.0802 N   0  0  0  0  0  0  0  0  0  0  0  0
   -4.7960   43.8695   -5.2605 O   0  0  0  0  0  0  0  0  0  0  0  0
   -2.4802   44.2146   -4.1771 O   0  0  0  0  0  0  0  0  0  0  0  0
   -5.2141   44.8227  -11.1201 C   0  0  1  0  0  0  0  0  0  0  0  0
   -4.1603   41.3200  -11.3238 C   0  0  0  0  0  0  0  0  0  0  0  0
   -3.3630   41.9247  -10.4491 N   0  0  0  0  0  0  0  0  0  0  0  0
   -5.1733   45.6298   -9.9843 C   0  0  1  0  0  0  0  0  0  0  0  0
   -4.5375   41.9762  -12.4891 C   0  0  0  0  0  0  0  0  0  0  0  0
   -3.9491   45.8612   -9.3689 C   0  0  0  0  0  0  0  0  0  0  0  0
   -5.3726   41.2970  -13.3688 C   0  0  0  0  0  0  0  0  0  0  0  0
   -4.0853   43.3990  -12.8424 C   0  0  0  0  0  0  0  0  0  0  0  0
  1 13  1  0  0  0  0
  3  4  1  0  0  0  0
  4  5  1  0  0  0  0
  6  5  1  6  0  0  0
  6 10  1  0  0  0  0
  6 14  2  0  0  0  0
  6 18  1  0  0  0  0
  7 11  1  1  0  0  0
  7 15  1  0  0  0  0
  7 19  2  0  0  0  0
  7 18  1  0  0  0  0
  8 25  1  0  0  0  0
  8 12  1  0  0  0  0
  9 26  2  0  0  0  0
  9 13  1  0  0  0  0
 12 16  1  0  0  0  0
 13 17  2  0  0  0  0
 16 20  1  0  0  0  0
 16 27  1  0  0  0  0
 17 21  1  0  0  0  0
 20  2  1  6  0  0  0
 20 23  1  0  0  0  0
 21 22  1  0  0  0  0
 21 24  2  0  0  0  0
 23  3  1  6  0  0  0
 23 25  1  0  0  0  0
 24 27  1  0  0  0  0
 24 26  1  0  0  0  0
M  CHG  2  10  -1  15  -1
M  END
>  <CHROM.1>
55.78500165,-174.76359131,-75.72929473,58.72358194,61.01912811,97.38437497
-37.86737178,99.61442311,-4.93175899,43.69207445,-8.68702312,1.70371826,-1.38836694
-1.92050049

>  <Name>
ligand

>  <RI>
0

>  <Rbt.Current_Directory>
/home/itssahil/PROJECTS/Mol_Feturizer/New_Systems/rnas/3D2V

>  <Rbt.Executable>
rbdock ($Id: //depot/dev/client3/rdock/2013.1/src/exe/rbdock.cxx#4 $)

>  <Rbt.Library>
libRbt.so (2013.1, Build901 2013/11/27)

>  <Rbt.Parameter_File>
/export/apps/rDock/src/rDock_2013.1_src/data/scripts/dock_solv.prm

>  <Rbt.Receptor>
prm/pocket_docking_5.prm

>  <SCORE>
-12.3249

>  <SCORE.INTER>
-11.4436

>  <SCORE.INTER.CONST>
1

>  <SCORE.INTER.POLAR>
0

>  <SCORE.INTER.ROT>
8

>  <SCORE.INTER.SOLV>
11.8211

>  <SCORE.INTER.VDW>
-20.5028

>  <SCORE.INTER.norm>
-0.423836

>  <SCORE.INTRA>
-0.893235

>  <SCORE.INTRA.DIHEDRAL>
-2.04739

>  <SCORE.INTRA.DIHEDRAL.0>
7.82666

>  <SCORE.INTRA.POLAR>
0

>  <SCORE.INTRA.POLAR.0>
0

>  <SCORE.INTRA.REPUL>
0

>  <SCORE.INTRA.REPUL.0>
0

>  <SCORE.INTRA.SOLV>
1.58738

>  <SCORE.INTRA.SOLV.lig_0>
-83.2758

>  <SCORE.INTRA.VDW>
-0.663229

>  <SCORE.INTRA.VDW.0>
-3.26816

>  <SCORE.INTRA.norm>
-0.0330828

>  <SCORE.RESTR>
0.011949

>  <SCORE.RESTR.CAVITY>
0.011949

>  <SCORE.RESTR.norm>
0.000442554

>  <SCORE.SYSTEM>
0

>  <SCORE.SYSTEM.CONST>
0

>  <SCORE.SYSTEM.DIHEDRAL>
0

>  <SCORE.SYSTEM.SOLV>
0

>  <SCORE.SYSTEM.norm>
0

>  <SCORE.heavy>
27

>  <SCORE.norm>
-0.456477

>  <RMSD>
8.240

$$$$
ligand
 OpenBabel11021811473D
libRbt.so/2013.1/901 2013/11/27
 27 28  0  0  0  0  0  0  0  0999 V2000
   -6.0947   37.5074  -11.7431 C   0  0  0  0  0  0  0  0  0  0  0  0
   -2.9101   44.6067  -10.0160 C   0  0  0  0  0  0  0  0  0  0  0  0
   -4.8558   46.7863   -9.3538 C   0  0  0  0  0  0  0  0  0  0  0  0
   -5.9788   46.7906   -8.3148 C   0  0  0  0  0  0  0  0  0  0  0  0
   -5.7110   47.7449   -7.2843 O   0  0  0  0  0  0  0  0  0  0  0  0
   -4.6144   47.4225   -6.1557 P   0  0  1  0  0  0  0  0  0  0  0  0
   -1.8221   47.0824   -5.9463 P   0  0  2  0  0  0  0  0  0  0  0  0
   -6.6537   44.9151  -12.1318 C   0  0  0  0  0  0  0  0  0  0  0  0
   -5.0953   39.3963  -13.0160 N   0  0  0  0  0  0  0  0  0  0  0  0
   -4.5756   48.5746   -5.0430 O   0  5  0  0  0  0  0  0  0  0  0  0
   -1.8875   45.9316   -5.0221 O   0  0  0  0  0  0  0  0  0  0  0  0
   -5.7665   43.8967  -12.4543 C   0  0  0  0  0  0  0  0  0  0  0  0
   -5.4378   38.8857  -11.8231 C   0  0  0  0  0  0  0  0  0  0  0  0
   -4.8982   46.0338   -5.3783 O   0  0  0  0  0  0  0  0  0  0  0  0
   -1.5785   48.4587   -5.1577 O   0  5  0  0  0  0  0  0  0  0  0  0
   -4.5562   43.7942  -11.7671 N   0  0  0  0  0  0  0  0  0  0  0  0
   -5.2089   39.5745  -10.6956 N   0  0  0  0  0  0  0  0  0  0  0  0
   -3.1393   47.2927   -6.8294 O   0  0  0  0  0  0  0  0  0  0  0  0
   -0.5860   46.9425   -6.9444 O   0  0  0  0  0  0  0  0  0  0  0  0
   -4.2443   44.7221  -10.7661 C   0  0  1  0  0  0  0  0  0  0  0  0
   -4.6343   40.7827  -10.7455 C   0  0  0  0  0  0  0  0  0  0  0  0
   -4.4108   41.4551   -9.6211 N   0  0  0  0  0  0  0  0  0  0  0  0
   -5.1357   45.7438  -10.4428 C   0  0  1  0  0  0  0  0  0  0  0  0
   -4.2684   41.3324  -11.9681 C   0  0  0  0  0  0  0  0  0  0  0  0
   -6.3376   45.8298  -11.1347 C   0  0  0  0  0  0  0  0  0  0  0  0
   -4.5255   40.5859  -13.1123 C   0  0  0  0  0  0  0  0  0  0  0  0
   -3.6074   42.7095  -12.1119 C   0  0  0  0  0  0  0  0  0  0  0  0
  1 13  1  0  0  0  0
  3  4  1  0  0  0  0
  4  5  1  0  0  0  0
  6  5  1  6  0  0  0
  6 10  1  0  0  0  0
  6 14  2  0  0  0  0
  6 18  1  0  0  0  0
  7 11  1  1  0  0  0
  7 15  1  0  0  0  0
  7 19  2  0  0  0  0
  7 18  1  0  0  0  0
  8 25  1  0  0  0  0
  8 12  1  0  0  0  0
  9 26  2  0  0  0  0
  9 13  1  0  0  0  0
 12 16  1  0  0  0  0
 13 17  2  0  0  0  0
 16 20  1  0  0  0  0
 16 27  1  0  0  0  0
 17 21  1  0  0  0  0
 20  2  1  1  0  0  0
 20 23  1  0  0  0  0
 21 22  1  0  0  0  0
 21 24  2  0  0  0  0
 23  3  1  1  0  0  0
 23 25  1  0  0  0  0
 24 27  1  0  0  0  0
 24 26  1  0  0  0  0
M  CHG  2  10  -1  15  -1
M  END
>  <CHROM.1>
178.98738873,-75.58957442,-175.13323613,175.39571825,54.03722337,-123.90515572
-68.78042666,-57.21633883,-4.21680239,44.64356050,-8.95623954,-1.87094555
-0.80053870,0.49093433

>  <Name>
ligand

>  <RI>
0

>  <Rbt.Current_Directory>
/home/itssahil/PROJECTS/Mol_Feturizer/New_Systems/rnas/3D2V

>  <Rbt.Executable>
rbdock ($Id: //depot/dev/client3/rdock/2013.1/src/exe/rbdock.cxx#4 $)

>  <Rbt.Library>
libRbt.so (2013.1, Build901 2013/11/27)

>  <Rbt.Parameter_File>
/export/apps/rDock/src/rDock_2013.1_src/data/scripts/dock_solv.prm

>  <Rbt.Receptor>
prm/pocket_docking_6.prm

>  <SCORE>
-13.4481

>  <SCORE.INTER>
-13.4555

>  <SCORE.INTER.CONST>
1

>  <SCORE.INTER.POLAR>
0

>  <SCORE.INTER.ROT>
8

>  <SCORE.INTER.SOLV>
9.81072

>  <SCORE.INTER.VDW>
-21.1739

>  <SCORE.INTER.norm>
-0.498353

>  <SCORE.INTRA>
0.00745157

>  <SCORE.INTRA.DIHEDRAL>
-1.39297

>  <SCORE.INTRA.DIHEDRAL.0>
7.82666

>  <SCORE.INTRA.POLAR>
0

>  <SCORE.INTRA.POLAR.0>
0

>  <SCORE.INTRA.REPUL>
0

>  <SCORE.INTRA.REPUL.0>
0

>  <SCORE.INTRA.SOLV>
2.25125

>  <SCORE.INTRA.SOLV.lig_0>
-83.2758

>  <SCORE.INTRA.VDW>
-0.421689

>  <SCORE.INTRA.VDW.0>
-3.26816

>  <SCORE.INTRA.norm>
0.000275984

>  <SCORE.RESTR>
0

>  <SCORE.RESTR.CAVITY>
0

>  <SCORE.RESTR.norm>
0

>  <SCORE.SYSTEM>
0

>  <SCORE.SYSTEM.CONST>
0

>  <SCORE.SYSTEM.DIHEDRAL>
0

>  <SCORE.SYSTEM.SOLV>
0

>  <SCORE.SYSTEM.norm>
0

>  <SCORE.heavy>
27

>  <SCORE.norm>
-0.498077

>  <RMSD>
8.249

$$$$
ligand
 OpenBabel11021811463D
libRbt.so/2013.1/901 2013/11/27
 27 28  0  0  0  0  0  0  0  0999 V2000
   -4.7026   34.7066  -13.7114 C   0  0  0  0  0  0  0  0  0  0  0  0
   -7.1283   38.2706   -7.4393 C   0  0  0  0  0  0  0  0  0  0  0  0
   -5.5871   37.6849   -4.9379 C   0  0  0  0  0  0  0  0  0  0  0  0
   -6.7520   38.2054   -4.0937 C   0  0  0  0  0  0  0  0  0  0  0  0
   -6.2757   39.0341   -3.0304 O   0  0  0  0  0  0  0  0  0  0  0  0
   -5.7446   40.5173   -3.3436 P   0  0  1  0  0  0  0  0  0  0  0  0
   -5.4037   40.9634   -0.5794 P   0  0  2  0  0  0  0  0  0  0  0  0
   -6.1587   34.2090   -6.3671 C   0  0  0  0  0  0  0  0  0  0  0  0
   -5.0065   35.3285  -11.3223 N   0  0  0  0  0  0  0  0  0  0  0  0
   -4.2080   40.4963   -3.7969 O   0  5  0  0  0  0  0  0  0  0  0  0
   -5.5165   41.9861    0.4807 O   0  0  0  0  0  0  0  0  0  0  0  0
   -6.8734   34.4581   -7.5313 C   0  0  0  0  0  0  0  0  0  0  0  0
   -5.5763   35.0582  -12.5069 C   0  0  0  0  0  0  0  0  0  0  0  0
   -6.5693   41.2459   -4.5279 O   0  0  0  0  0  0  0  0  0  0  0  0
   -3.8894   40.4620   -0.7561 O   0  5  0  0  0  0  0  0  0  0  0  0
   -7.1842   35.7731   -7.8807 N   0  0  0  0  0  0  0  0  0  0  0  0
   -6.9095   35.0934  -12.6459 N   0  0  0  0  0  0  0  0  0  0  0  0
   -5.8899   41.4547   -2.0220 O   0  0  0  0  0  0  0  0  0  0  0  0
   -6.2400   39.6582   -0.2038 O   0  0  0  0  0  0  0  0  0  0  0  0
   -6.7805   36.8267   -7.0518 C   0  0  1  0  0  0  0  0  0  0  0  0
   -7.6909   35.3989  -11.6027 C   0  0  0  0  0  0  0  0  0  0  0  0
   -9.0112   35.4288  -11.7523 N   0  0  0  0  0  0  0  0  0  0  0  0
   -6.0627   36.5756   -5.8836 C   0  0  2  0  0  0  0  0  0  0  0  0
   -7.1255   35.6805  -10.3650 C   0  0  0  0  0  0  0  0  0  0  0  0
   -5.7590   35.2609   -5.5519 C   0  0  0  0  0  0  0  0  0  0  0  0
   -5.7397   35.6349  -10.2650 C   0  0  0  0  0  0  0  0  0  0  0  0
   -7.9490   36.0402   -9.1215 C   0  0  0  0  0  0  0  0  0  0  0  0
  1 13  1  0  0  0  0
  3  4  1  0  0  0  0
  4  5  1  0  0  0  0
  6  5  1  1  0  0  0
  6 10  1  0  0  0  0
  6 14  2  0  0  0  0
  6 18  1  0  0  0  0
  7 11  1  1  0  0  0
  7 15  1  0  0  0  0
  7 19  2  0  0  0  0
  7 18  1  0  0  0  0
  8 25  1  0  0  0  0
  8 12  1  0  0  0  0
  9 26  2  0  0  0  0
  9 13  1  0  0  0  0
 12 16  1  0  0  0  0
 13 17  2  0  0  0  0
 16 20  1  0  0  0  0
 16 27  1  0  0  0  0
 17 21  1  0  0  0  0
 20  2  1  6  0  0  0
 20 23  1  0  0  0  0
 21 22  1  0  0  0  0
 21 24  2  0  0  0  0
 23  3  1  1  0  0  0
 23 25  1  0  0  0  0
 24 27  1  0  0  0  0
 24 26  1  0  0  0  0
M  CHG  2  10  -1  15  -1
M  END
>  <CHROM.1>
168.15526274,74.06944673,-84.41268618,47.27320851,175.40522327,76.56346172
157.85215784,-67.13690382,-6.12535394,37.92277857,-5.97943533,-2.03922950
1.35502043,1.51461738

>  <Name>
ligand

>  <RI>
0

>  <Rbt.Current_Directory>
/home/itssahil/PROJECTS/Mol_Feturizer/New_Systems/rnas/3D2V

>  <Rbt.Executable>
rbdock ($Id: //depot/dev/client3/rdock/2013.1/src/exe/rbdock.cxx#4 $)

>  <Rbt.Library>
libRbt.so (2013.1, Build901 2013/11/27)

>  <Rbt.Parameter_File>
/export/apps/rDock/src/rDock_2013.1_src/data/scripts/dock_solv.prm

>  <Rbt.Receptor>
prm/blind_docking_60.prm

>  <SCORE>
-10.1001

>  <SCORE.INTER>
-10.8381

>  <SCORE.INTER.CONST>
1

>  <SCORE.INTER.POLAR>
0

>  <SCORE.INTER.ROT>
8

>  <SCORE.INTER.SOLV>
27.708

>  <SCORE.INTER.VDW>
-25.3947

>  <SCORE.INTER.norm>
-0.40141

>  <SCORE.INTRA>
0.661013

>  <SCORE.INTRA.DIHEDRAL>
-0.0569888

>  <SCORE.INTRA.DIHEDRAL.0>
7.82666

>  <SCORE.INTRA.POLAR>
0

>  <SCORE.INTRA.POLAR.0>
0

>  <SCORE.INTRA.REPUL>
0

>  <SCORE.INTRA.REPUL.0>
0

>  <SCORE.INTRA.SOLV>
1.3543

>  <SCORE.INTRA.SOLV.lig_0>
-83.2758

>  <SCORE.INTRA.VDW>
0.0123561

>  <SCORE.INTRA.VDW.0>
-3.26816

>  <SCORE.INTRA.norm>
0.024482

>  <SCORE.RESTR>
0.0769647

>  <SCORE.RESTR.CAVITY>
0.0769647

>  <SCORE.RESTR.norm>
0.00285055

>  <SCORE.SYSTEM>
0

>  <SCORE.SYSTEM.CONST>
0

>  <SCORE.SYSTEM.DIHEDRAL>
0

>  <SCORE.SYSTEM.SOLV>
0

>  <SCORE.SYSTEM.norm>
0

>  <SCORE.heavy>
27

>  <SCORE.norm>
-0.374077

>  <RMSD>
8.307

$$$$
ligand
 OpenBabel11021811473D
libRbt.so/2013.1/901 2013/11/27
 27 28  0  0  0  0  0  0  0  0999 V2000
   -5.3284   39.9559  -13.0439 C   0  0  0  0  0  0  0  0  0  0  0  0
   -6.1780   40.5348   -5.8499 C   0  0  0  0  0  0  0  0  0  0  0  0
   -7.6486   42.9059   -4.7587 C   0  0  0  0  0  0  0  0  0  0  0  0
   -7.4341   43.6458   -3.4369 C   0  0  0  0  0  0  0  0  0  0  0  0
   -6.3551   43.0643   -2.7008 O   0  0  0  0  0  0  0  0  0  0  0  0
   -5.9375   43.6705   -1.2732 P   0  0  1  0  0  0  0  0  0  0  0  0
   -5.9808   41.0479   -0.2356 P   0  0  2  0  0  0  0  0  0  0  0  0
   -4.8783   44.5370   -6.7876 C   0  0  0  0  0  0  0  0  0  0  0  0
   -5.4368   39.5012  -10.6008 N   0  0  0  0  0  0  0  0  0  0  0  0
   -4.8493   44.8350   -1.4366 O   0  5  0  0  0  0  0  0  0  0  0  0
   -7.4459   41.0599   -0.0466 O   0  0  0  0  0  0  0  0  0  0  0  0
   -4.1826   43.4522   -7.3045 C   0  0  0  0  0  0  0  0  0  0  0  0
   -4.9296   40.2446  -11.5964 C   0  0  0  0  0  0  0  0  0  0  0  0
   -7.1860   44.3095   -0.4692 O   0  0  0  0  0  0  0  0  0  0  0  0
   -5.2378   40.2840    0.9645 O   0  5  0  0  0  0  0  0  0  0  0  0
   -4.6052   42.1564   -7.0043 N   0  0  0  0  0  0  0  0  0  0  0  0
   -4.0730   41.2423  -11.3339 N   0  0  0  0  0  0  0  0  0  0  0  0
   -5.3173   42.5006   -0.3280 O   0  0  0  0  0  0  0  0  0  0  0  0
   -5.5828   40.2477   -1.5567 O   0  0  0  0  0  0  0  0  0  0  0  0
   -5.7199   41.9622   -6.1797 C   0  0  1  0  0  0  0  0  0  0  0  0
   -3.7122   41.5103  -10.0728 C   0  0  0  0  0  0  0  0  0  0  0  0
   -2.8639   42.5030   -9.8249 N   0  0  0  0  0  0  0  0  0  0  0  0
   -6.4179   43.0519   -5.6617 C   0  0  1  0  0  0  0  0  0  0  0  0
   -4.2251   40.7567   -9.0241 C   0  0  0  0  0  0  0  0  0  0  0  0
   -5.9857   44.3353   -5.9727 C   0  0  0  0  0  0  0  0  0  0  0  0
   -5.1082   39.7308   -9.3405 C   0  0  0  0  0  0  0  0  0  0  0  0
   -3.8621   40.9978   -7.5531 C   0  0  0  0  0  0  0  0  0  0  0  0
  1 13  1  0  0  0  0
  3  4  1  0  0  0  0
  4  5  1  0  0  0  0
  6  5  1  6  0  0  0
  6 10  1  0  0  0  0
  6 14  2  0  0  0  0
  6 18  1  0  0  0  0
  7 11  1  1  0  0  0
  7 15  1  0  0  0  0
  7 19  2  0  0  0  0
  7 18  1  0  0  0  0
  8 25  1  0  0  0  0
  8 12  1  0  0  0  0
  9 26  2  0  0  0  0
  9 13  1  0  0  0  0
 12 16  1  0  0  0  0
 13 17  2  0  0  0  0
 16 20  1  0  0  0  0
 16 27  1  0  0  0  0
 17 21  1  0  0  0  0
 20  2  1  6  0  0  0
 20 23  1  0  0  0  0
 21 22  1  0  0  0  0
 21 24  2  0  0  0  0
 23  3  1  6  0  0  0
 23 25  1  0  0  0  0
 24 27  1  0  0  0  0
 24 26  1  0  0  0  0
M  CHG  2  10  -1  15  -1
M  END
>  <CHROM.1>
-63.72745230,-179.99142636,-88.88245049,-43.20200803,-47.07546394,123.90237629
78.33048175,-78.16530099,-5.50847073,42.02595271,-4.99217746,0.11547456,-1.41250469
3.11456765

>  <Name>
ligand

>  <RI>
0

>  <Rbt.Current_Directory>
/home/itssahil/PROJECTS/Mol_Feturizer/New_Systems/rnas/3D2V

>  <Rbt.Executable>
rbdock ($Id: //depot/dev/client3/rdock/2013.1/src/exe/rbdock.cxx#4 $)

>  <Rbt.Library>
libRbt.so (2013.1, Build901 2013/11/27)

>  <Rbt.Parameter_File>
/export/apps/rDock/src/rDock_2013.1_src/data/scripts/dock_solv.prm

>  <Rbt.Receptor>
prm/pocket_docking_6.prm

>  <SCORE>
-11.6052

>  <SCORE.INTER>
-10.1526

>  <SCORE.INTER.CONST>
1

>  <SCORE.INTER.POLAR>
0

>  <SCORE.INTER.ROT>
8

>  <SCORE.INTER.SOLV>
20.2033

>  <SCORE.INTER.VDW>
-22.4362

>  <SCORE.INTER.norm>
-0.376022

>  <SCORE.INTRA>
-1.45256

>  <SCORE.INTRA.DIHEDRAL>
-0.712973

>  <SCORE.INTRA.DIHEDRAL.0>
7.82666

>  <SCORE.INTRA.POLAR>
0

>  <SCORE.INTRA.POLAR.0>
0

>  <SCORE.INTRA.REPUL>
0

>  <SCORE.INTRA.REPUL.0>
0

>  <SCORE.INTRA.SOLV>
-0.877608

>  <SCORE.INTRA.SOLV.lig_0>
-83.2758

>  <SCORE.INTRA.VDW>
-0.657267

>  <SCORE.INTRA.VDW.0>
-3.26816

>  <SCORE.INTRA.norm>
-0.0537984

>  <SCORE.RESTR>
0

>  <SCORE.RESTR.CAVITY>
0

>  <SCORE.RESTR.norm>
0

>  <SCORE.SYSTEM>
0

>  <SCORE.SYSTEM.CONST>
0

>  <SCORE.SYSTEM.DIHEDRAL>
0

>  <SCORE.SYSTEM.SOLV>
0

>  <SCORE.SYSTEM.norm>
0

>  <SCORE.heavy>
27

>  <SCORE.norm>
-0.429821

>  <RMSD>
8.310

$$$$
ligand
 OpenBabel11021811463D
libRbt.so/2013.1/901 2013/11/27
 27 28  0  0  0  0  0  0  0  0999 V2000
   -4.8016   34.5708  -13.6235 C   0  0  0  0  0  0  0  0  0  0  0  0
   -6.2900   38.3033   -7.8849 C   0  0  0  0  0  0  0  0  0  0  0  0
   -4.7881   37.7083   -5.3619 C   0  0  0  0  0  0  0  0  0  0  0  0
   -5.6416   38.7549   -4.6431 C   0  0  0  0  0  0  0  0  0  0  0  0
   -4.8273   39.5920   -3.8181 O   0  0  0  0  0  0  0  0  0  0  0  0
   -5.4617   40.8898   -3.1159 P   0  0  1  0  0  0  0  0  0  0  0  0
   -5.2632   40.8008   -0.3036 P   0  0  2  0  0  0  0  0  0  0  0  0
   -6.5726   34.4198   -6.0344 C   0  0  0  0  0  0  0  0  0  0  0  0
   -5.0594   35.5802  -11.3648 N   0  0  0  0  0  0  0  0  0  0  0  0
   -5.3727   42.1680   -4.0777 O   0  5  0  0  0  0  0  0  0  0  0  0
   -5.3848   39.3427   -0.0993 O   0  0  0  0  0  0  0  0  0  0  0  0
   -7.2767   34.6741   -7.2039 C   0  0  0  0  0  0  0  0  0  0  0  0
   -5.6455   34.9973  -12.4220 C   0  0  0  0  0  0  0  0  0  0  0  0
   -7.0215   40.7020   -2.7344 O   0  0  0  0  0  0  0  0  0  0  0  0
   -6.6831   41.5360   -0.1648 O   0  5  0  0  0  0  0  0  0  0  0  0
   -7.1825   35.9299   -7.8053 N   0  0  0  0  0  0  0  0  0  0  0  0
   -6.9693   34.7840  -12.4359 N   0  0  0  0  0  0  0  0  0  0  0  0
   -4.6740   41.2184   -1.7310 O   0  0  0  0  0  0  0  0  0  0  0  0
   -4.3358   41.4579    0.8154 O   0  0  0  0  0  0  0  0  0  0  0  0
   -6.3870   36.9228   -7.2209 C   0  0  1  0  0  0  0  0  0  0  0  0
   -7.7248   35.1502  -11.3930 C   0  0  0  0  0  0  0  0  0  0  0  0
   -9.0355   34.9318  -11.4175 N   0  0  0  0  0  0  0  0  0  0  0  0
   -5.6802   36.6664   -6.0472 C   0  0  2  0  0  0  0  0  0  0  0  0
   -7.1416   35.7535  -10.2854 C   0  0  0  0  0  0  0  0  0  0  0  0
   -5.7827   35.4098   -5.4629 C   0  0  0  0  0  0  0  0  0  0  0  0
   -5.7668   35.9579  -10.3131 C   0  0  0  0  0  0  0  0  0  0  0  0
   -7.9353   36.2036   -9.0520 C   0  0  0  0  0  0  0  0  0  0  0  0
  1 13  1  0  0  0  0
  3  4  1  0  0  0  0
  4  5  1  0  0  0  0
  6  5  1  6  0  0  0
  6 10  1  0  0  0  0
  6 14  2  0  0  0  0
  6 18  1  0  0  0  0
  7 11  1  1  0  0  0
  7 15  1  0  0  0  0
  7 19  2  0  0  0  0
  7 18  1  0  0  0  0
  8 25  1  0  0  0  0
  8 12  1  0  0  0  0
  9 26  2  0  0  0  0
  9 13  1  0  0  0  0
 12 16  1  0  0  0  0
 13 17  2  0  0  0  0
 16 20  1  0  0  0  0
 16 27  1  0  0  0  0
 17 21  1  0  0  0  0
 20  2  1  6  0  0  0
 20 23  1  0  0  0  0
 21 22  1  0  0  0  0
 21 24  2  0  0  0  0
 23  3  1  1  0  0  0
 23 25  1  0  0  0  0
 24 27  1  0  0  0  0
 24 26  1  0  0  0  0
M  CHG  2  10  -1  15  -1
M  END
>  <CHROM.1>
170.13627417,171.77442626,-88.02087174,-100.32410380,64.02655002,74.89373533
141.04997087,-85.73852738,-6.00003756,38.03680743,-5.86414752,-1.86717998
1.19281185,1.32246882

>  <Name>
ligand

>  <RI>
0

>  <Rbt.Current_Directory>
/home/itssahil/PROJECTS/Mol_Feturizer/New_Systems/rnas/3D2V

>  <Rbt.Executable>
rbdock ($Id: //depot/dev/client3/rdock/2013.1/src/exe/rbdock.cxx#4 $)

>  <Rbt.Library>
libRbt.so (2013.1, Build901 2013/11/27)

>  <Rbt.Parameter_File>
/export/apps/rDock/src/rDock_2013.1_src/data/scripts/dock_solv.prm

>  <Rbt.Receptor>
prm/blind_docking_60.prm

>  <SCORE>
-13.5973

>  <SCORE.INTER>
-13.8268

>  <SCORE.INTER.CONST>
1

>  <SCORE.INTER.POLAR>
0

>  <SCORE.INTER.ROT>
8

>  <SCORE.INTER.SOLV>
26.41

>  <SCORE.INTER.VDW>
-26.9545

>  <SCORE.INTER.norm>
-0.512103

>  <SCORE.INTRA>
0.229526

>  <SCORE.INTRA.DIHEDRAL>
0.956688

>  <SCORE.INTRA.DIHEDRAL.0>
7.82666

>  <SCORE.INTRA.POLAR>
0

>  <SCORE.INTRA.POLAR.0>
0

>  <SCORE.INTRA.REPUL>
0

>  <SCORE.INTRA.REPUL.0>
0

>  <SCORE.INTRA.SOLV>
-1.04483

>  <SCORE.INTRA.SOLV.lig_0>
-83.2758

>  <SCORE.INTRA.VDW>
0.273598

>  <SCORE.INTRA.VDW.0>
-3.26816

>  <SCORE.INTRA.norm>
0.00850096

>  <SCORE.RESTR>
2.79022e-06

>  <SCORE.RESTR.CAVITY>
2.79022e-06

>  <SCORE.RESTR.norm>
1.03341e-07

>  <SCORE.SYSTEM>
0

>  <SCORE.SYSTEM.CONST>
0

>  <SCORE.SYSTEM.DIHEDRAL>
0

>  <SCORE.SYSTEM.SOLV>
0

>  <SCORE.SYSTEM.norm>
0

>  <SCORE.heavy>
27

>  <SCORE.norm>
-0.503602

>  <RMSD>
8.335

$$$$
ligand
 OpenBabel11021811473D
libRbt.so/2013.1/901 2013/11/27
 27 28  0  0  0  0  0  0  0  0999 V2000
   -6.2932   44.9842  -11.7959 C   0  0  0  0  0  0  0  0  0  0  0  0
   -4.4422   44.3723   -5.7108 C   0  0  0  0  0  0  0  0  0  0  0  0
   -5.3816   42.1147   -3.9798 C   0  0  0  0  0  0  0  0  0  0  0  0
   -5.5990   40.9895   -4.9933 C   0  0  0  0  0  0  0  0  0  0  0  0
   -6.9084   40.4318   -4.8571 O   0  0  0  0  0  0  0  0  0  0  0  0
   -7.2089   39.3597   -3.6993 P   0  0  1  0  0  0  0  0  0  0  0  0
   -5.7824   37.4958   -5.2637 P   0  0  2  0  0  0  0  0  0  0  0  0
   -8.4191   44.3996   -4.0465 C   0  0  0  0  0  0  0  0  0  0  0  0
   -7.3734   45.2746   -9.5742 N   0  0  0  0  0  0  0  0  0  0  0  0
   -6.2546   39.5943   -2.4338 O   0  5  0  0  0  0  0  0  0  0  0  0
   -4.4632   38.0126   -4.8453 O   0  0  0  0  0  0  0  0  0  0  0  0
   -8.0042   45.4558   -4.8467 C   0  0  0  0  0  0  0  0  0  0  0  0
   -6.2708   45.4092  -10.3273 C   0  0  0  0  0  0  0  0  0  0  0  0
   -8.7295   39.4283   -3.1548 O   0  0  0  0  0  0  0  0  0  0  0  0
   -6.2109   38.0678   -6.7007 O   0  5  0  0  0  0  0  0  0  0  0  0
   -6.7182   45.4456   -5.3888 N   0  0  0  0  0  0  0  0  0  0  0  0
   -5.1448   45.9146   -9.8033 N   0  0  0  0  0  0  0  0  0  0  0  0
   -6.9765   37.8504   -4.2600 O   0  0  0  0  0  0  0  0  0  0  0  0
   -5.7459   35.9103   -5.4336 O   0  0  0  0  0  0  0  0  0  0  0  0
   -5.8567   44.3765   -5.1149 C   0  0  1  0  0  0  0  0  0  0  0  0
   -5.1059   46.2926   -8.5196 C   0  0  0  0  0  0  0  0  0  0  0  0
   -3.9846   46.7940   -8.0118 N   0  0  0  0  0  0  0  0  0  0  0  0
   -6.2743   43.3164   -4.3118 C   0  0  1  0  0  0  0  0  0  0  0  0
   -6.2348   46.1656   -7.7193 C   0  0  0  0  0  0  0  0  0  0  0  0
   -7.5588   43.3408   -3.7825 C   0  0  0  0  0  0  0  0  0  0  0  0
   -7.3802   45.6351   -8.3017 C   0  0  0  0  0  0  0  0  0  0  0  0
   -6.2733   46.5734   -6.2408 C   0  0  0  0  0  0  0  0  0  0  0  0
  1 13  1  0  0  0  0
  3  4  1  0  0  0  0
  4  5  1  0  0  0  0
  6  5  1  6  0  0  0
  6 10  1  0  0  0  0
  6 14  2  0  0  0  0
  6 18  1  0  0  0  0
  7 11  1  1  0  0  0
  7 15  1  0  0  0  0
  7 19  2  0  0  0  0
  7 18  1  0  0  0  0
  8 25  1  0  0  0  0
  8 12  1  0  0  0  0
  9 26  2  0  0  0  0
  9 13  1  0  0  0  0
 12 16  1  0  0  0  0
 13 17  2  0  0  0  0
 16 20  1  0  0  0  0
 16 27  1  0  0  0  0
 17 21  1  0  0  0  0
 20  2  1  6  0  0  0
 20 23  1  0  0  0  0
 21 22  1  0  0  0  0
 21 24  2  0  0  0  0
 23  3  1  6  0  0  0
 23 25  1  0  0  0  0
 24 27  1  0  0  0  0
 24 26  1  0  0  0  0
M  CHG  2  10  -1  15  -1
M  END
>  <CHROM.1>
-67.81197188,-80.25565574,28.84278654,38.27310382,48.56635599,-92.11265187
-124.99327266,-105.85899495,-6.31269603,42.11860280,-5.86163273,-1.43346111
-1.29118149,2.80153194

>  <Name>
ligand

>  <RI>
0

>  <Rbt.Current_Directory>
/home/itssahil/PROJECTS/Mol_Feturizer/New_Systems/rnas/3D2V

>  <Rbt.Executable>
rbdock ($Id: //depot/dev/client3/rdock/2013.1/src/exe/rbdock.cxx#4 $)

>  <Rbt.Library>
libRbt.so (2013.1, Build901 2013/11/27)

>  <Rbt.Parameter_File>
/export/apps/rDock/src/rDock_2013.1_src/data/scripts/dock_solv.prm

>  <Rbt.Receptor>
prm/pocket_docking_7.prm

>  <SCORE>
-9.77288

>  <SCORE.INTER>
-9.90025

>  <SCORE.INTER.CONST>
1

>  <SCORE.INTER.POLAR>
0

>  <SCORE.INTER.ROT>
8

>  <SCORE.INTER.SOLV>
13.3852

>  <SCORE.INTER.VDW>
-19.9952

>  <SCORE.INTER.norm>
-0.366676

>  <SCORE.INTRA>
0.127363

>  <SCORE.INTRA.DIHEDRAL>
1.60446

>  <SCORE.INTRA.DIHEDRAL.0>
7.82666

>  <SCORE.INTRA.POLAR>
0

>  <SCORE.INTRA.POLAR.0>
0

>  <SCORE.INTRA.REPUL>
0

>  <SCORE.INTRA.REPUL.0>
0

>  <SCORE.INTRA.SOLV>
0.642226

>  <SCORE.INTRA.SOLV.lig_0>
-83.2758

>  <SCORE.INTRA.VDW>
-0.99598

>  <SCORE.INTRA.VDW.0>
-3.26816

>  <SCORE.INTRA.norm>
0.00471716

>  <SCORE.RESTR>
0

>  <SCORE.RESTR.CAVITY>
0

>  <SCORE.RESTR.norm>
0

>  <SCORE.SYSTEM>
0

>  <SCORE.SYSTEM.CONST>
0

>  <SCORE.SYSTEM.DIHEDRAL>
0

>  <SCORE.SYSTEM.SOLV>
0

>  <SCORE.SYSTEM.norm>
0

>  <SCORE.heavy>
27

>  <SCORE.norm>
-0.361959

>  <RMSD>
8.343

$$$$
ligand
 OpenBabel11021811463D
libRbt.so/2013.1/901 2013/11/27
 27 28  0  0  0  0  0  0  0  0999 V2000
   -4.4596   34.4706  -14.0083 C   0  0  0  0  0  0  0  0  0  0  0  0
   -6.9368   35.3937   -6.3424 C   0  0  0  0  0  0  0  0  0  0  0  0
   -5.4601   37.5204   -4.8352 C   0  0  0  0  0  0  0  0  0  0  0  0
   -6.0734   38.7069   -4.0891 C   0  0  0  0  0  0  0  0  0  0  0  0
   -5.1473   39.7940   -4.0191 O   0  0  0  0  0  0  0  0  0  0  0  0
   -5.6424   41.2411   -3.5285 P   0  0  1  0  0  0  0  0  0  0  0  0
   -5.4081   40.8781   -0.7411 P   0  0  2  0  0  0  0  0  0  0  0  0
   -5.5073   38.9200   -8.3693 C   0  0  0  0  0  0  0  0  0  0  0  0
   -4.6168   34.8979  -11.5629 N   0  0  0  0  0  0  0  0  0  0  0  0
   -4.4254   42.2822   -3.4819 O   0  5  0  0  0  0  0  0  0  0  0  0
   -4.0039   40.5187   -1.0266 O   0  0  0  0  0  0  0  0  0  0  0  0
   -6.1900   37.9469   -9.0869 C   0  0  0  0  0  0  0  0  0  0  0  0
   -5.2480   34.8151  -12.7443 C   0  0  0  0  0  0  0  0  0  0  0  0
   -6.7682   41.8839   -4.4944 O   0  0  0  0  0  0  0  0  0  0  0  0
   -6.1509   39.7307    0.1000 O   0  5  0  0  0  0  0  0  0  0  0  0
   -6.6562   36.8069   -8.4305 N   0  0  0  0  0  0  0  0  0  0  0  0
   -6.5685   35.0322  -12.8284 N   0  0  0  0  0  0  0  0  0  0  0  0
   -6.2998   41.1344   -2.0442 O   0  0  0  0  0  0  0  0  0  0  0  0
   -5.4883   42.1869    0.1669 O   0  0  0  0  0  0  0  0  0  0  0  0
   -6.4249   36.6512   -7.0585 C   0  0  1  0  0  0  0  0  0  0  0  0
   -7.2758   35.3346  -11.7326 C   0  0  0  0  0  0  0  0  0  0  0  0
   -8.5845   35.5458  -11.8281 N   0  0  0  0  0  0  0  0  0  0  0  0
   -5.7398   37.6288   -6.3388 C   0  0  1  0  0  0  0  0  0  0  0  0
   -6.6460   35.4241  -10.4972 C   0  0  0  0  0  0  0  0  0  0  0  0
   -5.2849   38.7590   -7.0071 C   0  0  0  0  0  0  0  0  0  0  0  0
   -5.2758   35.1937  -10.4550 C   0  0  0  0  0  0  0  0  0  0  0  0
   -7.3827   35.7664   -9.1956 C   0  0  0  0  0  0  0  0  0  0  0  0
  1 13  1  0  0  0  0
  3  4  1  0  0  0  0
  4  5  1  0  0  0  0
  6  5  1  6  0  0  0
  6 10  1  0  0  0  0
  6 14  2  0  0  0  0
  6 18  1  0  0  0  0
  7 11  1  6  0  0  0
  7 15  1  0  0  0  0
  7 19  2  0  0  0  0
  7 18  1  0  0  0  0
  8 25  1  0  0  0  0
  8 12  1  0  0  0  0
  9 26  2  0  0  0  0
  9 13  1  0  0  0  0
 12 16  1  0  0  0  0
 13 17  2  0  0  0  0
 16 20  1  0  0  0  0
 16 27  1  0  0  0  0
 17 21  1  0  0  0  0
 20  2  1  1  0  0  0
 20 23  1  0  0  0  0
 21 22  1  0  0  0  0
 21 24  2  0  0  0  0
 23  3  1  1  0  0  0
 23 25  1  0  0  0  0
 24 27  1  0  0  0  0
 24 26  1  0  0  0  0
M  CHG  2  10  -1  15  -1
M  END
>  <CHROM.1>
-89.24165646,168.72660229,177.98715987,71.78360849,-10.06853676,-121.28398964
-132.73423797,46.84019061,-5.86347173,38.34489310,-6.22822815,-1.73972615
1.20926163,1.20288171

>  <Name>
ligand

>  <RI>
0

>  <Rbt.Current_Directory>
/home/itssahil/PROJECTS/Mol_Feturizer/New_Systems/rnas/3D2V

>  <Rbt.Executable>
rbdock ($Id: //depot/dev/client3/rdock/2013.1/src/exe/rbdock.cxx#4 $)

>  <Rbt.Library>
libRbt.so (2013.1, Build901 2013/11/27)

>  <Rbt.Parameter_File>
/export/apps/rDock/src/rDock_2013.1_src/data/scripts/dock_solv.prm

>  <Rbt.Receptor>
prm/blind_docking_60.prm

>  <SCORE>
-13.3728

>  <SCORE.INTER>
-13.9415

>  <SCORE.INTER.CONST>
1

>  <SCORE.INTER.POLAR>
0

>  <SCORE.INTER.ROT>
8

>  <SCORE.INTER.SOLV>
23.1845

>  <SCORE.INTER.VDW>
-25.9558

>  <SCORE.INTER.norm>
-0.516352

>  <SCORE.INTRA>
0.203356

>  <SCORE.INTRA.DIHEDRAL>
3.08357

>  <SCORE.INTRA.DIHEDRAL.0>
7.82666

>  <SCORE.INTRA.POLAR>
0

>  <SCORE.INTRA.POLAR.0>
0

>  <SCORE.INTRA.REPUL>
0

>  <SCORE.INTRA.REPUL.0>
0

>  <SCORE.INTRA.SOLV>
-2.50642

>  <SCORE.INTRA.SOLV.lig_0>
-83.2758

>  <SCORE.INTRA.VDW>
-0.085219

>  <SCORE.INTRA.VDW.0>
-3.26816

>  <SCORE.INTRA.norm>
0.00753169

>  <SCORE.RESTR>
0.365363

>  <SCORE.RESTR.CAVITY>
0.365363

>  <SCORE.RESTR.norm>
0.013532

>  <SCORE.SYSTEM>
0

>  <SCORE.SYSTEM.CONST>
0

>  <SCORE.SYSTEM.DIHEDRAL>
0

>  <SCORE.SYSTEM.SOLV>
0

>  <SCORE.SYSTEM.norm>
0

>  <SCORE.heavy>
27

>  <SCORE.norm>
-0.495288

>  <RMSD>
8.355

$$$$
ligand
 OpenBabel11021811473D
libRbt.so/2013.1/901 2013/11/27
 27 28  0  0  0  0  0  0  0  0999 V2000
   -5.6551   47.6983   -5.8240 C   0  0  0  0  0  0  0  0  0  0  0  0
   -6.8679   42.8703   -9.7132 C   0  0  0  0  0  0  0  0  0  0  0  0
   -5.0275   40.5529  -10.1797 C   0  0  0  0  0  0  0  0  0  0  0  0
   -4.8475   40.6729   -8.6652 C   0  0  0  0  0  0  0  0  0  0  0  0
   -4.9965   39.3981   -8.0353 O   0  0  0  0  0  0  0  0  0  0  0  0
   -5.2588   39.3092   -6.4531 P   0  0  1  0  0  0  0  0  0  0  0  0
   -7.8092   40.4325   -6.8888 P   0  0  2  0  0  0  0  0  0  0  0  0
   -3.4804   43.2629  -12.3508 C   0  0  0  0  0  0  0  0  0  0  0  0
   -7.0201   46.6836   -7.6389 N   0  0  0  0  0  0  0  0  0  0  0  0
   -4.6806   37.9429   -5.8481 O   0  5  0  0  0  0  0  0  0  0  0  0
   -7.9956   40.1667   -8.3301 O   0  0  0  0  0  0  0  0  0  0  0  0
   -4.3204   44.3499  -12.1483 C   0  0  0  0  0  0  0  0  0  0  0  0
   -5.8121   47.0881   -7.2171 C   0  0  0  0  0  0  0  0  0  0  0  0
   -4.5636   40.5141   -5.6294 O   0  0  0  0  0  0  0  0  0  0  0  0
   -7.1779   41.8859   -6.6342 O   0  5  0  0  0  0  0  0  0  0  0  0
   -5.4149   44.2244  -11.2916 N   0  0  0  0  0  0  0  0  0  0  0  0
   -4.7365   46.9622   -8.0078 N   0  0  0  0  0  0  0  0  0  0  0  0
   -6.8543   39.3866   -6.1450 O   0  0  0  0  0  0  0  0  0  0  0  0
   -9.2092   40.4399   -6.1247 O   0  0  0  0  0  0  0  0  0  0  0  0
   -5.6605   43.0037  -10.6515 C   0  0  1  0  0  0  0  0  0  0  0  0
   -4.8541   46.4300   -9.2307 C   0  0  0  0  0  0  0  0  0  0  0  0
   -3.7805   46.3086  -10.0046 N   0  0  0  0  0  0  0  0  0  0  0  0
   -4.8164   41.9132  -10.8551 C   0  0  2  0  0  0  0  0  0  0  0  0
   -6.0935   46.0014   -9.6899 C   0  0  0  0  0  0  0  0  0  0  0  0
   -3.7295   42.0559  -11.7089 C   0  0  0  0  0  0  0  0  0  0  0  0
   -7.1825   46.1522   -8.8391 C   0  0  0  0  0  0  0  0  0  0  0  0
   -6.3136   45.3828  -11.0766 C   0  0  0  0  0  0  0  0  0  0  0  0
  1 13  1  0  0  0  0
  3  4  1  0  0  0  0
  4  5  1  0  0  0  0
  6  5  1  6  0  0  0
  6 10  1  0  0  0  0
  6 14  2  0  0  0  0
  6 18  1  0  0  0  0
  7 11  1  6  0  0  0
  7 15  1  0  0  0  0
  7 19  2  0  0  0  0
  7 18  1  0  0  0  0
  8 25  1  0  0  0  0
  8 12  1  0  0  0  0
  9 26  2  0  0  0  0
  9 13  1  0  0  0  0
 12 16  1  0  0  0  0
 13 17  2  0  0  0  0
 16 20  1  0  0  0  0
 16 27  1  0  0  0  0
 17 21  1  0  0  0  0
 20  2  1  1  0  0  0
 20 23  1  0  0  0  0
 21 22  1  0  0  0  0
 21 24  2  0  0  0  0
 23  3  1  6  0  0  0
 23 25  1  0  0  0  0
 24 27  1  0  0  0  0
 24 26  1  0  0  0  0
M  CHG  2  10  -1  15  -1
M  END
>  <CHROM.1>
-177.95175764,-163.02009118,-151.35602489,-43.45881267,68.22737354,-65.43892845
54.70714063,-106.34962807,-5.83373210,42.58770721,-8.39851186,1.26718426
1.11322760,-0.13600744

>  <Name>
ligand

>  <RI>
0

>  <Rbt.Current_Directory>
/home/itssahil/PROJECTS/Mol_Feturizer/New_Systems/rnas/3D2V

>  <Rbt.Executable>
rbdock ($Id: //depot/dev/client3/rdock/2013.1/src/exe/rbdock.cxx#4 $)

>  <Rbt.Library>
libRbt.so (2013.1, Build901 2013/11/27)

>  <Rbt.Parameter_File>
/export/apps/rDock/src/rDock_2013.1_src/data/scripts/dock_solv.prm

>  <Rbt.Receptor>
prm/pocket_docking_6.prm

>  <SCORE>
-13.7003

>  <SCORE.INTER>
-14.1583

>  <SCORE.INTER.CONST>
1

>  <SCORE.INTER.POLAR>
0

>  <SCORE.INTER.ROT>
8

>  <SCORE.INTER.SOLV>
22.6191

>  <SCORE.INTER.VDW>
-25.9119

>  <SCORE.INTER.norm>
-0.524382

>  <SCORE.INTRA>
0.458014

>  <SCORE.INTRA.DIHEDRAL>
0.355382

>  <SCORE.INTRA.DIHEDRAL.0>
7.82666

>  <SCORE.INTRA.POLAR>
0

>  <SCORE.INTRA.POLAR.0>
0

>  <SCORE.INTRA.REPUL>
0

>  <SCORE.INTRA.REPUL.0>
0

>  <SCORE.INTRA.SOLV>
2.22977

>  <SCORE.INTRA.SOLV.lig_0>
-83.2758

>  <SCORE.INTRA.VDW>
-0.834559

>  <SCORE.INTRA.VDW.0>
-3.26816

>  <SCORE.INTRA.norm>
0.0169635

>  <SCORE.RESTR>
0

>  <SCORE.RESTR.CAVITY>
0

>  <SCORE.RESTR.norm>
0

>  <SCORE.SYSTEM>
0

>  <SCORE.SYSTEM.CONST>
0

>  <SCORE.SYSTEM.DIHEDRAL>
0

>  <SCORE.SYSTEM.SOLV>
0

>  <SCORE.SYSTEM.norm>
0

>  <SCORE.heavy>
27

>  <SCORE.norm>
-0.507419

>  <RMSD>
8.376

$$$$
ligand
 OpenBabel11021811463D
libRbt.so/2013.1/901 2013/11/27
 27 28  0  0  0  0  0  0  0  0999 V2000
   -8.7262   39.4953   -0.2532 C   0  0  0  0  0  0  0  0  0  0  0  0
   -5.5930   36.2681   -4.7866 C   0  0  0  0  0  0  0  0  0  0  0  0
   -6.9340   34.1082   -6.3715 C   0  0  0  0  0  0  0  0  0  0  0  0
   -5.7008   33.6324   -7.1418 C   0  0  0  0  0  0  0  0  0  0  0  0
   -5.1084   32.5008   -6.4993 O   0  0  0  0  0  0  0  0  0  0  0  0
   -3.7634   31.8530   -7.0921 P   0  0  1  0  0  0  0  0  0  0  0  0
   -1.3633   30.8428   -6.0079 P   0  0  2  0  0  0  0  0  0  0  0  0
   -8.3562   37.2643   -7.9423 C   0  0  0  0  0  0  0  0  0  0  0  0
   -8.6174   38.6720   -2.5979 N   0  0  0  0  0  0  0  0  0  0  0  0
   -4.0097   30.3415   -7.5630 O   0  5  0  0  0  0  0  0  0  0  0  0
   -0.6085   30.7447   -4.7417 O   0  0  0  0  0  0  0  0  0  0  0  0
   -7.7452   38.2811   -7.2205 C   0  0  0  0  0  0  0  0  0  0  0  0
   -8.0438   39.3862   -1.6172 C   0  0  0  0  0  0  0  0  0  0  0  0
   -3.1899   32.6526   -8.3748 O   0  0  0  0  0  0  0  0  0  0  0  0
   -0.4221   31.3114   -7.2205 O   0  5  0  0  0  0  0  0  0  0  0  0
   -6.8478   37.9591   -6.2014 N   0  0  0  0  0  0  0  0  0  0  0  0
   -6.8735   40.0080   -1.8216 N   0  0  0  0  0  0  0  0  0  0  0  0
   -2.5908   31.8676   -5.9645 O   0  0  0  0  0  0  0  0  0  0  0  0
   -1.9351   29.4187   -6.4426 O   0  0  0  0  0  0  0  0  0  0  0  0
   -6.5781   36.6163   -5.9109 C   0  0  1  0  0  0  0  0  0  0  0  0
   -6.2607   39.9238   -3.0089 C   0  0  0  0  0  0  0  0  0  0  0  0
   -5.1001   40.5429   -3.1990 N   0  0  0  0  0  0  0  0  0  0  0  0
   -7.1916   35.5963   -6.6364 C   0  0  1  0  0  0  0  0  0  0  0  0
   -6.8329   39.1885   -4.0399 C   0  0  0  0  0  0  0  0  0  0  0  0
   -8.0802   35.9342   -7.6497 C   0  0  0  0  0  0  0  0  0  0  0  0
   -8.0474   38.5617   -3.7863 C   0  0  0  0  0  0  0  0  0  0  0  0
   -6.1970   39.0432   -5.4286 C   0  0  0  0  0  0  0  0  0  0  0  0
  1 13  1  0  0  0  0
  3  4  1  0  0  0  0
  4  5  1  0  0  0  0
  6  5  1  1  0  0  0
  6 10  1  0  0  0  0
  6 14  2  0  0  0  0
  6 18  1  0  0  0  0
  7 11  1  1  0  0  0
  7 15  1  0  0  0  0
  7 19  2  0  0  0  0
  7 18  1  0  0  0  0
  8 25  1  0  0  0  0
  8 12  1  0  0  0  0
  9 26  2  0  0  0  0
  9 13  1  0  0  0  0
 12 16  1  0  0  0  0
 13 17  2  0  0  0  0
 16 20  1  0  0  0  0
 16 27  1  0  0  0  0
 17 21  1  0  0  0  0
 20  2  1  6  0  0  0
 20 23  1  0  0  0  0
 21 22  1  0  0  0  0
 21 24  2  0  0  0  0
 23  3  1  6  0  0  0
 23 25  1  0  0  0  0
 24 27  1  0  0  0  0
 24 26  1  0  0  0  0
M  CHG  2  10  -1  15  -1
M  END
>  <CHROM.1>
154.60852426,-177.69314031,-117.31565307,156.15894774,-164.13295082,-85.87098621
166.37652242,103.90716321,-5.15514593,35.04098064,-5.51884782,-2.29798591
0.69696920,-2.24605933

>  <Name>
ligand

>  <RI>
0

>  <Rbt.Current_Directory>
/home/itssahil/PROJECTS/Mol_Feturizer/New_Systems/rnas/3D2V

>  <Rbt.Executable>
rbdock ($Id: //depot/dev/client3/rdock/2013.1/src/exe/rbdock.cxx#4 $)

>  <Rbt.Library>
libRbt.so (2013.1, Build901 2013/11/27)

>  <Rbt.Parameter_File>
/export/apps/rDock/src/rDock_2013.1_src/data/scripts/dock_solv.prm

>  <Rbt.Receptor>
prm/blind_docking_60.prm

>  <SCORE>
-11.8861

>  <SCORE.INTER>
-15.3543

>  <SCORE.INTER.CONST>
1

>  <SCORE.INTER.POLAR>
0

>  <SCORE.INTER.ROT>
8

>  <SCORE.INTER.SOLV>
17.47

>  <SCORE.INTER.VDW>
-24.9929

>  <SCORE.INTER.norm>
-0.568679

>  <SCORE.INTRA>
2.90982

>  <SCORE.INTRA.DIHEDRAL>
3.03637

>  <SCORE.INTRA.DIHEDRAL.0>
7.82666

>  <SCORE.INTRA.POLAR>
0

>  <SCORE.INTRA.POLAR.0>
0

>  <SCORE.INTRA.REPUL>
0

>  <SCORE.INTRA.REPUL.0>
0

>  <SCORE.INTRA.SOLV>
1.61114

>  <SCORE.INTRA.SOLV.lig_0>
-83.2758

>  <SCORE.INTRA.VDW>
0.586061

>  <SCORE.INTRA.VDW.0>
-3.26816

>  <SCORE.INTRA.norm>
0.107771

>  <SCORE.RESTR>
0.558387

>  <SCORE.RESTR.CAVITY>
0.558387

>  <SCORE.RESTR.norm>
0.020681

>  <SCORE.SYSTEM>
0

>  <SCORE.SYSTEM.CONST>
0

>  <SCORE.SYSTEM.DIHEDRAL>
0

>  <SCORE.SYSTEM.SOLV>
0

>  <SCORE.SYSTEM.norm>
0

>  <SCORE.heavy>
27

>  <SCORE.norm>
-0.440227

>  <RMSD>
8.447

$$$$
ligand
 OpenBabel11021811473D
libRbt.so/2013.1/901 2013/11/27
 27 28  0  0  0  0  0  0  0  0999 V2000
   -5.3937   40.1676  -13.1820 C   0  0  0  0  0  0  0  0  0  0  0  0
   -3.7595   45.0796   -8.1367 C   0  0  0  0  0  0  0  0  0  0  0  0
   -5.8452   45.7080   -6.0798 C   0  0  0  0  0  0  0  0  0  0  0  0
   -6.4900   44.4283   -5.5441 C   0  0  0  0  0  0  0  0  0  0  0  0
   -5.9424   43.2767   -6.1909 O   0  0  0  0  0  0  0  0  0  0  0  0
   -6.3394   41.8053   -5.6836 P   0  0  1  0  0  0  0  0  0  0  0  0
   -5.4423   40.4928   -8.0136 P   0  0  2  0  0  0  0  0  0  0  0  0
   -7.6700   46.4455   -9.3321 C   0  0  0  0  0  0  0  0  0  0  0  0
   -6.1086   42.4600  -12.5331 N   0  0  0  0  0  0  0  0  0  0  0  0
   -6.1425   41.6683   -4.0995 O   0  5  0  0  0  0  0  0  0  0  0  0
   -4.6840   39.3188   -8.4924 O   0  0  0  0  0  0  0  0  0  0  0  0
   -6.7183   46.1592  -10.3020 C   0  0  0  0  0  0  0  0  0  0  0  0
   -5.1236   41.5502  -12.5875 C   0  0  0  0  0  0  0  0  0  0  0  0
   -7.8791   41.4240   -5.9960 O   0  0  0  0  0  0  0  0  0  0  0  0
   -4.8825   41.8557   -8.6498 O   0  5  0  0  0  0  0  0  0  0  0  0
   -5.4536   45.7134   -9.9155 N   0  0  0  0  0  0  0  0  0  0  0  0
   -3.8997   41.8420  -12.1241 N   0  0  0  0  0  0  0  0  0  0  0  0
   -5.4175   40.6895   -6.4263 O   0  0  0  0  0  0  0  0  0  0  0  0
   -6.9688   40.4096   -8.4685 O   0  0  0  0  0  0  0  0  0  0  0  0
   -5.1534   45.5668   -8.5559 C   0  0  1  0  0  0  0  0  0  0  0  0
   -3.6439   43.0473  -11.6004 C   0  0  0  0  0  0  0  0  0  0  0  0
   -2.4264   43.3256  -11.1459 N   0  0  0  0  0  0  0  0  0  0  0  0
   -6.1096   45.8540   -7.5831 C   0  0  1  0  0  0  0  0  0  0  0  0
   -4.6462   44.0075  -11.5347 C   0  0  0  0  0  0  0  0  0  0  0  0
   -7.3648   46.2939   -7.9850 C   0  0  0  0  0  0  0  0  0  0  0  0
   -5.9008   43.6629  -12.0243 C   0  0  0  0  0  0  0  0  0  0  0  0
   -4.4362   45.4101  -10.9494 C   0  0  0  0  0  0  0  0  0  0  0  0
  1 13  1  0  0  0  0
  3  4  1  0  0  0  0
  4  5  1  0  0  0  0
  6  5  1  6  0  0  0
  6 10  1  0  0  0  0
  6 14  2  0  0  0  0
  6 18  1  0  0  0  0
  7 11  1  6  0  0  0
  7 15  1  0  0  0  0
  7 19  2  0  0  0  0
  7 18  1  0  0  0  0
  8 25  1  0  0  0  0
  8 12  1  0  0  0  0
  9 26  2  0  0  0  0
  9 13  1  0  0  0  0
 12 16  1  0  0  0  0
 13 17  2  0  0  0  0
 16 20  1  0  0  0  0
 16 27  1  0  0  0  0
 17 21  1  0  0  0  0
 20  2  1  6  0  0  0
 20 23  1  0  0  0  0
 21 22  1  0  0  0  0
 21 24  2  0  0  0  0
 23  3  1  6  0  0  0
 23 25  1  0  0  0  0
 24 27  1  0  0  0  0
 24 26  1  0  0  0  0
M  CHG  2  10  -1  15  -1
M  END
>  <CHROM.1>
60.99272874,173.12501959,-50.70574128,-61.63298354,-172.13353771,-102.50076036
-127.27376570,-81.82670202,-5.57636672,42.93692839,-8.71236738,-0.37333043
-1.30397371,2.86539331

>  <Name>
ligand

>  <RI>
0

>  <Rbt.Current_Directory>
/home/itssahil/PROJECTS/Mol_Feturizer/New_Systems/rnas/3D2V

>  <Rbt.Executable>
rbdock ($Id: //depot/dev/client3/rdock/2013.1/src/exe/rbdock.cxx#4 $)

>  <Rbt.Library>
libRbt.so (2013.1, Build901 2013/11/27)

>  <Rbt.Parameter_File>
/export/apps/rDock/src/rDock_2013.1_src/data/scripts/dock_solv.prm

>  <Rbt.Receptor>
prm/pocket_docking_7.prm

>  <SCORE>
-15.126

>  <SCORE.INTER>
-13.7938

>  <SCORE.INTER.CONST>
1

>  <SCORE.INTER.POLAR>
0

>  <SCORE.INTER.ROT>
8

>  <SCORE.INTER.SOLV>
10.5388

>  <SCORE.INTER.VDW>
-21.6421

>  <SCORE.INTER.norm>
-0.510881

>  <SCORE.INTRA>
-1.33221

>  <SCORE.INTRA.DIHEDRAL>
-2.15625

>  <SCORE.INTRA.DIHEDRAL.0>
7.82666

>  <SCORE.INTRA.POLAR>
0

>  <SCORE.INTRA.POLAR.0>
0

>  <SCORE.INTRA.REPUL>
0

>  <SCORE.INTRA.REPUL.0>
0

>  <SCORE.INTRA.SOLV>
3.6201

>  <SCORE.INTRA.SOLV.lig_0>
-83.2758

>  <SCORE.INTRA.VDW>
-2.06413

>  <SCORE.INTRA.VDW.0>
-3.26816

>  <SCORE.INTRA.norm>
-0.049341

>  <SCORE.RESTR>
0

>  <SCORE.RESTR.CAVITY>
0

>  <SCORE.RESTR.norm>
0

>  <SCORE.SYSTEM>
0

>  <SCORE.SYSTEM.CONST>
0

>  <SCORE.SYSTEM.DIHEDRAL>
0

>  <SCORE.SYSTEM.SOLV>
0

>  <SCORE.SYSTEM.norm>
0

>  <SCORE.heavy>
27

>  <SCORE.norm>
-0.560222

>  <RMSD>
8.466

$$$$
ligand
 OpenBabel11021811463D
libRbt.so/2013.1/901 2013/11/27
 27 28  0  0  0  0  0  0  0  0999 V2000
   -3.9621   34.1611  -13.7148 C   0  0  0  0  0  0  0  0  0  0  0  0
   -6.7230   35.6504   -6.3308 C   0  0  0  0  0  0  0  0  0  0  0  0
   -5.4089   37.9654   -4.9563 C   0  0  0  0  0  0  0  0  0  0  0  0
   -6.6783   38.3241   -4.1812 C   0  0  0  0  0  0  0  0  0  0  0  0
   -6.3566   39.0463   -2.9899 O   0  0  0  0  0  0  0  0  0  0  0  0
   -5.8907   40.5808   -3.0815 P   0  0  1  0  0  0  0  0  0  0  0  0
   -5.4152   40.8633   -0.3156 P   0  0  2  0  0  0  0  0  0  0  0  0
   -5.5272   39.1338   -8.5718 C   0  0  0  0  0  0  0  0  0  0  0  0
   -4.3309   34.5471  -11.2853 N   0  0  0  0  0  0  0  0  0  0  0  0
   -4.3358   40.6906   -3.4520 O   0  5  0  0  0  0  0  0  0  0  0  0
   -6.0965   39.7629    0.3967 O   0  0  0  0  0  0  0  0  0  0  0  0
   -6.1352   38.0722   -9.2287 C   0  0  0  0  0  0  0  0  0  0  0  0
   -4.8248   34.6020  -12.5319 C   0  0  0  0  0  0  0  0  0  0  0  0
   -6.6971   41.4192   -4.2041 O   0  0  0  0  0  0  0  0  0  0  0  0
   -5.2831   42.1700    0.6068 O   0  5  0  0  0  0  0  0  0  0  0  0
   -6.5259   36.9460   -8.5030 N   0  0  0  0  0  0  0  0  0  0  0  0
   -6.0724   35.0415  -12.7522 N   0  0  0  0  0  0  0  0  0  0  0  0
   -6.1464   41.3293   -1.6599 O   0  0  0  0  0  0  0  0  0  0  0  0
   -3.9190   40.4586   -0.6921 O   0  0  0  0  0  0  0  0  0  0  0  0
   -6.2944   36.8931   -7.1232 C   0  0  1  0  0  0  0  0  0  0  0  0
   -6.8430   35.4315  -11.7293 C   0  0  0  0  0  0  0  0  0  0  0  0
   -8.0786   35.8634  -11.9598 N   0  0  0  0  0  0  0  0  0  0  0  0
   -5.6844   37.9595   -6.4646 C   0  0  2  0  0  0  0  0  0  0  0  0
   -6.3557   35.3821  -10.4289 C   0  0  0  0  0  0  0  0  0  0  0  0
   -5.3043   39.0745   -7.2015 C   0  0  0  0  0  0  0  0  0  0  0  0
   -5.0568   34.9222  -10.2453 C   0  0  0  0  0  0  0  0  0  0  0  0
   -7.1725   35.8113   -9.2031 C   0  0  0  0  0  0  0  0  0  0  0  0
  1 13  1  0  0  0  0
  3  4  1  0  0  0  0
  4  5  1  0  0  0  0
  6  5  1  1  0  0  0
  6 10  1  0  0  0  0
  6 14  2  0  0  0  0
  6 18  1  0  0  0  0
  7 11  1  1  0  0  0
  7 15  1  0  0  0  0
  7 19  2  0  0  0  0
  7 18  1  0  0  0  0
  8 25  1  0  0  0  0
  8 12  1  0  0  0  0
  9 26  2  0  0  0  0
  9 13  1  0  0  0  0
 12 16  1  0  0  0  0
 13 17  2  0  0  0  0
 16 20  1  0  0  0  0
 16 27  1  0  0  0  0
 17 21  1  0  0  0  0
 20  2  1  1  0  0  0
 20 23  1  0  0  0  0
 21 22  1  0  0  0  0
 21 24  2  0  0  0  0
 23  3  1  6  0  0  0
 23 25  1  0  0  0  0
 24 27  1  0  0  0  0
 24 26  1  0  0  0  0
M  CHG  2  10  -1  15  -1
M  END
>  <CHROM.1>
-147.40335230,74.04040187,-81.46570111,61.89687322,-85.08527520,-80.03403575
-118.36001605,50.45938398,-5.79561262,38.21941457,-6.05110277,-1.61185194
-1.02413731,1.04373569

>  <Name>
ligand

>  <RI>
0

>  <Rbt.Current_Directory>
/home/itssahil/PROJECTS/Mol_Feturizer/New_Systems/rnas/3D2V

>  <Rbt.Executable>
rbdock ($Id: //depot/dev/client3/rdock/2013.1/src/exe/rbdock.cxx#4 $)

>  <Rbt.Library>
libRbt.so (2013.1, Build901 2013/11/27)

>  <Rbt.Parameter_File>
/export/apps/rDock/src/rDock_2013.1_src/data/scripts/dock_solv.prm

>  <Rbt.Receptor>
prm/blind_docking_60.prm

>  <SCORE>
-10.4403

>  <SCORE.INTER>
-12.1732

>  <SCORE.INTER.CONST>
1

>  <SCORE.INTER.POLAR>
0

>  <SCORE.INTER.ROT>
8

>  <SCORE.INTER.SOLV>
28.6186

>  <SCORE.INTER.VDW>
-26.5883

>  <SCORE.INTER.norm>
-0.450858

>  <SCORE.INTRA>
1.29656

>  <SCORE.INTRA.DIHEDRAL>
3.01009

>  <SCORE.INTRA.DIHEDRAL.0>
7.82666

>  <SCORE.INTRA.POLAR>
0

>  <SCORE.INTRA.POLAR.0>
0

>  <SCORE.INTRA.REPUL>
0

>  <SCORE.INTRA.REPUL.0>
0

>  <SCORE.INTRA.SOLV>
-0.165947

>  <SCORE.INTRA.SOLV.lig_0>
-83.2758

>  <SCORE.INTRA.VDW>
-0.125509

>  <SCORE.INTRA.VDW.0>
-3.26816

>  <SCORE.INTRA.norm>
0.0480208

>  <SCORE.RESTR>
0.436307

>  <SCORE.RESTR.CAVITY>
0.436307

>  <SCORE.RESTR.norm>
0.0161595

>  <SCORE.SYSTEM>
0

>  <SCORE.SYSTEM.CONST>
0

>  <SCORE.SYSTEM.DIHEDRAL>
0

>  <SCORE.SYSTEM.SOLV>
0

>  <SCORE.SYSTEM.norm>
0

>  <SCORE.heavy>
27

>  <SCORE.norm>
-0.386677

>  <RMSD>
8.481

$$$$
ligand
 OpenBabel11021811473D
libRbt.so/2013.1/901 2013/11/27
 27 28  0  0  0  0  0  0  0  0999 V2000
   -4.5579   48.6815   -2.8766 C   0  0  0  0  0  0  0  0  0  0  0  0
   -4.2271   45.6940  -10.7735 C   0  0  0  0  0  0  0  0  0  0  0  0
   -6.4712   43.8200  -11.4274 C   0  0  0  0  0  0  0  0  0  0  0  0
   -5.5777   42.6364  -11.0510 C   0  0  0  0  0  0  0  0  0  0  0  0
   -6.0628   41.9915   -9.8707 O   0  0  0  0  0  0  0  0  0  0  0  0
   -5.3100   40.6937   -9.2970 P   0  0  1  0  0  0  0  0  0  0  0  0
   -6.7167   40.8770   -6.8590 P   0  0  2  0  0  0  0  0  0  0  0  0
   -7.8553   45.7280   -8.4450 C   0  0  0  0  0  0  0  0  0  0  0  0
   -5.5001   48.8647   -5.1714 N   0  0  0  0  0  0  0  0  0  0  0  0
   -5.0820   39.6028  -10.4481 O   0  5  0  0  0  0  0  0  0  0  0  0
   -5.6524   41.5424   -6.0799 O   0  0  0  0  0  0  0  0  0  0  0  0
   -6.8278   46.6056   -8.1251 C   0  0  0  0  0  0  0  0  0  0  0  0
   -4.5425   48.3680   -4.3730 C   0  0  0  0  0  0  0  0  0  0  0  0
   -3.8544   41.0300   -8.6793 O   0  0  0  0  0  0  0  0  0  0  0  0
   -7.5735   39.8714   -5.9476 O   0  5  0  0  0  0  0  0  0  0  0  0
   -5.6547   46.5976   -8.8809 N   0  0  0  0  0  0  0  0  0  0  0  0
   -3.5681   47.5963   -4.8759 N   0  0  0  0  0  0  0  0  0  0  0  0
   -6.1854   40.0215   -8.1019 O   0  0  0  0  0  0  0  0  0  0  0  0
   -7.7661   41.9413   -7.4156 O   0  0  0  0  0  0  0  0  0  0  0  0
   -5.5211   45.7009   -9.9479 C   0  0  1  0  0  0  0  0  0  0  0  0
   -3.5380   47.3104   -6.1835 C   0  0  0  0  0  0  0  0  0  0  0  0
   -2.5683   46.5429   -6.6701 N   0  0  0  0  0  0  0  0  0  0  0  0
   -6.5533   44.8207  -10.2686 C   0  0  2  0  0  0  0  0  0  0  0  0
   -4.5193   47.8106   -7.0308 C   0  0  0  0  0  0  0  0  0  0  0  0
   -7.7158   44.8437   -9.5077 C   0  0  0  0  0  0  0  0  0  0  0  0
   -5.5096   48.6080   -6.4687 C   0  0  0  0  0  0  0  0  0  0  0  0
   -4.5564   47.5317   -8.5390 C   0  0  0  0  0  0  0  0  0  0  0  0
  1 13  1  0  0  0  0
  3  4  1  0  0  0  0
  4  5  1  0  0  0  0
  6  5  1  6  0  0  0
  6 10  1  0  0  0  0
  6 14  2  0  0  0  0
  6 18  1  0  0  0  0
  7 11  1  1  0  0  0
  7 15  1  0  0  0  0
  7 19  2  0  0  0  0
  7 18  1  0  0  0  0
  8 25  1  0  0  0  0
  8 12  1  0  0  0  0
  9 26  2  0  0  0  0
  9 13  1  0  0  0  0
 12 16  1  0  0  0  0
 13 17  2  0  0  0  0
 16 20  1  0  0  0  0
 16 27  1  0  0  0  0
 17 21  1  0  0  0  0
 20  2  1  6  0  0  0
 20 23  1  0  0  0  0
 21 22  1  0  0  0  0
 21 24  2  0  0  0  0
 23  3  1  1  0  0  0
 23 25  1  0  0  0  0
 24 27  1  0  0  0  0
 24 26  1  0  0  0  0
M  CHG  2  10  -1  15  -1
M  END
>  <CHROM.1>
57.42870952,178.45476449,-50.43646366,-51.87652594,-58.54490526,75.84319389
107.88141860,31.61104200,-5.57282000,44.11932031,-7.91990888,0.24823789,1.38657264
1.69631744

>  <Name>
ligand

>  <RI>
0

>  <Rbt.Current_Directory>
/home/itssahil/PROJECTS/Mol_Feturizer/New_Systems/rnas/3D2V

>  <Rbt.Executable>
rbdock ($Id: //depot/dev/client3/rdock/2013.1/src/exe/rbdock.cxx#4 $)

>  <Rbt.Library>
libRbt.so (2013.1, Build901 2013/11/27)

>  <Rbt.Parameter_File>
/export/apps/rDock/src/rDock_2013.1_src/data/scripts/dock_solv.prm

>  <Rbt.Receptor>
prm/pocket_docking_8.prm

>  <SCORE>
-11.4819

>  <SCORE.INTER>
-9.47609

>  <SCORE.INTER.CONST>
1

>  <SCORE.INTER.POLAR>
0

>  <SCORE.INTER.ROT>
8

>  <SCORE.INTER.SOLV>
13.8316

>  <SCORE.INTER.VDW>
-19.8613

>  <SCORE.INTER.norm>
-0.350966

>  <SCORE.INTRA>
-2.00581

>  <SCORE.INTRA.DIHEDRAL>
-2.32652

>  <SCORE.INTRA.DIHEDRAL.0>
7.82666

>  <SCORE.INTRA.POLAR>
0

>  <SCORE.INTRA.POLAR.0>
0

>  <SCORE.INTRA.REPUL>
0

>  <SCORE.INTRA.REPUL.0>
0

>  <SCORE.INTRA.SOLV>
-1.39877

>  <SCORE.INTRA.SOLV.lig_0>
-83.2758

>  <SCORE.INTRA.VDW>
-0.143165

>  <SCORE.INTRA.VDW.0>
-3.26816

>  <SCORE.INTRA.norm>
-0.0742891

>  <SCORE.RESTR>
0

>  <SCORE.RESTR.CAVITY>
0

>  <SCORE.RESTR.norm>
0

>  <SCORE.SYSTEM>
0

>  <SCORE.SYSTEM.CONST>
0

>  <SCORE.SYSTEM.DIHEDRAL>
0

>  <SCORE.SYSTEM.SOLV>
0

>  <SCORE.SYSTEM.norm>
0

>  <SCORE.heavy>
27

>  <SCORE.norm>
-0.425255

>  <RMSD>
8.515

$$$$
ligand
 OpenBabel11021811473D
libRbt.so/2013.1/901 2013/11/27
 27 28  0  0  0  0  0  0  0  0999 V2000
   -5.1900   48.0282   -7.0652 C   0  0  0  0  0  0  0  0  0  0  0  0
   -7.2311   41.8441   -8.0318 C   0  0  0  0  0  0  0  0  0  0  0  0
   -5.3621   39.5034   -8.0899 C   0  0  0  0  0  0  0  0  0  0  0  0
   -4.3948   39.9787   -7.0040 C   0  0  0  0  0  0  0  0  0  0  0  0
   -4.4224   39.0955   -5.8800 O   0  0  0  0  0  0  0  0  0  0  0  0
   -5.7387   39.0008   -4.9644 P   0  0  1  0  0  0  0  0  0  0  0  0
   -5.2651   36.2683   -4.4494 P   0  0  2  0  0  0  0  0  0  0  0  0
   -4.5993   41.2282  -11.3905 C   0  0  0  0  0  0  0  0  0  0  0  0
   -6.9050   46.3256   -7.6543 N   0  0  0  0  0  0  0  0  0  0  0  0
   -5.9480   40.3426   -4.1142 O   0  5  0  0  0  0  0  0  0  0  0  0
   -5.2031   35.2536   -3.3775 O   0  0  0  0  0  0  0  0  0  0  0  0
   -5.4572   42.3200  -11.3838 C   0  0  0  0  0  0  0  0  0  0  0  0
   -5.7140   46.8800   -7.9282 C   0  0  0  0  0  0  0  0  0  0  0  0
   -7.0902   38.7783   -5.8232 O   0  0  0  0  0  0  0  0  0  0  0  0
   -3.8707   36.3809   -5.2360 O   0  5  0  0  0  0  0  0  0  0  0  0
   -6.3067   42.5219  -10.2950 N   0  0  0  0  0  0  0  0  0  0  0  0
   -4.9753   46.4357   -8.9553 N   0  0  0  0  0  0  0  0  0  0  0  0
   -5.6187   37.7429   -3.9399 O   0  0  0  0  0  0  0  0  0  0  0  0
   -6.3425   35.8653   -5.5543 O   0  0  0  0  0  0  0  0  0  0  0  0
   -6.2921   41.6191   -9.2250 C   0  0  1  0  0  0  0  0  0  0  0  0
   -5.4172   45.4311   -9.7221 C   0  0  0  0  0  0  0  0  0  0  0  0
   -4.6753   44.9979  -10.7362 N   0  0  0  0  0  0  0  0  0  0  0  0
   -5.4301   40.5236   -9.2325 C   0  0  2  0  0  0  0  0  0  0  0  0
   -6.6461   44.8387   -9.4577 C   0  0  0  0  0  0  0  0  0  0  0  0
   -4.5889   40.3389  -10.3229 C   0  0  0  0  0  0  0  0  0  0  0  0
   -7.3805   45.3311   -8.3851 C   0  0  0  0  0  0  0  0  0  0  0  0
   -7.2245   43.6852  -10.2876 C   0  0  0  0  0  0  0  0  0  0  0  0
  1 13  1  0  0  0  0
  3  4  1  0  0  0  0
  4  5  1  0  0  0  0
  6  5  1  6  0  0  0
  6 10  1  0  0  0  0
  6 14  2  0  0  0  0
  6 18  1  0  0  0  0
  7 11  1  1  0  0  0
  7 15  1  0  0  0  0
  7 19  2  0  0  0  0
  7 18  1  0  0  0  0
  8 25  1  0  0  0  0
  8 12  1  0  0  0  0
  9 26  2  0  0  0  0
  9 13  1  0  0  0  0
 12 16  1  0  0  0  0
 13 17  2  0  0  0  0
 16 20  1  0  0  0  0
 16 27  1  0  0  0  0
 17 21  1  0  0  0  0
 20  2  1  1  0  0  0
 20 23  1  0  0  0  0
 21 22  1  0  0  0  0
 21 24  2  0  0  0  0
 23  3  1  6  0  0  0
 23 25  1  0  0  0  0
 24 27  1  0  0  0  0
 24 26  1  0  0  0  0
M  CHG  2  10  -1  15  -1
M  END
>  <CHROM.1>
174.52844836,-67.57877437,-69.87931619,-52.04832243,-179.82397558,-86.45900218
58.04837902,-98.76199393,-5.65741017,40.99503125,-7.28905326,2.00169856,1.44338276
-0.92848534

>  <Name>
ligand

>  <RI>
0

>  <Rbt.Current_Directory>
/home/itssahil/PROJECTS/Mol_Feturizer/New_Systems/rnas/3D2V

>  <Rbt.Executable>
rbdock ($Id: //depot/dev/client3/rdock/2013.1/src/exe/rbdock.cxx#4 $)

>  <Rbt.Library>
libRbt.so (2013.1, Build901 2013/11/27)

>  <Rbt.Parameter_File>
/export/apps/rDock/src/rDock_2013.1_src/data/scripts/dock_solv.prm

>  <Rbt.Receptor>
prm/pocket_docking_5.prm

>  <SCORE>
-17.8946

>  <SCORE.INTER>
-18.513

>  <SCORE.INTER.CONST>
1

>  <SCORE.INTER.POLAR>
0

>  <SCORE.INTER.ROT>
8

>  <SCORE.INTER.SOLV>
17.8932

>  <SCORE.INTER.VDW>
-27.2397

>  <SCORE.INTER.norm>
-0.685667

>  <SCORE.INTRA>
0.589152

>  <SCORE.INTRA.DIHEDRAL>
-1.96358

>  <SCORE.INTRA.DIHEDRAL.0>
7.82666

>  <SCORE.INTRA.POLAR>
0

>  <SCORE.INTRA.POLAR.0>
0

>  <SCORE.INTRA.REPUL>
0

>  <SCORE.INTRA.REPUL.0>
0

>  <SCORE.INTRA.SOLV>
4.27211

>  <SCORE.INTRA.SOLV.lig_0>
-83.2758

>  <SCORE.INTRA.VDW>
-0.565115

>  <SCORE.INTRA.VDW.0>
-3.26816

>  <SCORE.INTRA.norm>
0.0218204

>  <SCORE.RESTR>
0.029255

>  <SCORE.RESTR.CAVITY>
0.029255

>  <SCORE.RESTR.norm>
0.00108352

>  <SCORE.SYSTEM>
0

>  <SCORE.SYSTEM.CONST>
0

>  <SCORE.SYSTEM.DIHEDRAL>
0

>  <SCORE.SYSTEM.SOLV>
0

>  <SCORE.SYSTEM.norm>
0

>  <SCORE.heavy>
27

>  <SCORE.norm>
-0.662763

>  <RMSD>
8.537

$$$$
ligand
 OpenBabel11021811473D
libRbt.so/2013.1/901 2013/11/27
 27 28  0  0  0  0  0  0  0  0999 V2000
   -5.9264   37.4998  -11.6554 C   0  0  0  0  0  0  0  0  0  0  0  0
   -7.3497   43.4801  -11.2773 C   0  0  0  0  0  0  0  0  0  0  0  0
   -6.9118   45.2537   -8.9028 C   0  0  0  0  0  0  0  0  0  0  0  0
   -6.3668   45.1708   -7.4757 C   0  0  0  0  0  0  0  0  0  0  0  0
   -7.3695   45.5470   -6.5285 O   0  0  0  0  0  0  0  0  0  0  0  0
   -7.0743   45.4244   -4.9544 P   0  0  1  0  0  0  0  0  0  0  0  0
   -6.0669   43.5287   -3.1247 P   0  0  2  0  0  0  0  0  0  0  0  0
   -3.5110   45.3218  -10.6001 C   0  0  0  0  0  0  0  0  0  0  0  0
   -6.2341   39.4591  -13.1567 N   0  0  0  0  0  0  0  0  0  0  0  0
   -5.9775   46.4951   -4.4878 O   0  5  0  0  0  0  0  0  0  0  0  0
   -7.0862   43.7587   -2.0803 O   0  0  0  0  0  0  0  0  0  0  0  0
   -3.6924   44.5037  -11.7074 C   0  0  0  0  0  0  0  0  0  0  0  0
   -5.7066   38.9671  -12.0250 C   0  0  0  0  0  0  0  0  0  0  0  0
   -8.3868   45.6759   -4.0447 O   0  0  0  0  0  0  0  0  0  0  0  0
   -4.7245   44.3579   -2.8310 O   0  5  0  0  0  0  0  0  0  0  0  0
   -4.9360   43.9104  -11.9290 N   0  0  0  0  0  0  0  0  0  0  0  0
   -4.9857   39.7521  -11.2113 N   0  0  0  0  0  0  0  0  0  0  0  0
   -6.5346   43.9311   -4.6006 O   0  0  0  0  0  0  0  0  0  0  0  0
   -5.6196   41.9981   -3.1577 O   0  0  0  0  0  0  0  0  0  0  0  0
   -5.9852   44.1382  -11.0304 C   0  0  1  0  0  0  0  0  0  0  0  0
   -4.7822   41.0393  -11.5182 C   0  0  0  0  0  0  0  0  0  0  0  0
   -4.0643   41.8071  -10.7048 N   0  0  0  0  0  0  0  0  0  0  0  0
   -5.8022   44.9600   -9.9195 C   0  0  2  0  0  0  0  0  0  0  0  0
   -5.3157   41.5721  -12.6853 C   0  0  0  0  0  0  0  0  0  0  0  0
   -4.5586   45.5454   -9.7151 C   0  0  0  0  0  0  0  0  0  0  0  0
   -6.0582   40.7243  -13.4993 C   0  0  0  0  0  0  0  0  0  0  0  0
   -5.1303   43.0350  -13.1088 C   0  0  0  0  0  0  0  0  0  0  0  0
  1 13  1  0  0  0  0
  3  4  1  0  0  0  0
  4  5  1  0  0  0  0
  6  5  1  6  0  0  0
  6 10  1  0  0  0  0
  6 14  2  0  0  0  0
  6 18  1  0  0  0  0
  7 11  1  1  0  0  0
  7 15  1  0  0  0  0
  7 19  2  0  0  0  0
  7 18  1  0  0  0  0
  8 25  1  0  0  0  0
  8 12  1  0  0  0  0
  9 26  2  0  0  0  0
  9 13  1  0  0  0  0
 12 16  1  0  0  0  0
 13 17  2  0  0  0  0
 16 20  1  0  0  0  0
 16 27  1  0  0  0  0
 17 21  1  0  0  0  0
 20  2  1  6  0  0  0
 20 23  1  0  0  0  0
 21 22  1  0  0  0  0
 21 24  2  0  0  0  0
 23  3  1  1  0  0  0
 23 25  1  0  0  0  0
 24 27  1  0  0  0  0
 24 26  1  0  0  0  0
M  CHG  2  10  -1  15  -1
M  END
>  <CHROM.1>
175.41567963,174.98241171,68.83990101,176.10380517,55.75358385,136.27260187
-27.52174014,111.06805793,-5.91066914,43.36316212,-8.15216170,0.29644763
-1.44005690,3.06806148

>  <Name>
ligand

>  <RI>
0

>  <Rbt.Current_Directory>
/home/itssahil/PROJECTS/Mol_Feturizer/New_Systems/rnas/3D2V

>  <Rbt.Executable>
rbdock ($Id: //depot/dev/client3/rdock/2013.1/src/exe/rbdock.cxx#4 $)

>  <Rbt.Library>
libRbt.so (2013.1, Build901 2013/11/27)

>  <Rbt.Parameter_File>
/export/apps/rDock/src/rDock_2013.1_src/data/scripts/dock_solv.prm

>  <Rbt.Receptor>
prm/pocket_docking_8.prm

>  <SCORE>
-13.4994

>  <SCORE.INTER>
-14.6087

>  <SCORE.INTER.CONST>
1

>  <SCORE.INTER.POLAR>
0

>  <SCORE.INTER.ROT>
8

>  <SCORE.INTER.SOLV>
10.1171

>  <SCORE.INTER.VDW>
-22.0449

>  <SCORE.INTER.norm>
-0.541065

>  <SCORE.INTRA>
1.10936

>  <SCORE.INTRA.DIHEDRAL>
-2.26931

>  <SCORE.INTRA.DIHEDRAL.0>
7.82666

>  <SCORE.INTRA.POLAR>
0

>  <SCORE.INTRA.POLAR.0>
0

>  <SCORE.INTRA.REPUL>
0

>  <SCORE.INTRA.REPUL.0>
0

>  <SCORE.INTRA.SOLV>
3.33856

>  <SCORE.INTRA.SOLV.lig_0>
-83.2758

>  <SCORE.INTRA.VDW>
0.574735

>  <SCORE.INTRA.VDW.0>
-3.26816

>  <SCORE.INTRA.norm>
0.0410873

>  <SCORE.RESTR>
0

>  <SCORE.RESTR.CAVITY>
0

>  <SCORE.RESTR.norm>
0

>  <SCORE.SYSTEM>
0

>  <SCORE.SYSTEM.CONST>
0

>  <SCORE.SYSTEM.DIHEDRAL>
0

>  <SCORE.SYSTEM.SOLV>
0

>  <SCORE.SYSTEM.norm>
0

>  <SCORE.heavy>
27

>  <SCORE.norm>
-0.499978

>  <RMSD>
8.544

$$$$
ligand
 OpenBabel11021811463D
libRbt.so/2013.1/901 2013/11/27
 27 28  0  0  0  0  0  0  0  0999 V2000
   -8.7967   38.9782   -7.5683 C   0  0  0  0  0  0  0  0  0  0  0  0
   -5.0056   31.6726   -7.9099 C   0  0  0  0  0  0  0  0  0  0  0  0
   -2.1293   31.7339   -7.0743 C   0  0  0  0  0  0  0  0  0  0  0  0
   -2.1161   31.7884   -8.6031 C   0  0  0  0  0  0  0  0  0  0  0  0
   -2.0651   33.1420   -9.0607 O   0  0  0  0  0  0  0  0  0  0  0  0
   -0.7229   34.0039   -8.8723 P   0  0  1  0  0  0  0  0  0  0  0  0
   -0.6603   34.9213  -11.5390 P   0  0  2  0  0  0  0  0  0  0  0  0
   -3.6245   34.5700   -5.0318 C   0  0  0  0  0  0  0  0  0  0  0  0
   -8.2850   37.0069   -6.1402 N   0  0  0  0  0  0  0  0  0  0  0  0
   -0.6444   34.6358   -7.4021 O   0  5  0  0  0  0  0  0  0  0  0  0
   -1.6378   33.9048  -11.9792 O   0  0  0  0  0  0  0  0  0  0  0  0
   -4.9620   34.5587   -5.4046 C   0  0  0  0  0  0  0  0  0  0  0  0
   -8.2749   37.5554   -7.3650 C   0  0  0  0  0  0  0  0  0  0  0  0
    0.6220   33.1302   -9.0758 O   0  0  0  0  0  0  0  0  0  0  0  0
    0.8414   34.4954  -11.9120 O   0  5  0  0  0  0  0  0  0  0  0  0
   -5.4103   33.6185   -6.3334 N   0  0  0  0  0  0  0  0  0  0  0  0
   -7.8099   36.8660   -8.4169 N   0  0  0  0  0  0  0  0  0  0  0  0
   -0.6727   35.2079   -9.9652 O   0  0  0  0  0  0  0  0  0  0  0  0
   -0.9044   36.3087  -12.2869 O   0  0  0  0  0  0  0  0  0  0  0  0
   -4.5077   32.7020   -6.8861 C   0  0  1  0  0  0  0  0  0  0  0  0
   -7.3486   35.6192   -8.2585 C   0  0  0  0  0  0  0  0  0  0  0  0
   -6.8885   34.9465   -9.3083 N   0  0  0  0  0  0  0  0  0  0  0  0
   -3.1653   32.7138   -6.5108 C   0  0  2  0  0  0  0  0  0  0  0  0
   -7.3463   35.0296   -7.0003 C   0  0  0  0  0  0  0  0  0  0  0  0
   -2.7360   33.6546   -5.5826 C   0  0  0  0  0  0  0  0  0  0  0  0
   -7.8389   35.7784   -5.9377 C   0  0  0  0  0  0  0  0  0  0  0  0
   -6.8369   33.6071   -6.7341 C   0  0  0  0  0  0  0  0  0  0  0  0
  1 13  1  0  0  0  0
  3  4  1  0  0  0  0
  4  5  1  0  0  0  0
  6  5  1  6  0  0  0
  6 10  1  0  0  0  0
  6 14  2  0  0  0  0
  6 18  1  0  0  0  0
  7 11  1  6  0  0  0
  7 15  1  0  0  0  0
  7 19  2  0  0  0  0
  7 18  1  0  0  0  0
  8 25  1  0  0  0  0
  8 12  1  0  0  0  0
  9 26  2  0  0  0  0
  9 13  1  0  0  0  0
 12 16  1  0  0  0  0
 13 17  2  0  0  0  0
 16 20  1  0  0  0  0
 16 27  1  0  0  0  0
 17 21  1  0  0  0  0
 20  2  1  1  0  0  0
 20 23  1  0  0  0  0
 21 22  1  0  0  0  0
 21 24  2  0  0  0  0
 23  3  1  6  0  0  0
 23 25  1  0  0  0  0
 24 27  1  0  0  0  0
 24 26  1  0  0  0  0
M  CHG  2  10  -1  15  -1
M  END
>  <CHROM.1>
47.90256868,70.67750951,-82.97839470,-60.95939324,45.03773616,54.83558788
93.32700770,44.33183755,-3.59093265,34.51144736,-8.39920668,2.96498439,-0.47130526
2.26533668

>  <Name>
ligand

>  <RI>
0

>  <Rbt.Current_Directory>
/home/itssahil/PROJECTS/Mol_Feturizer/New_Systems/rnas/3D2V

>  <Rbt.Executable>
rbdock ($Id: //depot/dev/client3/rdock/2013.1/src/exe/rbdock.cxx#4 $)

>  <Rbt.Library>
libRbt.so (2013.1, Build901 2013/11/27)

>  <Rbt.Parameter_File>
/export/apps/rDock/src/rDock_2013.1_src/data/scripts/dock_solv.prm

>  <Rbt.Receptor>
prm/blind_docking_40.prm

>  <SCORE>
-10.1146

>  <SCORE.INTER>
-13.222

>  <SCORE.INTER.CONST>
1

>  <SCORE.INTER.POLAR>
0

>  <SCORE.INTER.ROT>
8

>  <SCORE.INTER.SOLV>
29.8718

>  <SCORE.INTER.VDW>
-27.7053

>  <SCORE.INTER.norm>
-0.489704

>  <SCORE.INTRA>
1.41629

>  <SCORE.INTRA.DIHEDRAL>
-0.411412

>  <SCORE.INTRA.DIHEDRAL.0>
7.82666

>  <SCORE.INTRA.POLAR>
0

>  <SCORE.INTRA.POLAR.0>
0

>  <SCORE.INTRA.REPUL>
0

>  <SCORE.INTRA.REPUL.0>
0

>  <SCORE.INTRA.SOLV>
1.16666

>  <SCORE.INTRA.SOLV.lig_0>
-83.2758

>  <SCORE.INTRA.VDW>
1.03866

>  <SCORE.INTRA.VDW.0>
-3.26816

>  <SCORE.INTRA.norm>
0.052455

>  <SCORE.RESTR>
1.69111

>  <SCORE.RESTR.CAVITY>
1.69111

>  <SCORE.RESTR.norm>
0.0626338

>  <SCORE.SYSTEM>
0

>  <SCORE.SYSTEM.CONST>
0

>  <SCORE.SYSTEM.DIHEDRAL>
0

>  <SCORE.SYSTEM.SOLV>
0

>  <SCORE.SYSTEM.norm>
0

>  <SCORE.heavy>
27

>  <SCORE.norm>
-0.374615

>  <RMSD>
8.554

$$$$
ligand
 OpenBabel11021811473D
libRbt.so/2013.1/901 2013/11/27
 27 28  0  0  0  0  0  0  0  0999 V2000
   -5.7485   40.2919  -13.4704 C   0  0  0  0  0  0  0  0  0  0  0  0
   -3.4615   46.9224   -8.7495 C   0  0  0  0  0  0  0  0  0  0  0  0
   -5.4809   47.7110   -6.6818 C   0  0  0  0  0  0  0  0  0  0  0  0
   -4.9013   46.8151   -5.5854 C   0  0  0  0  0  0  0  0  0  0  0  0
   -3.5027   46.6022   -5.7927 O   0  0  0  0  0  0  0  0  0  0  0  0
   -2.6512   45.7581   -4.7239 P   0  0  1  0  0  0  0  0  0  0  0  0
   -0.3532   47.1415   -5.5966 P   0  0  2  0  0  0  0  0  0  0  0  0
   -7.5847   45.7288   -9.1508 C   0  0  0  0  0  0  0  0  0  0  0  0
   -5.3877   42.7524  -13.5250 N   0  0  0  0  0  0  0  0  0  0  0  0
   -2.8371   46.3454   -3.2448 O   0  5  0  0  0  0  0  0  0  0  0  0
    1.1194   47.1199   -5.4804 O   0  0  0  0  0  0  0  0  0  0  0  0
   -6.6650   45.3519  -10.1205 C   0  0  0  0  0  0  0  0  0  0  0  0
   -5.3755   41.6183  -12.8076 C   0  0  0  0  0  0  0  0  0  0  0  0
   -3.0802   44.2006   -4.6637 O   0  0  0  0  0  0  0  0  0  0  0  0
   -0.9947   48.3364   -4.7384 O   0  5  0  0  0  0  0  0  0  0  0  0
   -5.3294   45.7349   -9.9890 N   0  0  0  0  0  0  0  0  0  0  0  0
   -5.0382   41.6362  -11.5099 N   0  0  0  0  0  0  0  0  0  0  0  0
   -1.0714   45.7975   -5.1102 O   0  0  0  0  0  0  0  0  0  0  0  0
   -0.8024   47.4142   -7.1025 O   0  0  0  0  0  0  0  0  0  0  0  0
   -4.9310   46.5010   -8.8870 C   0  0  1  0  0  0  0  0  0  0  0  0
   -4.7083   42.7878  -10.9122 C   0  0  0  0  0  0  0  0  0  0  0  0
   -4.3739   42.7927   -9.6259 N   0  0  0  0  0  0  0  0  0  0  0  0
   -5.8549   46.8784   -7.9138 C   0  0  2  0  0  0  0  0  0  0  0  0
   -4.7110   43.9753  -11.6338 C   0  0  0  0  0  0  0  0  0  0  0  0
   -7.1801   46.4863   -8.0584 C   0  0  0  0  0  0  0  0  0  0  0  0
   -5.0688   43.9123  -12.9756 C   0  0  0  0  0  0  0  0  0  0  0  0
   -4.3474   45.3356  -11.0245 C   0  0  0  0  0  0  0  0  0  0  0  0
  1 13  1  0  0  0  0
  3  4  1  0  0  0  0
  4  5  1  0  0  0  0
  6  5  1  6  0  0  0
  6 10  1  0  0  0  0
  6 14  2  0  0  0  0
  6 18  1  0  0  0  0
  7 11  1  1  0  0  0
  7 15  1  0  0  0  0
  7 19  2  0  0  0  0
  7 18  1  0  0  0  0
  8 25  1  0  0  0  0
  8 12  1  0  0  0  0
  9 26  2  0  0  0  0
  9 13  1  0  0  0  0
 12 16  1  0  0  0  0
 13 17  2  0  0  0  0
 16 20  1  0  0  0  0
 16 27  1  0  0  0  0
 17 21  1  0  0  0  0
 20  2  1  1  0  0  0
 20 23  1  0  0  0  0
 21 22  1  0  0  0  0
 21 24  2  0  0  0  0
 23  3  1  6  0  0  0
 23 25  1  0  0  0  0
 24 27  1  0  0  0  0
 24 26  1  0  0  0  0
M  CHG  2  10  -1  15  -1
M  END
>  <CHROM.1>
84.58173337,176.60267707,-53.35393493,42.49628280,160.98573963,-82.62046423
-64.98265775,-32.36104275,-3.71581870,45.41153812,-8.03099019,-2.04558995
-0.26348727,0.92717365

>  <Name>
ligand

>  <RI>
0

>  <Rbt.Current_Directory>
/home/itssahil/PROJECTS/Mol_Feturizer/New_Systems/rnas/3D2V

>  <Rbt.Executable>
rbdock ($Id: //depot/dev/client3/rdock/2013.1/src/exe/rbdock.cxx#4 $)

>  <Rbt.Library>
libRbt.so (2013.1, Build901 2013/11/27)

>  <Rbt.Parameter_File>
/export/apps/rDock/src/rDock_2013.1_src/data/scripts/dock_solv.prm

>  <Rbt.Receptor>
prm/pocket_docking_6.prm

>  <SCORE>
-16.7249

>  <SCORE.INTER>
-17.8486

>  <SCORE.INTER.CONST>
1

>  <SCORE.INTER.POLAR>
0

>  <SCORE.INTER.ROT>
8

>  <SCORE.INTER.SOLV>
9.15577

>  <SCORE.INTER.VDW>
-23.8843

>  <SCORE.INTER.norm>
-0.661058

>  <SCORE.INTRA>
1.1237

>  <SCORE.INTRA.DIHEDRAL>
0.435751

>  <SCORE.INTRA.DIHEDRAL.0>
7.82666

>  <SCORE.INTRA.POLAR>
0

>  <SCORE.INTRA.POLAR.0>
0

>  <SCORE.INTRA.REPUL>
0

>  <SCORE.INTRA.REPUL.0>
0

>  <SCORE.INTRA.SOLV>
2.80122

>  <SCORE.INTRA.SOLV.lig_0>
-83.2758

>  <SCORE.INTRA.VDW>
-0.494791

>  <SCORE.INTRA.VDW.0>
-3.26816

>  <SCORE.INTRA.norm>
0.0416184

>  <SCORE.RESTR>
0

>  <SCORE.RESTR.CAVITY>
0

>  <SCORE.RESTR.norm>
0

>  <SCORE.SYSTEM>
0

>  <SCORE.SYSTEM.CONST>
0

>  <SCORE.SYSTEM.DIHEDRAL>
0

>  <SCORE.SYSTEM.SOLV>
0

>  <SCORE.SYSTEM.norm>
0

>  <SCORE.heavy>
27

>  <SCORE.norm>
-0.619439

>  <RMSD>
8.597

$$$$
ligand
 OpenBabel11021811463D
libRbt.so/2013.1/901 2013/11/27
 27 28  0  0  0  0  0  0  0  0999 V2000
   -6.6706   36.6628  -11.9636 C   0  0  0  0  0  0  0  0  0  0  0  0
   -4.5506   32.1485   -7.5226 C   0  0  0  0  0  0  0  0  0  0  0  0
   -1.9533   32.5251   -6.0778 C   0  0  0  0  0  0  0  0  0  0  0  0
   -1.3171   32.8861   -7.4215 C   0  0  0  0  0  0  0  0  0  0  0  0
   -0.9266   34.2613   -7.4432 O   0  0  0  0  0  0  0  0  0  0  0  0
   -0.1400   34.8534   -8.7123 P   0  0  1  0  0  0  0  0  0  0  0  0
   -0.6168   35.4172  -11.4347 P   0  0  2  0  0  0  0  0  0  0  0  0
   -4.1241   35.2525   -4.5613 C   0  0  0  0  0  0  0  0  0  0  0  0
   -5.9860   34.8340  -10.4228 N   0  0  0  0  0  0  0  0  0  0  0  0
    0.3530   36.3530   -8.4376 O   0  5  0  0  0  0  0  0  0  0  0  0
   -0.1059   36.8026  -11.3891 O   0  0  0  0  0  0  0  0  0  0  0  0
   -5.3370   35.0950   -5.2187 C   0  0  0  0  0  0  0  0  0  0  0  0
   -6.7077   35.9496  -10.6116 C   0  0  0  0  0  0  0  0  0  0  0  0
    1.1744   33.9944   -9.0972 O   0  0  0  0  0  0  0  0  0  0  0  0
   -1.8639   35.2815  -12.4357 O   0  5  0  0  0  0  0  0  0  0  0  0
   -5.4767   34.0879   -6.1747 N   0  0  0  0  0  0  0  0  0  0  0  0
   -7.4643   36.4476   -9.6229 N   0  0  0  0  0  0  0  0  0  0  0  0
   -1.1059   34.8493  -10.0214 O   0  0  0  0  0  0  0  0  0  0  0  0
    0.4909   34.4194  -12.0016 O   0  0  0  0  0  0  0  0  0  0  0  0
   -4.3923   33.2521   -6.4677 C   0  0  1  0  0  0  0  0  0  0  0  0
   -7.5098   35.8369   -8.4324 C   0  0  0  0  0  0  0  0  0  0  0  0
   -8.2648   36.3389   -7.4606 N   0  0  0  0  0  0  0  0  0  0  0  0
   -3.1752   33.4107   -5.8069 C   0  0  1  0  0  0  0  0  0  0  0  0
   -6.7736   34.6791   -8.2123 C   0  0  0  0  0  0  0  0  0  0  0  0
   -3.0540   34.4164   -4.8557 C   0  0  0  0  0  0  0  0  0  0  0  0
   -6.0012   34.1981   -9.2633 C   0  0  0  0  0  0  0  0  0  0  0  0
   -6.7697   33.9203   -6.8789 C   0  0  0  0  0  0  0  0  0  0  0  0
  1 13  1  0  0  0  0
  3  4  1  0  0  0  0
  4  5  1  0  0  0  0
  6  5  1  1  0  0  0
  6 10  1  0  0  0  0
  6 14  2  0  0  0  0
  6 18  1  0  0  0  0
  7 11  1  1  0  0  0
  7 15  1  0  0  0  0
  7 19  2  0  0  0  0
  7 18  1  0  0  0  0
  8 25  1  0  0  0  0
  8 12  1  0  0  0  0
  9 26  2  0  0  0  0
  9 13  1  0  0  0  0
 12 16  1  0  0  0  0
 13 17  2  0  0  0  0
 16 20  1  0  0  0  0
 16 27  1  0  0  0  0
 17 21  1  0  0  0  0
 20  2  1  1  0  0  0
 20 23  1  0  0  0  0
 21 22  1  0  0  0  0
 21 24  2  0  0  0  0
 23  3  1  1  0  0  0
 23 25  1  0  0  0  0
 24 27  1  0  0  0  0
 24 26  1  0  0  0  0
M  CHG  2  10  -1  15  -1
M  END
>  <CHROM.1>
58.38821167,175.69594733,-172.84448925,178.35766375,-54.44591114,73.87774488
-108.36282275,94.31786297,-3.19584937,34.79368494,-8.70176519,2.79994238
-0.12733153,1.92756673

>  <Name>
ligand

>  <RI>
0

>  <Rbt.Current_Directory>
/home/itssahil/PROJECTS/Mol_Feturizer/New_Systems/rnas/3D2V

>  <Rbt.Executable>
rbdock ($Id: //depot/dev/client3/rdock/2013.1/src/exe/rbdock.cxx#4 $)

>  <Rbt.Library>
libRbt.so (2013.1, Build901 2013/11/27)

>  <Rbt.Parameter_File>
/export/apps/rDock/src/rDock_2013.1_src/data/scripts/dock_solv.prm

>  <Rbt.Receptor>
prm/blind_docking_40.prm

>  <SCORE>
-12.2524

>  <SCORE.INTER>
-11.0604

>  <SCORE.INTER.CONST>
1

>  <SCORE.INTER.POLAR>
0

>  <SCORE.INTER.ROT>
8

>  <SCORE.INTER.SOLV>
37.1031

>  <SCORE.INTER.VDW>
-28.6747

>  <SCORE.INTER.norm>
-0.409645

>  <SCORE.INTRA>
-1.6456

>  <SCORE.INTRA.DIHEDRAL>
-2.43421

>  <SCORE.INTRA.DIHEDRAL.0>
7.82666

>  <SCORE.INTRA.POLAR>
0

>  <SCORE.INTRA.POLAR.0>
0

>  <SCORE.INTRA.REPUL>
0

>  <SCORE.INTRA.REPUL.0>
0

>  <SCORE.INTRA.SOLV>
-0.926758

>  <SCORE.INTRA.SOLV.lig_0>
-83.2758

>  <SCORE.INTRA.VDW>
0.0348857

>  <SCORE.INTRA.VDW.0>
-3.26816

>  <SCORE.INTRA.norm>
-0.0609481

>  <SCORE.RESTR>
0.453631

>  <SCORE.RESTR.CAVITY>
0.453631

>  <SCORE.RESTR.norm>
0.0168011

>  <SCORE.SYSTEM>
0

>  <SCORE.SYSTEM.CONST>
0

>  <SCORE.SYSTEM.DIHEDRAL>
0

>  <SCORE.SYSTEM.SOLV>
0

>  <SCORE.SYSTEM.norm>
0

>  <SCORE.heavy>
27

>  <SCORE.norm>
-0.453792

>  <RMSD>
8.660

$$$$
ligand
 OpenBabel11021811473D
libRbt.so/2013.1/901 2013/11/27
 27 28  0  0  0  0  0  0  0  0999 V2000
   -5.6708   38.8498  -12.4285 C   0  0  0  0  0  0  0  0  0  0  0  0
   -6.4512   45.2170  -11.0922 C   0  0  0  0  0  0  0  0  0  0  0  0
   -6.3186   46.3269   -8.3127 C   0  0  0  0  0  0  0  0  0  0  0  0
   -6.6655   45.3515   -7.1863 C   0  0  0  0  0  0  0  0  0  0  0  0
   -6.9868   46.0584   -5.9858 O   0  0  0  0  0  0  0  0  0  0  0  0
   -7.2672   45.2490   -4.6270 P   0  0  1  0  0  0  0  0  0  0  0  0
   -4.8287   43.8390   -4.4802 P   0  0  2  0  0  0  0  0  0  0  0  0
   -2.6709   45.5473   -9.0461 C   0  0  0  0  0  0  0  0  0  0  0  0
   -5.8576   41.2284  -13.1318 N   0  0  0  0  0  0  0  0  0  0  0  0
   -6.8525   46.1142   -3.3438 O   0  5  0  0  0  0  0  0  0  0  0  0
   -4.1182   44.6086   -5.5221 O   0  0  0  0  0  0  0  0  0  0  0  0
   -2.7096   45.0305  -10.3344 C   0  0  0  0  0  0  0  0  0  0  0  0
   -5.2096   40.3073  -12.4019 C   0  0  0  0  0  0  0  0  0  0  0  0
   -8.8231   44.8526   -4.4382 O   0  0  0  0  0  0  0  0  0  0  0  0
   -4.3908   42.2950   -4.4862 O   0  5  0  0  0  0  0  0  0  0  0  0
   -3.9327   44.9270  -10.9986 N   0  0  0  0  0  0  0  0  0  0  0  0
   -4.1573   40.6532  -11.6463 N   0  0  0  0  0  0  0  0  0  0  0  0
   -6.4222   43.8589   -4.6190 O   0  0  0  0  0  0  0  0  0  0  0  0
   -4.4616   44.3768   -3.0242 O   0  0  0  0  0  0  0  0  0  0  0  0
   -5.1085   45.3366  -10.3583 C   0  0  1  0  0  0  0  0  0  0  0  0
   -3.7385   41.9243  -11.6104 C   0  0  0  0  0  0  0  0  0  0  0  0
   -2.6931   42.2548  -10.8591 N   0  0  0  0  0  0  0  0  0  0  0  0
   -5.0685   45.8557   -9.0652 C   0  0  2  0  0  0  0  0  0  0  0  0
   -4.3911   42.8964  -12.3588 C   0  0  0  0  0  0  0  0  0  0  0  0
   -3.8422   45.9547   -8.4193 C   0  0  0  0  0  0  0  0  0  0  0  0
   -5.4783   42.4954  -13.1266 C   0  0  0  0  0  0  0  0  0  0  0  0
   -3.9758   44.3733  -12.3724 C   0  0  0  0  0  0  0  0  0  0  0  0
  1 13  1  0  0  0  0
  3  4  1  0  0  0  0
  4  5  1  0  0  0  0
  6  5  1  6  0  0  0
  6 10  1  0  0  0  0
  6 14  2  0  0  0  0
  6 18  1  0  0  0  0
  7 11  1  6  0  0  0
  7 15  1  0  0  0  0
  7 19  2  0  0  0  0
  7 18  1  0  0  0  0
  8 25  1  0  0  0  0
  8 12  1  0  0  0  0
  9 26  2  0  0  0  0
  9 13  1  0  0  0  0
 12 16  1  0  0  0  0
 13 17  2  0  0  0  0
 16 20  1  0  0  0  0
 16 27  1  0  0  0  0
 17 21  1  0  0  0  0
 20  2  1  6  0  0  0
 20 23  1  0  0  0  0
 21 22  1  0  0  0  0
 21 24  2  0  0  0  0
 23  3  1  1  0  0  0
 23 25  1  0  0  0  0
 24 27  1  0  0  0  0
 24 26  1  0  0  0  0
M  CHG  2  10  -1  15  -1
M  END
>  <CHROM.1>
135.36104244,-174.92746276,150.22263780,69.73594165,-57.45872035,108.40738548
-54.72703325,98.99008487,-5.26492362,43.98302229,-8.15240190,0.06425605,-1.37566765
2.87103954

>  <Name>
ligand

>  <RI>
0

>  <Rbt.Current_Directory>
/home/itssahil/PROJECTS/Mol_Feturizer/New_Systems/rnas/3D2V

>  <Rbt.Executable>
rbdock ($Id: //depot/dev/client3/rdock/2013.1/src/exe/rbdock.cxx#4 $)

>  <Rbt.Library>
libRbt.so (2013.1, Build901 2013/11/27)

>  <Rbt.Parameter_File>
/export/apps/rDock/src/rDock_2013.1_src/data/scripts/dock_solv.prm

>  <Rbt.Receptor>
prm/pocket_docking_7.prm

>  <SCORE>
-8.80185

>  <SCORE.INTER>
-9.60192

>  <SCORE.INTER.CONST>
1

>  <SCORE.INTER.POLAR>
0

>  <SCORE.INTER.ROT>
8

>  <SCORE.INTER.SOLV>
15.065

>  <SCORE.INTER.VDW>
-20.3563

>  <SCORE.INTER.norm>
-0.355627

>  <SCORE.INTRA>
0.800062

>  <SCORE.INTRA.DIHEDRAL>
3.51962

>  <SCORE.INTRA.DIHEDRAL.0>
7.82666

>  <SCORE.INTRA.POLAR>
0

>  <SCORE.INTRA.POLAR.0>
0

>  <SCORE.INTRA.REPUL>
0

>  <SCORE.INTRA.REPUL.0>
0

>  <SCORE.INTRA.SOLV>
-0.0630552

>  <SCORE.INTRA.SOLV.lig_0>
-83.2758

>  <SCORE.INTRA.VDW>
-0.928221

>  <SCORE.INTRA.VDW.0>
-3.26816

>  <SCORE.INTRA.norm>
0.0296319

>  <SCORE.RESTR>
0

>  <SCORE.RESTR.CAVITY>
0

>  <SCORE.RESTR.norm>
0

>  <SCORE.SYSTEM>
0

>  <SCORE.SYSTEM.CONST>
0

>  <SCORE.SYSTEM.DIHEDRAL>
0

>  <SCORE.SYSTEM.SOLV>
0

>  <SCORE.SYSTEM.norm>
0

>  <SCORE.heavy>
27

>  <SCORE.norm>
-0.325995

>  <RMSD>
8.674

$$$$
ligand
 OpenBabel11021811473D
libRbt.so/2013.1/901 2013/11/27
 27 28  0  0  0  0  0  0  0  0999 V2000
   -4.8169   48.5569   -6.5418 C   0  0  0  0  0  0  0  0  0  0  0  0
   -6.8868   42.9573   -9.7691 C   0  0  0  0  0  0  0  0  0  0  0  0
   -5.0060   40.6568  -10.1511 C   0  0  0  0  0  0  0  0  0  0  0  0
   -4.5060   40.7180   -8.7065 C   0  0  0  0  0  0  0  0  0  0  0  0
   -5.5785   40.4871   -7.7896 O   0  0  0  0  0  0  0  0  0  0  0  0
   -6.1946   39.0125   -7.6286 P   0  0  1  0  0  0  0  0  0  0  0  0
   -8.7724   39.9873   -7.0280 P   0  0  2  0  0  0  0  0  0  0  0  0
   -3.4498   43.3450  -12.3426 C   0  0  0  0  0  0  0  0  0  0  0  0
   -4.4373   47.6757   -8.8367 N   0  0  0  0  0  0  0  0  0  0  0  0
   -6.5982   38.3970   -9.0517 O   0  5  0  0  0  0  0  0  0  0  0  0
   -9.4632   39.6318   -8.2846 O   0  0  0  0  0  0  0  0  0  0  0  0
   -4.3083   44.4240  -12.1792 C   0  0  0  0  0  0  0  0  0  0  0  0
   -5.2340   47.7296   -7.7581 C   0  0  0  0  0  0  0  0  0  0  0  0
   -5.1654   37.9696   -6.9454 O   0  0  0  0  0  0  0  0  0  0  0  0
   -8.2267   41.4962   -7.0618 O   0  5  0  0  0  0  0  0  0  0  0  0
   -5.4190   44.3002  -11.3433 N   0  0  0  0  0  0  0  0  0  0  0  0
   -6.3971   47.0627   -7.7357 N   0  0  0  0  0  0  0  0  0  0  0  0
   -7.5168   39.0585   -6.6819 O   0  0  0  0  0  0  0  0  0  0  0  0
   -9.7757   39.9283   -5.7895 O   0  0  0  0  0  0  0  0  0  0  0  0
   -5.6617   43.0889  -10.6844 C   0  0  1  0  0  0  0  0  0  0  0  0
   -6.7794   46.3333   -8.7912 C   0  0  0  0  0  0  0  0  0  0  0  0
   -7.9353   45.6781   -8.7580 N   0  0  0  0  0  0  0  0  0  0  0  0
   -4.7990   42.0064  -10.8487 C   0  0  1  0  0  0  0  0  0  0  0  0
   -5.9734   46.2631   -9.9209 C   0  0  0  0  0  0  0  0  0  0  0  0
   -3.6962   42.1475  -11.6823 C   0  0  0  0  0  0  0  0  0  0  0  0
   -4.7753   46.9678   -9.9015 C   0  0  0  0  0  0  0  0  0  0  0  0
   -6.3375   45.4500  -11.1700 C   0  0  0  0  0  0  0  0  0  0  0  0
  1 13  1  0  0  0  0
  3  4  1  0  0  0  0
  4  5  1  0  0  0  0
  6  5  1  6  0  0  0
  6 10  1  0  0  0  0
  6 14  2  0  0  0  0
  6 18  1  0  0  0  0
  7 11  1  6  0  0  0
  7 15  1  0  0  0  0
  7 19  2  0  0  0  0
  7 18  1  0  0  0  0
  8 25  1  0  0  0  0
  8 12  1  0  0  0  0
  9 26  2  0  0  0  0
  9 13  1  0  0  0  0
 12 16  1  0  0  0  0
 13 17  2  0  0  0  0
 16 20  1  0  0  0  0
 16 27  1  0  0  0  0
 17 21  1  0  0  0  0
 20  2  1  1  0  0  0
 20 23  1  0  0  0  0
 21 22  1  0  0  0  0
 21 24  2  0  0  0  0
 23  3  1  1  0  0  0
 23 25  1  0  0  0  0
 24 27  1  0  0  0  0
 24 26  1  0  0  0  0
M  CHG  2  10  -1  15  -1
M  END
>  <CHROM.1>
117.99929263,72.42905377,-51.86177886,56.88465153,64.00384163,-80.35445053
-112.31773734,-95.24416672,-6.27578537,42.54419999,-8.75153193,1.15100243
0.86218665,0.06086529

>  <Name>
ligand

>  <RI>
0

>  <Rbt.Current_Directory>
/home/itssahil/PROJECTS/Mol_Feturizer/New_Systems/rnas/3D2V

>  <Rbt.Executable>
rbdock ($Id: //depot/dev/client3/rdock/2013.1/src/exe/rbdock.cxx#4 $)

>  <Rbt.Library>
libRbt.so (2013.1, Build901 2013/11/27)

>  <Rbt.Parameter_File>
/export/apps/rDock/src/rDock_2013.1_src/data/scripts/dock_solv.prm

>  <Rbt.Receptor>
prm/pocket_docking_7.prm

>  <SCORE>
-12.9137

>  <SCORE.INTER>
-15.3992

>  <SCORE.INTER.CONST>
1

>  <SCORE.INTER.POLAR>
0

>  <SCORE.INTER.ROT>
8

>  <SCORE.INTER.SOLV>
29.0408

>  <SCORE.INTER.VDW>
-28.8797

>  <SCORE.INTER.norm>
-0.570342

>  <SCORE.INTRA>
2.48557

>  <SCORE.INTRA.DIHEDRAL>
3.74742

>  <SCORE.INTRA.DIHEDRAL.0>
7.82666

>  <SCORE.INTRA.POLAR>
0

>  <SCORE.INTRA.POLAR.0>
0

>  <SCORE.INTRA.REPUL>
0

>  <SCORE.INTRA.REPUL.0>
0

>  <SCORE.INTRA.SOLV>
2.58252

>  <SCORE.INTRA.SOLV.lig_0>
-83.2758

>  <SCORE.INTRA.VDW>
-0.679405

>  <SCORE.INTRA.VDW.0>
-3.26816

>  <SCORE.INTRA.norm>
0.092058

>  <SCORE.RESTR>
0

>  <SCORE.RESTR.CAVITY>
0

>  <SCORE.RESTR.norm>
0

>  <SCORE.SYSTEM>
0

>  <SCORE.SYSTEM.CONST>
0

>  <SCORE.SYSTEM.DIHEDRAL>
0

>  <SCORE.SYSTEM.SOLV>
0

>  <SCORE.SYSTEM.norm>
0

>  <SCORE.heavy>
27

>  <SCORE.norm>
-0.478284

>  <RMSD>
8.684

$$$$
ligand
 OpenBabel11021811463D
libRbt.so/2013.1/901 2013/11/27
 27 28  0  0  0  0  0  0  0  0999 V2000
   -7.5893   37.4624   -5.2632 C   0  0  0  0  0  0  0  0  0  0  0  0
   -3.4157   31.6448   -9.1699 C   0  0  0  0  0  0  0  0  0  0  0  0
   -0.4654   32.1454   -9.3120 C   0  0  0  0  0  0  0  0  0  0  0  0
    0.2472   33.3306   -9.9662 C   0  0  0  0  0  0  0  0  0  0  0  0
   -0.6951   34.2045  -10.5927 O   0  0  0  0  0  0  0  0  0  0  0  0
   -0.1791   35.4241  -11.5017 P   0  0  1  0  0  0  0  0  0  0  0  0
    1.0147   36.5185   -9.1923 P   0  0  2  0  0  0  0  0  0  0  0  0
   -1.3988   33.7534   -5.9963 C   0  0  0  0  0  0  0  0  0  0  0  0
   -5.9335   35.6390   -4.9152 N   0  0  0  0  0  0  0  0  0  0  0  0
    1.1056   35.0006  -12.3604 O   0  5  0  0  0  0  0  0  0  0  0  0
    2.2787   35.7648   -9.3211 O   0  0  0  0  0  0  0  0  0  0  0  0
   -2.7668   33.5316   -5.9099 C   0  0  0  0  0  0  0  0  0  0  0  0
   -6.8823   36.1778   -5.6966 C   0  0  0  0  0  0  0  0  0  0  0  0
   -1.2920   35.9421  -12.5537 O   0  0  0  0  0  0  0  0  0  0  0  0
    0.0077   35.8094   -8.1633 O   0  5  0  0  0  0  0  0  0  0  0  0
   -3.4195   32.8457   -6.9353 N   0  0  0  0  0  0  0  0  0  0  0  0
   -7.2185   35.5989   -6.8584 N   0  0  0  0  0  0  0  0  0  0  0  0
    0.2111   36.6951  -10.5642 O   0  0  0  0  0  0  0  0  0  0  0  0
    1.2767   37.9731   -8.5928 O   0  0  0  0  0  0  0  0  0  0  0  0
   -2.6920   32.3954   -8.0435 C   0  0  1  0  0  0  0  0  0  0  0  0
   -6.6104   34.4739   -7.2549 C   0  0  0  0  0  0  0  0  0  0  0  0
   -6.9507   33.9103   -8.4094 N   0  0  0  0  0  0  0  0  0  0  0  0
   -1.3186   32.6181   -8.1290 C   0  0  2  0  0  0  0  0  0  0  0  0
   -5.6232   33.8976   -6.4649 C   0  0  0  0  0  0  0  0  0  0  0  0
   -0.6838   33.3000   -7.0981 C   0  0  0  0  0  0  0  0  0  0  0  0
   -5.3068   34.5289   -5.2675 C   0  0  0  0  0  0  0  0  0  0  0  0
   -4.8798   32.6106   -6.8457 C   0  0  0  0  0  0  0  0  0  0  0  0
  1 13  1  0  0  0  0
  3  4  1  0  0  0  0
  4  5  1  0  0  0  0
  6  5  1  1  0  0  0
  6 10  1  0  0  0  0
  6 14  2  0  0  0  0
  6 18  1  0  0  0  0
  7 11  1  6  0  0  0
  7 15  1  0  0  0  0
  7 19  2  0  0  0  0
  7 18  1  0  0  0  0
  8 25  1  0  0  0  0
  8 12  1  0  0  0  0
  9 26  2  0  0  0  0
  9 13  1  0  0  0  0
 12 16  1  0  0  0  0
 13 17  2  0  0  0  0
 16 20  1  0  0  0  0
 16 27  1  0  0  0  0
 17 21  1  0  0  0  0
 20  2  1  1  0  0  0
 20 23  1  0  0  0  0
 21 22  1  0  0  0  0
 21 24  2  0  0  0  0
 23  3  1  6  0  0  0
 23 25  1  0  0  0  0
 24 27  1  0  0  0  0
 24 26  1  0  0  0  0
M  CHG  2  10  -1  15  -1
M  END
>  <CHROM.1>
-67.08447228,-172.46205526,38.12197263,42.29319137,53.43323579,122.15902572
121.07704738,47.72215522,-2.17938014,34.75602669,-8.47732918,3.11995741,-0.55926264
-2.99986531

>  <Name>
ligand

>  <RI>
0

>  <Rbt.Current_Directory>
/home/itssahil/PROJECTS/Mol_Feturizer/New_Systems/rnas/3D2V

>  <Rbt.Executable>
rbdock ($Id: //depot/dev/client3/rdock/2013.1/src/exe/rbdock.cxx#4 $)

>  <Rbt.Library>
libRbt.so (2013.1, Build901 2013/11/27)

>  <Rbt.Parameter_File>
/export/apps/rDock/src/rDock_2013.1_src/data/scripts/dock_solv.prm

>  <Rbt.Receptor>
prm/blind_docking_40.prm

>  <SCORE>
-14.0612

>  <SCORE.INTER>
-14.4438

>  <SCORE.INTER.CONST>
1

>  <SCORE.INTER.POLAR>
0

>  <SCORE.INTER.ROT>
8

>  <SCORE.INTER.SOLV>
37.5982

>  <SCORE.INTER.VDW>
-31.0953

>  <SCORE.INTER.norm>
-0.534956

>  <SCORE.INTRA>
-0.578907

>  <SCORE.INTRA.DIHEDRAL>
-0.923455

>  <SCORE.INTRA.DIHEDRAL.0>
7.82666

>  <SCORE.INTRA.POLAR>
0

>  <SCORE.INTRA.POLAR.0>
0

>  <SCORE.INTRA.REPUL>
0

>  <SCORE.INTRA.REPUL.0>
0

>  <SCORE.INTRA.SOLV>
0.188846

>  <SCORE.INTRA.SOLV.lig_0>
-83.2758

>  <SCORE.INTRA.VDW>
-0.211602

>  <SCORE.INTRA.VDW.0>
-3.26816

>  <SCORE.INTRA.norm>
-0.021441

>  <SCORE.RESTR>
0.96149

>  <SCORE.RESTR.CAVITY>
0.96149

>  <SCORE.RESTR.norm>
0.0356107

>  <SCORE.SYSTEM>
0

>  <SCORE.SYSTEM.CONST>
0

>  <SCORE.SYSTEM.DIHEDRAL>
0

>  <SCORE.SYSTEM.SOLV>
0

>  <SCORE.SYSTEM.norm>
0

>  <SCORE.heavy>
27

>  <SCORE.norm>
-0.520787

>  <RMSD>
8.703

$$$$
ligand
 OpenBabel11021811473D
libRbt.so/2013.1/901 2013/11/27
 27 28  0  0  0  0  0  0  0  0999 V2000
   -5.0259   39.8183  -12.9469 C   0  0  0  0  0  0  0  0  0  0  0  0
   -3.7841   45.0483   -8.3852 C   0  0  0  0  0  0  0  0  0  0  0  0
   -2.6527   44.3625   -5.6973 C   0  0  0  0  0  0  0  0  0  0  0  0
   -2.6706   43.1373   -4.7811 C   0  0  0  0  0  0  0  0  0  0  0  0
   -3.4322   43.3999   -3.5999 O   0  0  0  0  0  0  0  0  0  0  0  0
   -5.0372   43.4023   -3.6627 P   0  0  1  0  0  0  0  0  0  0  0  0
   -7.0752   44.9526   -4.8457 P   0  0  2  0  0  0  0  0  0  0  0  0
    0.0530   43.1106   -8.0559 C   0  0  0  0  0  0  0  0  0  0  0  0
   -3.0256   40.9275  -11.9694 N   0  0  0  0  0  0  0  0  0  0  0  0
   -5.6025   41.9498   -4.0342 O   0  5  0  0  0  0  0  0  0  0  0  0
   -8.0657   43.8642   -4.7159 O   0  0  0  0  0  0  0  0  0  0  0  0
   -0.4525   43.4201   -9.3116 C   0  0  0  0  0  0  0  0  0  0  0  0
   -4.3017   41.0352  -12.3704 C   0  0  0  0  0  0  0  0  0  0  0  0
   -5.7231   43.8241   -2.2608 O   0  0  0  0  0  0  0  0  0  0  0  0
   -7.2419   45.7388   -6.2349 O   0  5  0  0  0  0  0  0  0  0  0  0
   -1.6929   44.0508   -9.4185 N   0  0  0  0  0  0  0  0  0  0  0  0
   -4.9513   42.2040  -12.2703 N   0  0  0  0  0  0  0  0  0  0  0  0
   -5.5522   44.4678   -4.7789 O   0  0  0  0  0  0  0  0  0  0  0  0
   -7.2846   46.0525   -3.7097 O   0  0  0  0  0  0  0  0  0  0  0  0
   -2.4188   44.3579   -8.2614 C   0  0  1  0  0  0  0  0  0  0  0  0
   -4.3341   43.2805  -11.7679 C   0  0  0  0  0  0  0  0  0  0  0  0
   -4.9889   44.4331  -11.6719 N   0  0  0  0  0  0  0  0  0  0  0  0
   -1.9103   44.0472   -7.0013 C   0  0  1  0  0  0  0  0  0  0  0  0
   -3.0137   43.1943  -11.3435 C   0  0  0  0  0  0  0  0  0  0  0  0
   -0.6726   43.4220   -6.9124 C   0  0  0  0  0  0  0  0  0  0  0  0
   -2.3770   41.9647  -11.4669 C   0  0  0  0  0  0  0  0  0  0  0  0
   -2.2348   44.3793  -10.7580 C   0  0  0  0  0  0  0  0  0  0  0  0
  1 13  1  0  0  0  0
  3  4  1  0  0  0  0
  4  5  1  0  0  0  0
  6  5  1  1  0  0  0
  6 10  1  0  0  0  0
  6 14  2  0  0  0  0
  6 18  1  0  0  0  0
  7 11  1  1  0  0  0
  7 15  1  0  0  0  0
  7 19  2  0  0  0  0
  7 18  1  0  0  0  0
  8 25  1  0  0  0  0
  8 12  1  0  0  0  0
  9 26  2  0  0  0  0
  9 13  1  0  0  0  0
 12 16  1  0  0  0  0
 13 17  2  0  0  0  0
 16 20  1  0  0  0  0
 16 27  1  0  0  0  0
 17 21  1  0  0  0  0
 20  2  1  1  0  0  0
 20 23  1  0  0  0  0
 21 22  1  0  0  0  0
 21 24  2  0  0  0  0
 23  3  1  1  0  0  0
 23 25  1  0  0  0  0
 24 27  1  0  0  0  0
 24 26  1  0  0  0  0
M  CHG  2  10  -1  15  -1
M  END
>  <CHROM.1>
-176.42149717,76.43085409,64.29878227,-165.45873075,-44.90763306,131.93003939
124.33526891,86.73286888,-4.23852835,43.56957214,-7.37467575,1.22896140,0.05815042
-1.78964606

>  <Name>
ligand

>  <RI>
0

>  <Rbt.Current_Directory>
/home/itssahil/PROJECTS/Mol_Feturizer/New_Systems/rnas/3D2V

>  <Rbt.Executable>
rbdock ($Id: //depot/dev/client3/rdock/2013.1/src/exe/rbdock.cxx#4 $)

>  <Rbt.Library>
libRbt.so (2013.1, Build901 2013/11/27)

>  <Rbt.Parameter_File>
/export/apps/rDock/src/rDock_2013.1_src/data/scripts/dock_solv.prm

>  <Rbt.Receptor>
prm/pocket_docking_5.prm

>  <SCORE>
-8.30559

>  <SCORE.INTER>
-8.40555

>  <SCORE.INTER.CONST>
1

>  <SCORE.INTER.POLAR>
0

>  <SCORE.INTER.ROT>
8

>  <SCORE.INTER.SOLV>
11.233

>  <SCORE.INTER.VDW>
-18.2814

>  <SCORE.INTER.norm>
-0.311316

>  <SCORE.INTRA>
0.099952

>  <SCORE.INTRA.DIHEDRAL>
-0.637824

>  <SCORE.INTRA.DIHEDRAL.0>
7.82666

>  <SCORE.INTRA.POLAR>
0

>  <SCORE.INTRA.POLAR.0>
0

>  <SCORE.INTRA.REPUL>
0

>  <SCORE.INTRA.REPUL.0>
0

>  <SCORE.INTRA.SOLV>
0.920618

>  <SCORE.INTRA.SOLV.lig_0>
-83.2758

>  <SCORE.INTRA.VDW>
-0.0414448

>  <SCORE.INTRA.VDW.0>
-3.26816

>  <SCORE.INTRA.norm>
0.00370193

>  <SCORE.RESTR>
0

>  <SCORE.RESTR.CAVITY>
0

>  <SCORE.RESTR.norm>
0

>  <SCORE.SYSTEM>
0

>  <SCORE.SYSTEM.CONST>
0

>  <SCORE.SYSTEM.DIHEDRAL>
0

>  <SCORE.SYSTEM.SOLV>
0

>  <SCORE.SYSTEM.norm>
0

>  <SCORE.heavy>
27

>  <SCORE.norm>
-0.307615

>  <RMSD>
8.708

$$$$
ligand
 OpenBabel11021811473D
libRbt.so/2013.1/901 2013/11/27
 27 28  0  0  0  0  0  0  0  0999 V2000
   -5.6320   48.7208   -5.2103 C   0  0  0  0  0  0  0  0  0  0  0  0
   -3.1248   44.2921   -8.8506 C   0  0  0  0  0  0  0  0  0  0  0  0
   -4.0744   41.4567   -9.0358 C   0  0  0  0  0  0  0  0  0  0  0  0
   -4.9905   40.9157   -7.9363 C   0  0  0  0  0  0  0  0  0  0  0  0
   -4.4143   39.7614   -7.3201 O   0  0  0  0  0  0  0  0  0  0  0  0
   -5.1395   39.0759   -6.0616 P   0  0  1  0  0  0  0  0  0  0  0  0
   -7.1674   37.7554   -7.5110 P   0  0  2  0  0  0  0  0  0  0  0  0
   -6.5250   43.2788  -11.2997 C   0  0  0  0  0  0  0  0  0  0  0  0
   -4.2810   48.4472   -7.2808 N   0  0  0  0  0  0  0  0  0  0  0  0
   -4.4458   37.6817   -5.6846 O   0  5  0  0  0  0  0  0  0  0  0  0
   -6.7545   36.3634   -7.2381 O   0  0  0  0  0  0  0  0  0  0  0  0
   -6.1012   44.5992  -11.2287 C   0  0  0  0  0  0  0  0  0  0  0  0
   -5.3591   48.0795   -6.5712 C   0  0  0  0  0  0  0  0  0  0  0  0
   -5.0949   39.9929   -4.7309 O   0  0  0  0  0  0  0  0  0  0  0  0
   -6.5759   38.2830   -8.9066 O   0  5  0  0  0  0  0  0  0  0  0  0
   -4.9982   44.9271  -10.4389 N   0  0  0  0  0  0  0  0  0  0  0  0
   -6.2031   47.1516   -7.0450 N   0  0  0  0  0  0  0  0  0  0  0  0
   -6.7087   38.8081   -6.3972 O   0  0  0  0  0  0  0  0  0  0  0  0
   -8.7521   37.8620   -7.6561 O   0  0  0  0  0  0  0  0  0  0  0  0
   -4.3350   43.9251   -9.7204 C   0  0  1  0  0  0  0  0  0  0  0  0
   -5.9810   46.5791   -8.2347 C   0  0  0  0  0  0  0  0  0  0  0  0
   -6.8258   45.6619   -8.6948 N   0  0  0  0  0  0  0  0  0  0  0  0
   -4.7609   42.5998   -9.7928 C   0  0  2  0  0  0  0  0  0  0  0  0
   -4.8732   46.9441   -8.9898 C   0  0  0  0  0  0  0  0  0  0  0  0
   -5.8589   42.2900  -10.5860 C   0  0  0  0  0  0  0  0  0  0  0  0
   -4.0228   47.9081   -8.4606 C   0  0  0  0  0  0  0  0  0  0  0  0
   -4.5465   46.3362  -10.3601 C   0  0  0  0  0  0  0  0  0  0  0  0
  1 13  1  0  0  0  0
  3  4  1  0  0  0  0
  4  5  1  0  0  0  0
  6  5  1  6  0  0  0
  6 10  1  0  0  0  0
  6 14  2  0  0  0  0
  6 18  1  0  0  0  0
  7 11  1  1  0  0  0
  7 15  1  0  0  0  0
  7 19  2  0  0  0  0
  7 18  1  0  0  0  0
  8 25  1  0  0  0  0
  8 12  1  0  0  0  0
  9 26  2  0  0  0  0
  9 13  1  0  0  0  0
 12 16  1  0  0  0  0
 13 17  2  0  0  0  0
 16 20  1  0  0  0  0
 16 27  1  0  0  0  0
 17 21  1  0  0  0  0
 20  2  1  6  0  0  0
 20 23  1  0  0  0  0
 21 22  1  0  0  0  0
 21 24  2  0  0  0  0
 23  3  1  1  0  0  0
 23 25  1  0  0  0  0
 24 27  1  0  0  0  0
 24 26  1  0  0  0  0
M  CHG  2  10  -1  15  -1
M  END
>  <CHROM.1>
173.95353538,175.50056992,171.19916667,66.56044144,61.43323798,111.72947718
-31.78264690,108.13788435,-5.54454572,42.34373848,-7.97203324,-0.68681821
1.40220123,2.12058595

>  <Name>
ligand

>  <RI>
0

>  <Rbt.Current_Directory>
/home/itssahil/PROJECTS/Mol_Feturizer/New_Systems/rnas/3D2V

>  <Rbt.Executable>
rbdock ($Id: //depot/dev/client3/rdock/2013.1/src/exe/rbdock.cxx#4 $)

>  <Rbt.Library>
libRbt.so (2013.1, Build901 2013/11/27)

>  <Rbt.Parameter_File>
/export/apps/rDock/src/rDock_2013.1_src/data/scripts/dock_solv.prm

>  <Rbt.Receptor>
prm/pocket_docking_8.prm

>  <SCORE>
-10.8478

>  <SCORE.INTER>
-10.6768

>  <SCORE.INTER.CONST>
1

>  <SCORE.INTER.POLAR>
0

>  <SCORE.INTER.ROT>
8

>  <SCORE.INTER.SOLV>
20.9934

>  <SCORE.INTER.VDW>
-23.049

>  <SCORE.INTER.norm>
-0.395437

>  <SCORE.INTRA>
-0.170993

>  <SCORE.INTRA.DIHEDRAL>
-2.19312

>  <SCORE.INTRA.DIHEDRAL.0>
7.82666

>  <SCORE.INTRA.POLAR>
0

>  <SCORE.INTRA.POLAR.0>
0

>  <SCORE.INTRA.REPUL>
0

>  <SCORE.INTRA.REPUL.0>
0

>  <SCORE.INTRA.SOLV>
2.88117

>  <SCORE.INTRA.SOLV.lig_0>
-83.2758

>  <SCORE.INTRA.VDW>
-0.515018

>  <SCORE.INTRA.VDW.0>
-3.26816

>  <SCORE.INTRA.norm>
-0.00633307

>  <SCORE.RESTR>
0

>  <SCORE.RESTR.CAVITY>
0

>  <SCORE.RESTR.norm>
0

>  <SCORE.SYSTEM>
0

>  <SCORE.SYSTEM.CONST>
0

>  <SCORE.SYSTEM.DIHEDRAL>
0

>  <SCORE.SYSTEM.SOLV>
0

>  <SCORE.SYSTEM.norm>
0

>  <SCORE.heavy>
27

>  <SCORE.norm>
-0.401771

>  <RMSD>
8.721

$$$$
ligand
 OpenBabel11021811473D
libRbt.so/2013.1/901 2013/11/27
 27 28  0  0  0  0  0  0  0  0999 V2000
   -4.8573   39.9931  -13.1278 C   0  0  0  0  0  0  0  0  0  0  0  0
   -3.7308   44.5401   -7.8852 C   0  0  0  0  0  0  0  0  0  0  0  0
   -2.3158   43.5655   -5.4309 C   0  0  0  0  0  0  0  0  0  0  0  0
   -3.4631   42.5552   -5.3690 C   0  0  0  0  0  0  0  0  0  0  0  0
   -3.9608   42.4361   -4.0340 O   0  0  0  0  0  0  0  0  0  0  0  0
   -5.2795   41.5664   -3.7427 P   0  0  1  0  0  0  0  0  0  0  0  0
   -6.7930   43.9384   -3.9416 P   0  0  2  0  0  0  0  0  0  0  0  0
    0.2935   43.0147   -8.1400 C   0  0  0  0  0  0  0  0  0  0  0  0
   -2.9328   41.0860  -11.9925 N   0  0  0  0  0  0  0  0  0  0  0  0
   -5.2232   40.1592   -4.5066 O   0  5  0  0  0  0  0  0  0  0  0  0
   -5.8154   44.8067   -4.6293 O   0  0  0  0  0  0  0  0  0  0  0  0
   -0.3436   43.4620   -9.2899 C   0  0  0  0  0  0  0  0  0  0  0  0
   -4.2025   41.1780  -12.4171 C   0  0  0  0  0  0  0  0  0  0  0  0
   -5.4840   41.2364   -2.1734 O   0  0  0  0  0  0  0  0  0  0  0  0
   -6.7227   44.1182   -2.3483 O   0  5  0  0  0  0  0  0  0  0  0  0
   -1.6449   43.9593   -9.2073 N   0  0  0  0  0  0  0  0  0  0  0  0
   -4.9062   42.3029  -12.2238 N   0  0  0  0  0  0  0  0  0  0  0  0
   -6.6033   42.3765   -4.2305 O   0  0  0  0  0  0  0  0  0  0  0  0
   -8.2857   44.3289   -4.3457 O   0  0  0  0  0  0  0  0  0  0  0  0
   -2.2982   43.9954   -7.9695 C   0  0  1  0  0  0  0  0  0  0  0  0
   -4.3501   43.3508  -11.6032 C   0  0  0  0  0  0  0  0  0  0  0  0
   -5.0581   44.4599  -11.4156 N   0  0  0  0  0  0  0  0  0  0  0  0
   -1.6577   43.5467   -6.8156 C   0  0  2  0  0  0  0  0  0  0  0  0
   -3.0377   43.2799  -11.1521 C   0  0  0  0  0  0  0  0  0  0  0  0
   -0.3610   43.0573   -6.9150 C   0  0  0  0  0  0  0  0  0  0  0  0
   -2.3436   42.0962  -11.3748 C   0  0  0  0  0  0  0  0  0  0  0  0
   -2.3270   44.4345  -10.4340 C   0  0  0  0  0  0  0  0  0  0  0  0
  1 13  1  0  0  0  0
  3  4  1  0  0  0  0
  4  5  1  0  0  0  0
  6  5  1  6  0  0  0
  6 10  1  0  0  0  0
  6 14  2  0  0  0  0
  6 18  1  0  0  0  0
  7 11  1  6  0  0  0
  7 15  1  0  0  0  0
  7 19  2  0  0  0  0
  7 18  1  0  0  0  0
  8 25  1  0  0  0  0
  8 12  1  0  0  0  0
  9 26  2  0  0  0  0
  9 13  1  0  0  0  0
 12 16  1  0  0  0  0
 13 17  2  0  0  0  0
 16 20  1  0  0  0  0
 16 27  1  0  0  0  0
 17 21  1  0  0  0  0
 20  2  1  1  0  0  0
 20 23  1  0  0  0  0
 21 22  1  0  0  0  0
 21 24  2  0  0  0  0
 23  3  1  6  0  0  0
 23 25  1  0  0  0  0
 24 27  1  0  0  0  0
 24 26  1  0  0  0  0
M  CHG  2  10  -1  15  -1
M  END
>  <CHROM.1>
172.09510234,172.78999275,45.67498196,-43.27005996,65.27488515,68.31329593
132.06981743,87.05798668,-4.17764890,42.89494444,-7.14048332,1.20438518,-0.14623053
-1.66862054

>  <Name>
ligand

>  <RI>
0

>  <Rbt.Current_Directory>
/home/itssahil/PROJECTS/Mol_Feturizer/New_Systems/rnas/3D2V

>  <Rbt.Executable>
rbdock ($Id: //depot/dev/client3/rdock/2013.1/src/exe/rbdock.cxx#4 $)

>  <Rbt.Library>
libRbt.so (2013.1, Build901 2013/11/27)

>  <Rbt.Parameter_File>
/export/apps/rDock/src/rDock_2013.1_src/data/scripts/dock_solv.prm

>  <Rbt.Receptor>
prm/pocket_docking_7.prm

>  <SCORE>
-10.9547

>  <SCORE.INTER>
-9.36839

>  <SCORE.INTER.CONST>
1

>  <SCORE.INTER.POLAR>
0

>  <SCORE.INTER.ROT>
8

>  <SCORE.INTER.SOLV>
11.8672

>  <SCORE.INTER.VDW>
-19.1347

>  <SCORE.INTER.norm>
-0.346977

>  <SCORE.INTRA>
-1.58635

>  <SCORE.INTRA.DIHEDRAL>
-1.35611

>  <SCORE.INTRA.DIHEDRAL.0>
7.82666

>  <SCORE.INTRA.POLAR>
0

>  <SCORE.INTRA.POLAR.0>
0

>  <SCORE.INTRA.REPUL>
0

>  <SCORE.INTRA.REPUL.0>
0

>  <SCORE.INTRA.SOLV>
-1.09158

>  <SCORE.INTRA.SOLV.lig_0>
-83.2758

>  <SCORE.INTRA.VDW>
-0.362503

>  <SCORE.INTRA.VDW.0>
-3.26816

>  <SCORE.INTRA.norm>
-0.0587536

>  <SCORE.RESTR>
0

>  <SCORE.RESTR.CAVITY>
0

>  <SCORE.RESTR.norm>
0

>  <SCORE.SYSTEM>
0

>  <SCORE.SYSTEM.CONST>
0

>  <SCORE.SYSTEM.DIHEDRAL>
0

>  <SCORE.SYSTEM.SOLV>
0

>  <SCORE.SYSTEM.norm>
0

>  <SCORE.heavy>
27

>  <SCORE.norm>
-0.405731

>  <RMSD>
8.724

$$$$
ligand
 OpenBabel11021811473D
libRbt.so/2013.1/901 2013/11/27
 27 28  0  0  0  0  0  0  0  0999 V2000
   -5.3996   40.3737  -13.3619 C   0  0  0  0  0  0  0  0  0  0  0  0
   -3.5160   45.9798   -8.2003 C   0  0  0  0  0  0  0  0  0  0  0  0
   -5.6105   46.6617   -6.1697 C   0  0  0  0  0  0  0  0  0  0  0  0
   -6.0871   45.4987   -5.2975 C   0  0  0  0  0  0  0  0  0  0  0  0
   -5.5337   44.2626   -5.7559 O   0  0  0  0  0  0  0  0  0  0  0  0
   -5.8650   42.8965   -4.9786 P   0  0  1  0  0  0  0  0  0  0  0  0
   -5.0691   40.1913   -5.0492 P   0  0  2  0  0  0  0  0  0  0  0  0
   -7.6619   46.2715   -9.3463 C   0  0  0  0  0  0  0  0  0  0  0  0
   -5.4478   42.8606  -13.3464 N   0  0  0  0  0  0  0  0  0  0  0  0
   -5.3587   42.9594   -3.4598 O   0  5  0  0  0  0  0  0  0  0  0  0
   -4.2817   40.1407   -3.8002 O   0  0  0  0  0  0  0  0  0  0  0  0
   -6.7074   45.9536  -10.3034 C   0  0  0  0  0  0  0  0  0  0  0  0
   -5.1142   41.7270  -12.7102 C   0  0  0  0  0  0  0  0  0  0  0  0
   -7.4467   42.5663   -4.9287 O   0  0  0  0  0  0  0  0  0  0  0  0
   -4.4706   39.2039   -6.1638 O   0  5  0  0  0  0  0  0  0  0  0  0
   -5.3657   45.8554   -9.9321 N   0  0  0  0  0  0  0  0  0  0  0  0
   -4.5306   41.7689  -11.5036 N   0  0  0  0  0  0  0  0  0  0  0  0
   -5.1445   41.6411   -5.7212 O   0  0  0  0  0  0  0  0  0  0  0  0
   -6.5638   39.6929   -4.8015 O   0  0  0  0  0  0  0  0  0  0  0  0
   -4.9936   46.0857   -8.6022 C   0  0  1  0  0  0  0  0  0  0  0  0
   -4.2725   42.9443  -10.9171 C   0  0  0  0  0  0  0  0  0  0  0  0
   -3.6919   42.9732   -9.7219 N   0  0  0  0  0  0  0  0  0  0  0  0
   -5.9526   46.4043   -7.6420 C   0  0  1  0  0  0  0  0  0  0  0  0
   -4.6061   44.1322  -11.5562 C   0  0  0  0  0  0  0  0  0  0  0  0
   -7.2844   46.4952   -8.0278 C   0  0  0  0  0  0  0  0  0  0  0  0
   -5.2113   44.0436  -12.8045 C   0  0  0  0  0  0  0  0  0  0  0  0
   -4.3458   45.5187  -10.9530 C   0  0  0  0  0  0  0  0  0  0  0  0
  1 13  1  0  0  0  0
  3  4  1  0  0  0  0
  4  5  1  0  0  0  0
  6  5  1  6  0  0  0
  6 10  1  0  0  0  0
  6 14  2  0  0  0  0
  6 18  1  0  0  0  0
  7 11  1  1  0  0  0
  7 15  1  0  0  0  0
  7 19  2  0  0  0  0
  7 18  1  0  0  0  0
  8 25  1  0  0  0  0
  8 12  1  0  0  0  0
  9 26  2  0  0  0  0
  9 13  1  0  0  0  0
 12 16  1  0  0  0  0
 13 17  2  0  0  0  0
 16 20  1  0  0  0  0
 16 27  1  0  0  0  0
 17 21  1  0  0  0  0
 20  2  1  1  0  0  0
 20 23  1  0  0  0  0
 21 22  1  0  0  0  0
 21 24  2  0  0  0  0
 23  3  1  1  0  0  0
 23 25  1  0  0  0  0
 24 27  1  0  0  0  0
 24 26  1  0  0  0  0
M  CHG  2  10  -1  15  -1
M  END
>  <CHROM.1>
55.94302530,178.71837741,-60.66616143,169.00196162,-63.86922941,-107.95919772
-78.48816609,-61.92484298,-5.38095870,43.22823011,-7.87534669,-1.30101097
-1.39400494,2.16457076

>  <Name>
ligand

>  <RI>
0

>  <Rbt.Current_Directory>
/home/itssahil/PROJECTS/Mol_Feturizer/New_Systems/rnas/3D2V

>  <Rbt.Executable>
rbdock ($Id: //depot/dev/client3/rdock/2013.1/src/exe/rbdock.cxx#4 $)

>  <Rbt.Library>
libRbt.so (2013.1, Build901 2013/11/27)

>  <Rbt.Parameter_File>
/export/apps/rDock/src/rDock_2013.1_src/data/scripts/dock_solv.prm

>  <Rbt.Receptor>
prm/pocket_docking_8.prm

>  <SCORE>
-15.0142

>  <SCORE.INTER>
-13.9615

>  <SCORE.INTER.CONST>
1

>  <SCORE.INTER.POLAR>
0

>  <SCORE.INTER.ROT>
8

>  <SCORE.INTER.SOLV>
10.4474

>  <SCORE.INTER.VDW>
-21.7235

>  <SCORE.INTER.norm>
-0.517094

>  <SCORE.INTRA>
-1.05264

>  <SCORE.INTRA.DIHEDRAL>
-2.37603

>  <SCORE.INTRA.DIHEDRAL.0>
7.82666

>  <SCORE.INTRA.POLAR>
0

>  <SCORE.INTRA.POLAR.0>
0

>  <SCORE.INTRA.REPUL>
0

>  <SCORE.INTRA.REPUL.0>
0

>  <SCORE.INTRA.SOLV>
1.78672

>  <SCORE.INTRA.SOLV.lig_0>
-83.2758

>  <SCORE.INTRA.VDW>
-0.757984

>  <SCORE.INTRA.VDW.0>
-3.26816

>  <SCORE.INTRA.norm>
-0.0389867

>  <SCORE.RESTR>
0

>  <SCORE.RESTR.CAVITY>
0

>  <SCORE.RESTR.norm>
0

>  <SCORE.SYSTEM>
0

>  <SCORE.SYSTEM.CONST>
0

>  <SCORE.SYSTEM.DIHEDRAL>
0

>  <SCORE.SYSTEM.SOLV>
0

>  <SCORE.SYSTEM.norm>
0

>  <SCORE.heavy>
27

>  <SCORE.norm>
-0.556081

>  <RMSD>
8.728

$$$$
ligand
 OpenBabel11021811473D
libRbt.so/2013.1/901 2013/11/27
 27 28  0  0  0  0  0  0  0  0999 V2000
   -4.1118   39.5580  -13.7468 C   0  0  0  0  0  0  0  0  0  0  0  0
   -7.0169   46.1349   -8.9822 C   0  0  0  0  0  0  0  0  0  0  0  0
   -4.8247   47.7687   -7.7572 C   0  0  0  0  0  0  0  0  0  0  0  0
   -4.1635   47.4104   -6.4249 C   0  0  0  0  0  0  0  0  0  0  0  0
   -2.7391   47.4213   -6.5480 O   0  0  0  0  0  0  0  0  0  0  0  0
   -1.8208   47.0262   -5.2907 P   0  0  1  0  0  0  0  0  0  0  0  0
   -3.3036   45.8183   -3.2173 P   0  0  2  0  0  0  0  0  0  0  0  0
   -2.9101   45.4961  -10.1280 C   0  0  0  0  0  0  0  0  0  0  0  0
   -5.0073   41.8770  -13.6595 N   0  0  0  0  0  0  0  0  0  0  0  0
   -1.2447   45.5388   -5.4416 O   0  5  0  0  0  0  0  0  0  0  0  0
   -2.3196   44.7525   -2.9373 O   0  0  0  0  0  0  0  0  0  0  0  0
   -3.9107   44.7281  -10.7088 C   0  0  0  0  0  0  0  0  0  0  0  0
   -4.6929   40.7551  -12.9936 C   0  0  0  0  0  0  0  0  0  0  0  0
   -0.5457   48.0031   -5.1087 O   0  0  0  0  0  0  0  0  0  0  0  0
   -4.4769   45.2989   -4.1812 O   0  5  0  0  0  0  0  0  0  0  0  0
   -5.2406   44.9371  -10.3409 N   0  0  0  0  0  0  0  0  0  0  0  0
   -4.8837   40.6724  -11.6689 N   0  0  0  0  0  0  0  0  0  0  0  0
   -2.6851   47.1180   -3.9155 O   0  0  0  0  0  0  0  0  0  0  0  0
   -4.0327   46.2871   -1.8785 O   0  0  0  0  0  0  0  0  0  0  0  0
   -5.5528   45.9118   -9.3856 C   0  0  1  0  0  0  0  0  0  0  0  0
   -5.3911   41.7102  -10.9922 C   0  0  0  0  0  0  0  0  0  0  0  0
   -5.5740   41.6170   -9.6791 N   0  0  0  0  0  0  0  0  0  0  0  0
   -4.5477   46.6826   -8.8035 C   0  0  1  0  0  0  0  0  0  0  0  0
   -5.7226   42.8838  -11.6582 C   0  0  0  0  0  0  0  0  0  0  0  0
   -3.2291   46.4637   -9.1831 C   0  0  0  0  0  0  0  0  0  0  0  0
   -5.5107   42.9264  -13.0314 C   0  0  0  0  0  0  0  0  0  0  0  0
   -6.3091   44.1165  -10.9579 C   0  0  0  0  0  0  0  0  0  0  0  0
  1 13  1  0  0  0  0
  3  4  1  0  0  0  0
  4  5  1  0  0  0  0
  6  5  1  6  0  0  0
  6 10  1  0  0  0  0
  6 14  2  0  0  0  0
  6 18  1  0  0  0  0
  7 11  1  1  0  0  0
  7 15  1  0  0  0  0
  7 19  2  0  0  0  0
  7 18  1  0  0  0  0
  8 25  1  0  0  0  0
  8 12  1  0  0  0  0
  9 26  2  0  0  0  0
  9 13  1  0  0  0  0
 12 16  1  0  0  0  0
 13 17  2  0  0  0  0
 16 20  1  0  0  0  0
 16 27  1  0  0  0  0
 17 21  1  0  0  0  0
 20  2  1  6  0  0  0
 20 23  1  0  0  0  0
 21 22  1  0  0  0  0
 21 24  2  0  0  0  0
 23  3  1  6  0  0  0
 23 25  1  0  0  0  0
 24 27  1  0  0  0  0
 24 26  1  0  0  0  0
M  CHG  2  10  -1  15  -1
M  END
>  <CHROM.1>
65.93375271,-177.90403725,102.80808887,100.01398225,54.28416991,116.85527678
82.48453834,15.24557376,-3.94272513,44.98124191,-7.89063516,-2.59182759,-1.27062883
0.06196970

>  <Name>
ligand

>  <RI>
0

>  <Rbt.Current_Directory>
/home/itssahil/PROJECTS/Mol_Feturizer/New_Systems/rnas/3D2V

>  <Rbt.Executable>
rbdock ($Id: //depot/dev/client3/rdock/2013.1/src/exe/rbdock.cxx#4 $)

>  <Rbt.Library>
libRbt.so (2013.1, Build901 2013/11/27)

>  <Rbt.Parameter_File>
/export/apps/rDock/src/rDock_2013.1_src/data/scripts/dock_solv.prm

>  <Rbt.Receptor>
prm/pocket_docking_8.prm

>  <SCORE>
-12.7659

>  <SCORE.INTER>
-13.7741

>  <SCORE.INTER.CONST>
1

>  <SCORE.INTER.POLAR>
0

>  <SCORE.INTER.ROT>
8

>  <SCORE.INTER.SOLV>
9.04845

>  <SCORE.INTER.VDW>
-21.1322

>  <SCORE.INTER.norm>
-0.510154

>  <SCORE.INTRA>
1.00823

>  <SCORE.INTRA.DIHEDRAL>
1.32416

>  <SCORE.INTRA.DIHEDRAL.0>
7.82666

>  <SCORE.INTRA.POLAR>
0

>  <SCORE.INTRA.POLAR.0>
0

>  <SCORE.INTRA.REPUL>
0

>  <SCORE.INTRA.REPUL.0>
0

>  <SCORE.INTRA.SOLV>
0.0313492

>  <SCORE.INTRA.SOLV.lig_0>
-83.2758

>  <SCORE.INTRA.VDW>
0.330471

>  <SCORE.INTRA.VDW.0>
-3.26816

>  <SCORE.INTRA.norm>
0.0373417

>  <SCORE.RESTR>
0

>  <SCORE.RESTR.CAVITY>
0

>  <SCORE.RESTR.norm>
0

>  <SCORE.SYSTEM>
0

>  <SCORE.SYSTEM.CONST>
0

>  <SCORE.SYSTEM.DIHEDRAL>
0

>  <SCORE.SYSTEM.SOLV>
0

>  <SCORE.SYSTEM.norm>
0

>  <SCORE.heavy>
27

>  <SCORE.norm>
-0.472812

>  <RMSD>
8.754

$$$$
ligand
 OpenBabel11021811473D
libRbt.so/2013.1/901 2013/11/27
 27 28  0  0  0  0  0  0  0  0999 V2000
   -5.4931   48.5039   -5.8114 C   0  0  0  0  0  0  0  0  0  0  0  0
   -2.2004   42.7760  -10.7661 C   0  0  0  0  0  0  0  0  0  0  0  0
   -4.2313   41.1759  -12.2795 C   0  0  0  0  0  0  0  0  0  0  0  0
   -4.9962   40.1897  -11.3947 C   0  0  0  0  0  0  0  0  0  0  0  0
   -4.5453   40.2701  -10.0403 O   0  0  0  0  0  0  0  0  0  0  0  0
   -5.3766   39.5460   -8.8721 P   0  0  1  0  0  0  0  0  0  0  0  0
   -5.1313   39.0400   -6.1080 P   0  0  2  0  0  0  0  0  0  0  0  0
   -6.0285   44.4865  -11.7689 C   0  0  0  0  0  0  0  0  0  0  0  0
   -5.0863   47.9243   -8.1959 N   0  0  0  0  0  0  0  0  0  0  0  0
   -6.7562   40.3092   -8.5872 O   0  5  0  0  0  0  0  0  0  0  0  0
   -6.6073   38.9769   -6.0985 O   0  0  0  0  0  0  0  0  0  0  0  0
   -5.1015   45.2460  -11.0674 C   0  0  0  0  0  0  0  0  0  0  0  0
   -4.7897   47.7012   -6.9062 C   0  0  0  0  0  0  0  0  0  0  0  0
   -5.7560   38.0143   -9.2238 O   0  0  0  0  0  0  0  0  0  0  0  0
   -4.5773   40.0519   -4.9923 O   0  5  0  0  0  0  0  0  0  0  0  0
   -3.8607   44.6940  -10.7459 N   0  0  0  0  0  0  0  0  0  0  0  0
   -3.8790   46.7776   -6.5662 N   0  0  0  0  0  0  0  0  0  0  0  0
   -4.5019   39.5121   -7.5009 O   0  0  0  0  0  0  0  0  0  0  0  0
   -4.4976   37.6221   -5.7449 O   0  0  0  0  0  0  0  0  0  0  0  0
   -3.5653   43.3792  -11.1256 C   0  0  1  0  0  0  0  0  0  0  0  0
   -3.2530   46.0646   -7.5106 C   0  0  0  0  0  0  0  0  0  0  0  0
   -2.3536   45.1505   -7.1612 N   0  0  0  0  0  0  0  0  0  0  0  0
   -4.4963   42.6177  -11.8301 C   0  0  1  0  0  0  0  0  0  0  0  0
   -3.5440   46.2751   -8.8529 C   0  0  0  0  0  0  0  0  0  0  0  0
   -5.7258   43.1835  -12.1448 C   0  0  0  0  0  0  0  0  0  0  0  0
   -4.4926   47.2433   -9.1617 C   0  0  0  0  0  0  0  0  0  0  0  0
   -2.8715   45.5024   -9.9951 C   0  0  0  0  0  0  0  0  0  0  0  0
  1 13  1  0  0  0  0
  3  4  1  0  0  0  0
  4  5  1  0  0  0  0
  6  5  1  6  0  0  0
  6 10  1  0  0  0  0
  6 14  2  0  0  0  0
  6 18  1  0  0  0  0
  7 11  1  6  0  0  0
  7 15  1  0  0  0  0
  7 19  2  0  0  0  0
  7 18  1  0  0  0  0
  8 25  1  0  0  0  0
  8 12  1  0  0  0  0
  9 26  2  0  0  0  0
  9 13  1  0  0  0  0
 12 16  1  0  0  0  0
 13 17  2  0  0  0  0
 16 20  1  0  0  0  0
 16 27  1  0  0  0  0
 17 21  1  0  0  0  0
 20  2  1  6  0  0  0
 20 23  1  0  0  0  0
 21 22  1  0  0  0  0
 21 24  2  0  0  0  0
 23  3  1  6  0  0  0
 23 25  1  0  0  0  0
 24 27  1  0  0  0  0
 24 26  1  0  0  0  0
M  CHG  2  10  -1  15  -1
M  END
>  <CHROM.1>
-62.83291502,168.27938250,-71.48353857,171.34831419,-14.76967884,104.95126206
116.59025280,42.81067991,-4.66024852,42.52771672,-8.68675853,0.24897137,1.43288379
1.19576444

>  <Name>
ligand

>  <RI>
0

>  <Rbt.Current_Directory>
/home/itssahil/PROJECTS/Mol_Feturizer/New_Systems/rnas/3D2V

>  <Rbt.Executable>
rbdock ($Id: //depot/dev/client3/rdock/2013.1/src/exe/rbdock.cxx#4 $)

>  <Rbt.Library>
libRbt.so (2013.1, Build901 2013/11/27)

>  <Rbt.Parameter_File>
/export/apps/rDock/src/rDock_2013.1_src/data/scripts/dock_solv.prm

>  <Rbt.Receptor>
prm/pocket_docking_6.prm

>  <SCORE>
-12.7934

>  <SCORE.INTER>
-12.789

>  <SCORE.INTER.CONST>
1

>  <SCORE.INTER.POLAR>
0

>  <SCORE.INTER.ROT>
8

>  <SCORE.INTER.SOLV>
22.3464

>  <SCORE.INTER.VDW>
-24.9082

>  <SCORE.INTER.norm>
-0.473668

>  <SCORE.INTRA>
-0.00434715

>  <SCORE.INTRA.DIHEDRAL>
0.423126

>  <SCORE.INTRA.DIHEDRAL.0>
7.82666

>  <SCORE.INTRA.POLAR>
0

>  <SCORE.INTRA.POLAR.0>
0

>  <SCORE.INTRA.REPUL>
0

>  <SCORE.INTRA.REPUL.0>
0

>  <SCORE.INTRA.SOLV>
-0.836681

>  <SCORE.INTRA.SOLV.lig_0>
-83.2758

>  <SCORE.INTRA.VDW>
0.202431

>  <SCORE.INTRA.VDW.0>
-3.26816

>  <SCORE.INTRA.norm>
-0.000161005

>  <SCORE.RESTR>
0

>  <SCORE.RESTR.CAVITY>
0

>  <SCORE.RESTR.norm>
0

>  <SCORE.SYSTEM>
0

>  <SCORE.SYSTEM.CONST>
0

>  <SCORE.SYSTEM.DIHEDRAL>
0

>  <SCORE.SYSTEM.SOLV>
0

>  <SCORE.SYSTEM.norm>
0

>  <SCORE.heavy>
27

>  <SCORE.norm>
-0.473829

>  <RMSD>
8.797

$$$$
ligand
 OpenBabel11021811463D
libRbt.so/2013.1/901 2013/11/27
 27 28  0  0  0  0  0  0  0  0999 V2000
   -1.5714   34.6109  -12.0587 C   0  0  0  0  0  0  0  0  0  0  0  0
   -7.9978   36.7234   -8.2781 C   0  0  0  0  0  0  0  0  0  0  0  0
   -7.6660   37.1696   -5.3343 C   0  0  0  0  0  0  0  0  0  0  0  0
   -6.5876   37.9857   -4.6190 C   0  0  0  0  0  0  0  0  0  0  0  0
   -7.1305   39.2076   -4.1126 O   0  0  0  0  0  0  0  0  0  0  0  0
   -6.2083   40.1999   -3.2494 P   0  0  1  0  0  0  0  0  0  0  0  0
   -5.4584   40.6045   -0.5605 P   0  0  2  0  0  0  0  0  0  0  0  0
   -5.7058   33.9604   -5.8908 C   0  0  0  0  0  0  0  0  0  0  0  0
   -3.1094   33.8822  -10.2446 N   0  0  0  0  0  0  0  0  0  0  0  0
   -4.6875   40.1577   -3.7517 O   0  5  0  0  0  0  0  0  0  0  0  0
   -3.9896   40.5773   -0.7169 O   0  0  0  0  0  0  0  0  0  0  0  0
   -5.8464   33.7349   -7.2538 C   0  0  0  0  0  0  0  0  0  0  0  0
   -2.9453   34.5630  -11.3894 C   0  0  0  0  0  0  0  0  0  0  0  0
   -6.6853   41.7420   -3.3381 O   0  0  0  0  0  0  0  0  0  0  0  0
   -5.9116   40.0026    0.8567 O   0  5  0  0  0  0  0  0  0  0  0  0
   -6.5851   34.6311   -8.0276 N   0  0  0  0  0  0  0  0  0  0  0  0
   -3.9780   35.2044  -11.9551 N   0  0  0  0  0  0  0  0  0  0  0  0
   -6.2545   39.7818   -1.6779 O   0  0  0  0  0  0  0  0  0  0  0  0
   -6.0061   42.1023   -0.5782 O   0  0  0  0  0  0  0  0  0  0  0  0
   -7.1834   35.7430   -7.4227 C   0  0  1  0  0  0  0  0  0  0  0  0
   -5.1886   35.1737  -11.3842 C   0  0  0  0  0  0  0  0  0  0  0  0
   -6.2050   35.8118  -11.9552 N   0  0  0  0  0  0  0  0  0  0  0  0
   -7.0413   35.9687   -6.0545 C   0  0  1  0  0  0  0  0  0  0  0  0
   -5.3850   34.4739  -10.1999 C   0  0  0  0  0  0  0  0  0  0  0  0
   -6.3001   35.0683   -5.2991 C   0  0  0  0  0  0  0  0  0  0  0  0
   -4.2874   33.8249   -9.6461 C   0  0  0  0  0  0  0  0  0  0  0  0
   -6.7382   34.3903   -9.4817 C   0  0  0  0  0  0  0  0  0  0  0  0
  1 13  1  0  0  0  0
  3  4  1  0  0  0  0
  4  5  1  0  0  0  0
  6  5  1  6  0  0  0
  6 10  1  0  0  0  0
  6 14  2  0  0  0  0
  6 18  1  0  0  0  0
  7 11  1  6  0  0  0
  7 15  1  0  0  0  0
  7 19  2  0  0  0  0
  7 18  1  0  0  0  0
  8 25  1  0  0  0  0
  8 12  1  0  0  0  0
  9 26  2  0  0  0  0
  9 13  1  0  0  0  0
 12 16  1  0  0  0  0
 13 17  2  0  0  0  0
 16 20  1  0  0  0  0
 16 27  1  0  0  0  0
 17 21  1  0  0  0  0
 20  2  1  6  0  0  0
 20 23  1  0  0  0  0
 21 22  1  0  0  0  0
 21 24  2  0  0  0  0
 23  3  1  6  0  0  0
 23 25  1  0  0  0  0
 24 27  1  0  0  0  0
 24 26  1  0  0  0  0
M  CHG  2  10  -1  15  -1
M  END
>  <CHROM.1>
171.50611448,176.62029524,33.42386169,-178.69619115,-63.67200319,-122.87520567
-134.09581943,-64.44025214,-5.67469340,37.43555648,-5.83981283,-1.45927863
0.41677238,0.94266969

>  <Name>
ligand

>  <RI>
0

>  <Rbt.Current_Directory>
/home/itssahil/PROJECTS/Mol_Feturizer/New_Systems/rnas/3D2V

>  <Rbt.Executable>
rbdock ($Id: //depot/dev/client3/rdock/2013.1/src/exe/rbdock.cxx#4 $)

>  <Rbt.Library>
libRbt.so (2013.1, Build901 2013/11/27)

>  <Rbt.Parameter_File>
/export/apps/rDock/src/rDock_2013.1_src/data/scripts/dock_solv.prm

>  <Rbt.Receptor>
prm/blind_docking_60.prm

>  <SCORE>
-10.4346

>  <SCORE.INTER>
-11.3217

>  <SCORE.INTER.CONST>
1

>  <SCORE.INTER.POLAR>
0

>  <SCORE.INTER.ROT>
8

>  <SCORE.INTER.SOLV>
23.7216

>  <SCORE.INTER.VDW>
-24.3883

>  <SCORE.INTER.norm>
-0.419324

>  <SCORE.INTRA>
-0.0180936

>  <SCORE.INTRA.DIHEDRAL>
-1.28179

>  <SCORE.INTRA.DIHEDRAL.0>
7.82666

>  <SCORE.INTRA.POLAR>
0

>  <SCORE.INTRA.POLAR.0>
0

>  <SCORE.INTRA.REPUL>
0

>  <SCORE.INTRA.REPUL.0>
0

>  <SCORE.INTRA.SOLV>
-0.136727

>  <SCORE.INTRA.SOLV.lig_0>
-83.2758

>  <SCORE.INTRA.VDW>
0.691165

>  <SCORE.INTRA.VDW.0>
-3.26816

>  <SCORE.INTRA.norm>
-0.000670133

>  <SCORE.RESTR>
0.905205

>  <SCORE.RESTR.CAVITY>
0.905205

>  <SCORE.RESTR.norm>
0.0335261

>  <SCORE.SYSTEM>
0

>  <SCORE.SYSTEM.CONST>
0

>  <SCORE.SYSTEM.DIHEDRAL>
0

>  <SCORE.SYSTEM.SOLV>
0

>  <SCORE.SYSTEM.norm>
0

>  <SCORE.heavy>
27

>  <SCORE.norm>
-0.386468

>  <RMSD>
8.832

$$$$
ligand
 OpenBabel11021811473D
libRbt.so/2013.1/901 2013/11/27
 27 28  0  0  0  0  0  0  0  0999 V2000
   -3.0127   43.9534  -10.0781 C   0  0  0  0  0  0  0  0  0  0  0  0
   -5.7348   38.1127   -4.6546 C   0  0  0  0  0  0  0  0  0  0  0  0
   -6.9757   39.2410   -2.1722 C   0  0  0  0  0  0  0  0  0  0  0  0
   -8.3530   39.4355   -1.5351 C   0  0  0  0  0  0  0  0  0  0  0  0
   -9.2986   38.5136   -2.0829 O   0  0  0  0  0  0  0  0  0  0  0  0
   -9.7687   38.6581   -3.6120 P   0  0  1  0  0  0  0  0  0  0  0  0
  -12.2172   37.7743   -2.5257 P   0  0  2  0  0  0  0  0  0  0  0  0
   -7.2973   42.1306   -4.6211 C   0  0  0  0  0  0  0  0  0  0  0  0
   -2.9978   42.0148   -8.5197 N   0  0  0  0  0  0  0  0  0  0  0  0
   -9.4427   40.1202   -4.1803 O   0  5  0  0  0  0  0  0  0  0  0  0
  -13.6793   37.9322   -2.6669 O   0  0  0  0  0  0  0  0  0  0  0  0
   -6.7269   41.6272   -5.7827 C   0  0  0  0  0  0  0  0  0  0  0  0
   -3.7166   42.8568   -9.2782 C   0  0  0  0  0  0  0  0  0  0  0  0
   -9.0422   37.6028   -4.5980 O   0  0  0  0  0  0  0  0  0  0  0  0
  -11.6756   38.4721   -1.1857 O   0  5  0  0  0  0  0  0  0  0  0  0
   -6.2243   40.3253   -5.7951 N   0  0  0  0  0  0  0  0  0  0  0  0
   -5.0513   42.7461   -9.3422 N   0  0  0  0  0  0  0  0  0  0  0  0
  -11.3690   38.3919   -3.7333 O   0  0  0  0  0  0  0  0  0  0  0  0
  -11.8203   36.2354   -2.3911 O   0  0  0  0  0  0  0  0  0  0  0  0
   -6.2924   39.5427   -4.6362 C   0  0  1  0  0  0  0  0  0  0  0  0
   -5.6854   41.7922   -8.6492 C   0  0  0  0  0  0  0  0  0  0  0  0
   -7.0086   41.6912   -8.7221 N   0  0  0  0  0  0  0  0  0  0  0  0
   -6.8657   40.0488   -3.4708 C   0  0  2  0  0  0  0  0  0  0  0  0
   -4.9637   40.9065   -7.8583 C   0  0  0  0  0  0  0  0  0  0  0  0
   -7.3639   41.3459   -3.4763 C   0  0  0  0  0  0  0  0  0  0  0  0
   -3.5823   41.0576   -7.8187 C   0  0  0  0  0  0  0  0  0  0  0  0
   -5.6130   39.7877   -7.0333 C   0  0  0  0  0  0  0  0  0  0  0  0
  1 13  1  0  0  0  0
  3  4  1  0  0  0  0
  4  5  1  0  0  0  0
  6  5  1  1  0  0  0
  6 10  1  0  0  0  0
  6 14  2  0  0  0  0
  6 18  1  0  0  0  0
  7 11  1  6  0  0  0
  7 15  1  0  0  0  0
  7 19  2  0  0  0  0
  7 18  1  0  0  0  0
  8 25  1  0  0  0  0
  8 12  1  0  0  0  0
  9 26  2  0  0  0  0
  9 13  1  0  0  0  0
 12 16  1  0  0  0  0
 13 17  2  0  0  0  0
 16 20  1  0  0  0  0
 16 27  1  0  0  0  0
 17 21  1  0  0  0  0
 20  2  1  6  0  0  0
 20 23  1  0  0  0  0
 21 22  1  0  0  0  0
 21 24  2  0  0  0  0
 23  3  1  1  0  0  0
 23 25  1  0  0  0  0
 24 27  1  0  0  0  0
 24 26  1  0  0  0  0
M  CHG  2  10  -1  15  -1
M  END
>  <CHROM.1>
85.98815701,-68.36674352,-18.20494155,-11.87452512,164.53639172,-136.93947271
-77.54173846,30.23888303,-7.93734917,39.81977040,-4.91663522,0.78707376,-0.21239541
-1.17480401

>  <Name>
ligand

>  <RI>
0

>  <Rbt.Current_Directory>
/home/itssahil/PROJECTS/Mol_Feturizer/New_Systems/rnas/3D2V

>  <Rbt.Executable>
rbdock ($Id: //depot/dev/client3/rdock/2013.1/src/exe/rbdock.cxx#4 $)

>  <Rbt.Library>
libRbt.so (2013.1, Build901 2013/11/27)

>  <Rbt.Parameter_File>
/export/apps/rDock/src/rDock_2013.1_src/data/scripts/dock_solv.prm

>  <Rbt.Receptor>
prm/pocket_docking_2.prm

>  <SCORE>
-7.25239

>  <SCORE.INTER>
-14.3695

>  <SCORE.INTER.CONST>
1

>  <SCORE.INTER.POLAR>
0

>  <SCORE.INTER.ROT>
8

>  <SCORE.INTER.SOLV>
32.326

>  <SCORE.INTER.VDW>
-29.2883

>  <SCORE.INTER.norm>
-0.532203

>  <SCORE.INTRA>
6.91887

>  <SCORE.INTRA.DIHEDRAL>
4.30884

>  <SCORE.INTRA.DIHEDRAL.0>
7.82666

>  <SCORE.INTRA.POLAR>
0

>  <SCORE.INTRA.POLAR.0>
0

>  <SCORE.INTRA.REPUL>
0

>  <SCORE.INTRA.REPUL.0>
0

>  <SCORE.INTRA.SOLV>
6.70821

>  <SCORE.INTRA.SOLV.lig_0>
-83.2758

>  <SCORE.INTRA.VDW>
1.41034

>  <SCORE.INTRA.VDW.0>
-3.26816

>  <SCORE.INTRA.norm>
0.256254

>  <SCORE.RESTR>
0.198227

>  <SCORE.RESTR.CAVITY>
0.198227

>  <SCORE.RESTR.norm>
0.00734174

>  <SCORE.SYSTEM>
0

>  <SCORE.SYSTEM.CONST>
0

>  <SCORE.SYSTEM.DIHEDRAL>
0

>  <SCORE.SYSTEM.SOLV>
0

>  <SCORE.SYSTEM.norm>
0

>  <SCORE.heavy>
27

>  <SCORE.norm>
-0.268607

>  <RMSD>
8.870

$$$$
ligand
 OpenBabel11021811463D
libRbt.so/2013.1/901 2013/11/27
 27 28  0  0  0  0  0  0  0  0999 V2000
   -6.0290   38.6042   -4.1054 C   0  0  0  0  0  0  0  0  0  0  0  0
   -4.6656   31.5297   -8.5315 C   0  0  0  0  0  0  0  0  0  0  0  0
   -1.7574   30.9466   -8.9528 C   0  0  0  0  0  0  0  0  0  0  0  0
   -0.5086   31.5252   -9.6211 C   0  0  0  0  0  0  0  0  0  0  0  0
   -0.6199   32.9439   -9.7591 O   0  0  0  0  0  0  0  0  0  0  0  0
   -1.7609   33.5729  -10.6985 P   0  0  1  0  0  0  0  0  0  0  0  0
    0.2285   35.5163  -11.1693 P   0  0  2  0  0  0  0  0  0  0  0  0
   -1.6840   33.3143   -5.9797 C   0  0  0  0  0  0  0  0  0  0  0  0
   -5.2338   36.2482   -4.0409 N   0  0  0  0  0  0  0  0  0  0  0  0
   -2.0643   32.6231  -11.9528 O   0  5  0  0  0  0  0  0  0  0  0  0
    1.0804   35.0166  -12.2680 O   0  0  0  0  0  0  0  0  0  0  0  0
   -3.0265   33.5977   -5.7664 C   0  0  0  0  0  0  0  0  0  0  0  0
   -5.8785   37.2112   -4.7176 C   0  0  0  0  0  0  0  0  0  0  0  0
   -3.1654   33.7885   -9.9275 O   0  0  0  0  0  0  0  0  0  0  0  0
    0.7824   35.0525   -9.7362 O   0  5  0  0  0  0  0  0  0  0  0  0
   -3.9923   33.0172   -6.5899 N   0  0  0  0  0  0  0  0  0  0  0  0
   -6.3943   36.9637   -5.9303 N   0  0  0  0  0  0  0  0  0  0  0  0
   -1.2943   35.0323  -11.2452 O   0  0  0  0  0  0  0  0  0  0  0  0
    0.2294   37.1107  -11.1271 O   0  0  0  0  0  0  0  0  0  0  0  0
   -3.5993   32.1624   -7.6267 C   0  0  1  0  0  0  0  0  0  0  0  0
   -6.2722   35.7504   -6.4829 C   0  0  0  0  0  0  0  0  0  0  0  0
   -6.7860   35.5175   -7.6863 N   0  0  0  0  0  0  0  0  0  0  0  0
   -2.2514   31.8782   -7.8397 C   0  0  1  0  0  0  0  0  0  0  0  0
   -5.6073   34.7369   -5.8035 C   0  0  0  0  0  0  0  0  0  0  0  0
   -1.3028   32.4621   -7.0090 C   0  0  0  0  0  0  0  0  0  0  0  0
   -5.0897   35.0354   -4.5484 C   0  0  0  0  0  0  0  0  0  0  0  0
   -5.4252   33.3208   -6.3651 C   0  0  0  0  0  0  0  0  0  0  0  0
  1 13  1  0  0  0  0
  3  4  1  0  0  0  0
  4  5  1  0  0  0  0
  6  5  1  1  0  0  0
  6 10  1  0  0  0  0
  6 14  2  0  0  0  0
  6 18  1  0  0  0  0
  7 11  1  6  0  0  0
  7 15  1  0  0  0  0
  7 19  2  0  0  0  0
  7 18  1  0  0  0  0
  8 25  1  0  0  0  0
  8 12  1  0  0  0  0
  9 26  2  0  0  0  0
  9 13  1  0  0  0  0
 12 16  1  0  0  0  0
 13 17  2  0  0  0  0
 16 20  1  0  0  0  0
 16 27  1  0  0  0  0
 17 21  1  0  0  0  0
 20  2  1  1  0  0  0
 20 23  1  0  0  0  0
 21 22  1  0  0  0  0
 21 24  2  0  0  0  0
 23  3  1  1  0  0  0
 23 25  1  0  0  0  0
 24 27  1  0  0  0  0
 24 26  1  0  0  0  0
M  CHG  2  10  -1  15  -1
M  END
>  <CHROM.1>
-38.89056379,-64.13408030,-32.90913257,15.69788526,82.16400501,138.49779755
115.88401121,30.98431488,-2.74906965,34.28791153,-8.39278816,-2.93231119
-0.81094167,-3.14018355

>  <Name>
ligand

>  <RI>
0

>  <Rbt.Current_Directory>
/home/itssahil/PROJECTS/Mol_Feturizer/New_Systems/rnas/3D2V

>  <Rbt.Executable>
rbdock ($Id: //depot/dev/client3/rdock/2013.1/src/exe/rbdock.cxx#4 $)

>  <Rbt.Library>
libRbt.so (2013.1, Build901 2013/11/27)

>  <Rbt.Parameter_File>
/export/apps/rDock/src/rDock_2013.1_src/data/scripts/dock_solv.prm

>  <Rbt.Receptor>
prm/blind_docking_40.prm

>  <SCORE>
-3.87471

>  <SCORE.INTER>
-9.16782

>  <SCORE.INTER.CONST>
1

>  <SCORE.INTER.POLAR>
0

>  <SCORE.INTER.ROT>
8

>  <SCORE.INTER.SOLV>
24.0091

>  <SCORE.INTER.VDW>
-23.0482

>  <SCORE.INTER.norm>
-0.339549

>  <SCORE.INTRA>
4.16208

>  <SCORE.INTRA.DIHEDRAL>
2.68589

>  <SCORE.INTRA.DIHEDRAL.0>
7.82666

>  <SCORE.INTRA.POLAR>
0

>  <SCORE.INTRA.POLAR.0>
0

>  <SCORE.INTRA.REPUL>
0

>  <SCORE.INTRA.REPUL.0>
0

>  <SCORE.INTRA.SOLV>
3.01079

>  <SCORE.INTRA.SOLV.lig_0>
-83.2758

>  <SCORE.INTRA.VDW>
1.31374

>  <SCORE.INTRA.VDW.0>
-3.26816

>  <SCORE.INTRA.norm>
0.154151

>  <SCORE.RESTR>
1.13103

>  <SCORE.RESTR.CAVITY>
1.13103

>  <SCORE.RESTR.norm>
0.04189

>  <SCORE.SYSTEM>
0

>  <SCORE.SYSTEM.CONST>
0

>  <SCORE.SYSTEM.DIHEDRAL>
0

>  <SCORE.SYSTEM.SOLV>
0

>  <SCORE.SYSTEM.norm>
0

>  <SCORE.heavy>
27

>  <SCORE.norm>
-0.143508

>  <RMSD>
8.877

$$$$
ligand
 OpenBabel11021811473D
libRbt.so/2013.1/901 2013/11/27
 27 28  0  0  0  0  0  0  0  0999 V2000
   -4.1632   39.1451  -13.8689 C   0  0  0  0  0  0  0  0  0  0  0  0
   -4.2865   46.4018   -9.5780 C   0  0  0  0  0  0  0  0  0  0  0  0
   -6.5488   46.5952   -7.6234 C   0  0  0  0  0  0  0  0  0  0  0  0
   -6.2209   45.8339   -6.3375 C   0  0  0  0  0  0  0  0  0  0  0  0
   -7.0895   44.7092   -6.1799 O   0  0  0  0  0  0  0  0  0  0  0  0
   -6.9850   43.7910   -4.8662 P   0  0  1  0  0  0  0  0  0  0  0  0
   -7.7501   41.4565   -6.2522 P   0  0  2  0  0  0  0  0  0  0  0  0
   -7.8020   43.9513  -10.0504 C   0  0  0  0  0  0  0  0  0  0  0  0
   -5.1867   41.4093  -13.7551 N   0  0  0  0  0  0  0  0  0  0  0  0
   -5.4746   43.3225   -4.6083 O   0  5  0  0  0  0  0  0  0  0  0  0
   -7.7078   42.1048   -7.5791 O   0  0  0  0  0  0  0  0  0  0  0  0
   -6.7648   43.8452  -10.9675 C   0  0  0  0  0  0  0  0  0  0  0  0
   -4.2437   40.5654  -13.3085 C   0  0  0  0  0  0  0  0  0  0  0  0
   -7.4723   44.5505   -3.5249 O   0  0  0  0  0  0  0  0  0  0  0  0
   -8.9597   40.4069   -6.1473 O   0  5  0  0  0  0  0  0  0  0  0  0
   -5.6250   44.6356  -10.8128 N   0  0  0  0  0  0  0  0  0  0  0  0
   -3.3675   40.9562  -12.3717 N   0  0  0  0  0  0  0  0  0  0  0  0
   -7.9237   42.4723   -5.0287 O   0  0  0  0  0  0  0  0  0  0  0  0
   -6.4273   40.6044   -5.9916 O   0  0  0  0  0  0  0  0  0  0  0  0
   -5.5410   45.5324   -9.7411 C   0  0  1  0  0  0  0  0  0  0  0  0
   -3.4219   42.1959  -11.8692 C   0  0  0  0  0  0  0  0  0  0  0  0
   -2.5469   42.5724  -10.9424 N   0  0  0  0  0  0  0  0  0  0  0  0
   -6.5825   45.6378   -8.8206 C   0  0  2  0  0  0  0  0  0  0  0  0
   -4.3874   43.0894  -12.3167 C   0  0  0  0  0  0  0  0  0  0  0  0
   -7.7090   44.8415   -8.9876 C   0  0  0  0  0  0  0  0  0  0  0  0
   -5.2772   42.6429  -13.2870 C   0  0  0  0  0  0  0  0  0  0  0  0
   -4.5185   44.5253  -11.7923 C   0  0  0  0  0  0  0  0  0  0  0  0
  1 13  1  0  0  0  0
  3  4  1  0  0  0  0
  4  5  1  0  0  0  0
  6  5  1  6  0  0  0
  6 10  1  0  0  0  0
  6 14  2  0  0  0  0
  6 18  1  0  0  0  0
  7 11  1  6  0  0  0
  7 15  1  0  0  0  0
  7 19  2  0  0  0  0
  7 18  1  0  0  0  0
  8 25  1  0  0  0  0
  8 12  1  0  0  0  0
  9 26  2  0  0  0  0
  9 13  1  0  0  0  0
 12 16  1  0  0  0  0
 13 17  2  0  0  0  0
 16 20  1  0  0  0  0
 16 27  1  0  0  0  0
 17 21  1  0  0  0  0
 20  2  1  1  0  0  0
 20 23  1  0  0  0  0
 21 22  1  0  0  0  0
 21 24  2  0  0  0  0
 23  3  1  6  0  0  0
 23 25  1  0  0  0  0
 24 27  1  0  0  0  0
 24 26  1  0  0  0  0
M  CHG  2  10  -1  15  -1
M  END
>  <CHROM.1>
-51.74364728,-177.15071312,-51.29417824,56.72543602,-49.75502442,-102.20670376
-101.53887936,-33.57593590,-6.09037278,43.16058832,-8.64661159,0.44106965
-1.15265932,-2.84558866

>  <Name>
ligand

>  <RI>
0

>  <Rbt.Current_Directory>
/home/itssahil/PROJECTS/Mol_Feturizer/New_Systems/rnas/3D2V

>  <Rbt.Executable>
rbdock ($Id: //depot/dev/client3/rdock/2013.1/src/exe/rbdock.cxx#4 $)

>  <Rbt.Library>
libRbt.so (2013.1, Build901 2013/11/27)

>  <Rbt.Parameter_File>
/export/apps/rDock/src/rDock_2013.1_src/data/scripts/dock_solv.prm

>  <Rbt.Receptor>
prm/pocket_docking_7.prm

>  <SCORE>
-17.9742

>  <SCORE.INTER>
-15.5049

>  <SCORE.INTER.CONST>
1

>  <SCORE.INTER.POLAR>
0

>  <SCORE.INTER.ROT>
8

>  <SCORE.INTER.SOLV>
14.6754

>  <SCORE.INTER.VDW>
-24.1617

>  <SCORE.INTER.norm>
-0.574257

>  <SCORE.INTRA>
-2.46923

>  <SCORE.INTRA.DIHEDRAL>
-2.07739

>  <SCORE.INTRA.DIHEDRAL.0>
7.82666

>  <SCORE.INTRA.POLAR>
0

>  <SCORE.INTRA.POLAR.0>
0

>  <SCORE.INTRA.REPUL>
0

>  <SCORE.INTRA.REPUL.0>
0

>  <SCORE.INTRA.SOLV>
-1.80253

>  <SCORE.INTRA.SOLV.lig_0>
-83.2758

>  <SCORE.INTRA.VDW>
-0.529269

>  <SCORE.INTRA.VDW.0>
-3.26816

>  <SCORE.INTRA.norm>
-0.091453

>  <SCORE.RESTR>
0

>  <SCORE.RESTR.CAVITY>
0

>  <SCORE.RESTR.norm>
0

>  <SCORE.SYSTEM>
0

>  <SCORE.SYSTEM.CONST>
0

>  <SCORE.SYSTEM.DIHEDRAL>
0

>  <SCORE.SYSTEM.SOLV>
0

>  <SCORE.SYSTEM.norm>
0

>  <SCORE.heavy>
27

>  <SCORE.norm>
-0.66571

>  <RMSD>
8.892

$$$$
ligand
 OpenBabel11021811473D
libRbt.so/2013.1/901 2013/11/27
 27 28  0  0  0  0  0  0  0  0999 V2000
   -3.8545   48.1175   -8.3051 C   0  0  0  0  0  0  0  0  0  0  0  0
   -7.0578   43.1900   -8.7924 C   0  0  0  0  0  0  0  0  0  0  0  0
   -6.5020   40.5145   -7.5643 C   0  0  0  0  0  0  0  0  0  0  0  0
   -7.9340   39.9841   -7.6584 C   0  0  0  0  0  0  0  0  0  0  0  0
   -7.9512   38.6720   -8.2262 O   0  0  0  0  0  0  0  0  0  0  0  0
   -7.4599   37.4138   -7.3570 P   0  0  1  0  0  0  0  0  0  0  0  0
   -5.4406   37.1825   -5.4012 P   0  0  2  0  0  0  0  0  0  0  0  0
   -4.7211   40.2522  -10.9125 C   0  0  0  0  0  0  0  0  0  0  0  0
   -5.7050   46.9155   -9.4531 N   0  0  0  0  0  0  0  0  0  0  0  0
   -8.3997   37.1934   -6.0782 O   0  5  0  0  0  0  0  0  0  0  0  0
   -3.9844   37.3044   -5.1843 O   0  0  0  0  0  0  0  0  0  0  0  0
   -4.9662   41.4863  -11.4999 C   0  0  0  0  0  0  0  0  0  0  0  0
   -4.4018   46.9562   -9.1357 C   0  0  0  0  0  0  0  0  0  0  0  0
   -7.4737   36.0279   -8.1892 O   0  0  0  0  0  0  0  0  0  0  0  0
   -5.9399   35.6687   -5.2136 O   0  5  0  0  0  0  0  0  0  0  0  0
   -5.7195   42.4390  -10.8124 N   0  0  0  0  0  0  0  0  0  0  0  0
   -3.5707   45.9850   -9.5409 N   0  0  0  0  0  0  0  0  0  0  0  0
   -5.9309   37.6452   -6.8519 O   0  0  0  0  0  0  0  0  0  0  0  0
   -6.2509   38.0317   -4.3213 O   0  0  0  0  0  0  0  0  0  0  0  0
   -6.2270   42.1397   -9.5424 C   0  0  1  0  0  0  0  0  0  0  0  0
   -4.0314   44.9600  -10.2685 C   0  0  0  0  0  0  0  0  0  0  0  0
   -3.1985   44.0023  -10.6628 N   0  0  0  0  0  0  0  0  0  0  0  0
   -5.9800   40.9007   -8.9533 C   0  0  1  0  0  0  0  0  0  0  0  0
   -5.3771   44.8936  -10.6084 C   0  0  0  0  0  0  0  0  0  0  0  0
   -5.2258   39.9646   -9.6502 C   0  0  0  0  0  0  0  0  0  0  0  0
   -6.2033   45.9219  -10.1699 C   0  0  0  0  0  0  0  0  0  0  0  0
   -5.9841   43.7554  -11.4392 C   0  0  0  0  0  0  0  0  0  0  0  0
  1 13  1  0  0  0  0
  3  4  1  0  0  0  0
  4  5  1  0  0  0  0
  6  5  1  6  0  0  0
  6 10  1  0  0  0  0
  6 14  2  0  0  0  0
  6 18  1  0  0  0  0
  7 11  1  1  0  0  0
  7 15  1  0  0  0  0
  7 19  2  0  0  0  0
  7 18  1  0  0  0  0
  8 25  1  0  0  0  0
  8 12  1  0  0  0  0
  9 26  2  0  0  0  0
  9 13  1  0  0  0  0
 12 16  1  0  0  0  0
 13 17  2  0  0  0  0
 16 20  1  0  0  0  0
 16 27  1  0  0  0  0
 17 21  1  0  0  0  0
 20  2  1  1  0  0  0
 20 23  1  0  0  0  0
 21 22  1  0  0  0  0
 21 24  2  0  0  0  0
 23  3  1  1  0  0  0
 23 25  1  0  0  0  0
 24 27  1  0  0  0  0
 24 26  1  0  0  0  0
M  CHG  2  10  -1  15  -1
M  END
>  <CHROM.1>
73.52528324,73.86506933,63.22670304,142.12522769,172.05961414,84.50634197
56.31412653,-118.09326508,-5.86490338,40.85787794,-8.25885177,-1.18150039
1.06963620,2.38214668

>  <Name>
ligand

>  <RI>
0

>  <Rbt.Current_Directory>
/home/itssahil/PROJECTS/Mol_Feturizer/New_Systems/rnas/3D2V

>  <Rbt.Executable>
rbdock ($Id: //depot/dev/client3/rdock/2013.1/src/exe/rbdock.cxx#4 $)

>  <Rbt.Library>
libRbt.so (2013.1, Build901 2013/11/27)

>  <Rbt.Parameter_File>
/export/apps/rDock/src/rDock_2013.1_src/data/scripts/dock_solv.prm

>  <Rbt.Receptor>
prm/pocket_docking_5.prm

>  <SCORE>
-12.5094

>  <SCORE.INTER>
-14.7867

>  <SCORE.INTER.CONST>
1

>  <SCORE.INTER.POLAR>
0

>  <SCORE.INTER.ROT>
8

>  <SCORE.INTER.SOLV>
17.6422

>  <SCORE.INTER.VDW>
-24.6719

>  <SCORE.INTER.norm>
-0.547656

>  <SCORE.INTRA>
2.27728

>  <SCORE.INTRA.DIHEDRAL>
0.692256

>  <SCORE.INTRA.DIHEDRAL.0>
7.82666

>  <SCORE.INTRA.POLAR>
0

>  <SCORE.INTRA.POLAR.0>
0

>  <SCORE.INTRA.REPUL>
0

>  <SCORE.INTRA.REPUL.0>
0

>  <SCORE.INTRA.SOLV>
4.67

>  <SCORE.INTRA.SOLV.lig_0>
-83.2758

>  <SCORE.INTRA.VDW>
-0.403847

>  <SCORE.INTRA.VDW.0>
-3.26816

>  <SCORE.INTRA.norm>
0.0843437

>  <SCORE.RESTR>
0

>  <SCORE.RESTR.CAVITY>
0

>  <SCORE.RESTR.norm>
0

>  <SCORE.SYSTEM>
0

>  <SCORE.SYSTEM.CONST>
0

>  <SCORE.SYSTEM.DIHEDRAL>
0

>  <SCORE.SYSTEM.SOLV>
0

>  <SCORE.SYSTEM.norm>
0

>  <SCORE.heavy>
27

>  <SCORE.norm>
-0.463312

>  <RMSD>
8.931

$$$$
ligand
 OpenBabel11021811473D
libRbt.so/2013.1/901 2013/11/27
 27 28  0  0  0  0  0  0  0  0999 V2000
   -3.2229   48.7645   -7.9660 C   0  0  0  0  0  0  0  0  0  0  0  0
   -3.9400   41.2096  -10.6517 C   0  0  0  0  0  0  0  0  0  0  0  0
   -5.5263   39.3796   -8.8883 C   0  0  0  0  0  0  0  0  0  0  0  0
   -5.3034   39.0436   -7.4125 C   0  0  0  0  0  0  0  0  0  0  0  0
   -5.5177   37.6505   -7.1727 O   0  0  0  0  0  0  0  0  0  0  0  0
   -5.5850   37.0952   -5.6670 P   0  0  1  0  0  0  0  0  0  0  0  0
   -5.9838   39.5049   -4.2561 P   0  0  2  0  0  0  0  0  0  0  0  0
   -7.3466   42.6896   -8.4629 C   0  0  0  0  0  0  0  0  0  0  0  0
   -4.7772   47.4437   -9.3897 N   0  0  0  0  0  0  0  0  0  0  0  0
   -6.2017   35.6170   -5.6240 O   0  5  0  0  0  0  0  0  0  0  0  0
   -4.5179   39.6748   -4.3242 O   0  0  0  0  0  0  0  0  0  0  0  0
   -6.6257   43.5550   -9.2750 C   0  0  0  0  0  0  0  0  0  0  0  0
   -3.6125   47.4956   -8.7251 C   0  0  0  0  0  0  0  0  0  0  0  0
   -4.1341   37.0151   -4.9584 O   0  0  0  0  0  0  0  0  0  0  0  0
   -6.5305   39.6962   -2.7593 O   0  5  0  0  0  0  0  0  0  0  0  0
   -5.5251   43.0754   -9.9867 N   0  0  0  0  0  0  0  0  0  0  0  0
   -2.7832   46.4420   -8.7195 N   0  0  0  0  0  0  0  0  0  0  0  0
   -6.5042   38.0750   -4.7496 O   0  0  0  0  0  0  0  0  0  0  0  0
   -6.7277   40.6178   -5.1232 O   0  0  0  0  0  0  0  0  0  0  0  0
   -5.1535   41.7307   -9.8694 C   0  0  1  0  0  0  0  0  0  0  0  0
   -3.1071   45.3223   -9.3780 C   0  0  0  0  0  0  0  0  0  0  0  0
   -2.2779   44.2837   -9.3637 N   0  0  0  0  0  0  0  0  0  0  0  0
   -5.8782   40.8627   -9.0543 C   0  0  2  0  0  0  0  0  0  0  0  0
   -4.3084   45.2425  -10.0719 C   0  0  0  0  0  0  0  0  0  0  0  0
   -6.9730   41.3556   -8.3549 C   0  0  0  0  0  0  0  0  0  0  0  0
   -5.1377   46.3580  -10.0535 C   0  0  0  0  0  0  0  0  0  0  0  0
   -4.7533   43.9984  -10.8518 C   0  0  0  0  0  0  0  0  0  0  0  0
  1 13  1  0  0  0  0
  3  4  1  0  0  0  0
  4  5  1  0  0  0  0
  6  5  1  6  0  0  0
  6 10  1  0  0  0  0
  6 14  2  0  0  0  0
  6 18  1  0  0  0  0
  7 11  1  6  0  0  0
  7 15  1  0  0  0  0
  7 19  2  0  0  0  0
  7 18  1  0  0  0  0
  8 25  1  0  0  0  0
  8 12  1  0  0  0  0
  9 26  2  0  0  0  0
  9 13  1  0  0  0  0
 12 16  1  0  0  0  0
 13 17  2  0  0  0  0
 16 20  1  0  0  0  0
 16 27  1  0  0  0  0
 17 21  1  0  0  0  0
 20  2  1  6  0  0  0
 20 23  1  0  0  0  0
 21 22  1  0  0  0  0
 21 24  2  0  0  0  0
 23  3  1  1  0  0  0
 23 25  1  0  0  0  0
 24 27  1  0  0  0  0
 24 26  1  0  0  0  0
M  CHG  2  10  -1  15  -1
M  END
>  <CHROM.1>
156.32527386,-169.80170219,165.19468445,-74.33123185,-18.24928852,123.56510563
89.74292241,53.11704817,-5.16833911,41.47592740,-7.43024757,-0.23482230,1.38229534
1.32614023

>  <Name>
ligand

>  <RI>
0

>  <Rbt.Current_Directory>
/home/itssahil/PROJECTS/Mol_Feturizer/New_Systems/rnas/3D2V

>  <Rbt.Executable>
rbdock ($Id: //depot/dev/client3/rdock/2013.1/src/exe/rbdock.cxx#4 $)

>  <Rbt.Library>
libRbt.so (2013.1, Build901 2013/11/27)

>  <Rbt.Parameter_File>
/export/apps/rDock/src/rDock_2013.1_src/data/scripts/dock_solv.prm

>  <Rbt.Receptor>
prm/pocket_docking_6.prm

>  <SCORE>
-9.99154

>  <SCORE.INTER>
-11.2271

>  <SCORE.INTER.CONST>
1

>  <SCORE.INTER.POLAR>
0

>  <SCORE.INTER.ROT>
8

>  <SCORE.INTER.SOLV>
17.2446

>  <SCORE.INTER.VDW>
-22.1663

>  <SCORE.INTER.norm>
-0.415819

>  <SCORE.INTRA>
1.23557

>  <SCORE.INTRA.DIHEDRAL>
2.26741

>  <SCORE.INTRA.DIHEDRAL.0>
7.82666

>  <SCORE.INTRA.POLAR>
0

>  <SCORE.INTRA.POLAR.0>
0

>  <SCORE.INTRA.REPUL>
0

>  <SCORE.INTRA.REPUL.0>
0

>  <SCORE.INTRA.SOLV>
0.672669

>  <SCORE.INTRA.SOLV.lig_0>
-83.2758

>  <SCORE.INTRA.VDW>
-0.234472

>  <SCORE.INTRA.VDW.0>
-3.26816

>  <SCORE.INTRA.norm>
0.0457618

>  <SCORE.RESTR>
0

>  <SCORE.RESTR.CAVITY>
0

>  <SCORE.RESTR.norm>
0

>  <SCORE.SYSTEM>
0

>  <SCORE.SYSTEM.CONST>
0

>  <SCORE.SYSTEM.DIHEDRAL>
0

>  <SCORE.SYSTEM.SOLV>
0

>  <SCORE.SYSTEM.norm>
0

>  <SCORE.heavy>
27

>  <SCORE.norm>
-0.370057

>  <RMSD>
8.936

$$$$
ligand
 OpenBabel11021811473D
libRbt.so/2013.1/901 2013/11/27
 27 28  0  0  0  0  0  0  0  0999 V2000
   -4.4294   48.8678   -3.4127 C   0  0  0  0  0  0  0  0  0  0  0  0
   -3.8892   44.8060   -9.8473 C   0  0  0  0  0  0  0  0  0  0  0  0
   -5.9657   42.6775  -10.2119 C   0  0  0  0  0  0  0  0  0  0  0  0
   -5.9790   41.7257   -9.0142 C   0  0  0  0  0  0  0  0  0  0  0  0
   -7.3088   41.5571   -8.5166 O   0  0  0  0  0  0  0  0  0  0  0  0
   -7.5506   40.8593   -7.0903 P   0  0  1  0  0  0  0  0  0  0  0  0
   -6.9412   38.2480   -7.9653 P   0  0  2  0  0  0  0  0  0  0  0  0
   -8.0533   45.6667   -9.1358 C   0  0  0  0  0  0  0  0  0  0  0  0
   -5.6652   48.1270   -5.4403 N   0  0  0  0  0  0  0  0  0  0  0  0
   -7.1238   41.8331   -5.8916 O   0  5  0  0  0  0  0  0  0  0  0  0
   -6.2390   37.0082   -7.5748 O   0  0  0  0  0  0  0  0  0  0  0  0
   -7.1073   46.6681   -8.9614 C   0  0  0  0  0  0  0  0  0  0  0  0
   -4.4966   48.4984   -4.8949 C   0  0  0  0  0  0  0  0  0  0  0  0
   -9.0964   40.4594   -6.8373 O   0  0  0  0  0  0  0  0  0  0  0  0
   -6.5091   38.7329   -9.4329 O   0  5  0  0  0  0  0  0  0  0  0  0
   -5.7596   46.3910   -9.1952 N   0  0  0  0  0  0  0  0  0  0  0  0
   -3.3825   48.5492   -5.6392 N   0  0  0  0  0  0  0  0  0  0  0  0
   -6.6851   39.4859   -6.9850 O   0  0  0  0  0  0  0  0  0  0  0  0
   -8.5162   38.0101   -8.0453 O   0  0  0  0  0  0  0  0  0  0  0  0
   -5.3732   45.1061   -9.5950 C   0  0  1  0  0  0  0  0  0  0  0  0
   -3.4215   48.2291   -6.9386 C   0  0  0  0  0  0  0  0  0  0  0  0
   -2.3102   48.2814   -7.6658 N   0  0  0  0  0  0  0  0  0  0  0  0
   -6.3236   44.1015   -9.7703 C   0  0  2  0  0  0  0  0  0  0  0  0
   -4.6186   47.8392   -7.5265 C   0  0  0  0  0  0  0  0  0  0  0  0
   -7.6615   44.3950   -9.5361 C   0  0  0  0  0  0  0  0  0  0  0  0
   -5.7500   47.8022   -6.7195 C   0  0  0  0  0  0  0  0  0  0  0  0
   -4.7488   47.4580   -9.0069 C   0  0  0  0  0  0  0  0  0  0  0  0
  1 13  1  0  0  0  0
  3  4  1  0  0  0  0
  4  5  1  0  0  0  0
  6  5  1  6  0  0  0
  6 10  1  0  0  0  0
  6 14  2  0  0  0  0
  6 18  1  0  0  0  0
  7 11  1  1  0  0  0
  7 15  1  0  0  0  0
  7 19  2  0  0  0  0
  7 18  1  0  0  0  0
  8 25  1  0  0  0  0
  8 12  1  0  0  0  0
  9 26  2  0  0  0  0
  9 13  1  0  0  0  0
 12 16  1  0  0  0  0
 13 17  2  0  0  0  0
 16 20  1  0  0  0  0
 16 27  1  0  0  0  0
 17 21  1  0  0  0  0
 20  2  1  6  0  0  0
 20 23  1  0  0  0  0
 21 22  1  0  0  0  0
 21 24  2  0  0  0  0
 23  3  1  1  0  0  0
 23 25  1  0  0  0  0
 24 27  1  0  0  0  0
 24 26  1  0  0  0  0
M  CHG  2  10  -1  15  -1
M  END
>  <CHROM.1>
67.74422631,-167.21317524,72.77231317,-62.68583899,-169.59255773,102.09913108
145.98631362,67.77808439,-6.10825518,43.50322874,-7.76001857,0.23008325,1.26478419
1.45757015

>  <Name>
ligand

>  <RI>
0

>  <Rbt.Current_Directory>
/home/itssahil/PROJECTS/Mol_Feturizer/New_Systems/rnas/3D2V

>  <Rbt.Executable>
rbdock ($Id: //depot/dev/client3/rdock/2013.1/src/exe/rbdock.cxx#4 $)

>  <Rbt.Library>
libRbt.so (2013.1, Build901 2013/11/27)

>  <Rbt.Parameter_File>
/export/apps/rDock/src/rDock_2013.1_src/data/scripts/dock_solv.prm

>  <Rbt.Receptor>
prm/pocket_docking_8.prm

>  <SCORE>
-9.4457

>  <SCORE.INTER>
-9.24059

>  <SCORE.INTER.CONST>
1

>  <SCORE.INTER.POLAR>
0

>  <SCORE.INTER.ROT>
8

>  <SCORE.INTER.SOLV>
17.3646

>  <SCORE.INTER.VDW>
-20.8819

>  <SCORE.INTER.norm>
-0.342244

>  <SCORE.INTRA>
-0.205107

>  <SCORE.INTRA.DIHEDRAL>
-1.22961

>  <SCORE.INTRA.DIHEDRAL.0>
7.82666

>  <SCORE.INTRA.POLAR>
0

>  <SCORE.INTRA.POLAR.0>
0

>  <SCORE.INTRA.REPUL>
0

>  <SCORE.INTRA.REPUL.0>
0

>  <SCORE.INTRA.SOLV>
1.36353

>  <SCORE.INTRA.SOLV.lig_0>
-83.2758

>  <SCORE.INTRA.VDW>
-0.272068

>  <SCORE.INTRA.VDW.0>
-3.26816

>  <SCORE.INTRA.norm>
-0.00759655

>  <SCORE.RESTR>
0

>  <SCORE.RESTR.CAVITY>
0

>  <SCORE.RESTR.norm>
0

>  <SCORE.SYSTEM>
0

>  <SCORE.SYSTEM.CONST>
0

>  <SCORE.SYSTEM.DIHEDRAL>
0

>  <SCORE.SYSTEM.SOLV>
0

>  <SCORE.SYSTEM.norm>
0

>  <SCORE.heavy>
27

>  <SCORE.norm>
-0.349841

>  <RMSD>
8.938

$$$$
ligand
 OpenBabel11021811463D
libRbt.so/2013.1/901 2013/11/27
 27 28  0  0  0  0  0  0  0  0999 V2000
   -5.3550   36.6606   -4.5819 C   0  0  0  0  0  0  0  0  0  0  0  0
   -5.4432   33.2364  -11.5377 C   0  0  0  0  0  0  0  0  0  0  0  0
   -3.8183   34.5943  -13.6569 C   0  0  0  0  0  0  0  0  0  0  0  0
   -2.4802   34.2677  -12.9911 C   0  0  0  0  0  0  0  0  0  0  0  0
   -1.7557   35.4647  -12.6974 O   0  0  0  0  0  0  0  0  0  0  0  0
   -0.4866   35.4151  -11.7140 P   0  0  1  0  0  0  0  0  0  0  0  0
    0.2485   34.1966   -9.2786 P   0  0  2  0  0  0  0  0  0  0  0  0
   -5.5707   37.5227  -11.9822 C   0  0  0  0  0  0  0  0  0  0  0  0
   -6.0275   37.0534   -6.9442 N   0  0  0  0  0  0  0  0  0  0  0  0
    0.7612   34.6977  -12.4178 O   0  5  0  0  0  0  0  0  0  0  0  0
    1.1264   33.0857   -9.7001 O   0  0  0  0  0  0  0  0  0  0  0  0
   -6.3313   36.9138  -10.9929 C   0  0  0  0  0  0  0  0  0  0  0  0
   -5.8164   36.1714   -5.9551 C   0  0  0  0  0  0  0  0  0  0  0  0
    0.0163   36.8824  -11.2581 O   0  0  0  0  0  0  0  0  0  0  0  0
   -0.5378   33.8453   -7.9243 O   0  5  0  0  0  0  0  0  0  0  0  0
   -6.2874   35.5266  -10.8462 N   0  0  0  0  0  0  0  0  0  0  0  0
   -6.0065   34.8598   -6.1591 N   0  0  0  0  0  0  0  0  0  0  0  0
   -0.8624   34.6025  -10.3557 O   0  0  0  0  0  0  0  0  0  0  0  0
    1.1015   35.5026   -8.9455 O   0  0  0  0  0  0  0  0  0  0  0  0
   -5.4847   34.7620  -11.7013 C   0  0  1  0  0  0  0  0  0  0  0  0
   -6.4105   34.4124   -7.3545 C   0  0  0  0  0  0  0  0  0  0  0  0
   -6.5974   33.1103   -7.5442 N   0  0  0  0  0  0  0  0  0  0  0  0
   -4.7212   35.3743  -12.6939 C   0  0  1  0  0  0  0  0  0  0  0  0
   -6.6383   35.3056   -8.3943 C   0  0  0  0  0  0  0  0  0  0  0  0
   -4.7741   36.7567  -12.8245 C   0  0  0  0  0  0  0  0  0  0  0  0
   -6.4272   36.6560   -8.1407 C   0  0  0  0  0  0  0  0  0  0  0  0
   -7.1006   34.8752   -9.7925 C   0  0  0  0  0  0  0  0  0  0  0  0
  1 13  1  0  0  0  0
  3  4  1  0  0  0  0
  4  5  1  0  0  0  0
  6  5  1  6  0  0  0
  6 10  1  0  0  0  0
  6 14  2  0  0  0  0
  6 18  1  0  0  0  0
  7 11  1  6  0  0  0
  7 15  1  0  0  0  0
  7 19  2  0  0  0  0
  7 18  1  0  0  0  0
  8 25  1  0  0  0  0
  8 12  1  0  0  0  0
  9 26  2  0  0  0  0
  9 13  1  0  0  0  0
 12 16  1  0  0  0  0
 13 17  2  0  0  0  0
 16 20  1  0  0  0  0
 16 27  1  0  0  0  0
 17 21  1  0  0  0  0
 20  2  1  1  0  0  0
 20 23  1  0  0  0  0
 21 22  1  0  0  0  0
 21 24  2  0  0  0  0
 23  3  1  1  0  0  0
 23 25  1  0  0  0  0
 24 27  1  0  0  0  0
 24 26  1  0  0  0  0
M  CHG  2  10  -1  15  -1
M  END
>  <CHROM.1>
-64.25373364,166.37393458,71.91841413,170.81913848,-73.69139021,-81.50281027
-132.55753496,-64.34363279,-3.25621351,35.16651126,-9.99232073,-2.70112645
0.13991221,-1.53250250

>  <Name>
ligand

>  <RI>
0

>  <Rbt.Current_Directory>
/home/itssahil/PROJECTS/Mol_Feturizer/New_Systems/rnas/3D2V

>  <Rbt.Executable>
rbdock ($Id: //depot/dev/client3/rdock/2013.1/src/exe/rbdock.cxx#4 $)

>  <Rbt.Library>
libRbt.so (2013.1, Build901 2013/11/27)

>  <Rbt.Parameter_File>
/export/apps/rDock/src/rDock_2013.1_src/data/scripts/dock_solv.prm

>  <Rbt.Receptor>
prm/blind_docking_40.prm

>  <SCORE>
-9.47446

>  <SCORE.INTER>
-10.0869

>  <SCORE.INTER.CONST>
1

>  <SCORE.INTER.POLAR>
0

>  <SCORE.INTER.ROT>
8

>  <SCORE.INTER.SOLV>
32.5357

>  <SCORE.INTER.VDW>
-26.5032

>  <SCORE.INTER.norm>
-0.373589

>  <SCORE.INTRA>
-0.682745

>  <SCORE.INTRA.DIHEDRAL>
-1.05575

>  <SCORE.INTRA.DIHEDRAL.0>
7.82666

>  <SCORE.INTRA.POLAR>
0

>  <SCORE.INTRA.POLAR.0>
0

>  <SCORE.INTRA.REPUL>
0

>  <SCORE.INTRA.REPUL.0>
0

>  <SCORE.INTRA.SOLV>
-0.0326301

>  <SCORE.INTRA.SOLV.lig_0>
-83.2758

>  <SCORE.INTRA.VDW>
-0.138556

>  <SCORE.INTRA.VDW.0>
-3.26816

>  <SCORE.INTRA.norm>
-0.0252869

>  <SCORE.RESTR>
1.2952

>  <SCORE.RESTR.CAVITY>
1.2952

>  <SCORE.RESTR.norm>
0.0479702

>  <SCORE.SYSTEM>
0

>  <SCORE.SYSTEM.CONST>
0

>  <SCORE.SYSTEM.DIHEDRAL>
0

>  <SCORE.SYSTEM.SOLV>
0

>  <SCORE.SYSTEM.norm>
0

>  <SCORE.heavy>
27

>  <SCORE.norm>
-0.350906

>  <RMSD>
8.940

$$$$
ligand
 OpenBabel11021811473D
libRbt.so/2013.1/901 2013/11/27
 27 28  0  0  0  0  0  0  0  0999 V2000
   -2.5576   49.5617   -8.0337 C   0  0  0  0  0  0  0  0  0  0  0  0
   -5.8387   43.6415   -6.3038 C   0  0  0  0  0  0  0  0  0  0  0  0
   -5.6602   41.3072   -8.1732 C   0  0  0  0  0  0  0  0  0  0  0  0
   -6.6918   40.1775   -8.1855 C   0  0  0  0  0  0  0  0  0  0  0  0
   -7.8119   40.5061   -7.3599 O   0  0  0  0  0  0  0  0  0  0  0  0
   -8.9175   39.3904   -7.0241 P   0  0  1  0  0  0  0  0  0  0  0  0
   -7.7343   36.9563   -7.8187 P   0  0  2  0  0  0  0  0  0  0  0  0
   -7.4320   43.9121  -10.3006 C   0  0  0  0  0  0  0  0  0  0  0  0
   -4.3267   48.0151   -8.8495 N   0  0  0  0  0  0  0  0  0  0  0  0
   -8.7508   38.8450   -5.5268 O   0  5  0  0  0  0  0  0  0  0  0  0
   -6.3462   37.4097   -7.5950 O   0  0  0  0  0  0  0  0  0  0  0  0
   -7.5248   45.0063   -9.4507 C   0  0  0  0  0  0  0  0  0  0  0  0
   -3.7606   48.6451   -7.8086 C   0  0  0  0  0  0  0  0  0  0  0  0
  -10.4313   39.9433   -7.1524 O   0  0  0  0  0  0  0  0  0  0  0  0
   -7.8406   35.9909   -9.0963 O   0  5  0  0  0  0  0  0  0  0  0  0
   -7.0058   44.9203   -8.1581 N   0  0  0  0  0  0  0  0  0  0  0  0
   -4.2407   48.4785   -6.5678 N   0  0  0  0  0  0  0  0  0  0  0  0
   -8.7831   38.1405   -8.0567 O   0  0  0  0  0  0  0  0  0  0  0  0
   -8.2555   36.0867   -6.5873 O   0  0  0  0  0  0  0  0  0  0  0  0
   -6.4046   43.7314   -7.7278 C   0  0  1  0  0  0  0  0  0  0  0  0
   -5.2934   47.6802   -6.3509 C   0  0  0  0  0  0  0  0  0  0  0  0
   -5.7616   47.5244   -5.1169 N   0  0  0  0  0  0  0  0  0  0  0  0
   -6.3115   42.6337   -8.5819 C   0  0  1  0  0  0  0  0  0  0  0  0
   -5.8988   47.0185   -7.4123 C   0  0  0  0  0  0  0  0  0  0  0  0
   -6.8307   42.7370   -9.8667 C   0  0  0  0  0  0  0  0  0  0  0  0
   -5.3682   47.2174   -8.6817 C   0  0  0  0  0  0  0  0  0  0  0  0
   -7.1065   46.0864   -7.2491 C   0  0  0  0  0  0  0  0  0  0  0  0
  1 13  1  0  0  0  0
  3  4  1  0  0  0  0
  4  5  1  0  0  0  0
  6  5  1  6  0  0  0
  6 10  1  0  0  0  0
  6 14  2  0  0  0  0
  6 18  1  0  0  0  0
  7 11  1  1  0  0  0
  7 15  1  0  0  0  0
  7 19  2  0  0  0  0
  7 18  1  0  0  0  0
  8 25  1  0  0  0  0
  8 12  1  0  0  0  0
  9 26  2  0  0  0  0
  9 13  1  0  0  0  0
 12 16  1  0  0  0  0
 13 17  2  0  0  0  0
 16 20  1  0  0  0  0
 16 27  1  0  0  0  0
 17 21  1  0  0  0  0
 20  2  1  6  0  0  0
 20 23  1  0  0  0  0
 21 22  1  0  0  0  0
 21 24  2  0  0  0  0
 23  3  1  6  0  0  0
 23 25  1  0  0  0  0
 24 27  1  0  0  0  0
 24 26  1  0  0  0  0
M  CHG  2  10  -1  15  -1
M  END
>  <CHROM.1>
-55.06280340,-170.33623709,104.31150196,83.67617020,-52.44638406,116.49554729
-142.23366970,-88.52892578,-6.83476981,42.36737116,-7.66736229,-0.99985078
-0.94575714,-2.66668177

>  <Name>
ligand

>  <RI>
0

>  <Rbt.Current_Directory>
/home/itssahil/PROJECTS/Mol_Feturizer/New_Systems/rnas/3D2V

>  <Rbt.Executable>
rbdock ($Id: //depot/dev/client3/rdock/2013.1/src/exe/rbdock.cxx#4 $)

>  <Rbt.Library>
libRbt.so (2013.1, Build901 2013/11/27)

>  <Rbt.Parameter_File>
/export/apps/rDock/src/rDock_2013.1_src/data/scripts/dock_solv.prm

>  <Rbt.Receptor>
prm/pocket_docking_7.prm

>  <SCORE>
-12.8788

>  <SCORE.INTER>
-12.7463

>  <SCORE.INTER.CONST>
1

>  <SCORE.INTER.POLAR>
0

>  <SCORE.INTER.ROT>
8

>  <SCORE.INTER.SOLV>
24.6878

>  <SCORE.INTER.VDW>
-25.6601

>  <SCORE.INTER.norm>
-0.472086

>  <SCORE.INTRA>
-0.132439

>  <SCORE.INTRA.DIHEDRAL>
0.847736

>  <SCORE.INTRA.DIHEDRAL.0>
7.82666

>  <SCORE.INTRA.POLAR>
0

>  <SCORE.INTRA.POLAR.0>
0

>  <SCORE.INTRA.REPUL>
0

>  <SCORE.INTRA.REPUL.0>
0

>  <SCORE.INTRA.SOLV>
-1.00781

>  <SCORE.INTRA.SOLV.lig_0>
-83.2758

>  <SCORE.INTRA.VDW>
-0.0524021

>  <SCORE.INTRA.VDW.0>
-3.26816

>  <SCORE.INTRA.norm>
-0.00490514

>  <SCORE.RESTR>
0

>  <SCORE.RESTR.CAVITY>
0

>  <SCORE.RESTR.norm>
0

>  <SCORE.SYSTEM>
0

>  <SCORE.SYSTEM.CONST>
0

>  <SCORE.SYSTEM.DIHEDRAL>
0

>  <SCORE.SYSTEM.SOLV>
0

>  <SCORE.SYSTEM.norm>
0

>  <SCORE.heavy>
27

>  <SCORE.norm>
-0.476991

>  <RMSD>
8.944

$$$$
ligand
 OpenBabel11021811473D
libRbt.so/2013.1/901 2013/11/27
 27 28  0  0  0  0  0  0  0  0999 V2000
   -4.0225   48.0663   -6.3892 C   0  0  0  0  0  0  0  0  0  0  0  0
   -6.8294   42.8745   -9.9765 C   0  0  0  0  0  0  0  0  0  0  0  0
   -5.0857   40.6304  -10.9249 C   0  0  0  0  0  0  0  0  0  0  0  0
   -4.8695   40.5619   -9.4119 C   0  0  0  0  0  0  0  0  0  0  0  0
   -5.1661   39.2536   -8.9172 O   0  0  0  0  0  0  0  0  0  0  0  0
   -5.4608   39.0334   -7.3537 P   0  0  1  0  0  0  0  0  0  0  0  0
   -5.8983   36.9080   -5.5516 P   0  0  2  0  0  0  0  0  0  0  0  0
   -3.6967   43.6009  -12.8479 C   0  0  0  0  0  0  0  0  0  0  0  0
   -3.9885   47.3583   -8.7735 N   0  0  0  0  0  0  0  0  0  0  0  0
   -4.2869   39.6480   -6.4529 O   0  5  0  0  0  0  0  0  0  0  0  0
   -7.1562   37.4150   -4.9655 O   0  0  0  0  0  0  0  0  0  0  0  0
   -4.4929   44.6556  -12.4213 C   0  0  0  0  0  0  0  0  0  0  0  0
   -4.6544   47.3948   -7.6089 C   0  0  0  0  0  0  0  0  0  0  0  0
   -6.8354   39.7310   -6.8662 O   0  0  0  0  0  0  0  0  0  0  0  0
   -4.6281   37.3049   -4.6546 O   0  5  0  0  0  0  0  0  0  0  0  0
   -5.5046   44.4215  -11.4890 N   0  0  0  0  0  0  0  0  0  0  0  0
   -5.8734   46.8463   -7.5031 N   0  0  0  0  0  0  0  0  0  0  0  0
   -5.5967   37.4454   -7.0278 O   0  0  0  0  0  0  0  0  0  0  0  0
   -5.8963   35.3140   -5.6055 O   0  0  0  0  0  0  0  0  0  0  0  0
   -5.7128   43.1266  -10.9991 C   0  0  1  0  0  0  0  0  0  0  0  0
   -6.4431   46.2542   -8.5600 C   0  0  0  0  0  0  0  0  0  0  0  0
   -7.6526   45.7156   -8.4435 N   0  0  0  0  0  0  0  0  0  0  0  0
   -4.9126   42.0686  -11.4275 C   0  0  2  0  0  0  0  0  0  0  0  0
   -5.7753   46.2053   -9.7776 C   0  0  0  0  0  0  0  0  0  0  0  0
   -3.9078   42.3194  -12.3540 C   0  0  0  0  0  0  0  0  0  0  0  0
   -4.5131   46.7841   -9.8432 C   0  0  0  0  0  0  0  0  0  0  0  0
   -6.3568   45.5456  -11.0349 C   0  0  0  0  0  0  0  0  0  0  0  0
  1 13  1  0  0  0  0
  3  4  1  0  0  0  0
  4  5  1  0  0  0  0
  6  5  1  6  0  0  0
  6 10  1  0  0  0  0
  6 14  2  0  0  0  0
  6 18  1  0  0  0  0
  7 11  1  1  0  0  0
  7 15  1  0  0  0  0
  7 19  2  0  0  0  0
  7 18  1  0  0  0  0
  8 25  1  0  0  0  0
  8 12  1  0  0  0  0
  9 26  2  0  0  0  0
  9 13  1  0  0  0  0
 12 16  1  0  0  0  0
 13 17  2  0  0  0  0
 16 20  1  0  0  0  0
 16 27  1  0  0  0  0
 17 21  1  0  0  0  0
 20  2  1  1  0  0  0
 20 23  1  0  0  0  0
 21 22  1  0  0  0  0
 21 24  2  0  0  0  0
 23  3  1  6  0  0  0
 23 25  1  0  0  0  0
 24 27  1  0  0  0  0
 24 26  1  0  0  0  0
M  CHG  2  10  -1  15  -1
M  END
>  <CHROM.1>
173.94113792,-161.02427380,-52.77312828,-179.69162722,58.71612048,-61.01184524
-118.66942178,-91.61856956,-5.43377325,41.85610295,-8.42457557,1.06824851
1.44907260,0.10194501

>  <Name>
ligand

>  <RI>
0

>  <Rbt.Current_Directory>
/home/itssahil/PROJECTS/Mol_Feturizer/New_Systems/rnas/3D2V

>  <Rbt.Executable>
rbdock ($Id: //depot/dev/client3/rdock/2013.1/src/exe/rbdock.cxx#4 $)

>  <Rbt.Library>
libRbt.so (2013.1, Build901 2013/11/27)

>  <Rbt.Parameter_File>
/export/apps/rDock/src/rDock_2013.1_src/data/scripts/dock_solv.prm

>  <Rbt.Receptor>
prm/pocket_docking_4.prm

>  <SCORE>
-12.3653

>  <SCORE.INTER>
-13.2277

>  <SCORE.INTER.CONST>
1

>  <SCORE.INTER.POLAR>
0

>  <SCORE.INTER.ROT>
8

>  <SCORE.INTER.SOLV>
24.9574

>  <SCORE.INTER.VDW>
-26.0709

>  <SCORE.INTER.norm>
-0.489915

>  <SCORE.INTRA>
0.862432

>  <SCORE.INTRA.DIHEDRAL>
-0.773755

>  <SCORE.INTRA.DIHEDRAL.0>
7.82666

>  <SCORE.INTRA.POLAR>
0

>  <SCORE.INTRA.POLAR.0>
0

>  <SCORE.INTRA.REPUL>
0

>  <SCORE.INTRA.REPUL.0>
0

>  <SCORE.INTRA.SOLV>
1.29539

>  <SCORE.INTRA.SOLV.lig_0>
-83.2758

>  <SCORE.INTRA.VDW>
0.601616

>  <SCORE.INTRA.VDW.0>
-3.26816

>  <SCORE.INTRA.norm>
0.0319419

>  <SCORE.RESTR>
0

>  <SCORE.RESTR.CAVITY>
0

>  <SCORE.RESTR.norm>
0

>  <SCORE.SYSTEM>
0

>  <SCORE.SYSTEM.CONST>
0

>  <SCORE.SYSTEM.DIHEDRAL>
0

>  <SCORE.SYSTEM.SOLV>
0

>  <SCORE.SYSTEM.norm>
0

>  <SCORE.heavy>
27

>  <SCORE.norm>
-0.457973

>  <RMSD>
8.987

$$$$
ligand
 OpenBabel11021811473D
libRbt.so/2013.1/901 2013/11/27
 27 28  0  0  0  0  0  0  0  0999 V2000
   -4.3498   39.7775  -13.6031 C   0  0  0  0  0  0  0  0  0  0  0  0
   -7.1394   43.0501   -9.3553 C   0  0  0  0  0  0  0  0  0  0  0  0
   -6.9425   42.6537   -6.3923 C   0  0  0  0  0  0  0  0  0  0  0  0
   -6.2881   41.3643   -5.8927 C   0  0  0  0  0  0  0  0  0  0  0  0
   -7.2692   40.4750   -5.3533 O   0  0  0  0  0  0  0  0  0  0  0  0
   -6.8128   39.1003   -4.6593 P   0  0  1  0  0  0  0  0  0  0  0  0
   -9.4633   38.6621   -3.7997 P   0  0  2  0  0  0  0  0  0  0  0  0
   -3.9468   44.8812   -7.1102 C   0  0  0  0  0  0  0  0  0  0  0  0
   -5.6405   41.8213  -13.0163 N   0  0  0  0  0  0  0  0  0  0  0  0
   -5.7295   38.3328   -5.5562 O   0  5  0  0  0  0  0  0  0  0  0  0
  -10.4684   37.6094   -3.5462 O   0  0  0  0  0  0  0  0  0  0  0  0
   -4.0196   45.0784   -8.4827 C   0  0  0  0  0  0  0  0  0  0  0  0
   -4.5417   41.0764  -12.8195 C   0  0  0  0  0  0  0  0  0  0  0  0
   -6.1416   39.3199   -3.2050 O   0  0  0  0  0  0  0  0  0  0  0  0
  -10.0265   39.7871   -4.7962 O   0  5  0  0  0  0  0  0  0  0  0  0
   -5.0551   44.4890   -9.2094 N   0  0  0  0  0  0  0  0  0  0  0  0
   -3.6062   41.4607  -11.9391 N   0  0  0  0  0  0  0  0  0  0  0  0
   -8.0993   38.1284   -4.4428 O   0  0  0  0  0  0  0  0  0  0  0  0
   -9.0956   39.4351   -2.4539 O   0  0  0  0  0  0  0  0  0  0  0  0
   -6.0047   43.6989   -8.5505 C   0  0  1  0  0  0  0  0  0  0  0  0
   -3.7564   42.5949  -11.2439 C   0  0  0  0  0  0  0  0  0  0  0  0
   -2.8215   42.9665  -10.3754 N   0  0  0  0  0  0  0  0  0  0  0  0
   -5.9311   43.5019   -7.1726 C   0  0  2  0  0  0  0  0  0  0  0  0
   -4.8840   43.3851  -11.4311 C   0  0  0  0  0  0  0  0  0  0  0  0
   -4.8954   44.0983   -6.4637 C   0  0  0  0  0  0  0  0  0  0  0  0
   -5.8300   42.9489  -12.3516 C   0  0  0  0  0  0  0  0  0  0  0  0
   -5.1325   44.6965  -10.6746 C   0  0  0  0  0  0  0  0  0  0  0  0
  1 13  1  0  0  0  0
  3  4  1  0  0  0  0
  4  5  1  0  0  0  0
  6  5  1  6  0  0  0
  6 10  1  0  0  0  0
  6 14  2  0  0  0  0
  6 18  1  0  0  0  0
  7 11  1  1  0  0  0
  7 15  1  0  0  0  0
  7 19  2  0  0  0  0
  7 18  1  0  0  0  0
  8 25  1  0  0  0  0
  8 12  1  0  0  0  0
  9 26  2  0  0  0  0
  9 13  1  0  0  0  0
 12 16  1  0  0  0  0
 13 17  2  0  0  0  0
 16 20  1  0  0  0  0
 16 27  1  0  0  0  0
 17 21  1  0  0  0  0
 20  2  1  1  0  0  0
 20 23  1  0  0  0  0
 21 22  1  0  0  0  0
 21 24  2  0  0  0  0
 23  3  1  6  0  0  0
 23 25  1  0  0  0  0
 24 27  1  0  0  0  0
 24 26  1  0  0  0  0
M  CHG  2  10  -1  15  -1
M  END
>  <CHROM.1>
-170.75442252,-175.21215598,-46.36042645,-47.74464547,-173.71102101,110.38354122
-54.40321133,113.22837102,-6.36181637,41.24506223,-7.43790462,0.39252464
-1.08892992,-2.20952039

>  <Name>
ligand

>  <RI>
0

>  <Rbt.Current_Directory>
/home/itssahil/PROJECTS/Mol_Feturizer/New_Systems/rnas/3D2V

>  <Rbt.Executable>
rbdock ($Id: //depot/dev/client3/rdock/2013.1/src/exe/rbdock.cxx#4 $)

>  <Rbt.Library>
libRbt.so (2013.1, Build901 2013/11/27)

>  <Rbt.Parameter_File>
/export/apps/rDock/src/rDock_2013.1_src/data/scripts/dock_solv.prm

>  <Rbt.Receptor>
prm/pocket_docking_5.prm

>  <SCORE>
-7.4885

>  <SCORE.INTER>
-7.5799

>  <SCORE.INTER.CONST>
1

>  <SCORE.INTER.POLAR>
0

>  <SCORE.INTER.ROT>
8

>  <SCORE.INTER.SOLV>
17.2595

>  <SCORE.INTER.VDW>
-19.7398

>  <SCORE.INTER.norm>
-0.280737

>  <SCORE.INTRA>
0.0882963

>  <SCORE.INTRA.DIHEDRAL>
-1.61919

>  <SCORE.INTRA.DIHEDRAL.0>
7.82666

>  <SCORE.INTRA.POLAR>
0

>  <SCORE.INTRA.POLAR.0>
0

>  <SCORE.INTRA.REPUL>
0

>  <SCORE.INTRA.REPUL.0>
0

>  <SCORE.INTRA.SOLV>
2.19517

>  <SCORE.INTRA.SOLV.lig_0>
-83.2758

>  <SCORE.INTRA.VDW>
-0.199691

>  <SCORE.INTRA.VDW.0>
-3.26816

>  <SCORE.INTRA.norm>
0.00327023

>  <SCORE.RESTR>
0.00310501

>  <SCORE.RESTR.CAVITY>
0.00310501

>  <SCORE.RESTR.norm>
0.000115

>  <SCORE.SYSTEM>
0

>  <SCORE.SYSTEM.CONST>
0

>  <SCORE.SYSTEM.DIHEDRAL>
0

>  <SCORE.SYSTEM.SOLV>
0

>  <SCORE.SYSTEM.norm>
0

>  <SCORE.heavy>
27

>  <SCORE.norm>
-0.277352

>  <RMSD>
9.021

$$$$
ligand
 OpenBabel11021811463D
libRbt.so/2013.1/901 2013/11/27
 27 28  0  0  0  0  0  0  0  0999 V2000
   -6.3889   35.7928   -5.7063 C   0  0  0  0  0  0  0  0  0  0  0  0
   -5.8603   37.1021  -11.7853 C   0  0  0  0  0  0  0  0  0  0  0  0
   -3.7771   35.9990  -13.6343 C   0  0  0  0  0  0  0  0  0  0  0  0
   -2.5206   35.2232  -13.2343 C   0  0  0  0  0  0  0  0  0  0  0  0
   -2.3225   35.2756  -11.8193 O   0  0  0  0  0  0  0  0  0  0  0  0
   -0.9089   34.8458  -11.1893 P   0  0  1  0  0  0  0  0  0  0  0  0
    0.4585   35.7905   -8.9102 P   0  0  2  0  0  0  0  0  0  0  0  0
   -6.3211   33.1771  -13.5082 C   0  0  0  0  0  0  0  0  0  0  0  0
   -7.8921   36.4325   -7.5820 N   0  0  0  0  0  0  0  0  0  0  0  0
   -1.0599   33.5442  -10.2671 O   0  5  0  0  0  0  0  0  0  0  0  0
   -0.4274   35.4145   -7.7893 O   0  0  0  0  0  0  0  0  0  0  0  0
   -7.2990   33.6694  -12.6541 C   0  0  0  0  0  0  0  0  0  0  0  0
   -6.8534   35.6950   -7.1597 C   0  0  0  0  0  0  0  0  0  0  0  0
    0.2015   34.4955  -12.3107 O   0  0  0  0  0  0  0  0  0  0  0  0
    1.2901   37.1235   -8.5828 O   0  5  0  0  0  0  0  0  0  0  0  0
   -7.1521   34.9414  -12.0991 N   0  0  0  0  0  0  0  0  0  0  0  0
   -6.2159   34.8697   -8.0026 N   0  0  0  0  0  0  0  0  0  0  0  0
   -0.3045   36.0594  -10.2903 O   0  0  0  0  0  0  0  0  0  0  0  0
    1.5548   34.6623   -9.1736 O   0  0  0  0  0  0  0  0  0  0  0  0
   -6.0183   35.7052  -12.4014 C   0  0  1  0  0  0  0  0  0  0  0  0
   -6.6084   34.7703   -9.2787 C   0  0  0  0  0  0  0  0  0  0  0  0
   -5.9699   33.9474  -10.1043 N   0  0  0  0  0  0  0  0  0  0  0  0
   -5.0374   35.2104  -13.2593 C   0  0  2  0  0  0  0  0  0  0  0  0
   -7.6825   35.5215   -9.7399 C   0  0  0  0  0  0  0  0  0  0  0  0
   -5.2006   33.9432  -13.8056 C   0  0  0  0  0  0  0  0  0  0  0  0
   -8.3137   36.3659   -8.8337 C   0  0  0  0  0  0  0  0  0  0  0  0
   -8.1937   35.4669  -11.1855 C   0  0  0  0  0  0  0  0  0  0  0  0
  1 13  1  0  0  0  0
  3  4  1  0  0  0  0
  4  5  1  0  0  0  0
  6  5  1  6  0  0  0
  6 10  1  0  0  0  0
  6 14  2  0  0  0  0
  6 18  1  0  0  0  0
  7 11  1  1  0  0  0
  7 15  1  0  0  0  0
  7 19  2  0  0  0  0
  7 18  1  0  0  0  0
  8 25  1  0  0  0  0
  8 12  1  0  0  0  0
  9 26  2  0  0  0  0
  9 13  1  0  0  0  0
 12 16  1  0  0  0  0
 13 17  2  0  0  0  0
 16 20  1  0  0  0  0
 16 27  1  0  0  0  0
 17 21  1  0  0  0  0
 20  2  1  6  0  0  0
 20 23  1  0  0  0  0
 21 22  1  0  0  0  0
 21 24  2  0  0  0  0
 23  3  1  1  0  0  0
 23 25  1  0  0  0  0
 24 27  1  0  0  0  0
 24 26  1  0  0  0  0
M  CHG  2  10  -1  15  -1
M  END
>  <CHROM.1>
-74.55881030,-165.48486991,-115.40448533,141.20964722,-74.19457607,121.14213129
-20.70235484,109.03140884,-3.68712419,35.25227333,-10.43607883,3.08693281
-0.00391977,-1.76429884

>  <Name>
ligand

>  <RI>
0

>  <Rbt.Current_Directory>
/home/itssahil/PROJECTS/Mol_Feturizer/New_Systems/rnas/3D2V

>  <Rbt.Executable>
rbdock ($Id: //depot/dev/client3/rdock/2013.1/src/exe/rbdock.cxx#4 $)

>  <Rbt.Library>
libRbt.so (2013.1, Build901 2013/11/27)

>  <Rbt.Parameter_File>
/export/apps/rDock/src/rDock_2013.1_src/data/scripts/dock_solv.prm

>  <Rbt.Receptor>
prm/blind_docking_40.prm

>  <SCORE>
-7.65581

>  <SCORE.INTER>
-13.8539

>  <SCORE.INTER.CONST>
1

>  <SCORE.INTER.POLAR>
0

>  <SCORE.INTER.ROT>
8

>  <SCORE.INTER.SOLV>
29.2662

>  <SCORE.INTER.VDW>
-27.9247

>  <SCORE.INTER.norm>
-0.513108

>  <SCORE.INTRA>
4.33126

>  <SCORE.INTRA.DIHEDRAL>
3.4942

>  <SCORE.INTRA.DIHEDRAL.0>
7.82666

>  <SCORE.INTRA.POLAR>
0

>  <SCORE.INTRA.POLAR.0>
0

>  <SCORE.INTRA.REPUL>
0

>  <SCORE.INTRA.REPUL.0>
0

>  <SCORE.INTRA.SOLV>
4.46487

>  <SCORE.INTRA.SOLV.lig_0>
-83.2758

>  <SCORE.INTRA.VDW>
0.351727

>  <SCORE.INTRA.VDW.0>
-3.26816

>  <SCORE.INTRA.norm>
0.160417

>  <SCORE.RESTR>
1.86684

>  <SCORE.RESTR.CAVITY>
1.86684

>  <SCORE.RESTR.norm>
0.0691421

>  <SCORE.SYSTEM>
0

>  <SCORE.SYSTEM.CONST>
0

>  <SCORE.SYSTEM.DIHEDRAL>
0

>  <SCORE.SYSTEM.SOLV>
0

>  <SCORE.SYSTEM.norm>
0

>  <SCORE.heavy>
27

>  <SCORE.norm>
-0.283549

>  <RMSD>
9.045

$$$$
ligand
 OpenBabel11021811473D
libRbt.so/2013.1/901 2013/11/27
 27 28  0  0  0  0  0  0  0  0999 V2000
   -2.3809   49.6500   -8.1269 C   0  0  0  0  0  0  0  0  0  0  0  0
   -6.4706   43.0574   -6.1675 C   0  0  0  0  0  0  0  0  0  0  0  0
   -7.0097   41.1160   -8.3846 C   0  0  0  0  0  0  0  0  0  0  0  0
   -5.6299   40.5520   -8.7292 C   0  0  0  0  0  0  0  0  0  0  0  0
   -5.6238   39.1266   -8.6187 O   0  0  0  0  0  0  0  0  0  0  0  0
   -5.8541   38.4303   -7.1897 P   0  0  1  0  0  0  0  0  0  0  0  0
   -6.5944   35.9064   -6.1709 P   0  0  2  0  0  0  0  0  0  0  0  0
   -7.3679   44.4681  -10.1413 C   0  0  0  0  0  0  0  0  0  0  0  0
   -4.5050   49.0228   -6.9947 N   0  0  0  0  0  0  0  0  0  0  0  0
   -4.5878   38.6460   -6.2319 O   0  5  0  0  0  0  0  0  0  0  0  0
   -6.6396   34.4649   -6.4915 O   0  0  0  0  0  0  0  0  0  0  0  0
   -7.1206   45.3853   -9.1284 C   0  0  0  0  0  0  0  0  0  0  0  0
   -3.4801   48.6470   -7.7752 C   0  0  0  0  0  0  0  0  0  0  0  0
   -7.1387   39.0159   -6.4019 O   0  0  0  0  0  0  0  0  0  0  0  0
   -8.0357   36.4576   -5.7299 O   0  5  0  0  0  0  0  0  0  0  0  0
   -6.8263   44.9289   -7.8428 N   0  0  0  0  0  0  0  0  0  0  0  0
   -3.4094   47.3958   -8.2521 N   0  0  0  0  0  0  0  0  0  0  0  0
   -6.1042   36.8340   -7.3785 O   0  0  0  0  0  0  0  0  0  0  0  0
   -5.6367   36.1838   -4.9261 O   0  0  0  0  0  0  0  0  0  0  0  0
   -6.7912   43.5534   -7.5842 C   0  0  1  0  0  0  0  0  0  0  0  0
   -4.3622   46.5034   -7.9548 C   0  0  0  0  0  0  0  0  0  0  0  0
   -4.2803   45.2656   -8.4318 N   0  0  0  0  0  0  0  0  0  0  0  0
   -7.0391   42.6335   -8.6018 C   0  0  2  0  0  0  0  0  0  0  0  0
   -5.4325   46.8671   -7.1467 C   0  0  0  0  0  0  0  0  0  0  0  0
   -7.3277   43.1046   -9.8768 C   0  0  0  0  0  0  0  0  0  0  0  0
   -5.4681   48.1744   -6.6754 C   0  0  0  0  0  0  0  0  0  0  0  0
   -6.5647   45.9066   -6.7603 C   0  0  0  0  0  0  0  0  0  0  0  0
  1 13  1  0  0  0  0
  3  4  1  0  0  0  0
  4  5  1  0  0  0  0
  6  5  1  6  0  0  0
  6 10  1  0  0  0  0
  6 14  2  0  0  0  0
  6 18  1  0  0  0  0
  7 11  1  6  0  0  0
  7 15  1  0  0  0  0
  7 19  2  0  0  0  0
  7 18  1  0  0  0  0
  8 25  1  0  0  0  0
  8 12  1  0  0  0  0
  9 26  2  0  0  0  0
  9 13  1  0  0  0  0
 12 16  1  0  0  0  0
 13 17  2  0  0  0  0
 16 20  1  0  0  0  0
 16 27  1  0  0  0  0
 17 21  1  0  0  0  0
 20  2  1  6  0  0  0
 20 23  1  0  0  0  0
 21 22  1  0  0  0  0
 21 24  2  0  0  0  0
 23  3  1  1  0  0  0
 23 25  1  0  0  0  0
 24 27  1  0  0  0  0
 24 26  1  0  0  0  0
M  CHG  2  10  -1  15  -1
M  END
>  <CHROM.1>
-175.93663046,-64.63598785,-70.85317880,-170.02082905,-174.26315208,-94.08137608
-32.12413706,-55.55666367,-5.86994737,41.89871935,-7.40334646,-1.37538724
0.64710024,2.89552065

>  <Name>
ligand

>  <RI>
0

>  <Rbt.Current_Directory>
/home/itssahil/PROJECTS/Mol_Feturizer/New_Systems/rnas/3D2V

>  <Rbt.Executable>
rbdock ($Id: //depot/dev/client3/rdock/2013.1/src/exe/rbdock.cxx#4 $)

>  <Rbt.Library>
libRbt.so (2013.1, Build901 2013/11/27)

>  <Rbt.Parameter_File>
/export/apps/rDock/src/rDock_2013.1_src/data/scripts/dock_solv.prm

>  <Rbt.Receptor>
prm/pocket_docking_5.prm

>  <SCORE>
-9.19125

>  <SCORE.INTER>
-12.0298

>  <SCORE.INTER.CONST>
1

>  <SCORE.INTER.POLAR>
0

>  <SCORE.INTER.ROT>
8

>  <SCORE.INTER.SOLV>
14.5586

>  <SCORE.INTER.VDW>
-21.8061

>  <SCORE.INTER.norm>
-0.445547

>  <SCORE.INTRA>
2.83852

>  <SCORE.INTRA.DIHEDRAL>
-2.04861

>  <SCORE.INTRA.DIHEDRAL.0>
7.82666

>  <SCORE.INTRA.POLAR>
0

>  <SCORE.INTRA.POLAR.0>
0

>  <SCORE.INTRA.REPUL>
0

>  <SCORE.INTRA.REPUL.0>
0

>  <SCORE.INTRA.SOLV>
7.2596

>  <SCORE.INTRA.SOLV.lig_0>
-83.2758

>  <SCORE.INTRA.VDW>
0.233026

>  <SCORE.INTRA.VDW.0>
-3.26816

>  <SCORE.INTRA.norm>
0.10513

>  <SCORE.RESTR>
0

>  <SCORE.RESTR.CAVITY>
0

>  <SCORE.RESTR.norm>
0

>  <SCORE.SYSTEM>
0

>  <SCORE.SYSTEM.CONST>
0

>  <SCORE.SYSTEM.DIHEDRAL>
0

>  <SCORE.SYSTEM.SOLV>
0

>  <SCORE.SYSTEM.norm>
0

>  <SCORE.heavy>
27

>  <SCORE.norm>
-0.340417

>  <RMSD>
9.073

$$$$
ligand
 OpenBabel11021811463D
libRbt.so/2013.1/901 2013/11/27
 27 28  0  0  0  0  0  0  0  0999 V2000
    1.8986   31.3776   -6.5102 C   0  0  0  0  0  0  0  0  0  0  0  0
   -6.4990   33.1998   -7.5089 C   0  0  0  0  0  0  0  0  0  0  0  0
   -7.3959   35.4505   -5.7468 C   0  0  0  0  0  0  0  0  0  0  0  0
   -7.3407   36.9760   -5.8488 C   0  0  0  0  0  0  0  0  0  0  0  0
   -6.7671   37.5417   -4.6676 O   0  0  0  0  0  0  0  0  0  0  0  0
   -6.4409   39.1132   -4.6059 P   0  0  1  0  0  0  0  0  0  0  0  0
   -5.1879   40.8734   -2.7926 P   0  0  2  0  0  0  0  0  0  0  0  0
   -3.8014   34.9294   -4.6249 C   0  0  0  0  0  0  0  0  0  0  0  0
   -0.0792   32.7897   -7.0407 N   0  0  0  0  0  0  0  0  0  0  0  0
   -5.2490   39.4950   -5.6063 O   0  5  0  0  0  0  0  0  0  0  0  0
   -3.8510   40.9156   -3.4200 O   0  0  0  0  0  0  0  0  0  0  0  0
   -3.3648   33.8873   -5.4321 C   0  0  0  0  0  0  0  0  0  0  0  0
    0.3949   31.5822   -6.6969 C   0  0  0  0  0  0  0  0  0  0  0  0
   -7.7040   40.0365   -5.0130 O   0  0  0  0  0  0  0  0  0  0  0  0
   -5.0938   40.9992   -1.1954 O   0  5  0  0  0  0  0  0  0  0  0  0
   -4.2366   33.3296   -6.3685 N   0  0  0  0  0  0  0  0  0  0  0  0
   -0.4398   30.5488   -6.5144 N   0  0  0  0  0  0  0  0  0  0  0  0
   -6.0145   39.5375   -3.0944 O   0  0  0  0  0  0  0  0  0  0  0  0
   -6.0775   42.1111   -3.2624 O   0  0  0  0  0  0  0  0  0  0  0  0
   -5.5435   33.8194   -6.4798 C   0  0  1  0  0  0  0  0  0  0  0  0
   -1.7595   30.7085   -6.6730 C   0  0  0  0  0  0  0  0  0  0  0  0
   -2.5771   29.6772   -6.4876 N   0  0  0  0  0  0  0  0  0  0  0  0
   -5.9806   34.8659   -5.6694 C   0  0  2  0  0  0  0  0  0  0  0  0
   -2.2756   31.9493   -7.0265 C   0  0  0  0  0  0  0  0  0  0  0  0
   -5.0990   35.4118   -4.7443 C   0  0  0  0  0  0  0  0  0  0  0  0
   -1.3753   32.9930   -7.2078 C   0  0  0  0  0  0  0  0  0  0  0  0
   -3.7729   32.2157   -7.2288 C   0  0  0  0  0  0  0  0  0  0  0  0
  1 13  1  0  0  0  0
  3  4  1  0  0  0  0
  4  5  1  0  0  0  0
  6  5  1  6  0  0  0
  6 10  1  0  0  0  0
  6 14  2  0  0  0  0
  6 18  1  0  0  0  0
  7 11  1  6  0  0  0
  7 15  1  0  0  0  0
  7 19  2  0  0  0  0
  7 18  1  0  0  0  0
  8 25  1  0  0  0  0
  8 12  1  0  0  0  0
  9 26  2  0  0  0  0
  9 13  1  0  0  0  0
 12 16  1  0  0  0  0
 13 17  2  0  0  0  0
 16 20  1  0  0  0  0
 16 27  1  0  0  0  0
 17 21  1  0  0  0  0
 20  2  1  6  0  0  0
 20 23  1  0  0  0  0
 21 22  1  0  0  0  0
 21 24  2  0  0  0  0
 23  3  1  1  0  0  0
 23 25  1  0  0  0  0
 24 27  1  0  0  0  0
 24 26  1  0  0  0  0
M  CHG  2  10  -1  15  -1
M  END
>  <CHROM.1>
-63.91663909,172.72704263,-67.94515377,159.66303577,-61.65705641,-130.27562697
124.55561130,-6.22815337,-4.36291821,36.03186780,-5.23937914,-1.11497381
-0.18803887,0.44086750

>  <Name>
ligand

>  <RI>
0

>  <Rbt.Current_Directory>
/home/itssahil/PROJECTS/Mol_Feturizer/New_Systems/rnas/3D2V

>  <Rbt.Executable>
rbdock ($Id: //depot/dev/client3/rdock/2013.1/src/exe/rbdock.cxx#4 $)

>  <Rbt.Library>
libRbt.so (2013.1, Build901 2013/11/27)

>  <Rbt.Parameter_File>
/export/apps/rDock/src/rDock_2013.1_src/data/scripts/dock_solv.prm

>  <Rbt.Receptor>
prm/blind_docking_60.prm

>  <SCORE>
-9.33297

>  <SCORE.INTER>
-9.82504

>  <SCORE.INTER.CONST>
1

>  <SCORE.INTER.POLAR>
0

>  <SCORE.INTER.ROT>
8

>  <SCORE.INTER.SOLV>
17.2921

>  <SCORE.INTER.VDW>
-21.2474

>  <SCORE.INTER.norm>
-0.36389

>  <SCORE.INTRA>
0.468349

>  <SCORE.INTRA.DIHEDRAL>
-1.62679

>  <SCORE.INTRA.DIHEDRAL.0>
7.82666

>  <SCORE.INTRA.POLAR>
0

>  <SCORE.INTRA.POLAR.0>
0

>  <SCORE.INTRA.REPUL>
0

>  <SCORE.INTRA.REPUL.0>
0

>  <SCORE.INTRA.SOLV>
-0.561286

>  <SCORE.INTRA.SOLV.lig_0>
-83.2758

>  <SCORE.INTRA.VDW>
1.56239

>  <SCORE.INTRA.VDW.0>
-3.26816

>  <SCORE.INTRA.norm>
0.0173463

>  <SCORE.RESTR>
0.0237159

>  <SCORE.RESTR.CAVITY>
0.0237159

>  <SCORE.RESTR.norm>
0.000878367

>  <SCORE.SYSTEM>
0

>  <SCORE.SYSTEM.CONST>
0

>  <SCORE.SYSTEM.DIHEDRAL>
0

>  <SCORE.SYSTEM.SOLV>
0

>  <SCORE.SYSTEM.norm>
0

>  <SCORE.heavy>
27

>  <SCORE.norm>
-0.345666

>  <RMSD>
9.099

$$$$
ligand
 OpenBabel11021811473D
libRbt.so/2013.1/901 2013/11/27
 27 28  0  0  0  0  0  0  0  0999 V2000
   -2.3624   42.8969  -11.1196 C   0  0  0  0  0  0  0  0  0  0  0  0
   -7.1630   41.5146   -4.7209 C   0  0  0  0  0  0  0  0  0  0  0  0
   -8.6659   38.9232   -4.7556 C   0  0  0  0  0  0  0  0  0  0  0  0
   -8.5750   38.5424   -3.2767 C   0  0  0  0  0  0  0  0  0  0  0  0
   -8.9510   39.6442   -2.4465 O   0  0  0  0  0  0  0  0  0  0  0  0
   -9.4443   39.3837   -0.9403 P   0  0  1  0  0  0  0  0  0  0  0  0
  -11.7476   38.1312   -1.9807 P   0  0  2  0  0  0  0  0  0  0  0  0
   -5.4205   37.9983   -6.5058 C   0  0  0  0  0  0  0  0  0  0  0  0
   -2.2050   42.7184   -8.6436 N   0  0  0  0  0  0  0  0  0  0  0  0
   -8.6856   38.1296   -0.2932 O   0  5  0  0  0  0  0  0  0  0  0  0
  -11.3387   38.3686   -3.3803 O   0  0  0  0  0  0  0  0  0  0  0  0
   -4.7063   39.1891   -6.5000 C   0  0  0  0  0  0  0  0  0  0  0  0
   -2.9457   42.5489   -9.7498 C   0  0  0  0  0  0  0  0  0  0  0  0
   -9.1788   40.6435    0.0375 O   0  0  0  0  0  0  0  0  0  0  0  0
  -13.3302   38.3168   -1.7893 O   0  5  0  0  0  0  0  0  0  0  0  0
   -5.2684   40.3267   -5.9189 N   0  0  0  0  0  0  0  0  0  0  0  0
   -4.1975   42.0755   -9.6660 N   0  0  0  0  0  0  0  0  0  0  0  0
  -11.0457   39.0983   -0.9171 O   0  0  0  0  0  0  0  0  0  0  0  0
  -11.4425   36.6276   -1.5448 O   0  0  0  0  0  0  0  0  0  0  0  0
   -6.5483   40.2594   -5.3554 C   0  0  1  0  0  0  0  0  0  0  0  0
   -4.7254   41.7650   -8.4755 C   0  0  0  0  0  0  0  0  0  0  0  0
   -5.9665   41.2948   -8.4053 N   0  0  0  0  0  0  0  0  0  0  0  0
   -7.2643   39.0634   -5.3612 C   0  0  2  0  0  0  0  0  0  0  0  0
   -3.9781   41.9292   -7.3156 C   0  0  0  0  0  0  0  0  0  0  0  0
   -6.6888   37.9394   -5.9412 C   0  0  0  0  0  0  0  0  0  0  0  0
   -2.6859   42.4245   -7.4472 C   0  0  0  0  0  0  0  0  0  0  0  0
   -4.5084   41.5988   -5.9143 C   0  0  0  0  0  0  0  0  0  0  0  0
  1 13  1  0  0  0  0
  3  4  1  0  0  0  0
  4  5  1  0  0  0  0
  6  5  1  6  0  0  0
  6 10  1  0  0  0  0
  6 14  2  0  0  0  0
  6 18  1  0  0  0  0
  7 11  1  6  0  0  0
  7 15  1  0  0  0  0
  7 19  2  0  0  0  0
  7 18  1  0  0  0  0
  8 25  1  0  0  0  0
  8 12  1  0  0  0  0
  9 26  2  0  0  0  0
  9 13  1  0  0  0  0
 12 16  1  0  0  0  0
 13 17  2  0  0  0  0
 16 20  1  0  0  0  0
 16 27  1  0  0  0  0
 17 21  1  0  0  0  0
 20  2  1  1  0  0  0
 20 23  1  0  0  0  0
 21 22  1  0  0  0  0
 21 24  2  0  0  0  0
 23  3  1  6  0  0  0
 23 25  1  0  0  0  0
 24 27  1  0  0  0  0
 24 26  1  0  0  0  0
M  CHG  2  10  -1  15  -1
M  END
>  <CHROM.1>
108.31505807,158.14349550,33.51858014,44.07882810,-46.61326485,-89.09048121
42.08895745,49.98417177,-7.49672525,39.89468209,-4.62967537,0.60768227,-0.60869331
-1.81650804

>  <Name>
ligand

>  <RI>
0

>  <Rbt.Current_Directory>
/home/itssahil/PROJECTS/Mol_Feturizer/New_Systems/rnas/3D2V

>  <Rbt.Executable>
rbdock ($Id: //depot/dev/client3/rdock/2013.1/src/exe/rbdock.cxx#4 $)

>  <Rbt.Library>
libRbt.so (2013.1, Build901 2013/11/27)

>  <Rbt.Parameter_File>
/export/apps/rDock/src/rDock_2013.1_src/data/scripts/dock_solv.prm

>  <Rbt.Receptor>
prm/pocket_docking_2.prm

>  <SCORE>
5.00656

>  <SCORE.INTER>
0.918908

>  <SCORE.INTER.CONST>
1

>  <SCORE.INTER.POLAR>
0

>  <SCORE.INTER.ROT>
8

>  <SCORE.INTER.SOLV>
39.9146

>  <SCORE.INTER.VDW>
-21.6256

>  <SCORE.INTER.norm>
0.0340336

>  <SCORE.INTRA>
3.67448

>  <SCORE.INTRA.DIHEDRAL>
6.13723

>  <SCORE.INTRA.DIHEDRAL.0>
7.82666

>  <SCORE.INTRA.POLAR>
0

>  <SCORE.INTRA.POLAR.0>
0

>  <SCORE.INTRA.REPUL>
0

>  <SCORE.INTRA.REPUL.0>
0

>  <SCORE.INTRA.SOLV>
1.5567

>  <SCORE.INTRA.SOLV.lig_0>
-83.2758

>  <SCORE.INTRA.VDW>
-0.172483

>  <SCORE.INTRA.VDW.0>
-3.26816

>  <SCORE.INTRA.norm>
0.136092

>  <SCORE.RESTR>
0.413172

>  <SCORE.RESTR.CAVITY>
0.413172

>  <SCORE.RESTR.norm>
0.0153027

>  <SCORE.SYSTEM>
0

>  <SCORE.SYSTEM.CONST>
0

>  <SCORE.SYSTEM.DIHEDRAL>
0

>  <SCORE.SYSTEM.SOLV>
0

>  <SCORE.SYSTEM.norm>
0

>  <SCORE.heavy>
27

>  <SCORE.norm>
0.185428

>  <RMSD>
9.107

$$$$
ligand
 OpenBabel11021811473D
libRbt.so/2013.1/901 2013/11/27
 27 28  0  0  0  0  0  0  0  0999 V2000
   -4.1198   48.0787   -8.1795 C   0  0  0  0  0  0  0  0  0  0  0  0
   -6.3342   42.7102   -9.3362 C   0  0  0  0  0  0  0  0  0  0  0  0
   -4.8527   40.1133   -9.5281 C   0  0  0  0  0  0  0  0  0  0  0  0
   -5.6435   38.8124   -9.6791 C   0  0  0  0  0  0  0  0  0  0  0  0
   -6.9210   38.9204   -9.0461 O   0  0  0  0  0  0  0  0  0  0  0  0
   -7.0345   38.8376   -7.4460 P   0  0  1  0  0  0  0  0  0  0  0  0
   -8.8788   39.4921   -5.4147 P   0  0  2  0  0  0  0  0  0  0  0  0
   -4.7250   41.3827  -13.1091 C   0  0  0  0  0  0  0  0  0  0  0  0
   -6.1061   46.9058   -9.1100 N   0  0  0  0  0  0  0  0  0  0  0  0
   -6.8018   37.3394   -6.9277 O   0  5  0  0  0  0  0  0  0  0  0  0
   -8.5595   38.3073   -4.5919 O   0  0  0  0  0  0  0  0  0  0  0  0
   -5.4077   42.5900  -13.0424 C   0  0  0  0  0  0  0  0  0  0  0  0
   -4.7753   47.0773   -9.1310 C   0  0  0  0  0  0  0  0  0  0  0  0
   -5.9502   39.7662   -6.6874 O   0  0  0  0  0  0  0  0  0  0  0  0
  -10.4434   39.8451   -5.3576 O   0  5  0  0  0  0  0  0  0  0  0  0
   -5.9256   43.0219  -11.8205 N   0  0  0  0  0  0  0  0  0  0  0  0
   -4.0109   46.3767   -9.9812 N   0  0  0  0  0  0  0  0  0  0  0  0
   -8.5047   39.3386   -6.9624 O   0  0  0  0  0  0  0  0  0  0  0  0
   -8.1325   40.7885   -4.8613 O   0  0  0  0  0  0  0  0  0  0  0  0
   -5.7594   42.2319  -10.6767 C   0  0  1  0  0  0  0  0  0  0  0  0
   -4.5666   45.4951  -10.8217 C   0  0  0  0  0  0  0  0  0  0  0  0
   -3.7986   44.8052  -11.6586 N   0  0  0  0  0  0  0  0  0  0  0  0
   -5.0734   41.0203  -10.7445 C   0  0  1  0  0  0  0  0  0  0  0  0
   -5.9421   45.2975  -10.8180 C   0  0  0  0  0  0  0  0  0  0  0  0
   -4.5616   40.6064  -11.9682 C   0  0  0  0  0  0  0  0  0  0  0  0
   -6.6974   46.0457   -9.9223 C   0  0  0  0  0  0  0  0  0  0  0  0
   -6.6567   44.3088  -11.7484 C   0  0  0  0  0  0  0  0  0  0  0  0
  1 13  1  0  0  0  0
  3  4  1  0  0  0  0
  4  5  1  0  0  0  0
  6  5  1  6  0  0  0
  6 10  1  0  0  0  0
  6 14  2  0  0  0  0
  6 18  1  0  0  0  0
  7 11  1  1  0  0  0
  7 15  1  0  0  0  0
  7 19  2  0  0  0  0
  7 18  1  0  0  0  0
  8 25  1  0  0  0  0
  8 12  1  0  0  0  0
  9 26  2  0  0  0  0
  9 13  1  0  0  0  0
 12 16  1  0  0  0  0
 13 17  2  0  0  0  0
 16 20  1  0  0  0  0
 16 27  1  0  0  0  0
 17 21  1  0  0  0  0
 20  2  1  1  0  0  0
 20 23  1  0  0  0  0
 21 22  1  0  0  0  0
 21 24  2  0  0  0  0
 23  3  1  1  0  0  0
 23 25  1  0  0  0  0
 24 27  1  0  0  0  0
 24 26  1  0  0  0  0
M  CHG  2  10  -1  15  -1
M  END
>  <CHROM.1>
-93.53555913,-76.06491319,-72.91279908,-174.58585747,-50.31160189,112.33626075
43.69634791,-117.92638542,-6.39703139,41.80809599,-8.79283826,0.66387771
1.08467182,0.23380544

>  <Name>
ligand

>  <RI>
0

>  <Rbt.Current_Directory>
/home/itssahil/PROJECTS/Mol_Feturizer/New_Systems/rnas/3D2V

>  <Rbt.Executable>
rbdock ($Id: //depot/dev/client3/rdock/2013.1/src/exe/rbdock.cxx#4 $)

>  <Rbt.Library>
libRbt.so (2013.1, Build901 2013/11/27)

>  <Rbt.Parameter_File>
/export/apps/rDock/src/rDock_2013.1_src/data/scripts/dock_solv.prm

>  <Rbt.Receptor>
prm/pocket_docking_5.prm

>  <SCORE>
-12.2393

>  <SCORE.INTER>
-14.978

>  <SCORE.INTER.CONST>
1

>  <SCORE.INTER.POLAR>
0

>  <SCORE.INTER.ROT>
8

>  <SCORE.INTER.SOLV>
20.1517

>  <SCORE.INTER.VDW>
-25.6359

>  <SCORE.INTER.norm>
-0.554742

>  <SCORE.INTRA>
2.73873

>  <SCORE.INTRA.DIHEDRAL>
2.2957

>  <SCORE.INTRA.DIHEDRAL.0>
7.82666

>  <SCORE.INTRA.POLAR>
0

>  <SCORE.INTRA.POLAR.0>
0

>  <SCORE.INTRA.REPUL>
0

>  <SCORE.INTRA.REPUL.0>
0

>  <SCORE.INTRA.SOLV>
3.80611

>  <SCORE.INTRA.SOLV.lig_0>
-83.2758

>  <SCORE.INTRA.VDW>
-0.312169

>  <SCORE.INTRA.VDW.0>
-3.26816

>  <SCORE.INTRA.norm>
0.101435

>  <SCORE.RESTR>
0

>  <SCORE.RESTR.CAVITY>
0

>  <SCORE.RESTR.norm>
0

>  <SCORE.SYSTEM>
0

>  <SCORE.SYSTEM.CONST>
0

>  <SCORE.SYSTEM.DIHEDRAL>
0

>  <SCORE.SYSTEM.SOLV>
0

>  <SCORE.SYSTEM.norm>
0

>  <SCORE.heavy>
27

>  <SCORE.norm>
-0.453308

>  <RMSD>
9.124

$$$$
ligand
 OpenBabel11021811473D
libRbt.so/2013.1/901 2013/11/27
 27 28  0  0  0  0  0  0  0  0999 V2000
   -1.2626   47.3319   -5.6019 C   0  0  0  0  0  0  0  0  0  0  0  0
   -3.3383   43.3686  -10.0792 C   0  0  0  0  0  0  0  0  0  0  0  0
   -5.0910   40.9960   -9.5553 C   0  0  0  0  0  0  0  0  0  0  0  0
   -5.0887   40.4800   -8.1151 C   0  0  0  0  0  0  0  0  0  0  0  0
   -4.9848   39.0542   -8.0886 O   0  0  0  0  0  0  0  0  0  0  0  0
   -6.1548   38.1513   -8.7178 P   0  0  1  0  0  0  0  0  0  0  0  0
   -6.9281   36.2204   -6.8126 P   0  0  2  0  0  0  0  0  0  0  0  0
   -7.5742   43.8725   -9.4548 C   0  0  0  0  0  0  0  0  0  0  0  0
   -1.5955   46.7459   -7.9962 N   0  0  0  0  0  0  0  0  0  0  0  0
   -7.5970   38.7749   -8.4041 O   0  5  0  0  0  0  0  0  0  0  0  0
   -8.3878   36.4039   -6.9472 O   0  0  0  0  0  0  0  0  0  0  0  0
   -6.7803   44.9858   -9.6967 C   0  0  0  0  0  0  0  0  0  0  0  0
   -2.1498   46.9829   -6.7973 C   0  0  0  0  0  0  0  0  0  0  0  0
   -6.0482   38.0102  -10.3248 O   0  0  0  0  0  0  0  0  0  0  0  0
   -6.3373   37.0729   -5.5878 O   0  5  0  0  0  0  0  0  0  0  0  0
   -5.4096   44.8227   -9.9026 N   0  0  0  0  0  0  0  0  0  0  0  0
   -3.4793   46.9166   -6.6358 N   0  0  0  0  0  0  0  0  0  0  0  0
   -6.0894   36.6450   -8.1069 O   0  0  0  0  0  0  0  0  0  0  0  0
   -6.5726   34.7014   -6.4807 O   0  0  0  0  0  0  0  0  0  0  0  0
   -4.8470   43.5415   -9.8555 C   0  0  1  0  0  0  0  0  0  0  0  0
   -4.2724   46.6128   -7.6707 C   0  0  0  0  0  0  0  0  0  0  0  0
   -5.5889   46.5519   -7.4988 N   0  0  0  0  0  0  0  0  0  0  0  0
   -5.6449   42.4246   -9.6131 C   0  0  1  0  0  0  0  0  0  0  0  0
   -3.7232   46.3654   -8.9228 C   0  0  0  0  0  0  0  0  0  0  0  0
   -7.0082   42.6042   -9.4132 C   0  0  0  0  0  0  0  0  0  0  0  0
   -2.3407   46.4426   -9.0460 C   0  0  0  0  0  0  0  0  0  0  0  0
   -4.5607   46.0101  -10.1582 C   0  0  0  0  0  0  0  0  0  0  0  0
  1 13  1  0  0  0  0
  3  4  1  0  0  0  0
  4  5  1  0  0  0  0
  6  5  1  1  0  0  0
  6 10  1  0  0  0  0
  6 14  2  0  0  0  0
  6 18  1  0  0  0  0
  7 11  1  6  0  0  0
  7 15  1  0  0  0  0
  7 19  2  0  0  0  0
  7 18  1  0  0  0  0
  8 25  1  0  0  0  0
  8 12  1  0  0  0  0
  9 26  2  0  0  0  0
  9 13  1  0  0  0  0
 12 16  1  0  0  0  0
 13 17  2  0  0  0  0
 16 20  1  0  0  0  0
 16 27  1  0  0  0  0
 17 21  1  0  0  0  0
 20  2  1  6  0  0  0
 20 23  1  0  0  0  0
 21 22  1  0  0  0  0
 21 24  2  0  0  0  0
 23  3  1  6  0  0  0
 23 25  1  0  0  0  0
 24 27  1  0  0  0  0
 24 26  1  0  0  0  0
M  CHG  2  10  -1  15  -1
M  END
>  <CHROM.1>
161.77460580,-63.82047986,-38.72941559,92.32253479,58.32193463,107.94993987
-55.84200695,105.19700353,-5.30233279,41.60722299,-8.25256096,-1.03941712
0.88823049,2.64646004

>  <Name>
ligand

>  <RI>
0

>  <Rbt.Current_Directory>
/home/itssahil/PROJECTS/Mol_Feturizer/New_Systems/rnas/3D2V

>  <Rbt.Executable>
rbdock ($Id: //depot/dev/client3/rdock/2013.1/src/exe/rbdock.cxx#4 $)

>  <Rbt.Library>
libRbt.so (2013.1, Build901 2013/11/27)

>  <Rbt.Parameter_File>
/export/apps/rDock/src/rDock_2013.1_src/data/scripts/dock_solv.prm

>  <Rbt.Receptor>
prm/pocket_docking_7.prm

>  <SCORE>
-7.49983

>  <SCORE.INTER>
-8.63472

>  <SCORE.INTER.CONST>
1

>  <SCORE.INTER.POLAR>
0

>  <SCORE.INTER.ROT>
8

>  <SCORE.INTER.SOLV>
18.7927

>  <SCORE.INTER.VDW>
-20.954

>  <SCORE.INTER.norm>
-0.319804

>  <SCORE.INTRA>
1.13489

>  <SCORE.INTRA.DIHEDRAL>
0.601937

>  <SCORE.INTRA.DIHEDRAL.0>
7.82666

>  <SCORE.INTRA.POLAR>
0

>  <SCORE.INTRA.POLAR.0>
0

>  <SCORE.INTRA.REPUL>
0

>  <SCORE.INTRA.REPUL.0>
0

>  <SCORE.INTRA.SOLV>
1.93772

>  <SCORE.INTRA.SOLV.lig_0>
-83.2758

>  <SCORE.INTRA.VDW>
-0.134936

>  <SCORE.INTRA.VDW.0>
-3.26816

>  <SCORE.INTRA.norm>
0.0420331

>  <SCORE.RESTR>
0

>  <SCORE.RESTR.CAVITY>
0

>  <SCORE.RESTR.norm>
0

>  <SCORE.SYSTEM>
0

>  <SCORE.SYSTEM.CONST>
0

>  <SCORE.SYSTEM.DIHEDRAL>
0

>  <SCORE.SYSTEM.SOLV>
0

>  <SCORE.SYSTEM.norm>
0

>  <SCORE.heavy>
27

>  <SCORE.norm>
-0.277771

>  <RMSD>
9.179

$$$$
ligand
 OpenBabel11021811463D
libRbt.so/2013.1/901 2013/11/27
 27 28  0  0  0  0  0  0  0  0999 V2000
  -10.9338   33.8604  -14.5940 C   0  0  0  0  0  0  0  0  0  0  0  0
   -5.6517   33.9878   -9.9887 C   0  0  0  0  0  0  0  0  0  0  0  0
   -6.1953   33.2162   -7.1454 C   0  0  0  0  0  0  0  0  0  0  0  0
   -5.1944   33.6854   -6.0878 C   0  0  0  0  0  0  0  0  0  0  0  0
   -5.7721   34.6958   -5.2573 O   0  0  0  0  0  0  0  0  0  0  0  0
   -4.8334   35.5914   -4.3104 P   0  0  1  0  0  0  0  0  0  0  0  0
   -6.2451   37.8932   -5.1261 P   0  0  2  0  0  0  0  0  0  0  0  0
   -8.4255   36.2616   -7.5966 C   0  0  0  0  0  0  0  0  0  0  0  0
  -10.2806   35.2857  -12.6629 N   0  0  0  0  0  0  0  0  0  0  0  0
   -4.5196   34.8391   -2.9310 O   0  5  0  0  0  0  0  0  0  0  0  0
   -6.0131   39.3461   -4.9926 O   0  0  0  0  0  0  0  0  0  0  0  0
   -8.1886   36.6363   -8.9125 C   0  0  0  0  0  0  0  0  0  0  0  0
   -9.8898   34.4975  -13.6763 C   0  0  0  0  0  0  0  0  0  0  0  0
   -3.4065   35.9410   -4.9851 O   0  0  0  0  0  0  0  0  0  0  0  0
   -7.8107   37.5411   -5.0963 O   0  5  0  0  0  0  0  0  0  0  0  0
   -7.2936   35.8982   -9.6884 N   0  0  0  0  0  0  0  0  0  0  0  0
   -8.5879   34.2616  -13.8934 N   0  0  0  0  0  0  0  0  0  0  0  0
   -5.5598   37.0096   -3.9821 O   0  0  0  0  0  0  0  0  0  0  0  0
   -5.7182   37.3586   -6.5334 O   0  0  0  0  0  0  0  0  0  0  0  0
   -6.6377   34.7937   -9.1318 C   0  0  1  0  0  0  0  0  0  0  0  0
   -7.6591   34.8107  -13.1008 C   0  0  0  0  0  0  0  0  0  0  0  0
   -6.3716   34.5711  -13.3271 N   0  0  0  0  0  0  0  0  0  0  0  0
   -6.8765   34.4180   -7.8108 C   0  0  2  0  0  0  0  0  0  0  0  0
   -8.0379   35.6325  -12.0462 C   0  0  0  0  0  0  0  0  0  0  0  0
   -7.7727   35.1619   -7.0530 C   0  0  0  0  0  0  0  0  0  0  0  0
   -9.3977   35.8490  -11.8552 C   0  0  0  0  0  0  0  0  0  0  0  0
   -7.0379   36.2985  -11.0921 C   0  0  0  0  0  0  0  0  0  0  0  0
  1 13  1  0  0  0  0
  3  4  1  0  0  0  0
  4  5  1  0  0  0  0
  6  5  1  6  0  0  0
  6 10  1  0  0  0  0
  6 14  2  0  0  0  0
  6 18  1  0  0  0  0
  7 11  1  1  0  0  0
  7 15  1  0  0  0  0
  7 19  2  0  0  0  0
  7 18  1  0  0  0  0
  8 25  1  0  0  0  0
  8 12  1  0  0  0  0
  9 26  2  0  0  0  0
  9 13  1  0  0  0  0
 12 16  1  0  0  0  0
 13 17  2  0  0  0  0
 16 20  1  0  0  0  0
 16 27  1  0  0  0  0
 17 21  1  0  0  0  0
 20  2  1  6  0  0  0
 20 23  1  0  0  0  0
 21 22  1  0  0  0  0
 21 24  2  0  0  0  0
 23  3  1  1  0  0  0
 23 25  1  0  0  0  0
 24 27  1  0  0  0  0
 24 26  1  0  0  0  0
M  CHG  2  10  -1  15  -1
M  END
>  <CHROM.1>
46.29457516,-165.45060324,-83.52315922,-46.78364894,-139.45793938,110.05653780
-121.61125517,-88.56316061,-6.83263438,35.67044973,-8.12502551,2.20092984
0.87468449,-2.26911154

>  <Name>
ligand

>  <RI>
0

>  <Rbt.Current_Directory>
/home/itssahil/PROJECTS/Mol_Feturizer/New_Systems/rnas/3D2V

>  <Rbt.Executable>
rbdock ($Id: //depot/dev/client3/rdock/2013.1/src/exe/rbdock.cxx#4 $)

>  <Rbt.Library>
libRbt.so (2013.1, Build901 2013/11/27)

>  <Rbt.Parameter_File>
/export/apps/rDock/src/rDock_2013.1_src/data/scripts/dock_solv.prm

>  <Rbt.Receptor>
prm/blind_docking_40.prm

>  <SCORE>
-2.82175

>  <SCORE.INTER>
-6.16455

>  <SCORE.INTER.CONST>
1

>  <SCORE.INTER.POLAR>
0

>  <SCORE.INTER.ROT>
8

>  <SCORE.INTER.SOLV>
32.2257

>  <SCORE.INTER.VDW>
-23.7849

>  <SCORE.INTER.norm>
-0.228316

>  <SCORE.INTRA>
1.11138

>  <SCORE.INTRA.DIHEDRAL>
1.96089

>  <SCORE.INTRA.DIHEDRAL.0>
7.82666

>  <SCORE.INTRA.POLAR>
0

>  <SCORE.INTRA.POLAR.0>
0

>  <SCORE.INTRA.REPUL>
0

>  <SCORE.INTRA.REPUL.0>
0

>  <SCORE.INTRA.SOLV>
3.76469

>  <SCORE.INTRA.SOLV.lig_0>
-83.2758

>  <SCORE.INTRA.VDW>
-1.75141

>  <SCORE.INTRA.VDW.0>
-3.26816

>  <SCORE.INTRA.norm>
0.0411622

>  <SCORE.RESTR>
2.23142

>  <SCORE.RESTR.CAVITY>
2.23142

>  <SCORE.RESTR.norm>
0.0826451

>  <SCORE.SYSTEM>
0

>  <SCORE.SYSTEM.CONST>
0

>  <SCORE.SYSTEM.DIHEDRAL>
0

>  <SCORE.SYSTEM.SOLV>
0

>  <SCORE.SYSTEM.norm>
0

>  <SCORE.heavy>
27

>  <SCORE.norm>
-0.104509

>  <RMSD>
9.207

$$$$
ligand
 OpenBabel11021811473D
libRbt.so/2013.1/901 2013/11/27
 27 28  0  0  0  0  0  0  0  0999 V2000
    0.1822   46.0278   -6.7015 C   0  0  0  0  0  0  0  0  0  0  0  0
   -4.6189   42.4775   -9.6895 C   0  0  0  0  0  0  0  0  0  0  0  0
   -7.3390   42.2411   -8.4565 C   0  0  0  0  0  0  0  0  0  0  0  0
   -6.9531   42.1305   -6.9801 C   0  0  0  0  0  0  0  0  0  0  0  0
   -7.1830   40.8054   -6.4949 O   0  0  0  0  0  0  0  0  0  0  0  0
   -6.8692   40.4455   -4.9613 P   0  0  1  0  0  0  0  0  0  0  0  0
   -5.8936   37.8409   -5.4312 P   0  0  2  0  0  0  0  0  0  0  0  0
   -7.2512   45.8879   -9.5260 C   0  0  0  0  0  0  0  0  0  0  0  0
   -1.8129   46.6677   -8.0422 N   0  0  0  0  0  0  0  0  0  0  0  0
   -5.4157   40.9656   -4.5322 O   0  5  0  0  0  0  0  0  0  0  0  0
   -4.4792   38.1313   -5.1188 O   0  0  0  0  0  0  0  0  0  0  0  0
   -5.9948   46.0194  -10.1025 C   0  0  0  0  0  0  0  0  0  0  0  0
   -0.8644   45.7546   -7.7822 C   0  0  0  0  0  0  0  0  0  0  0  0
   -7.9235   41.1065   -3.9293 O   0  0  0  0  0  0  0  0  0  0  0  0
   -6.1754   37.9120   -7.0095 O   0  5  0  0  0  0  0  0  0  0  0  0
   -5.1438   44.9147  -10.1590 N   0  0  0  0  0  0  0  0  0  0  0  0
   -0.8245   44.6002   -8.4632 N   0  0  0  0  0  0  0  0  0  0  0  0
   -6.9379   38.8354   -4.7388 O   0  0  0  0  0  0  0  0  0  0  0  0
   -6.2793   36.3547   -4.9994 O   0  0  0  0  0  0  0  0  0  0  0  0
   -5.5604   43.6882   -9.6277 C   0  0  1  0  0  0  0  0  0  0  0  0
   -1.7324   44.3429   -9.4128 C   0  0  0  0  0  0  0  0  0  0  0  0
   -1.6839   43.1943  -10.0798 N   0  0  0  0  0  0  0  0  0  0  0  0
   -6.8220   43.5571   -9.0496 C   0  0  1  0  0  0  0  0  0  0  0  0
   -2.7261   45.2711   -9.6993 C   0  0  0  0  0  0  0  0  0  0  0  0
   -7.6580   44.6660   -9.0041 C   0  0  0  0  0  0  0  0  0  0  0  0
   -2.7297   46.4554   -8.9715 C   0  0  0  0  0  0  0  0  0  0  0  0
   -3.8018   45.0543  -10.7716 C   0  0  0  0  0  0  0  0  0  0  0  0
  1 13  1  0  0  0  0
  3  4  1  0  0  0  0
  4  5  1  0  0  0  0
  6  5  1  6  0  0  0
  6 10  1  0  0  0  0
  6 14  2  0  0  0  0
  6 18  1  0  0  0  0
  7 11  1  1  0  0  0
  7 15  1  0  0  0  0
  7 19  2  0  0  0  0
  7 18  1  0  0  0  0
  8 25  1  0  0  0  0
  8 12  1  0  0  0  0
  9 26  2  0  0  0  0
  9 13  1  0  0  0  0
 12 16  1  0  0  0  0
 13 17  2  0  0  0  0
 16 20  1  0  0  0  0
 16 27  1  0  0  0  0
 17 21  1  0  0  0  0
 20  2  1  6  0  0  0
 20 23  1  0  0  0  0
 21 22  1  0  0  0  0
 21 24  2  0  0  0  0
 23  3  1  6  0  0  0
 23 25  1  0  0  0  0
 24 27  1  0  0  0  0
 24 26  1  0  0  0  0
M  CHG  2  10  -1  15  -1
M  END
>  <CHROM.1>
-168.03781893,-179.26734657,-48.42036210,65.68562423,56.81876736,89.07543643
112.77283108,97.77072602,-5.00999521,42.27293527,-7.40769516,-1.12781730
0.16549907,2.52984290

>  <Name>
ligand

>  <RI>
0

>  <Rbt.Current_Directory>
/home/itssahil/PROJECTS/Mol_Feturizer/New_Systems/rnas/3D2V

>  <Rbt.Executable>
rbdock ($Id: //depot/dev/client3/rdock/2013.1/src/exe/rbdock.cxx#4 $)

>  <Rbt.Library>
libRbt.so (2013.1, Build901 2013/11/27)

>  <Rbt.Parameter_File>
/export/apps/rDock/src/rDock_2013.1_src/data/scripts/dock_solv.prm

>  <Rbt.Receptor>
prm/pocket_docking_4.prm

>  <SCORE>
-9.95961

>  <SCORE.INTER>
-8.88045

>  <SCORE.INTER.CONST>
1

>  <SCORE.INTER.POLAR>
0

>  <SCORE.INTER.ROT>
8

>  <SCORE.INTER.SOLV>
13.9854

>  <SCORE.INTER.VDW>
-19.5154

>  <SCORE.INTER.norm>
-0.328905

>  <SCORE.INTRA>
-1.09798

>  <SCORE.INTRA.DIHEDRAL>
-1.84847

>  <SCORE.INTRA.DIHEDRAL.0>
7.82666

>  <SCORE.INTRA.POLAR>
0

>  <SCORE.INTRA.POLAR.0>
0

>  <SCORE.INTRA.REPUL>
0

>  <SCORE.INTRA.REPUL.0>
0

>  <SCORE.INTRA.SOLV>
0.245675

>  <SCORE.INTRA.SOLV.lig_0>
-83.2758

>  <SCORE.INTRA.VDW>
-0.296587

>  <SCORE.INTRA.VDW.0>
-3.26816

>  <SCORE.INTRA.norm>
-0.0406661

>  <SCORE.RESTR>
0.0188192

>  <SCORE.RESTR.CAVITY>
0.0188192

>  <SCORE.RESTR.norm>
0.000697009

>  <SCORE.SYSTEM>
0

>  <SCORE.SYSTEM.CONST>
0

>  <SCORE.SYSTEM.DIHEDRAL>
0

>  <SCORE.SYSTEM.SOLV>
0

>  <SCORE.SYSTEM.norm>
0

>  <SCORE.heavy>
27

>  <SCORE.norm>
-0.368874

>  <RMSD>
9.297

$$$$
ligand
 OpenBabel11021811473D
libRbt.so/2013.1/901 2013/11/27
 27 28  0  0  0  0  0  0  0  0999 V2000
   -0.4779   42.7700  -11.4198 C   0  0  0  0  0  0  0  0  0  0  0  0
   -5.9507   42.5093   -8.9027 C   0  0  0  0  0  0  0  0  0  0  0  0
   -6.6738   43.8199   -6.3075 C   0  0  0  0  0  0  0  0  0  0  0  0
   -5.7713   44.5533   -5.3135 C   0  0  0  0  0  0  0  0  0  0  0  0
   -6.4337   45.7035   -4.7819 O   0  0  0  0  0  0  0  0  0  0  0  0
   -7.7090   45.5243   -3.8219 P   0  0  1  0  0  0  0  0  0  0  0  0
   -6.6246   43.9586   -1.7412 P   0  0  2  0  0  0  0  0  0  0  0  0
   -7.1851   46.6389   -8.8060 C   0  0  0  0  0  0  0  0  0  0  0  0
   -2.3843   44.3107  -10.9963 N   0  0  0  0  0  0  0  0  0  0  0  0
   -7.8178   46.7325   -2.7753 O   0  5  0  0  0  0  0  0  0  0  0  0
   -7.0636   44.6861   -0.5327 O   0  0  0  0  0  0  0  0  0  0  0  0
   -6.8549   46.0509  -10.0199 C   0  0  0  0  0  0  0  0  0  0  0  0
   -1.9704   43.1020  -11.4071 C   0  0  0  0  0  0  0  0  0  0  0  0
   -9.1076   45.4824   -4.6316 O   0  0  0  0  0  0  0  0  0  0  0  0
   -5.1715   44.4398   -2.2237 O   0  5  0  0  0  0  0  0  0  0  0  0
   -6.4589   44.7131  -10.0521 N   0  0  0  0  0  0  0  0  0  0  0  0
   -2.8557   42.1783  -11.8082 N   0  0  0  0  0  0  0  0  0  0  0  0
   -7.5983   44.1250   -2.9995 O   0  0  0  0  0  0  0  0  0  0  0  0
   -6.4765   42.3984   -1.4451 O   0  0  0  0  0  0  0  0  0  0  0  0
   -6.3904   43.9794   -8.8616 C   0  0  1  0  0  0  0  0  0  0  0  0
   -4.1666   42.4503  -11.8038 C   0  0  0  0  0  0  0  0  0  0  0  0
   -5.0347   41.5260  -12.2018 N   0  0  0  0  0  0  0  0  0  0  0  0
   -6.7225   44.5704   -7.6437 C   0  0  2  0  0  0  0  0  0  0  0  0
   -4.6207   43.6936  -11.3808 C   0  0  0  0  0  0  0  0  0  0  0  0
   -7.1176   45.9025   -7.6296 C   0  0  0  0  0  0  0  0  0  0  0  0
   -3.6694   44.6225  -10.9753 C   0  0  0  0  0  0  0  0  0  0  0  0
   -6.1038   44.0851  -11.3464 C   0  0  0  0  0  0  0  0  0  0  0  0
  1 13  1  0  0  0  0
  3  4  1  0  0  0  0
  4  5  1  0  0  0  0
  6  5  1  6  0  0  0
  6 10  1  0  0  0  0
  6 14  2  0  0  0  0
  6 18  1  0  0  0  0
  7 11  1  1  0  0  0
  7 15  1  0  0  0  0
  7 19  2  0  0  0  0
  7 18  1  0  0  0  0
  8 25  1  0  0  0  0
  8 12  1  0  0  0  0
  9 26  2  0  0  0  0
  9 13  1  0  0  0  0
 12 16  1  0  0  0  0
 13 17  2  0  0  0  0
 16 20  1  0  0  0  0
 16 27  1  0  0  0  0
 17 21  1  0  0  0  0
 20  2  1  6  0  0  0
 20 23  1  0  0  0  0
 21 22  1  0  0  0  0
 21 24  2  0  0  0  0
 23  3  1  1  0  0  0
 23 25  1  0  0  0  0
 24 27  1  0  0  0  0
 24 26  1  0  0  0  0
M  CHG  2  10  -1  15  -1
M  END
>  <CHROM.1>
76.23740010,67.44862820,150.17571462,76.69606656,71.33480174,124.03361238
132.42608775,114.91666858,-5.88652123,44.28006201,-6.83695869,-1.13659693
-0.60335930,1.67508853

>  <Name>
ligand

>  <RI>
0

>  <Rbt.Current_Directory>
/home/itssahil/PROJECTS/Mol_Feturizer/New_Systems/rnas/3D2V

>  <Rbt.Executable>
rbdock ($Id: //depot/dev/client3/rdock/2013.1/src/exe/rbdock.cxx#4 $)

>  <Rbt.Library>
libRbt.so (2013.1, Build901 2013/11/27)

>  <Rbt.Parameter_File>
/export/apps/rDock/src/rDock_2013.1_src/data/scripts/dock_solv.prm

>  <Rbt.Receptor>
prm/pocket_docking_8.prm

>  <SCORE>
-10.9992

>  <SCORE.INTER>
-12.0614

>  <SCORE.INTER.CONST>
1

>  <SCORE.INTER.POLAR>
0

>  <SCORE.INTER.ROT>
8

>  <SCORE.INTER.SOLV>
13.5696

>  <SCORE.INTER.VDW>
-21.4974

>  <SCORE.INTER.norm>
-0.446718

>  <SCORE.INTRA>
1.06219

>  <SCORE.INTRA.DIHEDRAL>
0.406826

>  <SCORE.INTRA.DIHEDRAL.0>
7.82666

>  <SCORE.INTRA.POLAR>
0

>  <SCORE.INTRA.POLAR.0>
0

>  <SCORE.INTRA.REPUL>
0

>  <SCORE.INTRA.REPUL.0>
0

>  <SCORE.INTRA.SOLV>
2.01999

>  <SCORE.INTRA.SOLV.lig_0>
-83.2758

>  <SCORE.INTRA.VDW>
-0.151221

>  <SCORE.INTRA.VDW.0>
-3.26816

>  <SCORE.INTRA.norm>
0.0393404

>  <SCORE.RESTR>
0

>  <SCORE.RESTR.CAVITY>
0

>  <SCORE.RESTR.norm>
0

>  <SCORE.SYSTEM>
0

>  <SCORE.SYSTEM.CONST>
0

>  <SCORE.SYSTEM.DIHEDRAL>
0

>  <SCORE.SYSTEM.SOLV>
0

>  <SCORE.SYSTEM.norm>
0

>  <SCORE.heavy>
27

>  <SCORE.norm>
-0.407377

>  <RMSD>
9.337

$$$$
ligand
 OpenBabel11021811473D
libRbt.so/2013.1/901 2013/11/27
 27 28  0  0  0  0  0  0  0  0999 V2000
    0.3122   50.1486   -4.1294 C   0  0  0  0  0  0  0  0  0  0  0  0
   -1.1588   44.3419   -8.1473 C   0  0  0  0  0  0  0  0  0  0  0  0
   -2.7101   42.1095   -6.8883 C   0  0  0  0  0  0  0  0  0  0  0  0
   -3.7472   41.1219   -7.4266 C   0  0  0  0  0  0  0  0  0  0  0  0
   -3.8084   41.1803   -8.8539 O   0  0  0  0  0  0  0  0  0  0  0  0
   -5.1614   40.7730   -9.6176 P   0  0  1  0  0  0  0  0  0  0  0  0
   -4.0003   40.6790  -12.1865 P   0  0  2  0  0  0  0  0  0  0  0  0
   -5.0476   45.0730   -6.4359 C   0  0  0  0  0  0  0  0  0  0  0  0
    0.0737   48.1234   -5.5539 N   0  0  0  0  0  0  0  0  0  0  0  0
   -6.0804   39.8329   -8.7018 O   0  5  0  0  0  0  0  0  0  0  0  0
   -2.6191   41.0684  -11.8358 O   0  0  0  0  0  0  0  0  0  0  0  0
   -4.3459   46.1220   -7.0150 C   0  0  0  0  0  0  0  0  0  0  0  0
   -0.4014   49.3291   -5.2052 C   0  0  0  0  0  0  0  0  0  0  0  0
   -6.0641   42.0501  -10.0269 O   0  0  0  0  0  0  0  0  0  0  0  0
   -4.8706   41.9458  -12.6489 O   0  5  0  0  0  0  0  0  0  0  0  0
   -3.0886   45.8850   -7.5725 N   0  0  0  0  0  0  0  0  0  0  0  0
   -1.5000   49.8249   -5.7926 N   0  0  0  0  0  0  0  0  0  0  0  0
   -4.8103   39.9828  -10.9956 O   0  0  0  0  0  0  0  0  0  0  0  0
   -4.0128   39.6808  -13.4305 O   0  0  0  0  0  0  0  0  0  0  0  0
   -2.5436   44.5960   -7.5358 C   0  0  1  0  0  0  0  0  0  0  0  0
   -2.1382   49.1223   -6.7368 C   0  0  0  0  0  0  0  0  0  0  0  0
   -3.2251   49.6250   -7.3133 N   0  0  0  0  0  0  0  0  0  0  0  0
   -3.2489   43.5435   -6.9546 C   0  0  1  0  0  0  0  0  0  0  0  0
   -1.6651   47.8725   -7.1173 C   0  0  0  0  0  0  0  0  0  0  0  0
   -4.5007   43.7959   -6.4068 C   0  0  0  0  0  0  0  0  0  0  0  0
   -0.5246   47.3951   -6.4817 C   0  0  0  0  0  0  0  0  0  0  0  0
   -2.3376   47.0041   -8.1885 C   0  0  0  0  0  0  0  0  0  0  0  0
  1 13  1  0  0  0  0
  3  4  1  0  0  0  0
  4  5  1  0  0  0  0
  6  5  1  1  0  0  0
  6 10  1  0  0  0  0
  6 14  2  0  0  0  0
  6 18  1  0  0  0  0
  7 11  1  1  0  0  0
  7 15  1  0  0  0  0
  7 19  2  0  0  0  0
  7 18  1  0  0  0  0
  8 25  1  0  0  0  0
  8 12  1  0  0  0  0
  9 26  2  0  0  0  0
  9 13  1  0  0  0  0
 12 16  1  0  0  0  0
 13 17  2  0  0  0  0
 16 20  1  0  0  0  0
 16 27  1  0  0  0  0
 17 21  1  0  0  0  0
 20  2  1  6  0  0  0
 20 23  1  0  0  0  0
 21 22  1  0  0  0  0
 21 24  2  0  0  0  0
 23  3  1  6  0  0  0
 23 25  1  0  0  0  0
 24 27  1  0  0  0  0
 24 26  1  0  0  0  0
M  CHG  2  10  -1  15  -1
M  END
>  <CHROM.1>
75.42922612,-153.53936272,-21.74256973,-62.76523151,63.54299974,-128.87271866
-104.48758855,78.78284840,-3.26112960,44.02153787,-8.49837391,-0.92552847
-1.00106094,-2.01727440

>  <Name>
ligand

>  <RI>
0

>  <Rbt.Current_Directory>
/home/itssahil/PROJECTS/Mol_Feturizer/New_Systems/rnas/3D2V

>  <Rbt.Executable>
rbdock ($Id: //depot/dev/client3/rdock/2013.1/src/exe/rbdock.cxx#4 $)

>  <Rbt.Library>
libRbt.so (2013.1, Build901 2013/11/27)

>  <Rbt.Parameter_File>
/export/apps/rDock/src/rDock_2013.1_src/data/scripts/dock_solv.prm

>  <Rbt.Receptor>
prm/pocket_docking_8.prm

>  <SCORE>
-5.71094

>  <SCORE.INTER>
-6.19949

>  <SCORE.INTER.CONST>
1

>  <SCORE.INTER.POLAR>
0

>  <SCORE.INTER.ROT>
8

>  <SCORE.INTER.SOLV>
17.5937

>  <SCORE.INTER.VDW>
-18.9309

>  <SCORE.INTER.norm>
-0.229611

>  <SCORE.INTRA>
0.488548

>  <SCORE.INTRA.DIHEDRAL>
2.84253

>  <SCORE.INTRA.DIHEDRAL.0>
7.82666

>  <SCORE.INTRA.POLAR>
0

>  <SCORE.INTRA.POLAR.0>
0

>  <SCORE.INTRA.REPUL>
0

>  <SCORE.INTRA.REPUL.0>
0

>  <SCORE.INTRA.SOLV>
-1.35821

>  <SCORE.INTRA.SOLV.lig_0>
-83.2758

>  <SCORE.INTRA.VDW>
-0.253613

>  <SCORE.INTRA.VDW.0>
-3.26816

>  <SCORE.INTRA.norm>
0.0180944

>  <SCORE.RESTR>
0

>  <SCORE.RESTR.CAVITY>
0

>  <SCORE.RESTR.norm>
0

>  <SCORE.SYSTEM>
0

>  <SCORE.SYSTEM.CONST>
0

>  <SCORE.SYSTEM.DIHEDRAL>
0

>  <SCORE.SYSTEM.SOLV>
0

>  <SCORE.SYSTEM.norm>
0

>  <SCORE.heavy>
27

>  <SCORE.norm>
-0.211516

>  <RMSD>
9.367

$$$$
ligand
 OpenBabel11021811473D
libRbt.so/2013.1/901 2013/11/27
 27 28  0  0  0  0  0  0  0  0999 V2000
   -1.0245   43.0226  -11.2880 C   0  0  0  0  0  0  0  0  0  0  0  0
   -6.5620   44.1613   -8.4335 C   0  0  0  0  0  0  0  0  0  0  0  0
   -6.9281   44.4992   -5.4793 C   0  0  0  0  0  0  0  0  0  0  0  0
   -5.8746   43.4053   -5.2942 C   0  0  0  0  0  0  0  0  0  0  0  0
   -6.3175   42.4315   -4.3456 O   0  0  0  0  0  0  0  0  0  0  0  0
   -5.4153   41.1380   -4.0409 P   0  0  1  0  0  0  0  0  0  0  0  0
   -5.6792   40.8823   -1.2443 P   0  0  2  0  0  0  0  0  0  0  0  0
   -5.5610   47.8911   -6.5170 C   0  0  0  0  0  0  0  0  0  0  0  0
   -3.2813   43.9724  -11.7262 N   0  0  0  0  0  0  0  0  0  0  0  0
   -5.4201   40.1255   -5.2827 O   0  5  0  0  0  0  0  0  0  0  0  0
   -4.2630   40.7788   -0.8367 O   0  0  0  0  0  0  0  0  0  0  0  0
   -5.3841   47.7562   -7.8876 C   0  0  0  0  0  0  0  0  0  0  0  0
   -2.2061   43.9224  -10.9246 C   0  0  0  0  0  0  0  0  0  0  0  0
   -3.8687   41.5030   -3.7438 O   0  0  0  0  0  0  0  0  0  0  0  0
   -6.6369   40.0443   -0.2662 O   0  5  0  0  0  0  0  0  0  0  0  0
   -5.7116   46.5503   -8.5090 N   0  0  0  0  0  0  0  0  0  0  0  0
   -2.1569   44.6563   -9.8035 N   0  0  0  0  0  0  0  0  0  0  0  0
   -5.9771   40.3606   -2.7269 O   0  0  0  0  0  0  0  0  0  0  0  0
   -6.1915   42.3896   -1.1481 O   0  0  0  0  0  0  0  0  0  0  0  0
   -6.2069   45.4866   -7.7452 C   0  0  1  0  0  0  0  0  0  0  0  0
   -3.1816   45.4503   -9.4688 C   0  0  0  0  0  0  0  0  0  0  0  0
   -3.1205   46.1745   -8.3561 N   0  0  0  0  0  0  0  0  0  0  0  0
   -6.3846   45.6231   -6.3694 C   0  0  1  0  0  0  0  0  0  0  0  0
   -4.3053   45.5215  -10.2832 C   0  0  0  0  0  0  0  0  0  0  0  0
   -6.0564   46.8315   -5.7669 C   0  0  0  0  0  0  0  0  0  0  0  0
   -4.3161   44.7428  -11.4347 C   0  0  0  0  0  0  0  0  0  0  0  0
   -5.5209   46.4040   -9.9712 C   0  0  0  0  0  0  0  0  0  0  0  0
  1 13  1  0  0  0  0
  3  4  1  0  0  0  0
  4  5  1  0  0  0  0
  6  5  1  6  0  0  0
  6 10  1  0  0  0  0
  6 14  2  0  0  0  0
  6 18  1  0  0  0  0
  7 11  1  1  0  0  0
  7 15  1  0  0  0  0
  7 19  2  0  0  0  0
  7 18  1  0  0  0  0
  8 25  1  0  0  0  0
  8 12  1  0  0  0  0
  9 26  2  0  0  0  0
  9 13  1  0  0  0  0
 12 16  1  0  0  0  0
 13 17  2  0  0  0  0
 16 20  1  0  0  0  0
 16 27  1  0  0  0  0
 17 21  1  0  0  0  0
 20  2  1  6  0  0  0
 20 23  1  0  0  0  0
 21 22  1  0  0  0  0
 21 24  2  0  0  0  0
 23  3  1  6  0  0  0
 23 25  1  0  0  0  0
 24 27  1  0  0  0  0
 24 26  1  0  0  0  0
M  CHG  2  10  -1  15  -1
M  END
>  <CHROM.1>
173.41760949,176.67522968,-70.99063858,-78.12058513,-67.82175054,72.96930362
-31.04752902,106.03291363,-5.01458628,43.49030533,-6.09470942,-1.24508418
-0.91773547,2.33502535

>  <Name>
ligand

>  <RI>
0

>  <Rbt.Current_Directory>
/home/itssahil/PROJECTS/Mol_Feturizer/New_Systems/rnas/3D2V

>  <Rbt.Executable>
rbdock ($Id: //depot/dev/client3/rdock/2013.1/src/exe/rbdock.cxx#4 $)

>  <Rbt.Library>
libRbt.so (2013.1, Build901 2013/11/27)

>  <Rbt.Parameter_File>
/export/apps/rDock/src/rDock_2013.1_src/data/scripts/dock_solv.prm

>  <Rbt.Receptor>
prm/pocket_docking_6.prm

>  <SCORE>
-12.8867

>  <SCORE.INTER>
-13.2461

>  <SCORE.INTER.CONST>
1

>  <SCORE.INTER.POLAR>
0

>  <SCORE.INTER.ROT>
8

>  <SCORE.INTER.SOLV>
14.3231

>  <SCORE.INTER.VDW>
-22.5384

>  <SCORE.INTER.norm>
-0.490598

>  <SCORE.INTRA>
0.359466

>  <SCORE.INTRA.DIHEDRAL>
-1.6477

>  <SCORE.INTRA.DIHEDRAL.0>
7.82666

>  <SCORE.INTRA.POLAR>
0

>  <SCORE.INTRA.POLAR.0>
0

>  <SCORE.INTRA.REPUL>
0

>  <SCORE.INTRA.REPUL.0>
0

>  <SCORE.INTRA.SOLV>
2.50326

>  <SCORE.INTRA.SOLV.lig_0>
-83.2758

>  <SCORE.INTRA.VDW>
-0.0683163

>  <SCORE.INTRA.VDW.0>
-3.26816

>  <SCORE.INTRA.norm>
0.0133135

>  <SCORE.RESTR>
0

>  <SCORE.RESTR.CAVITY>
0

>  <SCORE.RESTR.norm>
0

>  <SCORE.SYSTEM>
0

>  <SCORE.SYSTEM.CONST>
0

>  <SCORE.SYSTEM.DIHEDRAL>
0

>  <SCORE.SYSTEM.SOLV>
0

>  <SCORE.SYSTEM.norm>
0

>  <SCORE.heavy>
27

>  <SCORE.norm>
-0.477284

>  <RMSD>
9.391

$$$$
ligand
 OpenBabel11021811463D
libRbt.so/2013.1/901 2013/11/27
 27 28  0  0  0  0  0  0  0  0999 V2000
    0.3069   34.9123  -12.1331 C   0  0  0  0  0  0  0  0  0  0  0  0
   -6.3325   33.5670   -8.5086 C   0  0  0  0  0  0  0  0  0  0  0  0
   -7.3197   35.7484   -6.7079 C   0  0  0  0  0  0  0  0  0  0  0  0
   -6.1849   35.7991   -5.6831 C   0  0  0  0  0  0  0  0  0  0  0  0
   -5.4609   37.0274   -5.7903 O   0  0  0  0  0  0  0  0  0  0  0  0
   -6.0860   38.3830   -5.1975 P   0  0  1  0  0  0  0  0  0  0  0  0
   -8.5242   39.8001   -5.2586 P   0  0  2  0  0  0  0  0  0  0  0  0
   -6.2933   37.6734   -9.8211 C   0  0  0  0  0  0  0  0  0  0  0  0
   -1.6342   34.2287  -10.7360 N   0  0  0  0  0  0  0  0  0  0  0  0
   -6.1200   38.3509   -3.5959 O   0  5  0  0  0  0  0  0  0  0  0  0
   -9.8263   39.8923   -5.9503 O   0  0  0  0  0  0  0  0  0  0  0  0
   -5.8318   36.6779  -10.6720 C   0  0  0  0  0  0  0  0  0  0  0  0
   -1.1943   34.7536  -11.8901 C   0  0  0  0  0  0  0  0  0  0  0  0
   -5.2497   39.7008   -5.6190 O   0  0  0  0  0  0  0  0  0  0  0  0
   -7.6590   41.1383   -5.4498 O   0  5  0  0  0  0  0  0  0  0  0  0
   -5.8478   35.3480  -10.2490 N   0  0  0  0  0  0  0  0  0  0  0  0
   -2.0611   35.1423  -12.8364 N   0  0  0  0  0  0  0  0  0  0  0  0
   -7.6017   38.5895   -5.7512 O   0  0  0  0  0  0  0  0  0  0  0  0
   -8.7247   39.6478   -3.6837 O   0  0  0  0  0  0  0  0  0  0  0  0
   -6.3206   35.0309   -8.9699 C   0  0  1  0  0  0  0  0  0  0  0  0
   -3.3792   35.0111  -12.6420 C   0  0  0  0  0  0  0  0  0  0  0  0
   -4.2286   35.3981  -13.5880 N   0  0  0  0  0  0  0  0  0  0  0  0
   -6.7842   36.0309   -8.1166 C   0  0  1  0  0  0  0  0  0  0  0  0
   -3.8599   34.4683  -11.4566 C   0  0  0  0  0  0  0  0  0  0  0  0
   -6.7641   37.3495   -8.5545 C   0  0  0  0  0  0  0  0  0  0  0  0
   -2.9273   34.0804  -10.5014 C   0  0  0  0  0  0  0  0  0  0  0  0
   -5.3530   34.2849  -11.1550 C   0  0  0  0  0  0  0  0  0  0  0  0
  1 13  1  0  0  0  0
  3  4  1  0  0  0  0
  4  5  1  0  0  0  0
  6  5  1  6  0  0  0
  6 10  1  0  0  0  0
  6 14  2  0  0  0  0
  6 18  1  0  0  0  0
  7 11  1  6  0  0  0
  7 15  1  0  0  0  0
  7 19  2  0  0  0  0
  7 18  1  0  0  0  0
  8 25  1  0  0  0  0
  8 12  1  0  0  0  0
  9 26  2  0  0  0  0
  9 13  1  0  0  0  0
 12 16  1  0  0  0  0
 13 17  2  0  0  0  0
 16 20  1  0  0  0  0
 16 27  1  0  0  0  0
 17 21  1  0  0  0  0
 20  2  1  6  0  0  0
 20 23  1  0  0  0  0
 21 22  1  0  0  0  0
 21 24  2  0  0  0  0
 23  3  1  6  0  0  0
 23 25  1  0  0  0  0
 24 27  1  0  0  0  0
 24 26  1  0  0  0  0
M  CHG  2  10  -1  15  -1
M  END
>  <CHROM.1>
52.93581627,76.39508938,69.48140169,175.74508652,175.21616259,89.69265580
-101.77042681,63.47174916,-5.68360772,36.91710246,-8.07970984,-1.02999391
-0.09006424,1.03559473

>  <Name>
ligand

>  <RI>
0

>  <Rbt.Current_Directory>
/home/itssahil/PROJECTS/Mol_Feturizer/New_Systems/rnas/3D2V

>  <Rbt.Executable>
rbdock ($Id: //depot/dev/client3/rdock/2013.1/src/exe/rbdock.cxx#4 $)

>  <Rbt.Library>
libRbt.so (2013.1, Build901 2013/11/27)

>  <Rbt.Parameter_File>
/export/apps/rDock/src/rDock_2013.1_src/data/scripts/dock_solv.prm

>  <Rbt.Receptor>
prm/blind_docking_80.prm

>  <SCORE>
-14.7334

>  <SCORE.INTER>
-14.5612

>  <SCORE.INTER.CONST>
1

>  <SCORE.INTER.POLAR>
0

>  <SCORE.INTER.ROT>
8

>  <SCORE.INTER.SOLV>
19.2874

>  <SCORE.INTER.VDW>
-25.0699

>  <SCORE.INTER.norm>
-0.539302

>  <SCORE.INTRA>
-0.182534

>  <SCORE.INTRA.DIHEDRAL>
-1.02415

>  <SCORE.INTRA.DIHEDRAL.0>
7.82666

>  <SCORE.INTRA.POLAR>
0

>  <SCORE.INTRA.POLAR.0>
0

>  <SCORE.INTRA.REPUL>
0

>  <SCORE.INTRA.REPUL.0>
0

>  <SCORE.INTRA.SOLV>
2.82944

>  <SCORE.INTRA.SOLV.lig_0>
-83.2758

>  <SCORE.INTRA.VDW>
-1.08518

>  <SCORE.INTRA.VDW.0>
-3.26816

>  <SCORE.INTRA.norm>
-0.00676052

>  <SCORE.RESTR>
0.0102841

>  <SCORE.RESTR.CAVITY>
0.0102841

>  <SCORE.RESTR.norm>
0.000380893

>  <SCORE.SYSTEM>
0

>  <SCORE.SYSTEM.CONST>
0

>  <SCORE.SYSTEM.DIHEDRAL>
0

>  <SCORE.SYSTEM.SOLV>
0

>  <SCORE.SYSTEM.norm>
0

>  <SCORE.heavy>
27

>  <SCORE.norm>
-0.545682

>  <RMSD>
9.435

$$$$
ligand
 OpenBabel11021811463D
libRbt.so/2013.1/901 2013/11/27
 27 28  0  0  0  0  0  0  0  0999 V2000
   -0.0012   35.0603  -12.0729 C   0  0  0  0  0  0  0  0  0  0  0  0
   -6.5415   33.6104   -7.8611 C   0  0  0  0  0  0  0  0  0  0  0  0
   -7.5380   35.8956   -6.1997 C   0  0  0  0  0  0  0  0  0  0  0  0
   -7.6214   37.2319   -5.4595 C   0  0  0  0  0  0  0  0  0  0  0  0
   -6.3142   37.7202   -5.1480 O   0  0  0  0  0  0  0  0  0  0  0  0
   -6.1416   39.0149   -4.2131 P   0  0  1  0  0  0  0  0  0  0  0  0
   -7.6996   39.5122   -1.9148 P   0  0  2  0  0  0  0  0  0  0  0  0
   -6.4188   37.6410   -9.3859 C   0  0  0  0  0  0  0  0  0  0  0  0
   -1.7530   34.2192  -10.5202 N   0  0  0  0  0  0  0  0  0  0  0  0
   -4.6230   39.5255   -4.2090 O   0  5  0  0  0  0  0  0  0  0  0  0
   -9.0665   39.3448   -2.4496 O   0  0  0  0  0  0  0  0  0  0  0  0
   -5.9524   36.5965  -10.1729 C   0  0  0  0  0  0  0  0  0  0  0  0
   -1.4605   34.8345  -11.6764 C   0  0  0  0  0  0  0  0  0  0  0  0
   -7.0513   40.2634   -4.6898 O   0  0  0  0  0  0  0  0  0  0  0  0
   -7.2282   41.0453   -1.9711 O   0  5  0  0  0  0  0  0  0  0  0  0
   -5.9954   35.2911   -9.6812 N   0  0  0  0  0  0  0  0  0  0  0  0
   -2.4388   35.2553  -12.4913 N   0  0  0  0  0  0  0  0  0  0  0  0
   -6.5828   38.6659   -2.6866 O   0  0  0  0  0  0  0  0  0  0  0  0
   -7.6367   39.1069   -0.3735 O   0  0  0  0  0  0  0  0  0  0  0  0
   -6.5000   35.0477   -8.3981 C   0  0  1  0  0  0  0  0  0  0  0  0
   -3.7224   35.0663  -12.1614 C   0  0  0  0  0  0  0  0  0  0  0  0
   -4.6834   35.4860  -12.9780 N   0  0  0  0  0  0  0  0  0  0  0  0
   -6.9685   36.0969   -7.6090 C   0  0  2  0  0  0  0  0  0  0  0  0
   -4.0515   34.4298  -10.9708 C   0  0  0  0  0  0  0  0  0  0  0  0
   -6.9212   37.3902   -8.1148 C   0  0  0  0  0  0  0  0  0  0  0  0
   -3.0069   34.0114  -10.1545 C   0  0  0  0  0  0  0  0  0  0  0  0
   -5.4955   34.1757  -10.5190 C   0  0  0  0  0  0  0  0  0  0  0  0
  1 13  1  0  0  0  0
  3  4  1  0  0  0  0
  4  5  1  0  0  0  0
  6  5  1  6  0  0  0
  6 10  1  0  0  0  0
  6 14  2  0  0  0  0
  6 18  1  0  0  0  0
  7 11  1  6  0  0  0
  7 15  1  0  0  0  0
  7 19  2  0  0  0  0
  7 18  1  0  0  0  0
  8 25  1  0  0  0  0
  8 12  1  0  0  0  0
  9 26  2  0  0  0  0
  9 13  1  0  0  0  0
 12 16  1  0  0  0  0
 13 17  2  0  0  0  0
 16 20  1  0  0  0  0
 16 27  1  0  0  0  0
 17 21  1  0  0  0  0
 20  2  1  6  0  0  0
 20 23  1  0  0  0  0
 21 22  1  0  0  0  0
 21 24  2  0  0  0  0
 23  3  1  1  0  0  0
 23 25  1  0  0  0  0
 24 27  1  0  0  0  0
 24 26  1  0  0  0  0
M  CHG  2  10  -1  15  -1
M  END
>  <CHROM.1>
-69.40146898,-172.41768673,-170.13938284,-124.40584950,68.64374713,165.15420900
-91.58170739,54.99293260,-5.70823945,37.05778136,-6.94607491,-1.16568635
0.30078899,0.96220245

>  <Name>
ligand

>  <RI>
0

>  <Rbt.Current_Directory>
/home/itssahil/PROJECTS/Mol_Feturizer/New_Systems/rnas/3D2V

>  <Rbt.Executable>
rbdock ($Id: //depot/dev/client3/rdock/2013.1/src/exe/rbdock.cxx#4 $)

>  <Rbt.Library>
libRbt.so (2013.1, Build901 2013/11/27)

>  <Rbt.Parameter_File>
/export/apps/rDock/src/rDock_2013.1_src/data/scripts/dock_solv.prm

>  <Rbt.Receptor>
prm/blind_docking_60.prm

>  <SCORE>
-10.1302

>  <SCORE.INTER>
-12.6292

>  <SCORE.INTER.CONST>
1

>  <SCORE.INTER.POLAR>
0

>  <SCORE.INTER.ROT>
8

>  <SCORE.INTER.SOLV>
22.8108

>  <SCORE.INTER.VDW>
-24.9564

>  <SCORE.INTER.norm>
-0.467748

>  <SCORE.INTRA>
1.72625

>  <SCORE.INTRA.DIHEDRAL>
0.584295

>  <SCORE.INTRA.DIHEDRAL.0>
7.82666

>  <SCORE.INTRA.POLAR>
0

>  <SCORE.INTRA.POLAR.0>
0

>  <SCORE.INTRA.REPUL>
0

>  <SCORE.INTRA.REPUL.0>
0

>  <SCORE.INTRA.SOLV>
0.293861

>  <SCORE.INTRA.SOLV.lig_0>
-83.2758

>  <SCORE.INTRA.VDW>
1.28717

>  <SCORE.INTRA.VDW.0>
-3.26816

>  <SCORE.INTRA.norm>
0.0639352

>  <SCORE.RESTR>
0.77279

>  <SCORE.RESTR.CAVITY>
0.77279

>  <SCORE.RESTR.norm>
0.0286218

>  <SCORE.SYSTEM>
0

>  <SCORE.SYSTEM.CONST>
0

>  <SCORE.SYSTEM.DIHEDRAL>
0

>  <SCORE.SYSTEM.SOLV>
0

>  <SCORE.SYSTEM.norm>
0

>  <SCORE.heavy>
27

>  <SCORE.norm>
-0.375191

>  <RMSD>
9.479

$$$$
ligand
 OpenBabel11021811463D
libRbt.so/2013.1/901 2013/11/27
 27 28  0  0  0  0  0  0  0  0999 V2000
    0.6488   35.7661  -11.7191 C   0  0  0  0  0  0  0  0  0  0  0  0
   -5.8112   32.4955   -8.6322 C   0  0  0  0  0  0  0  0  0  0  0  0
   -7.4742   34.2793   -6.8922 C   0  0  0  0  0  0  0  0  0  0  0  0
   -6.5962   34.6360   -5.6911 C   0  0  0  0  0  0  0  0  0  0  0  0
   -6.5999   36.0474   -5.4630 O   0  0  0  0  0  0  0  0  0  0  0  0
   -5.4188   36.7272   -4.6129 P   0  0  1  0  0  0  0  0  0  0  0  0
   -5.1509   38.7220   -6.5891 P   0  0  2  0  0  0  0  0  0  0  0  0
   -6.4863   36.6100   -9.7282 C   0  0  0  0  0  0  0  0  0  0  0  0
   -1.7218   35.4773  -12.4148 N   0  0  0  0  0  0  0  0  0  0  0  0
   -6.0068   37.6249   -3.4232 O   0  5  0  0  0  0  0  0  0  0  0  0
   -4.8410   38.4688   -8.0112 O   0  0  0  0  0  0  0  0  0  0  0  0
   -5.7128   35.8004  -10.5495 C   0  0  0  0  0  0  0  0  0  0  0  0
   -0.7532   35.1849  -11.5332 C   0  0  0  0  0  0  0  0  0  0  0  0
   -4.4271   35.6460   -3.9338 O   0  0  0  0  0  0  0  0  0  0  0  0
   -4.6402   40.1704   -6.1233 O   0  5  0  0  0  0  0  0  0  0  0  0
   -5.4972   34.4674  -10.1970 N   0  0  0  0  0  0  0  0  0  0  0  0
   -1.0029   34.3850  -10.4865 N   0  0  0  0  0  0  0  0  0  0  0  0
   -4.5040   37.6658   -5.5766 O   0  0  0  0  0  0  0  0  0  0  0  0
   -6.7265   38.7294   -6.3415 O   0  0  0  0  0  0  0  0  0  0  0  0
   -6.0547   33.9614   -9.0167 C   0  0  1  0  0  0  0  0  0  0  0  0
   -2.2243   33.8669  -10.3068 C   0  0  0  0  0  0  0  0  0  0  0  0
   -2.4603   33.0768   -9.2644 N   0  0  0  0  0  0  0  0  0  0  0  0
   -6.8315   34.7747   -8.1932 C   0  0  2  0  0  0  0  0  0  0  0  0
   -3.2449   34.1563  -11.2042 C   0  0  0  0  0  0  0  0  0  0  0  0
   -7.0388   36.0987   -8.5602 C   0  0  0  0  0  0  0  0  0  0  0  0
   -2.9427   34.9879  -12.2764 C   0  0  0  0  0  0  0  0  0  0  0  0
   -4.6698   33.6031  -11.0712 C   0  0  0  0  0  0  0  0  0  0  0  0
  1 13  1  0  0  0  0
  3  4  1  0  0  0  0
  4  5  1  0  0  0  0
  6  5  1  6  0  0  0
  6 10  1  0  0  0  0
  6 14  2  0  0  0  0
  6 18  1  0  0  0  0
  7 11  1  6  0  0  0
  7 15  1  0  0  0  0
  7 19  2  0  0  0  0
  7 18  1  0  0  0  0
  8 25  1  0  0  0  0
  8 12  1  0  0  0  0
  9 26  2  0  0  0  0
  9 13  1  0  0  0  0
 12 16  1  0  0  0  0
 13 17  2  0  0  0  0
 16 20  1  0  0  0  0
 16 27  1  0  0  0  0
 17 21  1  0  0  0  0
 20  2  1  6  0  0  0
 20 23  1  0  0  0  0
 21 22  1  0  0  0  0
 21 24  2  0  0  0  0
 23  3  1  1  0  0  0
 23 25  1  0  0  0  0
 24 27  1  0  0  0  0
 24 26  1  0  0  0  0
M  CHG  2  10  -1  15  -1
M  END
>  <CHROM.1>
69.52433991,-159.61867149,-127.55290307,47.85994810,-118.73183481,96.49415996
86.50655486,60.41712253,-4.67389045,35.94203931,-8.03829278,-0.93883695,0.65489470
0.70638707

>  <Name>
ligand

>  <RI>
0

>  <Rbt.Current_Directory>
/home/itssahil/PROJECTS/Mol_Feturizer/New_Systems/rnas/3D2V

>  <Rbt.Executable>
rbdock ($Id: //depot/dev/client3/rdock/2013.1/src/exe/rbdock.cxx#4 $)

>  <Rbt.Library>
libRbt.so (2013.1, Build901 2013/11/27)

>  <Rbt.Parameter_File>
/export/apps/rDock/src/rDock_2013.1_src/data/scripts/dock_solv.prm

>  <Rbt.Receptor>
prm/blind_docking_40.prm

>  <SCORE>
-7.40873

>  <SCORE.INTER>
-13.5924

>  <SCORE.INTER.CONST>
1

>  <SCORE.INTER.POLAR>
0

>  <SCORE.INTER.ROT>
8

>  <SCORE.INTER.SOLV>
25.2653

>  <SCORE.INTER.VDW>
-26.4167

>  <SCORE.INTER.norm>
-0.503424

>  <SCORE.INTRA>
1.69898

>  <SCORE.INTRA.DIHEDRAL>
4.45358

>  <SCORE.INTRA.DIHEDRAL.0>
7.82666

>  <SCORE.INTRA.POLAR>
0

>  <SCORE.INTRA.POLAR.0>
0

>  <SCORE.INTRA.REPUL>
0

>  <SCORE.INTRA.REPUL.0>
0

>  <SCORE.INTRA.SOLV>
1.94867

>  <SCORE.INTRA.SOLV.lig_0>
-83.2758

>  <SCORE.INTRA.VDW>
-1.50215

>  <SCORE.INTRA.VDW.0>
-3.26816

>  <SCORE.INTRA.norm>
0.0629251

>  <SCORE.RESTR>
4.48473

>  <SCORE.RESTR.CAVITY>
4.48473

>  <SCORE.RESTR.norm>
0.166101

>  <SCORE.SYSTEM>
0

>  <SCORE.SYSTEM.CONST>
0

>  <SCORE.SYSTEM.DIHEDRAL>
0

>  <SCORE.SYSTEM.SOLV>
0

>  <SCORE.SYSTEM.norm>
0

>  <SCORE.heavy>
27

>  <SCORE.norm>
-0.274397

>  <RMSD>
9.506

$$$$
ligand
 OpenBabel11021811463D
libRbt.so/2013.1/901 2013/11/27
 27 28  0  0  0  0  0  0  0  0999 V2000
   -5.0878   38.5321   -4.7132 C   0  0  0  0  0  0  0  0  0  0  0  0
   -5.0999   33.6448   -9.5364 C   0  0  0  0  0  0  0  0  0  0  0  0
   -3.2705   33.9114  -11.8938 C   0  0  0  0  0  0  0  0  0  0  0  0
   -1.9227   34.6227  -11.7596 C   0  0  0  0  0  0  0  0  0  0  0  0
   -0.8811   33.6843  -11.4792 O   0  0  0  0  0  0  0  0  0  0  0  0
   -0.8521   32.9129  -10.0706 P   0  0  1  0  0  0  0  0  0  0  0  0
    1.0218   31.2152   -8.8206 P   0  0  2  0  0  0  0  0  0  0  0  0
   -5.6316   36.8530  -12.3668 C   0  0  0  0  0  0  0  0  0  0  0  0
   -5.6231   38.2624   -7.1273 N   0  0  0  0  0  0  0  0  0  0  0  0
   -1.4693   33.8201   -8.9030 O   0  5  0  0  0  0  0  0  0  0  0  0
    1.0578   29.9642   -9.6057 O   0  0  0  0  0  0  0  0  0  0  0  0
   -6.4905   36.7484  -11.2808 C   0  0  0  0  0  0  0  0  0  0  0  0
   -5.6597   37.7421   -5.8908 C   0  0  0  0  0  0  0  0  0  0  0  0
   -1.6992   31.5361  -10.0875 O   0  0  0  0  0  0  0  0  0  0  0  0
   -0.0685   31.1423   -7.6452 O   0  5  0  0  0  0  0  0  0  0  0  0
   -6.3164   35.7122  -10.3622 N   0  0  0  0  0  0  0  0  0  0  0  0
   -6.1949   36.5315   -5.6761 N   0  0  0  0  0  0  0  0  0  0  0  0
    0.6773   32.5207   -9.6785 O   0  0  0  0  0  0  0  0  0  0  0  0
    2.4161   31.4694   -8.0889 O   0  0  0  0  0  0  0  0  0  0  0  0
   -5.2844   34.7845  -10.5479 C   0  0  1  0  0  0  0  0  0  0  0  0
   -6.7008   35.8250   -6.6945 C   0  0  0  0  0  0  0  0  0  0  0  0
   -7.2303   34.6270   -6.4691 N   0  0  0  0  0  0  0  0  0  0  0  0
   -4.4224   34.8906  -11.6382 C   0  0  1  0  0  0  0  0  0  0  0  0
   -6.6770   36.3425   -7.9839 C   0  0  0  0  0  0  0  0  0  0  0  0
   -4.6077   35.9299  -12.5417 C   0  0  0  0  0  0  0  0  0  0  0  0
   -6.1114   37.5997   -8.1625 C   0  0  0  0  0  0  0  0  0  0  0  0
   -7.2339   35.5978   -9.2042 C   0  0  0  0  0  0  0  0  0  0  0  0
  1 13  1  0  0  0  0
  3  4  1  0  0  0  0
  4  5  1  0  0  0  0
  6  5  1  6  0  0  0
  6 10  1  0  0  0  0
  6 14  2  0  0  0  0
  6 18  1  0  0  0  0
  7 11  1  6  0  0  0
  7 15  1  0  0  0  0
  7 19  2  0  0  0  0
  7 18  1  0  0  0  0
  8 25  1  0  0  0  0
  8 12  1  0  0  0  0
  9 26  2  0  0  0  0
  9 13  1  0  0  0  0
 12 16  1  0  0  0  0
 13 17  2  0  0  0  0
 16 20  1  0  0  0  0
 16 27  1  0  0  0  0
 17 21  1  0  0  0  0
 20  2  1  1  0  0  0
 20 23  1  0  0  0  0
 21 22  1  0  0  0  0
 21 24  2  0  0  0  0
 23  3  1  1  0  0  0
 23 25  1  0  0  0  0
 24 27  1  0  0  0  0
 24 26  1  0  0  0  0
M  CHG  2  10  -1  15  -1
M  END
>  <CHROM.1>
157.57665008,-67.68665997,-31.37972191,-149.13682361,81.19514396,-114.09042750
-136.66806975,-92.16876114,-3.16065115,34.31131769,-9.18863929,-2.91020272
0.62460848,-1.68845900

>  <Name>
ligand

>  <RI>
0

>  <Rbt.Current_Directory>
/home/itssahil/PROJECTS/Mol_Feturizer/New_Systems/rnas/3D2V

>  <Rbt.Executable>
rbdock ($Id: //depot/dev/client3/rdock/2013.1/src/exe/rbdock.cxx#4 $)

>  <Rbt.Library>
libRbt.so (2013.1, Build901 2013/11/27)

>  <Rbt.Parameter_File>
/export/apps/rDock/src/rDock_2013.1_src/data/scripts/dock_solv.prm

>  <Rbt.Receptor>
prm/blind_docking_40.prm

>  <SCORE>
-3.67399

>  <SCORE.INTER>
-7.45517

>  <SCORE.INTER.CONST>
1

>  <SCORE.INTER.POLAR>
0

>  <SCORE.INTER.ROT>
8

>  <SCORE.INTER.SOLV>
16.6725

>  <SCORE.INTER.VDW>
-19.4609

>  <SCORE.INTER.norm>
-0.276117

>  <SCORE.INTRA>
2.62766

>  <SCORE.INTRA.DIHEDRAL>
2.38723

>  <SCORE.INTRA.DIHEDRAL.0>
7.82666

>  <SCORE.INTRA.POLAR>
0

>  <SCORE.INTRA.POLAR.0>
0

>  <SCORE.INTRA.REPUL>
0

>  <SCORE.INTRA.REPUL.0>
0

>  <SCORE.INTRA.SOLV>
3.18927

>  <SCORE.INTRA.SOLV.lig_0>
-83.2758

>  <SCORE.INTRA.VDW>
-0.160594

>  <SCORE.INTRA.VDW.0>
-3.26816

>  <SCORE.INTRA.norm>
0.0973206

>  <SCORE.RESTR>
1.15352

>  <SCORE.RESTR.CAVITY>
1.15352

>  <SCORE.RESTR.norm>
0.0427229

>  <SCORE.SYSTEM>
0

>  <SCORE.SYSTEM.CONST>
0

>  <SCORE.SYSTEM.DIHEDRAL>
0

>  <SCORE.SYSTEM.SOLV>
0

>  <SCORE.SYSTEM.norm>
0

>  <SCORE.heavy>
27

>  <SCORE.norm>
-0.136074

>  <RMSD>
9.637

$$$$
ligand
 OpenBabel11021811463D
libRbt.so/2013.1/901 2013/11/27
 27 28  0  0  0  0  0  0  0  0999 V2000
   -0.1749   35.0287  -11.6287 C   0  0  0  0  0  0  0  0  0  0  0  0
   -2.6524   33.3131   -5.8339 C   0  0  0  0  0  0  0  0  0  0  0  0
   -4.8220   34.9269   -4.5440 C   0  0  0  0  0  0  0  0  0  0  0  0
   -4.1518   36.2345   -4.9703 C   0  0  0  0  0  0  0  0  0  0  0  0
   -5.0766   37.3227   -4.9025 O   0  0  0  0  0  0  0  0  0  0  0  0
   -6.2915   37.4112   -5.9495 P   0  0  1  0  0  0  0  0  0  0  0  0
   -6.9212   36.4652   -8.5311 P   0  0  2  0  0  0  0  0  0  0  0  0
   -6.6774   33.1952   -7.3741 C   0  0  0  0  0  0  0  0  0  0  0  0
   -2.3343   34.1980  -10.7153 N   0  0  0  0  0  0  0  0  0  0  0  0
   -7.6768   36.9910   -5.2629 O   0  5  0  0  0  0  0  0  0  0  0  0
   -8.3727   36.3772   -8.2703 O   0  0  0  0  0  0  0  0  0  0  0  0
   -5.6871   32.4388   -7.9868 C   0  0  0  0  0  0  0  0  0  0  0  0
   -0.9940   34.1323  -10.6995 C   0  0  0  0  0  0  0  0  0  0  0  0
   -6.5012   38.8979   -6.5489 O   0  0  0  0  0  0  0  0  0  0  0  0
   -6.4164   35.2629   -9.4668 O   0  5  0  0  0  0  0  0  0  0  0  0
   -4.3848   32.4738   -7.4862 N   0  0  0  0  0  0  0  0  0  0  0  0
   -0.3627   33.2850   -9.8739 N   0  0  0  0  0  0  0  0  0  0  0  0
   -6.0127   36.4277   -7.2150 O   0  0  0  0  0  0  0  0  0  0  0  0
   -6.5651   37.7997   -9.3288 O   0  0  0  0  0  0  0  0  0  0  0  0
   -4.0873   33.2758   -6.3779 C   0  0  1  0  0  0  0  0  0  0  0  0
   -1.0627   32.4925   -9.0528 C   0  0  0  0  0  0  0  0  0  0  0  0
   -0.4259   31.6581   -8.2376 N   0  0  0  0  0  0  0  0  0  0  0  0
   -5.0822   34.0343   -5.7633 C   0  0  1  0  0  0  0  0  0  0  0  0
   -2.4513   32.5432   -9.0485 C   0  0  0  0  0  0  0  0  0  0  0  0
   -6.3741   33.9858   -6.2724 C   0  0  0  0  0  0  0  0  0  0  0  0
   -3.0656   33.4339   -9.9214 C   0  0  0  0  0  0  0  0  0  0  0  0
   -3.3265   31.6692   -8.1407 C   0  0  0  0  0  0  0  0  0  0  0  0
  1 13  1  0  0  0  0
  3  4  1  0  0  0  0
  4  5  1  0  0  0  0
  6  5  1  1  0  0  0
  6 10  1  0  0  0  0
  6 14  2  0  0  0  0
  6 18  1  0  0  0  0
  7 11  1  1  0  0  0
  7 15  1  0  0  0  0
  7 19  2  0  0  0  0
  7 18  1  0  0  0  0
  8 25  1  0  0  0  0
  8 12  1  0  0  0  0
  9 26  2  0  0  0  0
  9 13  1  0  0  0  0
 12 16  1  0  0  0  0
 13 17  2  0  0  0  0
 16 20  1  0  0  0  0
 16 27  1  0  0  0  0
 17 21  1  0  0  0  0
 20  2  1  1  0  0  0
 20 23  1  0  0  0  0
 21 22  1  0  0  0  0
 21 24  2  0  0  0  0
 23  3  1  1  0  0  0
 23 25  1  0  0  0  0
 24 27  1  0  0  0  0
 24 26  1  0  0  0  0
M  CHG  2  10  -1  15  -1
M  END
>  <CHROM.1>
106.38212214,-69.79110602,104.31866560,-170.12298317,-50.98356473,78.09137945
133.58910846,101.13421549,-4.63542024,34.96765227,-7.68853389,0.13032972
0.74212984,-1.13764203

>  <Name>
ligand

>  <RI>
0

>  <Rbt.Current_Directory>
/home/itssahil/PROJECTS/Mol_Feturizer/New_Systems/rnas/3D2V

>  <Rbt.Executable>
rbdock ($Id: //depot/dev/client3/rdock/2013.1/src/exe/rbdock.cxx#4 $)

>  <Rbt.Library>
libRbt.so (2013.1, Build901 2013/11/27)

>  <Rbt.Parameter_File>
/export/apps/rDock/src/rDock_2013.1_src/data/scripts/dock_solv.prm

>  <Rbt.Receptor>
prm/blind_docking_40.prm

>  <SCORE>
-1.65223

>  <SCORE.INTER>
-5.37832

>  <SCORE.INTER.CONST>
1

>  <SCORE.INTER.POLAR>
0

>  <SCORE.INTER.ROT>
8

>  <SCORE.INTER.SOLV>
17.4591

>  <SCORE.INTER.VDW>
-18.3386

>  <SCORE.INTER.norm>
-0.199197

>  <SCORE.INTRA>
1.99034

>  <SCORE.INTRA.DIHEDRAL>
4.94928

>  <SCORE.INTRA.DIHEDRAL.0>
7.82666

>  <SCORE.INTRA.POLAR>
0

>  <SCORE.INTRA.POLAR.0>
0

>  <SCORE.INTRA.REPUL>
0

>  <SCORE.INTRA.REPUL.0>
0

>  <SCORE.INTRA.SOLV>
2.92475

>  <SCORE.INTRA.SOLV.lig_0>
-83.2758

>  <SCORE.INTRA.VDW>
-1.94667

>  <SCORE.INTRA.VDW.0>
-3.26816

>  <SCORE.INTRA.norm>
0.0737163

>  <SCORE.RESTR>
1.73575

>  <SCORE.RESTR.CAVITY>
1.73575

>  <SCORE.RESTR.norm>
0.064287

>  <SCORE.SYSTEM>
0

>  <SCORE.SYSTEM.CONST>
0

>  <SCORE.SYSTEM.DIHEDRAL>
0

>  <SCORE.SYSTEM.SOLV>
0

>  <SCORE.SYSTEM.norm>
0

>  <SCORE.heavy>
27

>  <SCORE.norm>
-0.0611939

>  <RMSD>
9.693

$$$$
ligand
 OpenBabel11021811463D
libRbt.so/2013.1/901 2013/11/27
 27 28  0  0  0  0  0  0  0  0999 V2000
    0.5564   35.3642  -11.9152 C   0  0  0  0  0  0  0  0  0  0  0  0
   -6.7492   34.4751   -9.9914 C   0  0  0  0  0  0  0  0  0  0  0  0
   -7.4630   34.8131   -7.1015 C   0  0  0  0  0  0  0  0  0  0  0  0
   -6.9649   36.0470   -6.3466 C   0  0  0  0  0  0  0  0  0  0  0  0
   -8.0480   36.7090   -5.6886 O   0  0  0  0  0  0  0  0  0  0  0  0
   -7.7675   38.0107   -4.7903 P   0  0  1  0  0  0  0  0  0  0  0  0
   -8.8327   39.9148   -6.5781 P   0  0  2  0  0  0  0  0  0  0  0  0
   -4.4431   32.5110   -6.9237 C   0  0  0  0  0  0  0  0  0  0  0  0
   -1.9232   35.1921  -12.0123 N   0  0  0  0  0  0  0  0  0  0  0  0
   -8.9631   38.2656   -3.7545 O   0  5  0  0  0  0  0  0  0  0  0  0
  -10.1156   39.9358   -5.8458 O   0  0  0  0  0  0  0  0  0  0  0  0
   -4.0945   32.3412   -8.2571 C   0  0  0  0  0  0  0  0  0  0  0  0
   -0.7647   34.6721  -11.5782 C   0  0  0  0  0  0  0  0  0  0  0  0
   -6.4120   37.8948   -3.9170 O   0  0  0  0  0  0  0  0  0  0  0  0
   -8.9333   39.0381   -7.9187 O   0  5  0  0  0  0  0  0  0  0  0  0
   -4.8384   32.9799   -9.2502 N   0  0  0  0  0  0  0  0  0  0  0  0
   -0.7534   33.5470  -10.8487 N   0  0  0  0  0  0  0  0  0  0  0  0
   -7.6061   39.3218   -5.7396 O   0  0  0  0  0  0  0  0  0  0  0  0
   -8.4275   41.3800   -7.0606 O   0  0  0  0  0  0  0  0  0  0  0  0
   -5.9324   33.7780   -8.8946 C   0  0  1  0  0  0  0  0  0  0  0  0
   -1.9000   32.9270  -10.5433 C   0  0  0  0  0  0  0  0  0  0  0  0
   -1.8763   31.8135   -9.8180 N   0  0  0  0  0  0  0  0  0  0  0  0
   -6.2812   33.9482   -7.5558 C   0  0  2  0  0  0  0  0  0  0  0  0
   -3.1129   33.4465  -10.9790 C   0  0  0  0  0  0  0  0  0  0  0  0
   -5.5282   33.3076   -6.5793 C   0  0  0  0  0  0  0  0  0  0  0  0
   -3.0793   34.6132  -11.7341 C   0  0  0  0  0  0  0  0  0  0  0  0
   -4.4692   32.7975  -10.6737 C   0  0  0  0  0  0  0  0  0  0  0  0
  1 13  1  0  0  0  0
  3  4  1  0  0  0  0
  4  5  1  0  0  0  0
  6  5  1  6  0  0  0
  6 10  1  0  0  0  0
  6 14  2  0  0  0  0
  6 18  1  0  0  0  0
  7 11  1  1  0  0  0
  7 15  1  0  0  0  0
  7 19  2  0  0  0  0
  7 18  1  0  0  0  0
  8 25  1  0  0  0  0
  8 12  1  0  0  0  0
  9 26  2  0  0  0  0
  9 13  1  0  0  0  0
 12 16  1  0  0  0  0
 13 17  2  0  0  0  0
 16 20  1  0  0  0  0
 16 27  1  0  0  0  0
 17 21  1  0  0  0  0
 20  2  1  1  0  0  0
 20 23  1  0  0  0  0
 21 22  1  0  0  0  0
 21 24  2  0  0  0  0
 23  3  1  6  0  0  0
 23 25  1  0  0  0  0
 24 27  1  0  0  0  0
 24 26  1  0  0  0  0
M  CHG  2  10  -1  15  -1
M  END
>  <CHROM.1>
-168.16667603,178.11675261,-159.42874529,67.22831998,41.29647778,-112.44775067
72.38530016,-67.24542358,-5.75781918,36.00616890,-7.90637643,-0.37259100
0.80537361,-0.33439839

>  <Name>
ligand

>  <RI>
0

>  <Rbt.Current_Directory>
/home/itssahil/PROJECTS/Mol_Feturizer/New_Systems/rnas/3D2V

>  <Rbt.Executable>
rbdock ($Id: //depot/dev/client3/rdock/2013.1/src/exe/rbdock.cxx#4 $)

>  <Rbt.Library>
libRbt.so (2013.1, Build901 2013/11/27)

>  <Rbt.Parameter_File>
/export/apps/rDock/src/rDock_2013.1_src/data/scripts/dock_solv.prm

>  <Rbt.Receptor>
prm/blind_docking_100.prm

>  <SCORE>
-12.0169

>  <SCORE.INTER>
-11.3827

>  <SCORE.INTER.CONST>
1

>  <SCORE.INTER.POLAR>
0

>  <SCORE.INTER.ROT>
8

>  <SCORE.INTER.SOLV>
23.4633

>  <SCORE.INTER.VDW>
-24.3429

>  <SCORE.INTER.norm>
-0.421582

>  <SCORE.INTRA>
-0.645995

>  <SCORE.INTRA.DIHEDRAL>
-0.870034

>  <SCORE.INTRA.DIHEDRAL.0>
7.82666

>  <SCORE.INTRA.POLAR>
0

>  <SCORE.INTRA.POLAR.0>
0

>  <SCORE.INTRA.REPUL>
0

>  <SCORE.INTRA.REPUL.0>
0

>  <SCORE.INTRA.SOLV>
-0.284599

>  <SCORE.INTRA.SOLV.lig_0>
-83.2758

>  <SCORE.INTRA.VDW>
-0.0686787

>  <SCORE.INTRA.VDW.0>
-3.26816

>  <SCORE.INTRA.norm>
-0.0239257

>  <SCORE.RESTR>
0.0117541

>  <SCORE.RESTR.CAVITY>
0.0117541

>  <SCORE.RESTR.norm>
0.000435339

>  <SCORE.SYSTEM>
0

>  <SCORE.SYSTEM.CONST>
0

>  <SCORE.SYSTEM.DIHEDRAL>
0

>  <SCORE.SYSTEM.SOLV>
0

>  <SCORE.SYSTEM.norm>
0

>  <SCORE.heavy>
27

>  <SCORE.norm>
-0.445072

>  <RMSD>
9.801

$$$$
ligand
 OpenBabel11021811463D
libRbt.so/2013.1/901 2013/11/27
 27 28  0  0  0  0  0  0  0  0999 V2000
   -6.7817   36.5680  -11.9877 C   0  0  0  0  0  0  0  0  0  0  0  0
   -4.6112   32.0646   -7.4375 C   0  0  0  0  0  0  0  0  0  0  0  0
   -1.9633   32.4427   -6.0881 C   0  0  0  0  0  0  0  0  0  0  0  0
   -1.5394   32.4948   -7.5571 C   0  0  0  0  0  0  0  0  0  0  0  0
   -0.6788   33.6113   -7.7962 O   0  0  0  0  0  0  0  0  0  0  0  0
   -0.0457   33.8402   -9.2545 P   0  0  1  0  0  0  0  0  0  0  0  0
    1.3295   31.4232   -8.7817 P   0  0  2  0  0  0  0  0  0  0  0  0
   -4.0062   35.3226   -4.6796 C   0  0  0  0  0  0  0  0  0  0  0  0
   -6.0196   34.8042  -10.4080 N   0  0  0  0  0  0  0  0  0  0  0  0
   -1.1670   34.2913  -10.3062 O   0  5  0  0  0  0  0  0  0  0  0  0
    0.3893   30.4491   -8.1905 O   0  0  0  0  0  0  0  0  0  0  0  0
   -5.2417   35.1654   -5.2935 C   0  0  0  0  0  0  0  0  0  0  0  0
   -6.7864   35.8851  -10.6197 C   0  0  0  0  0  0  0  0  0  0  0  0
    1.0975   34.9831   -9.2739 O   0  0  0  0  0  0  0  0  0  0  0  0
    2.0676   32.2910   -7.6512 O   0  5  0  0  0  0  0  0  0  0  0  0
   -5.4391   34.1086   -6.1835 N   0  0  0  0  0  0  0  0  0  0  0  0
   -7.5599   36.3746   -9.6400 N   0  0  0  0  0  0  0  0  0  0  0  0
    0.6502   32.4684   -9.7843 O   0  0  0  0  0  0  0  0  0  0  0  0
    2.4974   30.6799   -9.5738 O   0  0  0  0  0  0  0  0  0  0  0  0
   -4.3894   33.2229   -6.4550 C   0  0  1  0  0  0  0  0  0  0  0  0
   -7.5776   35.7901   -8.4356 C   0  0  0  0  0  0  0  0  0  0  0  0
   -8.3498   36.2833   -7.4729 N   0  0  0  0  0  0  0  0  0  0  0  0
   -3.1496   33.3813   -5.8378 C   0  0  1  0  0  0  0  0  0  0  0  0
   -6.7945   34.6684   -8.1918 C   0  0  0  0  0  0  0  0  0  0  0  0
   -2.9707   34.4369   -4.9521 C   0  0  0  0  0  0  0  0  0  0  0  0
   -6.0060   34.1950   -9.2342 C   0  0  0  0  0  0  0  0  0  0  0  0
   -6.7563   33.9412   -6.8414 C   0  0  0  0  0  0  0  0  0  0  0  0
  1 13  1  0  0  0  0
  3  4  1  0  0  0  0
  4  5  1  0  0  0  0
  6  5  1  1  0  0  0
  6 10  1  0  0  0  0
  6 14  2  0  0  0  0
  6 18  1  0  0  0  0
  7 11  1  1  0  0  0
  7 15  1  0  0  0  0
  7 19  2  0  0  0  0
  7 18  1  0  0  0  0
  8 25  1  0  0  0  0
  8 12  1  0  0  0  0
  9 26  2  0  0  0  0
  9 13  1  0  0  0  0
 12 16  1  0  0  0  0
 13 17  2  0  0  0  0
 16 20  1  0  0  0  0
 16 27  1  0  0  0  0
 17 21  1  0  0  0  0
 20  2  1  1  0  0  0
 20 23  1  0  0  0  0
 21 22  1  0  0  0  0
 21 24  2  0  0  0  0
 23  3  1  1  0  0  0
 23 25  1  0  0  0  0
 24 27  1  0  0  0  0
 24 26  1  0  0  0  0
M  CHG  2  10  -1  15  -1
M  END
>  <CHROM.1>
82.85111473,177.18833506,70.33342999,-31.92228029,85.26102990,62.17134178
-111.83150307,91.99739160,-2.79032253,33.71785589,-8.23079973,-3.07556716
-0.38392045,1.83897676

>  <Name>
ligand

>  <RI>
0

>  <Rbt.Current_Directory>
/home/itssahil/PROJECTS/Mol_Feturizer/New_Systems/rnas/3D2V

>  <Rbt.Executable>
rbdock ($Id: //depot/dev/client3/rdock/2013.1/src/exe/rbdock.cxx#4 $)

>  <Rbt.Library>
libRbt.so (2013.1, Build901 2013/11/27)

>  <Rbt.Parameter_File>
/export/apps/rDock/src/rDock_2013.1_src/data/scripts/dock_solv.prm

>  <Rbt.Receptor>
prm/blind_docking_40.prm

>  <SCORE>
-2.52914

>  <SCORE.INTER>
-4.57326

>  <SCORE.INTER.CONST>
1

>  <SCORE.INTER.POLAR>
0

>  <SCORE.INTER.ROT>
8

>  <SCORE.INTER.SOLV>
27.1311

>  <SCORE.INTER.VDW>
-21.0259

>  <SCORE.INTER.norm>
-0.16938

>  <SCORE.INTRA>
0.958165

>  <SCORE.INTRA.DIHEDRAL>
1.27954

>  <SCORE.INTRA.DIHEDRAL.0>
7.82666

>  <SCORE.INTRA.POLAR>
0

>  <SCORE.INTRA.POLAR.0>
0

>  <SCORE.INTRA.REPUL>
0

>  <SCORE.INTRA.REPUL.0>
0

>  <SCORE.INTRA.SOLV>
-0.88106

>  <SCORE.INTRA.SOLV.lig_0>
-83.2758

>  <SCORE.INTRA.VDW>
0.758925

>  <SCORE.INTRA.VDW.0>
-3.26816

>  <SCORE.INTRA.norm>
0.0354876

>  <SCORE.RESTR>
1.08596

>  <SCORE.RESTR.CAVITY>
1.08596

>  <SCORE.RESTR.norm>
0.0402206

>  <SCORE.SYSTEM>
0

>  <SCORE.SYSTEM.CONST>
0

>  <SCORE.SYSTEM.DIHEDRAL>
0

>  <SCORE.SYSTEM.SOLV>
0

>  <SCORE.SYSTEM.norm>
0

>  <SCORE.heavy>
27

>  <SCORE.norm>
-0.0936717

>  <RMSD>
9.802

$$$$
ligand
 OpenBabel11021811463D
libRbt.so/2013.1/901 2013/11/27
 27 28  0  0  0  0  0  0  0  0999 V2000
   -3.3477   34.4995   -4.7399 C   0  0  0  0  0  0  0  0  0  0  0  0
   -2.7104   32.2140  -10.8963 C   0  0  0  0  0  0  0  0  0  0  0  0
   -2.8255   34.0639  -13.2500 C   0  0  0  0  0  0  0  0  0  0  0  0
   -3.7622   35.2259  -12.9140 C   0  0  0  0  0  0  0  0  0  0  0  0
   -4.3451   35.0482  -11.6206 O   0  0  0  0  0  0  0  0  0  0  0  0
   -5.7274   35.7799  -11.2547 P   0  0  1  0  0  0  0  0  0  0  0  0
   -6.8290   35.6704   -8.6603 P   0  0  2  0  0  0  0  0  0  0  0  0
    0.5321   34.9400  -11.6975 C   0  0  0  0  0  0  0  0  0  0  0  0
   -1.5103   34.5572   -6.4156 N   0  0  0  0  0  0  0  0  0  0  0  0
   -5.9457   37.0857  -12.1571 O   0  5  0  0  0  0  0  0  0  0  0  0
   -6.7920   34.2082   -8.4530 O   0  0  0  0  0  0  0  0  0  0  0  0
    0.6062   34.0907  -10.6014 C   0  0  0  0  0  0  0  0  0  0  0  0
   -2.5690   33.9033   -5.9130 C   0  0  0  0  0  0  0  0  0  0  0  0
   -7.0202   34.8360  -11.4811 O   0  0  0  0  0  0  0  0  0  0  0  0
   -8.2547   36.1508   -9.2191 O   0  5  0  0  0  0  0  0  0  0  0  0
   -0.4415   33.2054  -10.3438 N   0  0  0  0  0  0  0  0  0  0  0  0
   -2.9528   32.7275   -6.4308 N   0  0  0  0  0  0  0  0  0  0  0  0
   -5.7316   36.2173   -9.6878 O   0  0  0  0  0  0  0  0  0  0  0  0
   -6.6320   36.4469   -7.2811 O   0  0  0  0  0  0  0  0  0  0  0  0
   -1.5594   33.1872  -11.1865 C   0  0  1  0  0  0  0  0  0  0  0  0
   -2.2837   32.1898   -7.4582 C   0  0  0  0  0  0  0  0  0  0  0  0
   -2.6747   31.0247   -7.9643 N   0  0  0  0  0  0  0  0  0  0  0  0
   -1.6327   34.0398  -12.2868 C   0  0  1  0  0  0  0  0  0  0  0  0
   -1.1855   32.8482   -7.9981 C   0  0  0  0  0  0  0  0  0  0  0  0
   -0.5796   34.9129  -12.5307 C   0  0  0  0  0  0  0  0  0  0  0  0
   -0.8204   34.0633   -7.4301 C   0  0  0  0  0  0  0  0  0  0  0  0
   -0.3649   32.3004   -9.1730 C   0  0  0  0  0  0  0  0  0  0  0  0
  1 13  1  0  0  0  0
  3  4  1  0  0  0  0
  4  5  1  0  0  0  0
  6  5  1  6  0  0  0
  6 10  1  0  0  0  0
  6 14  2  0  0  0  0
  6 18  1  0  0  0  0
  7 11  1  1  0  0  0
  7 15  1  0  0  0  0
  7 19  2  0  0  0  0
  7 18  1  0  0  0  0
  8 25  1  0  0  0  0
  8 12  1  0  0  0  0
  9 26  2  0  0  0  0
  9 13  1  0  0  0  0
 12 16  1  0  0  0  0
 13 17  2  0  0  0  0
 16 20  1  0  0  0  0
 16 27  1  0  0  0  0
 17 21  1  0  0  0  0
 20  2  1  6  0  0  0
 20 23  1  0  0  0  0
 21 22  1  0  0  0  0
 21 24  2  0  0  0  0
 23  3  1  6  0  0  0
 23 25  1  0  0  0  0
 24 27  1  0  0  0  0
 24 26  1  0  0  0  0
M  CHG  2  10  -1  15  -1
M  END
>  <CHROM.1>
-64.50905009,-157.07444552,-24.42253023,-120.04600041,63.23662637,99.68877319
117.32574466,99.84683859,-3.68880687,34.46053558,-9.62535058,0.18505604,-0.39863428
1.76639775

>  <Name>
ligand

>  <RI>
0

>  <Rbt.Current_Directory>
/home/itssahil/PROJECTS/Mol_Feturizer/New_Systems/rnas/3D2V

>  <Rbt.Executable>
rbdock ($Id: //depot/dev/client3/rdock/2013.1/src/exe/rbdock.cxx#4 $)

>  <Rbt.Library>
libRbt.so (2013.1, Build901 2013/11/27)

>  <Rbt.Parameter_File>
/export/apps/rDock/src/rDock_2013.1_src/data/scripts/dock_solv.prm

>  <Rbt.Receptor>
prm/blind_docking_40.prm

>  <SCORE>
-3.61515

>  <SCORE.INTER>
-6.17753

>  <SCORE.INTER.CONST>
1

>  <SCORE.INTER.POLAR>
0

>  <SCORE.INTER.ROT>
8

>  <SCORE.INTER.SOLV>
20.5106

>  <SCORE.INTER.VDW>
-19.8886

>  <SCORE.INTER.norm>
-0.228798

>  <SCORE.INTRA>
2.11404

>  <SCORE.INTRA.DIHEDRAL>
3.65011

>  <SCORE.INTRA.DIHEDRAL.0>
7.82666

>  <SCORE.INTRA.POLAR>
0

>  <SCORE.INTRA.POLAR.0>
0

>  <SCORE.INTRA.REPUL>
0

>  <SCORE.INTRA.REPUL.0>
0

>  <SCORE.INTRA.SOLV>
1.33852

>  <SCORE.INTRA.SOLV.lig_0>
-83.2758

>  <SCORE.INTRA.VDW>
-0.380271

>  <SCORE.INTRA.VDW.0>
-3.26816

>  <SCORE.INTRA.norm>
0.0782979

>  <SCORE.RESTR>
0.448342

>  <SCORE.RESTR.CAVITY>
0.448342

>  <SCORE.RESTR.norm>
0.0166053

>  <SCORE.SYSTEM>
0

>  <SCORE.SYSTEM.CONST>
0

>  <SCORE.SYSTEM.DIHEDRAL>
0

>  <SCORE.SYSTEM.SOLV>
0

>  <SCORE.SYSTEM.norm>
0

>  <SCORE.heavy>
27

>  <SCORE.norm>
-0.133894

>  <RMSD>
10.215

$$$$
ligand
 OpenBabel11021811463D
libRbt.so/2013.1/901 2013/11/27
 27 28  0  0  0  0  0  0  0  0999 V2000
   -7.7467   37.0222   -7.3740 C   0  0  0  0  0  0  0  0  0  0  0  0
   -3.2780   35.7636  -13.3601 C   0  0  0  0  0  0  0  0  0  0  0  0
   -0.4961   34.8131  -12.7837 C   0  0  0  0  0  0  0  0  0  0  0  0
    0.5619   35.1407  -11.7282 C   0  0  0  0  0  0  0  0  0  0  0  0
    0.8935   33.9773  -10.9661 O   0  0  0  0  0  0  0  0  0  0  0  0
    0.7935   34.0112   -9.3633 P   0  0  1  0  0  0  0  0  0  0  0  0
   -0.7809   32.8130   -7.3529 P   0  0  2  0  0  0  0  0  0  0  0  0
   -2.6028   32.5072  -10.6168 C   0  0  0  0  0  0  0  0  0  0  0  0
   -7.0472   35.0176   -8.6700 N   0  0  0  0  0  0  0  0  0  0  0  0
    2.0524   33.2830   -8.6910 O   0  5  0  0  0  0  0  0  0  0  0  0
    0.3910   32.1476   -6.7476 O   0  0  0  0  0  0  0  0  0  0  0  0
   -3.9005   32.9315  -10.8701 C   0  0  0  0  0  0  0  0  0  0  0  0
   -7.1512   36.3544   -8.6139 C   0  0  0  0  0  0  0  0  0  0  0  0
    0.7500   35.5125   -8.7653 O   0  0  0  0  0  0  0  0  0  0  0  0
   -2.0717   31.8593   -7.3409 O   0  5  0  0  0  0  0  0  0  0  0  0
   -4.1198   33.9832  -11.7610 N   0  0  0  0  0  0  0  0  0  0  0  0
   -6.7366   37.1140   -9.6381 N   0  0  0  0  0  0  0  0  0  0  0  0
   -0.5676   33.2682   -8.8716 O   0  0  0  0  0  0  0  0  0  0  0  0
   -1.2006   34.1029   -6.5140 O   0  0  0  0  0  0  0  0  0  0  0  0
   -3.0311   34.6051  -12.3840 C   0  0  1  0  0  0  0  0  0  0  0  0
   -6.2123   36.5475  -10.7320 C   0  0  0  0  0  0  0  0  0  0  0  0
   -5.8031   37.3109  -11.7401 N   0  0  0  0  0  0  0  0  0  0  0  0
   -1.7288   34.1781  -12.1294 C   0  0  1  0  0  0  0  0  0  0  0  0
   -6.0916   35.1657  -10.8136 C   0  0  0  0  0  0  0  0  0  0  0  0
   -1.5282   33.1278  -11.2421 C   0  0  0  0  0  0  0  0  0  0  0  0
   -6.5354   34.4157   -9.7306 C   0  0  0  0  0  0  0  0  0  0  0  0
   -5.5039   34.4387  -12.0303 C   0  0  0  0  0  0  0  0  0  0  0  0
  1 13  1  0  0  0  0
  3  4  1  0  0  0  0
  4  5  1  0  0  0  0
  6  5  1  6  0  0  0
  6 10  1  0  0  0  0
  6 14  2  0  0  0  0
  6 18  1  0  0  0  0
  7 11  1  1  0  0  0
  7 15  1  0  0  0  0
  7 19  2  0  0  0  0
  7 18  1  0  0  0  0
  8 25  1  0  0  0  0
  8 12  1  0  0  0  0
  9 26  2  0  0  0  0
  9 13  1  0  0  0  0
 12 16  1  0  0  0  0
 13 17  2  0  0  0  0
 16 20  1  0  0  0  0
 16 27  1  0  0  0  0
 17 21  1  0  0  0  0
 20  2  1  6  0  0  0
 20 23  1  0  0  0  0
 21 22  1  0  0  0  0
 21 24  2  0  0  0  0
 23  3  1  6  0  0  0
 23 25  1  0  0  0  0
 24 27  1  0  0  0  0
 24 26  1  0  0  0  0
M  CHG  2  10  -1  15  -1
M  END
>  <CHROM.1>
55.04564230,-125.72144297,-137.49530994,164.40070542,-44.53476606,131.03732998
103.22703493,70.80873203,-2.52437421,34.38407418,-9.80120272,2.88789465,0.29492570
-1.33028286

>  <Name>
ligand

>  <RI>
0

>  <Rbt.Current_Directory>
/home/itssahil/PROJECTS/Mol_Feturizer/New_Systems/rnas/3D2V

>  <Rbt.Executable>
rbdock ($Id: //depot/dev/client3/rdock/2013.1/src/exe/rbdock.cxx#4 $)

>  <Rbt.Library>
libRbt.so (2013.1, Build901 2013/11/27)

>  <Rbt.Parameter_File>
/export/apps/rDock/src/rDock_2013.1_src/data/scripts/dock_solv.prm

>  <Rbt.Receptor>
prm/blind_docking_40.prm

>  <SCORE>
-2.47308

>  <SCORE.INTER>
-8.9627

>  <SCORE.INTER.CONST>
1

>  <SCORE.INTER.POLAR>
0

>  <SCORE.INTER.ROT>
8

>  <SCORE.INTER.SOLV>
27.5611

>  <SCORE.INTER.VDW>
-24.0955

>  <SCORE.INTER.norm>
-0.331952

>  <SCORE.INTRA>
5.31604

>  <SCORE.INTRA.DIHEDRAL>
7.13651

>  <SCORE.INTRA.DIHEDRAL.0>
7.82666

>  <SCORE.INTRA.POLAR>
0

>  <SCORE.INTRA.POLAR.0>
0

>  <SCORE.INTRA.REPUL>
0

>  <SCORE.INTRA.REPUL.0>
0

>  <SCORE.INTRA.SOLV>
1.79402

>  <SCORE.INTRA.SOLV.lig_0>
-83.2758

>  <SCORE.INTRA.VDW>
0.850771

>  <SCORE.INTRA.VDW.0>
-3.26816

>  <SCORE.INTRA.norm>
0.19689

>  <SCORE.RESTR>
1.17358

>  <SCORE.RESTR.CAVITY>
1.17358

>  <SCORE.RESTR.norm>
0.0434658

>  <SCORE.SYSTEM>
0

>  <SCORE.SYSTEM.CONST>
0

>  <SCORE.SYSTEM.DIHEDRAL>
0

>  <SCORE.SYSTEM.SOLV>
0

>  <SCORE.SYSTEM.norm>
0

>  <SCORE.heavy>
27

>  <SCORE.norm>
-0.0915956

>  <RMSD>
10.270

$$$$
ligand
 OpenBabel11021811463D
libRbt.so/2013.1/901 2013/11/27
 27 28  0  0  0  0  0  0  0  0999 V2000
   -7.2520   35.4404  -12.4192 C   0  0  0  0  0  0  0  0  0  0  0  0
   -2.0804   32.0238   -9.5009 C   0  0  0  0  0  0  0  0  0  0  0  0
   -1.0373   32.9517   -6.8502 C   0  0  0  0  0  0  0  0  0  0  0  0
   -2.4189   33.1357   -6.2195 C   0  0  0  0  0  0  0  0  0  0  0  0
   -2.4429   34.2948   -5.3827 O   0  0  0  0  0  0  0  0  0  0  0  0
   -3.8456   34.8916   -4.8765 P   0  0  1  0  0  0  0  0  0  0  0  0
   -5.2359   37.3228   -5.2117 P   0  0  2  0  0  0  0  0  0  0  0  0
   -0.1403   35.8561   -9.1330 C   0  0  0  0  0  0  0  0  0  0  0  0
   -5.2414   34.9017  -11.0575 N   0  0  0  0  0  0  0  0  0  0  0  0
   -5.0704   34.2582   -5.6924 O   0  5  0  0  0  0  0  0  0  0  0  0
   -5.0964   38.6269   -5.8917 O   0  0  0  0  0  0  0  0  0  0  0  0
   -0.6170   35.4458  -10.3709 C   0  0  0  0  0  0  0  0  0  0  0  0
   -5.7963   34.9954  -12.2758 C   0  0  0  0  0  0  0  0  0  0  0  0
   -4.1278   34.5993   -3.3117 O   0  0  0  0  0  0  0  0  0  0  0  0
   -5.8255   37.4914   -3.7286 O   0  5  0  0  0  0  0  0  0  0  0  0
   -1.2485   34.2069  -10.4897 N   0  0  0  0  0  0  0  0  0  0  0  0
   -5.0844   34.7016  -13.3735 N   0  0  0  0  0  0  0  0  0  0  0  0
   -3.8675   36.5072   -5.0657 O   0  0  0  0  0  0  0  0  0  0  0  0
   -6.2780   36.3892   -5.9773 O   0  0  0  0  0  0  0  0  0  0  0  0
   -1.3882   33.3869   -9.3636 C   0  0  1  0  0  0  0  0  0  0  0  0
   -3.8083   34.3106  -13.2680 C   0  0  0  0  0  0  0  0  0  0  0  0
   -3.1122   34.0239  -14.3633 N   0  0  0  0  0  0  0  0  0  0  0  0
   -0.9098   33.7999   -8.1212 C   0  0  2  0  0  0  0  0  0  0  0  0
   -3.2101   34.2079  -12.0181 C   0  0  0  0  0  0  0  0  0  0  0  0
   -0.2862   35.0375   -8.0197 C   0  0  0  0  0  0  0  0  0  0  0  0
   -3.9843   34.5197  -10.9063 C   0  0  0  0  0  0  0  0  0  0  0  0
   -1.7554   33.7666  -11.8107 C   0  0  0  0  0  0  0  0  0  0  0  0
  1 13  1  0  0  0  0
  3  4  1  0  0  0  0
  4  5  1  0  0  0  0
  6  5  1  6  0  0  0
  6 10  1  0  0  0  0
  6 14  2  0  0  0  0
  6 18  1  0  0  0  0
  7 11  1  6  0  0  0
  7 15  1  0  0  0  0
  7 19  2  0  0  0  0
  7 18  1  0  0  0  0
  8 25  1  0  0  0  0
  8 12  1  0  0  0  0
  9 26  2  0  0  0  0
  9 13  1  0  0  0  0
 12 16  1  0  0  0  0
 13 17  2  0  0  0  0
 16 20  1  0  0  0  0
 16 27  1  0  0  0  0
 17 21  1  0  0  0  0
 20  2  1  1  0  0  0
 20 23  1  0  0  0  0
 21 22  1  0  0  0  0
 21 24  2  0  0  0  0
 23  3  1  6  0  0  0
 23 25  1  0  0  0  0
 24 27  1  0  0  0  0
 24 26  1  0  0  0  0
M  CHG  2  10  -1  15  -1
M  END
>  <CHROM.1>
-84.37443155,166.13464109,-13.35027067,155.58505162,-156.86184219,-82.80126584
159.45147356,-90.53072668,-3.57281443,35.00315727,-8.20256703,1.40178210
0.50072519,-1.72275534

>  <Name>
ligand

>  <RI>
0

>  <Rbt.Current_Directory>
/home/itssahil/PROJECTS/Mol_Feturizer/New_Systems/rnas/3D2V

>  <Rbt.Executable>
rbdock ($Id: //depot/dev/client3/rdock/2013.1/src/exe/rbdock.cxx#4 $)

>  <Rbt.Library>
libRbt.so (2013.1, Build901 2013/11/27)

>  <Rbt.Parameter_File>
/export/apps/rDock/src/rDock_2013.1_src/data/scripts/dock_solv.prm

>  <Rbt.Receptor>
prm/blind_docking_40.prm

>  <SCORE>
-7.19089

>  <SCORE.INTER>
-11.1562

>  <SCORE.INTER.CONST>
1

>  <SCORE.INTER.POLAR>
0

>  <SCORE.INTER.ROT>
8

>  <SCORE.INTER.SOLV>
34.8726

>  <SCORE.INTER.VDW>
-27.995

>  <SCORE.INTER.norm>
-0.413194

>  <SCORE.INTRA>
3.42727

>  <SCORE.INTRA.DIHEDRAL>
3.93649

>  <SCORE.INTRA.DIHEDRAL.0>
7.82666

>  <SCORE.INTRA.POLAR>
0

>  <SCORE.INTRA.POLAR.0>
0

>  <SCORE.INTRA.REPUL>
0

>  <SCORE.INTRA.REPUL.0>
0

>  <SCORE.INTRA.SOLV>
1.39886

>  <SCORE.INTRA.SOLV.lig_0>
-83.2758

>  <SCORE.INTRA.VDW>
0.759595

>  <SCORE.INTRA.VDW.0>
-3.26816

>  <SCORE.INTRA.norm>
0.126936

>  <SCORE.RESTR>
0.538064

>  <SCORE.RESTR.CAVITY>
0.538064

>  <SCORE.RESTR.norm>
0.0199283

>  <SCORE.SYSTEM>
0

>  <SCORE.SYSTEM.CONST>
0

>  <SCORE.SYSTEM.DIHEDRAL>
0

>  <SCORE.SYSTEM.SOLV>
0

>  <SCORE.SYSTEM.norm>
0

>  <SCORE.heavy>
27

>  <SCORE.norm>
-0.266329

>  <RMSD>
10.398

$$$$
ligand
 OpenBabel11021811463D
libRbt.so/2013.1/901 2013/11/27
 27 28  0  0  0  0  0  0  0  0999 V2000
    0.3438   34.6420  -11.7635 C   0  0  0  0  0  0  0  0  0  0  0  0
   -4.9130   31.9032   -8.0197 C   0  0  0  0  0  0  0  0  0  0  0  0
   -6.7988   33.7713   -6.6306 C   0  0  0  0  0  0  0  0  0  0  0  0
   -7.0109   33.9758   -8.1319 C   0  0  0  0  0  0  0  0  0  0  0  0
   -6.3896   35.1866   -8.5704 O   0  0  0  0  0  0  0  0  0  0  0  0
   -6.4138   35.5844  -10.1264 P   0  0  1  0  0  0  0  0  0  0  0  0
   -8.0514   35.1982  -12.3903 P   0  0  2  0  0  0  0  0  0  0  0  0
   -3.4773   34.5995   -4.9774 C   0  0  0  0  0  0  0  0  0  0  0  0
   -1.5598   34.1801  -10.2304 N   0  0  0  0  0  0  0  0  0  0  0  0
   -6.3278   37.1729  -10.3173 O   0  5  0  0  0  0  0  0  0  0  0  0
   -8.1302   36.5968  -12.8597 O   0  0  0  0  0  0  0  0  0  0  0  0
   -2.5859   33.7424   -5.6091 C   0  0  0  0  0  0  0  0  0  0  0  0
   -0.2879   33.9218  -10.5718 C   0  0  0  0  0  0  0  0  0  0  0  0
   -5.1833   34.9481  -10.9598 O   0  0  0  0  0  0  0  0  0  0  0  0
   -9.4059   34.3951  -12.7003 O   0  5  0  0  0  0  0  0  0  0  0  0
   -3.0496   32.8720   -6.5967 N   0  0  0  0  0  0  0  0  0  0  0  0
    0.4380   33.0348   -9.8759 N   0  0  0  0  0  0  0  0  0  0  0  0
   -7.7825   35.0450  -10.8209 O   0  0  0  0  0  0  0  0  0  0  0  0
   -6.9028   34.4026  -13.1594 O   0  0  0  0  0  0  0  0  0  0  0  0
   -4.4081   32.8651   -6.9354 C   0  0  1  0  0  0  0  0  0  0  0  0
   -0.0976   32.3945   -8.8292 C   0  0  0  0  0  0  0  0  0  0  0  0
    0.6323   31.5189   -8.1459 N   0  0  0  0  0  0  0  0  0  0  0  0
   -5.3020   33.7262   -6.3010 C   0  0  1  0  0  0  0  0  0  0  0  0
   -1.4117   32.6461   -8.4541 C   0  0  0  0  0  0  0  0  0  0  0  0
   -4.8234   34.5885   -5.3221 C   0  0  0  0  0  0  0  0  0  0  0  0
   -2.1293   33.5711   -9.2038 C   0  0  0  0  0  0  0  0  0  0  0  0
   -2.1000   31.9550   -7.2698 C   0  0  0  0  0  0  0  0  0  0  0  0
  1 13  1  0  0  0  0
  3  4  1  0  0  0  0
  4  5  1  0  0  0  0
  6  5  1  1  0  0  0
  6 10  1  0  0  0  0
  6 14  2  0  0  0  0
  6 18  1  0  0  0  0
  7 11  1  6  0  0  0
  7 15  1  0  0  0  0
  7 19  2  0  0  0  0
  7 18  1  0  0  0  0
  8 25  1  0  0  0  0
  8 12  1  0  0  0  0
  9 26  2  0  0  0  0
  9 13  1  0  0  0  0
 12 16  1  0  0  0  0
 13 17  2  0  0  0  0
 16 20  1  0  0  0  0
 16 27  1  0  0  0  0
 17 21  1  0  0  0  0
 20  2  1  6  0  0  0
 20 23  1  0  0  0  0
 21 22  1  0  0  0  0
 21 24  2  0  0  0  0
 23  3  1  6  0  0  0
 23 25  1  0  0  0  0
 24 27  1  0  0  0  0
 24 26  1  0  0  0  0
M  CHG  2  10  -1  15  -1
M  END
>  <CHROM.1>
-58.52658283,177.03088526,152.92106414,-175.66871922,-63.04524218,-53.52190227
145.62037895,-85.66025467,-4.59742374,34.19284319,-9.40318328,-0.53518448
0.23659033,-1.35973165

>  <Name>
ligand

>  <RI>
0

>  <Rbt.Current_Directory>
/home/itssahil/PROJECTS/Mol_Feturizer/New_Systems/rnas/3D2V

>  <Rbt.Executable>
rbdock ($Id: //depot/dev/client3/rdock/2013.1/src/exe/rbdock.cxx#4 $)

>  <Rbt.Library>
libRbt.so (2013.1, Build901 2013/11/27)

>  <Rbt.Parameter_File>
/export/apps/rDock/src/rDock_2013.1_src/data/scripts/dock_solv.prm

>  <Rbt.Receptor>
prm/blind_docking_40.prm

>  <SCORE>
-8.60896

>  <SCORE.INTER>
-9.79861

>  <SCORE.INTER.CONST>
1

>  <SCORE.INTER.POLAR>
0

>  <SCORE.INTER.ROT>
8

>  <SCORE.INTER.SOLV>
20.7791

>  <SCORE.INTER.VDW>
-22.3921

>  <SCORE.INTER.norm>
-0.362912

>  <SCORE.INTRA>
0.314866

>  <SCORE.INTRA.DIHEDRAL>
-1.50557

>  <SCORE.INTRA.DIHEDRAL.0>
7.82666

>  <SCORE.INTRA.POLAR>
0

>  <SCORE.INTRA.POLAR.0>
0

>  <SCORE.INTRA.REPUL>
0

>  <SCORE.INTRA.REPUL.0>
0

>  <SCORE.INTRA.SOLV>
-0.447205

>  <SCORE.INTRA.SOLV.lig_0>
-83.2758

>  <SCORE.INTRA.VDW>
1.29125

>  <SCORE.INTRA.VDW.0>
-3.26816

>  <SCORE.INTRA.norm>
0.0116617

>  <SCORE.RESTR>
0.874782

>  <SCORE.RESTR.CAVITY>
0.874782

>  <SCORE.RESTR.norm>
0.0323993

>  <SCORE.SYSTEM>
0

>  <SCORE.SYSTEM.CONST>
0

>  <SCORE.SYSTEM.DIHEDRAL>
0

>  <SCORE.SYSTEM.SOLV>
0

>  <SCORE.SYSTEM.norm>
0

>  <SCORE.heavy>
27

>  <SCORE.norm>
-0.31885

>  <RMSD>
10.400

$$$$
ligand
 OpenBabel11021811463D
libRbt.so/2013.1/901 2013/11/27
 27 28  0  0  0  0  0  0  0  0999 V2000
    2.0738   37.2044   -8.3321 C   0  0  0  0  0  0  0  0  0  0  0  0
   -3.1343   33.2531   -9.6416 C   0  0  0  0  0  0  0  0  0  0  0  0
   -5.9088   34.3238  -10.0039 C   0  0  0  0  0  0  0  0  0  0  0  0
   -6.6553   35.6263   -9.7094 C   0  0  0  0  0  0  0  0  0  0  0  0
   -6.1653   36.2302   -8.5097 O   0  0  0  0  0  0  0  0  0  0  0  0
   -7.1886   36.9186   -7.4805 P   0  0  1  0  0  0  0  0  0  0  0  0
   -5.8516   37.7358   -5.1351 P   0  0  2  0  0  0  0  0  0  0  0  0
   -4.1528   35.5516  -13.1439 C   0  0  0  0  0  0  0  0  0  0  0  0
    1.1391   34.9981   -8.9997 N   0  0  0  0  0  0  0  0  0  0  0  0
   -8.4088   37.6097   -8.2554 O   0  5  0  0  0  0  0  0  0  0  0  0
   -6.8018   38.0214   -4.0405 O   0  0  0  0  0  0  0  0  0  0  0  0
   -2.8610   35.0642  -12.9963 C   0  0  0  0  0  0  0  0  0  0  0  0
    1.2149   36.3173   -9.2339 C   0  0  0  0  0  0  0  0  0  0  0  0
   -7.8356   35.8679   -6.4360 O   0  0  0  0  0  0  0  0  0  0  0  0
   -4.5005   38.5881   -4.9802 O   0  5  0  0  0  0  0  0  0  0  0  0
   -2.5319   34.3169  -11.8645 N   0  0  0  0  0  0  0  0  0  0  0  0
    0.5424   36.8682  -10.2548 N   0  0  0  0  0  0  0  0  0  0  0  0
   -6.4195   38.0480   -6.5976 O   0  0  0  0  0  0  0  0  0  0  0  0
   -5.3933   36.2084   -5.1083 O   0  0  0  0  0  0  0  0  0  0  0  0
   -3.5030   34.0726  -10.8861 C   0  0  1  0  0  0  0  0  0  0  0  0
   -0.2146   36.1077  -11.0554 C   0  0  0  0  0  0  0  0  0  0  0  0
   -0.8750   36.6647  -12.0653 N   0  0  0  0  0  0  0  0  0  0  0  0
   -4.7997   34.5618  -11.0354 C   0  0  2  0  0  0  0  0  0  0  0  0
   -0.3078   34.7388  -10.8354 C   0  0  0  0  0  0  0  0  0  0  0  0
   -5.1115   35.3015  -12.1696 C   0  0  0  0  0  0  0  0  0  0  0  0
    0.4037   34.2090   -9.7651 C   0  0  0  0  0  0  0  0  0  0  0  0
   -1.1530   33.7984  -11.7045 C   0  0  0  0  0  0  0  0  0  0  0  0
  1 13  1  0  0  0  0
  3  4  1  0  0  0  0
  4  5  1  0  0  0  0
  6  5  1  6  0  0  0
  6 10  1  0  0  0  0
  6 14  2  0  0  0  0
  6 18  1  0  0  0  0
  7 11  1  1  0  0  0
  7 15  1  0  0  0  0
  7 19  2  0  0  0  0
  7 18  1  0  0  0  0
  8 25  1  0  0  0  0
  8 12  1  0  0  0  0
  9 26  2  0  0  0  0
  9 13  1  0  0  0  0
 12 16  1  0  0  0  0
 13 17  2  0  0  0  0
 16 20  1  0  0  0  0
 16 27  1  0  0  0  0
 17 21  1  0  0  0  0
 20  2  1  6  0  0  0
 20 23  1  0  0  0  0
 21 22  1  0  0  0  0
 21 24  2  0  0  0  0
 23  3  1  1  0  0  0
 23 25  1  0  0  0  0
 24 27  1  0  0  0  0
 24 26  1  0  0  0  0
M  CHG  2  10  -1  15  -1
M  END
>  <CHROM.1>
-98.33887658,-140.17993496,-34.60198777,-96.78109134,-91.09892616,133.57281932
-50.30242651,95.90238667,-3.89302866,36.05714132,-8.83411144,-0.68633547
0.03284125,1.12718088

>  <Name>
ligand

>  <RI>
0

>  <Rbt.Current_Directory>
/home/itssahil/PROJECTS/Mol_Feturizer/New_Systems/rnas/3D2V

>  <Rbt.Executable>
rbdock ($Id: //depot/dev/client3/rdock/2013.1/src/exe/rbdock.cxx#4 $)

>  <Rbt.Library>
libRbt.so (2013.1, Build901 2013/11/27)

>  <Rbt.Parameter_File>
/export/apps/rDock/src/rDock_2013.1_src/data/scripts/dock_solv.prm

>  <Rbt.Receptor>
prm/blind_docking_40.prm

>  <SCORE>
-2.97966

>  <SCORE.INTER>
-10.042

>  <SCORE.INTER.CONST>
1

>  <SCORE.INTER.POLAR>
0

>  <SCORE.INTER.ROT>
8

>  <SCORE.INTER.SOLV>
31.7497

>  <SCORE.INTER.VDW>
-26.2112

>  <SCORE.INTER.norm>
-0.371926

>  <SCORE.INTRA>
6.55586

>  <SCORE.INTRA.DIHEDRAL>
10.3796

>  <SCORE.INTRA.DIHEDRAL.0>
7.82666

>  <SCORE.INTRA.POLAR>
0

>  <SCORE.INTRA.POLAR.0>
0

>  <SCORE.INTRA.REPUL>
0

>  <SCORE.INTRA.REPUL.0>
0

>  <SCORE.INTRA.SOLV>
1.67022

>  <SCORE.INTRA.SOLV.lig_0>
-83.2758

>  <SCORE.INTRA.VDW>
0.530958

>  <SCORE.INTRA.VDW.0>
-3.26816

>  <SCORE.INTRA.norm>
0.24281

>  <SCORE.RESTR>
0.50649

>  <SCORE.RESTR.CAVITY>
0.50649

>  <SCORE.RESTR.norm>
0.0187589

>  <SCORE.SYSTEM>
0

>  <SCORE.SYSTEM.CONST>
0

>  <SCORE.SYSTEM.DIHEDRAL>
0

>  <SCORE.SYSTEM.SOLV>
0

>  <SCORE.SYSTEM.norm>
0

>  <SCORE.heavy>
27

>  <SCORE.norm>
-0.110358

>  <RMSD>
10.492

$$$$
ligand
 OpenBabel11021811463D
libRbt.so/2013.1/901 2013/11/27
 27 28  0  0  0  0  0  0  0  0999 V2000
    0.8000   32.9009   -9.4561 C   0  0  0  0  0  0  0  0  0  0  0  0
   -5.4608   33.0953  -11.2828 C   0  0  0  0  0  0  0  0  0  0  0  0
   -7.3992   35.1006  -10.1889 C   0  0  0  0  0  0  0  0  0  0  0  0
   -6.8546   35.1806   -8.7614 C   0  0  0  0  0  0  0  0  0  0  0  0
   -7.8205   35.7636   -7.8833 O   0  0  0  0  0  0  0  0  0  0  0  0
   -7.4395   36.0572   -6.3507 P   0  0  1  0  0  0  0  0  0  0  0  0
   -5.5379   37.5304   -4.8776 P   0  0  2  0  0  0  0  0  0  0  0  0
   -5.2793   37.2188  -12.5278 C   0  0  0  0  0  0  0  0  0  0  0  0
   -1.2998   32.3107  -10.6519 N   0  0  0  0  0  0  0  0  0  0  0  0
   -8.6665   36.7288   -5.5694 O   0  5  0  0  0  0  0  0  0  0  0  0
   -4.3949   38.4579   -5.0039 O   0  0  0  0  0  0  0  0  0  0  0  0
   -4.3716   36.3057  -13.0478 C   0  0  0  0  0  0  0  0  0  0  0  0
   -0.3209   33.2063  -10.4501 C   0  0  0  0  0  0  0  0  0  0  0  0
   -7.0418   34.7210   -5.5322 O   0  0  0  0  0  0  0  0  0  0  0  0
   -5.1296   36.1962   -4.0846 O   0  5  0  0  0  0  0  0  0  0  0  0
   -4.4324   34.9700  -12.6480 N   0  0  0  0  0  0  0  0  0  0  0  0
   -0.3154   34.3714  -11.1140 N   0  0  0  0  0  0  0  0  0  0  0  0
   -6.1578   37.0561   -6.2740 O   0  0  0  0  0  0  0  0  0  0  0  0
   -6.7134   38.1872   -4.0229 O   0  0  0  0  0  0  0  0  0  0  0  0
   -5.4010   34.5649  -11.7217 C   0  0  1  0  0  0  0  0  0  0  0  0
   -1.2881   34.6566  -11.9885 C   0  0  0  0  0  0  0  0  0  0  0  0
   -1.2709   35.8138  -12.6420 N   0  0  0  0  0  0  0  0  0  0  0  0
   -6.3121   35.4822  -11.2006 C   0  0  1  0  0  0  0  0  0  0  0  0
   -2.3117   33.7450  -12.2170 C   0  0  0  0  0  0  0  0  0  0  0  0
   -6.2396   36.8076  -11.6115 C   0  0  0  0  0  0  0  0  0  0  0  0
   -2.2803   32.5506  -11.5064 C   0  0  0  0  0  0  0  0  0  0  0  0
   -3.4627   33.9950  -13.2001 C   0  0  0  0  0  0  0  0  0  0  0  0
  1 13  1  0  0  0  0
  3  4  1  0  0  0  0
  4  5  1  0  0  0  0
  6  5  1  6  0  0  0
  6 10  1  0  0  0  0
  6 14  2  0  0  0  0
  6 18  1  0  0  0  0
  7 11  1  6  0  0  0
  7 15  1  0  0  0  0
  7 19  2  0  0  0  0
  7 18  1  0  0  0  0
  8 25  1  0  0  0  0
  8 12  1  0  0  0  0
  9 26  2  0  0  0  0
  9 13  1  0  0  0  0
 12 16  1  0  0  0  0
 13 17  2  0  0  0  0
 16 20  1  0  0  0  0
 16 27  1  0  0  0  0
 17 21  1  0  0  0  0
 20  2  1  6  0  0  0
 20 23  1  0  0  0  0
 21 22  1  0  0  0  0
 21 24  2  0  0  0  0
 23  3  1  6  0  0  0
 23 25  1  0  0  0  0
 24 27  1  0  0  0  0
 24 26  1  0  0  0  0
M  CHG  2  10  -1  15  -1
M  END
>  <CHROM.1>
138.77050939,-175.35215318,179.15767815,-179.80752206,-178.80756388,87.01469277
-74.44234768,99.16595569,-4.78729858,35.47167454,-8.92199096,-0.98427914
-0.27228061,1.34250473

>  <Name>
ligand

>  <RI>
0

>  <Rbt.Current_Directory>
/home/itssahil/PROJECTS/Mol_Feturizer/New_Systems/rnas/3D2V

>  <Rbt.Executable>
rbdock ($Id: //depot/dev/client3/rdock/2013.1/src/exe/rbdock.cxx#4 $)

>  <Rbt.Library>
libRbt.so (2013.1, Build901 2013/11/27)

>  <Rbt.Parameter_File>
/export/apps/rDock/src/rDock_2013.1_src/data/scripts/dock_solv.prm

>  <Rbt.Receptor>
prm/blind_docking_40.prm

>  <SCORE>
-1.59114

>  <SCORE.INTER>
-5.25871

>  <SCORE.INTER.CONST>
1

>  <SCORE.INTER.POLAR>
0

>  <SCORE.INTER.ROT>
8

>  <SCORE.INTER.SOLV>
30.8376

>  <SCORE.INTER.VDW>
-22.7183

>  <SCORE.INTER.norm>
-0.194767

>  <SCORE.INTRA>
1.87328

>  <SCORE.INTRA.DIHEDRAL>
1.73588

>  <SCORE.INTRA.DIHEDRAL.0>
7.82666

>  <SCORE.INTRA.POLAR>
0

>  <SCORE.INTRA.POLAR.0>
0

>  <SCORE.INTRA.REPUL>
0

>  <SCORE.INTRA.REPUL.0>
0

>  <SCORE.INTRA.SOLV>
2.6342

>  <SCORE.INTRA.SOLV.lig_0>
-83.2758

>  <SCORE.INTRA.VDW>
-0.311763

>  <SCORE.INTRA.VDW.0>
-3.26816

>  <SCORE.INTRA.norm>
0.0693806

>  <SCORE.RESTR>
1.7943

>  <SCORE.RESTR.CAVITY>
1.7943

>  <SCORE.RESTR.norm>
0.0664554

>  <SCORE.SYSTEM>
0

>  <SCORE.SYSTEM.CONST>
0

>  <SCORE.SYSTEM.DIHEDRAL>
0

>  <SCORE.SYSTEM.SOLV>
0

>  <SCORE.SYSTEM.norm>
0

>  <SCORE.heavy>
27

>  <SCORE.norm>
-0.0589312

>  <RMSD>
10.588

$$$$
ligand
 OpenBabel11021811463D
libRbt.so/2013.1/901 2013/11/27
 27 28  0  0  0  0  0  0  0  0999 V2000
    0.6339   29.3959   -6.5609 C   0  0  0  0  0  0  0  0  0  0  0  0
   -2.3859   33.3929   -9.7471 C   0  0  0  0  0  0  0  0  0  0  0  0
   -2.3404   33.5895  -12.7362 C   0  0  0  0  0  0  0  0  0  0  0  0
   -3.6650   34.3546  -12.7637 C   0  0  0  0  0  0  0  0  0  0  0  0
   -4.1104   34.6429  -11.4360 O   0  0  0  0  0  0  0  0  0  0  0  0
   -5.5753   35.2562  -11.1952 P   0  0  1  0  0  0  0  0  0  0  0  0
   -7.1102   36.0639   -8.9708 P   0  0  2  0  0  0  0  0  0  0  0  0
    0.6098   35.7692  -11.7384 C   0  0  0  0  0  0  0  0  0  0  0  0
    1.1109   31.4099   -7.9406 N   0  0  0  0  0  0  0  0  0  0  0  0
   -5.6349   36.7966  -11.6320 O   0  5  0  0  0  0  0  0  0  0  0  0
   -8.4284   35.9699   -9.6313 O   0  0  0  0  0  0  0  0  0  0  0  0
    0.6074   35.6914  -10.3520 C   0  0  0  0  0  0  0  0  0  0  0  0
    0.3558   30.8367   -6.9907 C   0  0  0  0  0  0  0  0  0  0  0  0
   -6.7260   34.4898  -12.0332 O   0  0  0  0  0  0  0  0  0  0  0  0
   -6.5427   37.5649   -8.9985 O   0  5  0  0  0  0  0  0  0  0  0  0
   -0.3599   34.9192   -9.7072 N   0  0  0  0  0  0  0  0  0  0  0  0
   -0.6443   31.5170   -6.4120 N   0  0  0  0  0  0  0  0  0  0  0  0
   -5.9796   35.1396   -9.6238 O   0  0  0  0  0  0  0  0  0  0  0  0
   -7.2179   35.6811   -7.4262 O   0  0  0  0  0  0  0  0  0  0  0  0
   -1.3222   34.2378  -10.4619 C   0  0  1  0  0  0  0  0  0  0  0  0
   -0.9029   32.7795   -6.7748 C   0  0  0  0  0  0  0  0  0  0  0  0
   -1.8956   33.4443   -6.1928 N   0  0  0  0  0  0  0  0  0  0  0  0
   -1.3187   34.3161  -11.8536 C   0  0  2  0  0  0  0  0  0  0  0  0
   -0.1341   33.3963   -7.7543 C   0  0  0  0  0  0  0  0  0  0  0  0
   -0.3469   35.0869  -12.4800 C   0  0  0  0  0  0  0  0  0  0  0  0
    0.8912   32.6547   -8.3298 C   0  0  0  0  0  0  0  0  0  0  0  0
   -0.3652   34.8374   -8.2276 C   0  0  0  0  0  0  0  0  0  0  0  0
  1 13  1  0  0  0  0
  3  4  1  0  0  0  0
  4  5  1  0  0  0  0
  6  5  1  6  0  0  0
  6 10  1  0  0  0  0
  6 14  2  0  0  0  0
  6 18  1  0  0  0  0
  7 11  1  6  0  0  0
  7 15  1  0  0  0  0
  7 19  2  0  0  0  0
  7 18  1  0  0  0  0
  8 25  1  0  0  0  0
  8 12  1  0  0  0  0
  9 26  2  0  0  0  0
  9 13  1  0  0  0  0
 12 16  1  0  0  0  0
 13 17  2  0  0  0  0
 16 20  1  0  0  0  0
 16 27  1  0  0  0  0
 17 21  1  0  0  0  0
 20  2  1  6  0  0  0
 20 23  1  0  0  0  0
 21 22  1  0  0  0  0
 21 24  2  0  0  0  0
 23  3  1  1  0  0  0
 23 25  1  0  0  0  0
 24 27  1  0  0  0  0
 24 26  1  0  0  0  0
M  CHG  2  10  -1  15  -1
M  END
>  <CHROM.1>
-51.40831615,-171.44416384,-73.61011230,159.07817643,56.86863208,79.15892462
-133.12166901,-117.94389247,-3.08771983,34.36870069,-9.60674475,0.43207166
-0.33283736,1.97772788

>  <Name>
ligand

>  <RI>
0

>  <Rbt.Current_Directory>
/home/itssahil/PROJECTS/Mol_Feturizer/New_Systems/rnas/3D2V

>  <Rbt.Executable>
rbdock ($Id: //depot/dev/client3/rdock/2013.1/src/exe/rbdock.cxx#4 $)

>  <Rbt.Library>
libRbt.so (2013.1, Build901 2013/11/27)

>  <Rbt.Parameter_File>
/export/apps/rDock/src/rDock_2013.1_src/data/scripts/dock_solv.prm

>  <Rbt.Receptor>
prm/blind_docking_40.prm

>  <SCORE>
-11.7936

>  <SCORE.INTER>
-12.938

>  <SCORE.INTER.CONST>
1

>  <SCORE.INTER.POLAR>
0

>  <SCORE.INTER.ROT>
8

>  <SCORE.INTER.SOLV>
25.4964

>  <SCORE.INTER.VDW>
-26.0575

>  <SCORE.INTER.norm>
-0.479186

>  <SCORE.INTRA>
1.14437

>  <SCORE.INTRA.DIHEDRAL>
-1.0596

>  <SCORE.INTRA.DIHEDRAL.0>
7.82666

>  <SCORE.INTRA.POLAR>
0

>  <SCORE.INTRA.POLAR.0>
0

>  <SCORE.INTRA.REPUL>
0

>  <SCORE.INTRA.REPUL.0>
0

>  <SCORE.INTRA.SOLV>
0.649509

>  <SCORE.INTRA.SOLV.lig_0>
-83.2758

>  <SCORE.INTRA.VDW>
1.34942

>  <SCORE.INTRA.VDW.0>
-3.26816

>  <SCORE.INTRA.norm>
0.0423842

>  <SCORE.RESTR>
0

>  <SCORE.RESTR.CAVITY>
0

>  <SCORE.RESTR.norm>
0

>  <SCORE.SYSTEM>
0

>  <SCORE.SYSTEM.CONST>
0

>  <SCORE.SYSTEM.DIHEDRAL>
0

>  <SCORE.SYSTEM.SOLV>
0

>  <SCORE.SYSTEM.norm>
0

>  <SCORE.heavy>
27

>  <SCORE.norm>
-0.436801

>  <RMSD>
10.736

$$$$
ligand
 OpenBabel11021811463D
libRbt.so/2013.1/901 2013/11/27
 27 28  0  0  0  0  0  0  0  0999 V2000
    1.7077   37.4340   -8.5019 C   0  0  0  0  0  0  0  0  0  0  0  0
   -3.5951   33.6213  -10.0564 C   0  0  0  0  0  0  0  0  0  0  0  0
   -6.1401   34.8934  -10.9944 C   0  0  0  0  0  0  0  0  0  0  0  0
   -6.0312   35.8997   -9.8472 C   0  0  0  0  0  0  0  0  0  0  0  0
   -7.1984   35.8552   -9.0226 O   0  0  0  0  0  0  0  0  0  0  0  0
   -7.2742   36.7463   -7.6883 P   0  0  1  0  0  0  0  0  0  0  0  0
   -6.3062   34.8505   -5.8376 P   0  0  2  0  0  0  0  0  0  0  0  0
   -3.7812   35.5698  -13.8977 C   0  0  0  0  0  0  0  0  0  0  0  0
    0.4870   36.8066  -10.5764 N   0  0  0  0  0  0  0  0  0  0  0  0
   -7.0158   38.2939   -8.0125 O   0  5  0  0  0  0  0  0  0  0  0  0
   -7.6826   34.5386   -5.4009 O   0  0  0  0  0  0  0  0  0  0  0  0
   -2.5916   34.9860  -13.4827 C   0  0  0  0  0  0  0  0  0  0  0  0
    0.9235   36.4416   -9.3610 C   0  0  0  0  0  0  0  0  0  0  0  0
   -8.7104   36.6584   -6.9514 O   0  0  0  0  0  0  0  0  0  0  0  0
   -5.2938   34.9163   -4.5940 O   0  5  0  0  0  0  0  0  0  0  0  0
   -2.5320   34.3519  -12.2409 N   0  0  0  0  0  0  0  0  0  0  0  0
    0.6782   35.2104   -8.8899 N   0  0  0  0  0  0  0  0  0  0  0  0
   -6.1615   36.2415   -6.6142 O   0  0  0  0  0  0  0  0  0  0  0  0
   -5.7355   33.7029   -6.7870 O   0  0  0  0  0  0  0  0  0  0  0  0
   -3.6675   34.3170  -11.4227 C   0  0  1  0  0  0  0  0  0  0  0  0
   -0.0070   34.3277   -9.6273 C   0  0  0  0  0  0  0  0  0  0  0  0
   -0.2456   33.1109   -9.1490 N   0  0  0  0  0  0  0  0  0  0  0  0
   -4.8614   34.9029  -11.8404 C   0  0  2  0  0  0  0  0  0  0  0  0
   -0.4718   34.6820  -10.8880 C   0  0  0  0  0  0  0  0  0  0  0  0
   -4.9045   35.5277  -13.0808 C   0  0  0  0  0  0  0  0  0  0  0  0
   -0.1937   35.9673  -11.3388 C   0  0  0  0  0  0  0  0  0  0  0  0
   -1.2624   33.7307  -11.7957 C   0  0  0  0  0  0  0  0  0  0  0  0
  1 13  1  0  0  0  0
  3  4  1  0  0  0  0
  4  5  1  0  0  0  0
  6  5  1  6  0  0  0
  6 10  1  0  0  0  0
  6 14  2  0  0  0  0
  6 18  1  0  0  0  0
  7 11  1  1  0  0  0
  7 15  1  0  0  0  0
  7 19  2  0  0  0  0
  7 18  1  0  0  0  0
  8 25  1  0  0  0  0
  8 12  1  0  0  0  0
  9 26  2  0  0  0  0
  9 13  1  0  0  0  0
 12 16  1  0  0  0  0
 13 17  2  0  0  0  0
 16 20  1  0  0  0  0
 16 27  1  0  0  0  0
 17 21  1  0  0  0  0
 20  2  1  6  0  0  0
 20 23  1  0  0  0  0
 21 22  1  0  0  0  0
 21 24  2  0  0  0  0
 23  3  1  1  0  0  0
 23 25  1  0  0  0  0
 24 27  1  0  0  0  0
 24 26  1  0  0  0  0
M  CHG  2  10  -1  15  -1
M  END
>  <CHROM.1>
-177.59881214,175.55202306,55.40889280,-71.21277702,-39.86552076,75.18552670
126.94000690,96.30050380,-4.04577482,35.37868389,-9.13300823,-0.55988119
-0.05139804,1.51944701

>  <Name>
ligand

>  <RI>
0

>  <Rbt.Current_Directory>
/home/itssahil/PROJECTS/Mol_Feturizer/New_Systems/rnas/3D2V

>  <Rbt.Executable>
rbdock ($Id: //depot/dev/client3/rdock/2013.1/src/exe/rbdock.cxx#4 $)

>  <Rbt.Library>
libRbt.so (2013.1, Build901 2013/11/27)

>  <Rbt.Parameter_File>
/export/apps/rDock/src/rDock_2013.1_src/data/scripts/dock_solv.prm

>  <Rbt.Receptor>
prm/blind_docking_40.prm

>  <SCORE>
-17.0834

>  <SCORE.INTER>
-16.3359

>  <SCORE.INTER.CONST>
1

>  <SCORE.INTER.POLAR>
0

>  <SCORE.INTER.ROT>
8

>  <SCORE.INTER.SOLV>
25.0794

>  <SCORE.INTER.VDW>
-28.1837

>  <SCORE.INTER.norm>
-0.605032

>  <SCORE.INTRA>
-1.42868

>  <SCORE.INTRA.DIHEDRAL>
-1.71516

>  <SCORE.INTRA.DIHEDRAL.0>
7.82666

>  <SCORE.INTRA.POLAR>
0

>  <SCORE.INTRA.POLAR.0>
0

>  <SCORE.INTRA.REPUL>
0

>  <SCORE.INTRA.REPUL.0>
0

>  <SCORE.INTRA.SOLV>
-0.0199431

>  <SCORE.INTRA.SOLV.lig_0>
-83.2758

>  <SCORE.INTRA.VDW>
-0.561134

>  <SCORE.INTRA.VDW.0>
-3.26816

>  <SCORE.INTRA.norm>
-0.0529142

>  <SCORE.RESTR>
0.681173

>  <SCORE.RESTR.CAVITY>
0.681173

>  <SCORE.RESTR.norm>
0.0252286

>  <SCORE.SYSTEM>
0

>  <SCORE.SYSTEM.CONST>
0

>  <SCORE.SYSTEM.DIHEDRAL>
0

>  <SCORE.SYSTEM.SOLV>
0

>  <SCORE.SYSTEM.norm>
0

>  <SCORE.heavy>
27

>  <SCORE.norm>
-0.632717

>  <RMSD>
10.835

$$$$
ligand
 OpenBabel11021811463D
libRbt.so/2013.1/901 2013/11/27
 27 28  0  0  0  0  0  0  0  0999 V2000
    0.3948   28.8558   -4.4664 C   0  0  0  0  0  0  0  0  0  0  0  0
   -0.3396   35.1967  -10.2231 C   0  0  0  0  0  0  0  0  0  0  0  0
   -1.7830   34.3763  -12.7168 C   0  0  0  0  0  0  0  0  0  0  0  0
   -2.9116   35.4063  -12.6405 C   0  0  0  0  0  0  0  0  0  0  0  0
   -4.0231   34.8856  -11.9071 O   0  0  0  0  0  0  0  0  0  0  0  0
   -5.3431   35.7786  -11.7070 P   0  0  1  0  0  0  0  0  0  0  0  0
   -6.5555   35.4139   -9.1863 P   0  0  2  0  0  0  0  0  0  0  0  0
   -2.4770   31.4562  -10.3840 C   0  0  0  0  0  0  0  0  0  0  0  0
    1.1555   30.5122   -6.1589 N   0  0  0  0  0  0  0  0  0  0  0  0
   -5.2671   37.1235  -12.5745 O   0  5  0  0  0  0  0  0  0  0  0  0
   -6.7676   36.0647   -7.8771 O   0  0  0  0  0  0  0  0  0  0  0  0
   -1.8153   31.8173   -9.2179 C   0  0  0  0  0  0  0  0  0  0  0  0
    0.1629   30.0633   -5.3751 C   0  0  0  0  0  0  0  0  0  0  0  0
   -6.6960   35.0135  -12.1518 O   0  0  0  0  0  0  0  0  0  0  0  0
   -6.0042   33.9161   -9.0176 O   0  5  0  0  0  0  0  0  0  0  0  0
   -1.1264   33.0299   -9.1641 N   0  0  0  0  0  0  0  0  0  0  0  0
   -1.0353   30.6653   -5.3805 N   0  0  0  0  0  0  0  0  0  0  0  0
   -5.5191   36.1740  -10.1388 O   0  0  0  0  0  0  0  0  0  0  0  0
   -7.9307   35.2711   -9.9816 O   0  0  0  0  0  0  0  0  0  0  0  0
   -1.1019   33.8660  -10.2868 C   0  0  1  0  0  0  0  0  0  0  0  0
   -1.2572   31.7241   -6.1692 C   0  0  0  0  0  0  0  0  0  0  0  0
   -2.4483   32.3136   -6.1645 N   0  0  0  0  0  0  0  0  0  0  0  0
   -1.7669   33.5028  -11.4568 C   0  0  2  0  0  0  0  0  0  0  0  0
   -0.2451   32.2095   -6.9883 C   0  0  0  0  0  0  0  0  0  0  0  0
   -2.4504   32.2936  -11.4926 C   0  0  0  0  0  0  0  0  0  0  0  0
    0.9808   31.5549   -6.9535 C   0  0  0  0  0  0  0  0  0  0  0  0
   -0.4177   33.4153   -7.9211 C   0  0  0  0  0  0  0  0  0  0  0  0
  1 13  1  0  0  0  0
  3  4  1  0  0  0  0
  4  5  1  0  0  0  0
  6  5  1  6  0  0  0
  6 10  1  0  0  0  0
  6 14  2  0  0  0  0
  6 18  1  0  0  0  0
  7 11  1  1  0  0  0
  7 15  1  0  0  0  0
  7 19  2  0  0  0  0
  7 18  1  0  0  0  0
  8 25  1  0  0  0  0
  8 12  1  0  0  0  0
  9 26  2  0  0  0  0
  9 13  1  0  0  0  0
 12 16  1  0  0  0  0
 13 17  2  0  0  0  0
 16 20  1  0  0  0  0
 16 27  1  0  0  0  0
 17 21  1  0  0  0  0
 20  2  1  1  0  0  0
 20 23  1  0  0  0  0
 21 22  1  0  0  0  0
 21 24  2  0  0  0  0
 23  3  1  6  0  0  0
 23 25  1  0  0  0  0
 24 27  1  0  0  0  0
 24 26  1  0  0  0  0
M  CHG  2  10  -1  15  -1
M  END
>  <CHROM.1>
-31.76845205,-179.20076640,7.66890468,-101.62522727,-168.95692592,-85.85063801
-79.43194019,15.52843242,-3.12727558,33.70845918,-9.33697457,0.79832472,-0.37575976
2.01299130

>  <Name>
ligand

>  <RI>
0

>  <Rbt.Current_Directory>
/home/itssahil/PROJECTS/Mol_Feturizer/New_Systems/rnas/3D2V

>  <Rbt.Executable>
rbdock ($Id: //depot/dev/client3/rdock/2013.1/src/exe/rbdock.cxx#4 $)

>  <Rbt.Library>
libRbt.so (2013.1, Build901 2013/11/27)

>  <Rbt.Parameter_File>
/export/apps/rDock/src/rDock_2013.1_src/data/scripts/dock_solv.prm

>  <Rbt.Receptor>
prm/blind_docking_40.prm

>  <SCORE>
-1.87613

>  <SCORE.INTER>
-6.70969

>  <SCORE.INTER.CONST>
1

>  <SCORE.INTER.POLAR>
0

>  <SCORE.INTER.ROT>
8

>  <SCORE.INTER.SOLV>
22.3161

>  <SCORE.INTER.VDW>
-20.8451

>  <SCORE.INTER.norm>
-0.248507

>  <SCORE.INTRA>
4.0816

>  <SCORE.INTRA.DIHEDRAL>
4.22788

>  <SCORE.INTRA.DIHEDRAL.0>
7.82666

>  <SCORE.INTRA.POLAR>
0

>  <SCORE.INTRA.POLAR.0>
0

>  <SCORE.INTRA.REPUL>
0

>  <SCORE.INTRA.REPUL.0>
0

>  <SCORE.INTRA.SOLV>
1.7417

>  <SCORE.INTRA.SOLV.lig_0>
-83.2758

>  <SCORE.INTRA.VDW>
1.09681

>  <SCORE.INTRA.VDW.0>
-3.26816

>  <SCORE.INTRA.norm>
0.15117

>  <SCORE.RESTR>
0.751962

>  <SCORE.RESTR.CAVITY>
0.751962

>  <SCORE.RESTR.norm>
0.0278505

>  <SCORE.SYSTEM>
0

>  <SCORE.SYSTEM.CONST>
0

>  <SCORE.SYSTEM.DIHEDRAL>
0

>  <SCORE.SYSTEM.SOLV>
0

>  <SCORE.SYSTEM.norm>
0

>  <SCORE.heavy>
27

>  <SCORE.norm>
-0.0694861

>  <RMSD>
10.843

$$$$
ligand
 OpenBabel11021811463D
libRbt.so/2013.1/901 2013/11/27
 27 28  0  0  0  0  0  0  0  0999 V2000
    0.9727   28.8243   -5.0183 C   0  0  0  0  0  0  0  0  0  0  0  0
   -1.8653   32.6059  -10.5493 C   0  0  0  0  0  0  0  0  0  0  0  0
   -0.0717   34.5809  -11.9122 C   0  0  0  0  0  0  0  0  0  0  0  0
   -1.1918   35.2989  -12.6674 C   0  0  0  0  0  0  0  0  0  0  0  0
   -2.4683   34.7656  -12.3063 O   0  0  0  0  0  0  0  0  0  0  0  0
   -3.7384   35.0056  -13.2597 P   0  0  1  0  0  0  0  0  0  0  0  0
   -5.8754   35.2558  -11.4357 P   0  0  2  0  0  0  0  0  0  0  0  0
    0.1029   35.7011   -8.2837 C   0  0  0  0  0  0  0  0  0  0  0  0
    0.5969   31.1009   -5.9472 N   0  0  0  0  0  0  0  0  0  0  0  0
   -3.9429   36.5647  -13.5671 O   0  5  0  0  0  0  0  0  0  0  0  0
   -5.7344   36.7218  -11.5520 O   0  0  0  0  0  0  0  0  0  0  0  0
   -0.7238   34.7956   -7.6319 C   0  0  0  0  0  0  0  0  0  0  0  0
    0.1087   29.8713   -5.7219 C   0  0  0  0  0  0  0  0  0  0  0  0
   -3.6037   34.2630  -14.6894 O   0  0  0  0  0  0  0  0  0  0  0  0
   -5.3468   34.7233  -10.0170 O   0  5  0  0  0  0  0  0  0  0  0  0
   -1.3582   33.7912   -8.3643 N   0  0  0  0  0  0  0  0  0  0  0  0
   -1.1342   29.5499   -6.1090 N   0  0  0  0  0  0  0  0  0  0  0  0
   -5.0854   34.4280  -12.5537 O   0  0  0  0  0  0  0  0  0  0  0  0
   -7.4091   34.8233  -11.5048 O   0  0  0  0  0  0  0  0  0  0  0  0
   -1.1622   33.7105   -9.7483 C   0  0  1  0  0  0  0  0  0  0  0  0
   -1.9058   30.4532   -6.7261 C   0  0  0  0  0  0  0  0  0  0  0  0
   -3.1368   30.1235   -7.1035 N   0  0  0  0  0  0  0  0  0  0  0  0
   -0.3318   34.6196  -10.4016 C   0  0  2  0  0  0  0  0  0  0  0  0
   -1.4244   31.7339   -6.9690 C   0  0  0  0  0  0  0  0  0  0  0  0
    0.2945   35.6117   -9.6571 C   0  0  0  0  0  0  0  0  0  0  0  0
   -0.1301   32.0247   -6.5532 C   0  0  0  0  0  0  0  0  0  0  0  0
   -2.2427   32.8258   -7.6704 C   0  0  0  0  0  0  0  0  0  0  0  0
  1 13  1  0  0  0  0
  3  4  1  0  0  0  0
  4  5  1  0  0  0  0
  6  5  1  1  0  0  0
  6 10  1  0  0  0  0
  6 14  2  0  0  0  0
  6 18  1  0  0  0  0
  7 11  1  6  0  0  0
  7 15  1  0  0  0  0
  7 19  2  0  0  0  0
  7 18  1  0  0  0  0
  8 25  1  0  0  0  0
  8 12  1  0  0  0  0
  9 26  2  0  0  0  0
  9 13  1  0  0  0  0
 12 16  1  0  0  0  0
 13 17  2  0  0  0  0
 16 20  1  0  0  0  0
 16 27  1  0  0  0  0
 17 21  1  0  0  0  0
 20  2  1  1  0  0  0
 20 23  1  0  0  0  0
 21 22  1  0  0  0  0
 21 24  2  0  0  0  0
 23  3  1  6  0  0  0
 23 25  1  0  0  0  0
 24 27  1  0  0  0  0
 24 26  1  0  0  0  0
M  CHG  2  10  -1  15  -1
M  END
>  <CHROM.1>
-54.00828096,-160.86413184,-53.74089660,80.69589529,28.05326935,83.40467404
-152.54408518,-79.49599765,-2.51188034,33.66802487,-9.93847870,1.06766168
0.11328297,2.25842967

>  <Name>
ligand

>  <RI>
0

>  <Rbt.Current_Directory>
/home/itssahil/PROJECTS/Mol_Feturizer/New_Systems/rnas/3D2V

>  <Rbt.Executable>
rbdock ($Id: //depot/dev/client3/rdock/2013.1/src/exe/rbdock.cxx#4 $)

>  <Rbt.Library>
libRbt.so (2013.1, Build901 2013/11/27)

>  <Rbt.Parameter_File>
/export/apps/rDock/src/rDock_2013.1_src/data/scripts/dock_solv.prm

>  <Rbt.Receptor>
prm/blind_docking_40.prm

>  <SCORE>
-14.8528

>  <SCORE.INTER>
-15.2571

>  <SCORE.INTER.CONST>
1

>  <SCORE.INTER.POLAR>
0

>  <SCORE.INTER.ROT>
8

>  <SCORE.INTER.SOLV>
20.8014

>  <SCORE.INTER.VDW>
-26.0385

>  <SCORE.INTER.norm>
-0.565078

>  <SCORE.INTRA>
0.212537

>  <SCORE.INTRA.DIHEDRAL>
1.19013

>  <SCORE.INTRA.DIHEDRAL.0>
7.82666

>  <SCORE.INTRA.POLAR>
0

>  <SCORE.INTRA.POLAR.0>
0

>  <SCORE.INTRA.REPUL>
0

>  <SCORE.INTRA.REPUL.0>
0

>  <SCORE.INTRA.SOLV>
-1.08596

>  <SCORE.INTRA.SOLV.lig_0>
-83.2758

>  <SCORE.INTRA.VDW>
0.160453

>  <SCORE.INTRA.VDW.0>
-3.26816

>  <SCORE.INTRA.norm>
0.00787173

>  <SCORE.RESTR>
0.191716

>  <SCORE.RESTR.CAVITY>
0.191716

>  <SCORE.RESTR.norm>
0.00710059

>  <SCORE.SYSTEM>
0

>  <SCORE.SYSTEM.CONST>
0

>  <SCORE.SYSTEM.DIHEDRAL>
0

>  <SCORE.SYSTEM.SOLV>
0

>  <SCORE.SYSTEM.norm>
0

>  <SCORE.heavy>
27

>  <SCORE.norm>
-0.550105

>  <RMSD>
10.871

$$$$
ligand
 OpenBabel11021811463D
libRbt.so/2013.1/901 2013/11/27
 27 28  0  0  0  0  0  0  0  0999 V2000
  -12.0019   34.0431  -13.5139 C   0  0  0  0  0  0  0  0  0  0  0  0
   -5.9381   33.5242  -10.1232 C   0  0  0  0  0  0  0  0  0  0  0  0
   -5.9686   32.9038   -7.1924 C   0  0  0  0  0  0  0  0  0  0  0  0
   -4.4803   32.8281   -7.5385 C   0  0  0  0  0  0  0  0  0  0  0  0
   -3.7750   32.0464   -6.5712 O   0  0  0  0  0  0  0  0  0  0  0  0
   -2.1690   32.0179   -6.5774 P   0  0  1  0  0  0  0  0  0  0  0  0
   -0.3851   30.0116   -5.7120 P   0  0  2  0  0  0  0  0  0  0  0  0
   -7.7603   36.2538   -7.3276 C   0  0  0  0  0  0  0  0  0  0  0  0
  -10.7690   35.2837  -11.7452 N   0  0  0  0  0  0  0  0  0  0  0  0
   -1.6054   31.5600   -8.0056 O   0  5  0  0  0  0  0  0  0  0  0  0
    0.8590   30.7026   -6.1085 O   0  0  0  0  0  0  0  0  0  0  0  0
   -7.7578   36.5607   -8.6819 C   0  0  0  0  0  0  0  0  0  0  0  0
  -10.7125   34.5536  -12.8699 C   0  0  0  0  0  0  0  0  0  0  0  0
   -1.5110   33.4595   -6.2577 O   0  0  0  0  0  0  0  0  0  0  0  0
   -0.8641   28.9694   -6.8346 O   0  5  0  0  0  0  0  0  0  0  0  0
   -7.1714   35.6755   -9.5876 N   0  0  0  0  0  0  0  0  0  0  0  0
   -9.5321   34.2658  -13.4373 N   0  0  0  0  0  0  0  0  0  0  0  0
   -1.6230   30.9883   -5.4423 O   0  0  0  0  0  0  0  0  0  0  0  0
   -0.1586   29.1403   -4.3954 O   0  0  0  0  0  0  0  0  0  0  0  0
   -6.5848   34.4923   -9.1228 C   0  0  1  0  0  0  0  0  0  0  0  0
   -8.3925   34.7042  -12.8882 C   0  0  0  0  0  0  0  0  0  0  0  0
   -7.2287   34.4142  -13.4608 N   0  0  0  0  0  0  0  0  0  0  0  0
   -6.5882   34.1849   -7.7632 C   0  0  1  0  0  0  0  0  0  0  0  0
   -8.4243   35.4639  -11.7252 C   0  0  0  0  0  0  0  0  0  0  0  0
   -7.1789   35.0756   -6.8752 C   0  0  0  0  0  0  0  0  0  0  0  0
   -9.6685   35.7375  -11.1688 C   0  0  0  0  0  0  0  0  0  0  0  0
   -7.1657   36.0029  -11.0328 C   0  0  0  0  0  0  0  0  0  0  0  0
  1 13  1  0  0  0  0
  3  4  1  0  0  0  0
  4  5  1  0  0  0  0
  6  5  1  1  0  0  0
  6 10  1  0  0  0  0
  6 14  2  0  0  0  0
  6 18  1  0  0  0  0
  7 11  1  6  0  0  0
  7 15  1  0  0  0  0
  7 19  2  0  0  0  0
  7 18  1  0  0  0  0
  8 25  1  0  0  0  0
  8 12  1  0  0  0  0
  9 26  2  0  0  0  0
  9 13  1  0  0  0  0
 12 16  1  0  0  0  0
 13 17  2  0  0  0  0
 16 20  1  0  0  0  0
 16 27  1  0  0  0  0
 17 21  1  0  0  0  0
 20  2  1  6  0  0  0
 20 23  1  0  0  0  0
 21 22  1  0  0  0  0
 21 24  2  0  0  0  0
 23  3  1  6  0  0  0
 23 25  1  0  0  0  0
 24 27  1  0  0  0  0
 24 26  1  0  0  0  0
M  CHG  2  10  -1  15  -1
M  END
>  <CHROM.1>
153.51316954,-169.93359713,-55.84276905,139.19229747,57.30013577,59.04327130
-129.71507810,-89.52679493,-5.11534754,33.14712082,-8.61203848,-2.90404955
-0.68259700,1.00880708

>  <Name>
ligand

>  <RI>
0

>  <Rbt.Current_Directory>
/home/itssahil/PROJECTS/Mol_Feturizer/New_Systems/rnas/3D2V

>  <Rbt.Executable>
rbdock ($Id: //depot/dev/client3/rdock/2013.1/src/exe/rbdock.cxx#4 $)

>  <Rbt.Library>
libRbt.so (2013.1, Build901 2013/11/27)

>  <Rbt.Parameter_File>
/export/apps/rDock/src/rDock_2013.1_src/data/scripts/dock_solv.prm

>  <Rbt.Receptor>
prm/blind_docking_40.prm

>  <SCORE>
-6.50075

>  <SCORE.INTER>
-10.3157

>  <SCORE.INTER.CONST>
1

>  <SCORE.INTER.POLAR>
0

>  <SCORE.INTER.ROT>
8

>  <SCORE.INTER.SOLV>
22.0741

>  <SCORE.INTER.VDW>
-23.1685

>  <SCORE.INTER.norm>
-0.382064

>  <SCORE.INTRA>
2.11555

>  <SCORE.INTRA.DIHEDRAL>
1.97153

>  <SCORE.INTRA.DIHEDRAL.0>
7.82666

>  <SCORE.INTRA.POLAR>
0

>  <SCORE.INTRA.POLAR.0>
0

>  <SCORE.INTRA.REPUL>
0

>  <SCORE.INTRA.REPUL.0>
0

>  <SCORE.INTRA.SOLV>
0.127248

>  <SCORE.INTRA.SOLV.lig_0>
-83.2758

>  <SCORE.INTRA.VDW>
1.06616

>  <SCORE.INTRA.VDW.0>
-3.26816

>  <SCORE.INTRA.norm>
0.0783536

>  <SCORE.RESTR>
1.69944

>  <SCORE.RESTR.CAVITY>
1.69944

>  <SCORE.RESTR.norm>
0.0629421

>  <SCORE.SYSTEM>
0

>  <SCORE.SYSTEM.CONST>
0

>  <SCORE.SYSTEM.DIHEDRAL>
0

>  <SCORE.SYSTEM.SOLV>
0

>  <SCORE.SYSTEM.norm>
0

>  <SCORE.heavy>
27

>  <SCORE.norm>
-0.240769

>  <RMSD>
10.950

$$$$
ligand
 OpenBabel11021811463D
libRbt.so/2013.1/901 2013/11/27
 27 28  0  0  0  0  0  0  0  0999 V2000
   -8.5997   35.5285  -12.5496 C   0  0  0  0  0  0  0  0  0  0  0  0
   -0.3507   35.7514  -12.0952 C   0  0  0  0  0  0  0  0  0  0  0  0
    0.7182   35.0765   -9.3791 C   0  0  0  0  0  0  0  0  0  0  0  0
    0.5436   36.5006   -8.8480 C   0  0  0  0  0  0  0  0  0  0  0  0
    1.4127   36.7367   -7.7376 O   0  0  0  0  0  0  0  0  0  0  0  0
    2.9739   37.0218   -7.9854 P   0  0  1  0  0  0  0  0  0  0  0  0
    5.4030   36.6492   -6.6009 P   0  0  2  0  0  0  0  0  0  0  0  0
   -2.5610   33.1552   -9.4569 C   0  0  0  0  0  0  0  0  0  0  0  0
   -6.2411   35.9856  -11.9051 N   0  0  0  0  0  0  0  0  0  0  0  0
    3.5652   36.0525   -9.1159 O   0  5  0  0  0  0  0  0  0  0  0  0
    6.1244   37.8415   -7.0914 O   0  0  0  0  0  0  0  0  0  0  0  0
   -3.0745   33.4545  -10.7119 C   0  0  0  0  0  0  0  0  0  0  0  0
   -7.0958   35.2736  -12.6557 C   0  0  0  0  0  0  0  0  0  0  0  0
    3.2700   38.5358   -8.4689 O   0  0  0  0  0  0  0  0  0  0  0  0
    5.7455   35.3503   -7.4791 O   0  5  0  0  0  0  0  0  0  0  0  0
   -2.3576   34.2918  -11.5677 N   0  0  0  0  0  0  0  0  0  0  0  0
   -6.6429   34.3369  -13.5016 N   0  0  0  0  0  0  0  0  0  0  0  0
    3.8100   36.7946   -6.6085 O   0  0  0  0  0  0  0  0  0  0  0  0
    5.8499   36.2841   -5.1140 O   0  0  0  0  0  0  0  0  0  0  0  0
   -1.1332   34.8281  -11.1511 C   0  0  1  0  0  0  0  0  0  0  0  0
   -5.3297   34.0996  -13.6087 C   0  0  0  0  0  0  0  0  0  0  0  0
   -4.8926   33.1699  -14.4519 N   0  0  0  0  0  0  0  0  0  0  0  0
   -0.6183   34.5267   -9.8913 C   0  0  1  0  0  0  0  0  0  0  0  0
   -4.4240   34.8250  -12.8441 C   0  0  0  0  0  0  0  0  0  0  0  0
   -1.3435   33.6890   -9.0527 C   0  0  0  0  0  0  0  0  0  0  0  0
   -4.9359   35.7849  -11.9786 C   0  0  0  0  0  0  0  0  0  0  0  0
   -2.9056   34.6142  -12.9062 C   0  0  0  0  0  0  0  0  0  0  0  0
  1 13  1  0  0  0  0
  3  4  1  0  0  0  0
  4  5  1  0  0  0  0
  6  5  1  1  0  0  0
  6 10  1  0  0  0  0
  6 14  2  0  0  0  0
  6 18  1  0  0  0  0
  7 11  1  6  0  0  0
  7 15  1  0  0  0  0
  7 19  2  0  0  0  0
  7 18  1  0  0  0  0
  8 25  1  0  0  0  0
  8 12  1  0  0  0  0
  9 26  2  0  0  0  0
  9 13  1  0  0  0  0
 12 16  1  0  0  0  0
 13 17  2  0  0  0  0
 16 20  1  0  0  0  0
 16 27  1  0  0  0  0
 17 21  1  0  0  0  0
 20  2  1  6  0  0  0
 20 23  1  0  0  0  0
 21 22  1  0  0  0  0
 21 24  2  0  0  0  0
 23  3  1  6  0  0  0
 23 25  1  0  0  0  0
 24 27  1  0  0  0  0
 24 26  1  0  0  0  0
M  CHG  2  10  -1  15  -1
M  END
>  <CHROM.1>
145.80451771,77.42355214,-41.63287319,164.79830866,62.25600169,81.11935457
-123.20647054,39.21062760,-0.17127988,35.62339252,-9.80566728,2.75555675
0.37379474,-2.66278329

>  <Name>
ligand

>  <RI>
0

>  <Rbt.Current_Directory>
/home/itssahil/PROJECTS/Mol_Feturizer/New_Systems/rnas/3D2V

>  <Rbt.Executable>
rbdock ($Id: //depot/dev/client3/rdock/2013.1/src/exe/rbdock.cxx#4 $)

>  <Rbt.Library>
libRbt.so (2013.1, Build901 2013/11/27)

>  <Rbt.Parameter_File>
/export/apps/rDock/src/rDock_2013.1_src/data/scripts/dock_solv.prm

>  <Rbt.Receptor>
prm/blind_docking_60.prm

>  <SCORE>
-14.9863

>  <SCORE.INTER>
-17.7679

>  <SCORE.INTER.CONST>
1

>  <SCORE.INTER.POLAR>
0

>  <SCORE.INTER.ROT>
8

>  <SCORE.INTER.SOLV>
26.3573

>  <SCORE.INTER.VDW>
-29.5644

>  <SCORE.INTER.norm>
-0.658071

>  <SCORE.INTRA>
2.07631

>  <SCORE.INTRA.DIHEDRAL>
2.98259

>  <SCORE.INTRA.DIHEDRAL.0>
7.82666

>  <SCORE.INTRA.POLAR>
0

>  <SCORE.INTRA.POLAR.0>
0

>  <SCORE.INTRA.REPUL>
0

>  <SCORE.INTRA.REPUL.0>
0

>  <SCORE.INTRA.SOLV>
0.360382

>  <SCORE.INTRA.SOLV.lig_0>
-83.2758

>  <SCORE.INTRA.VDW>
0.404827

>  <SCORE.INTRA.VDW.0>
-3.26816

>  <SCORE.INTRA.norm>
0.0769005

>  <SCORE.RESTR>
0.705281

>  <SCORE.RESTR.CAVITY>
0.705281

>  <SCORE.RESTR.norm>
0.0261215

>  <SCORE.SYSTEM>
0

>  <SCORE.SYSTEM.CONST>
0

>  <SCORE.SYSTEM.DIHEDRAL>
0

>  <SCORE.SYSTEM.SOLV>
0

>  <SCORE.SYSTEM.norm>
0

>  <SCORE.heavy>
27

>  <SCORE.norm>
-0.555049

>  <RMSD>
10.956

$$$$
ligand
 OpenBabel11021811463D
libRbt.so/2013.1/901 2013/11/27
 27 28  0  0  0  0  0  0  0  0999 V2000
   -8.0976   37.0631   -7.8733 C   0  0  0  0  0  0  0  0  0  0  0  0
   -3.2969   32.8358  -10.7796 C   0  0  0  0  0  0  0  0  0  0  0  0
   -0.5673   33.9440  -11.3243 C   0  0  0  0  0  0  0  0  0  0  0  0
   -0.6917   33.9856   -9.8001 C   0  0  0  0  0  0  0  0  0  0  0  0
    0.2558   33.1051   -9.1909 O   0  0  0  0  0  0  0  0  0  0  0  0
   -0.0273   32.5088   -7.7265 P   0  0  1  0  0  0  0  0  0  0  0  0
   -1.5436   30.4526   -6.5310 P   0  0  2  0  0  0  0  0  0  0  0  0
   -2.7820   36.1530  -13.4846 C   0  0  0  0  0  0  0  0  0  0  0  0
   -6.1291   36.0164   -8.9764 N   0  0  0  0  0  0  0  0  0  0  0  0
    1.3114   31.9149   -7.0766 O   0  5  0  0  0  0  0  0  0  0  0  0
   -2.7472   29.6172   -6.7204 O   0  0  0  0  0  0  0  0  0  0  0  0
   -4.0561   35.6553  -13.2459 C   0  0  0  0  0  0  0  0  0  0  0  0
   -7.4479   36.2637   -9.0032 C   0  0  0  0  0  0  0  0  0  0  0  0
   -0.5952   33.6151   -6.6935 O   0  0  0  0  0  0  0  0  0  0  0  0
   -1.7271   31.4840   -5.3152 O   0  5  0  0  0  0  0  0  0  0  0  0
   -4.2237   34.5839  -12.3674 N   0  0  0  0  0  0  0  0  0  0  0  0
   -8.2051   35.8152  -10.0149 N   0  0  0  0  0  0  0  0  0  0  0  0
   -1.1408   31.3257   -7.8095 O   0  0  0  0  0  0  0  0  0  0  0  0
   -0.2837   29.5566   -6.1388 O   0  0  0  0  0  0  0  0  0  0  0  0
   -3.1070   34.0163  -11.7420 C   0  0  1  0  0  0  0  0  0  0  0  0
   -7.6542   35.1138  -11.0133 C   0  0  0  0  0  0  0  0  0  0  0  0
   -8.4146   34.6761  -12.0116 N   0  0  0  0  0  0  0  0  0  0  0  0
   -1.8284   34.5170  -11.9820 C   0  0  1  0  0  0  0  0  0  0  0  0
   -6.2906   34.8464  -11.0100 C   0  0  0  0  0  0  0  0  0  0  0  0
   -1.6795   35.5860  -12.8571 C   0  0  0  0  0  0  0  0  0  0  0  0
   -5.5429   35.3279   -9.9415 C   0  0  0  0  0  0  0  0  0  0  0  0
   -5.5825   34.0500  -12.1137 C   0  0  0  0  0  0  0  0  0  0  0  0
  1 13  1  0  0  0  0
  3  4  1  0  0  0  0
  4  5  1  0  0  0  0
  6  5  1  6  0  0  0
  6 10  1  0  0  0  0
  6 14  2  0  0  0  0
  6 18  1  0  0  0  0
  7 11  1  6  0  0  0
  7 15  1  0  0  0  0
  7 19  2  0  0  0  0
  7 18  1  0  0  0  0
  8 25  1  0  0  0  0
  8 12  1  0  0  0  0
  9 26  2  0  0  0  0
  9 13  1  0  0  0  0
 12 16  1  0  0  0  0
 13 17  2  0  0  0  0
 16 20  1  0  0  0  0
 16 27  1  0  0  0  0
 17 21  1  0  0  0  0
 20  2  1  1  0  0  0
 20 23  1  0  0  0  0
 21 22  1  0  0  0  0
 21 24  2  0  0  0  0
 23  3  1  1  0  0  0
 23 25  1  0  0  0  0
 24 27  1  0  0  0  0
 24 26  1  0  0  0  0
M  CHG  2  10  -1  15  -1
M  END
>  <CHROM.1>
162.16940412,-155.25847505,-163.53167808,174.73621701,168.42818187,-56.96411787
144.26119277,-85.19475778,-3.06582026,33.52049333,-9.33972794,2.40084833
0.28542258,-1.06692053

>  <Name>
ligand

>  <RI>
0

>  <Rbt.Current_Directory>
/home/itssahil/PROJECTS/Mol_Feturizer/New_Systems/rnas/3D2V

>  <Rbt.Executable>
rbdock ($Id: //depot/dev/client3/rdock/2013.1/src/exe/rbdock.cxx#4 $)

>  <Rbt.Library>
libRbt.so (2013.1, Build901 2013/11/27)

>  <Rbt.Parameter_File>
/export/apps/rDock/src/rDock_2013.1_src/data/scripts/dock_solv.prm

>  <Rbt.Receptor>
prm/blind_docking_40.prm

>  <SCORE>
-4.58617

>  <SCORE.INTER>
-8.3805

>  <SCORE.INTER.CONST>
1

>  <SCORE.INTER.POLAR>
0

>  <SCORE.INTER.ROT>
8

>  <SCORE.INTER.SOLV>
21.6494

>  <SCORE.INTER.VDW>
-21.7368

>  <SCORE.INTER.norm>
-0.310389

>  <SCORE.INTRA>
2.68529

>  <SCORE.INTRA.DIHEDRAL>
1.75549

>  <SCORE.INTRA.DIHEDRAL.0>
7.82666

>  <SCORE.INTRA.POLAR>
0

>  <SCORE.INTRA.POLAR.0>
0

>  <SCORE.INTRA.REPUL>
0

>  <SCORE.INTRA.REPUL.0>
0

>  <SCORE.INTRA.SOLV>
1.41069

>  <SCORE.INTRA.SOLV.lig_0>
-83.2758

>  <SCORE.INTRA.VDW>
1.1022

>  <SCORE.INTRA.VDW.0>
-3.26816

>  <SCORE.INTRA.norm>
0.0994553

>  <SCORE.RESTR>
1.10904

>  <SCORE.RESTR.CAVITY>
1.10904

>  <SCORE.RESTR.norm>
0.0410756

>  <SCORE.SYSTEM>
0

>  <SCORE.SYSTEM.CONST>
0

>  <SCORE.SYSTEM.DIHEDRAL>
0

>  <SCORE.SYSTEM.SOLV>
0

>  <SCORE.SYSTEM.norm>
0

>  <SCORE.heavy>
27

>  <SCORE.norm>
-0.169858

>  <RMSD>
10.981

$$$$
ligand
 OpenBabel11021811463D
libRbt.so/2013.1/901 2013/11/27
 27 28  0  0  0  0  0  0  0  0999 V2000
   -8.2152   35.6373  -12.2254 C   0  0  0  0  0  0  0  0  0  0  0  0
   -0.1109   35.4874  -12.0350 C   0  0  0  0  0  0  0  0  0  0  0  0
    1.0313   35.0514   -9.3000 C   0  0  0  0  0  0  0  0  0  0  0  0
    0.7953   36.4560   -8.7415 C   0  0  0  0  0  0  0  0  0  0  0  0
    1.8157   37.3544   -9.1839 O   0  0  0  0  0  0  0  0  0  0  0  0
    3.2109   37.4384   -8.3924 P   0  0  1  0  0  0  0  0  0  0  0  0
    5.0021   35.7187   -7.0543 P   0  0  2  0  0  0  0  0  0  0  0  0
   -2.1780   33.0180   -9.1687 C   0  0  0  0  0  0  0  0  0  0  0  0
   -5.8236   35.8033  -11.5624 N   0  0  0  0  0  0  0  0  0  0  0  0
    4.3774   37.9989   -9.3369 O   0  5  0  0  0  0  0  0  0  0  0  0
    5.2407   36.6686   -5.9483 O   0  0  0  0  0  0  0  0  0  0  0  0
   -2.7249   33.2063  -10.4311 C   0  0  0  0  0  0  0  0  0  0  0  0
   -6.7435   35.2472  -12.3657 C   0  0  0  0  0  0  0  0  0  0  0  0
    3.1476   38.4119   -7.1033 O   0  0  0  0  0  0  0  0  0  0  0  0
    6.1795   35.7742   -8.1435 O   0  5  0  0  0  0  0  0  0  0  0  0
   -2.0542   34.0025  -11.3605 N   0  0  0  0  0  0  0  0  0  0  0  0
   -6.3842   34.3490  -13.2943 N   0  0  0  0  0  0  0  0  0  0  0  0
    3.6363   35.9649   -7.8499 O   0  0  0  0  0  0  0  0  0  0  0  0
    4.9893   34.2153   -6.5218 O   0  0  0  0  0  0  0  0  0  0  0  0
   -0.8424   34.6098  -11.0099 C   0  0  1  0  0  0  0  0  0  0  0  0
   -5.1004   33.9950  -13.4324 C   0  0  0  0  0  0  0  0  0  0  0  0
   -4.7561   33.1051  -14.3576 N   0  0  0  0  0  0  0  0  0  0  0  0
   -0.2939   34.4197   -9.7426 C   0  0  2  0  0  0  0  0  0  0  0  0
   -4.1285   34.5582  -12.6145 C   0  0  0  0  0  0  0  0  0  0  0  0
   -0.9731   33.6216   -8.8301 C   0  0  0  0  0  0  0  0  0  0  0  0
   -4.5443   35.4834  -11.6639 C   0  0  0  0  0  0  0  0  0  0  0  0
   -2.6380   34.2065  -12.7072 C   0  0  0  0  0  0  0  0  0  0  0  0
  1 13  1  0  0  0  0
  3  4  1  0  0  0  0
  4  5  1  0  0  0  0
  6  5  1  6  0  0  0
  6 10  1  0  0  0  0
  6 14  2  0  0  0  0
  6 18  1  0  0  0  0
  7 11  1  1  0  0  0
  7 15  1  0  0  0  0
  7 19  2  0  0  0  0
  7 18  1  0  0  0  0
  8 25  1  0  0  0  0
  8 12  1  0  0  0  0
  9 26  2  0  0  0  0
  9 13  1  0  0  0  0
 12 16  1  0  0  0  0
 13 17  2  0  0  0  0
 16 20  1  0  0  0  0
 16 27  1  0  0  0  0
 17 21  1  0  0  0  0
 20  2  1  6  0  0  0
 20 23  1  0  0  0  0
 21 22  1  0  0  0  0
 21 24  2  0  0  0  0
 23  3  1  1  0  0  0
 23 25  1  0  0  0  0
 24 27  1  0  0  0  0
 24 26  1  0  0  0  0
M  CHG  2  10  -1  15  -1
M  END
>  <CHROM.1>
-139.12729742,-84.10566380,156.66481867,178.37675865,48.97266669,86.68634164
-135.63264357,46.92458685,-0.02201166,35.45432938,-9.84948314,2.94031261
0.46028392,-3.07508579

>  <Name>
ligand

>  <RI>
0

>  <Rbt.Current_Directory>
/home/itssahil/PROJECTS/Mol_Feturizer/New_Systems/rnas/3D2V

>  <Rbt.Executable>
rbdock ($Id: //depot/dev/client3/rdock/2013.1/src/exe/rbdock.cxx#4 $)

>  <Rbt.Library>
libRbt.so (2013.1, Build901 2013/11/27)

>  <Rbt.Parameter_File>
/export/apps/rDock/src/rDock_2013.1_src/data/scripts/dock_solv.prm

>  <Rbt.Receptor>
prm/blind_docking_40.prm

>  <SCORE>
-13.1377

>  <SCORE.INTER>
-16.031

>  <SCORE.INTER.CONST>
1

>  <SCORE.INTER.POLAR>
0

>  <SCORE.INTER.ROT>
8

>  <SCORE.INTER.SOLV>
26.7145

>  <SCORE.INTER.VDW>
-28.5255

>  <SCORE.INTER.norm>
-0.593742

>  <SCORE.INTRA>
2.17169

>  <SCORE.INTRA.DIHEDRAL>
5.12529

>  <SCORE.INTRA.DIHEDRAL.0>
7.82666

>  <SCORE.INTRA.POLAR>
0

>  <SCORE.INTRA.POLAR.0>
0

>  <SCORE.INTRA.REPUL>
0

>  <SCORE.INTRA.REPUL.0>
0

>  <SCORE.INTRA.SOLV>
-0.779414

>  <SCORE.INTRA.SOLV.lig_0>
-83.2758

>  <SCORE.INTRA.VDW>
-0.00124399

>  <SCORE.INTRA.VDW.0>
-3.26816

>  <SCORE.INTRA.norm>
0.0804331

>  <SCORE.RESTR>
0.721593

>  <SCORE.RESTR.CAVITY>
0.721593

>  <SCORE.RESTR.norm>
0.0267257

>  <SCORE.SYSTEM>
0

>  <SCORE.SYSTEM.CONST>
0

>  <SCORE.SYSTEM.DIHEDRAL>
0

>  <SCORE.SYSTEM.SOLV>
0

>  <SCORE.SYSTEM.norm>
0

>  <SCORE.heavy>
27

>  <SCORE.norm>
-0.486583

>  <RMSD>
11.033

$$$$
ligand
 OpenBabel11021811463D
libRbt.so/2013.1/901 2013/11/27
 27 28  0  0  0  0  0  0  0  0999 V2000
    0.3060   28.9169   -5.9187 C   0  0  0  0  0  0  0  0  0  0  0  0
   -2.5498   33.1761   -9.4257 C   0  0  0  0  0  0  0  0  0  0  0  0
   -2.0418   33.6785  -12.3351 C   0  0  0  0  0  0  0  0  0  0  0  0
   -2.5543   34.7816  -13.2630 C   0  0  0  0  0  0  0  0  0  0  0  0
   -3.9310   34.5715  -13.5866 O   0  0  0  0  0  0  0  0  0  0  0  0
   -5.0787   35.0766  -12.5827 P   0  0  1  0  0  0  0  0  0  0  0  0
   -7.8939   35.0329  -12.4122 P   0  0  2  0  0  0  0  0  0  0  0  0
    0.7656   35.6320  -10.6758 C   0  0  0  0  0  0  0  0  0  0  0  0
   -0.9674   31.0490   -5.7783 N   0  0  0  0  0  0  0  0  0  0  0  0
   -4.7936   34.5833  -11.0852 O   0  5  0  0  0  0  0  0  0  0  0  0
   -8.2513   36.4159  -12.7891 O   0  0  0  0  0  0  0  0  0  0  0  0
    0.5487   35.4116   -9.3221 C   0  0  0  0  0  0  0  0  0  0  0  0
    0.0386   30.3619   -6.3410 C   0  0  0  0  0  0  0  0  0  0  0  0
   -5.2037   36.6874  -12.5264 O   0  0  0  0  0  0  0  0  0  0  0  0
   -7.7369   34.8768  -10.8227 O   0  5  0  0  0  0  0  0  0  0  0  0
   -0.5223   34.6136   -8.9171 N   0  0  0  0  0  0  0  0  0  0  0  0
    0.8154   30.9316   -7.2739 N   0  0  0  0  0  0  0  0  0  0  0  0
   -6.5272   34.5076  -13.0566 O   0  0  0  0  0  0  0  0  0  0  0  0
   -9.0486   34.0130  -12.8251 O   0  0  0  0  0  0  0  0  0  0  0  0
   -1.3715   34.0500   -9.8770 C   0  0  1  0  0  0  0  0  0  0  0  0
    0.5966   32.1957   -7.6568 C   0  0  0  0  0  0  0  0  0  0  0  0
    1.3719   32.7490   -8.5837 N   0  0  0  0  0  0  0  0  0  0  0  0
   -1.1526   34.2715  -11.2358 C   0  0  2  0  0  0  0  0  0  0  0  0
   -0.4401   32.9277   -7.0910 C   0  0  0  0  0  0  0  0  0  0  0  0
   -0.0801   35.0661  -11.6221 C   0  0  0  0  0  0  0  0  0  0  0  0
   -1.2197   32.2998   -6.1263 C   0  0  0  0  0  0  0  0  0  0  0  0
   -0.7565   34.3796   -7.4727 C   0  0  0  0  0  0  0  0  0  0  0  0
  1 13  1  0  0  0  0
  3  4  1  0  0  0  0
  4  5  1  0  0  0  0
  6  5  1  6  0  0  0
  6 10  1  0  0  0  0
  6 14  2  0  0  0  0
  6 18  1  0  0  0  0
  7 11  1  6  0  0  0
  7 15  1  0  0  0  0
  7 19  2  0  0  0  0
  7 18  1  0  0  0  0
  8 25  1  0  0  0  0
  8 12  1  0  0  0  0
  9 26  2  0  0  0  0
  9 13  1  0  0  0  0
 12 16  1  0  0  0  0
 13 17  2  0  0  0  0
 16 20  1  0  0  0  0
 16 27  1  0  0  0  0
 17 21  1  0  0  0  0
 20  2  1  6  0  0  0
 20 23  1  0  0  0  0
 21 22  1  0  0  0  0
 21 24  2  0  0  0  0
 23  3  1  1  0  0  0
 23 25  1  0  0  0  0
 24 27  1  0  0  0  0
 24 26  1  0  0  0  0
M  CHG  2  10  -1  15  -1
M  END
>  <CHROM.1>
-138.25041643,83.61735246,-50.12527124,-169.43649367,70.74611389,126.06022260
36.03738482,-110.00102207,-3.06302273,33.93200532,-10.34566825,0.70458146
0.12015147,2.24790583

>  <Name>
ligand

>  <RI>
0

>  <Rbt.Current_Directory>
/home/itssahil/PROJECTS/Mol_Feturizer/New_Systems/rnas/3D2V

>  <Rbt.Executable>
rbdock ($Id: //depot/dev/client3/rdock/2013.1/src/exe/rbdock.cxx#4 $)

>  <Rbt.Library>
libRbt.so (2013.1, Build901 2013/11/27)

>  <Rbt.Parameter_File>
/export/apps/rDock/src/rDock_2013.1_src/data/scripts/dock_solv.prm

>  <Rbt.Receptor>
prm/blind_docking_40.prm

>  <SCORE>
-10.4362

>  <SCORE.INTER>
-15.5066

>  <SCORE.INTER.CONST>
1

>  <SCORE.INTER.POLAR>
0

>  <SCORE.INTER.ROT>
8

>  <SCORE.INTER.SOLV>
20.3271

>  <SCORE.INTER.VDW>
-26.0468

>  <SCORE.INTER.norm>
-0.574319

>  <SCORE.INTRA>
4.72519

>  <SCORE.INTRA.DIHEDRAL>
4.64785

>  <SCORE.INTRA.DIHEDRAL.0>
7.82666

>  <SCORE.INTRA.POLAR>
0

>  <SCORE.INTRA.POLAR.0>
0

>  <SCORE.INTRA.REPUL>
0

>  <SCORE.INTRA.REPUL.0>
0

>  <SCORE.INTRA.SOLV>
5.33909

>  <SCORE.INTRA.SOLV.lig_0>
-83.2758

>  <SCORE.INTRA.VDW>
-0.268283

>  <SCORE.INTRA.VDW.0>
-3.26816

>  <SCORE.INTRA.norm>
0.175007

>  <SCORE.RESTR>
0.345199

>  <SCORE.RESTR.CAVITY>
0.345199

>  <SCORE.RESTR.norm>
0.0127851

>  <SCORE.SYSTEM>
0

>  <SCORE.SYSTEM.CONST>
0

>  <SCORE.SYSTEM.DIHEDRAL>
0

>  <SCORE.SYSTEM.SOLV>
0

>  <SCORE.SYSTEM.norm>
0

>  <SCORE.heavy>
27

>  <SCORE.norm>
-0.386527

>  <RMSD>
11.128

$$$$
ligand
 OpenBabel11021811463D
libRbt.so/2013.1/901 2013/11/27
 27 28  0  0  0  0  0  0  0  0999 V2000
    4.7312   35.9361   -8.2451 C   0  0  0  0  0  0  0  0  0  0  0  0
   -3.0840   32.9994   -9.8628 C   0  0  0  0  0  0  0  0  0  0  0  0
   -4.6886   32.4705   -7.3887 C   0  0  0  0  0  0  0  0  0  0  0  0
   -5.3432   33.5349   -6.5061 C   0  0  0  0  0  0  0  0  0  0  0  0
   -6.5960   33.9487   -7.0571 O   0  0  0  0  0  0  0  0  0  0  0  0
   -6.9892   35.5059   -7.0790 P   0  0  1  0  0  0  0  0  0  0  0  0
   -5.4526   36.8982   -5.1667 P   0  0  2  0  0  0  0  0  0  0  0  0
   -1.1388   32.6073   -6.0354 C   0  0  0  0  0  0  0  0  0  0  0  0
    3.3118   33.9077   -8.4858 N   0  0  0  0  0  0  0  0  0  0  0  0
   -6.0775   36.3168   -8.1174 O   0  5  0  0  0  0  0  0  0  0  0  0
   -4.2959   35.9999   -4.9725 O   0  0  0  0  0  0  0  0  0  0  0  0
   -0.3761   32.8530   -7.1694 C   0  0  0  0  0  0  0  0  0  0  0  0
    3.4209   35.2392   -8.6127 C   0  0  0  0  0  0  0  0  0  0  0  0
   -8.5262   35.7627   -7.5095 O   0  0  0  0  0  0  0  0  0  0  0  0
   -5.7941   37.7172   -3.8294 O   0  5  0  0  0  0  0  0  0  0  0  0
   -1.0057   32.9838   -8.4080 N   0  0  0  0  0  0  0  0  0  0  0  0
    2.3884   35.9682   -9.0605 N   0  0  0  0  0  0  0  0  0  0  0  0
   -6.8002   36.1518   -5.5979 O   0  0  0  0  0  0  0  0  0  0  0  0
   -5.1361   38.0047   -6.2709 O   0  0  0  0  0  0  0  0  0  0  0  0
   -2.3973   32.8583   -8.4973 C   0  0  1  0  0  0  0  0  0  0  0  0
    1.2332   35.3759   -9.3877 C   0  0  0  0  0  0  0  0  0  0  0  0
    0.2174   36.1087   -9.8321 N   0  0  0  0  0  0  0  0  0  0  0  0
   -3.1621   32.6121   -7.3583 C   0  0  1  0  0  0  0  0  0  0  0  0
    1.0957   33.9984   -9.2674 C   0  0  0  0  0  0  0  0  0  0  0  0
   -2.5198   32.4876   -6.1325 C   0  0  0  0  0  0  0  0  0  0  0  0
    2.1897   33.2809   -8.7974 C   0  0  0  0  0  0  0  0  0  0  0  0
   -0.1927   33.2434   -9.6194 C   0  0  0  0  0  0  0  0  0  0  0  0
  1 13  1  0  0  0  0
  3  4  1  0  0  0  0
  4  5  1  0  0  0  0
  6  5  1  6  0  0  0
  6 10  1  0  0  0  0
  6 14  2  0  0  0  0
  6 18  1  0  0  0  0
  7 11  1  1  0  0  0
  7 15  1  0  0  0  0
  7 19  2  0  0  0  0
  7 18  1  0  0  0  0
  8 25  1  0  0  0  0
  8 12  1  0  0  0  0
  9 26  2  0  0  0  0
  9 13  1  0  0  0  0
 12 16  1  0  0  0  0
 13 17  2  0  0  0  0
 16 20  1  0  0  0  0
 16 27  1  0  0  0  0
 17 21  1  0  0  0  0
 20  2  1  1  0  0  0
 20 23  1  0  0  0  0
 21 22  1  0  0  0  0
 21 24  2  0  0  0  0
 23  3  1  1  0  0  0
 23 25  1  0  0  0  0
 24 27  1  0  0  0  0
 24 26  1  0  0  0  0
M  CHG  2  10  -1  15  -1
M  END
>  <CHROM.1>
146.34952217,-137.21708681,69.52899362,94.35761381,-71.29432208,-119.97811361
-97.43024819,-28.31610241,-2.79532976,34.85707794,-7.39153845,-0.27050005
0.19544006,0.43558100

>  <Name>
ligand

>  <RI>
0

>  <Rbt.Current_Directory>
/home/itssahil/PROJECTS/Mol_Feturizer/New_Systems/rnas/3D2V

>  <Rbt.Executable>
rbdock ($Id: //depot/dev/client3/rdock/2013.1/src/exe/rbdock.cxx#4 $)

>  <Rbt.Library>
libRbt.so (2013.1, Build901 2013/11/27)

>  <Rbt.Parameter_File>
/export/apps/rDock/src/rDock_2013.1_src/data/scripts/dock_solv.prm

>  <Rbt.Receptor>
prm/blind_docking_40.prm

>  <SCORE>
1.79306

>  <SCORE.INTER>
-2.71601

>  <SCORE.INTER.CONST>
1

>  <SCORE.INTER.POLAR>
0

>  <SCORE.INTER.ROT>
8

>  <SCORE.INTER.SOLV>
32.0969

>  <SCORE.INTER.VDW>
-21.443

>  <SCORE.INTER.norm>
-0.100593

>  <SCORE.INTRA>
4.27099

>  <SCORE.INTRA.DIHEDRAL>
8.26898

>  <SCORE.INTRA.DIHEDRAL.0>
7.82666

>  <SCORE.INTRA.POLAR>
0

>  <SCORE.INTRA.POLAR.0>
0

>  <SCORE.INTRA.REPUL>
0

>  <SCORE.INTRA.REPUL.0>
0

>  <SCORE.INTRA.SOLV>
-0.166862

>  <SCORE.INTRA.SOLV.lig_0>
-83.2758

>  <SCORE.INTRA.VDW>
0.219934

>  <SCORE.INTRA.VDW.0>
-3.26816

>  <SCORE.INTRA.norm>
0.158185

>  <SCORE.RESTR>
0.238081

>  <SCORE.RESTR.CAVITY>
0.238081

>  <SCORE.RESTR.norm>
0.0088178

>  <SCORE.SYSTEM>
0

>  <SCORE.SYSTEM.CONST>
0

>  <SCORE.SYSTEM.DIHEDRAL>
0

>  <SCORE.SYSTEM.SOLV>
0

>  <SCORE.SYSTEM.norm>
0

>  <SCORE.heavy>
27

>  <SCORE.norm>
0.0664097

>  <RMSD>
11.142

$$$$
ligand
 OpenBabel11021811463D
libRbt.so/2013.1/901 2013/11/27
 27 28  0  0  0  0  0  0  0  0999 V2000
    1.5250   37.4345   -8.9254 C   0  0  0  0  0  0  0  0  0  0  0  0
   -3.4191   33.0168   -9.5530 C   0  0  0  0  0  0  0  0  0  0  0  0
   -4.5276   31.5986   -7.1582 C   0  0  0  0  0  0  0  0  0  0  0  0
   -4.6061   33.0281   -6.6189 C   0  0  0  0  0  0  0  0  0  0  0  0
   -5.9671   33.4493   -6.4981 O   0  0  0  0  0  0  0  0  0  0  0  0
   -6.3124   34.8722   -5.8378 P   0  0  1  0  0  0  0  0  0  0  0  0
   -6.9402   36.2704   -8.2057 P   0  0  2  0  0  0  0  0  0  0  0  0
   -1.0773   30.0389   -7.4952 C   0  0  0  0  0  0  0  0  0  0  0  0
    1.4744   34.9476   -8.9234 N   0  0  0  0  0  0  0  0  0  0  0  0
   -7.8459   34.9385   -5.3784 O   0  5  0  0  0  0  0  0  0  0  0  0
   -6.4761   37.3425   -9.1101 O   0  0  0  0  0  0  0  0  0  0  0  0
   -0.5439   30.6847   -8.6028 C   0  0  0  0  0  0  0  0  0  0  0  0
    0.9144   36.0947   -9.3377 C   0  0  0  0  0  0  0  0  0  0  0  0
   -5.4200   35.1937   -4.5287 O   0  0  0  0  0  0  0  0  0  0  0  0
   -8.4313   36.5468   -7.6803 O   0  5  0  0  0  0  0  0  0  0  0  0
   -1.3002   31.6514   -9.2670 N   0  0  0  0  0  0  0  0  0  0  0  0
   -0.1796   36.0782  -10.1128 N   0  0  0  0  0  0  0  0  0  0  0  0
   -6.0314   36.0675   -6.9050 O   0  0  0  0  0  0  0  0  0  0  0  0
   -7.0135   34.8722   -8.9695 O   0  0  0  0  0  0  0  0  0  0  0  0
   -2.5905   31.9552   -8.8164 C   0  0  1  0  0  0  0  0  0  0  0  0
   -0.7284   34.9150  -10.4844 C   0  0  0  0  0  0  0  0  0  0  0  0
   -1.8116   34.9113  -11.2543 N   0  0  0  0  0  0  0  0  0  0  0  0
   -3.1249   31.3068   -7.7042 C   0  0  1  0  0  0  0  0  0  0  0  0
   -0.1662   33.7135  -10.0705 C   0  0  0  0  0  0  0  0  0  0  0  0
   -2.3574   30.3490   -7.0527 C   0  0  0  0  0  0  0  0  0  0  0  0
    0.9661   33.7758   -9.2664 C   0  0  0  0  0  0  0  0  0  0  0  0
   -0.7333   32.3395  -10.4506 C   0  0  0  0  0  0  0  0  0  0  0  0
  1 13  1  0  0  0  0
  3  4  1  0  0  0  0
  4  5  1  0  0  0  0
  6  5  1  6  0  0  0
  6 10  1  0  0  0  0
  6 14  2  0  0  0  0
  6 18  1  0  0  0  0
  7 11  1  6  0  0  0
  7 15  1  0  0  0  0
  7 19  2  0  0  0  0
  7 18  1  0  0  0  0
  8 25  1  0  0  0  0
  8 12  1  0  0  0  0
  9 26  2  0  0  0  0
  9 13  1  0  0  0  0
 12 16  1  0  0  0  0
 13 17  2  0  0  0  0
 16 20  1  0  0  0  0
 16 27  1  0  0  0  0
 17 21  1  0  0  0  0
 20  2  1  1  0  0  0
 20 23  1  0  0  0  0
 21 22  1  0  0  0  0
 21 24  2  0  0  0  0
 23  3  1  1  0  0  0
 23 25  1  0  0  0  0
 24 27  1  0  0  0  0
 24 26  1  0  0  0  0
M  CHG  2  10  -1  15  -1
M  END
>  <CHROM.1>
161.97233838,174.94580418,-161.78849136,69.31203537,-175.69317219,-65.51686599
-111.58939487,-98.82803596,-3.56480231,34.22977963,-8.13864116,-0.11894189
0.40092908,-0.30491204

>  <Name>
ligand

>  <RI>
0

>  <Rbt.Current_Directory>
/home/itssahil/PROJECTS/Mol_Feturizer/New_Systems/rnas/3D2V

>  <Rbt.Executable>
rbdock ($Id: //depot/dev/client3/rdock/2013.1/src/exe/rbdock.cxx#4 $)

>  <Rbt.Library>
libRbt.so (2013.1, Build901 2013/11/27)

>  <Rbt.Parameter_File>
/export/apps/rDock/src/rDock_2013.1_src/data/scripts/dock_solv.prm

>  <Rbt.Receptor>
prm/blind_docking_40.prm

>  <SCORE>
0.187881

>  <SCORE.INTER>
-1.42911

>  <SCORE.INTER.CONST>
1

>  <SCORE.INTER.POLAR>
0

>  <SCORE.INTER.ROT>
8

>  <SCORE.INTER.SOLV>
29.2079

>  <SCORE.INTER.VDW>
-19.622

>  <SCORE.INTER.norm>
-0.05293

>  <SCORE.INTRA>
1.24125

>  <SCORE.INTRA.DIHEDRAL>
-0.696078

>  <SCORE.INTRA.DIHEDRAL.0>
7.82666

>  <SCORE.INTRA.POLAR>
0

>  <SCORE.INTRA.POLAR.0>
0

>  <SCORE.INTRA.REPUL>
0

>  <SCORE.INTRA.REPUL.0>
0

>  <SCORE.INTRA.SOLV>
2.88282

>  <SCORE.INTRA.SOLV.lig_0>
-83.2758

>  <SCORE.INTRA.VDW>
0.147877

>  <SCORE.INTRA.VDW.0>
-3.26816

>  <SCORE.INTRA.norm>
0.0459722

>  <SCORE.RESTR>
0.37574

>  <SCORE.RESTR.CAVITY>
0.37574

>  <SCORE.RESTR.norm>
0.0139163

>  <SCORE.SYSTEM>
0

>  <SCORE.SYSTEM.CONST>
0

>  <SCORE.SYSTEM.DIHEDRAL>
0

>  <SCORE.SYSTEM.SOLV>
0

>  <SCORE.SYSTEM.norm>
0

>  <SCORE.heavy>
27

>  <SCORE.norm>
0.00695856

>  <RMSD>
11.148

$$$$
ligand
 OpenBabel11021811463D
libRbt.so/2013.1/901 2013/11/27
 27 28  0  0  0  0  0  0  0  0999 V2000
    0.8190   37.1016   -9.7292 C   0  0  0  0  0  0  0  0  0  0  0  0
   -3.0854   32.2345   -9.3798 C   0  0  0  0  0  0  0  0  0  0  0  0
   -4.4573   31.4056   -6.8487 C   0  0  0  0  0  0  0  0  0  0  0  0
   -4.6139   32.9255   -6.7716 C   0  0  0  0  0  0  0  0  0  0  0  0
   -5.9340   33.2775   -6.3502 O   0  0  0  0  0  0  0  0  0  0  0  0
   -6.4299   34.8020   -6.4503 P   0  0  1  0  0  0  0  0  0  0  0  0
   -5.5346   37.3731   -5.7126 P   0  0  2  0  0  0  0  0  0  0  0  0
   -0.9901   29.9083   -6.4158 C   0  0  0  0  0  0  0  0  0  0  0  0
    1.0982   34.7811   -8.8780 N   0  0  0  0  0  0  0  0  0  0  0  0
   -6.5338   35.2760   -7.9772 O   0  5  0  0  0  0  0  0  0  0  0  0
   -5.3414   37.9610   -7.0541 O   0  0  0  0  0  0  0  0  0  0  0  0
   -0.3350   30.2824   -7.5817 C   0  0  0  0  0  0  0  0  0  0  0  0
    0.5075   35.6050   -9.7574 C   0  0  0  0  0  0  0  0  0  0  0  0
   -7.8867   35.0364   -5.7899 O   0  0  0  0  0  0  0  0  0  0  0  0
   -4.4760   37.9549   -4.6560 O   0  5  0  0  0  0  0  0  0  0  0  0
   -1.0118   31.0386   -8.5397 N   0  0  0  0  0  0  0  0  0  0  0  0
   -0.3569   35.1274  -10.6645 N   0  0  0  0  0  0  0  0  0  0  0  0
   -5.3936   35.7803   -5.6657 O   0  0  0  0  0  0  0  0  0  0  0  0
   -6.9688   37.7508   -5.1258 O   0  0  0  0  0  0  0  0  0  0  0  0
   -2.3450   31.4058   -8.3210 C   0  0  1  0  0  0  0  0  0  0  0  0
   -0.6420   33.8199  -10.7049 C   0  0  0  0  0  0  0  0  0  0  0  0
   -1.4989   33.3580  -11.6097 N   0  0  0  0  0  0  0  0  0  0  0  0
   -3.0016   31.0302   -7.1501 C   0  0  1  0  0  0  0  0  0  0  0  0
   -0.0418   32.9459   -9.8067 C   0  0  0  0  0  0  0  0  0  0  0  0
   -2.3123   30.2799   -6.2052 C   0  0  0  0  0  0  0  0  0  0  0  0
    0.8462   33.4828   -8.8818 C   0  0  0  0  0  0  0  0  0  0  0  0
   -0.3148   31.4362   -9.7855 C   0  0  0  0  0  0  0  0  0  0  0  0
  1 13  1  0  0  0  0
  3  4  1  0  0  0  0
  4  5  1  0  0  0  0
  6  5  1  1  0  0  0
  6 10  1  0  0  0  0
  6 14  2  0  0  0  0
  6 18  1  0  0  0  0
  7 11  1  6  0  0  0
  7 15  1  0  0  0  0
  7 19  2  0  0  0  0
  7 18  1  0  0  0  0
  8 25  1  0  0  0  0
  8 12  1  0  0  0  0
  9 26  2  0  0  0  0
  9 13  1  0  0  0  0
 12 16  1  0  0  0  0
 13 17  2  0  0  0  0
 16 20  1  0  0  0  0
 16 27  1  0  0  0  0
 17 21  1  0  0  0  0
 20  2  1  1  0  0  0
 20 23  1  0  0  0  0
 21 22  1  0  0  0  0
 21 24  2  0  0  0  0
 23  3  1  1  0  0  0
 23 25  1  0  0  0  0
 24 27  1  0  0  0  0
 24 26  1  0  0  0  0
M  CHG  2  10  -1  15  -1
M  END
>  <CHROM.1>
-173.78336664,-168.76917629,66.01186138,173.64419146,-64.53823472,-61.98353946
-113.54027168,-110.09656002,-3.27017686,34.17493699,-7.62734041,-0.46164869
0.55380306,-0.07137905

>  <Name>
ligand

>  <RI>
0

>  <Rbt.Current_Directory>
/home/itssahil/PROJECTS/Mol_Feturizer/New_Systems/rnas/3D2V

>  <Rbt.Executable>
rbdock ($Id: //depot/dev/client3/rdock/2013.1/src/exe/rbdock.cxx#4 $)

>  <Rbt.Library>
libRbt.so (2013.1, Build901 2013/11/27)

>  <Rbt.Parameter_File>
/export/apps/rDock/src/rDock_2013.1_src/data/scripts/dock_solv.prm

>  <Rbt.Receptor>
prm/blind_docking_40.prm

>  <SCORE>
-1.85938

>  <SCORE.INTER>
-3.49359

>  <SCORE.INTER.CONST>
1

>  <SCORE.INTER.POLAR>
0

>  <SCORE.INTER.ROT>
8

>  <SCORE.INTER.SOLV>
24.281

>  <SCORE.INTER.VDW>
-19.3561

>  <SCORE.INTER.norm>
-0.129392

>  <SCORE.INTRA>
1.04174

>  <SCORE.INTRA.DIHEDRAL>
-1.74485

>  <SCORE.INTRA.DIHEDRAL.0>
7.82666

>  <SCORE.INTRA.POLAR>
0

>  <SCORE.INTRA.POLAR.0>
0

>  <SCORE.INTRA.REPUL>
0

>  <SCORE.INTRA.REPUL.0>
0

>  <SCORE.INTRA.SOLV>
1.40116

>  <SCORE.INTRA.SOLV.lig_0>
-83.2758

>  <SCORE.INTRA.VDW>
1.21359

>  <SCORE.INTRA.VDW.0>
-3.26816

>  <SCORE.INTRA.norm>
0.0385831

>  <SCORE.RESTR>
0.59246

>  <SCORE.RESTR.CAVITY>
0.59246

>  <SCORE.RESTR.norm>
0.021943

>  <SCORE.SYSTEM>
0

>  <SCORE.SYSTEM.CONST>
0

>  <SCORE.SYSTEM.DIHEDRAL>
0

>  <SCORE.SYSTEM.SOLV>
0

>  <SCORE.SYSTEM.norm>
0

>  <SCORE.heavy>
27

>  <SCORE.norm>
-0.068866

>  <RMSD>
11.153

$$$$
ligand
 OpenBabel11021811463D
libRbt.so/2013.1/901 2013/11/27
 27 28  0  0  0  0  0  0  0  0999 V2000
   -1.0697   28.8655   -6.9977 C   0  0  0  0  0  0  0  0  0  0  0  0
   -0.7435   34.1849   -8.1931 C   0  0  0  0  0  0  0  0  0  0  0  0
    1.5230   35.6661   -9.4755 C   0  0  0  0  0  0  0  0  0  0  0  0
    1.3333   37.0410   -8.8318 C   0  0  0  0  0  0  0  0  0  0  0  0
    2.3104   37.2611   -7.8115 O   0  0  0  0  0  0  0  0  0  0  0  0
    3.8578   36.9395   -8.0979 P   0  0  1  0  0  0  0  0  0  0  0  0
    6.1841   36.6657   -6.5262 P   0  0  2  0  0  0  0  0  0  0  0  0
   -0.9156   35.2633  -12.3637 C   0  0  0  0  0  0  0  0  0  0  0  0
   -1.0506   30.4770   -8.8923 N   0  0  0  0  0  0  0  0  0  0  0  0
    4.0746   35.3844   -8.4171 O   0  5  0  0  0  0  0  0  0  0  0  0
    6.4122   35.4039   -7.2598 O   0  0  0  0  0  0  0  0  0  0  0  0
   -1.9775   34.5774  -11.7892 C   0  0  0  0  0  0  0  0  0  0  0  0
   -1.6075   30.0933   -7.7333 C   0  0  0  0  0  0  0  0  0  0  0  0
    4.4504   37.7605   -9.3582 O   0  0  0  0  0  0  0  0  0  0  0  0
    6.2808   36.4504   -4.9387 O   0  5  0  0  0  0  0  0  0  0  0  0
   -1.9239   34.2314  -10.4382 N   0  0  0  0  0  0  0  0  0  0  0  0
   -2.6353   30.7781   -7.2111 N   0  0  0  0  0  0  0  0  0  0  0  0
    4.7615   37.3417   -6.8063 O   0  0  0  0  0  0  0  0  0  0  0  0
    7.3094   37.7403   -6.8764 O   0  0  0  0  0  0  0  0  0  0  0  0
   -0.7986   34.5711   -9.6776 C   0  0  1  0  0  0  0  0  0  0  0  0
   -3.1198   31.8559   -7.8403 C   0  0  0  0  0  0  0  0  0  0  0  0
   -4.1376   32.5278   -7.3120 N   0  0  0  0  0  0  0  0  0  0  0  0
    0.2667   35.2601  -10.2551 C   0  0  1  0  0  0  0  0  0  0  0  0
   -2.5590   32.2751   -9.0406 C   0  0  0  0  0  0  0  0  0  0  0  0
    0.1959   35.5996  -11.6007 C   0  0  0  0  0  0  0  0  0  0  0  0
   -1.4968   31.5355   -9.5478 C   0  0  0  0  0  0  0  0  0  0  0  0
   -3.0552   33.4971   -9.8244 C   0  0  0  0  0  0  0  0  0  0  0  0
  1 13  1  0  0  0  0
  3  4  1  0  0  0  0
  4  5  1  0  0  0  0
  6  5  1  1  0  0  0
  6 10  1  0  0  0  0
  6 14  2  0  0  0  0
  6 18  1  0  0  0  0
  7 11  1  6  0  0  0
  7 15  1  0  0  0  0
  7 19  2  0  0  0  0
  7 18  1  0  0  0  0
  8 25  1  0  0  0  0
  8 12  1  0  0  0  0
  9 26  2  0  0  0  0
  9 13  1  0  0  0  0
 12 16  1  0  0  0  0
 13 17  2  0  0  0  0
 16 20  1  0  0  0  0
 16 27  1  0  0  0  0
 17 21  1  0  0  0  0
 20  2  1  1  0  0  0
 20 23  1  0  0  0  0
 21 22  1  0  0  0  0
 21 24  2  0  0  0  0
 23  3  1  1  0  0  0
 23 25  1  0  0  0  0
 24 27  1  0  0  0  0
 24 26  1  0  0  0  0
M  CHG  2  10  -1  15  -1
M  END
>  <CHROM.1>
163.42362608,47.08136317,-61.98426055,156.00904745,-17.73081100,-88.81502642
142.44237275,130.49620468,1.38891312,34.72183331,-8.41684806,-2.85934600
-0.52015908,-0.70053260

>  <Name>
ligand

>  <RI>
0

>  <Rbt.Current_Directory>
/home/itssahil/PROJECTS/Mol_Feturizer/New_Systems/rnas/3D2V

>  <Rbt.Executable>
rbdock ($Id: //depot/dev/client3/rdock/2013.1/src/exe/rbdock.cxx#4 $)

>  <Rbt.Library>
libRbt.so (2013.1, Build901 2013/11/27)

>  <Rbt.Parameter_File>
/export/apps/rDock/src/rDock_2013.1_src/data/scripts/dock_solv.prm

>  <Rbt.Receptor>
prm/blind_docking_40.prm

>  <SCORE>
-6.09848

>  <SCORE.INTER>
-12.0667

>  <SCORE.INTER.CONST>
1

>  <SCORE.INTER.POLAR>
0

>  <SCORE.INTER.ROT>
8

>  <SCORE.INTER.SOLV>
28.3296

>  <SCORE.INTER.VDW>
-26.421

>  <SCORE.INTER.norm>
-0.446915

>  <SCORE.INTRA>
5.93368

>  <SCORE.INTRA.DIHEDRAL>
1.83197

>  <SCORE.INTRA.DIHEDRAL.0>
7.82666

>  <SCORE.INTRA.POLAR>
0

>  <SCORE.INTRA.POLAR.0>
0

>  <SCORE.INTRA.REPUL>
0

>  <SCORE.INTRA.REPUL.0>
0

>  <SCORE.INTRA.SOLV>
1.18243

>  <SCORE.INTRA.SOLV.lig_0>
-83.2758

>  <SCORE.INTRA.VDW>
4.42648

>  <SCORE.INTRA.VDW.0>
-3.26816

>  <SCORE.INTRA.norm>
0.219766

>  <SCORE.RESTR>
0.0345498

>  <SCORE.RESTR.CAVITY>
0.0345498

>  <SCORE.RESTR.norm>
0.00127962

>  <SCORE.SYSTEM>
0

>  <SCORE.SYSTEM.CONST>
0

>  <SCORE.SYSTEM.DIHEDRAL>
0

>  <SCORE.SYSTEM.SOLV>
0

>  <SCORE.SYSTEM.norm>
0

>  <SCORE.heavy>
27

>  <SCORE.norm>
-0.225869

>  <RMSD>
11.232

$$$$
ligand
 OpenBabel11021811463D
libRbt.so/2013.1/901 2013/11/27
 27 28  0  0  0  0  0  0  0  0999 V2000
   -3.5959   35.9598  -13.9865 C   0  0  0  0  0  0  0  0  0  0  0  0
   -1.8964   31.1097   -9.8208 C   0  0  0  0  0  0  0  0  0  0  0  0
   -3.1617   30.8790   -7.1151 C   0  0  0  0  0  0  0  0  0  0  0  0
   -4.5507   31.4629   -6.8501 C   0  0  0  0  0  0  0  0  0  0  0  0
   -4.8154   32.5583   -7.7300 O   0  0  0  0  0  0  0  0  0  0  0  0
   -5.9315   33.6472   -7.3445 P   0  0  1  0  0  0  0  0  0  0  0  0
   -6.1634   35.7941   -5.5298 P   0  0  2  0  0  0  0  0  0  0  0  0
   -0.9630   33.9547   -6.7191 C   0  0  0  0  0  0  0  0  0  0  0  0
   -2.9690   34.0782  -12.4853 N   0  0  0  0  0  0  0  0  0  0  0  0
   -6.0756   34.7569   -8.4913 O   0  5  0  0  0  0  0  0  0  0  0  0
   -5.6799   36.3133   -4.2339 O   0  0  0  0  0  0  0  0  0  0  0  0
   -0.3657   34.0806   -7.9663 C   0  0  0  0  0  0  0  0  0  0  0  0
   -2.6411   35.2675  -13.0135 C   0  0  0  0  0  0  0  0  0  0  0  0
   -7.3984   33.0006   -7.1355 O   0  0  0  0  0  0  0  0  0  0  0  0
   -7.7569   35.6030   -5.5307 O   0  5  0  0  0  0  0  0  0  0  0  0
   -0.6704   33.1620   -8.9718 N   0  0  0  0  0  0  0  0  0  0  0  0
   -1.4798   35.8577  -12.6956 N   0  0  0  0  0  0  0  0  0  0  0  0
   -5.5372   34.3828   -5.9481 O   0  0  0  0  0  0  0  0  0  0  0  0
   -5.8609   36.8273   -6.7066 O   0  0  0  0  0  0  0  0  0  0  0  0
   -1.5677   32.1191   -8.7122 C   0  0  1  0  0  0  0  0  0  0  0  0
   -0.6310   35.2671  -11.8452 C   0  0  0  0  0  0  0  0  0  0  0  0
    0.5163   35.8627  -11.5362 N   0  0  0  0  0  0  0  0  0  0  0  0
   -2.1672   31.9939   -7.4600 C   0  0  1  0  0  0  0  0  0  0  0  0
   -0.9483   34.0367  -11.2830 C   0  0  0  0  0  0  0  0  0  0  0  0
   -1.8551   32.9186   -6.4710 C   0  0  0  0  0  0  0  0  0  0  0  0
   -2.1610   33.4589  -11.6411 C   0  0  0  0  0  0  0  0  0  0  0  0
   -0.0317   33.2935  -10.3025 C   0  0  0  0  0  0  0  0  0  0  0  0
  1 13  1  0  0  0  0
  3  4  1  0  0  0  0
  4  5  1  0  0  0  0
  6  5  1  6  0  0  0
  6 10  1  0  0  0  0
  6 14  2  0  0  0  0
  6 18  1  0  0  0  0
  7 11  1  1  0  0  0
  7 15  1  0  0  0  0
  7 19  2  0  0  0  0
  7 18  1  0  0  0  0
  8 25  1  0  0  0  0
  8 12  1  0  0  0  0
  9 26  2  0  0  0  0
  9 13  1  0  0  0  0
 12 16  1  0  0  0  0
 13 17  2  0  0  0  0
 16 20  1  0  0  0  0
 16 27  1  0  0  0  0
 17 21  1  0  0  0  0
 20  2  1  6  0  0  0
 20 23  1  0  0  0  0
 21 22  1  0  0  0  0
 21 24  2  0  0  0  0
 23  3  1  6  0  0  0
 23 25  1  0  0  0  0
 24 27  1  0  0  0  0
 24 26  1  0  0  0  0
M  CHG  2  10  -1  15  -1
M  END
>  <CHROM.1>
37.01937290,-158.63160430,-178.70009976,160.42379558,-179.50633136,-114.10805913
116.08092199,-96.68588588,-3.60785478,34.08546654,-8.51182615,0.63131634
0.60524113,-0.98404053

>  <Name>
ligand

>  <RI>
0

>  <Rbt.Current_Directory>
/home/itssahil/PROJECTS/Mol_Feturizer/New_Systems/rnas/3D2V

>  <Rbt.Executable>
rbdock ($Id: //depot/dev/client3/rdock/2013.1/src/exe/rbdock.cxx#4 $)

>  <Rbt.Library>
libRbt.so (2013.1, Build901 2013/11/27)

>  <Rbt.Parameter_File>
/export/apps/rDock/src/rDock_2013.1_src/data/scripts/dock_solv.prm

>  <Rbt.Receptor>
prm/blind_docking_40.prm

>  <SCORE>
-7.90772

>  <SCORE.INTER>
-9.94403

>  <SCORE.INTER.CONST>
1

>  <SCORE.INTER.POLAR>
0

>  <SCORE.INTER.ROT>
8

>  <SCORE.INTER.SOLV>
27.9632

>  <SCORE.INTER.VDW>
-24.8837

>  <SCORE.INTER.norm>
-0.368297

>  <SCORE.INTRA>
1.62593

>  <SCORE.INTRA.DIHEDRAL>
1.727

>  <SCORE.INTRA.DIHEDRAL.0>
7.82666

>  <SCORE.INTRA.POLAR>
0

>  <SCORE.INTRA.POLAR.0>
0

>  <SCORE.INTRA.REPUL>
0

>  <SCORE.INTRA.REPUL.0>
0

>  <SCORE.INTRA.SOLV>
1.13677

>  <SCORE.INTRA.SOLV.lig_0>
-83.2758

>  <SCORE.INTRA.VDW>
0.194052

>  <SCORE.INTRA.VDW.0>
-3.26816

>  <SCORE.INTRA.norm>
0.0602198

>  <SCORE.RESTR>
0.410375

>  <SCORE.RESTR.CAVITY>
0.410375

>  <SCORE.RESTR.norm>
0.0151991

>  <SCORE.SYSTEM>
0

>  <SCORE.SYSTEM.CONST>
0

>  <SCORE.SYSTEM.DIHEDRAL>
0

>  <SCORE.SYSTEM.SOLV>
0

>  <SCORE.SYSTEM.norm>
0

>  <SCORE.heavy>
27

>  <SCORE.norm>
-0.292878

>  <RMSD>
11.274

$$$$
ligand
 OpenBabel11021811463D
libRbt.so/2013.1/901 2013/11/27
 27 28  0  0  0  0  0  0  0  0999 V2000
   -7.3393   35.9801  -12.1369 C   0  0  0  0  0  0  0  0  0  0  0  0
   -0.1904   35.5047  -12.2485 C   0  0  0  0  0  0  0  0  0  0  0  0
    1.2615   35.9828   -9.6720 C   0  0  0  0  0  0  0  0  0  0  0  0
    1.0415   36.7760   -8.3824 C   0  0  0  0  0  0  0  0  0  0  0  0
    2.0405   37.7880   -8.2340 O   0  0  0  0  0  0  0  0  0  0  0  0
    3.5868   37.3763   -8.0943 P   0  0  1  0  0  0  0  0  0  0  0  0
    5.1268   35.0541   -7.6559 P   0  0  2  0  0  0  0  0  0  0  0  0
   -1.0460   33.0979   -8.7756 C   0  0  0  0  0  0  0  0  0  0  0  0
   -5.2703   35.0812  -11.0890 N   0  0  0  0  0  0  0  0  0  0  0  0
    4.4341   37.8783   -9.3582 O   0  5  0  0  0  0  0  0  0  0  0  0
    5.5379   35.1343   -6.2392 O   0  0  0  0  0  0  0  0  0  0  0  0
   -1.7303   32.8590   -9.9600 C   0  0  0  0  0  0  0  0  0  0  0  0
   -5.9764   35.2910  -12.2107 C   0  0  0  0  0  0  0  0  0  0  0  0
    4.2913   38.0052   -6.7822 O   0  0  0  0  0  0  0  0  0  0  0  0
    6.2112   35.7345   -8.6238 O   0  5  0  0  0  0  0  0  0  0  0  0
   -1.4509   33.6354  -11.0855 N   0  0  0  0  0  0  0  0  0  0  0  0
   -5.4973   34.9010  -13.4008 N   0  0  0  0  0  0  0  0  0  0  0  0
    3.7273   35.7599   -7.9759 O   0  0  0  0  0  0  0  0  0  0  0  0
    5.0256   33.5363   -8.1352 O   0  0  0  0  0  0  0  0  0  0  0  0
   -0.4909   34.6516  -11.0084 C   0  0  1  0  0  0  0  0  0  0  0  0
   -4.3058   34.2964  -13.4855 C   0  0  0  0  0  0  0  0  0  0  0  0
   -3.8405   33.9160  -14.6709 N   0  0  0  0  0  0  0  0  0  0  0  0
    0.1958   34.8904   -9.8191 C   0  0  1  0  0  0  0  0  0  0  0  0
   -3.5542   34.0697  -12.3390 C   0  0  0  0  0  0  0  0  0  0  0  0
   -0.0923   34.1063   -8.7087 C   0  0  0  0  0  0  0  0  0  0  0  0
   -4.0889   34.4878  -11.1258 C   0  0  0  0  0  0  0  0  0  0  0  0
   -2.1822   33.3832  -12.3495 C   0  0  0  0  0  0  0  0  0  0  0  0
  1 13  1  0  0  0  0
  3  4  1  0  0  0  0
  4  5  1  0  0  0  0
  6  5  1  6  0  0  0
  6 10  1  0  0  0  0
  6 14  2  0  0  0  0
  6 18  1  0  0  0  0
  7 11  1  1  0  0  0
  7 15  1  0  0  0  0
  7 19  2  0  0  0  0
  7 18  1  0  0  0  0
  8 25  1  0  0  0  0
  8 12  1  0  0  0  0
  9 26  2  0  0  0  0
  9 13  1  0  0  0  0
 12 16  1  0  0  0  0
 13 17  2  0  0  0  0
 16 20  1  0  0  0  0
 16 27  1  0  0  0  0
 17 21  1  0  0  0  0
 20  2  1  6  0  0  0
 20 23  1  0  0  0  0
 21 22  1  0  0  0  0
 21 24  2  0  0  0  0
 23  3  1  6  0  0  0
 23 25  1  0  0  0  0
 24 27  1  0  0  0  0
 24 26  1  0  0  0  0
M  CHG  2  10  -1  15  -1
M  END
>  <CHROM.1>
179.45013178,-62.40971444,114.05221775,-172.79099234,76.74243522,134.08401132
163.05244275,81.97284089,0.43982877,35.32513976,-9.84968935,2.88456499,0.41751158
-2.88634141

>  <Name>
ligand

>  <RI>
0

>  <Rbt.Current_Directory>
/home/itssahil/PROJECTS/Mol_Feturizer/New_Systems/rnas/3D2V

>  <Rbt.Executable>
rbdock ($Id: //depot/dev/client3/rdock/2013.1/src/exe/rbdock.cxx#4 $)

>  <Rbt.Library>
libRbt.so (2013.1, Build901 2013/11/27)

>  <Rbt.Parameter_File>
/export/apps/rDock/src/rDock_2013.1_src/data/scripts/dock_solv.prm

>  <Rbt.Receptor>
prm/blind_docking_40.prm

>  <SCORE>
-13.9601

>  <SCORE.INTER>
-15.8708

>  <SCORE.INTER.CONST>
1

>  <SCORE.INTER.POLAR>
0

>  <SCORE.INTER.ROT>
8

>  <SCORE.INTER.SOLV>
30.0382

>  <SCORE.INTER.VDW>
-29.5266

>  <SCORE.INTER.norm>
-0.587807

>  <SCORE.INTRA>
1.49224

>  <SCORE.INTRA.DIHEDRAL>
0.22047

>  <SCORE.INTRA.DIHEDRAL.0>
7.82666

>  <SCORE.INTRA.POLAR>
0

>  <SCORE.INTRA.POLAR.0>
0

>  <SCORE.INTRA.REPUL>
0

>  <SCORE.INTRA.REPUL.0>
0

>  <SCORE.INTRA.SOLV>
0.572737

>  <SCORE.INTRA.SOLV.lig_0>
-83.2758

>  <SCORE.INTRA.VDW>
1.09564

>  <SCORE.INTRA.VDW.0>
-3.26816

>  <SCORE.INTRA.norm>
0.0552681

>  <SCORE.RESTR>
0.418428

>  <SCORE.RESTR.CAVITY>
0.418428

>  <SCORE.RESTR.norm>
0.0154973

>  <SCORE.SYSTEM>
0

>  <SCORE.SYSTEM.CONST>
0

>  <SCORE.SYSTEM.DIHEDRAL>
0

>  <SCORE.SYSTEM.SOLV>
0

>  <SCORE.SYSTEM.norm>
0

>  <SCORE.heavy>
27

>  <SCORE.norm>
-0.517042

>  <RMSD>
11.277

$$$$
ligand
 OpenBabel11021811463D
libRbt.so/2013.1/901 2013/11/27
 27 28  0  0  0  0  0  0  0  0999 V2000
   -7.3893   36.9684   -8.2642 C   0  0  0  0  0  0  0  0  0  0  0  0
   -2.5740   32.4477  -10.4736 C   0  0  0  0  0  0  0  0  0  0  0  0
    0.3345   33.0435  -10.0723 C   0  0  0  0  0  0  0  0  0  0  0  0
    0.0447   33.2917   -8.5908 C   0  0  0  0  0  0  0  0  0  0  0  0
   -1.0473   32.4829   -8.1464 O   0  0  0  0  0  0  0  0  0  0  0  0
   -1.5841   32.6157   -6.6383 P   0  0  1  0  0  0  0  0  0  0  0  0
   -0.5222   30.1202   -5.8632 P   0  0  2  0  0  0  0  0  0  0  0  0
   -0.7566   35.8614  -12.3788 C   0  0  0  0  0  0  0  0  0  0  0  0
   -6.0884   35.0102   -9.0769 N   0  0  0  0  0  0  0  0  0  0  0  0
   -1.5227   34.1358   -6.1357 O   0  5  0  0  0  0  0  0  0  0  0  0
   -0.0090   29.3908   -4.6854 O   0  0  0  0  0  0  0  0  0  0  0  0
   -2.1065   35.6040  -12.5778 C   0  0  0  0  0  0  0  0  0  0  0  0
   -6.5297   36.2561   -9.3091 C   0  0  0  0  0  0  0  0  0  0  0  0
   -3.1171   32.1310   -6.4691 O   0  0  0  0  0  0  0  0  0  0  0  0
    0.4397   29.9374   -7.1349 O   0  5  0  0  0  0  0  0  0  0  0  0
   -2.6961   34.5012  -11.9582 N   0  0  0  0  0  0  0  0  0  0  0  0
   -6.2235   36.8858  -10.4527 N   0  0  0  0  0  0  0  0  0  0  0  0
   -0.6861   31.6959   -5.6414 O   0  0  0  0  0  0  0  0  0  0  0  0
   -1.9383   29.5442   -6.3180 O   0  0  0  0  0  0  0  0  0  0  0  0
   -1.9210   33.6612  -11.1496 C   0  0  1  0  0  0  0  0  0  0  0  0
   -5.4718   36.2785  -11.3793 C   0  0  0  0  0  0  0  0  0  0  0  0
   -5.1733   36.9134  -12.5081 N   0  0  0  0  0  0  0  0  0  0  0  0
   -0.5661   33.9207  -10.9501 C   0  0  1  0  0  0  0  0  0  0  0  0
   -5.0007   34.9895  -11.1619 C   0  0  0  0  0  0  0  0  0  0  0  0
    0.0046   35.0245  -11.5719 C   0  0  0  0  0  0  0  0  0  0  0  0
   -5.3431   34.3725   -9.9641 C   0  0  0  0  0  0  0  0  0  0  0  0
   -4.1360   34.2238  -12.1718 C   0  0  0  0  0  0  0  0  0  0  0  0
  1 13  1  0  0  0  0
  3  4  1  0  0  0  0
  4  5  1  0  0  0  0
  6  5  1  6  0  0  0
  6 10  1  0  0  0  0
  6 14  2  0  0  0  0
  6 18  1  0  0  0  0
  7 11  1  1  0  0  0
  7 15  1  0  0  0  0
  7 19  2  0  0  0  0
  7 18  1  0  0  0  0
  8 25  1  0  0  0  0
  8 12  1  0  0  0  0
  9 26  2  0  0  0  0
  9 13  1  0  0  0  0
 12 16  1  0  0  0  0
 13 17  2  0  0  0  0
 16 20  1  0  0  0  0
 16 27  1  0  0  0  0
 17 21  1  0  0  0  0
 20  2  1  1  0  0  0
 20 23  1  0  0  0  0
 21 22  1  0  0  0  0
 21 24  2  0  0  0  0
 23  3  1  1  0  0  0
 23 25  1  0  0  0  0
 24 27  1  0  0  0  0
 24 26  1  0  0  0  0
M  CHG  2  10  -1  15  -1
M  END
>  <CHROM.1>
85.35441806,-177.21849239,36.57327737,-57.54236046,-163.54285256,-74.72612993
88.55662727,-87.05351942,-2.45986358,33.41800186,-8.86494171,2.17460171,0.44236476
-1.04862235

>  <Name>
ligand

>  <RI>
0

>  <Rbt.Current_Directory>
/home/itssahil/PROJECTS/Mol_Feturizer/New_Systems/rnas/3D2V

>  <Rbt.Executable>
rbdock ($Id: //depot/dev/client3/rdock/2013.1/src/exe/rbdock.cxx#4 $)

>  <Rbt.Library>
libRbt.so (2013.1, Build901 2013/11/27)

>  <Rbt.Parameter_File>
/export/apps/rDock/src/rDock_2013.1_src/data/scripts/dock_solv.prm

>  <Rbt.Receptor>
prm/blind_docking_40.prm

>  <SCORE>
-9.58277

>  <SCORE.INTER>
-11.1807

>  <SCORE.INTER.CONST>
1

>  <SCORE.INTER.POLAR>
0

>  <SCORE.INTER.ROT>
8

>  <SCORE.INTER.SOLV>
24.4646

>  <SCORE.INTER.VDW>
-24.542

>  <SCORE.INTER.norm>
-0.414099

>  <SCORE.INTRA>
1.40386

>  <SCORE.INTRA.DIHEDRAL>
0.753969

>  <SCORE.INTRA.DIHEDRAL.0>
7.82666

>  <SCORE.INTRA.POLAR>
0

>  <SCORE.INTRA.POLAR.0>
0

>  <SCORE.INTRA.REPUL>
0

>  <SCORE.INTRA.REPUL.0>
0

>  <SCORE.INTRA.SOLV>
2.01785

>  <SCORE.INTRA.SOLV.lig_0>
-83.2758

>  <SCORE.INTRA.VDW>
0.0179475

>  <SCORE.INTRA.VDW.0>
-3.26816

>  <SCORE.INTRA.norm>
0.0519947

>  <SCORE.RESTR>
0.194041

>  <SCORE.RESTR.CAVITY>
0.194041

>  <SCORE.RESTR.norm>
0.00718672

>  <SCORE.SYSTEM>
0

>  <SCORE.SYSTEM.CONST>
0

>  <SCORE.SYSTEM.DIHEDRAL>
0

>  <SCORE.SYSTEM.SOLV>
0

>  <SCORE.SYSTEM.norm>
0

>  <SCORE.heavy>
27

>  <SCORE.norm>
-0.354917

>  <RMSD>
11.331

$$$$
ligand
 OpenBabel11021811463D
libRbt.so/2013.1/901 2013/11/27
 27 28  0  0  0  0  0  0  0  0999 V2000
   -7.9276   36.4334   -8.3819 C   0  0  0  0  0  0  0  0  0  0  0  0
   -2.5934   32.7244  -11.0548 C   0  0  0  0  0  0  0  0  0  0  0  0
    0.1425   33.9452  -11.0584 C   0  0  0  0  0  0  0  0  0  0  0  0
   -0.1616   33.8784   -9.5605 C   0  0  0  0  0  0  0  0  0  0  0  0
    0.1149   32.5734   -9.0458 O   0  0  0  0  0  0  0  0  0  0  0  0
   -0.5426   32.1007   -7.6587 P   0  0  1  0  0  0  0  0  0  0  0  0
   -0.1966   29.9980   -5.8107 P   0  0  2  0  0  0  0  0  0  0  0  0
   -1.8246   36.3648  -13.2326 C   0  0  0  0  0  0  0  0  0  0  0  0
   -5.8515   35.3597   -9.2330 N   0  0  0  0  0  0  0  0  0  0  0  0
   -0.6728   33.3260   -6.6345 O   0  5  0  0  0  0  0  0  0  0  0  0
   -0.8895   30.7228   -4.7258 O   0  0  0  0  0  0  0  0  0  0  0  0
   -3.1002   35.8163  -13.2439 C   0  0  0  0  0  0  0  0  0  0  0  0
   -7.0897   35.8053   -9.4961 C   0  0  0  0  0  0  0  0  0  0  0  0
   -2.0269   31.4865   -7.8407 O   0  0  0  0  0  0  0  0  0  0  0  0
    1.0550   29.1611   -5.2550 O   0  5  0  0  0  0  0  0  0  0  0  0
   -3.3504   34.6399  -12.5359 N   0  0  0  0  0  0  0  0  0  0  0  0
   -7.6021   35.7052  -10.7312 N   0  0  0  0  0  0  0  0  0  0  0  0
    0.3678   30.9388   -6.9749 O   0  0  0  0  0  0  0  0  0  0  0  0
   -1.1611   28.9199   -6.4827 O   0  0  0  0  0  0  0  0  0  0  0  0
   -2.3132   34.0200  -11.8287 C   0  0  1  0  0  0  0  0  0  0  0  0
   -6.8836   35.1586  -11.7197 C   0  0  0  0  0  0  0  0  0  0  0  0
   -7.4015   35.0666  -12.9403 N   0  0  0  0  0  0  0  0  0  0  0  0
   -1.0332   34.5717  -11.8176 C   0  0  2  0  0  0  0  0  0  0  0  0
   -5.5982   34.6918  -11.4736 C   0  0  0  0  0  0  0  0  0  0  0  0
   -0.8017   35.7449  -12.5253 C   0  0  0  0  0  0  0  0  0  0  0  0
   -5.1063   34.8130  -10.1790 C   0  0  0  0  0  0  0  0  0  0  0  0
   -4.7106   34.0521  -12.5491 C   0  0  0  0  0  0  0  0  0  0  0  0
  1 13  1  0  0  0  0
  3  4  1  0  0  0  0
  4  5  1  0  0  0  0
  6  5  1  6  0  0  0
  6 10  1  0  0  0  0
  6 14  2  0  0  0  0
  6 18  1  0  0  0  0
  7 11  1  1  0  0  0
  7 15  1  0  0  0  0
  7 19  2  0  0  0  0
  7 18  1  0  0  0  0
  8 25  1  0  0  0  0
  8 12  1  0  0  0  0
  9 26  2  0  0  0  0
  9 13  1  0  0  0  0
 12 16  1  0  0  0  0
 13 17  2  0  0  0  0
 16 20  1  0  0  0  0
 16 27  1  0  0  0  0
 17 21  1  0  0  0  0
 20  2  1  1  0  0  0
 20 23  1  0  0  0  0
 21 22  1  0  0  0  0
 21 24  2  0  0  0  0
 23  3  1  6  0  0  0
 23 25  1  0  0  0  0
 24 27  1  0  0  0  0
 24 26  1  0  0  0  0
M  CHG  2  10  -1  15  -1
M  END
>  <CHROM.1>
131.06338486,-160.35968483,-34.73035559,-163.46917498,-47.61523233,-60.74193295
131.83329674,-85.06422493,-2.54311602,33.26315201,-9.33599486,2.25140808
0.26909171,-1.03493041

>  <Name>
ligand

>  <RI>
0

>  <Rbt.Current_Directory>
/home/itssahil/PROJECTS/Mol_Feturizer/New_Systems/rnas/3D2V

>  <Rbt.Executable>
rbdock ($Id: //depot/dev/client3/rdock/2013.1/src/exe/rbdock.cxx#4 $)

>  <Rbt.Library>
libRbt.so (2013.1, Build901 2013/11/27)

>  <Rbt.Parameter_File>
/export/apps/rDock/src/rDock_2013.1_src/data/scripts/dock_solv.prm

>  <Rbt.Receptor>
prm/blind_docking_40.prm

>  <SCORE>
-4.12207

>  <SCORE.INTER>
-8.55866

>  <SCORE.INTER.CONST>
1

>  <SCORE.INTER.POLAR>
0

>  <SCORE.INTER.ROT>
8

>  <SCORE.INTER.SOLV>
18.6555

>  <SCORE.INTER.VDW>
-20.8576

>  <SCORE.INTER.norm>
-0.316988

>  <SCORE.INTRA>
3.37686

>  <SCORE.INTRA.DIHEDRAL>
5.74463

>  <SCORE.INTRA.DIHEDRAL.0>
7.82666

>  <SCORE.INTRA.POLAR>
0

>  <SCORE.INTRA.POLAR.0>
0

>  <SCORE.INTRA.REPUL>
0

>  <SCORE.INTRA.REPUL.0>
0

>  <SCORE.INTRA.SOLV>
-0.106591

>  <SCORE.INTRA.SOLV.lig_0>
-83.2758

>  <SCORE.INTRA.VDW>
0.557839

>  <SCORE.INTRA.VDW.0>
-3.26816

>  <SCORE.INTRA.norm>
0.125069

>  <SCORE.RESTR>
1.05974

>  <SCORE.RESTR.CAVITY>
1.05974

>  <SCORE.RESTR.norm>
0.0392495

>  <SCORE.SYSTEM>
0

>  <SCORE.SYSTEM.CONST>
0

>  <SCORE.SYSTEM.DIHEDRAL>
0

>  <SCORE.SYSTEM.SOLV>
0

>  <SCORE.SYSTEM.norm>
0

>  <SCORE.heavy>
27

>  <SCORE.norm>
-0.152669

>  <RMSD>
11.491

$$$$
ligand
 OpenBabel11021811463D
libRbt.so/2013.1/901 2013/11/27
 27 28  0  0  0  0  0  0  0  0999 V2000
    1.0864   28.9877   -5.4171 C   0  0  0  0  0  0  0  0  0  0  0  0
   -1.2332   33.7463   -7.4247 C   0  0  0  0  0  0  0  0  0  0  0  0
    0.1886   35.9493   -8.8742 C   0  0  0  0  0  0  0  0  0  0  0  0
    1.5133   36.2769   -9.5659 C   0  0  0  0  0  0  0  0  0  0  0  0
    2.6128   36.0762   -8.6743 O   0  0  0  0  0  0  0  0  0  0  0  0
    3.5103   37.3253   -8.2114 P   0  0  1  0  0  0  0  0  0  0  0  0
    5.6144   35.8391   -7.0625 P   0  0  2  0  0  0  0  0  0  0  0  0
   -1.1687   33.8449  -11.7343 C   0  0  0  0  0  0  0  0  0  0  0  0
    0.5523   30.2675   -7.4821 N   0  0  0  0  0  0  0  0  0  0  0  0
    4.4627   37.8236   -9.3996 O   0  5  0  0  0  0  0  0  0  0  0  0
    6.1720   35.7056   -8.4241 O   0  0  0  0  0  0  0  0  0  0  0  0
   -1.8341   32.8150  -11.0827 C   0  0  0  0  0  0  0  0  0  0  0  0
    0.1064   29.6971   -6.3522 C   0  0  0  0  0  0  0  0  0  0  0  0
    2.6286   38.6013   -7.7553 O   0  0  0  0  0  0  0  0  0  0  0  0
    5.0239   34.4457   -6.5281 O   0  5  0  0  0  0  0  0  0  0  0  0
   -1.8584   32.7848   -9.6876 N   0  0  0  0  0  0  0  0  0  0  0  0
   -1.1951   29.7429   -6.0330 N   0  0  0  0  0  0  0  0  0  0  0  0
    4.4328   36.9101   -6.9374 O   0  0  0  0  0  0  0  0  0  0  0  0
    6.7500   36.2451   -6.0187 O   0  0  0  0  0  0  0  0  0  0  0  0
   -1.2062   33.7866   -8.9589 C   0  0  1  0  0  0  0  0  0  0  0  0
   -2.0683   30.3598   -6.8389 C   0  0  0  0  0  0  0  0  0  0  0  0
   -3.3556   30.4003   -6.5110 N   0  0  0  0  0  0  0  0  0  0  0  0
   -0.5389   34.8203   -9.6140 C   0  0  2  0  0  0  0  0  0  0  0  0
   -1.6314   30.9600   -8.0135 C   0  0  0  0  0  0  0  0  0  0  0  0
   -0.5268   34.8371  -11.0034 C   0  0  0  0  0  0  0  0  0  0  0  0
   -0.2746   30.8875   -8.3074 C   0  0  0  0  0  0  0  0  0  0  0  0
   -2.5659   31.6848   -8.9908 C   0  0  0  0  0  0  0  0  0  0  0  0
  1 13  1  0  0  0  0
  3  4  1  0  0  0  0
  4  5  1  0  0  0  0
  6  5  1  6  0  0  0
  6 10  1  0  0  0  0
  6 14  2  0  0  0  0
  6 18  1  0  0  0  0
  7 11  1  6  0  0  0
  7 15  1  0  0  0  0
  7 19  2  0  0  0  0
  7 18  1  0  0  0  0
  8 25  1  0  0  0  0
  8 12  1  0  0  0  0
  9 26  2  0  0  0  0
  9 13  1  0  0  0  0
 12 16  1  0  0  0  0
 13 17  2  0  0  0  0
 16 20  1  0  0  0  0
 16 27  1  0  0  0  0
 17 21  1  0  0  0  0
 20  2  1  1  0  0  0
 20 23  1  0  0  0  0
 21 22  1  0  0  0  0
 21 24  2  0  0  0  0
 23  3  1  1  0  0  0
 23 25  1  0  0  0  0
 24 27  1  0  0  0  0
 24 26  1  0  0  0  0
M  CHG  2  10  -1  15  -1
M  END
>  <CHROM.1>
-120.03481923,-115.05340225,-73.51930900,66.92741988,24.86379426,139.26382058
149.38788817,124.43873836,1.43769682,34.10996655,-8.07044521,-2.55463555
-0.47131592,-0.57380699

>  <Name>
ligand

>  <RI>
0

>  <Rbt.Current_Directory>
/home/itssahil/PROJECTS/Mol_Feturizer/New_Systems/rnas/3D2V

>  <Rbt.Executable>
rbdock ($Id: //depot/dev/client3/rdock/2013.1/src/exe/rbdock.cxx#4 $)

>  <Rbt.Library>
libRbt.so (2013.1, Build901 2013/11/27)

>  <Rbt.Parameter_File>
/export/apps/rDock/src/rDock_2013.1_src/data/scripts/dock_solv.prm

>  <Rbt.Receptor>
prm/blind_docking_40.prm

>  <SCORE>
-0.931055

>  <SCORE.INTER>
-8.06966

>  <SCORE.INTER.CONST>
1

>  <SCORE.INTER.POLAR>
0

>  <SCORE.INTER.ROT>
8

>  <SCORE.INTER.SOLV>
28.5682

>  <SCORE.INTER.VDW>
-23.8358

>  <SCORE.INTER.norm>
-0.298876

>  <SCORE.INTRA>
7.13681

>  <SCORE.INTRA.DIHEDRAL>
11.829

>  <SCORE.INTRA.DIHEDRAL.0>
7.82666

>  <SCORE.INTRA.POLAR>
0

>  <SCORE.INTRA.POLAR.0>
0

>  <SCORE.INTRA.REPUL>
0

>  <SCORE.INTRA.REPUL.0>
0

>  <SCORE.INTRA.SOLV>
-1.44864

>  <SCORE.INTRA.SOLV.lig_0>
-83.2758

>  <SCORE.INTRA.VDW>
1.94662

>  <SCORE.INTRA.VDW.0>
-3.26816

>  <SCORE.INTRA.norm>
0.264326

>  <SCORE.RESTR>
0.001797

>  <SCORE.RESTR.CAVITY>
0.001797

>  <SCORE.RESTR.norm>
6.65554e-05

>  <SCORE.SYSTEM>
0

>  <SCORE.SYSTEM.CONST>
0

>  <SCORE.SYSTEM.DIHEDRAL>
0

>  <SCORE.SYSTEM.SOLV>
0

>  <SCORE.SYSTEM.norm>
0

>  <SCORE.heavy>
27

>  <SCORE.norm>
-0.0344835

>  <RMSD>
11.539

$$$$
ligand
 OpenBabel11021811463D
libRbt.so/2013.1/901 2013/11/27
 27 28  0  0  0  0  0  0  0  0999 V2000
    1.0760   29.6877   -6.6042 C   0  0  0  0  0  0  0  0  0  0  0  0
   -0.4924   34.7706   -8.0315 C   0  0  0  0  0  0  0  0  0  0  0  0
    1.1204   36.8918   -9.4006 C   0  0  0  0  0  0  0  0  0  0  0  0
    2.3885   36.0941   -9.0907 C   0  0  0  0  0  0  0  0  0  0  0  0
    3.4994   36.9701   -8.8836 O   0  0  0  0  0  0  0  0  0  0  0  0
    4.9993   36.4118   -9.0195 P   0  0  1  0  0  0  0  0  0  0  0  0
    5.9781   36.9836   -6.4366 P   0  0  2  0  0  0  0  0  0  0  0  0
   -0.9534   35.4834  -12.2583 C   0  0  0  0  0  0  0  0  0  0  0  0
    0.4590   30.9627   -8.6489 N   0  0  0  0  0  0  0  0  0  0  0  0
    5.0686   34.8511   -8.6637 O   0  5  0  0  0  0  0  0  0  0  0  0
    4.8733   37.6623   -5.7284 O   0  0  0  0  0  0  0  0  0  0  0  0
   -1.7115   34.4956  -11.6436 C   0  0  0  0  0  0  0  0  0  0  0  0
    0.1525   30.6209   -7.3879 C   0  0  0  0  0  0  0  0  0  0  0  0
    5.6014   36.5765  -10.5108 O   0  0  0  0  0  0  0  0  0  0  0  0
    7.4098   37.4621   -5.8915 O   0  5  0  0  0  0  0  0  0  0  0  0
   -1.5653   34.2671  -10.2746 N   0  0  0  0  0  0  0  0  0  0  0  0
   -0.9600   31.0910   -6.8053 N   0  0  0  0  0  0  0  0  0  0  0  0
    5.9917   37.2236   -8.0181 O   0  0  0  0  0  0  0  0  0  0  0  0
    5.9347   35.4092   -6.1850 O   0  0  0  0  0  0  0  0  0  0  0  0
   -0.6516   35.0288   -9.5362 C   0  0  1  0  0  0  0  0  0  0  0  0
   -1.7807   31.9095   -7.4754 C   0  0  0  0  0  0  0  0  0  0  0  0
   -2.8794   32.3707   -6.8868 N   0  0  0  0  0  0  0  0  0  0  0  0
    0.1085   36.0205  -10.1541 C   0  0  2  0  0  0  0  0  0  0  0  0
   -1.4845   32.2802   -8.7814 C   0  0  0  0  0  0  0  0  0  0  0  0
   -0.0514   36.2371  -11.5173 C   0  0  0  0  0  0  0  0  0  0  0  0
   -0.3227   31.7685   -9.3480 C   0  0  0  0  0  0  0  0  0  0  0  0
   -2.3716   33.2115   -9.6178 C   0  0  0  0  0  0  0  0  0  0  0  0
  1 13  1  0  0  0  0
  3  4  1  0  0  0  0
  4  5  1  0  0  0  0
  6  5  1  1  0  0  0
  6 10  1  0  0  0  0
  6 14  2  0  0  0  0
  6 18  1  0  0  0  0
  7 11  1  1  0  0  0
  7 15  1  0  0  0  0
  7 19  2  0  0  0  0
  7 18  1  0  0  0  0
  8 25  1  0  0  0  0
  8 12  1  0  0  0  0
  9 26  2  0  0  0  0
  9 13  1  0  0  0  0
 12 16  1  0  0  0  0
 13 17  2  0  0  0  0
 16 20  1  0  0  0  0
 16 27  1  0  0  0  0
 17 21  1  0  0  0  0
 20  2  1  1  0  0  0
 20 23  1  0  0  0  0
 21 22  1  0  0  0  0
 21 24  2  0  0  0  0
 23  3  1  6  0  0  0
 23 25  1  0  0  0  0
 24 27  1  0  0  0  0
 24 26  1  0  0  0  0
M  CHG  2  10  -1  15  -1
M  END
>  <CHROM.1>
157.29720821,-160.02519356,-28.29148163,73.88349571,-78.87797673,75.21968932
132.35331035,129.59755230,2.02112763,34.81653209,-8.45925318,-2.86995091
-0.50112033,-0.72903184

>  <Name>
ligand

>  <RI>
0

>  <Rbt.Current_Directory>
/home/itssahil/PROJECTS/Mol_Feturizer/New_Systems/rnas/3D2V

>  <Rbt.Executable>
rbdock ($Id: //depot/dev/client3/rdock/2013.1/src/exe/rbdock.cxx#4 $)

>  <Rbt.Library>
libRbt.so (2013.1, Build901 2013/11/27)

>  <Rbt.Parameter_File>
/export/apps/rDock/src/rDock_2013.1_src/data/scripts/dock_solv.prm

>  <Rbt.Receptor>
prm/blind_docking_40.prm

>  <SCORE>
-12.6536

>  <SCORE.INTER>
-16.6375

>  <SCORE.INTER.CONST>
1

>  <SCORE.INTER.POLAR>
0

>  <SCORE.INTER.ROT>
8

>  <SCORE.INTER.SOLV>
28.1001

>  <SCORE.INTER.VDW>
-29.3917

>  <SCORE.INTER.norm>
-0.616202

>  <SCORE.INTRA>
3.97036

>  <SCORE.INTRA.DIHEDRAL>
3.0214

>  <SCORE.INTRA.DIHEDRAL.0>
7.82666

>  <SCORE.INTRA.POLAR>
0

>  <SCORE.INTRA.POLAR.0>
0

>  <SCORE.INTRA.REPUL>
0

>  <SCORE.INTRA.REPUL.0>
0

>  <SCORE.INTRA.SOLV>
0.173708

>  <SCORE.INTRA.SOLV.lig_0>
-83.2758

>  <SCORE.INTRA.VDW>
2.37281

>  <SCORE.INTRA.VDW.0>
-3.26816

>  <SCORE.INTRA.norm>
0.14705

>  <SCORE.RESTR>
0.0135415

>  <SCORE.RESTR.CAVITY>
0.0135415

>  <SCORE.RESTR.norm>
0.000501538

>  <SCORE.SYSTEM>
0

>  <SCORE.SYSTEM.CONST>
0

>  <SCORE.SYSTEM.DIHEDRAL>
0

>  <SCORE.SYSTEM.SOLV>
0

>  <SCORE.SYSTEM.norm>
0

>  <SCORE.heavy>
27

>  <SCORE.norm>
-0.46865

>  <RMSD>
11.581

$$$$
ligand
 OpenBabel11021811463D
libRbt.so/2013.1/901 2013/11/27
 27 28  0  0  0  0  0  0  0  0999 V2000
    2.5949   30.9926   -6.4885 C   0  0  0  0  0  0  0  0  0  0  0  0
   -3.8342   32.6662  -12.0545 C   0  0  0  0  0  0  0  0  0  0  0  0
   -3.3829   35.1792  -13.6218 C   0  0  0  0  0  0  0  0  0  0  0  0
   -4.5249   35.9276  -12.9317 C   0  0  0  0  0  0  0  0  0  0  0  0
   -5.5107   35.0118  -12.4482 O   0  0  0  0  0  0  0  0  0  0  0  0
   -6.8654   35.5650  -11.7858 P   0  0  1  0  0  0  0  0  0  0  0  0
   -9.5406   34.8089  -12.2633 P   0  0  2  0  0  0  0  0  0  0  0  0
   -0.2589   35.0016  -11.4631 C   0  0  0  0  0  0  0  0  0  0  0  0
    1.5620   30.9786   -8.7513 N   0  0  0  0  0  0  0  0  0  0  0  0
   -6.6389   35.9543  -10.2482 O   0  5  0  0  0  0  0  0  0  0  0  0
   -9.7070   35.3093  -13.6433 O   0  0  0  0  0  0  0  0  0  0  0  0
   -0.4478   33.8397  -10.7265 C   0  0  0  0  0  0  0  0  0  0  0  0
    1.4197   31.2223   -7.4393 C   0  0  0  0  0  0  0  0  0  0  0  0
   -7.4336   36.8874  -12.5220 O   0  0  0  0  0  0  0  0  0  0  0  0
  -10.0357   35.8863  -11.1818 O   0  5  0  0  0  0  0  0  0  0  0  0
   -1.6032   33.0814  -10.9204 N   0  0  0  0  0  0  0  0  0  0  0  0
    0.2528   31.6672   -6.9512 N   0  0  0  0  0  0  0  0  0  0  0  0
   -8.0339   34.4367  -11.8756 O   0  0  0  0  0  0  0  0  0  0  0  0
  -10.4396   33.5153  -12.0136 O   0  0  0  0  0  0  0  0  0  0  0  0
   -2.5636   33.5023  -11.8481 C   0  0  1  0  0  0  0  0  0  0  0  0
   -0.7874   31.8747   -7.7681 C   0  0  0  0  0  0  0  0  0  0  0  0
   -1.9386   32.3176   -7.2730 N   0  0  0  0  0  0  0  0  0  0  0  0
   -2.3729   34.6686  -12.5874 C   0  0  1  0  0  0  0  0  0  0  0  0
   -0.6649   31.6320   -9.1308 C   0  0  0  0  0  0  0  0  0  0  0  0
   -1.2156   35.4103  -12.3843 C   0  0  0  0  0  0  0  0  0  0  0  0
    0.5613   31.1697   -9.5946 C   0  0  0  0  0  0  0  0  0  0  0  0
   -1.8073   31.8427  -10.1331 C   0  0  0  0  0  0  0  0  0  0  0  0
  1 13  1  0  0  0  0
  3  4  1  0  0  0  0
  4  5  1  0  0  0  0
  6  5  1  6  0  0  0
  6 10  1  0  0  0  0
  6 14  2  0  0  0  0
  6 18  1  0  0  0  0
  7 11  1  6  0  0  0
  7 15  1  0  0  0  0
  7 19  2  0  0  0  0
  7 18  1  0  0  0  0
  8 25  1  0  0  0  0
  8 12  1  0  0  0  0
  9 26  2  0  0  0  0
  9 13  1  0  0  0  0
 12 16  1  0  0  0  0
 13 17  2  0  0  0  0
 16 20  1  0  0  0  0
 16 27  1  0  0  0  0
 17 21  1  0  0  0  0
 20  2  1  6  0  0  0
 20 23  1  0  0  0  0
 21 22  1  0  0  0  0
 21 24  2  0  0  0  0
 23  3  1  6  0  0  0
 23 25  1  0  0  0  0
 24 27  1  0  0  0  0
 24 26  1  0  0  0  0
M  CHG  2  10  -1  15  -1
M  END
>  <CHROM.1>
-82.70308757,-175.24209554,-82.25955125,-138.03671956,65.58407356,80.94166495
104.05616613,2.74558640,-4.11499538,33.90721693,-10.90211288,0.50080026,-0.06723622
2.19107873

>  <Name>
ligand

>  <RI>
0

>  <Rbt.Current_Directory>
/home/itssahil/PROJECTS/Mol_Feturizer/New_Systems/rnas/3D2V

>  <Rbt.Executable>
rbdock ($Id: //depot/dev/client3/rdock/2013.1/src/exe/rbdock.cxx#4 $)

>  <Rbt.Library>
libRbt.so (2013.1, Build901 2013/11/27)

>  <Rbt.Parameter_File>
/export/apps/rDock/src/rDock_2013.1_src/data/scripts/dock_solv.prm

>  <Rbt.Receptor>
prm/blind_docking_40.prm

>  <SCORE>
-7.58019

>  <SCORE.INTER>
-10.5225

>  <SCORE.INTER.CONST>
1

>  <SCORE.INTER.POLAR>
0

>  <SCORE.INTER.ROT>
8

>  <SCORE.INTER.SOLV>
24.2184

>  <SCORE.INTER.VDW>
-24.0212

>  <SCORE.INTER.norm>
-0.389724

>  <SCORE.INTRA>
1.83145

>  <SCORE.INTRA.DIHEDRAL>
1.90991

>  <SCORE.INTRA.DIHEDRAL.0>
7.82666

>  <SCORE.INTRA.POLAR>
0

>  <SCORE.INTRA.POLAR.0>
0

>  <SCORE.INTRA.REPUL>
0

>  <SCORE.INTRA.REPUL.0>
0

>  <SCORE.INTRA.SOLV>
-0.0319253

>  <SCORE.INTRA.SOLV.lig_0>
-83.2758

>  <SCORE.INTRA.VDW>
0.892462

>  <SCORE.INTRA.VDW.0>
-3.26816

>  <SCORE.INTRA.norm>
0.0678317

>  <SCORE.RESTR>
1.1109

>  <SCORE.RESTR.CAVITY>
1.1109

>  <SCORE.RESTR.norm>
0.0411444

>  <SCORE.SYSTEM>
0

>  <SCORE.SYSTEM.CONST>
0

>  <SCORE.SYSTEM.DIHEDRAL>
0

>  <SCORE.SYSTEM.SOLV>
0

>  <SCORE.SYSTEM.norm>
0

>  <SCORE.heavy>
27

>  <SCORE.norm>
-0.280748

>  <RMSD>
11.605

$$$$
ligand
 OpenBabel11021811463D
libRbt.so/2013.1/901 2013/11/27
 27 28  0  0  0  0  0  0  0  0999 V2000
    6.6056   36.6579   -8.2722 C   0  0  0  0  0  0  0  0  0  0  0  0
   -0.9319   34.2672   -8.3449 C   0  0  0  0  0  0  0  0  0  0  0  0
   -1.8645   33.1335  -10.9565 C   0  0  0  0  0  0  0  0  0  0  0  0
   -3.2564   33.4833  -10.4264 C   0  0  0  0  0  0  0  0  0  0  0  0
   -3.8180   34.5741  -11.1606 O   0  0  0  0  0  0  0  0  0  0  0  0
   -5.3892   34.8902  -11.0540 P   0  0  1  0  0  0  0  0  0  0  0  0
   -6.6491   36.1541   -8.8696 P   0  0  2  0  0  0  0  0  0  0  0  0
    0.3125   36.0438  -12.0707 C   0  0  0  0  0  0  0  0  0  0  0  0
    4.4152   35.5700   -8.7262 N   0  0  0  0  0  0  0  0  0  0  0  0
   -6.0197   35.1758  -12.4990 O   0  5  0  0  0  0  0  0  0  0  0  0
   -6.3946   35.0626   -7.9071 O   0  0  0  0  0  0  0  0  0  0  0  0
    0.7571   36.5849  -10.8717 C   0  0  0  0  0  0  0  0  0  0  0  0
    5.0767   36.6552   -8.2952 C   0  0  0  0  0  0  0  0  0  0  0  0
   -6.2355   33.6731  -10.4091 O   0  0  0  0  0  0  0  0  0  0  0  0
   -8.1249   36.0583   -9.4928 O   0  5  0  0  0  0  0  0  0  0  0  0
    0.3575   36.0078   -9.6654 N   0  0  0  0  0  0  0  0  0  0  0  0
    4.4082   37.7419   -7.8825 N   0  0  0  0  0  0  0  0  0  0  0  0
   -5.6358   36.1898  -10.1069 O   0  0  0  0  0  0  0  0  0  0  0  0
   -6.5857   37.5757   -8.1493 O   0  0  0  0  0  0  0  0  0  0  0  0
   -0.4928   34.8956   -9.6747 C   0  0  1  0  0  0  0  0  0  0  0  0
    3.0696   37.7584   -7.8956 C   0  0  0  0  0  0  0  0  0  0  0  0
    2.4180   38.8420   -7.4860 N   0  0  0  0  0  0  0  0  0  0  0  0
   -0.9382   34.3529  -10.8789 C   0  0  1  0  0  0  0  0  0  0  0  0
    2.3614   36.6483   -8.3396 C   0  0  0  0  0  0  0  0  0  0  0  0
   -0.5286   34.9377  -12.0710 C   0  0  0  0  0  0  0  0  0  0  0  0
    3.0933   35.5424   -8.7564 C   0  0  0  0  0  0  0  0  0  0  0  0
    0.8291   36.5857   -8.3850 C   0  0  0  0  0  0  0  0  0  0  0  0
  1 13  1  0  0  0  0
  3  4  1  0  0  0  0
  4  5  1  0  0  0  0
  6  5  1  6  0  0  0
  6 10  1  0  0  0  0
  6 14  2  0  0  0  0
  6 18  1  0  0  0  0
  7 11  1  1  0  0  0
  7 15  1  0  0  0  0
  7 19  2  0  0  0  0
  7 18  1  0  0  0  0
  8 25  1  0  0  0  0
  8 12  1  0  0  0  0
  9 26  2  0  0  0  0
  9 13  1  0  0  0  0
 12 16  1  0  0  0  0
 13 17  2  0  0  0  0
 16 20  1  0  0  0  0
 16 27  1  0  0  0  0
 17 21  1  0  0  0  0
 20  2  1  6  0  0  0
 20 23  1  0  0  0  0
 21 22  1  0  0  0  0
 21 24  2  0  0  0  0
 23  3  1  6  0  0  0
 23 25  1  0  0  0  0
 24 27  1  0  0  0  0
 24 26  1  0  0  0  0
M  CHG  2  10  -1  15  -1
M  END
>  <CHROM.1>
57.75213835,164.63062100,-135.22797740,-127.44719963,54.04070079,68.38120805
135.12010348,-55.89260513,-1.74942118,35.70555596,-9.60496574,0.18884357
0.00808795,0.85998018

>  <Name>
ligand

>  <RI>
0

>  <Rbt.Current_Directory>
/home/itssahil/PROJECTS/Mol_Feturizer/New_Systems/rnas/3D2V

>  <Rbt.Executable>
rbdock ($Id: //depot/dev/client3/rdock/2013.1/src/exe/rbdock.cxx#4 $)

>  <Rbt.Library>
libRbt.so (2013.1, Build901 2013/11/27)

>  <Rbt.Parameter_File>
/export/apps/rDock/src/rDock_2013.1_src/data/scripts/dock_solv.prm

>  <Rbt.Receptor>
prm/blind_docking_40.prm

>  <SCORE>
-8.57868

>  <SCORE.INTER>
-10.9926

>  <SCORE.INTER.CONST>
1

>  <SCORE.INTER.POLAR>
0

>  <SCORE.INTER.ROT>
8

>  <SCORE.INTER.SOLV>
28.6325

>  <SCORE.INTER.VDW>
-25.8059

>  <SCORE.INTER.norm>
-0.407135

>  <SCORE.INTRA>
1.38917

>  <SCORE.INTRA.DIHEDRAL>
2.85438

>  <SCORE.INTRA.DIHEDRAL.0>
7.82666

>  <SCORE.INTRA.POLAR>
0

>  <SCORE.INTRA.POLAR.0>
0

>  <SCORE.INTRA.REPUL>
0

>  <SCORE.INTRA.REPUL.0>
0

>  <SCORE.INTRA.SOLV>
-0.983158

>  <SCORE.INTRA.SOLV.lig_0>
-83.2758

>  <SCORE.INTRA.VDW>
0.453564

>  <SCORE.INTRA.VDW.0>
-3.26816

>  <SCORE.INTRA.norm>
0.0514508

>  <SCORE.RESTR>
1.02478

>  <SCORE.RESTR.CAVITY>
1.02478

>  <SCORE.RESTR.norm>
0.0379548

>  <SCORE.SYSTEM>
0

>  <SCORE.SYSTEM.CONST>
0

>  <SCORE.SYSTEM.DIHEDRAL>
0

>  <SCORE.SYSTEM.SOLV>
0

>  <SCORE.SYSTEM.norm>
0

>  <SCORE.heavy>
27

>  <SCORE.norm>
-0.317729

>  <RMSD>
11.680

$$$$
ligand
 OpenBabel11021811463D
libRbt.so/2013.1/901 2013/11/27
 27 28  0  0  0  0  0  0  0  0999 V2000
    5.4575   37.4376   -5.6813 C   0  0  0  0  0  0  0  0  0  0  0  0
   -0.0132   36.0508  -11.7451 C   0  0  0  0  0  0  0  0  0  0  0  0
   -1.6201   33.5388  -11.4570 C   0  0  0  0  0  0  0  0  0  0  0  0
   -2.7702   34.3276  -12.0862 C   0  0  0  0  0  0  0  0  0  0  0  0
   -3.2516   33.6699  -13.2609 O   0  0  0  0  0  0  0  0  0  0  0  0
   -4.3225   34.4007  -14.2093 P   0  0  1  0  0  0  0  0  0  0  0  0
   -6.2397   35.1706  -12.2889 P   0  0  2  0  0  0  0  0  0  0  0  0
   -0.8200   34.4048   -7.8430 C   0  0  0  0  0  0  0  0  0  0  0  0
    3.4770   38.4669   -6.7793 N   0  0  0  0  0  0  0  0  0  0  0  0
   -3.9532   35.9464  -14.4126 O   0  5  0  0  0  0  0  0  0  0  0  0
   -7.6411   35.6372  -12.3190 O   0  0  0  0  0  0  0  0  0  0  0  0
   -0.0736   35.5705   -7.9538 C   0  0  0  0  0  0  0  0  0  0  0  0
    4.2780   37.3975   -6.6535 C   0  0  0  0  0  0  0  0  0  0  0  0
   -4.4102   33.7450  -15.6844 O   0  0  0  0  0  0  0  0  0  0  0  0
   -5.2106   36.3999  -12.2130 O   0  5  0  0  0  0  0  0  0  0  0  0
    0.1846   36.1057   -9.2165 N   0  0  0  0  0  0  0  0  0  0  0  0
    4.0540   36.2894   -7.3746 N   0  0  0  0  0  0  0  0  0  0  0  0
   -5.8096   34.2969  -13.5580 O   0  0  0  0  0  0  0  0  0  0  0  0
   -5.9563   34.3008  -10.9824 O   0  0  0  0  0  0  0  0  0  0  0  0
   -0.3034   35.4596  -10.3587 C   0  0  1  0  0  0  0  0  0  0  0  0
    3.0262   36.2353   -8.2307 C   0  0  0  0  0  0  0  0  0  0  0  0
    2.8131   35.1308   -8.9386 N   0  0  0  0  0  0  0  0  0  0  0  0
   -1.0530   34.2897  -10.2465 C   0  0  1  0  0  0  0  0  0  0  0  0
    2.1809   37.3283   -8.3775 C   0  0  0  0  0  0  0  0  0  0  0  0
   -1.3035   33.7718   -8.9816 C   0  0  0  0  0  0  0  0  0  0  0  0
    2.4501   38.4575   -7.6127 C   0  0  0  0  0  0  0  0  0  0  0  0
    0.9833   37.3482   -9.3363 C   0  0  0  0  0  0  0  0  0  0  0  0
  1 13  1  0  0  0  0
  3  4  1  0  0  0  0
  4  5  1  0  0  0  0
  6  5  1  1  0  0  0
  6 10  1  0  0  0  0
  6 14  2  0  0  0  0
  6 18  1  0  0  0  0
  7 11  1  6  0  0  0
  7 15  1  0  0  0  0
  7 19  2  0  0  0  0
  7 18  1  0  0  0  0
  8 25  1  0  0  0  0
  8 12  1  0  0  0  0
  9 26  2  0  0  0  0
  9 13  1  0  0  0  0
 12 16  1  0  0  0  0
 13 17  2  0  0  0  0
 16 20  1  0  0  0  0
 16 27  1  0  0  0  0
 17 21  1  0  0  0  0
 20  2  1  1  0  0  0
 20 23  1  0  0  0  0
 21 22  1  0  0  0  0
 21 24  2  0  0  0  0
 23  3  1  1  0  0  0
 23 25  1  0  0  0  0
 24 27  1  0  0  0  0
 24 26  1  0  0  0  0
M  CHG  2  10  -1  15  -1
M  END
>  <CHROM.1>
176.64769463,-171.75742459,42.31324247,73.78652401,143.43479736,-71.19478071
46.27575137,41.91540136,-1.52272281,35.50002697,-10.70466925,0.63266945,-0.03031086
1.16753813

>  <Name>
ligand

>  <RI>
0

>  <Rbt.Current_Directory>
/home/itssahil/PROJECTS/Mol_Feturizer/New_Systems/rnas/3D2V

>  <Rbt.Executable>
rbdock ($Id: //depot/dev/client3/rdock/2013.1/src/exe/rbdock.cxx#4 $)

>  <Rbt.Library>
libRbt.so (2013.1, Build901 2013/11/27)

>  <Rbt.Parameter_File>
/export/apps/rDock/src/rDock_2013.1_src/data/scripts/dock_solv.prm

>  <Rbt.Receptor>
prm/blind_docking_100.prm

>  <SCORE>
-12.5887

>  <SCORE.INTER>
-15.1336

>  <SCORE.INTER.CONST>
1

>  <SCORE.INTER.POLAR>
0

>  <SCORE.INTER.ROT>
8

>  <SCORE.INTER.SOLV>
26.5343

>  <SCORE.INTER.VDW>
-27.8672

>  <SCORE.INTER.norm>
-0.560503

>  <SCORE.INTRA>
2.53145

>  <SCORE.INTRA.DIHEDRAL>
0.117959

>  <SCORE.INTRA.DIHEDRAL.0>
7.82666

>  <SCORE.INTRA.POLAR>
0

>  <SCORE.INTRA.POLAR.0>
0

>  <SCORE.INTRA.REPUL>
0

>  <SCORE.INTRA.REPUL.0>
0

>  <SCORE.INTRA.SOLV>
4.63483

>  <SCORE.INTRA.SOLV.lig_0>
-83.2758

>  <SCORE.INTRA.VDW>
0.155055

>  <SCORE.INTRA.VDW.0>
-3.26816

>  <SCORE.INTRA.norm>
0.0937574

>  <SCORE.RESTR>
0.0134442

>  <SCORE.RESTR.CAVITY>
0.0134442

>  <SCORE.RESTR.norm>
0.000497935

>  <SCORE.SYSTEM>
0

>  <SCORE.SYSTEM.CONST>
0

>  <SCORE.SYSTEM.DIHEDRAL>
0

>  <SCORE.SYSTEM.SOLV>
0

>  <SCORE.SYSTEM.norm>
0

>  <SCORE.heavy>
27

>  <SCORE.norm>
-0.466248

>  <RMSD>
11.692

$$$$
ligand
 OpenBabel11021811463D
libRbt.so/2013.1/901 2013/11/27
 27 28  0  0  0  0  0  0  0  0999 V2000
    1.9902   29.8994   -6.0851 C   0  0  0  0  0  0  0  0  0  0  0  0
   -0.5722   34.6208   -7.9596 C   0  0  0  0  0  0  0  0  0  0  0  0
    0.3563   36.5761  -10.0308 C   0  0  0  0  0  0  0  0  0  0  0  0
    1.7138   36.0214   -9.5947 C   0  0  0  0  0  0  0  0  0  0  0  0
    2.5535   37.0684   -9.1018 O   0  0  0  0  0  0  0  0  0  0  0  0
    4.0646   36.7468   -8.6621 P   0  0  1  0  0  0  0  0  0  0  0  0
    5.4173   34.9488   -6.9609 P   0  0  2  0  0  0  0  0  0  0  0  0
   -1.9376   34.3032  -12.0365 C   0  0  0  0  0  0  0  0  0  0  0  0
   -0.0483   31.3244   -6.1163 N   0  0  0  0  0  0  0  0  0  0  0  0
    5.0122   36.5676   -9.9415 O   0  5  0  0  0  0  0  0  0  0  0  0
    5.3210   33.6205   -6.3215 O   0  0  0  0  0  0  0  0  0  0  0  0
   -2.3810   33.3867  -11.0923 C   0  0  0  0  0  0  0  0  0  0  0  0
    0.8310   30.5846   -6.8094 C   0  0  0  0  0  0  0  0  0  0  0  0
    4.7206   37.9146   -7.7568 O   0  0  0  0  0  0  0  0  0  0  0  0
    5.6825   36.1054   -5.8803 O   0  5  0  0  0  0  0  0  0  0  0  0
   -1.9422   33.4914   -9.7716 N   0  0  0  0  0  0  0  0  0  0  0  0
    0.7033   30.4394   -8.1363 N   0  0  0  0  0  0  0  0  0  0  0  0
    4.1119   35.3821   -7.7778 O   0  0  0  0  0  0  0  0  0  0  0  0
    6.6584   35.0117   -7.9607 O   0  0  0  0  0  0  0  0  0  0  0  0
   -1.0543   34.5127   -9.4128 C   0  0  1  0  0  0  0  0  0  0  0  0
   -0.3052   31.0314   -8.7879 C   0  0  0  0  0  0  0  0  0  0  0  0
   -0.4226   30.8786  -10.1030 N   0  0  0  0  0  0  0  0  0  0  0  0
   -0.6101   35.4326  -10.3613 C   0  0  1  0  0  0  0  0  0  0  0  0
   -1.2303   31.8007   -8.0927 C   0  0  0  0  0  0  0  0  0  0  0  0
   -1.0590   35.3159  -11.6711 C   0  0  0  0  0  0  0  0  0  0  0  0
   -1.0598   31.9268   -6.7189 C   0  0  0  0  0  0  0  0  0  0  0  0
   -2.4125   32.5124   -8.7635 C   0  0  0  0  0  0  0  0  0  0  0  0
  1 13  1  0  0  0  0
  3  4  1  0  0  0  0
  4  5  1  0  0  0  0
  6  5  1  6  0  0  0
  6 10  1  0  0  0  0
  6 14  2  0  0  0  0
  6 18  1  0  0  0  0
  7 11  1  1  0  0  0
  7 15  1  0  0  0  0
  7 19  2  0  0  0  0
  7 18  1  0  0  0  0
  8 25  1  0  0  0  0
  8 12  1  0  0  0  0
  9 26  2  0  0  0  0
  9 13  1  0  0  0  0
 12 16  1  0  0  0  0
 13 17  2  0  0  0  0
 16 20  1  0  0  0  0
 16 27  1  0  0  0  0
 17 21  1  0  0  0  0
 20  2  1  1  0  0  0
 20 23  1  0  0  0  0
 21 22  1  0  0  0  0
 21 24  2  0  0  0  0
 23  3  1  1  0  0  0
 23 25  1  0  0  0  0
 24 27  1  0  0  0  0
 24 26  1  0  0  0  0
M  CHG  2  10  -1  15  -1
M  END
>  <CHROM.1>
-171.62000204,-176.45358674,76.39285749,-168.05157794,-174.48984745,64.15968703
-60.46260662,123.14483639,1.76841831,34.22853464,-8.45356605,-2.83221403
-0.45393835,-0.55270348

>  <Name>
ligand

>  <RI>
0

>  <Rbt.Current_Directory>
/home/itssahil/PROJECTS/Mol_Feturizer/New_Systems/rnas/3D2V

>  <Rbt.Executable>
rbdock ($Id: //depot/dev/client3/rdock/2013.1/src/exe/rbdock.cxx#4 $)

>  <Rbt.Library>
libRbt.so (2013.1, Build901 2013/11/27)

>  <Rbt.Parameter_File>
/export/apps/rDock/src/rDock_2013.1_src/data/scripts/dock_solv.prm

>  <Rbt.Receptor>
prm/blind_docking_40.prm

>  <SCORE>
-8.07322

>  <SCORE.INTER>
-11.6152

>  <SCORE.INTER.CONST>
1

>  <SCORE.INTER.POLAR>
0

>  <SCORE.INTER.ROT>
8

>  <SCORE.INTER.SOLV>
23.7854

>  <SCORE.INTER.VDW>
-24.6053

>  <SCORE.INTER.norm>
-0.430194

>  <SCORE.INTRA>
2.56876

>  <SCORE.INTRA.DIHEDRAL>
-1.62661

>  <SCORE.INTRA.DIHEDRAL.0>
7.82666

>  <SCORE.INTRA.POLAR>
0

>  <SCORE.INTRA.POLAR.0>
0

>  <SCORE.INTRA.REPUL>
0

>  <SCORE.INTRA.REPUL.0>
0

>  <SCORE.INTRA.SOLV>
3.26348

>  <SCORE.INTRA.SOLV.lig_0>
-83.2758

>  <SCORE.INTRA.VDW>
1.75032

>  <SCORE.INTRA.VDW.0>
-3.26816

>  <SCORE.INTRA.norm>
0.0951393

>  <SCORE.RESTR>
0.973242

>  <SCORE.RESTR.CAVITY>
0.973242

>  <SCORE.RESTR.norm>
0.036046

>  <SCORE.SYSTEM>
0

>  <SCORE.SYSTEM.CONST>
0

>  <SCORE.SYSTEM.DIHEDRAL>
0

>  <SCORE.SYSTEM.SOLV>
0

>  <SCORE.SYSTEM.norm>
0

>  <SCORE.heavy>
27

>  <SCORE.norm>
-0.299008

>  <RMSD>
11.869

$$$$
ligand
 OpenBabel11021811463D
libRbt.so/2013.1/901 2013/11/27
 27 28  0  0  0  0  0  0  0  0999 V2000
   -8.0266   35.4779  -11.4238 C   0  0  0  0  0  0  0  0  0  0  0  0
   -2.2273   32.4453  -11.6640 C   0  0  0  0  0  0  0  0  0  0  0  0
   -0.1477   32.9640   -9.5708 C   0  0  0  0  0  0  0  0  0  0  0  0
    0.0015   33.6399   -8.2064 C   0  0  0  0  0  0  0  0  0  0  0  0
   -1.2788   33.8701   -7.6130 O   0  0  0  0  0  0  0  0  0  0  0  0
   -2.1954   32.6269   -7.1720 P   0  0  1  0  0  0  0  0  0  0  0  0
   -0.3877   30.6683   -6.2487 P   0  0  2  0  0  0  0  0  0  0  0  0
   -0.0946   36.1911  -11.5793 C   0  0  0  0  0  0  0  0  0  0  0  0
   -5.5510   35.7204  -11.4258 N   0  0  0  0  0  0  0  0  0  0  0  0
   -2.6407   32.7538   -5.6381 O   0  5  0  0  0  0  0  0  0  0  0  0
   -0.8630   30.8602   -4.8631 O   0  0  0  0  0  0  0  0  0  0  0  0
   -1.0550   35.9717  -12.5578 C   0  0  0  0  0  0  0  0  0  0  0  0
   -6.6433   35.2157  -12.0201 C   0  0  0  0  0  0  0  0  0  0  0  0
   -3.5523   32.5032   -8.0420 O   0  0  0  0  0  0  0  0  0  0  0  0
    1.0273   31.3857   -6.4912 O   0  5  0  0  0  0  0  0  0  0  0  0
   -1.7483   34.7608  -12.5834 N   0  0  0  0  0  0  0  0  0  0  0  0
   -6.5339   34.4805  -13.1362 N   0  0  0  0  0  0  0  0  0  0  0  0
   -1.3803   31.2328   -7.3690 O   0  0  0  0  0  0  0  0  0  0  0  0
   -0.1367   29.1236   -6.5565 O   0  0  0  0  0  0  0  0  0  0  0  0
   -1.4642   33.7767  -11.6289 C   0  0  1  0  0  0  0  0  0  0  0  0
   -5.3313   34.2404  -13.6733 C   0  0  0  0  0  0  0  0  0  0  0  0
   -5.2356   33.5120  -14.7808 N   0  0  0  0  0  0  0  0  0  0  0  0
   -0.5003   33.9981  -10.6466 C   0  0  2  0  0  0  0  0  0  0  0  0
   -4.1853   34.7538  -13.0783 C   0  0  0  0  0  0  0  0  0  0  0  0
    0.1787   35.2103  -10.6337 C   0  0  0  0  0  0  0  0  0  0  0  0
   -4.3434   35.5086  -11.9217 C   0  0  0  0  0  0  0  0  0  0  0  0
   -2.7717   34.5243  -13.6287 C   0  0  0  0  0  0  0  0  0  0  0  0
  1 13  1  0  0  0  0
  3  4  1  0  0  0  0
  4  5  1  0  0  0  0
  6  5  1  6  0  0  0
  6 10  1  0  0  0  0
  6 14  2  0  0  0  0
  6 18  1  0  0  0  0
  7 11  1  1  0  0  0
  7 15  1  0  0  0  0
  7 19  2  0  0  0  0
  7 18  1  0  0  0  0
  8 25  1  0  0  0  0
  8 12  1  0  0  0  0
  9 26  2  0  0  0  0
  9 13  1  0  0  0  0
 12 16  1  0  0  0  0
 13 17  2  0  0  0  0
 16 20  1  0  0  0  0
 16 27  1  0  0  0  0
 17 21  1  0  0  0  0
 20  2  1  1  0  0  0
 20 23  1  0  0  0  0
 21 22  1  0  0  0  0
 21 24  2  0  0  0  0
 23  3  1  6  0  0  0
 23 25  1  0  0  0  0
 24 27  1  0  0  0  0
 24 26  1  0  0  0  0
M  CHG  2  10  -1  15  -1
M  END
>  <CHROM.1>
80.32336060,65.97441152,126.34699603,84.92689699,38.75148576,-137.09921082
-160.16320349,-100.20330362,-2.35216384,33.32160142,-9.67736236,2.08998846
0.00650157,-1.06812680

>  <Name>
ligand

>  <RI>
0

>  <Rbt.Current_Directory>
/home/itssahil/PROJECTS/Mol_Feturizer/New_Systems/rnas/3D2V

>  <Rbt.Executable>
rbdock ($Id: //depot/dev/client3/rdock/2013.1/src/exe/rbdock.cxx#4 $)

>  <Rbt.Library>
libRbt.so (2013.1, Build901 2013/11/27)

>  <Rbt.Parameter_File>
/export/apps/rDock/src/rDock_2013.1_src/data/scripts/dock_solv.prm

>  <Rbt.Receptor>
prm/blind_docking_40.prm

>  <SCORE>
-8.67113

>  <SCORE.INTER>
-11.1667

>  <SCORE.INTER.CONST>
1

>  <SCORE.INTER.POLAR>
0

>  <SCORE.INTER.ROT>
8

>  <SCORE.INTER.SOLV>
19.1205

>  <SCORE.INTER.VDW>
-22.7513

>  <SCORE.INTER.norm>
-0.413581

>  <SCORE.INTRA>
2.3111

>  <SCORE.INTRA.DIHEDRAL>
2.8714

>  <SCORE.INTRA.DIHEDRAL.0>
7.82666

>  <SCORE.INTRA.POLAR>
0

>  <SCORE.INTRA.POLAR.0>
0

>  <SCORE.INTRA.REPUL>
0

>  <SCORE.INTRA.REPUL.0>
0

>  <SCORE.INTRA.SOLV>
1.19964

>  <SCORE.INTRA.SOLV.lig_0>
-83.2758

>  <SCORE.INTRA.VDW>
0.275584

>  <SCORE.INTRA.VDW.0>
-3.26816

>  <SCORE.INTRA.norm>
0.0855963

>  <SCORE.RESTR>
0.184451

>  <SCORE.RESTR.CAVITY>
0.184451

>  <SCORE.RESTR.norm>
0.0068315

>  <SCORE.SYSTEM>
0

>  <SCORE.SYSTEM.CONST>
0

>  <SCORE.SYSTEM.DIHEDRAL>
0

>  <SCORE.SYSTEM.SOLV>
0

>  <SCORE.SYSTEM.norm>
0

>  <SCORE.heavy>
27

>  <SCORE.norm>
-0.321153

>  <RMSD>
11.902

$$$$
ligand
 OpenBabel11021811463D
libRbt.so/2013.1/901 2013/11/27
 27 28  0  0  0  0  0  0  0  0999 V2000
    6.4021   36.2776   -8.9339 C   0  0  0  0  0  0  0  0  0  0  0  0
   -0.0467   36.2444  -11.1166 C   0  0  0  0  0  0  0  0  0  0  0  0
   -1.3252   33.6304  -11.8295 C   0  0  0  0  0  0  0  0  0  0  0  0
   -2.3807   34.6171  -12.3324 C   0  0  0  0  0  0  0  0  0  0  0  0
   -3.6276   33.9540  -12.5556 O   0  0  0  0  0  0  0  0  0  0  0  0
   -4.7868   34.6836  -13.3946 P   0  0  1  0  0  0  0  0  0  0  0  0
   -7.5232   34.8591  -12.7331 P   0  0  2  0  0  0  0  0  0  0  0  0
   -0.7943   33.2747   -8.0821 C   0  0  0  0  0  0  0  0  0  0  0  0
    4.0949   35.3484   -8.9634 N   0  0  0  0  0  0  0  0  0  0  0  0
   -4.2200   35.9691  -14.1649 O   0  5  0  0  0  0  0  0  0  0  0  0
   -7.7383   33.7433  -13.6772 O   0  0  0  0  0  0  0  0  0  0  0  0
   -0.2013   34.4798   -7.7297 C   0  0  0  0  0  0  0  0  0  0  0  0
    4.8878   36.4139   -8.7715 C   0  0  0  0  0  0  0  0  0  0  0  0
   -5.4534   33.7265  -14.5141 O   0  0  0  0  0  0  0  0  0  0  0  0
   -8.1383   36.2317  -13.2928 O   0  5  0  0  0  0  0  0  0  0  0  0
    0.0375   35.4429   -8.7111 N   0  0  0  0  0  0  0  0  0  0  0  0
    4.3640   37.6021   -8.4372 N   0  0  0  0  0  0  0  0  0  0  0  0
   -5.9863   35.1530  -12.4009 O   0  0  0  0  0  0  0  0  0  0  0  0
   -8.2755   34.5907  -11.3525 O   0  0  0  0  0  0  0  0  0  0  0  0
   -0.3150   35.1828  -10.0409 C   0  0  1  0  0  0  0  0  0  0  0  0
    3.0405   37.7411   -8.2907 C   0  0  0  0  0  0  0  0  0  0  0  0
    2.5327   38.9243   -7.9610 N   0  0  0  0  0  0  0  0  0  0  0  0
   -0.9107   33.9730  -10.3935 C   0  0  1  0  0  0  0  0  0  0  0  0
    2.1979   36.6537   -8.4861 C   0  0  0  0  0  0  0  0  0  0  0  0
   -1.1441   33.0261   -9.4037 C   0  0  0  0  0  0  0  0  0  0  0  0
    2.7824   35.4400   -8.8295 C   0  0  0  0  0  0  0  0  0  0  0  0
    0.6727   36.7283   -8.3369 C   0  0  0  0  0  0  0  0  0  0  0  0
  1 13  1  0  0  0  0
  3  4  1  0  0  0  0
  4  5  1  0  0  0  0
  6  5  1  1  0  0  0
  6 10  1  0  0  0  0
  6 14  2  0  0  0  0
  6 18  1  0  0  0  0
  7 11  1  6  0  0  0
  7 15  1  0  0  0  0
  7 19  2  0  0  0  0
  7 18  1  0  0  0  0
  8 25  1  0  0  0  0
  8 12  1  0  0  0  0
  9 26  2  0  0  0  0
  9 13  1  0  0  0  0
 12 16  1  0  0  0  0
 13 17  2  0  0  0  0
 16 20  1  0  0  0  0
 16 27  1  0  0  0  0
 17 21  1  0  0  0  0
 20  2  1  1  0  0  0
 20 23  1  0  0  0  0
 21 22  1  0  0  0  0
 21 24  2  0  0  0  0
 23  3  1  1  0  0  0
 23 25  1  0  0  0  0
 24 27  1  0  0  0  0
 24 26  1  0  0  0  0
M  CHG  2  10  -1  15  -1
M  END
>  <CHROM.1>
-114.37825504,-165.92572109,13.39027180,-132.31175982,21.81436176,-61.59995487
175.49728296,91.92062176,-1.83851956,35.27799289,-10.91204048,-0.01376755
-0.45136799,-0.39501485

>  <Name>
ligand

>  <RI>
0

>  <Rbt.Current_Directory>
/home/itssahil/PROJECTS/Mol_Feturizer/New_Systems/rnas/3D2V

>  <Rbt.Executable>
rbdock ($Id: //depot/dev/client3/rdock/2013.1/src/exe/rbdock.cxx#4 $)

>  <Rbt.Library>
libRbt.so (2013.1, Build901 2013/11/27)

>  <Rbt.Parameter_File>
/export/apps/rDock/src/rDock_2013.1_src/data/scripts/dock_solv.prm

>  <Rbt.Receptor>
prm/blind_docking_40.prm

>  <SCORE>
2.07816

>  <SCORE.INTER>
-5.0062

>  <SCORE.INTER.CONST>
1

>  <SCORE.INTER.POLAR>
0

>  <SCORE.INTER.ROT>
8

>  <SCORE.INTER.SOLV>
34.1565

>  <SCORE.INTER.VDW>
-23.6563

>  <SCORE.INTER.norm>
-0.185415

>  <SCORE.INTRA>
6.35838

>  <SCORE.INTRA.DIHEDRAL>
9.63272

>  <SCORE.INTRA.DIHEDRAL.0>
7.82666

>  <SCORE.INTRA.POLAR>
0

>  <SCORE.INTRA.POLAR.0>
0

>  <SCORE.INTRA.REPUL>
0

>  <SCORE.INTRA.REPUL.0>
0

>  <SCORE.INTRA.SOLV>
-1.49874

>  <SCORE.INTRA.SOLV.lig_0>
-83.2758

>  <SCORE.INTRA.VDW>
2.29139

>  <SCORE.INTRA.VDW.0>
-3.26816

>  <SCORE.INTRA.norm>
0.235495

>  <SCORE.RESTR>
0.72598

>  <SCORE.RESTR.CAVITY>
0.72598

>  <SCORE.RESTR.norm>
0.0268881

>  <SCORE.SYSTEM>
0

>  <SCORE.SYSTEM.CONST>
0

>  <SCORE.SYSTEM.DIHEDRAL>
0

>  <SCORE.SYSTEM.SOLV>
0

>  <SCORE.SYSTEM.norm>
0

>  <SCORE.heavy>
27

>  <SCORE.norm>
0.0769688

>  <RMSD>
12.043

$$$$
ligand
 OpenBabel11021811463D
libRbt.so/2013.1/901 2013/11/27
 27 28  0  0  0  0  0  0  0  0999 V2000
   -8.6483   34.7729  -12.2910 C   0  0  0  0  0  0  0  0  0  0  0  0
   -2.6224   32.2432  -11.5690 C   0  0  0  0  0  0  0  0  0  0  0  0
   -0.6459   33.2103   -9.5359 C   0  0  0  0  0  0  0  0  0  0  0  0
    0.8692   33.0394   -9.4096 C   0  0  0  0  0  0  0  0  0  0  0  0
    1.1846   31.9296   -8.5651 O   0  0  0  0  0  0  0  0  0  0  0  0
    0.3941   31.7219   -7.1824 P   0  0  1  0  0  0  0  0  0  0  0  0
   -2.1990   30.7851   -6.5870 P   0  0  2  0  0  0  0  0  0  0  0  0
   -0.6277   36.0301  -12.0852 C   0  0  0  0  0  0  0  0  0  0  0  0
   -6.9027   33.8308  -13.7919 N   0  0  0  0  0  0  0  0  0  0  0  0
    1.3718   31.1800   -6.0345 O   0  5  0  0  0  0  0  0  0  0  0  0
   -2.0433   31.0765   -5.1471 O   0  0  0  0  0  0  0  0  0  0  0  0
   -1.5408   35.6012  -13.0394 C   0  0  0  0  0  0  0  0  0  0  0  0
   -7.1911   34.5564  -12.7004 C   0  0  0  0  0  0  0  0  0  0  0  0
   -0.2690   33.0861   -6.6233 O   0  0  0  0  0  0  0  0  0  0  0  0
   -2.9932   29.4114   -6.8280 O   0  5  0  0  0  0  0  0  0  0  0  0
   -2.1895   34.3771  -12.8708 N   0  0  0  0  0  0  0  0  0  0  0  0
   -6.2106   35.0961  -11.9619 N   0  0  0  0  0  0  0  0  0  0  0  0
   -0.8188   30.6569   -7.3855 O   0  0  0  0  0  0  0  0  0  0  0  0
   -3.0724   31.9100   -7.3052 O   0  0  0  0  0  0  0  0  0  0  0  0
   -1.9086   33.5903  -11.7474 C   0  0  1  0  0  0  0  0  0  0  0  0
   -4.9287   34.9172  -12.3043 C   0  0  0  0  0  0  0  0  0  0  0  0
   -3.9655   35.4554  -11.5634 N   0  0  0  0  0  0  0  0  0  0  0  0
   -0.9922   34.0219  -10.7898 C   0  0  1  0  0  0  0  0  0  0  0  0
   -4.6038   34.1680  -13.4286 C   0  0  0  0  0  0  0  0  0  0  0  0
   -0.3573   35.2445  -10.9714 C   0  0  0  0  0  0  0  0  0  0  0  0
   -5.6507   33.6284  -14.1670 C   0  0  0  0  0  0  0  0  0  0  0  0
   -3.1622   33.9170  -13.8896 C   0  0  0  0  0  0  0  0  0  0  0  0
  1 13  1  0  0  0  0
  3  4  1  0  0  0  0
  4  5  1  0  0  0  0
  6  5  1  6  0  0  0
  6 10  1  0  0  0  0
  6 14  2  0  0  0  0
  6 18  1  0  0  0  0
  7 11  1  1  0  0  0
  7 15  1  0  0  0  0
  7 19  2  0  0  0  0
  7 18  1  0  0  0  0
  8 25  1  0  0  0  0
  8 12  1  0  0  0  0
  9 26  2  0  0  0  0
  9 13  1  0  0  0  0
 12 16  1  0  0  0  0
 13 17  2  0  0  0  0
 16 20  1  0  0  0  0
 16 27  1  0  0  0  0
 17 21  1  0  0  0  0
 20  2  1  1  0  0  0
 20 23  1  0  0  0  0
 21 22  1  0  0  0  0
 21 24  2  0  0  0  0
 23  3  1  1  0  0  0
 23 25  1  0  0  0  0
 24 27  1  0  0  0  0
 24 26  1  0  0  0  0
M  CHG  2  10  -1  15  -1
M  END
>  <CHROM.1>
-159.35161667,-44.36934252,-142.41020441,-146.16033510,-45.03633491,127.88833550
9.39868243,-100.79174600,-2.38073620,33.01803093,-9.87512188,2.18144781,-0.14007642
-0.99150030

>  <Name>
ligand

>  <RI>
0

>  <Rbt.Current_Directory>
/home/itssahil/PROJECTS/Mol_Feturizer/New_Systems/rnas/3D2V

>  <Rbt.Executable>
rbdock ($Id: //depot/dev/client3/rdock/2013.1/src/exe/rbdock.cxx#4 $)

>  <Rbt.Library>
libRbt.so (2013.1, Build901 2013/11/27)

>  <Rbt.Parameter_File>
/export/apps/rDock/src/rDock_2013.1_src/data/scripts/dock_solv.prm

>  <Rbt.Receptor>
prm/blind_docking_40.prm

>  <SCORE>
-0.137062

>  <SCORE.INTER>
-7.97074

>  <SCORE.INTER.CONST>
1

>  <SCORE.INTER.POLAR>
0

>  <SCORE.INTER.ROT>
8

>  <SCORE.INTER.SOLV>
23.9498

>  <SCORE.INTER.VDW>
-22.2304

>  <SCORE.INTER.norm>
-0.295213

>  <SCORE.INTRA>
6.80247

>  <SCORE.INTRA.DIHEDRAL>
3.41481

>  <SCORE.INTRA.DIHEDRAL.0>
7.82666

>  <SCORE.INTRA.POLAR>
0

>  <SCORE.INTRA.POLAR.0>
0

>  <SCORE.INTRA.REPUL>
0

>  <SCORE.INTRA.REPUL.0>
0

>  <SCORE.INTRA.SOLV>
6.42351

>  <SCORE.INTRA.SOLV.lig_0>
-83.2758

>  <SCORE.INTRA.VDW>
1.88331

>  <SCORE.INTRA.VDW.0>
-3.26816

>  <SCORE.INTRA.norm>
0.251943

>  <SCORE.RESTR>
1.03121

>  <SCORE.RESTR.CAVITY>
1.03121

>  <SCORE.RESTR.norm>
0.038193

>  <SCORE.SYSTEM>
0

>  <SCORE.SYSTEM.CONST>
0

>  <SCORE.SYSTEM.DIHEDRAL>
0

>  <SCORE.SYSTEM.SOLV>
0

>  <SCORE.SYSTEM.norm>
0

>  <SCORE.heavy>
27

>  <SCORE.norm>
-0.00507638

>  <RMSD>
12.059

$$$$
ligand
 OpenBabel11021811463D
libRbt.so/2013.1/901 2013/11/27
 27 28  0  0  0  0  0  0  0  0999 V2000
    6.4146   37.4620   -7.2669 C   0  0  0  0  0  0  0  0  0  0  0  0
   -0.3992   34.1259   -8.2293 C   0  0  0  0  0  0  0  0  0  0  0  0
   -1.1512   33.2217  -10.9848 C   0  0  0  0  0  0  0  0  0  0  0  0
   -2.5883   33.3394  -11.4962 C   0  0  0  0  0  0  0  0  0  0  0  0
   -2.6468   34.1785  -12.6523 O   0  0  0  0  0  0  0  0  0  0  0  0
   -4.0247   34.9004  -13.0525 P   0  0  1  0  0  0  0  0  0  0  0  0
   -4.5945   32.9547  -15.0136 P   0  0  2  0  0  0  0  0  0  0  0  0
    0.1515   36.7369  -11.6154 C   0  0  0  0  0  0  0  0  0  0  0  0
    4.0655   37.6381   -6.4683 N   0  0  0  0  0  0  0  0  0  0  0  0
   -4.7435   35.5264  -11.7646 O   0  5  0  0  0  0  0  0  0  0  0  0
   -3.3587   33.4196  -15.6762 O   0  0  0  0  0  0  0  0  0  0  0  0
    0.5073   37.1758  -10.3470 C   0  0  0  0  0  0  0  0  0  0  0  0
    4.9076   37.2799   -7.4499 C   0  0  0  0  0  0  0  0  0  0  0  0
   -3.8210   36.1098  -14.1057 O   0  0  0  0  0  0  0  0  0  0  0  0
   -5.8414   32.9556  -16.0241 O   0  5  0  0  0  0  0  0  0  0  0  0
    0.3327   36.3295   -9.2511 N   0  0  0  0  0  0  0  0  0  0  0  0
    4.4393   36.7618   -8.5946 N   0  0  0  0  0  0  0  0  0  0  0  0
   -5.0341   33.8324  -13.7504 O   0  0  0  0  0  0  0  0  0  0  0  0
   -4.4463   31.4432  -14.5264 O   0  0  0  0  0  0  0  0  0  0  0  0
   -0.2061   35.0510   -9.4388 C   0  0  1  0  0  0  0  0  0  0  0  0
    3.1230   36.5945   -8.7732 C   0  0  0  0  0  0  0  0  0  0  0  0
    2.6709   36.0782   -9.9113 N   0  0  0  0  0  0  0  0  0  0  0  0
   -0.5626   34.6111  -10.7126 C   0  0  1  0  0  0  0  0  0  0  0  0
    2.2305   36.9553   -7.7711 C   0  0  0  0  0  0  0  0  0  0  0  0
   -0.3795   35.4651  -11.7933 C   0  0  0  0  0  0  0  0  0  0  0  0
    2.7579   37.4905   -6.6015 C   0  0  0  0  0  0  0  0  0  0  0  0
    0.7096   36.7976   -7.8966 C   0  0  0  0  0  0  0  0  0  0  0  0
  1 13  1  0  0  0  0
  3  4  1  0  0  0  0
  4  5  1  0  0  0  0
  6  5  1  1  0  0  0
  6 10  1  0  0  0  0
  6 14  2  0  0  0  0
  6 18  1  0  0  0  0
  7 11  1  6  0  0  0
  7 15  1  0  0  0  0
  7 19  2  0  0  0  0
  7 18  1  0  0  0  0
  8 25  1  0  0  0  0
  8 12  1  0  0  0  0
  9 26  2  0  0  0  0
  9 13  1  0  0  0  0
 12 16  1  0  0  0  0
 13 17  2  0  0  0  0
 16 20  1  0  0  0  0
 16 27  1  0  0  0  0
 17 21  1  0  0  0  0
 20  2  1  6  0  0  0
 20 23  1  0  0  0  0
 21 22  1  0  0  0  0
 21 24  2  0  0  0  0
 23  3  1  6  0  0  0
 23 25  1  0  0  0  0
 24 27  1  0  0  0  0
 24 26  1  0  0  0  0
M  CHG  2  10  -1  15  -1
M  END
>  <CHROM.1>
55.47133162,-157.21431887,43.84916450,-54.09673127,-14.06966566,114.87976654
-4.91488667,-68.30675481,-0.93998330,35.14059383,-11.21031632,-0.74518676
-0.05439379,-1.99540971

>  <Name>
ligand

>  <RI>
0

>  <Rbt.Current_Directory>
/home/itssahil/PROJECTS/Mol_Feturizer/New_Systems/rnas/3D2V

>  <Rbt.Executable>
rbdock ($Id: //depot/dev/client3/rdock/2013.1/src/exe/rbdock.cxx#4 $)

>  <Rbt.Library>
libRbt.so (2013.1, Build901 2013/11/27)

>  <Rbt.Parameter_File>
/export/apps/rDock/src/rDock_2013.1_src/data/scripts/dock_solv.prm

>  <Rbt.Receptor>
prm/blind_docking_40.prm

>  <SCORE>
-0.135329

>  <SCORE.INTER>
-6.41755

>  <SCORE.INTER.CONST>
1

>  <SCORE.INTER.POLAR>
0

>  <SCORE.INTER.ROT>
8

>  <SCORE.INTER.SOLV>
25.5944

>  <SCORE.INTER.VDW>
-21.7432

>  <SCORE.INTER.norm>
-0.237687

>  <SCORE.INTRA>
4.5431

>  <SCORE.INTRA.DIHEDRAL>
2.25844

>  <SCORE.INTRA.DIHEDRAL.0>
7.82666

>  <SCORE.INTRA.POLAR>
0

>  <SCORE.INTRA.POLAR.0>
0

>  <SCORE.INTRA.REPUL>
0

>  <SCORE.INTRA.REPUL.0>
0

>  <SCORE.INTRA.SOLV>
2.6316

>  <SCORE.INTRA.SOLV.lig_0>
-83.2758

>  <SCORE.INTRA.VDW>
2.09808

>  <SCORE.INTRA.VDW.0>
-3.26816

>  <SCORE.INTRA.norm>
0.168263

>  <SCORE.RESTR>
1.73912

>  <SCORE.RESTR.CAVITY>
1.73912

>  <SCORE.RESTR.norm>
0.0644118

>  <SCORE.SYSTEM>
0

>  <SCORE.SYSTEM.CONST>
0

>  <SCORE.SYSTEM.DIHEDRAL>
0

>  <SCORE.SYSTEM.SOLV>
0

>  <SCORE.SYSTEM.norm>
0

>  <SCORE.heavy>
27

>  <SCORE.norm>
-0.00501219

>  <RMSD>
12.305

$$$$
ligand
 OpenBabel11021811463D
libRbt.so/2013.1/901 2013/11/27
 27 28  0  0  0  0  0  0  0  0999 V2000
    6.8318   36.5238   -7.9027 C   0  0  0  0  0  0  0  0  0  0  0  0
   -0.5464   34.4911   -7.7810 C   0  0  0  0  0  0  0  0  0  0  0  0
   -1.4080   32.6538   -9.9849 C   0  0  0  0  0  0  0  0  0  0  0  0
   -2.5995   32.6151  -10.9437 C   0  0  0  0  0  0  0  0  0  0  0  0
   -3.1655   33.9187  -11.1004 O   0  0  0  0  0  0  0  0  0  0  0  0
   -4.1073   34.2397  -12.3613 P   0  0  1  0  0  0  0  0  0  0  0  0
   -4.2724   33.6083  -15.1055 P   0  0  2  0  0  0  0  0  0  0  0  0
    0.6130   35.2717  -11.8593 C   0  0  0  0  0  0  0  0  0  0  0  0
    4.6577   35.7429   -8.8249 N   0  0  0  0  0  0  0  0  0  0  0  0
   -5.6221   33.8026  -12.0763 O   0  5  0  0  0  0  0  0  0  0  0  0
   -5.6006   32.9693  -15.2053 O   0  0  0  0  0  0  0  0  0  0  0  0
    1.0239   36.1359  -10.8530 C   0  0  0  0  0  0  0  0  0  0  0  0
    5.3114   36.6116   -8.0381 C   0  0  0  0  0  0  0  0  0  0  0  0
   -4.1397   35.8108  -12.7411 O   0  0  0  0  0  0  0  0  0  0  0  0
   -3.2475   33.0097  -16.1858 O   0  5  0  0  0  0  0  0  0  0  0  0
    0.6519   35.8815   -9.5322 N   0  0  0  0  0  0  0  0  0  0  0  0
    4.6423   37.5599   -7.3665 N   0  0  0  0  0  0  0  0  0  0  0  0
   -3.5705   33.4476  -13.6770 O   0  0  0  0  0  0  0  0  0  0  0  0
   -4.3641   35.1676  -15.4285 O   0  0  0  0  0  0  0  0  0  0  0  0
   -0.1373   34.7640   -9.2350 C   0  0  1  0  0  0  0  0  0  0  0  0
    3.3110   37.6527   -7.4726 C   0  0  0  0  0  0  0  0  0  0  0  0
    2.6590   38.5981   -6.8036 N   0  0  0  0  0  0  0  0  0  0  0  0
   -0.5488   33.8967  -10.2458 C   0  0  2  0  0  0  0  0  0  0  0  0
    2.6112   36.7667   -8.2826 C   0  0  0  0  0  0  0  0  0  0  0  0
   -0.1673   34.1629  -11.5551 C   0  0  0  0  0  0  0  0  0  0  0  0
    3.3431   35.7978   -8.9594 C   0  0  0  0  0  0  0  0  0  0  0  0
    1.0874   36.8044   -8.4577 C   0  0  0  0  0  0  0  0  0  0  0  0
  1 13  1  0  0  0  0
  3  4  1  0  0  0  0
  4  5  1  0  0  0  0
  6  5  1  1  0  0  0
  6 10  1  0  0  0  0
  6 14  2  0  0  0  0
  6 18  1  0  0  0  0
  7 11  1  6  0  0  0
  7 15  1  0  0  0  0
  7 19  2  0  0  0  0
  7 18  1  0  0  0  0
  8 25  1  0  0  0  0
  8 12  1  0  0  0  0
  9 26  2  0  0  0  0
  9 13  1  0  0  0  0
 12 16  1  0  0  0  0
 13 17  2  0  0  0  0
 16 20  1  0  0  0  0
 16 27  1  0  0  0  0
 17 21  1  0  0  0  0
 20  2  1  1  0  0  0
 20 23  1  0  0  0  0
 21 22  1  0  0  0  0
 21 24  2  0  0  0  0
 23  3  1  6  0  0  0
 23 25  1  0  0  0  0
 24 27  1  0  0  0  0
 24 26  1  0  0  0  0
M  CHG  2  10  -1  15  -1
M  END
>  <CHROM.1>
-41.12491940,161.18825001,84.72787822,-177.76126160,-71.24241414,130.42696455
171.29543941,-66.00363062,-0.78064757,34.94970176,-11.05723652,-0.64135807
-0.27312818,-1.68229614

>  <Name>
ligand

>  <RI>
0

>  <Rbt.Current_Directory>
/home/itssahil/PROJECTS/Mol_Feturizer/New_Systems/rnas/3D2V

>  <Rbt.Executable>
rbdock ($Id: //depot/dev/client3/rdock/2013.1/src/exe/rbdock.cxx#4 $)

>  <Rbt.Library>
libRbt.so (2013.1, Build901 2013/11/27)

>  <Rbt.Parameter_File>
/export/apps/rDock/src/rDock_2013.1_src/data/scripts/dock_solv.prm

>  <Rbt.Receptor>
prm/blind_docking_40.prm

>  <SCORE>
-11.3006

>  <SCORE.INTER>
-13.2878

>  <SCORE.INTER.CONST>
1

>  <SCORE.INTER.POLAR>
0

>  <SCORE.INTER.ROT>
8

>  <SCORE.INTER.SOLV>
31.3401

>  <SCORE.INTER.VDW>
-28.2386

>  <SCORE.INTER.norm>
-0.49214

>  <SCORE.INTRA>
0.694709

>  <SCORE.INTRA.DIHEDRAL>
1.27298

>  <SCORE.INTRA.DIHEDRAL.0>
7.82666

>  <SCORE.INTRA.POLAR>
0

>  <SCORE.INTRA.POLAR.0>
0

>  <SCORE.INTRA.REPUL>
0

>  <SCORE.INTRA.REPUL.0>
0

>  <SCORE.INTRA.SOLV>
-0.77812

>  <SCORE.INTRA.SOLV.lig_0>
-83.2758

>  <SCORE.INTRA.VDW>
0.447281

>  <SCORE.INTRA.VDW.0>
-3.26816

>  <SCORE.INTRA.norm>
0.02573

>  <SCORE.RESTR>
1.29243

>  <SCORE.RESTR.CAVITY>
1.29243

>  <SCORE.RESTR.norm>
0.0478677

>  <SCORE.SYSTEM>
0

>  <SCORE.SYSTEM.CONST>
0

>  <SCORE.SYSTEM.DIHEDRAL>
0

>  <SCORE.SYSTEM.SOLV>
0

>  <SCORE.SYSTEM.norm>
0

>  <SCORE.heavy>
27

>  <SCORE.norm>
-0.418542

>  <RMSD>
12.405

$$$$
ligand
 OpenBabel11021811463D
libRbt.so/2013.1/901 2013/11/27
 27 28  0  0  0  0  0  0  0  0999 V2000
   -7.5079   35.1556  -12.6952 C   0  0  0  0  0  0  0  0  0  0  0  0
   -2.2409   33.1798  -10.5063 C   0  0  0  0  0  0  0  0  0  0  0  0
   -0.8968   34.3568   -8.1015 C   0  0  0  0  0  0  0  0  0  0  0  0
    0.0072   33.1375   -7.9097 C   0  0  0  0  0  0  0  0  0  0  0  0
   -0.3310   32.1057   -8.8399 O   0  0  0  0  0  0  0  0  0  0  0  0
    0.5237   30.7463   -8.8779 P   0  0  1  0  0  0  0  0  0  0  0  0
    0.5995   30.3959   -6.0801 P   0  0  2  0  0  0  0  0  0  0  0  0
    0.3034   36.6383  -10.8953 C   0  0  0  0  0  0  0  0  0  0  0  0
   -5.1823   35.3882  -11.8440 N   0  0  0  0  0  0  0  0  0  0  0  0
    0.1573   29.8701  -10.1683 O   0  5  0  0  0  0  0  0  0  0  0  0
   -0.3962   31.3214   -5.5017 O   0  0  0  0  0  0  0  0  0  0  0  0
   -0.3104   36.1092  -12.0229 C   0  0  0  0  0  0  0  0  0  0  0  0
   -5.9973   34.9538  -12.8177 C   0  0  0  0  0  0  0  0  0  0  0  0
    2.1188   31.0049   -8.9284 O   0  0  0  0  0  0  0  0  0  0  0  0
    2.0452   31.0830   -6.1965 O   0  5  0  0  0  0  0  0  0  0  0  0
   -1.1371   34.9919  -11.8969 N   0  0  0  0  0  0  0  0  0  0  0  0
   -5.4986   34.3418  -13.9016 N   0  0  0  0  0  0  0  0  0  0  0  0
    0.2313   29.8636   -7.5430 O   0  0  0  0  0  0  0  0  0  0  0  0
    0.8100   29.1247   -5.1400 O   0  0  0  0  0  0  0  0  0  0  0  0
   -1.3335   34.4107  -10.6384 C   0  0  1  0  0  0  0  0  0  0  0  0
   -4.1787   34.1563  -14.0269 C   0  0  0  0  0  0  0  0  0  0  0  0
   -3.6960   33.5501  -15.1067 N   0  0  0  0  0  0  0  0  0  0  0  0
   -0.7173   34.9428   -9.5069 C   0  0  2  0  0  0  0  0  0  0  0  0
   -3.3135   34.5990  -13.0337 C   0  0  0  0  0  0  0  0  0  0  0  0
    0.1004   36.0573   -9.6495 C   0  0  0  0  0  0  0  0  0  0  0  0
   -3.8722   35.2263  -11.9261 C   0  0  0  0  0  0  0  0  0  0  0  0
   -1.7907   34.4246  -13.0997 C   0  0  0  0  0  0  0  0  0  0  0  0
  1 13  1  0  0  0  0
  3  4  1  0  0  0  0
  4  5  1  0  0  0  0
  6  5  1  1  0  0  0
  6 10  1  0  0  0  0
  6 14  2  0  0  0  0
  6 18  1  0  0  0  0
  7 11  1  1  0  0  0
  7 15  1  0  0  0  0
  7 19  2  0  0  0  0
  7 18  1  0  0  0  0
  8 25  1  0  0  0  0
  8 12  1  0  0  0  0
  9 26  2  0  0  0  0
  9 13  1  0  0  0  0
 12 16  1  0  0  0  0
 13 17  2  0  0  0  0
 16 20  1  0  0  0  0
 16 27  1  0  0  0  0
 17 21  1  0  0  0  0
 20  2  1  1  0  0  0
 20 23  1  0  0  0  0
 21 22  1  0  0  0  0
 21 24  2  0  0  0  0
 23  3  1  6  0  0  0
 23 25  1  0  0  0  0
 24 27  1  0  0  0  0
 24 26  1  0  0  0  0
M  CHG  2  10  -1  15  -1
M  END
>  <CHROM.1>
-61.59166794,177.28532377,-168.85487097,-62.94191038,81.46301469,80.25944884
-179.81556256,-113.48318434,-1.27870861,32.97260050,-9.87694684,2.27044873
-0.50759229,-0.57177437

>  <Name>
ligand

>  <RI>
0

>  <Rbt.Current_Directory>
/home/itssahil/PROJECTS/Mol_Feturizer/New_Systems/rnas/3D2V

>  <Rbt.Executable>
rbdock ($Id: //depot/dev/client3/rdock/2013.1/src/exe/rbdock.cxx#4 $)

>  <Rbt.Library>
libRbt.so (2013.1, Build901 2013/11/27)

>  <Rbt.Parameter_File>
/export/apps/rDock/src/rDock_2013.1_src/data/scripts/dock_solv.prm

>  <Rbt.Receptor>
prm/blind_docking_40.prm

>  <SCORE>
-11.0546

>  <SCORE.INTER>
-12.0567

>  <SCORE.INTER.CONST>
1

>  <SCORE.INTER.POLAR>
0

>  <SCORE.INTER.ROT>
8

>  <SCORE.INTER.SOLV>
23.1747

>  <SCORE.INTER.VDW>
-24.696

>  <SCORE.INTER.norm>
-0.446544

>  <SCORE.INTRA>
0.917035

>  <SCORE.INTRA.DIHEDRAL>
-1.7162

>  <SCORE.INTRA.DIHEDRAL.0>
7.82666

>  <SCORE.INTRA.POLAR>
0

>  <SCORE.INTRA.POLAR.0>
0

>  <SCORE.INTRA.REPUL>
0

>  <SCORE.INTRA.REPUL.0>
0

>  <SCORE.INTRA.SOLV>
0.0128182

>  <SCORE.INTRA.SOLV.lig_0>
-83.2758

>  <SCORE.INTRA.VDW>
1.76872

>  <SCORE.INTRA.VDW.0>
-3.26816

>  <SCORE.INTRA.norm>
0.0339642

>  <SCORE.RESTR>
0.0850532

>  <SCORE.RESTR.CAVITY>
0.0850532

>  <SCORE.RESTR.norm>
0.00315012

>  <SCORE.SYSTEM>
0

>  <SCORE.SYSTEM.CONST>
0

>  <SCORE.SYSTEM.DIHEDRAL>
0

>  <SCORE.SYSTEM.SOLV>
0

>  <SCORE.SYSTEM.norm>
0

>  <SCORE.heavy>
27

>  <SCORE.norm>
-0.40943

>  <RMSD>
12.447

$$$$
ligand
 OpenBabel11021811463D
libRbt.so/2013.1/901 2013/11/27
 27 28  0  0  0  0  0  0  0  0999 V2000
    6.4043   36.5102   -6.8341 C   0  0  0  0  0  0  0  0  0  0  0  0
    0.4429   35.1220  -11.4423 C   0  0  0  0  0  0  0  0  0  0  0  0
   -1.3018   32.8147  -10.6628 C   0  0  0  0  0  0  0  0  0  0  0  0
   -2.0821   31.7015   -9.9610 C   0  0  0  0  0  0  0  0  0  0  0  0
   -1.2341   30.9740   -9.0689 O   0  0  0  0  0  0  0  0  0  0  0  0
   -1.6307   30.8333   -7.5187 P   0  0  1  0  0  0  0  0  0  0  0  0
    1.0497   30.6817   -6.6534 P   0  0  2  0  0  0  0  0  0  0  0  0
   -0.8416   34.6328   -7.3561 C   0  0  0  0  0  0  0  0  0  0  0  0
    4.5973   35.7173   -8.3485 N   0  0  0  0  0  0  0  0  0  0  0  0
   -2.9379   31.6944   -7.1770 O   0  5  0  0  0  0  0  0  0  0  0  0
    2.1086   31.4649   -5.9842 O   0  0  0  0  0  0  0  0  0  0  0  0
   -0.0337   35.7098   -7.6959 C   0  0  0  0  0  0  0  0  0  0  0  0
    5.0359   36.6597   -7.4997 C   0  0  0  0  0  0  0  0  0  0  0  0
   -1.9508   29.3091   -7.0851 O   0  0  0  0  0  0  0  0  0  0  0  0
    1.3715   30.4652   -8.2107 O   0  5  0  0  0  0  0  0  0  0  0  0
    0.3793   35.8706   -9.0192 N   0  0  0  0  0  0  0  0  0  0  0  0
    4.2835   37.7359   -7.2279 N   0  0  0  0  0  0  0  0  0  0  0  0
   -0.4049   31.3433   -6.5787 O   0  0  0  0  0  0  0  0  0  0  0  0
    0.9481   29.2151   -6.0349 O   0  0  0  0  0  0  0  0  0  0  0  0
   -0.0173   34.9420   -9.9891 C   0  0  1  0  0  0  0  0  0  0  0  0
    3.0828   37.8845   -7.8012 C   0  0  0  0  0  0  0  0  0  0  0  0
    2.3469   38.9563   -7.5255 N   0  0  0  0  0  0  0  0  0  0  0  0
   -0.8288   33.8615   -9.6472 C   0  0  2  0  0  0  0  0  0  0  0  0
    2.6071   36.9239   -8.6854 C   0  0  0  0  0  0  0  0  0  0  0  0
   -1.2334   33.7177   -8.3257 C   0  0  0  0  0  0  0  0  0  0  0  0
    3.4179   35.8232   -8.9375 C   0  0  0  0  0  0  0  0  0  0  0  0
    1.2437   37.0180   -9.3827 C   0  0  0  0  0  0  0  0  0  0  0  0
  1 13  1  0  0  0  0
  3  4  1  0  0  0  0
  4  5  1  0  0  0  0
  6  5  1  6  0  0  0
  6 10  1  0  0  0  0
  6 14  2  0  0  0  0
  6 18  1  0  0  0  0
  7 11  1  1  0  0  0
  7 15  1  0  0  0  0
  7 19  2  0  0  0  0
  7 18  1  0  0  0  0
  8 25  1  0  0  0  0
  8 12  1  0  0  0  0
  9 26  2  0  0  0  0
  9 13  1  0  0  0  0
 12 16  1  0  0  0  0
 13 17  2  0  0  0  0
 16 20  1  0  0  0  0
 16 27  1  0  0  0  0
 17 21  1  0  0  0  0
 20  2  1  6  0  0  0
 20 23  1  0  0  0  0
 21 22  1  0  0  0  0
 21 24  2  0  0  0  0
 23  3  1  1  0  0  0
 23 25  1  0  0  0  0
 24 27  1  0  0  0  0
 24 26  1  0  0  0  0
M  CHG  2  10  -1  15  -1
M  END
>  <CHROM.1>
-64.81185537,124.21351683,-5.13704056,-58.60833959,165.96338472,175.54680711
-119.28412627,64.22134162,0.77593164,33.54339169,-8.04164336,-0.86361791
0.48090703,2.68991054

>  <Name>
ligand

>  <RI>
0

>  <Rbt.Current_Directory>
/home/itssahil/PROJECTS/Mol_Feturizer/New_Systems/rnas/3D2V

>  <Rbt.Executable>
rbdock ($Id: //depot/dev/client3/rdock/2013.1/src/exe/rbdock.cxx#4 $)

>  <Rbt.Library>
libRbt.so (2013.1, Build901 2013/11/27)

>  <Rbt.Parameter_File>
/export/apps/rDock/src/rDock_2013.1_src/data/scripts/dock_solv.prm

>  <Rbt.Receptor>
prm/blind_docking_40.prm

>  <SCORE>
-6.88616

>  <SCORE.INTER>
-12.1623

>  <SCORE.INTER.CONST>
1

>  <SCORE.INTER.POLAR>
0

>  <SCORE.INTER.ROT>
8

>  <SCORE.INTER.SOLV>
19.108

>  <SCORE.INTER.VDW>
-23.4109

>  <SCORE.INTER.norm>
-0.450456

>  <SCORE.INTRA>
5.21171

>  <SCORE.INTRA.DIHEDRAL>
7.21239

>  <SCORE.INTRA.DIHEDRAL.0>
7.82666

>  <SCORE.INTRA.POLAR>
0

>  <SCORE.INTRA.POLAR.0>
0

>  <SCORE.INTRA.REPUL>
0

>  <SCORE.INTRA.REPUL.0>
0

>  <SCORE.INTRA.SOLV>
1.72765

>  <SCORE.INTRA.SOLV.lig_0>
-83.2758

>  <SCORE.INTRA.VDW>
0.74169

>  <SCORE.INTRA.VDW.0>
-3.26816

>  <SCORE.INTRA.norm>
0.193026

>  <SCORE.RESTR>
0.0644398

>  <SCORE.RESTR.CAVITY>
0.0644398

>  <SCORE.RESTR.norm>
0.00238666

>  <SCORE.SYSTEM>
0

>  <SCORE.SYSTEM.CONST>
0

>  <SCORE.SYSTEM.DIHEDRAL>
0

>  <SCORE.SYSTEM.SOLV>
0

>  <SCORE.SYSTEM.norm>
0

>  <SCORE.heavy>
27

>  <SCORE.norm>
-0.255043

>  <RMSD>
13.133

$$$$
ligand
 OpenBabel11021811463D
libRbt.so/2013.1/901 2013/11/27
 27 28  0  0  0  0  0  0  0  0999 V2000
    7.6091   36.5111   -8.0034 C   0  0  0  0  0  0  0  0  0  0  0  0
   -0.0702   36.7086  -11.1532 C   0  0  0  0  0  0  0  0  0  0  0  0
   -1.0573   34.0308  -12.0644 C   0  0  0  0  0  0  0  0  0  0  0  0
   -2.3657   33.4895  -11.4850 C   0  0  0  0  0  0  0  0  0  0  0  0
   -2.4511   33.7648  -10.0846 O   0  0  0  0  0  0  0  0  0  0  0  0
   -2.2744   32.5754   -9.0196 P   0  0  1  0  0  0  0  0  0  0  0  0
   -0.4894   31.7969   -6.9790 P   0  0  2  0  0  0  0  0  0  0  0  0
    1.4550   33.0917   -9.3704 C   0  0  0  0  0  0  0  0  0  0  0  0
    5.6188   36.3295   -9.4842 N   0  0  0  0  0  0  0  0  0  0  0  0
   -3.5429   32.4798   -8.0455 O   0  5  0  0  0  0  0  0  0  0  0  0
   -1.2248   31.9448   -5.7062 O   0  0  0  0  0  0  0  0  0  0  0  0
    1.9258   34.3225   -8.9326 C   0  0  0  0  0  0  0  0  0  0  0  0
    6.1043   36.5937   -8.2613 C   0  0  0  0  0  0  0  0  0  0  0  0
   -2.1109   31.1250   -9.7147 O   0  0  0  0  0  0  0  0  0  0  0  0
    1.0886   32.0073   -6.7759 O   0  5  0  0  0  0  0  0  0  0  0  0
    1.4296   35.4937   -9.5068 N   0  0  0  0  0  0  0  0  0  0  0  0
    5.2801   36.9309   -7.2588 N   0  0  0  0  0  0  0  0  0  0  0  0
   -0.9400   32.8213   -8.1221 O   0  0  0  0  0  0  0  0  0  0  0  0
   -0.6476   30.3203   -7.5607 O   0  0  0  0  0  0  0  0  0  0  0  0
    0.4693   35.4173  -10.5228 C   0  0  1  0  0  0  0  0  0  0  0  0
    3.9597   37.0087   -7.4654 C   0  0  0  0  0  0  0  0  0  0  0  0
    3.1528   37.3457   -6.4644 N   0  0  0  0  0  0  0  0  0  0  0  0
   -0.0031   34.1813  -10.9613 C   0  0  1  0  0  0  0  0  0  0  0  0
    3.4323   36.7421   -8.7230 C   0  0  0  0  0  0  0  0  0  0  0  0
    0.4993   33.0250  -10.3769 C   0  0  0  0  0  0  0  0  0  0  0  0
    4.3215   36.3943   -9.7334 C   0  0  0  0  0  0  0  0  0  0  0  0
    1.9331   36.8077   -9.0424 C   0  0  0  0  0  0  0  0  0  0  0  0
  1 13  1  0  0  0  0
  3  4  1  0  0  0  0
  4  5  1  0  0  0  0
  6  5  1  6  0  0  0
  6 10  1  0  0  0  0
  6 14  2  0  0  0  0
  6 18  1  0  0  0  0
  7 11  1  1  0  0  0
  7 15  1  0  0  0  0
  7 19  2  0  0  0  0
  7 18  1  0  0  0  0
  8 25  1  0  0  0  0
  8 12  1  0  0  0  0
  9 26  2  0  0  0  0
  9 13  1  0  0  0  0
 12 16  1  0  0  0  0
 13 17  2  0  0  0  0
 16 20  1  0  0  0  0
 16 27  1  0  0  0  0
 17 21  1  0  0  0  0
 20  2  1  1  0  0  0
 20 23  1  0  0  0  0
 21 22  1  0  0  0  0
 21 24  2  0  0  0  0
 23  3  1  1  0  0  0
 23 25  1  0  0  0  0
 24 27  1  0  0  0  0
 24 26  1  0  0  0  0
M  CHG  2  10  -1  15  -1
M  END
>  <CHROM.1>
22.98148409,-107.38357979,-123.94740192,-179.51425476,-79.92835689,-111.93161633
-119.60471439,37.14240301,0.81088059,34.12941449,-8.79564799,-0.28870143
0.51267559,2.20962833

>  <Name>
ligand

>  <RI>
0

>  <Rbt.Current_Directory>
/home/itssahil/PROJECTS/Mol_Feturizer/New_Systems/rnas/3D2V

>  <Rbt.Executable>
rbdock ($Id: //depot/dev/client3/rdock/2013.1/src/exe/rbdock.cxx#4 $)

>  <Rbt.Library>
libRbt.so (2013.1, Build901 2013/11/27)

>  <Rbt.Parameter_File>
/export/apps/rDock/src/rDock_2013.1_src/data/scripts/dock_solv.prm

>  <Rbt.Receptor>
prm/blind_docking_40.prm

>  <SCORE>
0.683005

>  <SCORE.INTER>
-5.10568

>  <SCORE.INTER.CONST>
1

>  <SCORE.INTER.POLAR>
0

>  <SCORE.INTER.ROT>
8

>  <SCORE.INTER.SOLV>
21.8081

>  <SCORE.INTER.VDW>
-19.6065

>  <SCORE.INTER.norm>
-0.189099

>  <SCORE.INTRA>
5.76278

>  <SCORE.INTRA.DIHEDRAL>
10.5223

>  <SCORE.INTRA.DIHEDRAL.0>
7.82666

>  <SCORE.INTRA.POLAR>
0

>  <SCORE.INTRA.POLAR.0>
0

>  <SCORE.INTRA.REPUL>
0

>  <SCORE.INTRA.REPUL.0>
0

>  <SCORE.INTRA.SOLV>
2.45749

>  <SCORE.INTRA.SOLV.lig_0>
-83.2758

>  <SCORE.INTRA.VDW>
-0.727105

>  <SCORE.INTRA.VDW.0>
-3.26816

>  <SCORE.INTRA.norm>
0.213436

>  <SCORE.RESTR>
0.0258967

>  <SCORE.RESTR.CAVITY>
0.0258967

>  <SCORE.RESTR.norm>
0.000959137

>  <SCORE.SYSTEM>
0

>  <SCORE.SYSTEM.CONST>
0

>  <SCORE.SYSTEM.DIHEDRAL>
0

>  <SCORE.SYSTEM.SOLV>
0

>  <SCORE.SYSTEM.norm>
0

>  <SCORE.heavy>
27

>  <SCORE.norm>
0.0252965

>  <RMSD>
13.143

$$$$
ligand
 OpenBabel11021811463D
libRbt.so/2013.1/901 2013/11/27
 27 28  0  0  0  0  0  0  0  0999 V2000
    6.9349   36.6832   -7.9856 C   0  0  0  0  0  0  0  0  0  0  0  0
   -0.5686   34.5526   -7.8986 C   0  0  0  0  0  0  0  0  0  0  0  0
   -1.4827   32.6838  -10.0544 C   0  0  0  0  0  0  0  0  0  0  0  0
   -0.7506   31.3629  -10.2991 C   0  0  0  0  0  0  0  0  0  0  0  0
    0.3489   31.2189   -9.3965 O   0  0  0  0  0  0  0  0  0  0  0  0
    0.0807   31.0810   -7.8189 P   0  0  1  0  0  0  0  0  0  0  0  0
   -2.0596   31.4675   -6.0227 P   0  0  2  0  0  0  0  0  0  0  0  0
    0.7020   35.1288  -11.9778 C   0  0  0  0  0  0  0  0  0  0  0  0
    4.7360   37.8405   -8.0975 N   0  0  0  0  0  0  0  0  0  0  0  0
    0.5839   29.6624   -7.2698 O   0  5  0  0  0  0  0  0  0  0  0  0
   -2.3101   32.8839   -5.6854 O   0  0  0  0  0  0  0  0  0  0  0  0
    1.1381   36.0065  -10.9941 C   0  0  0  0  0  0  0  0  0  0  0  0
    5.4155   36.6848   -8.1567 C   0  0  0  0  0  0  0  0  0  0  0  0
    0.8390   32.2128   -6.9484 O   0  0  0  0  0  0  0  0  0  0  0  0
   -0.9875   30.8055   -5.0286 O   0  5  0  0  0  0  0  0  0  0  0  0
    0.7301   35.8181   -9.6729 N   0  0  0  0  0  0  0  0  0  0  0  0
    4.7733   35.5263   -8.3653 N   0  0  0  0  0  0  0  0  0  0  0  0
   -1.5086   31.2319   -7.5059 O   0  0  0  0  0  0  0  0  0  0  0  0
   -3.3860   30.5980   -5.8538 O   0  0  0  0  0  0  0  0  0  0  0  0
   -0.1201   34.7528   -9.3529 C   0  0  1  0  0  0  0  0  0  0  0  0
    3.4433   35.5076   -8.5171 C   0  0  0  0  0  0  0  0  0  0  0  0
    2.8176   34.3529   -8.7214 N   0  0  0  0  0  0  0  0  0  0  0  0
   -0.5570   33.8720  -10.3410 C   0  0  1  0  0  0  0  0  0  0  0  0
    2.7165   36.6904   -8.4576 C   0  0  0  0  0  0  0  0  0  0  0  0
   -0.1390   34.0721  -11.6510 C   0  0  0  0  0  0  0  0  0  0  0  0
    3.4216   37.8689   -8.2418 C   0  0  0  0  0  0  0  0  0  0  0  0
    1.1926   36.7555   -8.6225 C   0  0  0  0  0  0  0  0  0  0  0  0
  1 13  1  0  0  0  0
  3  4  1  0  0  0  0
  4  5  1  0  0  0  0
  6  5  1  6  0  0  0
  6 10  1  0  0  0  0
  6 14  2  0  0  0  0
  6 18  1  0  0  0  0
  7 11  1  1  0  0  0
  7 15  1  0  0  0  0
  7 19  2  0  0  0  0
  7 18  1  0  0  0  0
  8 25  1  0  0  0  0
  8 12  1  0  0  0  0
  9 26  2  0  0  0  0
  9 13  1  0  0  0  0
 12 16  1  0  0  0  0
 13 17  2  0  0  0  0
 16 20  1  0  0  0  0
 16 27  1  0  0  0  0
 17 21  1  0  0  0  0
 20  2  1  1  0  0  0
 20 23  1  0  0  0  0
 21 22  1  0  0  0  0
 21 24  2  0  0  0  0
 23  3  1  1  0  0  0
 23 25  1  0  0  0  0
 24 27  1  0  0  0  0
 24 26  1  0  0  0  0
M  CHG  2  10  -1  15  -1
M  END
>  <CHROM.1>
63.40356621,65.17994664,117.00843538,-166.08349469,96.01544406,-113.88576815
-39.18415961,-63.60527779,0.71282198,33.59427236,-8.23570242,-0.57532666
0.60729273,2.09059010

>  <Name>
ligand

>  <RI>
0

>  <Rbt.Current_Directory>
/home/itssahil/PROJECTS/Mol_Feturizer/New_Systems/rnas/3D2V

>  <Rbt.Executable>
rbdock ($Id: //depot/dev/client3/rdock/2013.1/src/exe/rbdock.cxx#4 $)

>  <Rbt.Library>
libRbt.so (2013.1, Build901 2013/11/27)

>  <Rbt.Parameter_File>
/export/apps/rDock/src/rDock_2013.1_src/data/scripts/dock_solv.prm

>  <Rbt.Receptor>
prm/blind_docking_40.prm

>  <SCORE>
0.98977

>  <SCORE.INTER>
-3.7098

>  <SCORE.INTER.CONST>
1

>  <SCORE.INTER.POLAR>
0

>  <SCORE.INTER.ROT>
8

>  <SCORE.INTER.SOLV>
24.6446

>  <SCORE.INTER.VDW>
-19.6214

>  <SCORE.INTER.norm>
-0.1374

>  <SCORE.INTRA>
4.40342

>  <SCORE.INTRA.DIHEDRAL>
1.79819

>  <SCORE.INTRA.DIHEDRAL.0>
7.82666

>  <SCORE.INTRA.POLAR>
0

>  <SCORE.INTRA.POLAR.0>
0

>  <SCORE.INTRA.REPUL>
0

>  <SCORE.INTRA.REPUL.0>
0

>  <SCORE.INTRA.SOLV>
8.51225

>  <SCORE.INTRA.SOLV.lig_0>
-83.2758

>  <SCORE.INTRA.VDW>
-0.751802

>  <SCORE.INTRA.VDW.0>
-3.26816

>  <SCORE.INTRA.norm>
0.16309

>  <SCORE.RESTR>
0.296149

>  <SCORE.RESTR.CAVITY>
0.296149

>  <SCORE.RESTR.norm>
0.0109685

>  <SCORE.SYSTEM>
0

>  <SCORE.SYSTEM.CONST>
0

>  <SCORE.SYSTEM.DIHEDRAL>
0

>  <SCORE.SYSTEM.SOLV>
0

>  <SCORE.SYSTEM.norm>
0

>  <SCORE.heavy>
27

>  <SCORE.norm>
0.0366582

>  <RMSD>
13.310

$$$$
ligand
 OpenBabel11021811463D
libRbt.so/2013.1/901 2013/11/27
 27 28  0  0  0  0  0  0  0  0999 V2000
    7.5978   32.1233   -3.4613 C   0  0  0  0  0  0  0  0  0  0  0  0
    4.2926   36.3761   -9.4778 C   0  0  0  0  0  0  0  0  0  0  0  0
    1.7453   37.7694   -8.7393 C   0  0  0  0  0  0  0  0  0  0  0  0
    1.1379   36.4169   -9.1164 C   0  0  0  0  0  0  0  0  0  0  0  0
    0.3263   36.5356  -10.2875 O   0  0  0  0  0  0  0  0  0  0  0  0
   -0.4229   35.2443  -10.8803 P   0  0  1  0  0  0  0  0  0  0  0  0
   -2.3786   33.3763  -10.0789 P   0  0  2  0  0  0  0  0  0  0  0  0
    3.7320   37.9493   -5.5033 C   0  0  0  0  0  0  0  0  0  0  0  0
    6.0893   33.2059   -5.1165 N   0  0  0  0  0  0  0  0  0  0  0  0
   -1.3111   35.6280  -12.1574 O   0  5  0  0  0  0  0  0  0  0  0  0
   -3.0697   32.8159   -8.8996 O   0  0  0  0  0  0  0  0  0  0  0  0
    4.9207   37.3075   -5.8245 C   0  0  0  0  0  0  0  0  0  0  0  0
    7.2892   33.1866   -4.5159 C   0  0  0  0  0  0  0  0  0  0  0  0
    0.5984   34.0845  -11.3550 O   0  0  0  0  0  0  0  0  0  0  0  0
   -1.5003   32.2636  -10.8315 O   0  5  0  0  0  0  0  0  0  0  0  0
    5.1041   36.8014   -7.1121 N   0  0  0  0  0  0  0  0  0  0  0  0
    8.2246   34.0938   -4.8322 N   0  0  0  0  0  0  0  0  0  0  0  0
   -1.3880   34.5878   -9.7471 O   0  0  0  0  0  0  0  0  0  0  0  0
   -3.4285   33.8910  -11.1637 O   0  0  0  0  0  0  0  0  0  0  0  0
    4.0868   36.9378   -8.0643 C   0  0  1  0  0  0  0  0  0  0  0  0
    7.9731   35.0322   -5.7533 C   0  0  0  0  0  0  0  0  0  0  0  0
    8.9088   35.9249   -6.0599 N   0  0  0  0  0  0  0  0  0  0  0  0
    2.8940   37.5826   -7.7409 C   0  0  1  0  0  0  0  0  0  0  0  0
    6.7393   35.0722   -6.3912 C   0  0  0  0  0  0  0  0  0  0  0  0
    2.7288   38.0833   -6.4553 C   0  0  0  0  0  0  0  0  0  0  0  0
    5.7977   34.1146   -6.0321 C   0  0  0  0  0  0  0  0  0  0  0  0
    6.3712   36.1141   -7.4556 C   0  0  0  0  0  0  0  0  0  0  0  0
  1 13  1  0  0  0  0
  3  4  1  0  0  0  0
  4  5  1  0  0  0  0
  6  5  1  1  0  0  0
  6 10  1  0  0  0  0
  6 14  2  0  0  0  0
  6 18  1  0  0  0  0
  7 11  1  1  0  0  0
  7 15  1  0  0  0  0
  7 19  2  0  0  0  0
  7 18  1  0  0  0  0
  8 25  1  0  0  0  0
  8 12  1  0  0  0  0
  9 26  2  0  0  0  0
  9 13  1  0  0  0  0
 12 16  1  0  0  0  0
 13 17  2  0  0  0  0
 16 20  1  0  0  0  0
 16 27  1  0  0  0  0
 17 21  1  0  0  0  0
 20  2  1  6  0  0  0
 20 23  1  0  0  0  0
 21 22  1  0  0  0  0
 21 24  2  0  0  0  0
 23  3  1  6  0  0  0
 23 25  1  0  0  0  0
 24 27  1  0  0  0  0
 24 26  1  0  0  0  0
M  CHG  2  10  -1  15  -1
M  END
>  <CHROM.1>
-164.63071096,-179.93007963,177.95992280,173.73573485,173.80288239,66.10829131
-126.95342652,48.26911821,2.47829356,35.12099158,-8.26295491,0.08471094,0.52754594
2.84004265

>  <Name>
ligand

>  <RI>
0

>  <Rbt.Current_Directory>
/home/itssahil/PROJECTS/Mol_Feturizer/New_Systems/rnas/3D2V

>  <Rbt.Executable>
rbdock ($Id: //depot/dev/client3/rdock/2013.1/src/exe/rbdock.cxx#4 $)

>  <Rbt.Library>
libRbt.so (2013.1, Build901 2013/11/27)

>  <Rbt.Parameter_File>
/export/apps/rDock/src/rDock_2013.1_src/data/scripts/dock_solv.prm

>  <Rbt.Receptor>
prm/blind_docking_60.prm

>  <SCORE>
-9.66341

>  <SCORE.INTER>
-12.3015

>  <SCORE.INTER.CONST>
1

>  <SCORE.INTER.POLAR>
0

>  <SCORE.INTER.ROT>
8

>  <SCORE.INTER.SOLV>
20.8324

>  <SCORE.INTER.VDW>
-24.0785

>  <SCORE.INTER.norm>
-0.455611

>  <SCORE.INTRA>
0.392545

>  <SCORE.INTRA.DIHEDRAL>
-1.65849

>  <SCORE.INTRA.DIHEDRAL.0>
7.82666

>  <SCORE.INTRA.POLAR>
0

>  <SCORE.INTRA.POLAR.0>
0

>  <SCORE.INTRA.REPUL>
0

>  <SCORE.INTRA.REPUL.0>
0

>  <SCORE.INTRA.SOLV>
1.32279

>  <SCORE.INTRA.SOLV.lig_0>
-83.2758

>  <SCORE.INTRA.VDW>
0.560398

>  <SCORE.INTRA.VDW.0>
-3.26816

>  <SCORE.INTRA.norm>
0.0145387

>  <SCORE.RESTR>
2.24554

>  <SCORE.RESTR.CAVITY>
2.24554

>  <SCORE.RESTR.norm>
0.083168

>  <SCORE.SYSTEM>
0

>  <SCORE.SYSTEM.CONST>
0

>  <SCORE.SYSTEM.DIHEDRAL>
0

>  <SCORE.SYSTEM.SOLV>
0

>  <SCORE.SYSTEM.norm>
0

>  <SCORE.heavy>
27

>  <SCORE.norm>
-0.357904

>  <RMSD>
13.626

$$$$
ligand
 OpenBabel11021811463D
libRbt.so/2013.1/901 2013/11/27
 27 28  0  0  0  0  0  0  0  0999 V2000
    8.2923   37.4558   -5.7753 C   0  0  0  0  0  0  0  0  0  0  0  0
    0.5942   36.2817   -9.4841 C   0  0  0  0  0  0  0  0  0  0  0  0
   -0.2387   33.4066   -9.6083 C   0  0  0  0  0  0  0  0  0  0  0  0
   -1.1879   33.4396   -8.4089 C   0  0  0  0  0  0  0  0  0  0  0  0
   -1.5041   32.1138   -7.9772 O   0  0  0  0  0  0  0  0  0  0  0  0
   -2.2694   31.8833   -6.5840 P   0  0  1  0  0  0  0  0  0  0  0  0
   -0.3783   29.9253   -5.8447 P   0  0  2  0  0  0  0  0  0  0  0  0
    3.3778   33.1512   -8.4653 C   0  0  0  0  0  0  0  0  0  0  0  0
    5.8137   37.5688   -5.9522 N   0  0  0  0  0  0  0  0  0  0  0  0
   -2.8217   33.2665   -5.9932 O   0  5  0  0  0  0  0  0  0  0  0  0
   -1.0761   28.9115   -6.6618 O   0  0  0  0  0  0  0  0  0  0  0  0
    3.7845   34.4773   -8.4002 C   0  0  0  0  0  0  0  0  0  0  0  0
    6.9845   37.3060   -6.5532 C   0  0  0  0  0  0  0  0  0  0  0  0
   -3.5408   30.8939   -6.7184 O   0  0  0  0  0  0  0  0  0  0  0  0
    0.1116   29.3172   -4.4426 O   0  5  0  0  0  0  0  0  0  0  0  0
    2.8826   35.4912   -8.7263 N   0  0  0  0  0  0  0  0  0  0  0  0
    7.0198   36.9116   -7.8343 N   0  0  0  0  0  0  0  0  0  0  0  0
   -1.2626   31.2122   -5.4966 O   0  0  0  0  0  0  0  0  0  0  0  0
    0.9478   30.4303   -6.5730 O   0  0  0  0  0  0  0  0  0  0  0  0
    1.5808   35.1626   -9.1231 C   0  0  1  0  0  0  0  0  0  0  0  0
    5.8852   36.7744   -8.5317 C   0  0  0  0  0  0  0  0  0  0  0  0
    5.9326   36.3810   -9.8003 N   0  0  0  0  0  0  0  0  0  0  0  0
    1.1733   33.8311   -9.1876 C   0  0  2  0  0  0  0  0  0  0  0  0
    4.6600   37.0381   -7.9315 C   0  0  0  0  0  0  0  0  0  0  0  0
    2.0829   32.8340   -8.8568 C   0  0  0  0  0  0  0  0  0  0  0  0
    4.6687   37.4464   -6.6027 C   0  0  0  0  0  0  0  0  0  0  0  0
    3.3161   36.9066   -8.6599 C   0  0  0  0  0  0  0  0  0  0  0  0
  1 13  1  0  0  0  0
  3  4  1  0  0  0  0
  4  5  1  0  0  0  0
  6  5  1  6  0  0  0
  6 10  1  0  0  0  0
  6 14  2  0  0  0  0
  6 18  1  0  0  0  0
  7 11  1  6  0  0  0
  7 15  1  0  0  0  0
  7 19  2  0  0  0  0
  7 18  1  0  0  0  0
  8 25  1  0  0  0  0
  8 12  1  0  0  0  0
  9 26  2  0  0  0  0
  9 13  1  0  0  0  0
 12 16  1  0  0  0  0
 13 17  2  0  0  0  0
 16 20  1  0  0  0  0
 16 27  1  0  0  0  0
 17 21  1  0  0  0  0
 20  2  1  1  0  0  0
 20 23  1  0  0  0  0
 21 22  1  0  0  0  0
 21 24  2  0  0  0  0
 23  3  1  6  0  0  0
 23 25  1  0  0  0  0
 24 27  1  0  0  0  0
 24 26  1  0  0  0  0
M  CHG  2  10  -1  15  -1
M  END
>  <CHROM.1>
-106.82872645,169.20146435,10.88596720,-49.41198968,-39.59250445,-85.10710969
79.58395480,-12.33492325,1.57413326,33.65579068,-7.38042401,-0.60411269,0.37527774
2.45357242

>  <Name>
ligand

>  <RI>
0

>  <Rbt.Current_Directory>
/home/itssahil/PROJECTS/Mol_Feturizer/New_Systems/rnas/3D2V

>  <Rbt.Executable>
rbdock ($Id: //depot/dev/client3/rdock/2013.1/src/exe/rbdock.cxx#4 $)

>  <Rbt.Library>
libRbt.so (2013.1, Build901 2013/11/27)

>  <Rbt.Parameter_File>
/export/apps/rDock/src/rDock_2013.1_src/data/scripts/dock_solv.prm

>  <Rbt.Receptor>
prm/blind_docking_40.prm

>  <SCORE>
-6.04376

>  <SCORE.INTER>
-10.1747

>  <SCORE.INTER.CONST>
1

>  <SCORE.INTER.POLAR>
0

>  <SCORE.INTER.ROT>
8

>  <SCORE.INTER.SOLV>
28.8695

>  <SCORE.INTER.VDW>
-25.3396

>  <SCORE.INTER.norm>
-0.37684

>  <SCORE.INTRA>
2.5678

>  <SCORE.INTRA.DIHEDRAL>
5.83076

>  <SCORE.INTRA.DIHEDRAL.0>
7.82666

>  <SCORE.INTRA.POLAR>
0

>  <SCORE.INTRA.POLAR.0>
0

>  <SCORE.INTRA.REPUL>
0

>  <SCORE.INTRA.REPUL.0>
0

>  <SCORE.INTRA.SOLV>
-0.924509

>  <SCORE.INTRA.SOLV.lig_0>
-83.2758

>  <SCORE.INTRA.VDW>
0.114679

>  <SCORE.INTRA.VDW.0>
-3.26816

>  <SCORE.INTRA.norm>
0.0951038

>  <SCORE.RESTR>
1.5631

>  <SCORE.RESTR.CAVITY>
1.5631

>  <SCORE.RESTR.norm>
0.0578927

>  <SCORE.SYSTEM>
0

>  <SCORE.SYSTEM.CONST>
0

>  <SCORE.SYSTEM.DIHEDRAL>
0

>  <SCORE.SYSTEM.SOLV>
0

>  <SCORE.SYSTEM.norm>
0

>  <SCORE.heavy>
27

>  <SCORE.norm>
-0.223843

>  <RMSD>
14.113

$$$$
ligand
 OpenBabel11021811463D
libRbt.so/2013.1/901 2013/11/27
 27 28  0  0  0  0  0  0  0  0999 V2000
  -19.4621   51.7355   -6.5113 C   0  0  0  0  0  0  0  0  0  0  0  0
  -20.2360   59.1392  -10.9323 C   0  0  0  0  0  0  0  0  0  0  0  0
  -17.6552   60.0194  -12.1733 C   0  0  0  0  0  0  0  0  0  0  0  0
  -18.3577   59.7546  -13.5063 C   0  0  0  0  0  0  0  0  0  0  0  0
  -18.7693   60.9817  -14.1138 O   0  0  0  0  0  0  0  0  0  0  0  0
  -19.6539   60.9577  -15.4543 P   0  0  1  0  0  0  0  0  0  0  0  0
  -21.4017   58.7537  -15.6642 P   0  0  2  0  0  0  0  0  0  0  0  0
  -16.5979   56.9431  -10.2062 C   0  0  0  0  0  0  0  0  0  0  0  0
  -19.6804   53.1339   -8.5568 N   0  0  0  0  0  0  0  0  0  0  0  0
  -19.9174   62.4415  -15.9985 O   0  5  0  0  0  0  0  0  0  0  0  0
  -20.2657   57.8175  -15.5397 O   0  0  0  0  0  0  0  0  0  0  0  0
  -17.7832   56.5173   -9.6215 C   0  0  0  0  0  0  0  0  0  0  0  0
  -19.6662   53.0769   -7.2161 C   0  0  0  0  0  0  0  0  0  0  0  0
  -18.9528   60.1379  -16.6585 O   0  0  0  0  0  0  0  0  0  0  0  0
  -21.8992   58.8781  -17.1849 O   0  5  0  0  0  0  0  0  0  0  0  0
  -18.9619   57.2258   -9.8593 N   0  0  0  0  0  0  0  0  0  0  0  0
  -19.8298   54.1889   -6.4848 N   0  0  0  0  0  0  0  0  0  0  0  0
  -21.0859   60.2412  -15.1673 O   0  0  0  0  0  0  0  0  0  0  0  0
  -22.6664   58.2274  -14.8473 O   0  0  0  0  0  0  0  0  0  0  0  0
  -18.9373   58.3619  -10.6771 C   0  0  1  0  0  0  0  0  0  0  0  0
  -20.0095   55.3726   -7.0838 C   0  0  0  0  0  0  0  0  0  0  0  0
  -20.1687   56.4681   -6.3484 N   0  0  0  0  0  0  0  0  0  0  0  0
  -17.7470   58.7882  -11.2640 C   0  0  2  0  0  0  0  0  0  0  0  0
  -20.0259   55.4585   -8.4706 C   0  0  0  0  0  0  0  0  0  0  0  0
  -16.5830   58.0698  -11.0193 C   0  0  0  0  0  0  0  0  0  0  0  0
  -19.8546   54.2816   -9.1905 C   0  0  0  0  0  0  0  0  0  0  0  0
  -20.2271   56.7741   -9.2339 C   0  0  0  0  0  0  0  0  0  0  0  0
  1 13  1  0  0  0  0
  3  4  1  0  0  0  0
  4  5  1  0  0  0  0
  6  5  1  1  0  0  0
  6 10  1  0  0  0  0
  6 14  2  0  0  0  0
  6 18  1  0  0  0  0
  7 11  1  1  0  0  0
  7 15  1  0  0  0  0
  7 19  2  0  0  0  0
  7 18  1  0  0  0  0
  8 25  1  0  0  0  0
  8 12  1  0  0  0  0
  9 26  2  0  0  0  0
  9 13  1  0  0  0  0
 12 16  1  0  0  0  0
 13 17  2  0  0  0  0
 16 20  1  0  0  0  0
 16 27  1  0  0  0  0
 17 21  1  0  0  0  0
 20  2  1  6  0  0  0
 20 23  1  0  0  0  0
 21 22  1  0  0  0  0
 21 24  2  0  0  0  0
 23  3  1  1  0  0  0
 23 25  1  0  0  0  0
 24 27  1  0  0  0  0
 24 26  1  0  0  0  0
M  CHG  2  10  -1  15  -1
M  END
>  <CHROM.1>
155.94091776,-174.14066726,-176.52833971,-104.52846830,39.12874640,-69.90194643
107.33021098,-4.62637067,-19.65775670,57.85782272,-12.00228898,1.46597495
0.71214454,2.25323420

>  <Name>
ligand

>  <RI>
0

>  <Rbt.Current_Directory>
/home/itssahil/PROJECTS/Mol_Feturizer/New_Systems/rnas/3D2V

>  <Rbt.Executable>
rbdock ($Id: //depot/dev/client3/rdock/2013.1/src/exe/rbdock.cxx#4 $)

>  <Rbt.Library>
libRbt.so (2013.1, Build901 2013/11/27)

>  <Rbt.Parameter_File>
/export/apps/rDock/src/rDock_2013.1_src/data/scripts/dock_solv.prm

>  <Rbt.Receptor>
prm/blind_docking_100.prm

>  <SCORE>
-11.1954

>  <SCORE.INTER>
-12.2235

>  <SCORE.INTER.CONST>
1

>  <SCORE.INTER.POLAR>
0

>  <SCORE.INTER.ROT>
8

>  <SCORE.INTER.SOLV>
15.9417

>  <SCORE.INTER.VDW>
-22.3962

>  <SCORE.INTER.norm>
-0.452722

>  <SCORE.INTRA>
1.02768

>  <SCORE.INTRA.DIHEDRAL>
2.09616

>  <SCORE.INTRA.DIHEDRAL.0>
7.82666

>  <SCORE.INTRA.POLAR>
0

>  <SCORE.INTRA.POLAR.0>
0

>  <SCORE.INTRA.REPUL>
0

>  <SCORE.INTRA.REPUL.0>
0

>  <SCORE.INTRA.SOLV>
-1.265

>  <SCORE.INTRA.SOLV.lig_0>
-83.2758

>  <SCORE.INTRA.VDW>
0.6121

>  <SCORE.INTRA.VDW.0>
-3.26816

>  <SCORE.INTRA.norm>
0.0380622

>  <SCORE.RESTR>
0.000443962

>  <SCORE.RESTR.CAVITY>
0.000443962

>  <SCORE.RESTR.norm>
1.6443e-05

>  <SCORE.SYSTEM>
0

>  <SCORE.SYSTEM.CONST>
0

>  <SCORE.SYSTEM.DIHEDRAL>
0

>  <SCORE.SYSTEM.SOLV>
0

>  <SCORE.SYSTEM.norm>
0

>  <SCORE.heavy>
27

>  <SCORE.norm>
-0.414643

>  <RMSD>
22.183

$$$$
ligand
 OpenBabel11021811463D
libRbt.so/2013.1/901 2013/11/27
 27 28  0  0  0  0  0  0  0  0999 V2000
  -19.9768   51.7398   -6.1200 C   0  0  0  0  0  0  0  0  0  0  0  0
  -20.1031   58.9244  -10.8189 C   0  0  0  0  0  0  0  0  0  0  0  0
  -22.2972   58.9312  -12.8588 C   0  0  0  0  0  0  0  0  0  0  0  0
  -21.6040   58.9793  -14.2218 C   0  0  0  0  0  0  0  0  0  0  0  0
  -20.1839   59.0356  -14.0654 O   0  0  0  0  0  0  0  0  0  0  0  0
  -19.2404   59.2187  -15.3523 P   0  0  1  0  0  0  0  0  0  0  0  0
  -20.2418   57.8949  -17.6329 P   0  0  2  0  0  0  0  0  0  0  0  0
  -22.2677   55.3056  -11.7163 C   0  0  0  0  0  0  0  0  0  0  0  0
  -19.6494   52.8688   -8.3122 N   0  0  0  0  0  0  0  0  0  0  0  0
  -19.6626   60.5124  -16.1981 O   0  5  0  0  0  0  0  0  0  0  0  0
  -19.8849   58.9324  -18.6222 O   0  0  0  0  0  0  0  0  0  0  0  0
  -21.2547   55.2803  -10.7668 C   0  0  0  0  0  0  0  0  0  0  0  0
  -19.8462   52.9903   -6.9902 C   0  0  0  0  0  0  0  0  0  0  0  0
  -17.6802   59.4012  -14.9702 O   0  0  0  0  0  0  0  0  0  0  0  0
  -21.7643   58.0424  -17.1471 O   0  5  0  0  0  0  0  0  0  0  0  0
  -20.5563   56.4523  -10.4733 N   0  0  0  0  0  0  0  0  0  0  0  0
  -19.9300   54.2019   -6.4219 N   0  0  0  0  0  0  0  0  0  0  0  0
  -19.3408   57.9083  -16.3111 O   0  0  0  0  0  0  0  0  0  0  0  0
  -20.1417   56.4377  -18.2736 O   0  0  0  0  0  0  0  0  0  0  0  0
  -20.8771   57.6391  -11.1432 C   0  0  1  0  0  0  0  0  0  0  0  0
  -19.8177   55.3083   -7.1674 C   0  0  0  0  0  0  0  0  0  0  0  0
  -19.9005   56.5037   -6.5926 N   0  0  0  0  0  0  0  0  0  0  0  0
  -21.8944   57.6636  -12.0958 C   0  0  1  0  0  0  0  0  0  0  0  0
  -19.6112   55.2093   -8.5380 C   0  0  0  0  0  0  0  0  0  0  0  0
  -22.5819   56.4886  -12.3740 C   0  0  0  0  0  0  0  0  0  0  0  0
  -19.5326   53.9345   -9.0867 C   0  0  0  0  0  0  0  0  0  0  0  0
  -19.4734   56.4262   -9.4622 C   0  0  0  0  0  0  0  0  0  0  0  0
  1 13  1  0  0  0  0
  3  4  1  0  0  0  0
  4  5  1  0  0  0  0
  6  5  1  1  0  0  0
  6 10  1  0  0  0  0
  6 14  2  0  0  0  0
  6 18  1  0  0  0  0
  7 11  1  6  0  0  0
  7 15  1  0  0  0  0
  7 19  2  0  0  0  0
  7 18  1  0  0  0  0
  8 25  1  0  0  0  0
  8 12  1  0  0  0  0
  9 26  2  0  0  0  0
  9 13  1  0  0  0  0
 12 16  1  0  0  0  0
 13 17  2  0  0  0  0
 16 20  1  0  0  0  0
 16 27  1  0  0  0  0
 17 21  1  0  0  0  0
 20  2  1  1  0  0  0
 20 23  1  0  0  0  0
 21 22  1  0  0  0  0
 21 24  2  0  0  0  0
 23  3  1  1  0  0  0
 23 25  1  0  0  0  0
 24 27  1  0  0  0  0
 24 26  1  0  0  0  0
M  CHG  2  10  -1  15  -1
M  END
>  <CHROM.1>
-62.33102074,-174.81523355,54.60107603,100.72370609,58.58536040,96.38799614
-117.96199312,-20.03898802,-20.25309082,57.00833386,-12.58647481,1.55916235
1.45139886,2.02563614

>  <Name>
ligand

>  <RI>
0

>  <Rbt.Current_Directory>
/home/itssahil/PROJECTS/Mol_Feturizer/New_Systems/rnas/3D2V

>  <Rbt.Executable>
rbdock ($Id: //depot/dev/client3/rdock/2013.1/src/exe/rbdock.cxx#4 $)

>  <Rbt.Library>
libRbt.so (2013.1, Build901 2013/11/27)

>  <Rbt.Parameter_File>
/export/apps/rDock/src/rDock_2013.1_src/data/scripts/dock_solv.prm

>  <Rbt.Receptor>
prm/blind_docking_80.prm

>  <SCORE>
-13.8118

>  <SCORE.INTER>
-13.8906

>  <SCORE.INTER.CONST>
1

>  <SCORE.INTER.POLAR>
0

>  <SCORE.INTER.ROT>
8

>  <SCORE.INTER.SOLV>
20.7161

>  <SCORE.INTER.VDW>
-25.0991

>  <SCORE.INTER.norm>
-0.514468

>  <SCORE.INTRA>
0.0787909

>  <SCORE.INTRA.DIHEDRAL>
-0.606003

>  <SCORE.INTRA.DIHEDRAL.0>
7.82666

>  <SCORE.INTRA.POLAR>
0

>  <SCORE.INTRA.POLAR.0>
0

>  <SCORE.INTRA.REPUL>
0

>  <SCORE.INTRA.REPUL.0>
0

>  <SCORE.INTRA.SOLV>
-0.407238

>  <SCORE.INTRA.SOLV.lig_0>
-83.2758

>  <SCORE.INTRA.VDW>
0.585411

>  <SCORE.INTRA.VDW.0>
-3.26816

>  <SCORE.INTRA.norm>
0.00291818

>  <SCORE.RESTR>
0

>  <SCORE.RESTR.CAVITY>
0

>  <SCORE.RESTR.norm>
0

>  <SCORE.SYSTEM>
0

>  <SCORE.SYSTEM.CONST>
0

>  <SCORE.SYSTEM.DIHEDRAL>
0

>  <SCORE.SYSTEM.SOLV>
0

>  <SCORE.SYSTEM.norm>
0

>  <SCORE.heavy>
27

>  <SCORE.norm>
-0.51155

>  <RMSD>
22.214

$$$$
ligand
 OpenBabel11021811463D
libRbt.so/2013.1/901 2013/11/27
 27 28  0  0  0  0  0  0  0  0999 V2000
  -16.4383   56.8566   -9.1349 C   0  0  0  0  0  0  0  0  0  0  0  0
  -21.9378   54.5668  -11.3104 C   0  0  0  0  0  0  0  0  0  0  0  0
  -24.2191   56.2835  -12.2180 C   0  0  0  0  0  0  0  0  0  0  0  0
  -23.5924   57.6031  -12.6724 C   0  0  0  0  0  0  0  0  0  0  0  0
  -22.1670   57.5459  -12.5764 O   0  0  0  0  0  0  0  0  0  0  0  0
  -21.2784   58.7946  -13.0571 P   0  0  1  0  0  0  0  0  0  0  0  0
  -19.4304   59.4131  -15.0964 P   0  0  2  0  0  0  0  0  0  0  0  0
  -24.5432   56.4437   -8.4338 C   0  0  0  0  0  0  0  0  0  0  0  0
  -18.1855   55.2175   -9.8039 N   0  0  0  0  0  0  0  0  0  0  0  0
  -22.1829   60.1008  -13.2645 O   0  5  0  0  0  0  0  0  0  0  0  0
  -18.1804   59.5084  -14.3148 O   0  0  0  0  0  0  0  0  0  0  0  0
  -23.4913   55.6525   -7.9914 C   0  0  0  0  0  0  0  0  0  0  0  0
  -17.7869   56.1633   -8.9393 C   0  0  0  0  0  0  0  0  0  0  0  0
  -20.1230   59.1918  -11.9984 O   0  0  0  0  0  0  0  0  0  0  0  0
  -20.1299   60.8474  -15.2669 O   0  5  0  0  0  0  0  0  0  0  0  0
  -22.6454   55.0477   -8.9222 N   0  0  0  0  0  0  0  0  0  0  0  0
  -18.5623   56.5082   -7.9010 N   0  0  0  0  0  0  0  0  0  0  0  0
  -20.5324   58.4440  -14.4596 O   0  0  0  0  0  0  0  0  0  0  0  0
  -19.1378   58.9064  -16.5802 O   0  0  0  0  0  0  0  0  0  0  0  0
  -22.8692   55.2373  -10.2912 C   0  0  1  0  0  0  0  0  0  0  0  0
  -19.7465   55.9126   -7.7134 C   0  0  0  0  0  0  0  0  0  0  0  0
  -20.5071   56.2642   -6.6818 N   0  0  0  0  0  0  0  0  0  0  0  0
  -23.9251   56.0321  -10.7343 C   0  0  1  0  0  0  0  0  0  0  0  0
  -20.1829   54.9319   -8.5959 C   0  0  0  0  0  0  0  0  0  0  0  0
  -24.7561   56.6293   -9.7943 C   0  0  0  0  0  0  0  0  0  0  0  0
  -19.3476   54.6032   -9.6573 C   0  0  0  0  0  0  0  0  0  0  0  0
  -21.5241   54.2010   -8.4515 C   0  0  0  0  0  0  0  0  0  0  0  0
  1 13  1  0  0  0  0
  3  4  1  0  0  0  0
  4  5  1  0  0  0  0
  6  5  1  1  0  0  0
  6 10  1  0  0  0  0
  6 14  2  0  0  0  0
  6 18  1  0  0  0  0
  7 11  1  1  0  0  0
  7 15  1  0  0  0  0
  7 19  2  0  0  0  0
  7 18  1  0  0  0  0
  8 25  1  0  0  0  0
  8 12  1  0  0  0  0
  9 26  2  0  0  0  0
  9 13  1  0  0  0  0
 12 16  1  0  0  0  0
 13 17  2  0  0  0  0
 16 20  1  0  0  0  0
 16 27  1  0  0  0  0
 17 21  1  0  0  0  0
 20  2  1  1  0  0  0
 20 23  1  0  0  0  0
 21 22  1  0  0  0  0
 21 24  2  0  0  0  0
 23  3  1  1  0  0  0
 23 25  1  0  0  0  0
 24 27  1  0  0  0  0
 24 26  1  0  0  0  0
M  CHG  2  10  -1  15  -1
M  END
>  <CHROM.1>
63.80839264,177.44452926,13.82451455,-171.99805280,67.23417135,-96.19399999
78.00064262,-104.89449574,-20.89297369,57.22692026,-11.39799977,-1.73559241
-0.10488827,-1.01529547

>  <Name>
ligand

>  <RI>
0

>  <Rbt.Current_Directory>
/home/itssahil/PROJECTS/Mol_Feturizer/New_Systems/rnas/3D2V

>  <Rbt.Executable>
rbdock ($Id: //depot/dev/client3/rdock/2013.1/src/exe/rbdock.cxx#4 $)

>  <Rbt.Library>
libRbt.so (2013.1, Build901 2013/11/27)

>  <Rbt.Parameter_File>
/export/apps/rDock/src/rDock_2013.1_src/data/scripts/dock_solv.prm

>  <Rbt.Receptor>
prm/blind_docking_80.prm

>  <SCORE>
-11.1063

>  <SCORE.INTER>
-11.1215

>  <SCORE.INTER.CONST>
1

>  <SCORE.INTER.POLAR>
0

>  <SCORE.INTER.ROT>
8

>  <SCORE.INTER.SOLV>
17.1965

>  <SCORE.INTER.VDW>
-22.0798

>  <SCORE.INTER.norm>
-0.411908

>  <SCORE.INTRA>
0.0152677

>  <SCORE.INTRA.DIHEDRAL>
-0.230985

>  <SCORE.INTRA.DIHEDRAL.0>
7.82666

>  <SCORE.INTRA.POLAR>
0

>  <SCORE.INTRA.POLAR.0>
0

>  <SCORE.INTRA.REPUL>
0

>  <SCORE.INTRA.REPUL.0>
0

>  <SCORE.INTRA.SOLV>
0.608433

>  <SCORE.INTRA.SOLV.lig_0>
-83.2758

>  <SCORE.INTRA.VDW>
-0.173457

>  <SCORE.INTRA.VDW.0>
-3.26816

>  <SCORE.INTRA.norm>
0.000565469

>  <SCORE.RESTR>
0

>  <SCORE.RESTR.CAVITY>
0

>  <SCORE.RESTR.norm>
0

>  <SCORE.SYSTEM>
0

>  <SCORE.SYSTEM.CONST>
0

>  <SCORE.SYSTEM.DIHEDRAL>
0

>  <SCORE.SYSTEM.SOLV>
0

>  <SCORE.SYSTEM.norm>
0

>  <SCORE.heavy>
27

>  <SCORE.norm>
-0.411343

>  <RMSD>
22.636

$$$$
ligand
 OpenBabel11021811463D
libRbt.so/2013.1/901 2013/11/27
 27 28  0  0  0  0  0  0  0  0999 V2000
  -20.3940   57.0699  -18.1794 C   0  0  0  0  0  0  0  0  0  0  0  0
  -20.7055   58.8447  -10.5490 C   0  0  0  0  0  0  0  0  0  0  0  0
  -18.6067   57.5493   -8.8484 C   0  0  0  0  0  0  0  0  0  0  0  0
  -17.9524   56.1768   -8.6783 C   0  0  0  0  0  0  0  0  0  0  0  0
  -18.4971   55.2378   -9.6088 O   0  0  0  0  0  0  0  0  0  0  0  0
  -19.9457   54.5952   -9.3471 P   0  0  1  0  0  0  0  0  0  0  0  0
  -19.8392   53.1567   -6.9230 P   0  0  2  0  0  0  0  0  0  0  0  0
  -16.6391   58.5365  -11.9475 C   0  0  0  0  0  0  0  0  0  0  0  0
  -19.1335   58.3953  -16.4937 N   0  0  0  0  0  0  0  0  0  0  0  0
  -20.8784   55.5952   -8.5121 O   0  5  0  0  0  0  0  0  0  0  0  0
  -18.8736   54.0610   -6.2654 O   0  0  0  0  0  0  0  0  0  0  0  0
  -17.5960   59.1414  -12.7517 C   0  0  0  0  0  0  0  0  0  0  0  0
  -20.2895   57.8121  -16.8467 C   0  0  0  0  0  0  0  0  0  0  0  0
  -20.7390   54.2497  -10.7127 O   0  0  0  0  0  0  0  0  0  0  0  0
  -19.5939   51.6270   -6.5040 O   0  5  0  0  0  0  0  0  0  0  0  0
  -18.9117   59.2447  -12.2978 N   0  0  0  0  0  0  0  0  0  0  0  0
  -21.3585   57.8736  -16.0396 N   0  0  0  0  0  0  0  0  0  0  0  0
  -19.7988   53.2010   -8.5216 O   0  0  0  0  0  0  0  0  0  0  0  0
  -21.3313   53.4862   -6.4660 O   0  0  0  0  0  0  0  0  0  0  0  0
  -19.2561   58.7314  -11.0416 C   0  0  1  0  0  0  0  0  0  0  0  0
  -21.2862   58.5186  -14.8686 C   0  0  0  0  0  0  0  0  0  0  0  0
  -22.3518   58.5712  -14.0761 N   0  0  0  0  0  0  0  0  0  0  0  0
  -18.2947   58.1249  -10.2349 C   0  0  2  0  0  0  0  0  0  0  0  0
  -20.1000   59.1287  -14.4791 C   0  0  0  0  0  0  0  0  0  0  0  0
  -16.9888   58.0328  -10.7006 C   0  0  0  0  0  0  0  0  0  0  0  0
  -19.0170   59.0427  -15.3463 C   0  0  0  0  0  0  0  0  0  0  0  0
  -19.9344   59.8876  -13.1560 C   0  0  0  0  0  0  0  0  0  0  0  0
  1 13  1  0  0  0  0
  3  4  1  0  0  0  0
  4  5  1  0  0  0  0
  6  5  1  6  0  0  0
  6 10  1  0  0  0  0
  6 14  2  0  0  0  0
  6 18  1  0  0  0  0
  7 11  1  1  0  0  0
  7 15  1  0  0  0  0
  7 19  2  0  0  0  0
  7 18  1  0  0  0  0
  8 25  1  0  0  0  0
  8 12  1  0  0  0  0
  9 26  2  0  0  0  0
  9 13  1  0  0  0  0
 12 16  1  0  0  0  0
 13 17  2  0  0  0  0
 16 20  1  0  0  0  0
 16 27  1  0  0  0  0
 17 21  1  0  0  0  0
 20  2  1  1  0  0  0
 20 23  1  0  0  0  0
 21 22  1  0  0  0  0
 21 24  2  0  0  0  0
 23  3  1  6  0  0  0
 23 25  1  0  0  0  0
 24 27  1  0  0  0  0
 24 26  1  0  0  0  0
M  CHG  2  10  -1  15  -1
M  END
>  <CHROM.1>
-63.68256479,-76.74448577,28.84923421,91.06843550,-53.79554538,135.36718609
117.78389787,61.01870421,-19.64448798,56.46725854,-11.01036229,1.60835246
-0.90396957,-0.98387756

>  <Name>
ligand

>  <RI>
0

>  <Rbt.Current_Directory>
/home/itssahil/PROJECTS/Mol_Feturizer/New_Systems/rnas/3D2V

>  <Rbt.Executable>
rbdock ($Id: //depot/dev/client3/rdock/2013.1/src/exe/rbdock.cxx#4 $)

>  <Rbt.Library>
libRbt.so (2013.1, Build901 2013/11/27)

>  <Rbt.Parameter_File>
/export/apps/rDock/src/rDock_2013.1_src/data/scripts/dock_solv.prm

>  <Rbt.Receptor>
prm/blind_docking_80.prm

>  <SCORE>
-15.426

>  <SCORE.INTER>
-16.7137

>  <SCORE.INTER.CONST>
1

>  <SCORE.INTER.POLAR>
0

>  <SCORE.INTER.ROT>
8

>  <SCORE.INTER.SOLV>
19.3742

>  <SCORE.INTER.VDW>
-26.5338

>  <SCORE.INTER.norm>
-0.619025

>  <SCORE.INTRA>
1.28769

>  <SCORE.INTRA.DIHEDRAL>
1.33551

>  <SCORE.INTRA.DIHEDRAL.0>
7.82666

>  <SCORE.INTRA.POLAR>
0

>  <SCORE.INTRA.POLAR.0>
0

>  <SCORE.INTRA.REPUL>
0

>  <SCORE.INTRA.REPUL.0>
0

>  <SCORE.INTRA.SOLV>
1.2356

>  <SCORE.INTRA.SOLV.lig_0>
-83.2758

>  <SCORE.INTRA.VDW>
0.0021334

>  <SCORE.INTRA.VDW.0>
-3.26816

>  <SCORE.INTRA.norm>
0.0476922

>  <SCORE.RESTR>
0

>  <SCORE.RESTR.CAVITY>
0

>  <SCORE.RESTR.norm>
0

>  <SCORE.SYSTEM>
0

>  <SCORE.SYSTEM.CONST>
0

>  <SCORE.SYSTEM.DIHEDRAL>
0

>  <SCORE.SYSTEM.SOLV>
0

>  <SCORE.SYSTEM.norm>
0

>  <SCORE.heavy>
27

>  <SCORE.norm>
-0.571332

>  <RMSD>
22.873

$$$$
ligand
 OpenBabel11021811463D
libRbt.so/2013.1/901 2013/11/27
 27 28  0  0  0  0  0  0  0  0999 V2000
  -20.4221   57.5563  -18.0546 C   0  0  0  0  0  0  0  0  0  0  0  0
  -22.6485   56.2529  -12.1900 C   0  0  0  0  0  0  0  0  0  0  0  0
  -21.1177   54.5554  -10.2534 C   0  0  0  0  0  0  0  0  0  0  0  0
  -21.5853   54.4082   -8.8041 C   0  0  0  0  0  0  0  0  0  0  0  0
  -20.6044   54.9247   -7.9011 O   0  0  0  0  0  0  0  0  0  0  0  0
  -20.8750   54.8954   -6.3181 P   0  0  1  0  0  0  0  0  0  0  0  0
  -19.8044   52.2992   -6.0538 P   0  0  2  0  0  0  0  0  0  0  0  0
  -19.2306   57.8520  -10.1051 C   0  0  0  0  0  0  0  0  0  0  0  0
  -19.8396   58.2752  -15.7457 N   0  0  0  0  0  0  0  0  0  0  0  0
  -19.7021   55.6382   -5.5183 O   0  5  0  0  0  0  0  0  0  0  0  0
  -19.4393   52.1315   -7.4754 O   0  0  0  0  0  0  0  0  0  0  0  0
  -19.9262   58.6563  -10.9980 C   0  0  0  0  0  0  0  0  0  0  0  0
  -20.7977   57.9353  -16.6217 C   0  0  0  0  0  0  0  0  0  0  0  0
  -22.2567   55.6234   -5.9004 O   0  0  0  0  0  0  0  0  0  0  0  0
  -20.2910   50.9152   -5.4029 O   0  5  0  0  0  0  0  0  0  0  0  0
  -21.0349   58.1402  -11.6703 N   0  0  0  0  0  0  0  0  0  0  0  0
  -22.0866   57.9245  -16.2522 N   0  0  0  0  0  0  0  0  0  0  0  0
  -20.9754   53.3581   -5.7956 O   0  0  0  0  0  0  0  0  0  0  0  0
  -18.5420   52.7517   -5.1904 O   0  0  0  0  0  0  0  0  0  0  0  0
  -21.4304   56.8162  -11.4451 C   0  0  1  0  0  0  0  0  0  0  0  0
  -22.4350   58.2530  -15.0020 C   0  0  0  0  0  0  0  0  0  0  0  0
  -23.7156   58.2368  -14.6468 N   0  0  0  0  0  0  0  0  0  0  0  0
  -20.7318   56.0097  -10.5482 C   0  0  2  0  0  0  0  0  0  0  0  0
  -21.4616   58.6064  -14.0754 C   0  0  0  0  0  0  0  0  0  0  0  0
  -19.6319   56.5400   -9.8849 C   0  0  0  0  0  0  0  0  0  0  0  0
  -20.1381   58.6066  -14.5006 C   0  0  0  0  0  0  0  0  0  0  0  0
  -21.7766   58.9967  -12.6254 C   0  0  0  0  0  0  0  0  0  0  0  0
  1 13  1  0  0  0  0
  3  4  1  0  0  0  0
  4  5  1  0  0  0  0
  6  5  1  6  0  0  0
  6 10  1  0  0  0  0
  6 14  2  0  0  0  0
  6 18  1  0  0  0  0
  7 11  1  6  0  0  0
  7 15  1  0  0  0  0
  7 19  2  0  0  0  0
  7 18  1  0  0  0  0
  8 25  1  0  0  0  0
  8 12  1  0  0  0  0
  9 26  2  0  0  0  0
  9 13  1  0  0  0  0
 12 16  1  0  0  0  0
 13 17  2  0  0  0  0
 16 20  1  0  0  0  0
 16 27  1  0  0  0  0
 17 21  1  0  0  0  0
 20  2  1  1  0  0  0
 20 23  1  0  0  0  0
 21 22  1  0  0  0  0
 21 24  2  0  0  0  0
 23  3  1  6  0  0  0
 23 25  1  0  0  0  0
 24 27  1  0  0  0  0
 24 26  1  0  0  0  0
M  CHG  2  10  -1  15  -1
M  END
>  <CHROM.1>
-53.76613094,179.38018374,-175.05351569,55.44213865,-55.84584258,-114.12268664
123.99117004,104.89807983,-20.78495375,55.79253677,-10.11522821,-1.98859315
-1.29802250,1.65720821

>  <Name>
ligand

>  <RI>
0

>  <Rbt.Current_Directory>
/home/itssahil/PROJECTS/Mol_Feturizer/New_Systems/rnas/3D2V

>  <Rbt.Executable>
rbdock ($Id: //depot/dev/client3/rdock/2013.1/src/exe/rbdock.cxx#4 $)

>  <Rbt.Library>
libRbt.so (2013.1, Build901 2013/11/27)

>  <Rbt.Parameter_File>
/export/apps/rDock/src/rDock_2013.1_src/data/scripts/dock_solv.prm

>  <Rbt.Receptor>
prm/blind_docking_100.prm

>  <SCORE>
-12.3176

>  <SCORE.INTER>
-10.1933

>  <SCORE.INTER.CONST>
1

>  <SCORE.INTER.POLAR>
0

>  <SCORE.INTER.ROT>
8

>  <SCORE.INTER.SOLV>
13.3436

>  <SCORE.INTER.VDW>
-20.1768

>  <SCORE.INTER.norm>
-0.377531

>  <SCORE.INTRA>
-2.12429

>  <SCORE.INTRA.DIHEDRAL>
-2.41646

>  <SCORE.INTRA.DIHEDRAL.0>
7.82666

>  <SCORE.INTRA.POLAR>
0

>  <SCORE.INTRA.POLAR.0>
0

>  <SCORE.INTRA.REPUL>
0

>  <SCORE.INTRA.REPUL.0>
0

>  <SCORE.INTRA.SOLV>
-0.782169

>  <SCORE.INTRA.SOLV.lig_0>
-83.2758

>  <SCORE.INTRA.VDW>
-0.524978

>  <SCORE.INTRA.VDW.0>
-3.26816

>  <SCORE.INTRA.norm>
-0.0786775

>  <SCORE.RESTR>
0

>  <SCORE.RESTR.CAVITY>
0

>  <SCORE.RESTR.norm>
0

>  <SCORE.SYSTEM>
0

>  <SCORE.SYSTEM.CONST>
0

>  <SCORE.SYSTEM.DIHEDRAL>
0

>  <SCORE.SYSTEM.SOLV>
0

>  <SCORE.SYSTEM.norm>
0

>  <SCORE.heavy>
27

>  <SCORE.norm>
-0.456208

>  <RMSD>
23.082

$$$$
ligand
 OpenBabel11021811463D
libRbt.so/2013.1/901 2013/11/27
 27 28  0  0  0  0  0  0  0  0999 V2000
  -21.2519   52.9016   -6.6102 C   0  0  0  0  0  0  0  0  0  0  0  0
  -24.2500   57.0018  -13.6187 C   0  0  0  0  0  0  0  0  0  0  0  0
  -23.0194   59.6999  -14.0446 C   0  0  0  0  0  0  0  0  0  0  0  0
  -21.7273   59.9721  -14.8172 C   0  0  0  0  0  0  0  0  0  0  0  0
  -21.1281   58.7477  -15.2484 O   0  0  0  0  0  0  0  0  0  0  0  0
  -19.8157   58.7776  -16.1740 P   0  0  1  0  0  0  0  0  0  0  0  0
  -18.5128   59.4286  -13.7584 P   0  0  2  0  0  0  0  0  0  0  0  0
  -21.5632   58.6685  -10.6880 C   0  0  0  0  0  0  0  0  0  0  0  0
  -23.1586   53.9145   -7.8453 N   0  0  0  0  0  0  0  0  0  0  0  0
  -19.7343   57.4742  -17.1023 O   0  5  0  0  0  0  0  0  0  0  0  0
  -19.4181   58.7031  -12.8437 O   0  0  0  0  0  0  0  0  0  0  0  0
  -22.1220   57.4160  -10.4709 C   0  0  0  0  0  0  0  0  0  0  0  0
  -21.8541   53.5999   -7.8298 C   0  0  0  0  0  0  0  0  0  0  0  0
  -19.7692   60.0564  -17.1620 O   0  0  0  0  0  0  0  0  0  0  0  0
  -18.9166   60.9769  -13.8823 O   0  5  0  0  0  0  0  0  0  0  0  0
  -22.9889   56.8745  -11.4212 N   0  0  0  0  0  0  0  0  0  0  0  0
  -21.0698   53.8927   -8.8772 N   0  0  0  0  0  0  0  0  0  0  0  0
  -18.4795   58.8480  -15.2487 O   0  0  0  0  0  0  0  0  0  0  0  0
  -17.0178   59.4248  -13.2027 O   0  0  0  0  0  0  0  0  0  0  0  0
  -23.2931   57.6008  -12.5787 C   0  0  1  0  0  0  0  0  0  0  0  0
  -21.5790   54.5036   -9.9542 C   0  0  0  0  0  0  0  0  0  0  0  0
  -20.7921   54.7870  -10.9871 N   0  0  0  0  0  0  0  0  0  0  0  0
  -22.7313   58.8579  -12.7959 C   0  0  1  0  0  0  0  0  0  0  0  0
  -22.9272   54.8378   -9.9957 C   0  0  0  0  0  0  0  0  0  0  0  0
  -21.8679   59.3812  -11.8412 C   0  0  0  0  0  0  0  0  0  0  0  0
  -23.7039   54.5182   -8.8880 C   0  0  0  0  0  0  0  0  0  0  0  0
  -23.5880   55.5390  -11.1897 C   0  0  0  0  0  0  0  0  0  0  0  0
  1 13  1  0  0  0  0
  3  4  1  0  0  0  0
  4  5  1  0  0  0  0
  6  5  1  1  0  0  0
  6 10  1  0  0  0  0
  6 14  2  0  0  0  0
  6 18  1  0  0  0  0
  7 11  1  1  0  0  0
  7 15  1  0  0  0  0
  7 19  2  0  0  0  0
  7 18  1  0  0  0  0
  8 25  1  0  0  0  0
  8 12  1  0  0  0  0
  9 26  2  0  0  0  0
  9 13  1  0  0  0  0
 12 16  1  0  0  0  0
 13 17  2  0  0  0  0
 16 20  1  0  0  0  0
 16 27  1  0  0  0  0
 17 21  1  0  0  0  0
 20  2  1  6  0  0  0
 20 23  1  0  0  0  0
 21 22  1  0  0  0  0
 21 24  2  0  0  0  0
 23  3  1  6  0  0  0
 23 25  1  0  0  0  0
 24 27  1  0  0  0  0
 24 26  1  0  0  0  0
M  CHG  2  10  -1  15  -1
M  END
>  <CHROM.1>
60.80288467,175.51251740,-151.89239378,-23.86668737,59.75473956,-119.66098925
-61.72802130,-10.44409098,-21.05161381,57.50832038,-12.57300625,-1.89978870
-0.12530935,-0.95266199

>  <Name>
ligand

>  <RI>
0

>  <Rbt.Current_Directory>
/home/itssahil/PROJECTS/Mol_Feturizer/New_Systems/rnas/3D2V

>  <Rbt.Executable>
rbdock ($Id: //depot/dev/client3/rdock/2013.1/src/exe/rbdock.cxx#4 $)

>  <Rbt.Library>
libRbt.so (2013.1, Build901 2013/11/27)

>  <Rbt.Parameter_File>
/export/apps/rDock/src/rDock_2013.1_src/data/scripts/dock_solv.prm

>  <Rbt.Receptor>
prm/blind_docking_80.prm

>  <SCORE>
-7.28031

>  <SCORE.INTER>
-6.91084

>  <SCORE.INTER.CONST>
1

>  <SCORE.INTER.POLAR>
0

>  <SCORE.INTER.ROT>
8

>  <SCORE.INTER.SOLV>
28.698

>  <SCORE.INTER.VDW>
-23.1066

>  <SCORE.INTER.norm>
-0.255957

>  <SCORE.INTRA>
-0.369474

>  <SCORE.INTRA.DIHEDRAL>
0.102683

>  <SCORE.INTRA.DIHEDRAL.0>
7.82666

>  <SCORE.INTRA.POLAR>
0

>  <SCORE.INTRA.POLAR.0>
0

>  <SCORE.INTRA.REPUL>
0

>  <SCORE.INTRA.REPUL.0>
0

>  <SCORE.INTRA.SOLV>
0.335256

>  <SCORE.INTRA.SOLV.lig_0>
-83.2758

>  <SCORE.INTRA.VDW>
-0.588444

>  <SCORE.INTRA.VDW.0>
-3.26816

>  <SCORE.INTRA.norm>
-0.0136842

>  <SCORE.RESTR>
0

>  <SCORE.RESTR.CAVITY>
0

>  <SCORE.RESTR.norm>
0

>  <SCORE.SYSTEM>
0

>  <SCORE.SYSTEM.CONST>
0

>  <SCORE.SYSTEM.DIHEDRAL>
0

>  <SCORE.SYSTEM.SOLV>
0

>  <SCORE.SYSTEM.norm>
0

>  <SCORE.heavy>
27

>  <SCORE.norm>
-0.269641

>  <RMSD>
23.207

$$$$
ligand
 OpenBabel11021811463D
libRbt.so/2013.1/901 2013/11/27
 27 28  0  0  0  0  0  0  0  0999 V2000
  -20.4976   57.1462  -18.0764 C   0  0  0  0  0  0  0  0  0  0  0  0
  -20.5173   59.0028  -10.1531 C   0  0  0  0  0  0  0  0  0  0  0  0
  -18.1306   57.9834   -8.6564 C   0  0  0  0  0  0  0  0  0  0  0  0
  -18.3670   56.4757   -8.5492 C   0  0  0  0  0  0  0  0  0  0  0  0
  -19.6996   56.1430   -8.9465 O   0  0  0  0  0  0  0  0  0  0  0  0
  -20.2563   54.6529   -8.7234 P   0  0  1  0  0  0  0  0  0  0  0  0
  -22.4163   54.5928  -10.5364 P   0  0  2  0  0  0  0  0  0  0  0  0
  -16.6835   58.6896  -12.0999 C   0  0  0  0  0  0  0  0  0  0  0  0
  -19.2999   58.4448  -16.3253 N   0  0  0  0  0  0  0  0  0  0  0  0
  -19.5034   53.6069   -9.6753 O   0  5  0  0  0  0  0  0  0  0  0  0
  -22.2834   53.2962  -11.2318 O   0  0  0  0  0  0  0  0  0  0  0  0
  -17.7765   59.1652  -12.8121 C   0  0  0  0  0  0  0  0  0  0  0  0
  -20.4318   57.8378  -16.7143 C   0  0  0  0  0  0  0  0  0  0  0  0
  -20.0611   54.1267   -7.2073 O   0  0  0  0  0  0  0  0  0  0  0  0
  -21.6446   55.7629  -11.3182 O   0  5  0  0  0  0  0  0  0  0  0  0
  -19.0169   59.2703  -12.1812 N   0  0  0  0  0  0  0  0  0  0  0  0
  -21.5104   57.8313  -15.9178 N   0  0  0  0  0  0  0  0  0  0  0  0
  -21.8511   54.5980   -9.0399 O   0  0  0  0  0  0  0  0  0  0  0  0
  -23.9415   55.0562  -10.4807 O   0  0  0  0  0  0  0  0  0  0  0  0
  -19.1498   58.8884  -10.8408 C   0  0  1  0  0  0  0  0  0  0  0  0
  -21.4719   58.4312  -14.7215 C   0  0  0  0  0  0  0  0  0  0  0  0
  -22.5467   58.4166  -13.9399 N   0  0  0  0  0  0  0  0  0  0  0  0
  -18.0518   58.4115  -10.1266 C   0  0  2  0  0  0  0  0  0  0  0  0
  -20.3111   59.0646  -14.2946 C   0  0  0  0  0  0  0  0  0  0  0  0
  -16.8234   58.3159  -10.7689 C   0  0  0  0  0  0  0  0  0  0  0  0
  -19.2170   59.0495  -15.1520 C   0  0  0  0  0  0  0  0  0  0  0  0
  -20.1848   59.7753  -12.9408 C   0  0  0  0  0  0  0  0  0  0  0  0
  1 13  1  0  0  0  0
  3  4  1  0  0  0  0
  4  5  1  0  0  0  0
  6  5  1  6  0  0  0
  6 10  1  0  0  0  0
  6 14  2  0  0  0  0
  6 18  1  0  0  0  0
  7 11  1  6  0  0  0
  7 15  1  0  0  0  0
  7 19  2  0  0  0  0
  7 18  1  0  0  0  0
  8 25  1  0  0  0  0
  8 12  1  0  0  0  0
  9 26  2  0  0  0  0
  9 13  1  0  0  0  0
 12 16  1  0  0  0  0
 13 17  2  0  0  0  0
 16 20  1  0  0  0  0
 16 27  1  0  0  0  0
 17 21  1  0  0  0  0
 20  2  1  1  0  0  0
 20 23  1  0  0  0  0
 21 22  1  0  0  0  0
 21 24  2  0  0  0  0
 23  3  1  6  0  0  0
 23 25  1  0  0  0  0
 24 27  1  0  0  0  0
 24 26  1  0  0  0  0
M  CHG  2  10  -1  15  -1
M  END
>  <CHROM.1>
-71.52606996,-171.28069227,-68.11135402,76.47703542,76.21485233,94.38566572
126.43325396,48.42570354,-20.26180271,56.82886345,-11.60192100,1.46139534
-0.70285457,-1.11069759

>  <Name>
ligand

>  <RI>
0

>  <Rbt.Current_Directory>
/home/itssahil/PROJECTS/Mol_Feturizer/New_Systems/rnas/3D2V

>  <Rbt.Executable>
rbdock ($Id: //depot/dev/client3/rdock/2013.1/src/exe/rbdock.cxx#4 $)

>  <Rbt.Library>
libRbt.so (2013.1, Build901 2013/11/27)

>  <Rbt.Parameter_File>
/export/apps/rDock/src/rDock_2013.1_src/data/scripts/dock_solv.prm

>  <Rbt.Receptor>
prm/blind_docking_100.prm

>  <SCORE>
-15.4631

>  <SCORE.INTER>
-15.3503

>  <SCORE.INTER.CONST>
1

>  <SCORE.INTER.POLAR>
0

>  <SCORE.INTER.ROT>
8

>  <SCORE.INTER.SOLV>
19.8481

>  <SCORE.INTER.VDW>
-25.7829

>  <SCORE.INTER.norm>
-0.568531

>  <SCORE.INTRA>
-0.142882

>  <SCORE.INTRA.DIHEDRAL>
-0.832077

>  <SCORE.INTRA.DIHEDRAL.0>
7.82666

>  <SCORE.INTRA.POLAR>
0

>  <SCORE.INTRA.POLAR.0>
0

>  <SCORE.INTRA.REPUL>
0

>  <SCORE.INTRA.REPUL.0>
0

>  <SCORE.INTRA.SOLV>
0.776182

>  <SCORE.INTRA.SOLV.lig_0>
-83.2758

>  <SCORE.INTRA.VDW>
-0.114934

>  <SCORE.INTRA.VDW.0>
-3.26816

>  <SCORE.INTRA.norm>
-0.00529193

>  <SCORE.RESTR>
0.0301707

>  <SCORE.RESTR.CAVITY>
0.0301707

>  <SCORE.RESTR.norm>
0.00111744

>  <SCORE.SYSTEM>
0

>  <SCORE.SYSTEM.CONST>
0

>  <SCORE.SYSTEM.DIHEDRAL>
0

>  <SCORE.SYSTEM.SOLV>
0

>  <SCORE.SYSTEM.norm>
0

>  <SCORE.heavy>
27

>  <SCORE.norm>
-0.572706

>  <RMSD>
23.304

$$$$
ligand
 OpenBabel11021811463D
libRbt.so/2013.1/901 2013/11/27
 27 28  0  0  0  0  0  0  0  0999 V2000
  -21.4446   56.0182   -3.3412 C   0  0  0  0  0  0  0  0  0  0  0  0
  -24.9577   57.1544  -10.5733 C   0  0  0  0  0  0  0  0  0  0  0  0
  -23.1264   56.7923  -12.9165 C   0  0  0  0  0  0  0  0  0  0  0  0
  -22.7422   58.2535  -12.6757 C   0  0  0  0  0  0  0  0  0  0  0  0
  -23.0704   59.0568  -13.8121 O   0  0  0  0  0  0  0  0  0  0  0  0
  -22.2319   58.9038  -15.1735 P   0  0  1  0  0  0  0  0  0  0  0  0
  -19.5427   58.8983  -16.0245 P   0  0  2  0  0  0  0  0  0  0  0  0
  -21.7550   54.2723  -10.4226 C   0  0  0  0  0  0  0  0  0  0  0  0
  -22.4217   54.7076   -5.2160 N   0  0  0  0  0  0  0  0  0  0  0  0
  -22.5385   57.5017  -15.8856 O   0  5  0  0  0  0  0  0  0  0  0  0
  -19.5462   57.6139  -16.7544 O   0  0  0  0  0  0  0  0  0  0  0  0
  -22.5926   54.4235   -9.3254 C   0  0  0  0  0  0  0  0  0  0  0  0
  -22.2632   55.9032   -4.6275 C   0  0  0  0  0  0  0  0  0  0  0  0
  -22.5674   60.0582  -16.2545 O   0  0  0  0  0  0  0  0  0  0  0  0
  -18.1211   59.1807  -15.3351 O   0  5  0  0  0  0  0  0  0  0  0  0
  -23.6318   55.3537   -9.3752 N   0  0  0  0  0  0  0  0  0  0  0  0
  -22.8175   57.0029   -5.1579 N   0  0  0  0  0  0  0  0  0  0  0  0
  -20.6378   58.9979  -14.8627 O   0  0  0  0  0  0  0  0  0  0  0  0
  -19.7796   60.1210  -17.0209 O   0  0  0  0  0  0  0  0  0  0  0  0
  -23.8153   56.1304  -10.5255 C   0  0  1  0  0  0  0  0  0  0  0  0
  -23.5374   56.9223   -6.2837 C   0  0  0  0  0  0  0  0  0  0  0  0
  -24.0804   58.0195   -6.8011 N   0  0  0  0  0  0  0  0  0  0  0  0
  -22.9743   55.9775  -11.6266 C   0  0  2  0  0  0  0  0  0  0  0  0
  -23.7144   55.6963   -6.9135 C   0  0  0  0  0  0  0  0  0  0  0  0
  -21.9463   55.0448  -11.5616 C   0  0  0  0  0  0  0  0  0  0  0  0
  -23.1246   54.5814   -6.3292 C   0  0  0  0  0  0  0  0  0  0  0  0
  -24.5248   55.5180   -8.2041 C   0  0  0  0  0  0  0  0  0  0  0  0
  1 13  1  0  0  0  0
  3  4  1  0  0  0  0
  4  5  1  0  0  0  0
  6  5  1  1  0  0  0
  6 10  1  0  0  0  0
  6 14  2  0  0  0  0
  6 18  1  0  0  0  0
  7 11  1  6  0  0  0
  7 15  1  0  0  0  0
  7 19  2  0  0  0  0
  7 18  1  0  0  0  0
  8 25  1  0  0  0  0
  8 12  1  0  0  0  0
  9 26  2  0  0  0  0
  9 13  1  0  0  0  0
 12 16  1  0  0  0  0
 13 17  2  0  0  0  0
 16 20  1  0  0  0  0
 16 27  1  0  0  0  0
 17 21  1  0  0  0  0
 20  2  1  6  0  0  0
 20 23  1  0  0  0  0
 21 22  1  0  0  0  0
 21 24  2  0  0  0  0
 23  3  1  1  0  0  0
 23 25  1  0  0  0  0
 24 27  1  0  0  0  0
 24 26  1  0  0  0  0
M  CHG  2  10  -1  15  -1
M  END
>  <CHROM.1>
-171.32258180,-70.49974769,70.11699098,-179.23419185,-61.90433178,69.95000084
103.45696574,49.80637496,-22.16358624,57.25865528,-11.48763273,-1.79679789
-0.15779326,-1.29415877

>  <Name>
ligand

>  <RI>
0

>  <Rbt.Current_Directory>
/home/itssahil/PROJECTS/Mol_Feturizer/New_Systems/rnas/3D2V

>  <Rbt.Executable>
rbdock ($Id: //depot/dev/client3/rdock/2013.1/src/exe/rbdock.cxx#4 $)

>  <Rbt.Library>
libRbt.so (2013.1, Build901 2013/11/27)

>  <Rbt.Parameter_File>
/export/apps/rDock/src/rDock_2013.1_src/data/scripts/dock_solv.prm

>  <Rbt.Receptor>
prm/blind_docking_100.prm

>  <SCORE>
-8.12134

>  <SCORE.INTER>
-8.53783

>  <SCORE.INTER.CONST>
1

>  <SCORE.INTER.POLAR>
0

>  <SCORE.INTER.ROT>
8

>  <SCORE.INTER.SOLV>
17.6467

>  <SCORE.INTER.VDW>
-20.5074

>  <SCORE.INTER.norm>
-0.316216

>  <SCORE.INTRA>
0.22406

>  <SCORE.INTRA.DIHEDRAL>
-1.65338

>  <SCORE.INTRA.DIHEDRAL.0>
7.82666

>  <SCORE.INTRA.POLAR>
0

>  <SCORE.INTRA.POLAR.0>
0

>  <SCORE.INTRA.REPUL>
0

>  <SCORE.INTRA.REPUL.0>
0

>  <SCORE.INTRA.SOLV>
1.08802

>  <SCORE.INTRA.SOLV.lig_0>
-83.2758

>  <SCORE.INTRA.VDW>
0.506739

>  <SCORE.INTRA.VDW.0>
-3.26816

>  <SCORE.INTRA.norm>
0.00829853

>  <SCORE.RESTR>
0.19243

>  <SCORE.RESTR.CAVITY>
0.19243

>  <SCORE.RESTR.norm>
0.00712705

>  <SCORE.SYSTEM>
0

>  <SCORE.SYSTEM.CONST>
0

>  <SCORE.SYSTEM.DIHEDRAL>
0

>  <SCORE.SYSTEM.SOLV>
0

>  <SCORE.SYSTEM.norm>
0

>  <SCORE.heavy>
27

>  <SCORE.norm>
-0.30079

>  <RMSD>
23.314

$$$$
ligand
 OpenBabel11021811463D
libRbt.so/2013.1/901 2013/11/27
 27 28  0  0  0  0  0  0  0  0999 V2000
  -21.6655   57.6438  -16.6533 C   0  0  0  0  0  0  0  0  0  0  0  0
  -19.8884   58.8019  -10.0032 C   0  0  0  0  0  0  0  0  0  0  0  0
  -18.4844   56.6572   -8.4526 C   0  0  0  0  0  0  0  0  0  0  0  0
  -19.7048   55.8172   -8.8344 C   0  0  0  0  0  0  0  0  0  0  0  0
  -20.3971   55.3704   -7.6660 O   0  0  0  0  0  0  0  0  0  0  0  0
  -21.8464   54.6912   -7.8012 P   0  0  1  0  0  0  0  0  0  0  0  0
  -24.5305   55.5028   -8.1072 P   0  0  2  0  0  0  0  0  0  0  0  0
  -15.9947   57.4112  -11.2245 C   0  0  0  0  0  0  0  0  0  0  0  0
  -21.3657   58.3976  -14.3019 N   0  0  0  0  0  0  0  0  0  0  0  0
  -21.8566   53.5771   -8.9526 O   0  5  0  0  0  0  0  0  0  0  0  0
  -24.9250   54.2838   -8.8426 O   0  0  0  0  0  0  0  0  0  0  0  0
  -16.6273   58.4067  -11.9572 C   0  0  0  0  0  0  0  0  0  0  0  0
  -20.8307   58.2475  -15.5234 C   0  0  0  0  0  0  0  0  0  0  0  0
  -22.3304   53.9609   -6.4425 O   0  0  0  0  0  0  0  0  0  0  0  0
  -25.2753   56.8039   -8.6801 O   0  5  0  0  0  0  0  0  0  0  0  0
  -17.8862   58.8598  -11.5601 N   0  0  0  0  0  0  0  0  0  0  0  0
  -19.5663   58.6231  -15.7648 N   0  0  0  0  0  0  0  0  0  0  0  0
  -22.9633   55.8206   -8.1529 O   0  0  0  0  0  0  0  0  0  0  0  0
  -24.9622   55.4090   -6.5747 O   0  0  0  0  0  0  0  0  0  0  0  0
  -18.5022   58.3022  -10.4333 C   0  0  1  0  0  0  0  0  0  0  0  0
  -18.8199   59.1539  -14.7883 C   0  0  0  0  0  0  0  0  0  0  0  0
  -17.5685   59.5241  -15.0400 N   0  0  0  0  0  0  0  0  0  0  0  0
  -17.8661   57.3032   -9.6981 C   0  0  1  0  0  0  0  0  0  0  0  0
  -19.3513   59.3219  -13.5155 C   0  0  0  0  0  0  0  0  0  0  0  0
  -16.6118   56.8656  -10.1054 C   0  0  0  0  0  0  0  0  0  0  0  0
  -20.6650   58.9175  -13.3079 C   0  0  0  0  0  0  0  0  0  0  0  0
  -18.5636   59.9202  -12.3426 C   0  0  0  0  0  0  0  0  0  0  0  0
  1 13  1  0  0  0  0
  3  4  1  0  0  0  0
  4  5  1  0  0  0  0
  6  5  1  1  0  0  0
  6 10  1  0  0  0  0
  6 14  2  0  0  0  0
  6 18  1  0  0  0  0
  7 11  1  6  0  0  0
  7 15  1  0  0  0  0
  7 19  2  0  0  0  0
  7 18  1  0  0  0  0
  8 25  1  0  0  0  0
  8 12  1  0  0  0  0
  9 26  2  0  0  0  0
  9 13  1  0  0  0  0
 12 16  1  0  0  0  0
 13 17  2  0  0  0  0
 16 20  1  0  0  0  0
 16 27  1  0  0  0  0
 17 21  1  0  0  0  0
 20  2  1  1  0  0  0
 20 23  1  0  0  0  0
 21 22  1  0  0  0  0
 21 24  2  0  0  0  0
 23  3  1  1  0  0  0
 23 25  1  0  0  0  0
 24 27  1  0  0  0  0
 24 26  1  0  0  0  0
M  CHG  2  10  -1  15  -1
M  END
>  <CHROM.1>
-171.68481448,169.33283776,47.36069559,-169.46937424,-49.81585060,68.02344830
-91.79224963,85.84659286,-20.75846534,56.88555910,-10.52033056,0.98796938
-0.20822466,-1.15730921

>  <Name>
ligand

>  <RI>
0

>  <Rbt.Current_Directory>
/home/itssahil/PROJECTS/Mol_Feturizer/New_Systems/rnas/3D2V

>  <Rbt.Executable>
rbdock ($Id: //depot/dev/client3/rdock/2013.1/src/exe/rbdock.cxx#4 $)

>  <Rbt.Library>
libRbt.so (2013.1, Build901 2013/11/27)

>  <Rbt.Parameter_File>
/export/apps/rDock/src/rDock_2013.1_src/data/scripts/dock_solv.prm

>  <Rbt.Receptor>
prm/blind_docking_80.prm

>  <SCORE>
-7.37592

>  <SCORE.INTER>
-6.5965

>  <SCORE.INTER.CONST>
1

>  <SCORE.INTER.POLAR>
0

>  <SCORE.INTER.ROT>
8

>  <SCORE.INTER.SOLV>
21.0987

>  <SCORE.INTER.VDW>
-20.3639

>  <SCORE.INTER.norm>
-0.244315

>  <SCORE.INTRA>
-0.779415

>  <SCORE.INTRA.DIHEDRAL>
-1.24929

>  <SCORE.INTRA.DIHEDRAL.0>
7.82666

>  <SCORE.INTRA.POLAR>
0

>  <SCORE.INTRA.POLAR.0>
0

>  <SCORE.INTRA.REPUL>
0

>  <SCORE.INTRA.REPUL.0>
0

>  <SCORE.INTRA.SOLV>
-0.427454

>  <SCORE.INTRA.SOLV.lig_0>
-83.2758

>  <SCORE.INTRA.VDW>
0.0589541

>  <SCORE.INTRA.VDW.0>
-3.26816

>  <SCORE.INTRA.norm>
-0.0288672

>  <SCORE.RESTR>
0

>  <SCORE.RESTR.CAVITY>
0

>  <SCORE.RESTR.norm>
0

>  <SCORE.SYSTEM>
0

>  <SCORE.SYSTEM.CONST>
0

>  <SCORE.SYSTEM.DIHEDRAL>
0

>  <SCORE.SYSTEM.SOLV>
0

>  <SCORE.SYSTEM.norm>
0

>  <SCORE.heavy>
27

>  <SCORE.norm>
-0.273182

>  <RMSD>
23.439

$$$$
ligand
 OpenBabel11021811463D
libRbt.so/2013.1/901 2013/11/27
 27 28  0  0  0  0  0  0  0  0999 V2000
  -20.3039   56.8860  -17.5281 C   0  0  0  0  0  0  0  0  0  0  0  0
  -21.9049   59.6653   -9.7768 C   0  0  0  0  0  0  0  0  0  0  0  0
  -19.8711   58.7885   -7.7593 C   0  0  0  0  0  0  0  0  0  0  0  0
  -19.8940   57.3322   -7.2910 C   0  0  0  0  0  0  0  0  0  0  0  0
  -20.8383   56.5718   -8.0488 O   0  0  0  0  0  0  0  0  0  0  0  0
  -21.2048   55.0726   -7.6038 P   0  0  1  0  0  0  0  0  0  0  0  0
  -21.2774   54.2555  -10.3026 P   0  0  2  0  0  0  0  0  0  0  0  0
  -17.9260   58.5632  -11.0176 C   0  0  0  0  0  0  0  0  0  0  0  0
  -19.5766   58.4287  -15.7174 N   0  0  0  0  0  0  0  0  0  0  0  0
  -19.8943   54.2666   -7.1566 O   0  5  0  0  0  0  0  0  0  0  0  0
  -22.0062   53.4059  -11.2667 O   0  0  0  0  0  0  0  0  0  0  0  0
  -18.8529   58.9673  -11.9693 C   0  0  0  0  0  0  0  0  0  0  0  0
  -20.5392   57.6391  -16.2184 C   0  0  0  0  0  0  0  0  0  0  0  0
  -22.2330   55.0177   -6.3575 O   0  0  0  0  0  0  0  0  0  0  0  0
  -19.7548   53.7784  -10.1298 O   0  5  0  0  0  0  0  0  0  0  0  0
  -20.1400   59.3278  -11.5676 N   0  0  0  0  0  0  0  0  0  0  0  0
  -21.7104   57.5030  -15.5797 N   0  0  0  0  0  0  0  0  0  0  0  0
  -21.9140   54.2807   -8.8353 O   0  0  0  0  0  0  0  0  0  0  0  0
  -21.1922   55.7616  -10.8206 O   0  0  0  0  0  0  0  0  0  0  0  0
  -20.4868   59.2711  -10.2124 C   0  0  1  0  0  0  0  0  0  0  0  0
  -21.9348   58.1541  -14.4316 C   0  0  0  0  0  0  0  0  0  0  0  0
  -23.0989   58.0098  -13.8067 N   0  0  0  0  0  0  0  0  0  0  0  0
  -19.5554   58.8658   -9.2578 C   0  0  1  0  0  0  0  0  0  0  0  0
  -20.9533   58.9758  -13.8910 C   0  0  0  0  0  0  0  0  0  0  0  0
  -18.2776   58.5132   -9.6742 C   0  0  0  0  0  0  0  0  0  0  0  0
  -19.7550   59.0903  -14.5863 C   0  0  0  0  0  0  0  0  0  0  0  0
  -21.1310   59.7567  -12.5824 C   0  0  0  0  0  0  0  0  0  0  0  0
  1 13  1  0  0  0  0
  3  4  1  0  0  0  0
  4  5  1  0  0  0  0
  6  5  1  6  0  0  0
  6 10  1  0  0  0  0
  6 14  2  0  0  0  0
  6 18  1  0  0  0  0
  7 11  1  6  0  0  0
  7 15  1  0  0  0  0
  7 19  2  0  0  0  0
  7 18  1  0  0  0  0
  8 25  1  0  0  0  0
  8 12  1  0  0  0  0
  9 26  2  0  0  0  0
  9 13  1  0  0  0  0
 12 16  1  0  0  0  0
 13 17  2  0  0  0  0
 16 20  1  0  0  0  0
 16 27  1  0  0  0  0
 17 21  1  0  0  0  0
 20  2  1  1  0  0  0
 20 23  1  0  0  0  0
 21 22  1  0  0  0  0
 21 24  2  0  0  0  0
 23  3  1  1  0  0  0
 23 25  1  0  0  0  0
 24 27  1  0  0  0  0
 24 26  1  0  0  0  0
M  CHG  2  10  -1  15  -1
M  END
>  <CHROM.1>
-56.84145471,-170.89826722,-41.94309756,50.02632765,175.70547796,111.30682320
118.33458300,35.37541618,-20.70872250,56.90698229,-10.93235370,1.46134443
-1.25556445,-1.27796190

>  <Name>
ligand

>  <RI>
0

>  <Rbt.Current_Directory>
/home/itssahil/PROJECTS/Mol_Feturizer/New_Systems/rnas/3D2V

>  <Rbt.Executable>
rbdock ($Id: //depot/dev/client3/rdock/2013.1/src/exe/rbdock.cxx#4 $)

>  <Rbt.Library>
libRbt.so (2013.1, Build901 2013/11/27)

>  <Rbt.Parameter_File>
/export/apps/rDock/src/rDock_2013.1_src/data/scripts/dock_solv.prm

>  <Rbt.Receptor>
prm/blind_docking_80.prm

>  <SCORE>
-11.8027

>  <SCORE.INTER>
-11.598

>  <SCORE.INTER.CONST>
1

>  <SCORE.INTER.POLAR>
0

>  <SCORE.INTER.ROT>
8

>  <SCORE.INTER.SOLV>
16.5891

>  <SCORE.INTER.VDW>
-22.195

>  <SCORE.INTER.norm>
-0.429555

>  <SCORE.INTRA>
-0.204768

>  <SCORE.INTRA.DIHEDRAL>
-1.52678

>  <SCORE.INTRA.DIHEDRAL.0>
7.82666

>  <SCORE.INTRA.POLAR>
0

>  <SCORE.INTRA.POLAR.0>
0

>  <SCORE.INTRA.REPUL>
0

>  <SCORE.INTRA.REPUL.0>
0

>  <SCORE.INTRA.SOLV>
1.68006

>  <SCORE.INTRA.SOLV.lig_0>
-83.2758

>  <SCORE.INTRA.VDW>
-0.281408

>  <SCORE.INTRA.VDW.0>
-3.26816

>  <SCORE.INTRA.norm>
-0.00758401

>  <SCORE.RESTR>
0

>  <SCORE.RESTR.CAVITY>
0

>  <SCORE.RESTR.norm>
0

>  <SCORE.SYSTEM>
0

>  <SCORE.SYSTEM.CONST>
0

>  <SCORE.SYSTEM.DIHEDRAL>
0

>  <SCORE.SYSTEM.SOLV>
0

>  <SCORE.SYSTEM.norm>
0

>  <SCORE.heavy>
27

>  <SCORE.norm>
-0.437139

>  <RMSD>
23.481

$$$$
ligand
 OpenBabel11021811463D
libRbt.so/2013.1/901 2013/11/27
 27 28  0  0  0  0  0  0  0  0999 V2000
  -20.9135   55.5830   -3.2358 C   0  0  0  0  0  0  0  0  0  0  0  0
  -24.5965   58.4996  -10.4046 C   0  0  0  0  0  0  0  0  0  0  0  0
  -24.2234   56.6908  -12.7635 C   0  0  0  0  0  0  0  0  0  0  0  0
  -22.9340   57.1157  -13.4689 C   0  0  0  0  0  0  0  0  0  0  0  0
  -23.2020   57.5157  -14.8152 O   0  0  0  0  0  0  0  0  0  0  0  0
  -21.9969   57.9786  -15.7710 P   0  0  1  0  0  0  0  0  0  0  0  0
  -19.6488   59.5345  -15.6234 P   0  0  2  0  0  0  0  0  0  0  0  0
  -23.1839   54.4624   -9.8645 C   0  0  0  0  0  0  0  0  0  0  0  0
  -23.0341   55.8682   -4.5041 N   0  0  0  0  0  0  0  0  0  0  0  0
  -21.2548   56.7143  -16.4175 O   0  5  0  0  0  0  0  0  0  0  0  0
  -18.9257   58.6579  -16.5674 O   0  0  0  0  0  0  0  0  0  0  0  0
  -23.3504   55.2837   -8.7573 C   0  0  0  0  0  0  0  0  0  0  0  0
  -21.7121   56.0890   -4.4374 C   0  0  0  0  0  0  0  0  0  0  0  0
  -22.4869   58.9088  -16.9990 O   0  0  0  0  0  0  0  0  0  0  0  0
  -18.6924   60.0401  -14.4379 O   0  5  0  0  0  0  0  0  0  0  0  0
  -23.8113   56.5894   -8.9313 N   0  0  0  0  0  0  0  0  0  0  0  0
  -21.0813   56.7515   -5.4178 N   0  0  0  0  0  0  0  0  0  0  0  0
  -20.9132   58.8477  -14.9244 O   0  0  0  0  0  0  0  0  0  0  0  0
  -20.1569   60.8598  -16.3510 O   0  0  0  0  0  0  0  0  0  0  0  0
  -24.0934   57.0614  -10.2189 C   0  0  1  0  0  0  0  0  0  0  0  0
  -21.7635   57.2019   -6.4780 C   0  0  0  0  0  0  0  0  0  0  0  0
  -21.1270   57.8557   -7.4444 N   0  0  0  0  0  0  0  0  0  0  0  0
  -23.9264   56.2360  -11.3297 C   0  0  2  0  0  0  0  0  0  0  0  0
  -23.1327   56.9842   -6.5718 C   0  0  0  0  0  0  0  0  0  0  0  0
  -23.4695   54.9377  -11.1386 C   0  0  0  0  0  0  0  0  0  0  0  0
  -23.7475   56.2950   -5.5328 C   0  0  0  0  0  0  0  0  0  0  0  0
  -23.9869   57.4679   -7.7509 C   0  0  0  0  0  0  0  0  0  0  0  0
  1 13  1  0  0  0  0
  3  4  1  0  0  0  0
  4  5  1  0  0  0  0
  6  5  1  1  0  0  0
  6 10  1  0  0  0  0
  6 14  2  0  0  0  0
  6 18  1  0  0  0  0
  7 11  1  6  0  0  0
  7 15  1  0  0  0  0
  7 19  2  0  0  0  0
  7 18  1  0  0  0  0
  8 25  1  0  0  0  0
  8 12  1  0  0  0  0
  9 26  2  0  0  0  0
  9 13  1  0  0  0  0
 12 16  1  0  0  0  0
 13 17  2  0  0  0  0
 16 20  1  0  0  0  0
 16 27  1  0  0  0  0
 17 21  1  0  0  0  0
 20  2  1  1  0  0  0
 20 23  1  0  0  0  0
 21 22  1  0  0  0  0
 21 24  2  0  0  0  0
 23  3  1  6  0  0  0
 23 25  1  0  0  0  0
 24 27  1  0  0  0  0
 24 26  1  0  0  0  0
M  CHG  2  10  -1  15  -1
M  END
>  <CHROM.1>
178.85295933,-178.78984000,82.33063316,-175.73667419,-45.65069340,98.24667497
77.52686066,21.95876200,-22.06697692,57.48761916,-11.41685441,-1.76114820
-0.50967355,-1.41911657

>  <Name>
ligand

>  <RI>
0

>  <Rbt.Current_Directory>
/home/itssahil/PROJECTS/Mol_Feturizer/New_Systems/rnas/3D2V

>  <Rbt.Executable>
rbdock ($Id: //depot/dev/client3/rdock/2013.1/src/exe/rbdock.cxx#4 $)

>  <Rbt.Library>
libRbt.so (2013.1, Build901 2013/11/27)

>  <Rbt.Parameter_File>
/export/apps/rDock/src/rDock_2013.1_src/data/scripts/dock_solv.prm

>  <Rbt.Receptor>
prm/blind_docking_80.prm

>  <SCORE>
-8.17646

>  <SCORE.INTER>
-7.52928

>  <SCORE.INTER.CONST>
1

>  <SCORE.INTER.POLAR>
0

>  <SCORE.INTER.ROT>
8

>  <SCORE.INTER.SOLV>
15.141

>  <SCORE.INTER.VDW>
-18.9999

>  <SCORE.INTER.norm>
-0.278862

>  <SCORE.INTRA>
-0.647179

>  <SCORE.INTRA.DIHEDRAL>
-1.53673

>  <SCORE.INTRA.DIHEDRAL.0>
7.82666

>  <SCORE.INTRA.POLAR>
0

>  <SCORE.INTRA.POLAR.0>
0

>  <SCORE.INTRA.REPUL>
0

>  <SCORE.INTRA.REPUL.0>
0

>  <SCORE.INTRA.SOLV>
-0.289858

>  <SCORE.INTRA.SOLV.lig_0>
-83.2758

>  <SCORE.INTRA.VDW>
0.266117

>  <SCORE.INTRA.VDW.0>
-3.26816

>  <SCORE.INTRA.norm>
-0.0239696

>  <SCORE.RESTR>
0

>  <SCORE.RESTR.CAVITY>
0

>  <SCORE.RESTR.norm>
0

>  <SCORE.SYSTEM>
0

>  <SCORE.SYSTEM.CONST>
0

>  <SCORE.SYSTEM.DIHEDRAL>
0

>  <SCORE.SYSTEM.SOLV>
0

>  <SCORE.SYSTEM.norm>
0

>  <SCORE.heavy>
27

>  <SCORE.norm>
-0.302832

>  <RMSD>
23.502

$$$$
ligand
 OpenBabel11021811463D
libRbt.so/2013.1/901 2013/11/27
 27 28  0  0  0  0  0  0  0  0999 V2000
  -19.7764   58.8797  -17.1928 C   0  0  0  0  0  0  0  0  0  0  0  0
  -19.5550   58.6197   -9.5849 C   0  0  0  0  0  0  0  0  0  0  0  0
  -18.4844   56.1021   -8.3639 C   0  0  0  0  0  0  0  0  0  0  0  0
  -19.5880   55.1909   -8.9046 C   0  0  0  0  0  0  0  0  0  0  0  0
  -20.8309   55.8931   -8.9829 O   0  0  0  0  0  0  0  0  0  0  0  0
  -21.5702   56.3706   -7.6392 P   0  0  1  0  0  0  0  0  0  0  0  0
  -23.4529   58.4066   -7.1231 P   0  0  2  0  0  0  0  0  0  0  0  0
  -15.8888   56.8731  -11.0321 C   0  0  0  0  0  0  0  0  0  0  0  0
  -18.0362   59.2518  -15.4549 N   0  0  0  0  0  0  0  0  0  0  0  0
  -21.9449   55.1195   -6.7110 O   0  5  0  0  0  0  0  0  0  0  0  0
  -23.5687   58.1105   -5.6804 O   0  0  0  0  0  0  0  0  0  0  0  0
  -16.3668   58.0407  -11.6120 C   0  0  0  0  0  0  0  0  0  0  0  0
  -19.3403   59.1378  -15.7502 C   0  0  0  0  0  0  0  0  0  0  0  0
  -20.6653   57.3632   -6.7396 O   0  0  0  0  0  0  0  0  0  0  0  0
  -24.8621   58.8530   -7.7483 O   0  5  0  0  0  0  0  0  0  0  0  0
  -17.5516   58.6085  -11.1412 N   0  0  0  0  0  0  0  0  0  0  0  0
  -20.2691   59.2484  -14.7894 N   0  0  0  0  0  0  0  0  0  0  0  0
  -22.9333   57.1788   -8.0072 O   0  0  0  0  0  0  0  0  0  0  0  0
  -22.4697   59.6368   -7.3756 O   0  0  0  0  0  0  0  0  0  0  0  0
  -18.2506   57.9927  -10.0961 C   0  0  1  0  0  0  0  0  0  0  0  0
  -19.9066   59.4740  -13.5205 C   0  0  0  0  0  0  0  0  0  0  0  0
  -20.8362   59.5799  -12.5765 N   0  0  0  0  0  0  0  0  0  0  0  0
  -17.7696   56.8208   -9.5143 C   0  0  2  0  0  0  0  0  0  0  0  0
  -18.5627   59.5936  -13.1885 C   0  0  0  0  0  0  0  0  0  0  0  0
  -16.5870   56.2702   -9.9929 C   0  0  0  0  0  0  0  0  0  0  0  0
  -17.6330   59.4745  -14.2151 C   0  0  0  0  0  0  0  0  0  0  0  0
  -18.0643   59.8532  -11.7608 C   0  0  0  0  0  0  0  0  0  0  0  0
  1 13  1  0  0  0  0
  3  4  1  0  0  0  0
  4  5  1  0  0  0  0
  6  5  1  6  0  0  0
  6 10  1  0  0  0  0
  6 14  2  0  0  0  0
  6 18  1  0  0  0  0
  7 11  1  1  0  0  0
  7 15  1  0  0  0  0
  7 19  2  0  0  0  0
  7 18  1  0  0  0  0
  8 25  1  0  0  0  0
  8 12  1  0  0  0  0
  9 26  2  0  0  0  0
  9 13  1  0  0  0  0
 12 16  1  0  0  0  0
 13 17  2  0  0  0  0
 16 20  1  0  0  0  0
 16 27  1  0  0  0  0
 17 21  1  0  0  0  0
 20  2  1  1  0  0  0
 20 23  1  0  0  0  0
 21 22  1  0  0  0  0
 21 24  2  0  0  0  0
 23  3  1  6  0  0  0
 23 25  1  0  0  0  0
 24 27  1  0  0  0  0
 24 26  1  0  0  0  0
M  CHG  2  10  -1  15  -1
M  END
>  <CHROM.1>
-90.65244435,-66.89904236,-60.95259432,-145.64944144,-52.39742438,83.62933484
102.17520890,69.45973677,-20.20689451,57.92427186,-10.11899179,1.01457181
0.36408386,-1.13367684

>  <Name>
ligand

>  <RI>
0

>  <Rbt.Current_Directory>
/home/itssahil/PROJECTS/Mol_Feturizer/New_Systems/rnas/3D2V

>  <Rbt.Executable>
rbdock ($Id: //depot/dev/client3/rdock/2013.1/src/exe/rbdock.cxx#4 $)

>  <Rbt.Library>
libRbt.so (2013.1, Build901 2013/11/27)

>  <Rbt.Parameter_File>
/export/apps/rDock/src/rDock_2013.1_src/data/scripts/dock_solv.prm

>  <Rbt.Receptor>
prm/blind_docking_80.prm

>  <SCORE>
-12.0057

>  <SCORE.INTER>
-14.3477

>  <SCORE.INTER.CONST>
1

>  <SCORE.INTER.POLAR>
0

>  <SCORE.INTER.ROT>
8

>  <SCORE.INTER.SOLV>
15.6395

>  <SCORE.INTER.VDW>
-23.7117

>  <SCORE.INTER.norm>
-0.531398

>  <SCORE.INTRA>
2.33288

>  <SCORE.INTRA.DIHEDRAL>
2.02236

>  <SCORE.INTRA.DIHEDRAL.0>
7.82666

>  <SCORE.INTRA.POLAR>
0

>  <SCORE.INTRA.POLAR.0>
0

>  <SCORE.INTRA.REPUL>
0

>  <SCORE.INTRA.REPUL.0>
0

>  <SCORE.INTRA.SOLV>
3.5787

>  <SCORE.INTRA.SOLV.lig_0>
-83.2758

>  <SCORE.INTRA.VDW>
-0.46765

>  <SCORE.INTRA.VDW.0>
-3.26816

>  <SCORE.INTRA.norm>
0.0864031

>  <SCORE.RESTR>
0.00917786

>  <SCORE.RESTR.CAVITY>
0.00917786

>  <SCORE.RESTR.norm>
0.000339921

>  <SCORE.SYSTEM>
0

>  <SCORE.SYSTEM.CONST>
0

>  <SCORE.SYSTEM.DIHEDRAL>
0

>  <SCORE.SYSTEM.SOLV>
0

>  <SCORE.SYSTEM.norm>
0

>  <SCORE.heavy>
27

>  <SCORE.norm>
-0.444655

>  <RMSD>
23.517

$$$$
ligand
 OpenBabel11021811463D
libRbt.so/2013.1/901 2013/11/27
 27 28  0  0  0  0  0  0  0  0999 V2000
  -20.3438   56.8636  -17.5123 C   0  0  0  0  0  0  0  0  0  0  0  0
  -22.4481   59.2492   -9.8884 C   0  0  0  0  0  0  0  0  0  0  0  0
  -20.3478   58.6878   -7.8271 C   0  0  0  0  0  0  0  0  0  0  0  0
  -19.9869   57.2564   -7.4253 C   0  0  0  0  0  0  0  0  0  0  0  0
  -20.6840   56.3110   -8.2404 O   0  0  0  0  0  0  0  0  0  0  0  0
  -20.1012   54.8257   -8.4257 P   0  0  1  0  0  0  0  0  0  0  0  0
  -22.0607   54.2580  -10.3736 P   0  0  2  0  0  0  0  0  0  0  0  0
  -18.2824   59.1118  -10.9902 C   0  0  0  0  0  0  0  0  0  0  0  0
  -19.8418   58.5105  -15.7170 N   0  0  0  0  0  0  0  0  0  0  0  0
  -18.8214   54.8240   -9.3897 O   0  5  0  0  0  0  0  0  0  0  0  0
  -22.7149   53.1224  -11.0557 O   0  0  0  0  0  0  0  0  0  0  0  0
  -19.2394   59.3743  -11.9614 C   0  0  0  0  0  0  0  0  0  0  0  0
  -20.6945   57.6057  -16.2223 C   0  0  0  0  0  0  0  0  0  0  0  0
  -19.6351   54.1522   -7.0319 O   0  0  0  0  0  0  0  0  0  0  0  0
  -21.0271   55.0116  -11.3428 O   0  5  0  0  0  0  0  0  0  0  0  0
  -20.5878   59.4226  -11.6045 N   0  0  0  0  0  0  0  0  0  0  0  0
  -21.8560   57.3446  -15.6053 N   0  0  0  0  0  0  0  0  0  0  0  0
  -21.2395   53.8531   -9.0619 O   0  0  0  0  0  0  0  0  0  0  0  0
  -23.1305   55.3642   -9.9543 O   0  0  0  0  0  0  0  0  0  0  0  0
  -20.9634   59.1984  -10.2745 C   0  0  1  0  0  0  0  0  0  0  0  0
  -22.1805   57.9840  -14.4747 C   0  0  0  0  0  0  0  0  0  0  0  0
  -23.3337   57.7154  -13.8711 N   0  0  0  0  0  0  0  0  0  0  0  0
  -20.0018   58.9355   -9.3002 C   0  0  2  0  0  0  0  0  0  0  0  0
  -21.3137   58.9235  -13.9300 C   0  0  0  0  0  0  0  0  0  0  0  0
  -18.6636   58.8938   -9.6719 C   0  0  0  0  0  0  0  0  0  0  0  0
  -20.1214   59.1655  -14.6026 C   0  0  0  0  0  0  0  0  0  0  0  0
  -21.6104   59.7000  -12.6404 C   0  0  0  0  0  0  0  0  0  0  0  0
  1 13  1  0  0  0  0
  3  4  1  0  0  0  0
  4  5  1  0  0  0  0
  6  5  1  1  0  0  0
  6 10  1  0  0  0  0
  6 14  2  0  0  0  0
  6 18  1  0  0  0  0
  7 11  1  6  0  0  0
  7 15  1  0  0  0  0
  7 19  2  0  0  0  0
  7 18  1  0  0  0  0
  8 25  1  0  0  0  0
  8 12  1  0  0  0  0
  9 26  2  0  0  0  0
  9 13  1  0  0  0  0
 12 16  1  0  0  0  0
 13 17  2  0  0  0  0
 16 20  1  0  0  0  0
 16 27  1  0  0  0  0
 17 21  1  0  0  0  0
 20  2  1  1  0  0  0
 20 23  1  0  0  0  0
 21 22  1  0  0  0  0
 21 24  2  0  0  0  0
 23  3  1  6  0  0  0
 23 25  1  0  0  0  0
 24 27  1  0  0  0  0
 24 26  1  0  0  0  0
M  CHG  2  10  -1  15  -1
M  END
>  <CHROM.1>
-58.71728194,156.62932834,-73.75723597,50.44808159,161.20581307,114.99016058
119.20435430,42.60677811,-20.84957741,56.87146997,-11.15645702,1.72385949
-1.19624471,-0.99097436

>  <Name>
ligand

>  <RI>
0

>  <Rbt.Current_Directory>
/home/itssahil/PROJECTS/Mol_Feturizer/New_Systems/rnas/3D2V

>  <Rbt.Executable>
rbdock ($Id: //depot/dev/client3/rdock/2013.1/src/exe/rbdock.cxx#4 $)

>  <Rbt.Library>
libRbt.so (2013.1, Build901 2013/11/27)

>  <Rbt.Parameter_File>
/export/apps/rDock/src/rDock_2013.1_src/data/scripts/dock_solv.prm

>  <Rbt.Receptor>
prm/blind_docking_100.prm

>  <SCORE>
-11.03

>  <SCORE.INTER>
-11.4385

>  <SCORE.INTER.CONST>
1

>  <SCORE.INTER.POLAR>
0

>  <SCORE.INTER.ROT>
8

>  <SCORE.INTER.SOLV>
18.2976

>  <SCORE.INTER.VDW>
-22.6582

>  <SCORE.INTER.norm>
-0.423648

>  <SCORE.INTRA>
0.408517

>  <SCORE.INTRA.DIHEDRAL>
0.721064

>  <SCORE.INTRA.DIHEDRAL.0>
7.82666

>  <SCORE.INTRA.POLAR>
0

>  <SCORE.INTRA.POLAR.0>
0

>  <SCORE.INTRA.REPUL>
0

>  <SCORE.INTRA.REPUL.0>
0

>  <SCORE.INTRA.SOLV>
0.86737

>  <SCORE.INTRA.SOLV.lig_0>
-83.2758

>  <SCORE.INTRA.VDW>
-0.3857

>  <SCORE.INTRA.VDW.0>
-3.26816

>  <SCORE.INTRA.norm>
0.0151303

>  <SCORE.RESTR>
0

>  <SCORE.RESTR.CAVITY>
0

>  <SCORE.RESTR.norm>
0

>  <SCORE.SYSTEM>
0

>  <SCORE.SYSTEM.CONST>
0

>  <SCORE.SYSTEM.DIHEDRAL>
0

>  <SCORE.SYSTEM.SOLV>
0

>  <SCORE.SYSTEM.norm>
0

>  <SCORE.heavy>
27

>  <SCORE.norm>
-0.408518

>  <RMSD>
23.595

$$$$
ligand
 OpenBabel11021811463D
libRbt.so/2013.1/901 2013/11/27
 27 28  0  0  0  0  0  0  0  0999 V2000
  -19.0296   59.8582  -15.9750 C   0  0  0  0  0  0  0  0  0  0  0  0
  -20.7081   58.3353   -9.7188 C   0  0  0  0  0  0  0  0  0  0  0  0
  -19.1699   56.2646   -8.1951 C   0  0  0  0  0  0  0  0  0  0  0  0
  -19.6882   55.6343   -6.9010 C   0  0  0  0  0  0  0  0  0  0  0  0
  -21.0625   55.9677   -6.6908 O   0  0  0  0  0  0  0  0  0  0  0  0
  -21.8137   55.4774   -5.3584 P   0  0  1  0  0  0  0  0  0  0  0  0
  -24.1922   56.7570   -6.1720 P   0  0  2  0  0  0  0  0  0  0  0  0
  -20.9972   54.1687  -10.7872 C   0  0  0  0  0  0  0  0  0  0  0  0
  -19.4796   59.0530  -13.6649 N   0  0  0  0  0  0  0  0  0  0  0  0
  -21.3526   53.9992   -4.9467 O   0  5  0  0  0  0  0  0  0  0  0  0
  -25.6646   56.6713   -6.0865 O   0  0  0  0  0  0  0  0  0  0  0  0
  -21.7183   55.1120  -11.5072 C   0  0  0  0  0  0  0  0  0  0  0  0
  -19.9328   59.2247  -14.9164 C   0  0  0  0  0  0  0  0  0  0  0  0
  -21.5225   56.4279   -4.0836 O   0  0  0  0  0  0  0  0  0  0  0  0
  -23.6990   56.9327   -7.6891 O   0  5  0  0  0  0  0  0  0  0  0  0
  -21.6221   56.4613  -11.1640 N   0  0  0  0  0  0  0  0  0  0  0  0
  -21.1749   58.8449  -15.2497 N   0  0  0  0  0  0  0  0  0  0  0  0
  -23.4239   55.4800   -5.5904 O   0  0  0  0  0  0  0  0  0  0  0  0
  -23.6502   58.0428   -5.3996 O   0  0  0  0  0  0  0  0  0  0  0  0
  -20.8073   56.8503  -10.0940 C   0  0  1  0  0  0  0  0  0  0  0  0
  -21.9803   58.2882  -14.3366 C   0  0  0  0  0  0  0  0  0  0  0  0
  -23.2087   57.9140  -14.6793 N   0  0  0  0  0  0  0  0  0  0  0  0
  -20.0835   55.9026   -9.3722 C   0  0  1  0  0  0  0  0  0  0  0  0
  -21.5339   58.0975  -13.0346 C   0  0  0  0  0  0  0  0  0  0  0  0
  -20.1883   54.5637   -9.7288 C   0  0  0  0  0  0  0  0  0  0  0  0
  -20.2406   58.5072  -12.7311 C   0  0  0  0  0  0  0  0  0  0  0  0
  -22.3930   57.4688  -11.9298 C   0  0  0  0  0  0  0  0  0  0  0  0
  1 13  1  0  0  0  0
  3  4  1  0  0  0  0
  4  5  1  0  0  0  0
  6  5  1  6  0  0  0
  6 10  1  0  0  0  0
  6 14  2  0  0  0  0
  6 18  1  0  0  0  0
  7 11  1  1  0  0  0
  7 15  1  0  0  0  0
  7 19  2  0  0  0  0
  7 18  1  0  0  0  0
  8 25  1  0  0  0  0
  8 12  1  0  0  0  0
  9 26  2  0  0  0  0
  9 13  1  0  0  0  0
 12 16  1  0  0  0  0
 13 17  2  0  0  0  0
 16 20  1  0  0  0  0
 16 27  1  0  0  0  0
 17 21  1  0  0  0  0
 20  2  1  6  0  0  0
 20 23  1  0  0  0  0
 21 22  1  0  0  0  0
 21 24  2  0  0  0  0
 23  3  1  6  0  0  0
 23 25  1  0  0  0  0
 24 27  1  0  0  0  0
 24 26  1  0  0  0  0
M  CHG  2  10  -1  15  -1
M  END
>  <CHROM.1>
-52.87248217,-177.14126543,-38.26038194,-50.92082900,-169.45275990,116.56546712
134.58693665,-95.66119754,-21.68770958,56.82989965,-9.30362866,-1.34602941
-0.34516461,1.93048174

>  <Name>
ligand

>  <RI>
0

>  <Rbt.Current_Directory>
/home/itssahil/PROJECTS/Mol_Feturizer/New_Systems/rnas/3D2V

>  <Rbt.Executable>
rbdock ($Id: //depot/dev/client3/rdock/2013.1/src/exe/rbdock.cxx#4 $)

>  <Rbt.Library>
libRbt.so (2013.1, Build901 2013/11/27)

>  <Rbt.Parameter_File>
/export/apps/rDock/src/rDock_2013.1_src/data/scripts/dock_solv.prm

>  <Rbt.Receptor>
prm/blind_docking_100.prm

>  <SCORE>
-12.3312

>  <SCORE.INTER>
-11.4969

>  <SCORE.INTER.CONST>
1

>  <SCORE.INTER.POLAR>
0

>  <SCORE.INTER.ROT>
8

>  <SCORE.INTER.SOLV>
11.4424

>  <SCORE.INTER.VDW>
-20.4121

>  <SCORE.INTER.norm>
-0.425811

>  <SCORE.INTRA>
-0.877798

>  <SCORE.INTRA.DIHEDRAL>
-1.40388

>  <SCORE.INTRA.DIHEDRAL.0>
7.82666

>  <SCORE.INTRA.POLAR>
0

>  <SCORE.INTRA.POLAR.0>
0

>  <SCORE.INTRA.REPUL>
0

>  <SCORE.INTRA.REPUL.0>
0

>  <SCORE.INTRA.SOLV>
0.426378

>  <SCORE.INTRA.SOLV.lig_0>
-83.2758

>  <SCORE.INTRA.VDW>
-0.389045

>  <SCORE.INTRA.VDW.0>
-3.26816

>  <SCORE.INTRA.norm>
-0.0325111

>  <SCORE.RESTR>
0.0435274

>  <SCORE.RESTR.CAVITY>
0.0435274

>  <SCORE.RESTR.norm>
0.00161213

>  <SCORE.SYSTEM>
0

>  <SCORE.SYSTEM.CONST>
0

>  <SCORE.SYSTEM.DIHEDRAL>
0

>  <SCORE.SYSTEM.SOLV>
0

>  <SCORE.SYSTEM.norm>
0

>  <SCORE.heavy>
27

>  <SCORE.norm>
-0.45671

>  <RMSD>
23.708

$$$$
ligand
 OpenBabel11021811463D
libRbt.so/2013.1/901 2013/11/27
 27 28  0  0  0  0  0  0  0  0999 V2000
  -20.8047   53.7396   -4.8917 C   0  0  0  0  0  0  0  0  0  0  0  0
  -24.5044   58.2334   -9.5632 C   0  0  0  0  0  0  0  0  0  0  0  0
  -22.8966   60.2005  -11.1509 C   0  0  0  0  0  0  0  0  0  0  0  0
  -21.6023   59.7678  -11.8424 C   0  0  0  0  0  0  0  0  0  0  0  0
  -21.6382   60.0952  -13.2338 O   0  0  0  0  0  0  0  0  0  0  0  0
  -20.3118   59.9500  -14.1279 P   0  0  1  0  0  0  0  0  0  0  0  0
  -18.2247   60.7713  -12.4174 P   0  0  2  0  0  0  0  0  0  0  0  0
  -21.6838   60.8406   -7.6054 C   0  0  0  0  0  0  0  0  0  0  0  0
  -21.7857   56.0125   -4.6496 N   0  0  0  0  0  0  0  0  0  0  0  0
  -19.6860   58.4808  -13.9979 O   0  5  0  0  0  0  0  0  0  0  0  0
  -18.9210   60.4072  -11.1664 O   0  0  0  0  0  0  0  0  0  0  0  0
  -22.4183   59.9358   -6.8505 C   0  0  0  0  0  0  0  0  0  0  0  0
  -21.6847   54.8909   -5.3795 C   0  0  0  0  0  0  0  0  0  0  0  0
  -20.5807   60.2038  -15.7017 O   0  0  0  0  0  0  0  0  0  0  0  0
  -17.3430   62.1000  -12.2361 O   0  5  0  0  0  0  0  0  0  0  0  0
  -23.3287   59.0890   -7.4843 N   0  0  0  0  0  0  0  0  0  0  0  0
  -22.3504   54.7685   -6.5371 N   0  0  0  0  0  0  0  0  0  0  0  0
  -19.1981   61.0389  -13.6583 O   0  0  0  0  0  0  0  0  0  0  0  0
  -17.1921   59.6342  -12.8470 O   0  0  0  0  0  0  0  0  0  0  0  0
  -23.4990   59.1648   -8.8719 C   0  0  1  0  0  0  0  0  0  0  0  0
  -23.1260   55.7656   -6.9804 C   0  0  0  0  0  0  0  0  0  0  0  0
  -23.7824   55.6320   -8.1283 N   0  0  0  0  0  0  0  0  0  0  0  0
  -22.7608   60.0731   -9.6289 C   0  0  1  0  0  0  0  0  0  0  0  0
  -23.2491   56.9363   -6.2420 C   0  0  0  0  0  0  0  0  0  0  0  0
  -21.8565   60.9068   -8.9826 C   0  0  0  0  0  0  0  0  0  0  0  0
  -22.5405   57.0224   -5.0491 C   0  0  0  0  0  0  0  0  0  0  0  0
  -24.1152   58.1248   -6.6796 C   0  0  0  0  0  0  0  0  0  0  0  0
  1 13  1  0  0  0  0
  3  4  1  0  0  0  0
  4  5  1  0  0  0  0
  6  5  1  1  0  0  0
  6 10  1  0  0  0  0
  6 14  2  0  0  0  0
  6 18  1  0  0  0  0
  7 11  1  1  0  0  0
  7 15  1  0  0  0  0
  7 19  2  0  0  0  0
  7 18  1  0  0  0  0
  8 25  1  0  0  0  0
  8 12  1  0  0  0  0
  9 26  2  0  0  0  0
  9 13  1  0  0  0  0
 12 16  1  0  0  0  0
 13 17  2  0  0  0  0
 16 20  1  0  0  0  0
 16 27  1  0  0  0  0
 17 21  1  0  0  0  0
 20  2  1  6  0  0  0
 20 23  1  0  0  0  0
 21 22  1  0  0  0  0
 21 24  2  0  0  0  0
 23  3  1  6  0  0  0
 23 25  1  0  0  0  0
 24 27  1  0  0  0  0
 24 26  1  0  0  0  0
M  CHG  2  10  -1  15  -1
M  END
>  <CHROM.1>
-170.18270549,170.51526214,53.63177168,83.07825879,-53.47186035,-113.89913071
-91.07825316,-75.32624162,-21.21855405,58.85301123,-10.00523683,-1.95999514
0.21874924,-0.96919793

>  <Name>
ligand

>  <RI>
0

>  <Rbt.Current_Directory>
/home/itssahil/PROJECTS/Mol_Feturizer/New_Systems/rnas/3D2V

>  <Rbt.Executable>
rbdock ($Id: //depot/dev/client3/rdock/2013.1/src/exe/rbdock.cxx#4 $)

>  <Rbt.Library>
libRbt.so (2013.1, Build901 2013/11/27)

>  <Rbt.Parameter_File>
/export/apps/rDock/src/rDock_2013.1_src/data/scripts/dock_solv.prm

>  <Rbt.Receptor>
prm/blind_docking_100.prm

>  <SCORE>
-8.57183

>  <SCORE.INTER>
-8.39555

>  <SCORE.INTER.CONST>
1

>  <SCORE.INTER.POLAR>
0

>  <SCORE.INTER.ROT>
8

>  <SCORE.INTER.SOLV>
22.2062

>  <SCORE.INTER.VDW>
-21.9324

>  <SCORE.INTER.norm>
-0.310946

>  <SCORE.INTRA>
-0.184571

>  <SCORE.INTRA.DIHEDRAL>
-0.922004

>  <SCORE.INTRA.DIHEDRAL.0>
7.82666

>  <SCORE.INTRA.POLAR>
0

>  <SCORE.INTRA.POLAR.0>
0

>  <SCORE.INTRA.REPUL>
0

>  <SCORE.INTRA.REPUL.0>
0

>  <SCORE.INTRA.SOLV>
0.881683

>  <SCORE.INTRA.SOLV.lig_0>
-83.2758

>  <SCORE.INTRA.VDW>
-0.16441

>  <SCORE.INTRA.VDW.0>
-3.26816

>  <SCORE.INTRA.norm>
-0.00683595

>  <SCORE.RESTR>
0.00829769

>  <SCORE.RESTR.CAVITY>
0.00829769

>  <SCORE.RESTR.norm>
0.000307322

>  <SCORE.SYSTEM>
0

>  <SCORE.SYSTEM.CONST>
0

>  <SCORE.SYSTEM.DIHEDRAL>
0

>  <SCORE.SYSTEM.SOLV>
0

>  <SCORE.SYSTEM.norm>
0

>  <SCORE.heavy>
27

>  <SCORE.norm>
-0.317475

>  <RMSD>
23.730

$$$$
ligand
 OpenBabel11021811463D
libRbt.so/2013.1/901 2013/11/27
 27 28  0  0  0  0  0  0  0  0999 V2000
  -20.5681   57.2822  -18.0444 C   0  0  0  0  0  0  0  0  0  0  0  0
  -20.3626   60.1347  -10.9539 C   0  0  0  0  0  0  0  0  0  0  0  0
  -18.9770   58.4662   -8.8871 C   0  0  0  0  0  0  0  0  0  0  0  0
  -20.0600   57.3896   -8.9809 C   0  0  0  0  0  0  0  0  0  0  0  0
  -19.5534   56.2169   -9.6230 O   0  0  0  0  0  0  0  0  0  0  0  0
  -20.5157   54.9538   -9.8649 P   0  0  1  0  0  0  0  0  0  0  0  0
  -22.5304   56.2318  -11.3697 P   0  0  2  0  0  0  0  0  0  0  0  0
  -16.5128   58.3790  -11.7804 C   0  0  0  0  0  0  0  0  0  0  0  0
  -18.9102   58.5366  -16.6786 N   0  0  0  0  0  0  0  0  0  0  0  0
  -19.6716   53.5956   -9.9634 O   0  5  0  0  0  0  0  0  0  0  0  0
  -22.1725   57.5753  -10.8703 O   0  0  0  0  0  0  0  0  0  0  0  0
  -17.1372   59.1495  -12.7524 C   0  0  0  0  0  0  0  0  0  0  0  0
  -20.1834   58.1449  -16.8421 C   0  0  0  0  0  0  0  0  0  0  0  0
  -21.5948   54.7463   -8.6792 O   0  0  0  0  0  0  0  0  0  0  0  0
  -23.7951   55.6294  -10.5864 O   0  5  0  0  0  0  0  0  0  0  0  0
  -18.3817   59.7211  -12.4839 N   0  0  0  0  0  0  0  0  0  0  0  0
  -21.1258   58.5037  -15.9583 N   0  0  0  0  0  0  0  0  0  0  0  0
  -21.3599   55.1489  -11.2418 O   0  0  0  0  0  0  0  0  0  0  0  0
  -22.9711   56.2916  -12.9014 O   0  0  0  0  0  0  0  0  0  0  0  0
  -18.9922   59.5065  -11.2423 C   0  0  1  0  0  0  0  0  0  0  0  0
  -20.8081   59.2585  -14.8991 C   0  0  0  0  0  0  0  0  0  0  0  0
  -21.7505   59.6062  -14.0289 N   0  0  0  0  0  0  0  0  0  0  0  0
  -18.3644   58.7333  -10.2671 C   0  0  1  0  0  0  0  0  0  0  0  0
  -19.4966   59.6750  -14.7062 C   0  0  0  0  0  0  0  0  0  0  0  0
  -17.1242   58.1739  -10.5495 C   0  0  0  0  0  0  0  0  0  0  0  0
  -18.5516   59.2826  -15.6471 C   0  0  0  0  0  0  0  0  0  0  0  0
  -19.0503   60.5414  -13.5212 C   0  0  0  0  0  0  0  0  0  0  0  0
  1 13  1  0  0  0  0
  3  4  1  0  0  0  0
  4  5  1  0  0  0  0
  6  5  1  1  0  0  0
  6 10  1  0  0  0  0
  6 14  2  0  0  0  0
  6 18  1  0  0  0  0
  7 11  1  1  0  0  0
  7 15  1  0  0  0  0
  7 19  2  0  0  0  0
  7 18  1  0  0  0  0
  8 25  1  0  0  0  0
  8 12  1  0  0  0  0
  9 26  2  0  0  0  0
  9 13  1  0  0  0  0
 12 16  1  0  0  0  0
 13 17  2  0  0  0  0
 16 20  1  0  0  0  0
 16 27  1  0  0  0  0
 17 21  1  0  0  0  0
 20  2  1  1  0  0  0
 20 23  1  0  0  0  0
 21 22  1  0  0  0  0
 21 24  2  0  0  0  0
 23  3  1  1  0  0  0
 23 25  1  0  0  0  0
 24 27  1  0  0  0  0
 24 26  1  0  0  0  0
M  CHG  2  10  -1  15  -1
M  END
>  <CHROM.1>
53.02721459,-178.78504909,-154.55701591,-70.67670497,47.76045546,78.02821138
101.79044699,68.43425882,-20.26246148,57.50753186,-12.11503270,1.30671215
-0.66220218,-1.19754838

>  <Name>
ligand

>  <RI>
0

>  <Rbt.Current_Directory>
/home/itssahil/PROJECTS/Mol_Feturizer/New_Systems/rnas/3D2V

>  <Rbt.Executable>
rbdock ($Id: //depot/dev/client3/rdock/2013.1/src/exe/rbdock.cxx#4 $)

>  <Rbt.Library>
libRbt.so (2013.1, Build901 2013/11/27)

>  <Rbt.Parameter_File>
/export/apps/rDock/src/rDock_2013.1_src/data/scripts/dock_solv.prm

>  <Rbt.Receptor>
prm/blind_docking_80.prm

>  <SCORE>
-14.3154

>  <SCORE.INTER>
-13.5005

>  <SCORE.INTER.CONST>
1

>  <SCORE.INTER.POLAR>
0

>  <SCORE.INTER.ROT>
8

>  <SCORE.INTER.SOLV>
21.9059

>  <SCORE.INTER.VDW>
-25.2356

>  <SCORE.INTER.norm>
-0.500018

>  <SCORE.INTRA>
-0.8149

>  <SCORE.INTRA.DIHEDRAL>
-1.14825

>  <SCORE.INTRA.DIHEDRAL.0>
7.82666

>  <SCORE.INTRA.POLAR>
0

>  <SCORE.INTRA.POLAR.0>
0

>  <SCORE.INTRA.REPUL>
0

>  <SCORE.INTRA.REPUL.0>
0

>  <SCORE.INTRA.SOLV>
1.72096

>  <SCORE.INTRA.SOLV.lig_0>
-83.2758

>  <SCORE.INTRA.VDW>
-1.10125

>  <SCORE.INTRA.VDW.0>
-3.26816

>  <SCORE.INTRA.norm>
-0.0301815

>  <SCORE.RESTR>
0

>  <SCORE.RESTR.CAVITY>
0

>  <SCORE.RESTR.norm>
0

>  <SCORE.SYSTEM>
0

>  <SCORE.SYSTEM.CONST>
0

>  <SCORE.SYSTEM.DIHEDRAL>
0

>  <SCORE.SYSTEM.SOLV>
0

>  <SCORE.SYSTEM.norm>
0

>  <SCORE.heavy>
27

>  <SCORE.norm>
-0.5302

>  <RMSD>
23.760

$$$$
ligand
 OpenBabel11021811463D
libRbt.so/2013.1/901 2013/11/27
 27 28  0  0  0  0  0  0  0  0999 V2000
  -26.3909   55.7035   -5.4366 C   0  0  0  0  0  0  0  0  0  0  0  0
  -19.3105   57.7378   -9.2759 C   0  0  0  0  0  0  0  0  0  0  0  0
  -19.6272   59.8839  -11.3421 C   0  0  0  0  0  0  0  0  0  0  0  0
  -20.3508   59.5114  -12.6376 C   0  0  0  0  0  0  0  0  0  0  0  0
  -19.5400   59.8153  -13.7753 O   0  0  0  0  0  0  0  0  0  0  0  0
  -20.1188   59.5928  -15.2571 P   0  0  1  0  0  0  0  0  0  0  0  0
  -20.5623   57.4785  -17.0708 P   0  0  2  0  0  0  0  0  0  0  0  0
  -22.4995   60.6221   -8.9638 C   0  0  0  0  0  0  0  0  0  0  0  0
  -24.5833   57.4117   -5.4810 N   0  0  0  0  0  0  0  0  0  0  0  0
  -21.6420   60.0791  -15.3607 O   0  5  0  0  0  0  0  0  0  0  0  0
  -22.0147   57.6421  -17.2859 O   0  0  0  0  0  0  0  0  0  0  0  0
  -22.3705   59.6360   -7.9947 C   0  0  0  0  0  0  0  0  0  0  0  0
  -25.0140   56.2034   -5.8751 C   0  0  0  0  0  0  0  0  0  0  0  0
  -19.2933   60.4044  -16.3855 O   0  0  0  0  0  0  0  0  0  0  0  0
  -20.1231   55.9374  -17.1593 O   0  5  0  0  0  0  0  0  0  0  0  0
  -21.3361   58.7044   -8.0933 N   0  0  0  0  0  0  0  0  0  0  0  0
  -24.2463   55.4262   -6.6527 N   0  0  0  0  0  0  0  0  0  0  0  0
  -20.0415   58.0180  -15.6577 O   0  0  0  0  0  0  0  0  0  0  0  0
  -19.7299   58.2215  -18.2105 O   0  0  0  0  0  0  0  0  0  0  0  0
  -20.4441   58.7672   -9.1706 C   0  0  1  0  0  0  0  0  0  0  0  0
  -23.0380   55.8467   -7.0470 C   0  0  0  0  0  0  0  0  0  0  0  0
  -22.2868   55.0684   -7.8193 N   0  0  0  0  0  0  0  0  0  0  0  0
  -20.5741   59.7578  -10.1427 C   0  0  2  0  0  0  0  0  0  0  0  0
  -22.5701   57.0948   -6.6544 C   0  0  0  0  0  0  0  0  0  0  0  0
  -21.6078   60.6793  -10.0280 C   0  0  0  0  0  0  0  0  0  0  0  0
  -23.3968   57.8674   -5.8469 C   0  0  0  0  0  0  0  0  0  0  0  0
  -21.1988   57.6500   -7.0612 C   0  0  0  0  0  0  0  0  0  0  0  0
  1 13  1  0  0  0  0
  3  4  1  0  0  0  0
  4  5  1  0  0  0  0
  6  5  1  1  0  0  0
  6 10  1  0  0  0  0
  6 14  2  0  0  0  0
  6 18  1  0  0  0  0
  7 11  1  6  0  0  0
  7 15  1  0  0  0  0
  7 19  2  0  0  0  0
  7 18  1  0  0  0  0
  8 25  1  0  0  0  0
  8 12  1  0  0  0  0
  9 26  2  0  0  0  0
  9 13  1  0  0  0  0
 12 16  1  0  0  0  0
 13 17  2  0  0  0  0
 16 20  1  0  0  0  0
 16 27  1  0  0  0  0
 17 21  1  0  0  0  0
 20  2  1  1  0  0  0
 20 23  1  0  0  0  0
 21 22  1  0  0  0  0
 21 24  2  0  0  0  0
 23  3  1  6  0  0  0
 23 25  1  0  0  0  0
 24 27  1  0  0  0  0
 24 26  1  0  0  0  0
M  CHG  2  10  -1  15  -1
M  END
>  <CHROM.1>
171.40214882,-176.41410881,41.67239566,179.25438263,-64.30949641,110.15139123
105.88563966,40.44286349,-21.44875178,58.19885135,-11.53901408,2.13912399
0.96692093,1.23485263

>  <Name>
ligand

>  <RI>
0

>  <Rbt.Current_Directory>
/home/itssahil/PROJECTS/Mol_Feturizer/New_Systems/rnas/3D2V

>  <Rbt.Executable>
rbdock ($Id: //depot/dev/client3/rdock/2013.1/src/exe/rbdock.cxx#4 $)

>  <Rbt.Library>
libRbt.so (2013.1, Build901 2013/11/27)

>  <Rbt.Parameter_File>
/export/apps/rDock/src/rDock_2013.1_src/data/scripts/dock_solv.prm

>  <Rbt.Receptor>
prm/blind_docking_100.prm

>  <SCORE>
-11.9255

>  <SCORE.INTER>
-11.4361

>  <SCORE.INTER.CONST>
1

>  <SCORE.INTER.POLAR>
0

>  <SCORE.INTER.ROT>
8

>  <SCORE.INTER.SOLV>
16.5657

>  <SCORE.INTER.VDW>
-22.0793

>  <SCORE.INTER.norm>
-0.423561

>  <SCORE.INTRA>
-0.489349

>  <SCORE.INTRA.DIHEDRAL>
-1.73134

>  <SCORE.INTRA.DIHEDRAL.0>
7.82666

>  <SCORE.INTRA.POLAR>
0

>  <SCORE.INTRA.POLAR.0>
0

>  <SCORE.INTRA.REPUL>
0

>  <SCORE.INTRA.REPUL.0>
0

>  <SCORE.INTRA.SOLV>
-0.0125694

>  <SCORE.INTRA.SOLV.lig_0>
-83.2758

>  <SCORE.INTRA.VDW>
0.382607

>  <SCORE.INTRA.VDW.0>
-3.26816

>  <SCORE.INTRA.norm>
-0.018124

>  <SCORE.RESTR>
0

>  <SCORE.RESTR.CAVITY>
0

>  <SCORE.RESTR.norm>
0

>  <SCORE.SYSTEM>
0

>  <SCORE.SYSTEM.CONST>
0

>  <SCORE.SYSTEM.DIHEDRAL>
0

>  <SCORE.SYSTEM.SOLV>
0

>  <SCORE.SYSTEM.norm>
0

>  <SCORE.heavy>
27

>  <SCORE.norm>
-0.441685

>  <RMSD>
23.761

$$$$
ligand
 OpenBabel11021811463D
libRbt.so/2013.1/901 2013/11/27
 27 28  0  0  0  0  0  0  0  0999 V2000
  -16.3693   57.3998  -10.3055 C   0  0  0  0  0  0  0  0  0  0  0  0
  -23.2094   55.6483  -10.8011 C   0  0  0  0  0  0  0  0  0  0  0  0
  -25.0753   57.6353  -12.0444 C   0  0  0  0  0  0  0  0  0  0  0  0
  -24.4992   58.3717  -13.2553 C   0  0  0  0  0  0  0  0  0  0  0  0
  -23.3672   57.6739  -13.7805 O   0  0  0  0  0  0  0  0  0  0  0  0
  -22.6293   58.2172  -15.0996 P   0  0  1  0  0  0  0  0  0  0  0  0
  -20.9411   57.2314  -17.1331 P   0  0  2  0  0  0  0  0  0  0  0  0
  -23.6993   59.5679   -9.0741 C   0  0  0  0  0  0  0  0  0  0  0  0
  -18.7757   57.9873  -10.0792 N   0  0  0  0  0  0  0  0  0  0  0  0
  -23.6915   58.6493  -16.2186 O   0  5  0  0  0  0  0  0  0  0  0  0
  -21.8698   57.4415  -18.2627 O   0  0  0  0  0  0  0  0  0  0  0  0
  -22.8288   58.6625   -8.4820 C   0  0  0  0  0  0  0  0  0  0  0  0
  -17.7851   57.1271   -9.7967 C   0  0  0  0  0  0  0  0  0  0  0  0
  -21.7001   59.5094  -14.8161 O   0  0  0  0  0  0  0  0  0  0  0  0
  -20.0421   55.9190  -17.3453 O   0  5  0  0  0  0  0  0  0  0  0  0
  -22.6670   57.3949   -9.0430 N   0  0  0  0  0  0  0  0  0  0  0  0
  -18.0249   56.0261   -9.0699 N   0  0  0  0  0  0  0  0  0  0  0  0
  -21.6591   57.0645  -15.7133 O   0  0  0  0  0  0  0  0  0  0  0  0
  -19.9055   58.4386  -17.0142 O   0  0  0  0  0  0  0  0  0  0  0  0
  -23.3886   57.0451  -10.1907 C   0  0  1  0  0  0  0  0  0  0  0  0
  -19.2580   55.7704   -8.6154 C   0  0  0  0  0  0  0  0  0  0  0  0
  -19.4831   54.6769   -7.8944 N   0  0  0  0  0  0  0  0  0  0  0  0
  -24.2619   57.9549  -10.7845 C   0  0  1  0  0  0  0  0  0  0  0  0
  -20.3003   56.6467   -8.8923 C   0  0  0  0  0  0  0  0  0  0  0  0
  -24.4090   59.2138  -10.2150 C   0  0  0  0  0  0  0  0  0  0  0  0
  -20.0087   57.7747   -9.6507 C   0  0  0  0  0  0  0  0  0  0  0  0
  -21.7403   56.4267   -8.4107 C   0  0  0  0  0  0  0  0  0  0  0  0
  1 13  1  0  0  0  0
  3  4  1  0  0  0  0
  4  5  1  0  0  0  0
  6  5  1  1  0  0  0
  6 10  1  0  0  0  0
  6 14  2  0  0  0  0
  6 18  1  0  0  0  0
  7 11  1  6  0  0  0
  7 15  1  0  0  0  0
  7 19  2  0  0  0  0
  7 18  1  0  0  0  0
  8 25  1  0  0  0  0
  8 12  1  0  0  0  0
  9 26  2  0  0  0  0
  9 13  1  0  0  0  0
 12 16  1  0  0  0  0
 13 17  2  0  0  0  0
 16 20  1  0  0  0  0
 16 27  1  0  0  0  0
 17 21  1  0  0  0  0
 20  2  1  6  0  0  0
 20 23  1  0  0  0  0
 21 22  1  0  0  0  0
 21 24  2  0  0  0  0
 23  3  1  6  0  0  0
 23 25  1  0  0  0  0
 24 27  1  0  0  0  0
 24 26  1  0  0  0  0
M  CHG  2  10  -1  15  -1
M  END
>  <CHROM.1>
80.77500871,177.16742079,-44.07963537,171.59782927,-58.47564434,-106.60060999
-170.51621915,-84.83870713,-21.54912509,57.47832641,-12.51457791,-1.39881716
0.25793079,-1.50925713

>  <Name>
ligand

>  <RI>
0

>  <Rbt.Current_Directory>
/home/itssahil/PROJECTS/Mol_Feturizer/New_Systems/rnas/3D2V

>  <Rbt.Executable>
rbdock ($Id: //depot/dev/client3/rdock/2013.1/src/exe/rbdock.cxx#4 $)

>  <Rbt.Library>
libRbt.so (2013.1, Build901 2013/11/27)

>  <Rbt.Parameter_File>
/export/apps/rDock/src/rDock_2013.1_src/data/scripts/dock_solv.prm

>  <Rbt.Receptor>
prm/blind_docking_80.prm

>  <SCORE>
-5.06303

>  <SCORE.INTER>
-4.16655

>  <SCORE.INTER.CONST>
1

>  <SCORE.INTER.POLAR>
0

>  <SCORE.INTER.ROT>
8

>  <SCORE.INTER.SOLV>
18.116

>  <SCORE.INTER.VDW>
-17.7497

>  <SCORE.INTER.norm>
-0.154317

>  <SCORE.INTRA>
-0.896481

>  <SCORE.INTRA.DIHEDRAL>
-0.615808

>  <SCORE.INTRA.DIHEDRAL.0>
7.82666

>  <SCORE.INTRA.POLAR>
0

>  <SCORE.INTRA.POLAR.0>
0

>  <SCORE.INTRA.REPUL>
0

>  <SCORE.INTRA.REPUL.0>
0

>  <SCORE.INTRA.SOLV>
-0.753007

>  <SCORE.INTRA.SOLV.lig_0>
-83.2758

>  <SCORE.INTRA.VDW>
-0.212074

>  <SCORE.INTRA.VDW.0>
-3.26816

>  <SCORE.INTRA.norm>
-0.033203

>  <SCORE.RESTR>
0

>  <SCORE.RESTR.CAVITY>
0

>  <SCORE.RESTR.norm>
0

>  <SCORE.SYSTEM>
0

>  <SCORE.SYSTEM.CONST>
0

>  <SCORE.SYSTEM.DIHEDRAL>
0

>  <SCORE.SYSTEM.SOLV>
0

>  <SCORE.SYSTEM.norm>
0

>  <SCORE.heavy>
27

>  <SCORE.norm>
-0.18752

>  <RMSD>
23.774

$$$$
ligand
 OpenBabel11021811463D
libRbt.so/2013.1/901 2013/11/27
 27 28  0  0  0  0  0  0  0  0999 V2000
  -16.6906   58.0641  -10.2202 C   0  0  0  0  0  0  0  0  0  0  0  0
  -22.4926   55.0986   -8.9739 C   0  0  0  0  0  0  0  0  0  0  0  0
  -25.0591   56.2431  -10.0125 C   0  0  0  0  0  0  0  0  0  0  0  0
  -24.2902   56.3179  -11.3331 C   0  0  0  0  0  0  0  0  0  0  0  0
  -24.0766   57.6782  -11.7179 O   0  0  0  0  0  0  0  0  0  0  0  0
  -23.0191   58.0296  -12.8746 P   0  0  1  0  0  0  0  0  0  0  0  0
  -24.1082   57.8543  -15.4706 P   0  0  2  0  0  0  0  0  0  0  0  0
  -24.0865   58.7490   -7.3245 C   0  0  0  0  0  0  0  0  0  0  0  0
  -18.5890   58.5617   -8.6919 N   0  0  0  0  0  0  0  0  0  0  0  0
  -23.0424   59.5934  -13.2224 O   0  5  0  0  0  0  0  0  0  0  0  0
  -23.3189   58.8920  -16.1654 O   0  0  0  0  0  0  0  0  0  0  0  0
  -22.8950   58.2363   -6.8288 C   0  0  0  0  0  0  0  0  0  0  0  0
  -17.8562   57.6350   -9.3285 C   0  0  0  0  0  0  0  0  0  0  0  0
  -21.4968   57.6654  -12.4699 O   0  0  0  0  0  0  0  0  0  0  0  0
  -25.4932   58.4423  -14.9121 O   0  5  0  0  0  0  0  0  0  0  0  0
  -22.3768   57.0566   -7.3650 N   0  0  0  0  0  0  0  0  0  0  0  0
  -18.1366   56.3311   -9.1903 N   0  0  0  0  0  0  0  0  0  0  0  0
  -23.3631   57.1863  -14.2226 O   0  0  0  0  0  0  0  0  0  0  0  0
  -24.5196   56.6841  -16.4734 O   0  0  0  0  0  0  0  0  0  0  0  0
  -23.0655   56.3976   -8.3905 C   0  0  1  0  0  0  0  0  0  0  0  0
  -19.1531   55.9360   -8.4137 C   0  0  0  0  0  0  0  0  0  0  0  0
  -19.4202   54.6407   -8.2829 N   0  0  0  0  0  0  0  0  0  0  0  0
  -24.2612   56.9133   -8.8877 C   0  0  1  0  0  0  0  0  0  0  0  0
  -19.9255   56.8758   -7.7421 C   0  0  0  0  0  0  0  0  0  0  0  0
  -24.7619   58.0903   -8.3447 C   0  0  0  0  0  0  0  0  0  0  0  0
  -19.6020   58.2167   -7.9147 C   0  0  0  0  0  0  0  0  0  0  0  0
  -21.1068   56.5069   -6.8352 C   0  0  0  0  0  0  0  0  0  0  0  0
  1 13  1  0  0  0  0
  3  4  1  0  0  0  0
  4  5  1  0  0  0  0
  6  5  1  1  0  0  0
  6 10  1  0  0  0  0
  6 14  2  0  0  0  0
  6 18  1  0  0  0  0
  7 11  1  6  0  0  0
  7 15  1  0  0  0  0
  7 19  2  0  0  0  0
  7 18  1  0  0  0  0
  8 25  1  0  0  0  0
  8 12  1  0  0  0  0
  9 26  2  0  0  0  0
  9 13  1  0  0  0  0
 12 16  1  0  0  0  0
 13 17  2  0  0  0  0
 16 20  1  0  0  0  0
 16 27  1  0  0  0  0
 17 21  1  0  0  0  0
 20  2  1  6  0  0  0
 20 23  1  0  0  0  0
 21 22  1  0  0  0  0
 21 24  2  0  0  0  0
 23  3  1  6  0  0  0
 23 25  1  0  0  0  0
 24 27  1  0  0  0  0
 24 26  1  0  0  0  0
M  CHG  2  10  -1  15  -1
M  END
>  <CHROM.1>
-61.33990643,166.11617212,175.02442533,101.92041749,66.79963149,-67.79465387
-117.24115676,-99.37441140,-22.25944297,57.39448246,-10.96308550,-1.03889643
-0.02097798,-1.41890949

>  <Name>
ligand

>  <RI>
0

>  <Rbt.Current_Directory>
/home/itssahil/PROJECTS/Mol_Feturizer/New_Systems/rnas/3D2V

>  <Rbt.Executable>
rbdock ($Id: //depot/dev/client3/rdock/2013.1/src/exe/rbdock.cxx#4 $)

>  <Rbt.Library>
libRbt.so (2013.1, Build901 2013/11/27)

>  <Rbt.Parameter_File>
/export/apps/rDock/src/rDock_2013.1_src/data/scripts/dock_solv.prm

>  <Rbt.Receptor>
prm/blind_docking_80.prm

>  <SCORE>
-5.3197

>  <SCORE.INTER>
-5.59572

>  <SCORE.INTER.CONST>
1

>  <SCORE.INTER.POLAR>
0

>  <SCORE.INTER.ROT>
8

>  <SCORE.INTER.SOLV>
19.9406

>  <SCORE.INTER.VDW>
-19.3107

>  <SCORE.INTER.norm>
-0.207249

>  <SCORE.INTRA>
0.276012

>  <SCORE.INTRA.DIHEDRAL>
0.311982

>  <SCORE.INTRA.DIHEDRAL.0>
7.82666

>  <SCORE.INTRA.POLAR>
0

>  <SCORE.INTRA.POLAR.0>
0

>  <SCORE.INTRA.REPUL>
0

>  <SCORE.INTRA.REPUL.0>
0

>  <SCORE.INTRA.SOLV>
0.639447

>  <SCORE.INTRA.SOLV.lig_0>
-83.2758

>  <SCORE.INTRA.VDW>
-0.199703

>  <SCORE.INTRA.VDW.0>
-3.26816

>  <SCORE.INTRA.norm>
0.0102227

>  <SCORE.RESTR>
0

>  <SCORE.RESTR.CAVITY>
0

>  <SCORE.RESTR.norm>
0

>  <SCORE.SYSTEM>
0

>  <SCORE.SYSTEM.CONST>
0

>  <SCORE.SYSTEM.DIHEDRAL>
0

>  <SCORE.SYSTEM.SOLV>
0

>  <SCORE.SYSTEM.norm>
0

>  <SCORE.heavy>
27

>  <SCORE.norm>
-0.197026

>  <RMSD>
23.806

$$$$
ligand
 OpenBabel11021811463D
libRbt.so/2013.1/901 2013/11/27
 27 28  0  0  0  0  0  0  0  0999 V2000
  -21.2376   57.7363  -17.6529 C   0  0  0  0  0  0  0  0  0  0  0  0
  -20.4196   58.2191   -9.8196 C   0  0  0  0  0  0  0  0  0  0  0  0
  -19.2702   55.7922   -8.4914 C   0  0  0  0  0  0  0  0  0  0  0  0
  -19.9144   56.4241   -7.2560 C   0  0  0  0  0  0  0  0  0  0  0  0
  -21.0556   55.6703   -6.8390 O   0  0  0  0  0  0  0  0  0  0  0  0
  -21.8647   56.1007   -5.5199 P   0  0  1  0  0  0  0  0  0  0  0  0
  -24.0775   57.4667   -6.6124 P   0  0  2  0  0  0  0  0  0  0  0  0
  -21.5888   54.2689  -11.0905 C   0  0  0  0  0  0  0  0  0  0  0  0
  -22.5051   57.0347  -15.6309 N   0  0  0  0  0  0  0  0  0  0  0  0
  -22.8862   54.9517   -5.0688 O   0  5  0  0  0  0  0  0  0  0  0  0
  -24.5828   58.8122   -6.9543 O   0  0  0  0  0  0  0  0  0  0  0  0
  -22.1333   55.3802  -11.7202 C   0  0  0  0  0  0  0  0  0  0  0  0
  -21.5144   57.7765  -16.1497 C   0  0  0  0  0  0  0  0  0  0  0  0
  -20.9008   56.3896   -4.2545 O   0  0  0  0  0  0  0  0  0  0  0  0
  -25.1329   56.6494   -5.7214 O   0  5  0  0  0  0  0  0  0  0  0  0
  -21.7523   56.6591  -11.3116 N   0  0  0  0  0  0  0  0  0  0  0  0
  -20.7612   58.5561  -15.3603 N   0  0  0  0  0  0  0  0  0  0  0  0
  -22.7010   57.4682   -5.7974 O   0  0  0  0  0  0  0  0  0  0  0  0
  -23.8628   56.5876   -7.9259 O   0  0  0  0  0  0  0  0  0  0  0  0
  -20.8323   56.8101  -10.2672 C   0  0  1  0  0  0  0  0  0  0  0  0
  -20.9886   58.6048  -14.0419 C   0  0  0  0  0  0  0  0  0  0  0  0
  -20.2367   59.3826  -13.2698 N   0  0  0  0  0  0  0  0  0  0  0  0
  -20.2858   55.6939   -9.6359 C   0  0  1  0  0  0  0  0  0  0  0  0
  -22.0099   57.8480  -13.4805 C   0  0  0  0  0  0  0  0  0  0  0  0
  -20.6737   54.4277  -10.0569 C   0  0  0  0  0  0  0  0  0  0  0  0
  -22.7651   57.0521  -14.3342 C   0  0  0  0  0  0  0  0  0  0  0  0
  -22.3346   57.8460  -11.9810 C   0  0  0  0  0  0  0  0  0  0  0  0
  1 13  1  0  0  0  0
  3  4  1  0  0  0  0
  4  5  1  0  0  0  0
  6  5  1  6  0  0  0
  6 10  1  0  0  0  0
  6 14  2  0  0  0  0
  6 18  1  0  0  0  0
  7 11  1  6  0  0  0
  7 15  1  0  0  0  0
  7 19  2  0  0  0  0
  7 18  1  0  0  0  0
  8 25  1  0  0  0  0
  8 12  1  0  0  0  0
  9 26  2  0  0  0  0
  9 13  1  0  0  0  0
 12 16  1  0  0  0  0
 13 17  2  0  0  0  0
 16 20  1  0  0  0  0
 16 27  1  0  0  0  0
 17 21  1  0  0  0  0
 20  2  1  6  0  0  0
 20 23  1  0  0  0  0
 21 22  1  0  0  0  0
 21 24  2  0  0  0  0
 23  3  1  6  0  0  0
 23 25  1  0  0  0  0
 24 27  1  0  0  0  0
 24 26  1  0  0  0  0
M  CHG  2  10  -1  15  -1
M  END
>  <CHROM.1>
57.65282073,177.29653542,-167.57451664,77.89417507,-170.64045583,65.80225699
-99.74910764,-60.06094943,-21.93914013,56.88416276,-9.67201729,1.42744520
0.46385698,-1.37409076

>  <Name>
ligand

>  <RI>
0

>  <Rbt.Current_Directory>
/home/itssahil/PROJECTS/Mol_Feturizer/New_Systems/rnas/3D2V

>  <Rbt.Executable>
rbdock ($Id: //depot/dev/client3/rdock/2013.1/src/exe/rbdock.cxx#4 $)

>  <Rbt.Library>
libRbt.so (2013.1, Build901 2013/11/27)

>  <Rbt.Parameter_File>
/export/apps/rDock/src/rDock_2013.1_src/data/scripts/dock_solv.prm

>  <Rbt.Receptor>
prm/blind_docking_100.prm

>  <SCORE>
-13.5753

>  <SCORE.INTER>
-13.2686

>  <SCORE.INTER.CONST>
1

>  <SCORE.INTER.POLAR>
0

>  <SCORE.INTER.ROT>
8

>  <SCORE.INTER.SOLV>
12.5832

>  <SCORE.INTER.VDW>
-21.9735

>  <SCORE.INTER.norm>
-0.491429

>  <SCORE.INTRA>
-0.30673

>  <SCORE.INTRA.DIHEDRAL>
-1.71725

>  <SCORE.INTRA.DIHEDRAL.0>
7.82666

>  <SCORE.INTRA.POLAR>
0

>  <SCORE.INTRA.POLAR.0>
0

>  <SCORE.INTRA.REPUL>
0

>  <SCORE.INTRA.REPUL.0>
0

>  <SCORE.INTRA.SOLV>
2.34625

>  <SCORE.INTRA.SOLV.lig_0>
-83.2758

>  <SCORE.INTRA.VDW>
-0.621234

>  <SCORE.INTRA.VDW.0>
-3.26816

>  <SCORE.INTRA.norm>
-0.0113604

>  <SCORE.RESTR>
0

>  <SCORE.RESTR.CAVITY>
0

>  <SCORE.RESTR.norm>
0

>  <SCORE.SYSTEM>
0

>  <SCORE.SYSTEM.CONST>
0

>  <SCORE.SYSTEM.DIHEDRAL>
0

>  <SCORE.SYSTEM.SOLV>
0

>  <SCORE.SYSTEM.norm>
0

>  <SCORE.heavy>
27

>  <SCORE.norm>
-0.502789

>  <RMSD>
23.850

$$$$
ligand
 OpenBabel11021811463D
libRbt.so/2013.1/901 2013/11/27
 27 28  0  0  0  0  0  0  0  0999 V2000
  -21.5376   55.6673   -3.1441 C   0  0  0  0  0  0  0  0  0  0  0  0
  -23.6525   59.2972  -10.5665 C   0  0  0  0  0  0  0  0  0  0  0  0
  -24.5240   57.3200  -12.6416 C   0  0  0  0  0  0  0  0  0  0  0  0
  -23.6842   57.0541  -13.8925 C   0  0  0  0  0  0  0  0  0  0  0  0
  -22.3273   57.4542  -13.6854 O   0  0  0  0  0  0  0  0  0  0  0  0
  -21.7025   58.6547  -14.5505 P   0  0  1  0  0  0  0  0  0  0  0  0
  -22.1971   57.8423  -17.2060 P   0  0  2  0  0  0  0  0  0  0  0  0
  -22.7805   55.1017  -10.0940 C   0  0  0  0  0  0  0  0  0  0  0  0
  -20.7843   56.2883   -5.4319 N   0  0  0  0  0  0  0  0  0  0  0  0
  -22.7834   59.8113  -14.7976 O   0  5  0  0  0  0  0  0  0  0  0  0
  -21.5571   57.3004  -18.4222 O   0  0  0  0  0  0  0  0  0  0  0  0
  -22.3679   56.0010   -9.1197 C   0  0  0  0  0  0  0  0  0  0  0  0
  -21.7318   56.3749   -4.4855 C   0  0  0  0  0  0  0  0  0  0  0  0
  -20.4302   59.3514  -13.8366 O   0  0  0  0  0  0  0  0  0  0  0  0
  -22.9248   59.2429  -17.4969 O   0  5  0  0  0  0  0  0  0  0  0  0
  -22.6533   57.3587   -9.2705 N   0  0  0  0  0  0  0  0  0  0  0  0
  -22.8521   57.0785   -4.7048 N   0  0  0  0  0  0  0  0  0  0  0  0
  -21.1891   58.0988  -15.9906 O   0  0  0  0  0  0  0  0  0  0  0  0
  -23.3477   56.8683  -16.6849 O   0  0  0  0  0  0  0  0  0  0  0  0
  -23.3446   57.8023  -10.4043 C   0  0  1  0  0  0  0  0  0  0  0  0
  -23.0400   57.7052   -5.8728 C   0  0  0  0  0  0  0  0  0  0  0  0
  -24.1535   58.4011   -6.0778 N   0  0  0  0  0  0  0  0  0  0  0  0
  -23.7588   56.8987  -11.3815 C   0  0  1  0  0  0  0  0  0  0  0  0
  -22.0729   57.6328   -6.8680 C   0  0  0  0  0  0  0  0  0  0  0  0
  -23.4692   55.5500  -11.2146 C   0  0  0  0  0  0  0  0  0  0  0  0
  -20.9279   56.8914   -6.6002 C   0  0  0  0  0  0  0  0  0  0  0  0
  -22.2112   58.3199   -8.2328 C   0  0  0  0  0  0  0  0  0  0  0  0
  1 13  1  0  0  0  0
  3  4  1  0  0  0  0
  4  5  1  0  0  0  0
  6  5  1  1  0  0  0
  6 10  1  0  0  0  0
  6 14  2  0  0  0  0
  6 18  1  0  0  0  0
  7 11  1  6  0  0  0
  7 15  1  0  0  0  0
  7 19  2  0  0  0  0
  7 18  1  0  0  0  0
  8 25  1  0  0  0  0
  8 12  1  0  0  0  0
  9 26  2  0  0  0  0
  9 13  1  0  0  0  0
 12 16  1  0  0  0  0
 13 17  2  0  0  0  0
 16 20  1  0  0  0  0
 16 27  1  0  0  0  0
 17 21  1  0  0  0  0
 20  2  1  1  0  0  0
 20 23  1  0  0  0  0
 21 22  1  0  0  0  0
 21 24  2  0  0  0  0
 23  3  1  1  0  0  0
 23 25  1  0  0  0  0
 24 27  1  0  0  0  0
 24 26  1  0  0  0  0
M  CHG  2  10  -1  15  -1
M  END
>  <CHROM.1>
-43.08927911,-115.36664209,37.50072670,80.05662816,-178.32287707,114.98440881
-99.58273325,-26.19642236,-22.45324680,57.58719218,-11.51159834,1.56597815
1.21253376,1.69176716

>  <Name>
ligand

>  <RI>
0

>  <Rbt.Current_Directory>
/home/itssahil/PROJECTS/Mol_Feturizer/New_Systems/rnas/3D2V

>  <Rbt.Executable>
rbdock ($Id: //depot/dev/client3/rdock/2013.1/src/exe/rbdock.cxx#4 $)

>  <Rbt.Library>
libRbt.so (2013.1, Build901 2013/11/27)

>  <Rbt.Parameter_File>
/export/apps/rDock/src/rDock_2013.1_src/data/scripts/dock_solv.prm

>  <Rbt.Receptor>
prm/blind_docking_80.prm

>  <SCORE>
-1.2665

>  <SCORE.INTER>
-6.38331

>  <SCORE.INTER.CONST>
1

>  <SCORE.INTER.POLAR>
0

>  <SCORE.INTER.ROT>
8

>  <SCORE.INTER.SOLV>
21.5849

>  <SCORE.INTER.VDW>
-20.3838

>  <SCORE.INTER.norm>
-0.236419

>  <SCORE.INTRA>
5.11681

>  <SCORE.INTRA.DIHEDRAL>
6.8159

>  <SCORE.INTRA.DIHEDRAL.0>
7.82666

>  <SCORE.INTRA.POLAR>
0

>  <SCORE.INTRA.POLAR.0>
0

>  <SCORE.INTRA.REPUL>
0

>  <SCORE.INTRA.REPUL.0>
0

>  <SCORE.INTRA.SOLV>
3.10627

>  <SCORE.INTRA.SOLV.lig_0>
-83.2758

>  <SCORE.INTRA.VDW>
0.15572

>  <SCORE.INTRA.VDW.0>
-3.26816

>  <SCORE.INTRA.norm>
0.189511

>  <SCORE.RESTR>
0

>  <SCORE.RESTR.CAVITY>
0

>  <SCORE.RESTR.norm>
0

>  <SCORE.SYSTEM>
0

>  <SCORE.SYSTEM.CONST>
0

>  <SCORE.SYSTEM.DIHEDRAL>
0

>  <SCORE.SYSTEM.SOLV>
0

>  <SCORE.SYSTEM.norm>
0

>  <SCORE.heavy>
27

>  <SCORE.norm>
-0.0469073

>  <RMSD>
23.900

$$$$
ligand
 OpenBabel11021811463D
libRbt.so/2013.1/901 2013/11/27
 27 28  0  0  0  0  0  0  0  0999 V2000
  -20.2092   56.7914  -19.0001 C   0  0  0  0  0  0  0  0  0  0  0  0
  -21.0354   59.5396  -11.6125 C   0  0  0  0  0  0  0  0  0  0  0  0
  -18.9764   58.5646   -9.6669 C   0  0  0  0  0  0  0  0  0  0  0  0
  -19.2390   57.0629   -9.5383 C   0  0  0  0  0  0  0  0  0  0  0  0
  -20.4238   56.6937  -10.2484 O   0  0  0  0  0  0  0  0  0  0  0  0
  -20.8985   55.1595  -10.2768 P   0  0  1  0  0  0  0  0  0  0  0  0
  -21.5286   55.0941   -7.5281 P   0  0  2  0  0  0  0  0  0  0  0  0
  -16.9192   59.1036  -12.8179 C   0  0  0  0  0  0  0  0  0  0  0  0
  -20.5180   57.2068  -16.5671 N   0  0  0  0  0  0  0  0  0  0  0  0
  -21.6161   54.8030  -11.6642 O   0  5  0  0  0  0  0  0  0  0  0  0
  -22.5232   54.5976   -6.5551 O   0  0  0  0  0  0  0  0  0  0  0  0
  -17.8572   59.5578  -13.7355 C   0  0  0  0  0  0  0  0  0  0  0  0
  -20.1991   57.7029  -17.7726 C   0  0  0  0  0  0  0  0  0  0  0  0
  -19.6750   54.1169  -10.1041 O   0  0  0  0  0  0  0  0  0  0  0  0
  -21.2649   56.6673   -7.3509 O   0  5  0  0  0  0  0  0  0  0  0  0
  -19.1891   59.7027  -13.3447 N   0  0  0  0  0  0  0  0  0  0  0  0
  -19.8703   58.9953  -17.9126 N   0  0  0  0  0  0  0  0  0  0  0  0
  -21.9379   54.8725   -9.0586 O   0  0  0  0  0  0  0  0  0  0  0  0
  -20.1112   54.3995   -7.2993 O   0  0  0  0  0  0  0  0  0  0  0  0
  -19.5685   59.3818  -12.0357 C   0  0  1  0  0  0  0  0  0  0  0  0
  -19.8562   59.8091  -16.8496 C   0  0  0  0  0  0  0  0  0  0  0  0
  -19.5305   61.0887  -17.0011 N   0  0  0  0  0  0  0  0  0  0  0  0
  -18.6260   58.9264  -11.1152 C   0  0  1  0  0  0  0  0  0  0  0  0
  -20.1847   59.3202  -15.5911 C   0  0  0  0  0  0  0  0  0  0  0  0
  -17.3037   58.7906  -11.5198 C   0  0  0  0  0  0  0  0  0  0  0  0
  -20.5174   57.9742  -15.4900 C   0  0  0  0  0  0  0  0  0  0  0  0
  -20.1917   60.1848  -14.3236 C   0  0  0  0  0  0  0  0  0  0  0  0
  1 13  1  0  0  0  0
  3  4  1  0  0  0  0
  4  5  1  0  0  0  0
  6  5  1  1  0  0  0
  6 10  1  0  0  0  0
  6 14  2  0  0  0  0
  6 18  1  0  0  0  0
  7 11  1  1  0  0  0
  7 15  1  0  0  0  0
  7 19  2  0  0  0  0
  7 18  1  0  0  0  0
  8 25  1  0  0  0  0
  8 12  1  0  0  0  0
  9 26  2  0  0  0  0
  9 13  1  0  0  0  0
 12 16  1  0  0  0  0
 13 17  2  0  0  0  0
 16 20  1  0  0  0  0
 16 27  1  0  0  0  0
 17 21  1  0  0  0  0
 20  2  1  1  0  0  0
 20 23  1  0  0  0  0
 21 22  1  0  0  0  0
 21 24  2  0  0  0  0
 23  3  1  1  0  0  0
 23 25  1  0  0  0  0
 24 27  1  0  0  0  0
 24 26  1  0  0  0  0
M  CHG  2  10  -1  15  -1
M  END
>  <CHROM.1>
-66.96425406,179.21827437,-147.13920050,-59.32324187,-171.45715605,95.03171072
-117.10994090,54.42874670,-20.17593365,57.28735057,-11.97165354,1.27173402
-1.03987258,-1.40450042

>  <Name>
ligand

>  <RI>
0

>  <Rbt.Current_Directory>
/home/itssahil/PROJECTS/Mol_Feturizer/New_Systems/rnas/3D2V

>  <Rbt.Executable>
rbdock ($Id: //depot/dev/client3/rdock/2013.1/src/exe/rbdock.cxx#4 $)

>  <Rbt.Library>
libRbt.so (2013.1, Build901 2013/11/27)

>  <Rbt.Parameter_File>
/export/apps/rDock/src/rDock_2013.1_src/data/scripts/dock_solv.prm

>  <Rbt.Receptor>
prm/blind_docking_100.prm

>  <SCORE>
-11.0314

>  <SCORE.INTER>
-10.7224

>  <SCORE.INTER.CONST>
1

>  <SCORE.INTER.POLAR>
0

>  <SCORE.INTER.ROT>
8

>  <SCORE.INTER.SOLV>
19.898

>  <SCORE.INTER.VDW>
-22.7143

>  <SCORE.INTER.norm>
-0.397126

>  <SCORE.INTRA>
-0.309009

>  <SCORE.INTRA.DIHEDRAL>
-0.974109

>  <SCORE.INTRA.DIHEDRAL.0>
7.82666

>  <SCORE.INTRA.POLAR>
0

>  <SCORE.INTRA.POLAR.0>
0

>  <SCORE.INTRA.REPUL>
0

>  <SCORE.INTRA.REPUL.0>
0

>  <SCORE.INTRA.SOLV>
1.94592

>  <SCORE.INTRA.SOLV.lig_0>
-83.2758

>  <SCORE.INTRA.VDW>
-0.794915

>  <SCORE.INTRA.VDW.0>
-3.26816

>  <SCORE.INTRA.norm>
-0.0114448

>  <SCORE.RESTR>
0

>  <SCORE.RESTR.CAVITY>
0

>  <SCORE.RESTR.norm>
0

>  <SCORE.SYSTEM>
0

>  <SCORE.SYSTEM.CONST>
0

>  <SCORE.SYSTEM.DIHEDRAL>
0

>  <SCORE.SYSTEM.SOLV>
0

>  <SCORE.SYSTEM.norm>
0

>  <SCORE.heavy>
27

>  <SCORE.norm>
-0.408571

>  <RMSD>
23.928

$$$$
ligand
 OpenBabel11021811463D
libRbt.so/2013.1/901 2013/11/27
 27 28  0  0  0  0  0  0  0  0999 V2000
  -18.3782   59.9215  -12.3337 C   0  0  0  0  0  0  0  0  0  0  0  0
  -24.6619   58.3885  -10.5212 C   0  0  0  0  0  0  0  0  0  0  0  0
  -25.1795   57.2306   -7.8070 C   0  0  0  0  0  0  0  0  0  0  0  0
  -24.3154   58.3760   -7.2761 C   0  0  0  0  0  0  0  0  0  0  0  0
  -23.8844   58.1072   -5.9396 O   0  0  0  0  0  0  0  0  0  0  0  0
  -22.9842   56.8134   -5.6304 P   0  0  1  0  0  0  0  0  0  0  0  0
  -20.8222   55.4151   -6.7824 P   0  0  2  0  0  0  0  0  0  0  0  0
  -23.3010   54.4170   -9.5408 C   0  0  0  0  0  0  0  0  0  0  0  0
  -19.9996   58.3128  -11.3487 N   0  0  0  0  0  0  0  0  0  0  0  0
  -22.3401   56.8950   -4.1656 O   0  5  0  0  0  0  0  0  0  0  0  0
  -21.5168   54.1390   -7.0497 O   0  0  0  0  0  0  0  0  0  0  0  0
  -23.0498   54.9346  -10.8046 C   0  0  0  0  0  0  0  0  0  0  0  0
  -19.6638   59.0954  -12.3858 C   0  0  0  0  0  0  0  0  0  0  0  0
  -23.8216   55.4320   -5.6944 O   0  0  0  0  0  0  0  0  0  0  0  0
  -20.0355   55.3765   -5.3840 O   0  5  0  0  0  0  0  0  0  0  0  0
  -23.4869   56.2217  -11.1211 N   0  0  0  0  0  0  0  0  0  0  0  0
  -20.4472   59.1609  -13.4721 N   0  0  0  0  0  0  0  0  0  0  0  0
  -21.7869   56.6899   -6.7248 O   0  0  0  0  0  0  0  0  0  0  0  0
  -19.7074   55.6997   -7.8869 O   0  0  0  0  0  0  0  0  0  0  0  0
  -24.1804   56.9750  -10.1663 C   0  0  1  0  0  0  0  0  0  0  0  0
  -21.5765   58.4448  -13.5363 C   0  0  0  0  0  0  0  0  0  0  0  0
  -22.3439   58.5165  -14.6190 N   0  0  0  0  0  0  0  0  0  0  0  0
  -24.4316   56.4546   -8.8977 C   0  0  1  0  0  0  0  0  0  0  0  0
  -21.9452   57.6251  -12.4766 C   0  0  0  0  0  0  0  0  0  0  0  0
  -23.9870   55.1728   -8.5979 C   0  0  0  0  0  0  0  0  0  0  0  0
  -21.1058   57.5882  -11.3691 C   0  0  0  0  0  0  0  0  0  0  0  0
  -23.2219   56.7743  -12.4703 C   0  0  0  0  0  0  0  0  0  0  0  0
  1 13  1  0  0  0  0
  3  4  1  0  0  0  0
  4  5  1  0  0  0  0
  6  5  1  6  0  0  0
  6 10  1  0  0  0  0
  6 14  2  0  0  0  0
  6 18  1  0  0  0  0
  7 11  1  6  0  0  0
  7 15  1  0  0  0  0
  7 19  2  0  0  0  0
  7 18  1  0  0  0  0
  8 25  1  0  0  0  0
  8 12  1  0  0  0  0
  9 26  2  0  0  0  0
  9 13  1  0  0  0  0
 12 16  1  0  0  0  0
 13 17  2  0  0  0  0
 16 20  1  0  0  0  0
 16 27  1  0  0  0  0
 17 21  1  0  0  0  0
 20  2  1  1  0  0  0
 20 23  1  0  0  0  0
 21 22  1  0  0  0  0
 21 24  2  0  0  0  0
 23  3  1  1  0  0  0
 23 25  1  0  0  0  0
 24 27  1  0  0  0  0
 24 26  1  0  0  0  0
M  CHG  2  10  -1  15  -1
M  END
>  <CHROM.1>
-109.94260555,60.65536667,166.67109841,-172.97275200,60.91098993,-70.89328007
-168.75106237,-95.23341620,-22.23913655,56.88833057,-8.97722991,-1.40239737
0.06152901,1.87397042

>  <Name>
ligand

>  <RI>
0

>  <Rbt.Current_Directory>
/home/itssahil/PROJECTS/Mol_Feturizer/New_Systems/rnas/3D2V

>  <Rbt.Executable>
rbdock ($Id: //depot/dev/client3/rdock/2013.1/src/exe/rbdock.cxx#4 $)

>  <Rbt.Library>
libRbt.so (2013.1, Build901 2013/11/27)

>  <Rbt.Parameter_File>
/export/apps/rDock/src/rDock_2013.1_src/data/scripts/dock_solv.prm

>  <Rbt.Receptor>
prm/blind_docking_100.prm

>  <SCORE>
-9.07473

>  <SCORE.INTER>
-9.70798

>  <SCORE.INTER.CONST>
1

>  <SCORE.INTER.POLAR>
0

>  <SCORE.INTER.ROT>
8

>  <SCORE.INTER.SOLV>
10.2814

>  <SCORE.INTER.VDW>
-18.8324

>  <SCORE.INTER.norm>
-0.359555

>  <SCORE.INTRA>
0.633243

>  <SCORE.INTRA.DIHEDRAL>
2.90497

>  <SCORE.INTRA.DIHEDRAL.0>
7.82666

>  <SCORE.INTRA.POLAR>
0

>  <SCORE.INTRA.POLAR.0>
0

>  <SCORE.INTRA.REPUL>
0

>  <SCORE.INTRA.REPUL.0>
0

>  <SCORE.INTRA.SOLV>
1.37932

>  <SCORE.INTRA.SOLV.lig_0>
-83.2758

>  <SCORE.INTRA.VDW>
-1.5089

>  <SCORE.INTRA.VDW.0>
-3.26816

>  <SCORE.INTRA.norm>
0.0234534

>  <SCORE.RESTR>
0

>  <SCORE.RESTR.CAVITY>
0

>  <SCORE.RESTR.norm>
0

>  <SCORE.SYSTEM>
0

>  <SCORE.SYSTEM.CONST>
0

>  <SCORE.SYSTEM.DIHEDRAL>
0

>  <SCORE.SYSTEM.SOLV>
0

>  <SCORE.SYSTEM.norm>
0

>  <SCORE.heavy>
27

>  <SCORE.norm>
-0.336101

>  <RMSD>
23.989

$$$$
ligand
 OpenBabel11021811463D
libRbt.so/2013.1/901 2013/11/27
 27 28  0  0  0  0  0  0  0  0999 V2000
  -19.6794   57.2183  -20.5864 C   0  0  0  0  0  0  0  0  0  0  0  0
  -21.7697   58.6058  -12.3002 C   0  0  0  0  0  0  0  0  0  0  0  0
  -19.4523   59.5246  -10.6387 C   0  0  0  0  0  0  0  0  0  0  0  0
  -18.8296   58.3431   -9.8925 C   0  0  0  0  0  0  0  0  0  0  0  0
  -19.5885   57.1509  -10.1094 O   0  0  0  0  0  0  0  0  0  0  0  0
  -19.1363   55.7734   -9.4182 P   0  0  1  0  0  0  0  0  0  0  0  0
  -21.3966   54.3138  -10.2647 P   0  0  2  0  0  0  0  0  0  0  0  0
  -17.9503   59.4142  -14.1291 C   0  0  0  0  0  0  0  0  0  0  0  0
  -20.2674   56.5128  -18.2747 N   0  0  0  0  0  0  0  0  0  0  0  0
  -17.5429   55.6080   -9.4493 O   0  5  0  0  0  0  0  0  0  0  0  0
  -21.8404   53.3264  -11.2700 O   0  0  0  0  0  0  0  0  0  0  0  0
  -19.0114   58.9898  -14.9179 C   0  0  0  0  0  0  0  0  0  0  0  0
  -20.1303   57.5156  -19.1559 C   0  0  0  0  0  0  0  0  0  0  0  0
  -19.5851   55.6677   -7.8687 O   0  0  0  0  0  0  0  0  0  0  0  0
  -22.0230   55.7643  -10.5465 O   0  5  0  0  0  0  0  0  0  0  0  0
  -20.2490   58.7317  -14.3268 N   0  0  0  0  0  0  0  0  0  0  0  0
  -20.3855   58.7812  -18.7937 N   0  0  0  0  0  0  0  0  0  0  0  0
  -19.8108   54.5111  -10.1915 O   0  0  0  0  0  0  0  0  0  0  0  0
  -21.9032   53.9104   -8.8071 O   0  0  0  0  0  0  0  0  0  0  0  0
  -20.4073   58.8947  -12.9453 C   0  0  1  0  0  0  0  0  0  0  0  0
  -20.7816   59.0611  -17.5458 C   0  0  0  0  0  0  0  0  0  0  0  0
  -21.0336   60.3192  -17.1989 N   0  0  0  0  0  0  0  0  0  0  0  0
  -19.3417   59.3212  -12.1544 C   0  0  2  0  0  0  0  0  0  0  0  0
  -20.9334   58.0403  -16.6154 C   0  0  0  0  0  0  0  0  0  0  0  0
  -18.1170   59.5767  -12.7591 C   0  0  0  0  0  0  0  0  0  0  0  0
  -20.6564   56.7433  -17.0319 C   0  0  0  0  0  0  0  0  0  0  0  0
  -21.3814   58.2762  -15.1670 C   0  0  0  0  0  0  0  0  0  0  0  0
  1 13  1  0  0  0  0
  3  4  1  0  0  0  0
  4  5  1  0  0  0  0
  6  5  1  6  0  0  0
  6 10  1  0  0  0  0
  6 14  2  0  0  0  0
  6 18  1  0  0  0  0
  7 11  1  6  0  0  0
  7 15  1  0  0  0  0
  7 19  2  0  0  0  0
  7 18  1  0  0  0  0
  8 25  1  0  0  0  0
  8 12  1  0  0  0  0
  9 26  2  0  0  0  0
  9 13  1  0  0  0  0
 12 16  1  0  0  0  0
 13 17  2  0  0  0  0
 16 20  1  0  0  0  0
 16 27  1  0  0  0  0
 17 21  1  0  0  0  0
 20  2  1  6  0  0  0
 20 23  1  0  0  0  0
 21 22  1  0  0  0  0
 21 24  2  0  0  0  0
 23  3  1  1  0  0  0
 23 25  1  0  0  0  0
 24 27  1  0  0  0  0
 24 26  1  0  0  0  0
M  CHG  2  10  -1  15  -1
M  END
>  <CHROM.1>
-66.72059251,-179.57935699,-39.96402584,-61.94527043,165.53342095,101.78478221
-80.56908287,5.08506581,-20.15919681,57.08074254,-12.93455111,1.60253333
-1.09759307,-1.20704514

>  <Name>
ligand

>  <RI>
0

>  <Rbt.Current_Directory>
/home/itssahil/PROJECTS/Mol_Feturizer/New_Systems/rnas/3D2V

>  <Rbt.Executable>
rbdock ($Id: //depot/dev/client3/rdock/2013.1/src/exe/rbdock.cxx#4 $)

>  <Rbt.Library>
libRbt.so (2013.1, Build901 2013/11/27)

>  <Rbt.Parameter_File>
/export/apps/rDock/src/rDock_2013.1_src/data/scripts/dock_solv.prm

>  <Rbt.Receptor>
prm/blind_docking_100.prm

>  <SCORE>
-17.6927

>  <SCORE.INTER>
-17.7115

>  <SCORE.INTER.CONST>
1

>  <SCORE.INTER.POLAR>
0

>  <SCORE.INTER.ROT>
8

>  <SCORE.INTER.SOLV>
17.667

>  <SCORE.INTER.VDW>
-26.63

>  <SCORE.INTER.norm>
-0.655981

>  <SCORE.INTRA>
0.0113403

>  <SCORE.INTRA.DIHEDRAL>
-1.56538

>  <SCORE.INTRA.DIHEDRAL.0>
7.82666

>  <SCORE.INTRA.POLAR>
0

>  <SCORE.INTRA.POLAR.0>
0

>  <SCORE.INTRA.REPUL>
0

>  <SCORE.INTRA.REPUL.0>
0

>  <SCORE.INTRA.SOLV>
2.01484

>  <SCORE.INTRA.SOLV.lig_0>
-83.2758

>  <SCORE.INTRA.VDW>
-0.21339

>  <SCORE.INTRA.VDW.0>
-3.26816

>  <SCORE.INTRA.norm>
0.000420011

>  <SCORE.RESTR>
0.00740087

>  <SCORE.RESTR.CAVITY>
0.00740087

>  <SCORE.RESTR.norm>
0.000274106

>  <SCORE.SYSTEM>
0

>  <SCORE.SYSTEM.CONST>
0

>  <SCORE.SYSTEM.DIHEDRAL>
0

>  <SCORE.SYSTEM.SOLV>
0

>  <SCORE.SYSTEM.norm>
0

>  <SCORE.heavy>
27

>  <SCORE.norm>
-0.655287

>  <RMSD>
24.073

$$$$
ligand
 OpenBabel11021811463D
libRbt.so/2013.1/901 2013/11/27
 27 28  0  0  0  0  0  0  0  0999 V2000
  -18.7063   59.5751  -14.2929 C   0  0  0  0  0  0  0  0  0  0  0  0
  -24.0812   57.6913   -9.3432 C   0  0  0  0  0  0  0  0  0  0  0  0
  -23.2586   57.7167   -6.4625 C   0  0  0  0  0  0  0  0  0  0  0  0
  -22.0613   56.7673   -6.3867 C   0  0  0  0  0  0  0  0  0  0  0  0
  -21.8633   56.1019   -7.6366 O   0  0  0  0  0  0  0  0  0  0  0  0
  -20.7332   54.9688   -7.7736 P   0  0  1  0  0  0  0  0  0  0  0  0
  -19.9938   52.6210   -6.3961 P   0  0  2  0  0  0  0  0  0  0  0  0
  -21.9799   61.0769   -7.6974 C   0  0  0  0  0  0  0  0  0  0  0  0
  -19.8713   59.6558  -12.0967 N   0  0  0  0  0  0  0  0  0  0  0  0
  -20.6044   54.4621   -9.2881 O   0  5  0  0  0  0  0  0  0  0  0  0
  -19.3387   51.9387   -7.5309 O   0  0  0  0  0  0  0  0  0  0  0  0
  -22.3524   61.0861   -9.0350 C   0  0  0  0  0  0  0  0  0  0  0  0
  -19.9667   59.6891  -13.4349 C   0  0  0  0  0  0  0  0  0  0  0  0
  -19.2665   55.4830   -7.3285 O   0  0  0  0  0  0  0  0  0  0  0  0
  -20.7315   51.5763   -5.4264 O   0  5  0  0  0  0  0  0  0  0  0  0
  -23.0360   59.9920   -9.5673 N   0  0  0  0  0  0  0  0  0  0  0  0
  -21.1609   59.8220  -14.0301 N   0  0  0  0  0  0  0  0  0  0  0  0
  -21.0958   53.6988   -6.8237 O   0  0  0  0  0  0  0  0  0  0  0  0
  -18.9196   53.3626   -5.4796 O   0  0  0  0  0  0  0  0  0  0  0  0
  -23.3324   58.8934   -8.7515 C   0  0  1  0  0  0  0  0  0  0  0  0
  -22.2757   59.9230  -13.2957 C   0  0  0  0  0  0  0  0  0  0  0  0
  -23.4538   60.0524  -13.8970 N   0  0  0  0  0  0  0  0  0  0  0  0
  -22.9584   58.8853   -7.4087 C   0  0  1  0  0  0  0  0  0  0  0  0
  -22.2038   59.8889  -11.9084 C   0  0  0  0  0  0  0  0  0  0  0  0
  -22.2810   59.9839   -6.8939 C   0  0  0  0  0  0  0  0  0  0  0  0
  -20.9462   59.7520  -11.3321 C   0  0  0  0  0  0  0  0  0  0  0  0
  -23.4318   59.9994  -10.9952 C   0  0  0  0  0  0  0  0  0  0  0  0
  1 13  1  0  0  0  0
  3  4  1  0  0  0  0
  4  5  1  0  0  0  0
  6  5  1  1  0  0  0
  6 10  1  0  0  0  0
  6 14  2  0  0  0  0
  6 18  1  0  0  0  0
  7 11  1  6  0  0  0
  7 15  1  0  0  0  0
  7 19  2  0  0  0  0
  7 18  1  0  0  0  0
  8 25  1  0  0  0  0
  8 12  1  0  0  0  0
  9 26  2  0  0  0  0
  9 13  1  0  0  0  0
 12 16  1  0  0  0  0
 13 17  2  0  0  0  0
 16 20  1  0  0  0  0
 16 27  1  0  0  0  0
 17 21  1  0  0  0  0
 20  2  1  1  0  0  0
 20 23  1  0  0  0  0
 21 22  1  0  0  0  0
 21 24  2  0  0  0  0
 23  3  1  1  0  0  0
 23 25  1  0  0  0  0
 24 27  1  0  0  0  0
 24 26  1  0  0  0  0
M  CHG  2  10  -1  15  -1
M  END
>  <CHROM.1>
-67.46095650,-175.33281313,-174.83023968,-161.38225115,-58.50620167,95.11291289
-177.47401614,69.33568249,-21.31981941,57.04196971,-9.00393117,-1.85361819
-0.90611882,2.22923371

>  <Name>
ligand

>  <RI>
0

>  <Rbt.Current_Directory>
/home/itssahil/PROJECTS/Mol_Feturizer/New_Systems/rnas/3D2V

>  <Rbt.Executable>
rbdock ($Id: //depot/dev/client3/rdock/2013.1/src/exe/rbdock.cxx#4 $)

>  <Rbt.Library>
libRbt.so (2013.1, Build901 2013/11/27)

>  <Rbt.Parameter_File>
/export/apps/rDock/src/rDock_2013.1_src/data/scripts/dock_solv.prm

>  <Rbt.Receptor>
prm/blind_docking_100.prm

>  <SCORE>
-13.2178

>  <SCORE.INTER>
-11.7309

>  <SCORE.INTER.CONST>
1

>  <SCORE.INTER.POLAR>
0

>  <SCORE.INTER.ROT>
8

>  <SCORE.INTER.SOLV>
10.2652

>  <SCORE.INTER.VDW>
-20.1756

>  <SCORE.INTER.norm>
-0.434477

>  <SCORE.INTRA>
-1.48688

>  <SCORE.INTRA.DIHEDRAL>
-1.75147

>  <SCORE.INTRA.DIHEDRAL.0>
7.82666

>  <SCORE.INTRA.POLAR>
0

>  <SCORE.INTRA.POLAR.0>
0

>  <SCORE.INTRA.REPUL>
0

>  <SCORE.INTRA.REPUL.0>
0

>  <SCORE.INTRA.SOLV>
-0.95293

>  <SCORE.INTRA.SOLV.lig_0>
-83.2758

>  <SCORE.INTRA.VDW>
-0.134685

>  <SCORE.INTRA.VDW.0>
-3.26816

>  <SCORE.INTRA.norm>
-0.0550697

>  <SCORE.RESTR>
0

>  <SCORE.RESTR.CAVITY>
0

>  <SCORE.RESTR.norm>
0

>  <SCORE.SYSTEM>
0

>  <SCORE.SYSTEM.CONST>
0

>  <SCORE.SYSTEM.DIHEDRAL>
0

>  <SCORE.SYSTEM.SOLV>
0

>  <SCORE.SYSTEM.norm>
0

>  <SCORE.heavy>
27

>  <SCORE.norm>
-0.489547

>  <RMSD>
24.085

$$$$
ligand
 OpenBabel11021811463D
libRbt.so/2013.1/901 2013/11/27
 27 28  0  0  0  0  0  0  0  0999 V2000
  -24.1720   57.1258  -16.1063 C   0  0  0  0  0  0  0  0  0  0  0  0
  -24.7126   57.5696   -8.3987 C   0  0  0  0  0  0  0  0  0  0  0  0
  -22.1186   57.5249   -6.9006 C   0  0  0  0  0  0  0  0  0  0  0  0
  -22.0995   56.0353   -7.2489 C   0  0  0  0  0  0  0  0  0  0  0  0
  -20.9331   55.7082   -8.0085 O   0  0  0  0  0  0  0  0  0  0  0  0
  -20.8248   54.2829   -8.7410 P   0  0  1  0  0  0  0  0  0  0  0  0
  -19.9445   52.5295   -6.7144 P   0  0  2  0  0  0  0  0  0  0  0  0
  -21.3631   59.9222   -9.7525 C   0  0  0  0  0  0  0  0  0  0  0  0
  -24.4320   56.8773  -13.6450 N   0  0  0  0  0  0  0  0  0  0  0  0
  -21.8870   54.1653   -9.9348 O   0  5  0  0  0  0  0  0  0  0  0  0
  -19.0026   51.5984   -7.3690 O   0  0  0  0  0  0  0  0  0  0  0  0
  -22.5565   59.9581  -10.4615 C   0  0  0  0  0  0  0  0  0  0  0  0
  -24.3687   57.7004  -14.7031 C   0  0  0  0  0  0  0  0  0  0  0  0
  -19.3672   54.0143   -9.3867 O   0  0  0  0  0  0  0  0  0  0  0  0
  -20.6843   51.8403   -5.4681 O   0  5  0  0  0  0  0  0  0  0  0  0
  -23.6422   59.1996  -10.0215 N   0  0  0  0  0  0  0  0  0  0  0  0
  -24.4765   59.0272  -14.5420 N   0  0  0  0  0  0  0  0  0  0  0  0
  -21.0967   53.0839   -7.6757 O   0  0  0  0  0  0  0  0  0  0  0  0
  -19.1735   53.7863   -6.1062 O   0  0  0  0  0  0  0  0  0  0  0  0
  -23.5163   58.4045   -8.8760 C   0  0  1  0  0  0  0  0  0  0  0  0
  -24.6493   59.5489  -13.3213 C   0  0  0  0  0  0  0  0  0  0  0  0
  -24.7568   60.8655  -13.1743 N   0  0  0  0  0  0  0  0  0  0  0  0
  -22.3181   58.3695   -8.1646 C   0  0  2  0  0  0  0  0  0  0  0  0
  -24.7204   58.7178  -12.2099 C   0  0  0  0  0  0  0  0  0  0  0  0
  -21.2478   59.1330   -8.6146 C   0  0  0  0  0  0  0  0  0  0  0  0
  -24.6019   57.3490  -12.4212 C   0  0  0  0  0  0  0  0  0  0  0  0
  -24.9155   59.2349  -10.7786 C   0  0  0  0  0  0  0  0  0  0  0  0
  1 13  1  0  0  0  0
  3  4  1  0  0  0  0
  4  5  1  0  0  0  0
  6  5  1  1  0  0  0
  6 10  1  0  0  0  0
  6 14  2  0  0  0  0
  6 18  1  0  0  0  0
  7 11  1  6  0  0  0
  7 15  1  0  0  0  0
  7 19  2  0  0  0  0
  7 18  1  0  0  0  0
  8 25  1  0  0  0  0
  8 12  1  0  0  0  0
  9 26  2  0  0  0  0
  9 13  1  0  0  0  0
 12 16  1  0  0  0  0
 13 17  2  0  0  0  0
 16 20  1  0  0  0  0
 16 27  1  0  0  0  0
 17 21  1  0  0  0  0
 20  2  1  1  0  0  0
 20 23  1  0  0  0  0
 21 22  1  0  0  0  0
 21 24  2  0  0  0  0
 23  3  1  6  0  0  0
 23 25  1  0  0  0  0
 24 27  1  0  0  0  0
 24 26  1  0  0  0  0
M  CHG  2  10  -1  15  -1
M  END
>  <CHROM.1>
67.88462413,-167.83474692,67.55413893,-82.80311696,-78.85426286,69.68441818
-103.43455545,61.45891852,-22.22972479,56.32038022,-9.66077301,-3.04748304
-1.09763818,0.87910669

>  <Name>
ligand

>  <RI>
0

>  <Rbt.Current_Directory>
/home/itssahil/PROJECTS/Mol_Feturizer/New_Systems/rnas/3D2V

>  <Rbt.Executable>
rbdock ($Id: //depot/dev/client3/rdock/2013.1/src/exe/rbdock.cxx#4 $)

>  <Rbt.Library>
libRbt.so (2013.1, Build901 2013/11/27)

>  <Rbt.Parameter_File>
/export/apps/rDock/src/rDock_2013.1_src/data/scripts/dock_solv.prm

>  <Rbt.Receptor>
prm/blind_docking_80.prm

>  <SCORE>
-12.0992

>  <SCORE.INTER>
-11.2933

>  <SCORE.INTER.CONST>
1

>  <SCORE.INTER.POLAR>
0

>  <SCORE.INTER.ROT>
8

>  <SCORE.INTER.SOLV>
15.7918

>  <SCORE.INTER.VDW>
-21.7261

>  <SCORE.INTER.norm>
-0.41827

>  <SCORE.INTRA>
-0.805965

>  <SCORE.INTRA.DIHEDRAL>
-0.365888

>  <SCORE.INTRA.DIHEDRAL.0>
7.82666

>  <SCORE.INTRA.POLAR>
0

>  <SCORE.INTRA.POLAR.0>
0

>  <SCORE.INTRA.REPUL>
0

>  <SCORE.INTRA.REPUL.0>
0

>  <SCORE.INTRA.SOLV>
-0.456599

>  <SCORE.INTRA.SOLV.lig_0>
-83.2758

>  <SCORE.INTRA.VDW>
-0.394722

>  <SCORE.INTRA.VDW.0>
-3.26816

>  <SCORE.INTRA.norm>
-0.0298506

>  <SCORE.RESTR>
0

>  <SCORE.RESTR.CAVITY>
0

>  <SCORE.RESTR.norm>
0

>  <SCORE.SYSTEM>
0

>  <SCORE.SYSTEM.CONST>
0

>  <SCORE.SYSTEM.DIHEDRAL>
0

>  <SCORE.SYSTEM.SOLV>
0

>  <SCORE.SYSTEM.norm>
0

>  <SCORE.heavy>
27

>  <SCORE.norm>
-0.44812

>  <RMSD>
24.090

$$$$
ligand
 OpenBabel11021811463D
libRbt.so/2013.1/901 2013/11/27
 27 28  0  0  0  0  0  0  0  0999 V2000
  -24.2383   56.8970  -16.3853 C   0  0  0  0  0  0  0  0  0  0  0  0
  -23.1801   59.6831   -8.9849 C   0  0  0  0  0  0  0  0  0  0  0  0
  -22.6526   57.5586   -6.9394 C   0  0  0  0  0  0  0  0  0  0  0  0
  -21.2521   57.0887   -7.3372 C   0  0  0  0  0  0  0  0  0  0  0  0
  -21.2963   55.7647   -7.8751 O   0  0  0  0  0  0  0  0  0  0  0  0
  -19.9403   55.0410   -8.3414 P   0  0  1  0  0  0  0  0  0  0  0  0
  -19.7298   52.8798   -6.5410 P   0  0  2  0  0  0  0  0  0  0  0  0
  -25.2003   55.8810   -9.2080 C   0  0  0  0  0  0  0  0  0  0  0  0
  -24.5290   56.7018  -13.9227 N   0  0  0  0  0  0  0  0  0  0  0  0
  -20.2299   53.9501   -9.4785 O   0  5  0  0  0  0  0  0  0  0  0  0
  -19.2704   51.7341   -7.3527 O   0  0  0  0  0  0  0  0  0  0  0  0
  -25.4591   56.8515  -10.1668 C   0  0  0  0  0  0  0  0  0  0  0  0
  -24.4610   57.5012  -14.9985 C   0  0  0  0  0  0  0  0  0  0  0  0
  -18.8526   56.0705   -8.9501 O   0  0  0  0  0  0  0  0  0  0  0  0
  -21.3318   52.9506   -6.4746 O   0  5  0  0  0  0  0  0  0  0  0  0
  -24.8025   58.0810  -10.0971 N   0  0  0  0  0  0  0  0  0  0  0  0
  -24.5866   58.8299  -14.8696 N   0  0  0  0  0  0  0  0  0  0  0  0
  -19.2346   54.3045   -7.0741 O   0  0  0  0  0  0  0  0  0  0  0  0
  -19.2500   52.7346   -5.0269 O   0  0  0  0  0  0  0  0  0  0  0  0
  -23.8966   58.3276   -9.0585 C   0  0  1  0  0  0  0  0  0  0  0  0
  -24.7824   59.3774  -13.6636 C   0  0  0  0  0  0  0  0  0  0  0  0
  -24.9074   60.6955  -13.5486 N   0  0  0  0  0  0  0  0  0  0  0  0
  -23.6371   57.3526   -8.0967 C   0  0  1  0  0  0  0  0  0  0  0  0
  -24.8589   58.5712  -12.5344 C   0  0  0  0  0  0  0  0  0  0  0  0
  -24.2971   56.1328   -8.1824 C   0  0  0  0  0  0  0  0  0  0  0  0
  -24.7213   57.1994  -12.7124 C   0  0  0  0  0  0  0  0  0  0  0  0
  -25.0797   59.1185  -11.1182 C   0  0  0  0  0  0  0  0  0  0  0  0
  1 13  1  0  0  0  0
  3  4  1  0  0  0  0
  4  5  1  0  0  0  0
  6  5  1  1  0  0  0
  6 10  1  0  0  0  0
  6 14  2  0  0  0  0
  6 18  1  0  0  0  0
  7 11  1  6  0  0  0
  7 15  1  0  0  0  0
  7 19  2  0  0  0  0
  7 18  1  0  0  0  0
  8 25  1  0  0  0  0
  8 12  1  0  0  0  0
  9 26  2  0  0  0  0
  9 13  1  0  0  0  0
 12 16  1  0  0  0  0
 13 17  2  0  0  0  0
 16 20  1  0  0  0  0
 16 27  1  0  0  0  0
 17 21  1  0  0  0  0
 20  2  1  6  0  0  0
 20 23  1  0  0  0  0
 21 22  1  0  0  0  0
 21 24  2  0  0  0  0
 23  3  1  6  0  0  0
 23 25  1  0  0  0  0
 24 27  1  0  0  0  0
 24 26  1  0  0  0  0
M  CHG  2  10  -1  15  -1
M  END
>  <CHROM.1>
-50.92534748,-178.89037636,-153.50628214,79.98199320,78.11235443,-91.05699736
-166.69941757,-54.55900440,-22.38575627,56.23013267,-9.63706410,-2.52356672
-0.87561331,1.38730264

>  <Name>
ligand

>  <RI>
0

>  <Rbt.Current_Directory>
/home/itssahil/PROJECTS/Mol_Feturizer/New_Systems/rnas/3D2V

>  <Rbt.Executable>
rbdock ($Id: //depot/dev/client3/rdock/2013.1/src/exe/rbdock.cxx#4 $)

>  <Rbt.Library>
libRbt.so (2013.1, Build901 2013/11/27)

>  <Rbt.Parameter_File>
/export/apps/rDock/src/rDock_2013.1_src/data/scripts/dock_solv.prm

>  <Rbt.Receptor>
prm/blind_docking_100.prm

>  <SCORE>
-11.0267

>  <SCORE.INTER>
-11.1762

>  <SCORE.INTER.CONST>
1

>  <SCORE.INTER.POLAR>
0

>  <SCORE.INTER.ROT>
8

>  <SCORE.INTER.SOLV>
15.194

>  <SCORE.INTER.VDW>
-21.4488

>  <SCORE.INTER.norm>
-0.413935

>  <SCORE.INTRA>
0.149557

>  <SCORE.INTRA.DIHEDRAL>
-0.254333

>  <SCORE.INTRA.DIHEDRAL.0>
7.82666

>  <SCORE.INTRA.POLAR>
0

>  <SCORE.INTRA.POLAR.0>
0

>  <SCORE.INTRA.REPUL>
0

>  <SCORE.INTRA.REPUL.0>
0

>  <SCORE.INTRA.SOLV>
-1.40156

>  <SCORE.INTRA.SOLV.lig_0>
-83.2758

>  <SCORE.INTRA.VDW>
0.977503

>  <SCORE.INTRA.VDW.0>
-3.26816

>  <SCORE.INTRA.norm>
0.00553914

>  <SCORE.RESTR>
0

>  <SCORE.RESTR.CAVITY>
0

>  <SCORE.RESTR.norm>
0

>  <SCORE.SYSTEM>
0

>  <SCORE.SYSTEM.CONST>
0

>  <SCORE.SYSTEM.DIHEDRAL>
0

>  <SCORE.SYSTEM.SOLV>
0

>  <SCORE.SYSTEM.norm>
0

>  <SCORE.heavy>
27

>  <SCORE.norm>
-0.408396

>  <RMSD>
24.110

$$$$
ligand
 OpenBabel11021811463D
libRbt.so/2013.1/901 2013/11/27
 27 28  0  0  0  0  0  0  0  0999 V2000
  -20.2508   57.1710  -19.0737 C   0  0  0  0  0  0  0  0  0  0  0  0
  -21.1348   59.5109  -11.6926 C   0  0  0  0  0  0  0  0  0  0  0  0
  -19.1286   58.3880   -9.7718 C   0  0  0  0  0  0  0  0  0  0  0  0
  -19.7786   57.0062   -9.8647 C   0  0  0  0  0  0  0  0  0  0  0  0
  -20.0410   56.4817   -8.5608 O   0  0  0  0  0  0  0  0  0  0  0  0
  -20.7404   55.0448   -8.3983 P   0  0  1  0  0  0  0  0  0  0  0  0
  -22.4177   54.6490  -10.6313 P   0  0  2  0  0  0  0  0  0  0  0  0
  -16.9706   59.2544  -12.7790 C   0  0  0  0  0  0  0  0  0  0  0  0
  -19.7378   57.5679  -16.6723 N   0  0  0  0  0  0  0  0  0  0  0  0
  -19.8542   53.8922   -9.0714 O   0  5  0  0  0  0  0  0  0  0  0  0
  -21.2613   54.9462  -11.5014 O   0  0  0  0  0  0  0  0  0  0  0  0
  -17.8836   59.7788  -13.6843 C   0  0  0  0  0  0  0  0  0  0  0  0
  -20.2465   58.0448  -17.8190 C   0  0  0  0  0  0  0  0  0  0  0  0
  -20.9602   54.6210   -6.8538 O   0  0  0  0  0  0  0  0  0  0  0  0
  -23.7401   55.4110  -11.1276 O   0  5  0  0  0  0  0  0  0  0  0  0
  -19.2311   59.8655  -13.3316 N   0  0  0  0  0  0  0  0  0  0  0  0
  -20.7532   59.2849  -17.8763 N   0  0  0  0  0  0  0  0  0  0  0  0
  -22.2090   55.0548   -9.0981 O   0  0  0  0  0  0  0  0  0  0  0  0
  -22.7817   53.0969  -10.6773 O   0  0  0  0  0  0  0  0  0  0  0  0
  -19.6509   59.4164  -12.0737 C   0  0  1  0  0  0  0  0  0  0  0  0
  -20.7585   60.0648  -16.7881 C   0  0  0  0  0  0  0  0  0  0  0  0
  -21.2652   61.2915  -16.8566 N   0  0  0  0  0  0  0  0  0  0  0  0
  -18.7335   58.8906  -11.1655 C   0  0  2  0  0  0  0  0  0  0  0  0
  -20.2398   59.5935  -15.5882 C   0  0  0  0  0  0  0  0  0  0  0  0
  -17.3952   58.8141  -11.5313 C   0  0  0  0  0  0  0  0  0  0  0  0
  -19.7227   58.3032  -15.5731 C   0  0  0  0  0  0  0  0  0  0  0  0
  -20.2070   60.4226  -14.2977 C   0  0  0  0  0  0  0  0  0  0  0  0
  1 13  1  0  0  0  0
  3  4  1  0  0  0  0
  4  5  1  0  0  0  0
  6  5  1  6  0  0  0
  6 10  1  0  0  0  0
  6 14  2  0  0  0  0
  6 18  1  0  0  0  0
  7 11  1  6  0  0  0
  7 15  1  0  0  0  0
  7 19  2  0  0  0  0
  7 18  1  0  0  0  0
  8 25  1  0  0  0  0
  8 12  1  0  0  0  0
  9 26  2  0  0  0  0
  9 13  1  0  0  0  0
 12 16  1  0  0  0  0
 13 17  2  0  0  0  0
 16 20  1  0  0  0  0
 16 27  1  0  0  0  0
 17 21  1  0  0  0  0
 20  2  1  1  0  0  0
 20 23  1  0  0  0  0
 21 22  1  0  0  0  0
 21 24  2  0  0  0  0
 23  3  1  6  0  0  0
 23 25  1  0  0  0  0
 24 27  1  0  0  0  0
 24 26  1  0  0  0  0
M  CHG  2  10  -1  15  -1
M  END
>  <CHROM.1>
174.86910407,179.23627200,60.24211949,90.35273852,-30.10385040,77.49476160
-161.44231401,60.19912093,-20.46983687,57.23623810,-12.26257388,1.34324532
-0.88787135,-1.21095754

>  <Name>
ligand

>  <RI>
0

>  <Rbt.Current_Directory>
/home/itssahil/PROJECTS/Mol_Feturizer/New_Systems/rnas/3D2V

>  <Rbt.Executable>
rbdock ($Id: //depot/dev/client3/rdock/2013.1/src/exe/rbdock.cxx#4 $)

>  <Rbt.Library>
libRbt.so (2013.1, Build901 2013/11/27)

>  <Rbt.Parameter_File>
/export/apps/rDock/src/rDock_2013.1_src/data/scripts/dock_solv.prm

>  <Rbt.Receptor>
prm/blind_docking_100.prm

>  <SCORE>
-11.9929

>  <SCORE.INTER>
-11.0058

>  <SCORE.INTER.CONST>
1

>  <SCORE.INTER.POLAR>
0

>  <SCORE.INTER.ROT>
8

>  <SCORE.INTER.SOLV>
20.8282

>  <SCORE.INTER.VDW>
-23.2133

>  <SCORE.INTER.norm>
-0.407623

>  <SCORE.INTRA>
-0.987086

>  <SCORE.INTRA.DIHEDRAL>
-0.116061

>  <SCORE.INTRA.DIHEDRAL.0>
7.82666

>  <SCORE.INTRA.POLAR>
0

>  <SCORE.INTRA.POLAR.0>
0

>  <SCORE.INTRA.REPUL>
0

>  <SCORE.INTRA.REPUL.0>
0

>  <SCORE.INTRA.SOLV>
-1.97438

>  <SCORE.INTRA.SOLV.lig_0>
-83.2758

>  <SCORE.INTRA.VDW>
0.0581336

>  <SCORE.INTRA.VDW.0>
-3.26816

>  <SCORE.INTRA.norm>
-0.0365587

>  <SCORE.RESTR>
0

>  <SCORE.RESTR.CAVITY>
0

>  <SCORE.RESTR.norm>
0

>  <SCORE.SYSTEM>
0

>  <SCORE.SYSTEM.CONST>
0

>  <SCORE.SYSTEM.DIHEDRAL>
0

>  <SCORE.SYSTEM.SOLV>
0

>  <SCORE.SYSTEM.norm>
0

>  <SCORE.heavy>
27

>  <SCORE.norm>
-0.444181

>  <RMSD>
24.122

$$$$
ligand
 OpenBabel11021811463D
libRbt.so/2013.1/901 2013/11/27
 27 28  0  0  0  0  0  0  0  0999 V2000
  -20.4423   58.6708  -15.1809 C   0  0  0  0  0  0  0  0  0  0  0  0
  -22.0045   60.3154   -7.2777 C   0  0  0  0  0  0  0  0  0  0  0  0
  -23.5992   58.2092   -5.8647 C   0  0  0  0  0  0  0  0  0  0  0  0
  -22.6136   57.0650   -5.6194 C   0  0  0  0  0  0  0  0  0  0  0  0
  -22.9800   55.9101   -6.3784 O   0  0  0  0  0  0  0  0  0  0  0  0
  -21.9171   54.7276   -6.6058 P   0  0  1  0  0  0  0  0  0  0  0  0
  -20.0592   54.3126   -8.6874 P   0  0  2  0  0  0  0  0  0  0  0  0
  -24.8403   57.8965   -9.4443 C   0  0  0  0  0  0  0  0  0  0  0  0
  -22.1622   59.7661  -13.7563 N   0  0  0  0  0  0  0  0  0  0  0  0
  -21.3078   54.2232   -5.2124 O   0  5  0  0  0  0  0  0  0  0  0  0
  -19.6596   52.9706   -8.2165 O   0  0  0  0  0  0  0  0  0  0  0  0
  -24.1111   58.8668  -10.1189 C   0  0  0  0  0  0  0  0  0  0  0  0
  -20.9490   59.1982  -13.8382 C   0  0  0  0  0  0  0  0  0  0  0  0
  -22.5592   53.4322   -7.3292 O   0  0  0  0  0  0  0  0  0  0  0  0
  -18.8108   55.1225   -9.2883 O   0  5  0  0  0  0  0  0  0  0  0  0
  -23.1903   59.6474   -9.4186 N   0  0  0  0  0  0  0  0  0  0  0  0
  -20.1730   59.0880  -12.7502 N   0  0  0  0  0  0  0  0  0  0  0  0
  -20.7008   55.2431   -7.5552 O   0  0  0  0  0  0  0  0  0  0  0  0
  -21.1101   54.2080   -9.8826 O   0  0  0  0  0  0  0  0  0  0  0  0
  -23.0161   59.4514   -8.0434 C   0  0  1  0  0  0  0  0  0  0  0  0
  -20.5993   59.5443  -11.5659 C   0  0  0  0  0  0  0  0  0  0  0  0
  -19.8205   59.4311  -10.4949 N   0  0  0  0  0  0  0  0  0  0  0  0
  -23.7482   58.4768   -7.3671 C   0  0  2  0  0  0  0  0  0  0  0  0
  -21.8506   60.1383  -11.4553 C   0  0  0  0  0  0  0  0  0  0  0  0
  -24.6587   57.7062   -8.0798 C   0  0  0  0  0  0  0  0  0  0  0  0
  -22.6234   60.2305  -12.6071 C   0  0  0  0  0  0  0  0  0  0  0  0
  -22.4133   60.6850  -10.1368 C   0  0  0  0  0  0  0  0  0  0  0  0
  1 13  1  0  0  0  0
  3  4  1  0  0  0  0
  4  5  1  0  0  0  0
  6  5  1  1  0  0  0
  6 10  1  0  0  0  0
  6 14  2  0  0  0  0
  6 18  1  0  0  0  0
  7 11  1  1  0  0  0
  7 15  1  0  0  0  0
  7 19  2  0  0  0  0
  7 18  1  0  0  0  0
  8 25  1  0  0  0  0
  8 12  1  0  0  0  0
  9 26  2  0  0  0  0
  9 13  1  0  0  0  0
 12 16  1  0  0  0  0
 13 17  2  0  0  0  0
 16 20  1  0  0  0  0
 16 27  1  0  0  0  0
 17 21  1  0  0  0  0
 20  2  1  6  0  0  0
 20 23  1  0  0  0  0
 21 22  1  0  0  0  0
 21 24  2  0  0  0  0
 23  3  1  1  0  0  0
 23 25  1  0  0  0  0
 24 27  1  0  0  0  0
 24 26  1  0  0  0  0
M  CHG  2  10  -1  15  -1
M  END
>  <CHROM.1>
-52.93421407,163.66434700,53.09312387,-140.15430533,-50.80191476,-95.18740849
-90.98356919,-45.73693221,-21.76728961,57.16112233,-9.11180810,-1.59643185
-0.89556473,2.29533114

>  <Name>
ligand

>  <RI>
0

>  <Rbt.Current_Directory>
/home/itssahil/PROJECTS/Mol_Feturizer/New_Systems/rnas/3D2V

>  <Rbt.Executable>
rbdock ($Id: //depot/dev/client3/rdock/2013.1/src/exe/rbdock.cxx#4 $)

>  <Rbt.Library>
libRbt.so (2013.1, Build901 2013/11/27)

>  <Rbt.Parameter_File>
/export/apps/rDock/src/rDock_2013.1_src/data/scripts/dock_solv.prm

>  <Rbt.Receptor>
prm/blind_docking_100.prm

>  <SCORE>
-8.15074

>  <SCORE.INTER>
-7.9879

>  <SCORE.INTER.CONST>
1

>  <SCORE.INTER.POLAR>
0

>  <SCORE.INTER.ROT>
8

>  <SCORE.INTER.SOLV>
15.8871

>  <SCORE.INTER.VDW>
-19.5543

>  <SCORE.INTER.norm>
-0.295848

>  <SCORE.INTRA>
-0.162836

>  <SCORE.INTRA.DIHEDRAL>
0.777462

>  <SCORE.INTRA.DIHEDRAL.0>
7.82666

>  <SCORE.INTRA.POLAR>
0

>  <SCORE.INTRA.POLAR.0>
0

>  <SCORE.INTRA.REPUL>
0

>  <SCORE.INTRA.REPUL.0>
0

>  <SCORE.INTRA.SOLV>
-0.357984

>  <SCORE.INTRA.SOLV.lig_0>
-83.2758

>  <SCORE.INTRA.VDW>
-0.372575

>  <SCORE.INTRA.VDW.0>
-3.26816

>  <SCORE.INTRA.norm>
-0.00603096

>  <SCORE.RESTR>
0

>  <SCORE.RESTR.CAVITY>
0

>  <SCORE.RESTR.norm>
0

>  <SCORE.SYSTEM>
0

>  <SCORE.SYSTEM.CONST>
0

>  <SCORE.SYSTEM.DIHEDRAL>
0

>  <SCORE.SYSTEM.SOLV>
0

>  <SCORE.SYSTEM.norm>
0

>  <SCORE.heavy>
27

>  <SCORE.norm>
-0.301879

>  <RMSD>
24.135

$$$$
ligand
 OpenBabel11021811463D
libRbt.so/2013.1/901 2013/11/27
 27 28  0  0  0  0  0  0  0  0999 V2000
  -25.2677   52.7026   -8.1533 C   0  0  0  0  0  0  0  0  0  0  0  0
  -20.8586   56.9683  -10.8905 C   0  0  0  0  0  0  0  0  0  0  0  0
  -21.5765   59.8236  -11.4447 C   0  0  0  0  0  0  0  0  0  0  0  0
  -23.0342   59.7275  -11.8991 C   0  0  0  0  0  0  0  0  0  0  0  0
  -23.1865   60.2447  -13.2233 O   0  0  0  0  0  0  0  0  0  0  0  0
  -24.6457   60.3321  -13.8890 P   0  0  1  0  0  0  0  0  0  0  0  0
  -24.0172   57.8212  -15.0100 P   0  0  2  0  0  0  0  0  0  0  0  0
  -21.4983   59.7331   -7.6451 C   0  0  0  0  0  0  0  0  0  0  0  0
  -23.1341   53.5418   -9.1180 N   0  0  0  0  0  0  0  0  0  0  0  0
  -25.7373   60.8237  -12.8242 O   0  5  0  0  0  0  0  0  0  0  0  0
  -23.4442   56.9400  -13.9719 O   0  0  0  0  0  0  0  0  0  0  0  0
  -21.1657   58.4142   -7.3658 C   0  0  0  0  0  0  0  0  0  0  0  0
  -24.0389   53.6122   -8.1294 C   0  0  0  0  0  0  0  0  0  0  0  0
  -24.7113   61.3630  -15.1326 O   0  0  0  0  0  0  0  0  0  0  0  0
  -22.8790   58.6747  -15.7528 O   0  5  0  0  0  0  0  0  0  0  0  0
  -20.9549   57.5198   -8.4162 N   0  0  0  0  0  0  0  0  0  0  0  0
  -23.8761   54.4756   -7.1164 N   0  0  0  0  0  0  0  0  0  0  0  0
  -25.0883   58.8748  -14.4608 O   0  0  0  0  0  0  0  0  0  0  0  0
  -24.7216   56.9667  -16.1579 O   0  0  0  0  0  0  0  0  0  0  0  0
  -21.0882   57.9573   -9.7394 C   0  0  1  0  0  0  0  0  0  0  0  0
  -22.8065   55.2798   -7.0779 C   0  0  0  0  0  0  0  0  0  0  0  0
  -22.6551   56.1302   -6.0678 N   0  0  0  0  0  0  0  0  0  0  0  0
  -21.4216   59.2816  -10.0188 C   0  0  2  0  0  0  0  0  0  0  0  0
  -21.8541   55.2246   -8.0882 C   0  0  0  0  0  0  0  0  0  0  0  0
  -21.6253   60.1599   -8.9614 C   0  0  0  0  0  0  0  0  0  0  0  0
  -22.0626   54.3171   -9.1204 C   0  0  0  0  0  0  0  0  0  0  0  0
  -20.6024   56.1113   -8.1195 C   0  0  0  0  0  0  0  0  0  0  0  0
  1 13  1  0  0  0  0
  3  4  1  0  0  0  0
  4  5  1  0  0  0  0
  6  5  1  1  0  0  0
  6 10  1  0  0  0  0
  6 14  2  0  0  0  0
  6 18  1  0  0  0  0
  7 11  1  1  0  0  0
  7 15  1  0  0  0  0
  7 19  2  0  0  0  0
  7 18  1  0  0  0  0
  8 25  1  0  0  0  0
  8 12  1  0  0  0  0
  9 26  2  0  0  0  0
  9 13  1  0  0  0  0
 12 16  1  0  0  0  0
 13 17  2  0  0  0  0
 16 20  1  0  0  0  0
 16 27  1  0  0  0  0
 17 21  1  0  0  0  0
 20  2  1  6  0  0  0
 20 23  1  0  0  0  0
 21 22  1  0  0  0  0
 21 24  2  0  0  0  0
 23  3  1  1  0  0  0
 23 25  1  0  0  0  0
 24 27  1  0  0  0  0
 24 26  1  0  0  0  0
M  CHG  2  10  -1  15  -1
M  END
>  <CHROM.1>
179.39167292,-176.37873634,40.72154816,-30.94247306,87.36401873,92.65842684
-71.02192978,93.82473079,-23.09471182,57.70747637,-11.19389044,1.11909223
1.05326446,2.49725901

>  <Name>
ligand

>  <RI>
0

>  <Rbt.Current_Directory>
/home/itssahil/PROJECTS/Mol_Feturizer/New_Systems/rnas/3D2V

>  <Rbt.Executable>
rbdock ($Id: //depot/dev/client3/rdock/2013.1/src/exe/rbdock.cxx#4 $)

>  <Rbt.Library>
libRbt.so (2013.1, Build901 2013/11/27)

>  <Rbt.Parameter_File>
/export/apps/rDock/src/rDock_2013.1_src/data/scripts/dock_solv.prm

>  <Rbt.Receptor>
prm/blind_docking_80.prm

>  <SCORE>
-2.95495

>  <SCORE.INTER>
-2.27439

>  <SCORE.INTER.CONST>
1

>  <SCORE.INTER.POLAR>
0

>  <SCORE.INTER.ROT>
8

>  <SCORE.INTER.SOLV>
14.3594

>  <SCORE.INTER.VDW>
-15.2361

>  <SCORE.INTER.norm>
-0.0842366

>  <SCORE.INTRA>
-0.690947

>  <SCORE.INTRA.DIHEDRAL>
0.154553

>  <SCORE.INTRA.DIHEDRAL.0>
7.82666

>  <SCORE.INTRA.POLAR>
0

>  <SCORE.INTRA.POLAR.0>
0

>  <SCORE.INTRA.REPUL>
0

>  <SCORE.INTRA.REPUL.0>
0

>  <SCORE.INTRA.SOLV>
0.0858697

>  <SCORE.INTRA.SOLV.lig_0>
-83.2758

>  <SCORE.INTRA.VDW>
-0.811159

>  <SCORE.INTRA.VDW.0>
-3.26816

>  <SCORE.INTRA.norm>
-0.0255906

>  <SCORE.RESTR>
0.0103889

>  <SCORE.RESTR.CAVITY>
0.0103889

>  <SCORE.RESTR.norm>
0.000384774

>  <SCORE.SYSTEM>
0

>  <SCORE.SYSTEM.CONST>
0

>  <SCORE.SYSTEM.DIHEDRAL>
0

>  <SCORE.SYSTEM.SOLV>
0

>  <SCORE.SYSTEM.norm>
0

>  <SCORE.heavy>
27

>  <SCORE.norm>
-0.109443

>  <RMSD>
24.166

$$$$
ligand
 OpenBabel11021811463D
libRbt.so/2013.1/901 2013/11/27
 27 28  0  0  0  0  0  0  0  0999 V2000
  -17.8310   59.4905  -13.4130 C   0  0  0  0  0  0  0  0  0  0  0  0
  -24.2508   58.0611   -9.2726 C   0  0  0  0  0  0  0  0  0  0  0  0
  -23.8587   58.0049   -6.3030 C   0  0  0  0  0  0  0  0  0  0  0  0
  -22.8040   57.0260   -5.7834 C   0  0  0  0  0  0  0  0  0  0  0  0
  -22.0736   56.4468   -6.8675 O   0  0  0  0  0  0  0  0  0  0  0  0
  -20.9984   55.2877   -6.5837 P   0  0  1  0  0  0  0  0  0  0  0  0
  -20.5872   55.0203   -9.3615 P   0  0  2  0  0  0  0  0  0  0  0  0
  -21.8006   61.0307   -7.3325 C   0  0  0  0  0  0  0  0  0  0  0  0
  -19.2854   60.3275  -11.5769 N   0  0  0  0  0  0  0  0  0  0  0  0
  -20.1073   55.6296   -5.2969 O   0  5  0  0  0  0  0  0  0  0  0  0
  -21.0827   56.3043   -9.8983 O   0  0  0  0  0  0  0  0  0  0  0  0
  -21.9695   61.0757   -8.7100 C   0  0  0  0  0  0  0  0  0  0  0  0
  -19.1921   59.6596  -12.7371 C   0  0  0  0  0  0  0  0  0  0  0  0
  -21.6803   53.8480   -6.3086 O   0  0  0  0  0  0  0  0  0  0  0  0
  -21.7403   53.9042   -9.3443 O   0  5  0  0  0  0  0  0  0  0  0  0
  -22.7657   60.1168   -9.3380 N   0  0  0  0  0  0  0  0  0  0  0  0
  -20.2845   59.1367  -13.3125 N   0  0  0  0  0  0  0  0  0  0  0  0
  -20.0177   55.1070   -7.8691 O   0  0  0  0  0  0  0  0  0  0  0  0
  -19.4340   54.4224  -10.2870 O   0  0  0  0  0  0  0  0  0  0  0  0
  -23.3792   59.1152   -8.5761 C   0  0  1  0  0  0  0  0  0  0  0  0
  -21.4848   59.2741  -12.7357 C   0  0  0  0  0  0  0  0  0  0  0  0
  -22.5602   58.7497  -13.3145 N   0  0  0  0  0  0  0  0  0  0  0  0
  -23.2094   59.0712   -7.1932 C   0  0  1  0  0  0  0  0  0  0  0  0
  -21.6077   59.9592  -11.5330 C   0  0  0  0  0  0  0  0  0  0  0  0
  -22.4160   60.0352   -6.5834 C   0  0  0  0  0  0  0  0  0  0  0  0
  -20.4506   60.4872  -10.9719 C   0  0  0  0  0  0  0  0  0  0  0  0
  -22.9447   60.1620  -10.8083 C   0  0  0  0  0  0  0  0  0  0  0  0
  1 13  1  0  0  0  0
  3  4  1  0  0  0  0
  4  5  1  0  0  0  0
  6  5  1  6  0  0  0
  6 10  1  0  0  0  0
  6 14  2  0  0  0  0
  6 18  1  0  0  0  0
  7 11  1  6  0  0  0
  7 15  1  0  0  0  0
  7 19  2  0  0  0  0
  7 18  1  0  0  0  0
  8 25  1  0  0  0  0
  8 12  1  0  0  0  0
  9 26  2  0  0  0  0
  9 13  1  0  0  0  0
 12 16  1  0  0  0  0
 13 17  2  0  0  0  0
 16 20  1  0  0  0  0
 16 27  1  0  0  0  0
 17 21  1  0  0  0  0
 20  2  1  1  0  0  0
 20 23  1  0  0  0  0
 21 22  1  0  0  0  0
 21 24  2  0  0  0  0
 23  3  1  1  0  0  0
 23 25  1  0  0  0  0
 24 27  1  0  0  0  0
 24 26  1  0  0  0  0
M  CHG  2  10  -1  15  -1
M  END
>  <CHROM.1>
-55.29336620,-174.53503662,-42.91711893,-46.77668903,72.78017225,108.55824421
144.62784960,62.74636513,-21.38512658,57.60928236,-9.14959357,-1.37299271
-0.97633570,2.43923047

>  <Name>
ligand

>  <RI>
0

>  <Rbt.Current_Directory>
/home/itssahil/PROJECTS/Mol_Feturizer/New_Systems/rnas/3D2V

>  <Rbt.Executable>
rbdock ($Id: //depot/dev/client3/rdock/2013.1/src/exe/rbdock.cxx#4 $)

>  <Rbt.Library>
libRbt.so (2013.1, Build901 2013/11/27)

>  <Rbt.Parameter_File>
/export/apps/rDock/src/rDock_2013.1_src/data/scripts/dock_solv.prm

>  <Rbt.Receptor>
prm/blind_docking_80.prm

>  <SCORE>
-12.1286

>  <SCORE.INTER>
-10.1175

>  <SCORE.INTER.CONST>
1

>  <SCORE.INTER.POLAR>
0

>  <SCORE.INTER.ROT>
8

>  <SCORE.INTER.SOLV>
14.5991

>  <SCORE.INTER.VDW>
-20.5447

>  <SCORE.INTER.norm>
-0.374721

>  <SCORE.INTRA>
-2.0111

>  <SCORE.INTRA.DIHEDRAL>
-1.44527

>  <SCORE.INTRA.DIHEDRAL.0>
7.82666

>  <SCORE.INTRA.POLAR>
0

>  <SCORE.INTRA.POLAR.0>
0

>  <SCORE.INTRA.REPUL>
0

>  <SCORE.INTRA.REPUL.0>
0

>  <SCORE.INTRA.SOLV>
-1.62137

>  <SCORE.INTRA.SOLV.lig_0>
-83.2758

>  <SCORE.INTRA.VDW>
-0.477777

>  <SCORE.INTRA.VDW.0>
-3.26816

>  <SCORE.INTRA.norm>
-0.074485

>  <SCORE.RESTR>
0

>  <SCORE.RESTR.CAVITY>
0

>  <SCORE.RESTR.norm>
0

>  <SCORE.SYSTEM>
0

>  <SCORE.SYSTEM.CONST>
0

>  <SCORE.SYSTEM.DIHEDRAL>
0

>  <SCORE.SYSTEM.SOLV>
0

>  <SCORE.SYSTEM.norm>
0

>  <SCORE.heavy>
27

>  <SCORE.norm>
-0.449206

>  <RMSD>
24.178

$$$$
ligand
 OpenBabel11021811463D
libRbt.so/2013.1/901 2013/11/27
 27 28  0  0  0  0  0  0  0  0999 V2000
  -16.9553   60.9962  -11.6001 C   0  0  0  0  0  0  0  0  0  0  0  0
  -23.6834   59.9755  -10.6883 C   0  0  0  0  0  0  0  0  0  0  0  0
  -24.5974   57.7690   -8.8796 C   0  0  0  0  0  0  0  0  0  0  0  0
  -23.9038   57.0794   -7.7033 C   0  0  0  0  0  0  0  0  0  0  0  0
  -22.5021   57.3615   -7.7065 O   0  0  0  0  0  0  0  0  0  0  0  0
  -21.5168   56.5497   -6.7316 P   0  0  1  0  0  0  0  0  0  0  0  0
  -19.3238   57.0463   -8.4347 P   0  0  2  0  0  0  0  0  0  0  0  0
  -22.8961   55.8569  -11.6904 C   0  0  0  0  0  0  0  0  0  0  0  0
  -19.2793   60.2724  -11.0880 N   0  0  0  0  0  0  0  0  0  0  0  0
  -21.8952   56.7948   -5.1941 O   0  5  0  0  0  0  0  0  0  0  0  0
  -20.0533   57.8811   -9.4112 O   0  0  0  0  0  0  0  0  0  0  0  0
  -22.4630   56.8641  -12.5426 C   0  0  0  0  0  0  0  0  0  0  0  0
  -18.3532   60.5418  -12.0211 C   0  0  0  0  0  0  0  0  0  0  0  0
  -21.5647   54.9520   -6.9738 O   0  0  0  0  0  0  0  0  0  0  0  0
  -19.2273   55.5196   -8.9202 O   0  5  0  0  0  0  0  0  0  0  0  0
  -22.7143   58.1976  -12.2167 N   0  0  0  0  0  0  0  0  0  0  0  0
  -18.6420   60.4162  -13.3245 N   0  0  0  0  0  0  0  0  0  0  0  0
  -19.9779   57.0175   -6.9751 O   0  0  0  0  0  0  0  0  0  0  0  0
  -17.8141   57.5370   -8.2805 O   0  0  0  0  0  0  0  0  0  0  0  0
  -23.4066   58.5072  -11.0399 C   0  0  1  0  0  0  0  0  0  0  0  0
  -19.8603   60.0192  -13.7125 C   0  0  0  0  0  0  0  0  0  0  0  0
  -20.1342   59.8966  -15.0073 N   0  0  0  0  0  0  0  0  0  0  0  0
  -23.8406   57.4955  -10.1848 C   0  0  1  0  0  0  0  0  0  0  0  0
  -20.8361   59.7320  -12.7658 C   0  0  0  0  0  0  0  0  0  0  0  0
  -23.5796   56.1732  -10.5226 C   0  0  0  0  0  0  0  0  0  0  0  0
  -20.4954   59.8773  -11.4259 C   0  0  0  0  0  0  0  0  0  0  0  0
  -22.2550   59.2733  -13.1266 C   0  0  0  0  0  0  0  0  0  0  0  0
  1 13  1  0  0  0  0
  3  4  1  0  0  0  0
  4  5  1  0  0  0  0
  6  5  1  6  0  0  0
  6 10  1  0  0  0  0
  6 14  2  0  0  0  0
  6 18  1  0  0  0  0
  7 11  1  6  0  0  0
  7 15  1  0  0  0  0
  7 19  2  0  0  0  0
  7 18  1  0  0  0  0
  8 25  1  0  0  0  0
  8 12  1  0  0  0  0
  9 26  2  0  0  0  0
  9 13  1  0  0  0  0
 12 16  1  0  0  0  0
 13 17  2  0  0  0  0
 16 20  1  0  0  0  0
 16 27  1  0  0  0  0
 17 21  1  0  0  0  0
 20  2  1  1  0  0  0
 20 23  1  0  0  0  0
 21 22  1  0  0  0  0
 21 24  2  0  0  0  0
 23  3  1  1  0  0  0
 23 25  1  0  0  0  0
 24 27  1  0  0  0  0
 24 26  1  0  0  0  0
M  CHG  2  10  -1  15  -1
M  END
>  <CHROM.1>
49.01348099,-169.22244519,-61.64071315,-51.71031578,56.85300345,-126.46992458
139.03467854,-89.74359171,-21.05990322,57.97770814,-9.92694719,-1.30519836
0.22702302,2.05303181

>  <Name>
ligand

>  <RI>
0

>  <Rbt.Current_Directory>
/home/itssahil/PROJECTS/Mol_Feturizer/New_Systems/rnas/3D2V

>  <Rbt.Executable>
rbdock ($Id: //depot/dev/client3/rdock/2013.1/src/exe/rbdock.cxx#4 $)

>  <Rbt.Library>
libRbt.so (2013.1, Build901 2013/11/27)

>  <Rbt.Parameter_File>
/export/apps/rDock/src/rDock_2013.1_src/data/scripts/dock_solv.prm

>  <Rbt.Receptor>
prm/blind_docking_100.prm

>  <SCORE>
-9.65889

>  <SCORE.INTER>
-6.16657

>  <SCORE.INTER.CONST>
1

>  <SCORE.INTER.POLAR>
0

>  <SCORE.INTER.ROT>
8

>  <SCORE.INTER.SOLV>
8.7075

>  <SCORE.INTER.VDW>
-15.9469

>  <SCORE.INTER.norm>
-0.228391

>  <SCORE.INTRA>
-3.49232

>  <SCORE.INTRA.DIHEDRAL>
-1.49437

>  <SCORE.INTRA.DIHEDRAL.0>
7.82666

>  <SCORE.INTRA.POLAR>
0

>  <SCORE.INTRA.POLAR.0>
0

>  <SCORE.INTRA.REPUL>
0

>  <SCORE.INTRA.REPUL.0>
0

>  <SCORE.INTRA.SOLV>
-2.38454

>  <SCORE.INTRA.SOLV.lig_0>
-83.2758

>  <SCORE.INTRA.VDW>
-1.55287

>  <SCORE.INTRA.VDW.0>
-3.26816

>  <SCORE.INTRA.norm>
-0.129345

>  <SCORE.RESTR>
0

>  <SCORE.RESTR.CAVITY>
0

>  <SCORE.RESTR.norm>
0

>  <SCORE.SYSTEM>
0

>  <SCORE.SYSTEM.CONST>
0

>  <SCORE.SYSTEM.DIHEDRAL>
0

>  <SCORE.SYSTEM.SOLV>
0

>  <SCORE.SYSTEM.norm>
0

>  <SCORE.heavy>
27

>  <SCORE.norm>
-0.357737

>  <RMSD>
24.197

$$$$
ligand
 OpenBabel11021811463D
libRbt.so/2013.1/901 2013/11/27
 27 28  0  0  0  0  0  0  0  0999 V2000
  -20.1604   56.6055  -19.1288 C   0  0  0  0  0  0  0  0  0  0  0  0
  -21.4752   59.4788  -12.2383 C   0  0  0  0  0  0  0  0  0  0  0  0
  -19.7106   58.4540  -10.0448 C   0  0  0  0  0  0  0  0  0  0  0  0
  -20.2203   57.0159  -10.1566 C   0  0  0  0  0  0  0  0  0  0  0  0
  -20.6659   56.5367   -8.8854 O   0  0  0  0  0  0  0  0  0  0  0  0
  -21.1504   55.0137   -8.7255 P   0  0  1  0  0  0  0  0  0  0  0  0
  -21.6278   55.7078   -6.0335 P   0  0  2  0  0  0  0  0  0  0  0  0
  -17.2012   59.2977  -12.7729 C   0  0  0  0  0  0  0  0  0  0  0  0
  -20.0478   57.1798  -16.7112 N   0  0  0  0  0  0  0  0  0  0  0  0
  -22.1041   54.5811   -9.9381 O   0  5  0  0  0  0  0  0  0  0  0  0
  -21.7801   57.1637   -6.2330 O   0  0  0  0  0  0  0  0  0  0  0  0
  -18.0005   59.7767  -13.8023 C   0  0  0  0  0  0  0  0  0  0  0  0
  -20.1827   57.6091  -17.9755 C   0  0  0  0  0  0  0  0  0  0  0  0
  -19.9240   53.9607   -8.6993 O   0  0  0  0  0  0  0  0  0  0  0  0
  -20.1314   55.3260   -5.5968 O   0  5  0  0  0  0  0  0  0  0  0  0
  -19.3838   59.8390  -13.6283 N   0  0  0  0  0  0  0  0  0  0  0  0
  -20.3376   58.9146  -18.2392 N   0  0  0  0  0  0  0  0  0  0  0  0
  -21.9611   54.8280   -7.3273 O   0  0  0  0  0  0  0  0  0  0  0  0
  -22.5591   55.1947   -4.8447 O   0  0  0  0  0  0  0  0  0  0  0  0
  -19.9529   59.4114  -12.4227 C   0  0  1  0  0  0  0  0  0  0  0  0
  -20.3600   59.8084  -17.2427 C   0  0  0  0  0  0  0  0  0  0  0  0
  -20.5159   61.0996  -17.5163 N   0  0  0  0  0  0  0  0  0  0  0  0
  -19.1496   58.9311  -11.3897 C   0  0  1  0  0  0  0  0  0  0  0  0
  -20.2246   59.3890  -15.9249 C   0  0  0  0  0  0  0  0  0  0  0  0
  -17.7739   58.8784  -11.5783 C   0  0  0  0  0  0  0  0  0  0  0  0
  -20.0642   58.0273  -15.6960 C   0  0  0  0  0  0  0  0  0  0  0  0
  -20.2383   60.3476  -14.7270 C   0  0  0  0  0  0  0  0  0  0  0  0
  1 13  1  0  0  0  0
  3  4  1  0  0  0  0
  4  5  1  0  0  0  0
  6  5  1  6  0  0  0
  6 10  1  0  0  0  0
  6 14  2  0  0  0  0
  6 18  1  0  0  0  0
  7 11  1  6  0  0  0
  7 15  1  0  0  0  0
  7 19  2  0  0  0  0
  7 18  1  0  0  0  0
  8 25  1  0  0  0  0
  8 12  1  0  0  0  0
  9 26  2  0  0  0  0
  9 13  1  0  0  0  0
 12 16  1  0  0  0  0
 13 17  2  0  0  0  0
 16 20  1  0  0  0  0
 16 27  1  0  0  0  0
 17 21  1  0  0  0  0
 20  2  1  1  0  0  0
 20 23  1  0  0  0  0
 21 22  1  0  0  0  0
 21 24  2  0  0  0  0
 23  3  1  1  0  0  0
 23 25  1  0  0  0  0
 24 27  1  0  0  0  0
 24 26  1  0  0  0  0
M  CHG  2  10  -1  15  -1
M  END
>  <CHROM.1>
176.30285572,-175.67894084,-44.39266076,-30.65618901,59.34621935,81.66779247
-148.62639678,67.39505761,-20.43356784,57.38782479,-11.49599309,1.21935583
-1.16645104,-1.55086920

>  <Name>
ligand

>  <RI>
0

>  <Rbt.Current_Directory>
/home/itssahil/PROJECTS/Mol_Feturizer/New_Systems/rnas/3D2V

>  <Rbt.Executable>
rbdock ($Id: //depot/dev/client3/rdock/2013.1/src/exe/rbdock.cxx#4 $)

>  <Rbt.Library>
libRbt.so (2013.1, Build901 2013/11/27)

>  <Rbt.Parameter_File>
/export/apps/rDock/src/rDock_2013.1_src/data/scripts/dock_solv.prm

>  <Rbt.Receptor>
prm/blind_docking_100.prm

>  <SCORE>
-10.1618

>  <SCORE.INTER>
-8.39555

>  <SCORE.INTER.CONST>
1

>  <SCORE.INTER.POLAR>
0

>  <SCORE.INTER.ROT>
8

>  <SCORE.INTER.SOLV>
10.2081

>  <SCORE.INTER.VDW>
-17.9331

>  <SCORE.INTER.norm>
-0.310946

>  <SCORE.INTRA>
-1.77981

>  <SCORE.INTRA.DIHEDRAL>
-0.955272

>  <SCORE.INTRA.DIHEDRAL.0>
7.82666

>  <SCORE.INTRA.POLAR>
0

>  <SCORE.INTRA.POLAR.0>
0

>  <SCORE.INTRA.REPUL>
0

>  <SCORE.INTRA.REPUL.0>
0

>  <SCORE.INTRA.SOLV>
-2.35594

>  <SCORE.INTRA.SOLV.lig_0>
-83.2758

>  <SCORE.INTRA.VDW>
-0.124204

>  <SCORE.INTRA.VDW.0>
-3.26816

>  <SCORE.INTRA.norm>
-0.0659189

>  <SCORE.RESTR>
0.0135671

>  <SCORE.RESTR.CAVITY>
0.0135671

>  <SCORE.RESTR.norm>
0.000502485

>  <SCORE.SYSTEM>
0

>  <SCORE.SYSTEM.CONST>
0

>  <SCORE.SYSTEM.DIHEDRAL>
0

>  <SCORE.SYSTEM.SOLV>
0

>  <SCORE.SYSTEM.norm>
0

>  <SCORE.heavy>
27

>  <SCORE.norm>
-0.376363

>  <RMSD>
24.223

$$$$
ligand
 OpenBabel11021811463D
libRbt.so/2013.1/901 2013/11/27
 27 28  0  0  0  0  0  0  0  0999 V2000
  -17.9903   60.0590  -12.2431 C   0  0  0  0  0  0  0  0  0  0  0  0
  -24.9129   56.9278  -10.5265 C   0  0  0  0  0  0  0  0  0  0  0  0
  -24.8406   54.7698   -8.4497 C   0  0  0  0  0  0  0  0  0  0  0  0
  -24.3207   55.4425   -7.1778 C   0  0  0  0  0  0  0  0  0  0  0  0
  -24.1223   56.8424   -7.3907 O   0  0  0  0  0  0  0  0  0  0  0  0
  -23.6218   57.7759   -6.1832 P   0  0  1  0  0  0  0  0  0  0  0  0
  -22.1080   59.2945   -8.0159 P   0  0  2  0  0  0  0  0  0  0  0  0
  -21.8170   53.9282  -10.5946 C   0  0  0  0  0  0  0  0  0  0  0  0
  -19.6649   58.4649  -11.3256 N   0  0  0  0  0  0  0  0  0  0  0  0
  -24.8029   58.0460   -5.1347 O   0  5  0  0  0  0  0  0  0  0  0  0
  -22.6241   58.6528   -9.2424 O   0  0  0  0  0  0  0  0  0  0  0  0
  -21.8314   54.9199  -11.5664 C   0  0  0  0  0  0  0  0  0  0  0  0
  -19.2792   59.2432  -12.3485 C   0  0  0  0  0  0  0  0  0  0  0  0
  -22.3983   57.1271   -5.3492 O   0  0  0  0  0  0  0  0  0  0  0  0
  -20.7173   58.6429   -7.5501 O   0  5  0  0  0  0  0  0  0  0  0  0
  -22.8312   55.8933  -11.5425 N   0  0  0  0  0  0  0  0  0  0  0  0
  -20.0154   59.3134  -13.4670 N   0  0  0  0  0  0  0  0  0  0  0  0
  -23.0948   59.2028   -6.7601 O   0  0  0  0  0  0  0  0  0  0  0  0
  -21.7884   60.8362   -8.2703 O   0  0  0  0  0  0  0  0  0  0  0  0
  -23.8136   55.8567  -10.5457 C   0  0  1  0  0  0  0  0  0  0  0  0
  -21.1468   58.6062  -13.5781 C   0  0  0  0  0  0  0  0  0  0  0  0
  -21.8672   58.6824  -14.6924 N   0  0  0  0  0  0  0  0  0  0  0  0
  -23.7980   54.8611   -9.5702 C   0  0  2  0  0  0  0  0  0  0  0  0
  -21.5666   57.7911  -12.5339 C   0  0  0  0  0  0  0  0  0  0  0  0
  -22.7939   53.9013   -9.6067 C   0  0  0  0  0  0  0  0  0  0  0  0
  -20.7751   57.7491  -11.3919 C   0  0  0  0  0  0  0  0  0  0  0  0
  -22.8493   56.9507  -12.5806 C   0  0  0  0  0  0  0  0  0  0  0  0
  1 13  1  0  0  0  0
  3  4  1  0  0  0  0
  4  5  1  0  0  0  0
  6  5  1  6  0  0  0
  6 10  1  0  0  0  0
  6 14  2  0  0  0  0
  6 18  1  0  0  0  0
  7 11  1  6  0  0  0
  7 15  1  0  0  0  0
  7 19  2  0  0  0  0
  7 18  1  0  0  0  0
  8 25  1  0  0  0  0
  8 12  1  0  0  0  0
  9 26  2  0  0  0  0
  9 13  1  0  0  0  0
 12 16  1  0  0  0  0
 13 17  2  0  0  0  0
 16 20  1  0  0  0  0
 16 27  1  0  0  0  0
 17 21  1  0  0  0  0
 20  2  1  1  0  0  0
 20 23  1  0  0  0  0
 21 22  1  0  0  0  0
 21 24  2  0  0  0  0
 23  3  1  6  0  0  0
 23 25  1  0  0  0  0
 24 27  1  0  0  0  0
 24 26  1  0  0  0  0
M  CHG  2  10  -1  15  -1
M  END
>  <CHROM.1>
63.90002363,178.11165916,-74.57256612,-46.72412182,57.38128509,-95.85990262
162.63397174,-60.93440796,-22.35418232,57.58257752,-9.53053131,-0.73997671
0.91684653,1.03869459

>  <Name>
ligand

>  <RI>
0

>  <Rbt.Current_Directory>
/home/itssahil/PROJECTS/Mol_Feturizer/New_Systems/rnas/3D2V

>  <Rbt.Executable>
rbdock ($Id: //depot/dev/client3/rdock/2013.1/src/exe/rbdock.cxx#4 $)

>  <Rbt.Library>
libRbt.so (2013.1, Build901 2013/11/27)

>  <Rbt.Parameter_File>
/export/apps/rDock/src/rDock_2013.1_src/data/scripts/dock_solv.prm

>  <Rbt.Receptor>
prm/blind_docking_100.prm

>  <SCORE>
-18.1879

>  <SCORE.INTER>
-14.4695

>  <SCORE.INTER.CONST>
1

>  <SCORE.INTER.POLAR>
0

>  <SCORE.INTER.ROT>
8

>  <SCORE.INTER.SOLV>
20.6729

>  <SCORE.INTER.VDW>
-25.4706

>  <SCORE.INTER.norm>
-0.535906

>  <SCORE.INTRA>
-3.71844

>  <SCORE.INTRA.DIHEDRAL>
-1.93307

>  <SCORE.INTRA.DIHEDRAL.0>
7.82666

>  <SCORE.INTRA.POLAR>
0

>  <SCORE.INTRA.POLAR.0>
0

>  <SCORE.INTRA.REPUL>
0

>  <SCORE.INTRA.REPUL.0>
0

>  <SCORE.INTRA.SOLV>
-2.02881

>  <SCORE.INTRA.SOLV.lig_0>
-83.2758

>  <SCORE.INTRA.VDW>
-1.7375

>  <SCORE.INTRA.VDW.0>
-3.26816

>  <SCORE.INTRA.norm>
-0.13772

>  <SCORE.RESTR>
0

>  <SCORE.RESTR.CAVITY>
0

>  <SCORE.RESTR.norm>
0

>  <SCORE.SYSTEM>
0

>  <SCORE.SYSTEM.CONST>
0

>  <SCORE.SYSTEM.DIHEDRAL>
0

>  <SCORE.SYSTEM.SOLV>
0

>  <SCORE.SYSTEM.norm>
0

>  <SCORE.heavy>
27

>  <SCORE.norm>
-0.673626

>  <RMSD>
24.235

$$$$
ligand
 OpenBabel11021811463D
libRbt.so/2013.1/901 2013/11/27
 27 28  0  0  0  0  0  0  0  0999 V2000
  -19.8754   57.4975  -19.9870 C   0  0  0  0  0  0  0  0  0  0  0  0
  -21.0979   57.8371  -11.6805 C   0  0  0  0  0  0  0  0  0  0  0  0
  -23.5029   56.2927  -10.7825 C   0  0  0  0  0  0  0  0  0  0  0  0
  -23.2156   54.7916  -10.7149 C   0  0  0  0  0  0  0  0  0  0  0  0
  -21.8163   54.5372  -10.8618 O   0  0  0  0  0  0  0  0  0  0  0  0
  -20.8255   54.7509   -9.6158 P   0  0  1  0  0  0  0  0  0  0  0  0
  -20.7996   53.8849   -6.9315 P   0  0  2  0  0  0  0  0  0  0  0  0
  -24.2946   56.9666  -14.4391 C   0  0  0  0  0  0  0  0  0  0  0  0
  -20.3740   56.8584  -17.6354 N   0  0  0  0  0  0  0  0  0  0  0  0
  -19.2931   54.6589  -10.0746 O   0  5  0  0  0  0  0  0  0  0  0  0
  -21.6960   54.8730   -6.2971 O   0  0  0  0  0  0  0  0  0  0  0  0
  -23.1886   57.6834  -14.8764 C   0  0  0  0  0  0  0  0  0  0  0  0
  -20.1639   57.8407  -18.5252 C   0  0  0  0  0  0  0  0  0  0  0  0
  -21.0118   56.1889   -8.9008 O   0  0  0  0  0  0  0  0  0  0  0  0
  -19.2629   54.3389   -6.8400 O   0  5  0  0  0  0  0  0  0  0  0  0
  -22.1519   57.9621  -13.9847 N   0  0  0  0  0  0  0  0  0  0  0  0
  -20.2044   59.1257  -18.1442 N   0  0  0  0  0  0  0  0  0  0  0  0
  -21.1027   53.6200   -8.4797 O   0  0  0  0  0  0  0  0  0  0  0  0
  -20.8716   52.4821   -6.1760 O   0  0  0  0  0  0  0  0  0  0  0  0
  -22.2396   57.5245  -12.6577 C   0  0  1  0  0  0  0  0  0  0  0  0
  -20.4558   59.4459  -16.8689 C   0  0  0  0  0  0  0  0  0  0  0  0
  -20.4954   60.7232  -16.5035 N   0  0  0  0  0  0  0  0  0  0  0  0
  -23.3500   56.8046  -12.2197 C   0  0  2  0  0  0  0  0  0  0  0  0
  -20.6791   58.4473  -15.9287 C   0  0  0  0  0  0  0  0  0  0  0  0
  -24.3720   56.5331  -13.1211 C   0  0  0  0  0  0  0  0  0  0  0  0
  -20.6260   57.1286  -16.3655 C   0  0  0  0  0  0  0  0  0  0  0  0
  -20.9722   58.7292  -14.4494 C   0  0  0  0  0  0  0  0  0  0  0  0
  1 13  1  0  0  0  0
  3  4  1  0  0  0  0
  4  5  1  0  0  0  0
  6  5  1  6  0  0  0
  6 10  1  0  0  0  0
  6 14  2  0  0  0  0
  6 18  1  0  0  0  0
  7 11  1  1  0  0  0
  7 15  1  0  0  0  0
  7 19  2  0  0  0  0
  7 18  1  0  0  0  0
  8 25  1  0  0  0  0
  8 12  1  0  0  0  0
  9 26  2  0  0  0  0
  9 13  1  0  0  0  0
 12 16  1  0  0  0  0
 13 17  2  0  0  0  0
 16 20  1  0  0  0  0
 16 27  1  0  0  0  0
 17 21  1  0  0  0  0
 20  2  1  6  0  0  0
 20 23  1  0  0  0  0
 21 22  1  0  0  0  0
 21 24  2  0  0  0  0
 23  3  1  1  0  0  0
 23 25  1  0  0  0  0
 24 27  1  0  0  0  0
 24 26  1  0  0  0  0
M  CHG  2  10  -1  15  -1
M  END
>  <CHROM.1>
72.83843050,78.78668389,-169.98864790,-152.62784234,68.85920105,-103.23520404
131.30677501,-31.91579396,-21.29574272,56.27462512,-12.10232451,-1.56265089
-0.22172464,1.98900019

>  <Name>
ligand

>  <RI>
0

>  <Rbt.Current_Directory>
/home/itssahil/PROJECTS/Mol_Feturizer/New_Systems/rnas/3D2V

>  <Rbt.Executable>
rbdock ($Id: //depot/dev/client3/rdock/2013.1/src/exe/rbdock.cxx#4 $)

>  <Rbt.Library>
libRbt.so (2013.1, Build901 2013/11/27)

>  <Rbt.Parameter_File>
/export/apps/rDock/src/rDock_2013.1_src/data/scripts/dock_solv.prm

>  <Rbt.Receptor>
prm/blind_docking_100.prm

>  <SCORE>
-12.5248

>  <SCORE.INTER>
-13.5612

>  <SCORE.INTER.CONST>
1

>  <SCORE.INTER.POLAR>
0

>  <SCORE.INTER.ROT>
8

>  <SCORE.INTER.SOLV>
12.9317

>  <SCORE.INTER.VDW>
-22.2847

>  <SCORE.INTER.norm>
-0.502267

>  <SCORE.INTRA>
1.03639

>  <SCORE.INTRA.DIHEDRAL>
0.869899

>  <SCORE.INTRA.DIHEDRAL.0>
7.82666

>  <SCORE.INTRA.POLAR>
0

>  <SCORE.INTRA.POLAR.0>
0

>  <SCORE.INTRA.REPUL>
0

>  <SCORE.INTRA.REPUL.0>
0

>  <SCORE.INTRA.SOLV>
1.69996

>  <SCORE.INTRA.SOLV.lig_0>
-83.2758

>  <SCORE.INTRA.VDW>
-0.24854

>  <SCORE.INTRA.VDW.0>
-3.26816

>  <SCORE.INTRA.norm>
0.0383849

>  <SCORE.RESTR>
0

>  <SCORE.RESTR.CAVITY>
0

>  <SCORE.RESTR.norm>
0

>  <SCORE.SYSTEM>
0

>  <SCORE.SYSTEM.CONST>
0

>  <SCORE.SYSTEM.DIHEDRAL>
0

>  <SCORE.SYSTEM.SOLV>
0

>  <SCORE.SYSTEM.norm>
0

>  <SCORE.heavy>
27

>  <SCORE.norm>
-0.463882

>  <RMSD>
24.239

$$$$
ligand
 OpenBabel11021811463D
libRbt.so/2013.1/901 2013/11/27
 27 28  0  0  0  0  0  0  0  0999 V2000
  -19.1026   59.3869  -15.8923 C   0  0  0  0  0  0  0  0  0  0  0  0
  -20.3369   57.8136   -7.7391 C   0  0  0  0  0  0  0  0  0  0  0  0
  -22.9860   58.7935   -6.7406 C   0  0  0  0  0  0  0  0  0  0  0  0
  -23.8753   57.6079   -7.1203 C   0  0  0  0  0  0  0  0  0  0  0  0
  -23.0866   56.5194   -7.6073 O   0  0  0  0  0  0  0  0  0  0  0  0
  -23.8032   55.2148   -8.2111 P   0  0  1  0  0  0  0  0  0  0  0  0
  -22.5373   55.0931  -10.7289 P   0  0  2  0  0  0  0  0  0  0  0  0
  -22.4179   60.9774   -9.7999 C   0  0  0  0  0  0  0  0  0  0  0  0
  -20.1616   58.7511  -13.7332 N   0  0  0  0  0  0  0  0  0  0  0  0
  -23.0259   53.8801   -7.7852 O   0  5  0  0  0  0  0  0  0  0  0  0
  -22.5725   55.7906  -12.0307 O   0  0  0  0  0  0  0  0  0  0  0  0
  -21.1913   60.5379  -10.2802 C   0  0  0  0  0  0  0  0  0  0  0  0
  -19.1147   59.3033  -14.3656 C   0  0  0  0  0  0  0  0  0  0  0  0
  -25.3304   55.0444   -7.7092 O   0  0  0  0  0  0  0  0  0  0  0  0
  -22.3599   53.5087  -10.9136 O   0  5  0  0  0  0  0  0  0  0  0  0
  -20.5191   59.5112   -9.6156 N   0  0  0  0  0  0  0  0  0  0  0  0
  -18.0744   59.7846  -13.6698 N   0  0  0  0  0  0  0  0  0  0  0  0
  -23.8475   55.3015   -9.8350 O   0  0  0  0  0  0  0  0  0  0  0  0
  -21.2809   55.5612   -9.8650 O   0  0  0  0  0  0  0  0  0  0  0  0
  -21.0824   58.9400   -8.4681 C   0  0  1  0  0  0  0  0  0  0  0  0
  -18.0669   59.7207  -12.3325 C   0  0  0  0  0  0  0  0  0  0  0  0
  -17.0311   60.2028  -11.6536 N   0  0  0  0  0  0  0  0  0  0  0  0
  -22.3139   59.3816   -7.9870 C   0  0  1  0  0  0  0  0  0  0  0  0
  -19.1400   59.1558  -11.6541 C   0  0  0  0  0  0  0  0  0  0  0  0
  -22.9714   60.4026   -8.6622 C   0  0  0  0  0  0  0  0  0  0  0  0
  -20.1966   58.6672  -12.4138 C   0  0  0  0  0  0  0  0  0  0  0  0
  -19.2089   59.0430  -10.1255 C   0  0  0  0  0  0  0  0  0  0  0  0
  1 13  1  0  0  0  0
  3  4  1  0  0  0  0
  4  5  1  0  0  0  0
  6  5  1  1  0  0  0
  6 10  1  0  0  0  0
  6 14  2  0  0  0  0
  6 18  1  0  0  0  0
  7 11  1  6  0  0  0
  7 15  1  0  0  0  0
  7 19  2  0  0  0  0
  7 18  1  0  0  0  0
  8 25  1  0  0  0  0
  8 12  1  0  0  0  0
  9 26  2  0  0  0  0
  9 13  1  0  0  0  0
 12 16  1  0  0  0  0
 13 17  2  0  0  0  0
 16 20  1  0  0  0  0
 16 27  1  0  0  0  0
 17 21  1  0  0  0  0
 20  2  1  6  0  0  0
 20 23  1  0  0  0  0
 21 22  1  0  0  0  0
 21 24  2  0  0  0  0
 23  3  1  6  0  0  0
 23 25  1  0  0  0  0
 24 27  1  0  0  0  0
 24 26  1  0  0  0  0
M  CHG  2  10  -1  15  -1
M  END
>  <CHROM.1>
66.40099045,-173.72323264,-141.37817054,73.12561370,-152.77061584,-89.34723356
132.32539405,-32.44132163,-21.55075616,57.52329283,-10.15222875,0.01844916
-0.92680065,-2.39630888

>  <Name>
ligand

>  <RI>
0

>  <Rbt.Current_Directory>
/home/itssahil/PROJECTS/Mol_Feturizer/New_Systems/rnas/3D2V

>  <Rbt.Executable>
rbdock ($Id: //depot/dev/client3/rdock/2013.1/src/exe/rbdock.cxx#4 $)

>  <Rbt.Library>
libRbt.so (2013.1, Build901 2013/11/27)

>  <Rbt.Parameter_File>
/export/apps/rDock/src/rDock_2013.1_src/data/scripts/dock_solv.prm

>  <Rbt.Receptor>
prm/blind_docking_80.prm

>  <SCORE>
-10.7241

>  <SCORE.INTER>
-11.0851

>  <SCORE.INTER.CONST>
1

>  <SCORE.INTER.POLAR>
0

>  <SCORE.INTER.ROT>
8

>  <SCORE.INTER.SOLV>
18.3074

>  <SCORE.INTER.VDW>
-22.4259

>  <SCORE.INTER.norm>
-0.410561

>  <SCORE.INTRA>
0.361092

>  <SCORE.INTRA.DIHEDRAL>
0.689771

>  <SCORE.INTRA.DIHEDRAL.0>
7.82666

>  <SCORE.INTRA.POLAR>
0

>  <SCORE.INTRA.POLAR.0>
0

>  <SCORE.INTRA.REPUL>
0

>  <SCORE.INTRA.REPUL.0>
0

>  <SCORE.INTRA.SOLV>
1.4774

>  <SCORE.INTRA.SOLV.lig_0>
-83.2758

>  <SCORE.INTRA.VDW>
-0.722492

>  <SCORE.INTRA.VDW.0>
-3.26816

>  <SCORE.INTRA.norm>
0.0133738

>  <SCORE.RESTR>
0

>  <SCORE.RESTR.CAVITY>
0

>  <SCORE.RESTR.norm>
0

>  <SCORE.SYSTEM>
0

>  <SCORE.SYSTEM.CONST>
0

>  <SCORE.SYSTEM.DIHEDRAL>
0

>  <SCORE.SYSTEM.SOLV>
0

>  <SCORE.SYSTEM.norm>
0

>  <SCORE.heavy>
27

>  <SCORE.norm>
-0.397187

>  <RMSD>
24.259

$$$$
ligand
 OpenBabel11021811463D
libRbt.so/2013.1/901 2013/11/27
 27 28  0  0  0  0  0  0  0  0999 V2000
  -20.9089   55.8151   -4.4041 C   0  0  0  0  0  0  0  0  0  0  0  0
  -24.6075   59.9756  -10.3188 C   0  0  0  0  0  0  0  0  0  0  0  0
  -24.2916   58.7805  -13.0478 C   0  0  0  0  0  0  0  0  0  0  0  0
  -24.8563   58.0191  -14.2486 C   0  0  0  0  0  0  0  0  0  0  0  0
  -23.8985   57.0838  -14.7506 O   0  0  0  0  0  0  0  0  0  0  0  0
  -22.5892   57.6084  -15.5190 P   0  0  1  0  0  0  0  0  0  0  0  0
  -20.2716   59.1224  -14.9777 P   0  0  2  0  0  0  0  0  0  0  0  0
  -24.3476   55.7014  -10.8191 C   0  0  0  0  0  0  0  0  0  0  0  0
  -21.5260   57.2212   -6.3610 N   0  0  0  0  0  0  0  0  0  0  0  0
  -21.7578   56.3886  -16.1417 O   0  5  0  0  0  0  0  0  0  0  0  0
  -19.4061   58.2538  -15.8018 O   0  0  0  0  0  0  0  0  0  0  0  0
  -24.4945   56.2342   -9.5452 C   0  0  0  0  0  0  0  0  0  0  0  0
  -21.9349   56.4347   -5.3534 C   0  0  0  0  0  0  0  0  0  0  0  0
  -22.9332   58.6093  -16.7411 O   0  0  0  0  0  0  0  0  0  0  0  0
  -19.5164   59.6195  -13.6517 O   0  5  0  0  0  0  0  0  0  0  0  0
  -24.5825   57.6176   -9.3832 N   0  0  0  0  0  0  0  0  0  0  0  0
  -23.2395   56.1855   -5.1695 N   0  0  0  0  0  0  0  0  0  0  0  0
  -21.6295   58.4292  -14.4934 O   0  0  0  0  0  0  0  0  0  0  0  0
  -20.6606   60.4530  -15.7666 O   0  0  0  0  0  0  0  0  0  0  0  0
  -24.5139   58.4546  -10.5034 C   0  0  1  0  0  0  0  0  0  0  0  0
  -24.1528   56.7193   -5.9901 C   0  0  0  0  0  0  0  0  0  0  0  0
  -25.4432   56.4666   -5.7967 N   0  0  0  0  0  0  0  0  0  0  0  0
  -24.3669   57.9188  -11.7818 C   0  0  1  0  0  0  0  0  0  0  0  0
  -23.7551   57.5388   -7.0395 C   0  0  0  0  0  0  0  0  0  0  0  0
  -24.2839   56.5392  -11.9258 C   0  0  0  0  0  0  0  0  0  0  0  0
  -22.3932   57.7695   -7.1955 C   0  0  0  0  0  0  0  0  0  0  0  0
  -24.7366   58.1877   -8.0241 C   0  0  0  0  0  0  0  0  0  0  0  0
  1 13  1  0  0  0  0
  3  4  1  0  0  0  0
  4  5  1  0  0  0  0
  6  5  1  1  0  0  0
  6 10  1  0  0  0  0
  6 14  2  0  0  0  0
  6 18  1  0  0  0  0
  7 11  1  6  0  0  0
  7 15  1  0  0  0  0
  7 19  2  0  0  0  0
  7 18  1  0  0  0  0
  8 25  1  0  0  0  0
  8 12  1  0  0  0  0
  9 26  2  0  0  0  0
  9 13  1  0  0  0  0
 12 16  1  0  0  0  0
 13 17  2  0  0  0  0
 16 20  1  0  0  0  0
 16 27  1  0  0  0  0
 17 21  1  0  0  0  0
 20  2  1  6  0  0  0
 20 23  1  0  0  0  0
 21 22  1  0  0  0  0
 21 24  2  0  0  0  0
 23  3  1  6  0  0  0
 23 25  1  0  0  0  0
 24 27  1  0  0  0  0
 24 26  1  0  0  0  0
M  CHG  2  10  -1  15  -1
M  END
>  <CHROM.1>
-78.88717972,-70.89974457,-173.13706830,-177.73384245,-47.76995764,-150.22158699
-112.45429510,46.07465693,-22.78287699,57.78354469,-11.49564938,-1.75632084
-0.17200270,-1.42663456

>  <Name>
ligand

>  <RI>
0

>  <Rbt.Current_Directory>
/home/itssahil/PROJECTS/Mol_Feturizer/New_Systems/rnas/3D2V

>  <Rbt.Executable>
rbdock ($Id: //depot/dev/client3/rdock/2013.1/src/exe/rbdock.cxx#4 $)

>  <Rbt.Library>
libRbt.so (2013.1, Build901 2013/11/27)

>  <Rbt.Parameter_File>
/export/apps/rDock/src/rDock_2013.1_src/data/scripts/dock_solv.prm

>  <Rbt.Receptor>
prm/blind_docking_100.prm

>  <SCORE>
-8.30793

>  <SCORE.INTER>
-8.7767

>  <SCORE.INTER.CONST>
1

>  <SCORE.INTER.POLAR>
0

>  <SCORE.INTER.ROT>
8

>  <SCORE.INTER.SOLV>
19.4348

>  <SCORE.INTER.VDW>
-21.2627

>  <SCORE.INTER.norm>
-0.325063

>  <SCORE.INTRA>
0.468776

>  <SCORE.INTRA.DIHEDRAL>
-0.505506

>  <SCORE.INTRA.DIHEDRAL.0>
7.82666

>  <SCORE.INTRA.POLAR>
0

>  <SCORE.INTRA.POLAR.0>
0

>  <SCORE.INTRA.REPUL>
0

>  <SCORE.INTRA.REPUL.0>
0

>  <SCORE.INTRA.SOLV>
-0.283355

>  <SCORE.INTRA.SOLV.lig_0>
-83.2758

>  <SCORE.INTRA.VDW>
0.863206

>  <SCORE.INTRA.VDW.0>
-3.26816

>  <SCORE.INTRA.norm>
0.0173621

>  <SCORE.RESTR>
0

>  <SCORE.RESTR.CAVITY>
0

>  <SCORE.RESTR.norm>
0

>  <SCORE.SYSTEM>
0

>  <SCORE.SYSTEM.CONST>
0

>  <SCORE.SYSTEM.DIHEDRAL>
0

>  <SCORE.SYSTEM.SOLV>
0

>  <SCORE.SYSTEM.norm>
0

>  <SCORE.heavy>
27

>  <SCORE.norm>
-0.307701

>  <RMSD>
24.306

$$$$
ligand
 OpenBabel11021811463D
libRbt.so/2013.1/901 2013/11/27
 27 28  0  0  0  0  0  0  0  0999 V2000
  -24.3150   65.2252  -11.3598 C   0  0  0  0  0  0  0  0  0  0  0  0
  -21.8336   58.4321   -7.7412 C   0  0  0  0  0  0  0  0  0  0  0  0
  -19.0546   57.5549   -8.4361 C   0  0  0  0  0  0  0  0  0  0  0  0
  -19.0894   56.0374   -8.6278 C   0  0  0  0  0  0  0  0  0  0  0  0
  -20.3758   55.5139   -8.2884 O   0  0  0  0  0  0  0  0  0  0  0  0
  -20.8079   54.0523   -8.7953 P   0  0  1  0  0  0  0  0  0  0  0  0
  -19.6240   52.5068   -6.7541 P   0  0  2  0  0  0  0  0  0  0  0  0
  -20.2586   59.0860  -11.7007 C   0  0  0  0  0  0  0  0  0  0  0  0
  -23.8120   63.4552   -9.6860 N   0  0  0  0  0  0  0  0  0  0  0  0
  -22.2581   53.6549   -8.2421 O   0  5  0  0  0  0  0  0  0  0  0  0
  -18.6526   51.4240   -6.4961 O   0  0  0  0  0  0  0  0  0  0  0  0
  -21.5490   59.5010  -11.3997 C   0  0  0  0  0  0  0  0  0  0  0  0
  -24.0855   63.7667  -10.9624 C   0  0  0  0  0  0  0  0  0  0  0  0
  -20.8767   53.9378  -10.4064 O   0  0  0  0  0  0  0  0  0  0  0  0
  -21.1049   52.0919   -6.2953 O   0  5  0  0  0  0  0  0  0  0  0  0
  -22.0580   59.2929  -10.1170 N   0  0  0  0  0  0  0  0  0  0  0  0
  -24.1600   62.8081  -11.8971 N   0  0  0  0  0  0  0  0  0  0  0  0
  -19.7305   52.9433   -8.2894 O   0  0  0  0  0  0  0  0  0  0  0  0
  -19.2668   53.8078   -5.9034 O   0  0  0  0  0  0  0  0  0  0  0  0
  -21.2674   58.6615   -9.1492 C   0  0  1  0  0  0  0  0  0  0  0  0
  -23.9617   61.5255  -11.5685 C   0  0  0  0  0  0  0  0  0  0  0  0
  -24.0362   60.5844  -12.5040 N   0  0  0  0  0  0  0  0  0  0  0  0
  -19.9719   58.2457   -9.4522 C   0  0  1  0  0  0  0  0  0  0  0  0
  -23.6748   61.1773  -10.2542 C   0  0  0  0  0  0  0  0  0  0  0  0
  -19.4795   58.4632  -10.7332 C   0  0  0  0  0  0  0  0  0  0  0  0
  -23.6089   62.2016   -9.3167 C   0  0  0  0  0  0  0  0  0  0  0  0
  -23.4359   59.7330   -9.7951 C   0  0  0  0  0  0  0  0  0  0  0  0
  1 13  1  0  0  0  0
  3  4  1  0  0  0  0
  4  5  1  0  0  0  0
  6  5  1  1  0  0  0
  6 10  1  0  0  0  0
  6 14  2  0  0  0  0
  6 18  1  0  0  0  0
  7 11  1  1  0  0  0
  7 15  1  0  0  0  0
  7 19  2  0  0  0  0
  7 18  1  0  0  0  0
  8 25  1  0  0  0  0
  8 12  1  0  0  0  0
  9 26  2  0  0  0  0
  9 13  1  0  0  0  0
 12 16  1  0  0  0  0
 13 17  2  0  0  0  0
 16 20  1  0  0  0  0
 16 27  1  0  0  0  0
 17 21  1  0  0  0  0
 20  2  1  1  0  0  0
 20 23  1  0  0  0  0
 21 22  1  0  0  0  0
 21 24  2  0  0  0  0
 23  3  1  1  0  0  0
 23 25  1  0  0  0  0
 24 27  1  0  0  0  0
 24 26  1  0  0  0  0
M  CHG  2  10  -1  15  -1
M  END
>  <CHROM.1>
-67.16476911,162.22703948,177.52751523,71.39012299,176.09864560,98.10740111
79.86690747,-48.61285689,-21.40345900,57.35903328,-9.17285942,2.30398386
1.03265128,-1.02106970

>  <Name>
ligand

>  <RI>
0

>  <Rbt.Current_Directory>
/home/itssahil/PROJECTS/Mol_Feturizer/New_Systems/rnas/3D2V

>  <Rbt.Executable>
rbdock ($Id: //depot/dev/client3/rdock/2013.1/src/exe/rbdock.cxx#4 $)

>  <Rbt.Library>
libRbt.so (2013.1, Build901 2013/11/27)

>  <Rbt.Parameter_File>
/export/apps/rDock/src/rDock_2013.1_src/data/scripts/dock_solv.prm

>  <Rbt.Receptor>
prm/blind_docking_100.prm

>  <SCORE>
-12.8989

>  <SCORE.INTER>
-12.8105

>  <SCORE.INTER.CONST>
1

>  <SCORE.INTER.POLAR>
0

>  <SCORE.INTER.ROT>
8

>  <SCORE.INTER.SOLV>
17.7241

>  <SCORE.INTER.VDW>
-23.3817

>  <SCORE.INTER.norm>
-0.474464

>  <SCORE.INTRA>
-0.0932921

>  <SCORE.INTRA.DIHEDRAL>
-0.748465

>  <SCORE.INTRA.DIHEDRAL.0>
7.82666

>  <SCORE.INTRA.POLAR>
0

>  <SCORE.INTRA.POLAR.0>
0

>  <SCORE.INTRA.REPUL>
0

>  <SCORE.INTRA.REPUL.0>
0

>  <SCORE.INTRA.SOLV>
2.19599

>  <SCORE.INTRA.SOLV.lig_0>
-83.2758

>  <SCORE.INTRA.VDW>
-0.817055

>  <SCORE.INTRA.VDW.0>
-3.26816

>  <SCORE.INTRA.norm>
-0.00345526

>  <SCORE.RESTR>
0.00488627

>  <SCORE.RESTR.CAVITY>
0.00488627

>  <SCORE.RESTR.norm>
0.000180973

>  <SCORE.SYSTEM>
0

>  <SCORE.SYSTEM.CONST>
0

>  <SCORE.SYSTEM.DIHEDRAL>
0

>  <SCORE.SYSTEM.SOLV>
0

>  <SCORE.SYSTEM.norm>
0

>  <SCORE.heavy>
27

>  <SCORE.norm>
-0.477739

>  <RMSD>
24.321

$$$$
ligand
 OpenBabel11021811463D
libRbt.so/2013.1/901 2013/11/27
 27 28  0  0  0  0  0  0  0  0999 V2000
  -16.6423   61.7454  -11.4166 C   0  0  0  0  0  0  0  0  0  0  0  0
  -21.5252   55.5023  -11.0292 C   0  0  0  0  0  0  0  0  0  0  0  0
  -24.4022   56.1514  -11.5556 C   0  0  0  0  0  0  0  0  0  0  0  0
  -24.6738   56.7251  -12.9476 C   0  0  0  0  0  0  0  0  0  0  0  0
  -23.4590   56.8424  -13.6924 O   0  0  0  0  0  0  0  0  0  0  0  0
  -23.4688   57.5340  -15.1421 P   0  0  1  0  0  0  0  0  0  0  0  0
  -21.6236   58.4562  -17.0659 P   0  0  2  0  0  0  0  0  0  0  0  0
  -23.2494   59.1641   -9.5442 C   0  0  0  0  0  0  0  0  0  0  0  0
  -18.7828   60.4862  -11.2752 N   0  0  0  0  0  0  0  0  0  0  0  0
  -24.3031   56.6588  -16.1934 O   0  5  0  0  0  0  0  0  0  0  0  0
  -22.3277   59.7439  -17.2349 O   0  0  0  0  0  0  0  0  0  0  0  0
  -21.9136   58.8832   -9.2892 C   0  0  0  0  0  0  0  0  0  0  0  0
  -17.4982   60.5883  -10.9005 C   0  0  0  0  0  0  0  0  0  0  0  0
  -24.1322   59.0082  -15.1336 O   0  0  0  0  0  0  0  0  0  0  0  0
  -21.9861   57.4272  -18.2429 O   0  5  0  0  0  0  0  0  0  0  0  0
  -21.3541   57.6997   -9.7730 N   0  0  0  0  0  0  0  0  0  0  0  0
  -16.9550   59.6824  -10.0746 N   0  0  0  0  0  0  0  0  0  0  0  0
  -21.9470   57.7049  -15.6911 O   0  0  0  0  0  0  0  0  0  0  0  0
  -20.0433   58.6551  -17.1500 O   0  0  0  0  0  0  0  0  0  0  0  0
  -22.1450   56.8041  -10.5027 C   0  0  1  0  0  0  0  0  0  0  0  0
  -17.6886   58.6625   -9.6120 C   0  0  0  0  0  0  0  0  0  0  0  0
  -17.1396   57.7718   -8.7924 N   0  0  0  0  0  0  0  0  0  0  0  0
  -23.4857   57.0872  -10.7585 C   0  0  2  0  0  0  0  0  0  0  0  0
  -19.0216   58.5357   -9.9833 C   0  0  0  0  0  0  0  0  0  0  0  0
  -24.0264   58.2712  -10.2722 C   0  0  0  0  0  0  0  0  0  0  0  0
  -19.5444   59.4953  -10.8426 C   0  0  0  0  0  0  0  0  0  0  0  0
  -19.9294   57.3975   -9.4994 C   0  0  0  0  0  0  0  0  0  0  0  0
  1 13  1  0  0  0  0
  3  4  1  0  0  0  0
  4  5  1  0  0  0  0
  6  5  1  1  0  0  0
  6 10  1  0  0  0  0
  6 14  2  0  0  0  0
  6 18  1  0  0  0  0
  7 11  1  6  0  0  0
  7 15  1  0  0  0  0
  7 19  2  0  0  0  0
  7 18  1  0  0  0  0
  8 25  1  0  0  0  0
  8 12  1  0  0  0  0
  9 26  2  0  0  0  0
  9 13  1  0  0  0  0
 12 16  1  0  0  0  0
 13 17  2  0  0  0  0
 16 20  1  0  0  0  0
 16 27  1  0  0  0  0
 17 21  1  0  0  0  0
 20  2  1  6  0  0  0
 20 23  1  0  0  0  0
 21 22  1  0  0  0  0
 21 24  2  0  0  0  0
 23  3  1  1  0  0  0
 23 25  1  0  0  0  0
 24 27  1  0  0  0  0
 24 26  1  0  0  0  0
M  CHG  2  10  -1  15  -1
M  END
>  <CHROM.1>
62.01552550,-174.95404070,-66.22742756,-175.60795977,46.45802377,-106.47981759
165.81834133,-55.43064854,-21.38909298,58.20424419,-12.88561031,-0.93208738
-0.46049348,-1.43426467

>  <Name>
ligand

>  <RI>
0

>  <Rbt.Current_Directory>
/home/itssahil/PROJECTS/Mol_Feturizer/New_Systems/rnas/3D2V

>  <Rbt.Executable>
rbdock ($Id: //depot/dev/client3/rdock/2013.1/src/exe/rbdock.cxx#4 $)

>  <Rbt.Library>
libRbt.so (2013.1, Build901 2013/11/27)

>  <Rbt.Parameter_File>
/export/apps/rDock/src/rDock_2013.1_src/data/scripts/dock_solv.prm

>  <Rbt.Receptor>
prm/blind_docking_80.prm

>  <SCORE>
-13.5306

>  <SCORE.INTER>
-12.1033

>  <SCORE.INTER.CONST>
1

>  <SCORE.INTER.POLAR>
0

>  <SCORE.INTER.ROT>
8

>  <SCORE.INTER.SOLV>
18.9021

>  <SCORE.INTER.VDW>
-23.3029

>  <SCORE.INTER.norm>
-0.44827

>  <SCORE.INTRA>
-1.43507

>  <SCORE.INTRA.DIHEDRAL>
-2.12737

>  <SCORE.INTRA.DIHEDRAL.0>
7.82666

>  <SCORE.INTRA.POLAR>
0

>  <SCORE.INTRA.POLAR.0>
0

>  <SCORE.INTRA.REPUL>
0

>  <SCORE.INTRA.REPUL.0>
0

>  <SCORE.INTRA.SOLV>
-0.991654

>  <SCORE.INTRA.SOLV.lig_0>
-83.2758

>  <SCORE.INTRA.VDW>
0.124436

>  <SCORE.INTRA.VDW.0>
-3.26816

>  <SCORE.INTRA.norm>
-0.0531509

>  <SCORE.RESTR>
0.00781573

>  <SCORE.RESTR.CAVITY>
0.00781573

>  <SCORE.RESTR.norm>
0.000289472

>  <SCORE.SYSTEM>
0

>  <SCORE.SYSTEM.CONST>
0

>  <SCORE.SYSTEM.DIHEDRAL>
0

>  <SCORE.SYSTEM.SOLV>
0

>  <SCORE.SYSTEM.norm>
0

>  <SCORE.heavy>
27

>  <SCORE.norm>
-0.501132

>  <RMSD>
24.432

$$$$
ligand
 OpenBabel11021811463D
libRbt.so/2013.1/901 2013/11/27
 27 28  0  0  0  0  0  0  0  0999 V2000
  -19.5182   59.2304  -14.6076 C   0  0  0  0  0  0  0  0  0  0  0  0
  -24.5168   58.0574   -8.7392 C   0  0  0  0  0  0  0  0  0  0  0  0
  -23.3291   58.3383   -6.0031 C   0  0  0  0  0  0  0  0  0  0  0  0
  -22.7918   56.9410   -6.3183 C   0  0  0  0  0  0  0  0  0  0  0  0
  -21.4410   57.0110   -6.7817 O   0  0  0  0  0  0  0  0  0  0  0  0
  -20.8110   55.7871   -7.6095 P   0  0  1  0  0  0  0  0  0  0  0  0
  -21.4000   54.3476   -9.9626 P   0  0  2  0  0  0  0  0  0  0  0  0
  -21.7750   61.2669   -7.8629 C   0  0  0  0  0  0  0  0  0  0  0  0
  -20.4785   59.1256  -12.3155 N   0  0  0  0  0  0  0  0  0  0  0  0
  -19.4392   56.2151   -8.3181 O   0  5  0  0  0  0  0  0  0  0  0  0
  -22.3965   53.3289  -10.3523 O   0  0  0  0  0  0  0  0  0  0  0  0
  -22.3144   61.1556   -9.1376 C   0  0  0  0  0  0  0  0  0  0  0  0
  -20.6560   59.4400  -13.6080 C   0  0  0  0  0  0  0  0  0  0  0  0
  -20.4763   54.5048   -6.6836 O   0  0  0  0  0  0  0  0  0  0  0  0
  -20.0118   53.6750   -9.5195 O   0  5  0  0  0  0  0  0  0  0  0  0
  -23.2049   60.1190   -9.4207 N   0  0  0  0  0  0  0  0  0  0  0  0
  -21.8257   59.9384  -14.0339 N   0  0  0  0  0  0  0  0  0  0  0  0
  -21.8571   55.2851   -8.7497 O   0  0  0  0  0  0  0  0  0  0  0  0
  -21.0376   55.2918  -11.1959 O   0  0  0  0  0  0  0  0  0  0  0  0
  -23.5397   59.1976   -8.4212 C   0  0  1  0  0  0  0  0  0  0  0  0
  -22.8337   60.1287  -13.1736 C   0  0  0  0  0  0  0  0  0  0  0  0
  -23.9891   60.6215  -13.6079 N   0  0  0  0  0  0  0  0  0  0  0  0
  -22.9981   59.3105   -7.1417 C   0  0  2  0  0  0  0  0  0  0  0  0
  -22.6759   59.8089  -11.8306 C   0  0  0  0  0  0  0  0  0  0  0  0
  -22.1153   60.3501   -6.8758 C   0  0  0  0  0  0  0  0  0  0  0  0
  -21.4468   59.2969  -11.4310 C   0  0  0  0  0  0  0  0  0  0  0  0
  -23.7792   59.9975  -10.7813 C   0  0  0  0  0  0  0  0  0  0  0  0
  1 13  1  0  0  0  0
  3  4  1  0  0  0  0
  4  5  1  0  0  0  0
  6  5  1  1  0  0  0
  6 10  1  0  0  0  0
  6 14  2  0  0  0  0
  6 18  1  0  0  0  0
  7 11  1  6  0  0  0
  7 15  1  0  0  0  0
  7 19  2  0  0  0  0
  7 18  1  0  0  0  0
  8 25  1  0  0  0  0
  8 12  1  0  0  0  0
  9 26  2  0  0  0  0
  9 13  1  0  0  0  0
 12 16  1  0  0  0  0
 13 17  2  0  0  0  0
 16 20  1  0  0  0  0
 16 27  1  0  0  0  0
 17 21  1  0  0  0  0
 20  2  1  1  0  0  0
 20 23  1  0  0  0  0
 21 22  1  0  0  0  0
 21 24  2  0  0  0  0
 23  3  1  6  0  0  0
 23 25  1  0  0  0  0
 24 27  1  0  0  0  0
 24 26  1  0  0  0  0
M  CHG  2  10  -1  15  -1
M  END
>  <CHROM.1>
46.80256362,-160.38045783,166.40069549,164.34292871,142.51771158,66.09016894
-156.57721710,59.92340350,-21.83337253,57.63327505,-9.68096488,-1.92161352
-1.17510365,2.06979936

>  <Name>
ligand

>  <RI>
0

>  <Rbt.Current_Directory>
/home/itssahil/PROJECTS/Mol_Feturizer/New_Systems/rnas/3D2V

>  <Rbt.Executable>
rbdock ($Id: //depot/dev/client3/rdock/2013.1/src/exe/rbdock.cxx#4 $)

>  <Rbt.Library>
libRbt.so (2013.1, Build901 2013/11/27)

>  <Rbt.Parameter_File>
/export/apps/rDock/src/rDock_2013.1_src/data/scripts/dock_solv.prm

>  <Rbt.Receptor>
prm/blind_docking_80.prm

>  <SCORE>
-10.7681

>  <SCORE.INTER>
-12.3837

>  <SCORE.INTER.CONST>
1

>  <SCORE.INTER.POLAR>
0

>  <SCORE.INTER.ROT>
8

>  <SCORE.INTER.SOLV>
15.0603

>  <SCORE.INTER.VDW>
-22.2092

>  <SCORE.INTER.norm>
-0.458654

>  <SCORE.INTRA>
1.61189

>  <SCORE.INTRA.DIHEDRAL>
2.03736

>  <SCORE.INTRA.DIHEDRAL.0>
7.82666

>  <SCORE.INTRA.POLAR>
0

>  <SCORE.INTRA.POLAR.0>
0

>  <SCORE.INTRA.REPUL>
0

>  <SCORE.INTRA.REPUL.0>
0

>  <SCORE.INTRA.SOLV>
0.878549

>  <SCORE.INTRA.SOLV.lig_0>
-83.2758

>  <SCORE.INTRA.VDW>
0.153935

>  <SCORE.INTRA.VDW.0>
-3.26816

>  <SCORE.INTRA.norm>
0.0596996

>  <SCORE.RESTR>
0.00364316

>  <SCORE.RESTR.CAVITY>
0.00364316

>  <SCORE.RESTR.norm>
0.000134932

>  <SCORE.SYSTEM>
0

>  <SCORE.SYSTEM.CONST>
0

>  <SCORE.SYSTEM.DIHEDRAL>
0

>  <SCORE.SYSTEM.SOLV>
0

>  <SCORE.SYSTEM.norm>
0

>  <SCORE.heavy>
27

>  <SCORE.norm>
-0.39882

>  <RMSD>
24.530

$$$$
ligand
 OpenBabel11021811463D
libRbt.so/2013.1/901 2013/11/27
 27 28  0  0  0  0  0  0  0  0999 V2000
  -19.9612   55.4821   -5.9256 C   0  0  0  0  0  0  0  0  0  0  0  0
  -25.0037   56.7405   -9.8393 C   0  0  0  0  0  0  0  0  0  0  0  0
  -24.7181   57.8740  -12.5977 C   0  0  0  0  0  0  0  0  0  0  0  0
  -23.5703   56.8732  -12.7445 C   0  0  0  0  0  0  0  0  0  0  0  0
  -23.3357   56.5709  -14.1221 O   0  0  0  0  0  0  0  0  0  0  0  0
  -22.6133   57.6483  -15.0695 P   0  0  1  0  0  0  0  0  0  0  0  0
  -20.7794   57.5980  -17.2121 P   0  0  2  0  0  0  0  0  0  0  0  0
  -24.0251   60.9009  -10.4049 C   0  0  0  0  0  0  0  0  0  0  0  0
  -22.4119   55.7841   -6.2262 N   0  0  0  0  0  0  0  0  0  0  0  0
  -23.6584   58.7381  -15.6055 O   0  5  0  0  0  0  0  0  0  0  0  0
  -19.4794   57.7093  -16.5192 O   0  0  0  0  0  0  0  0  0  0  0  0
  -24.1520   60.3960   -9.1176 C   0  0  0  0  0  0  0  0  0  0  0  0
  -21.1791   56.2965   -6.3629 C   0  0  0  0  0  0  0  0  0  0  0  0
  -21.4368   58.4623  -14.3168 O   0  0  0  0  0  0  0  0  0  0  0  0
  -21.3418   59.0375  -17.6450 O   0  5  0  0  0  0  0  0  0  0  0  0
  -24.4651   59.0484   -8.9340 N   0  0  0  0  0  0  0  0  0  0  0  0
  -21.0033   57.5207   -6.8813 N   0  0  0  0  0  0  0  0  0  0  0  0
  -21.9302   56.9038  -16.3445 O   0  0  0  0  0  0  0  0  0  0  0  0
  -20.6328   56.7754  -18.5707 O   0  0  0  0  0  0  0  0  0  0  0  0
  -24.6559   58.2210  -10.0472 C   0  0  1  0  0  0  0  0  0  0  0  0
  -22.0574   58.2487   -7.2701 C   0  0  0  0  0  0  0  0  0  0  0  0
  -21.8706   59.4600   -7.7842 N   0  0  0  0  0  0  0  0  0  0  0  0
  -24.5278   58.7287  -11.3390 C   0  0  1  0  0  0  0  0  0  0  0  0
  -23.3440   57.7397   -7.1412 C   0  0  0  0  0  0  0  0  0  0  0  0
  -24.2128   60.0719  -11.5042 C   0  0  0  0  0  0  0  0  0  0  0  0
  -23.4815   56.4679   -6.5971 C   0  0  0  0  0  0  0  0  0  0  0  0
  -24.6034   58.5088   -7.5609 C   0  0  0  0  0  0  0  0  0  0  0  0
  1 13  1  0  0  0  0
  3  4  1  0  0  0  0
  4  5  1  0  0  0  0
  6  5  1  1  0  0  0
  6 10  1  0  0  0  0
  6 14  2  0  0  0  0
  6 18  1  0  0  0  0
  7 11  1  1  0  0  0
  7 15  1  0  0  0  0
  7 19  2  0  0  0  0
  7 18  1  0  0  0  0
  8 25  1  0  0  0  0
  8 12  1  0  0  0  0
  9 26  2  0  0  0  0
  9 13  1  0  0  0  0
 12 16  1  0  0  0  0
 13 17  2  0  0  0  0
 16 20  1  0  0  0  0
 16 27  1  0  0  0  0
 17 21  1  0  0  0  0
 20  2  1  1  0  0  0
 20 23  1  0  0  0  0
 21 22  1  0  0  0  0
 21 24  2  0  0  0  0
 23  3  1  1  0  0  0
 23 25  1  0  0  0  0
 24 27  1  0  0  0  0
 24 26  1  0  0  0  0
M  CHG  2  10  -1  15  -1
M  END
>  <CHROM.1>
-150.76634183,74.10191804,-82.26177664,-160.77356573,71.15341060,-69.73469733
49.68355975,-101.24572977,-22.59897357,57.85100498,-11.90681393,-1.73002505
0.57074100,-1.46896580

>  <Name>
ligand

>  <RI>
0

>  <Rbt.Current_Directory>
/home/itssahil/PROJECTS/Mol_Feturizer/New_Systems/rnas/3D2V

>  <Rbt.Executable>
rbdock ($Id: //depot/dev/client3/rdock/2013.1/src/exe/rbdock.cxx#4 $)

>  <Rbt.Library>
libRbt.so (2013.1, Build901 2013/11/27)

>  <Rbt.Parameter_File>
/export/apps/rDock/src/rDock_2013.1_src/data/scripts/dock_solv.prm

>  <Rbt.Receptor>
prm/blind_docking_80.prm

>  <SCORE>
-6.49122

>  <SCORE.INTER>
-9.36741

>  <SCORE.INTER.CONST>
1

>  <SCORE.INTER.POLAR>
0

>  <SCORE.INTER.ROT>
8

>  <SCORE.INTER.SOLV>
14.799

>  <SCORE.INTER.VDW>
-20.1113

>  <SCORE.INTER.norm>
-0.346941

>  <SCORE.INTRA>
2.87619

>  <SCORE.INTRA.DIHEDRAL>
2.46247

>  <SCORE.INTRA.DIHEDRAL.0>
7.82666

>  <SCORE.INTRA.POLAR>
0

>  <SCORE.INTRA.POLAR.0>
0

>  <SCORE.INTRA.REPUL>
0

>  <SCORE.INTRA.REPUL.0>
0

>  <SCORE.INTRA.SOLV>
3.31263

>  <SCORE.INTRA.SOLV.lig_0>
-83.2758

>  <SCORE.INTRA.VDW>
-0.0113605

>  <SCORE.INTRA.VDW.0>
-3.26816

>  <SCORE.INTRA.norm>
0.106525

>  <SCORE.RESTR>
0

>  <SCORE.RESTR.CAVITY>
0

>  <SCORE.RESTR.norm>
0

>  <SCORE.SYSTEM>
0

>  <SCORE.SYSTEM.CONST>
0

>  <SCORE.SYSTEM.DIHEDRAL>
0

>  <SCORE.SYSTEM.SOLV>
0

>  <SCORE.SYSTEM.norm>
0

>  <SCORE.heavy>
27

>  <SCORE.norm>
-0.240416

>  <RMSD>
24.536

$$$$
ligand
 OpenBabel11021811463D
libRbt.so/2013.1/901 2013/11/27
 27 28  0  0  0  0  0  0  0  0999 V2000
  -21.8288   56.0012   -3.6921 C   0  0  0  0  0  0  0  0  0  0  0  0
  -24.5880   57.9873  -10.7588 C   0  0  0  0  0  0  0  0  0  0  0  0
  -22.6933   59.4472  -12.5627 C   0  0  0  0  0  0  0  0  0  0  0  0
  -21.8786   58.1716  -12.7857 C   0  0  0  0  0  0  0  0  0  0  0  0
  -20.5124   58.4863  -13.0662 O   0  0  0  0  0  0  0  0  0  0  0  0
  -20.0876   58.9867  -14.5322 P   0  0  1  0  0  0  0  0  0  0  0  0
  -21.0164   60.7936  -16.4890 P   0  0  2  0  0  0  0  0  0  0  0  0
  -22.0329   61.0895   -9.1985 C   0  0  0  0  0  0  0  0  0  0  0  0
  -23.2881   57.8121   -4.5741 N   0  0  0  0  0  0  0  0  0  0  0  0
  -18.5532   59.4467  -14.5629 O   0  5  0  0  0  0  0  0  0  0  0  0
  -21.4058   59.7962  -17.5069 O   0  0  0  0  0  0  0  0  0  0  0  0
  -22.9033   60.4250   -8.3446 C   0  0  0  0  0  0  0  0  0  0  0  0
  -22.5714   56.7062   -4.8276 C   0  0  0  0  0  0  0  0  0  0  0  0
  -20.2533   57.8425  -15.6622 O   0  0  0  0  0  0  0  0  0  0  0  0
  -19.5412   61.3655  -16.7581 O   0  5  0  0  0  0  0  0  0  0  0  0
  -23.7279   59.4182   -8.8486 N   0  0  0  0  0  0  0  0  0  0  0  0
  -22.4994   56.2107   -6.0715 N   0  0  0  0  0  0  0  0  0  0  0  0
  -21.0208   60.2386  -14.9886 O   0  0  0  0  0  0  0  0  0  0  0  0
  -21.9783   62.0648  -16.5391 O   0  0  0  0  0  0  0  0  0  0  0  0
  -23.6762   59.0931  -10.2094 C   0  0  1  0  0  0  0  0  0  0  0  0
  -23.1430   56.8139   -7.0786 C   0  0  0  0  0  0  0  0  0  0  0  0
  -23.0658   56.3124   -8.3070 N   0  0  0  0  0  0  0  0  0  0  0  0
  -22.8017   59.7604  -11.0656 C   0  0  1  0  0  0  0  0  0  0  0  0
  -23.8937   57.9590   -6.8418 C   0  0  0  0  0  0  0  0  0  0  0  0
  -21.9855   60.7582  -10.5471 C   0  0  0  0  0  0  0  0  0  0  0  0
  -23.9399   58.4402   -5.5384 C   0  0  0  0  0  0  0  0  0  0  0  0
  -24.6591   58.7101   -7.9390 C   0  0  0  0  0  0  0  0  0  0  0  0
  1 13  1  0  0  0  0
  3  4  1  0  0  0  0
  4  5  1  0  0  0  0
  6  5  1  1  0  0  0
  6 10  1  0  0  0  0
  6 14  2  0  0  0  0
  6 18  1  0  0  0  0
  7 11  1  6  0  0  0
  7 15  1  0  0  0  0
  7 19  2  0  0  0  0
  7 18  1  0  0  0  0
  8 25  1  0  0  0  0
  8 12  1  0  0  0  0
  9 26  2  0  0  0  0
  9 13  1  0  0  0  0
 12 16  1  0  0  0  0
 13 17  2  0  0  0  0
 16 20  1  0  0  0  0
 16 27  1  0  0  0  0
 17 21  1  0  0  0  0
 20  2  1  1  0  0  0
 20 23  1  0  0  0  0
 21 22  1  0  0  0  0
 21 24  2  0  0  0  0
 23  3  1  1  0  0  0
 23 25  1  0  0  0  0
 24 27  1  0  0  0  0
 24 26  1  0  0  0  0
M  CHG  2  10  -1  15  -1
M  END
>  <CHROM.1>
-95.90928040,-78.39428204,173.09924671,-169.19800951,59.52934848,-77.71768917
-71.40670969,-62.26204724,-21.98009752,58.99589048,-11.37038393,-1.91854587
0.77586335,-1.05801591

>  <Name>
ligand

>  <RI>
0

>  <Rbt.Current_Directory>
/home/itssahil/PROJECTS/Mol_Feturizer/New_Systems/rnas/3D2V

>  <Rbt.Executable>
rbdock ($Id: //depot/dev/client3/rdock/2013.1/src/exe/rbdock.cxx#4 $)

>  <Rbt.Library>
libRbt.so (2013.1, Build901 2013/11/27)

>  <Rbt.Parameter_File>
/export/apps/rDock/src/rDock_2013.1_src/data/scripts/dock_solv.prm

>  <Rbt.Receptor>
prm/blind_docking_80.prm

>  <SCORE>
-7.84675

>  <SCORE.INTER>
-9.8802

>  <SCORE.INTER.CONST>
1

>  <SCORE.INTER.POLAR>
0

>  <SCORE.INTER.ROT>
8

>  <SCORE.INTER.SOLV>
14.9206

>  <SCORE.INTER.VDW>
-20.4937

>  <SCORE.INTER.norm>
-0.365933

>  <SCORE.INTRA>
2.03344

>  <SCORE.INTRA.DIHEDRAL>
2.7765

>  <SCORE.INTRA.DIHEDRAL.0>
7.82666

>  <SCORE.INTRA.POLAR>
0

>  <SCORE.INTRA.POLAR.0>
0

>  <SCORE.INTRA.REPUL>
0

>  <SCORE.INTRA.REPUL.0>
0

>  <SCORE.INTRA.SOLV>
2.38398

>  <SCORE.INTRA.SOLV.lig_0>
-83.2758

>  <SCORE.INTRA.VDW>
-0.546799

>  <SCORE.INTRA.VDW.0>
-3.26816

>  <SCORE.INTRA.norm>
0.0753127

>  <SCORE.RESTR>
0

>  <SCORE.RESTR.CAVITY>
0

>  <SCORE.RESTR.norm>
0

>  <SCORE.SYSTEM>
0

>  <SCORE.SYSTEM.CONST>
0

>  <SCORE.SYSTEM.DIHEDRAL>
0

>  <SCORE.SYSTEM.SOLV>
0

>  <SCORE.SYSTEM.norm>
0

>  <SCORE.heavy>
27

>  <SCORE.norm>
-0.29062

>  <RMSD>
24.591

$$$$
ligand
 OpenBabel11021811463D
libRbt.so/2013.1/901 2013/11/27
 27 28  0  0  0  0  0  0  0  0999 V2000
  -19.2937   59.7433  -16.7409 C   0  0  0  0  0  0  0  0  0  0  0  0
  -20.1778   56.8072   -9.6749 C   0  0  0  0  0  0  0  0  0  0  0  0
  -21.5502   54.1511   -9.4826 C   0  0  0  0  0  0  0  0  0  0  0  0
  -22.5446   53.8309   -8.3649 C   0  0  0  0  0  0  0  0  0  0  0  0
  -22.7681   54.9787   -7.5423 O   0  0  0  0  0  0  0  0  0  0  0  0
  -24.2293   55.2628   -6.9390 P   0  0  1  0  0  0  0  0  0  0  0  0
  -24.1916   58.0679   -7.2332 P   0  0  2  0  0  0  0  0  0  0  0  0
  -23.7775   56.0367  -11.9188 C   0  0  0  0  0  0  0  0  0  0  0  0
  -19.0446   59.0440  -14.3669 N   0  0  0  0  0  0  0  0  0  0  0  0
  -25.2346   54.0603   -7.2711 O   0  5  0  0  0  0  0  0  0  0  0  0
  -24.8159   59.1947   -7.9564 O   0  0  0  0  0  0  0  0  0  0  0  0
  -23.1571   57.2746  -12.0231 C   0  0  0  0  0  0  0  0  0  0  0  0
  -19.8479   59.5115  -15.3349 C   0  0  0  0  0  0  0  0  0  0  0  0
  -24.2257   55.4362   -5.3316 O   0  0  0  0  0  0  0  0  0  0  0  0
  -22.6258   57.9496   -7.5649 O   0  5  0  0  0  0  0  0  0  0  0  0
  -21.9897   57.5232  -11.2998 N   0  0  0  0  0  0  0  0  0  0  0  0
  -21.1371   59.7788  -15.0810 N   0  0  0  0  0  0  0  0  0  0  0  0
  -24.8335   56.6396   -7.5602 O   0  0  0  0  0  0  0  0  0  0  0  0
  -24.2740   58.2873   -5.6555 O   0  0  0  0  0  0  0  0  0  0  0  0
  -21.4600   56.5270  -10.4709 C   0  0  1  0  0  0  0  0  0  0  0  0
  -21.6406   59.5820  -13.8562 C   0  0  0  0  0  0  0  0  0  0  0  0
  -22.9205   59.8487  -13.6170 N   0  0  0  0  0  0  0  0  0  0  0  0
  -22.0832   55.2844  -10.3672 C   0  0  1  0  0  0  0  0  0  0  0  0
  -20.8301   59.0964  -12.8373 C   0  0  0  0  0  0  0  0  0  0  0  0
  -23.2431   55.0524  -11.0964 C   0  0  0  0  0  0  0  0  0  0  0  0
  -19.4995   58.8345  -13.1428 C   0  0  0  0  0  0  0  0  0  0  0  0
  -21.3281   58.8446  -11.4081 C   0  0  0  0  0  0  0  0  0  0  0  0
  1 13  1  0  0  0  0
  3  4  1  0  0  0  0
  4  5  1  0  0  0  0
  6  5  1  6  0  0  0
  6 10  1  0  0  0  0
  6 14  2  0  0  0  0
  6 18  1  0  0  0  0
  7 11  1  6  0  0  0
  7 15  1  0  0  0  0
  7 19  2  0  0  0  0
  7 18  1  0  0  0  0
  8 25  1  0  0  0  0
  8 12  1  0  0  0  0
  9 26  2  0  0  0  0
  9 13  1  0  0  0  0
 12 16  1  0  0  0  0
 13 17  2  0  0  0  0
 16 20  1  0  0  0  0
 16 27  1  0  0  0  0
 17 21  1  0  0  0  0
 20  2  1  6  0  0  0
 20 23  1  0  0  0  0
 21 22  1  0  0  0  0
 21 24  2  0  0  0  0
 23  3  1  6  0  0  0
 23 25  1  0  0  0  0
 24 27  1  0  0  0  0
 24 26  1  0  0  0  0
M  CHG  2  10  -1  15  -1
M  END
>  <CHROM.1>
-59.86837444,143.57952264,5.52477180,-66.93984868,176.11757315,115.69306951
83.12244283,-63.67373470,-22.55310112,57.20730693,-10.05272673,-0.68455812
-1.01619837,2.78301734

>  <Name>
ligand

>  <RI>
0

>  <Rbt.Current_Directory>
/home/itssahil/PROJECTS/Mol_Feturizer/New_Systems/rnas/3D2V

>  <Rbt.Executable>
rbdock ($Id: //depot/dev/client3/rdock/2013.1/src/exe/rbdock.cxx#4 $)

>  <Rbt.Library>
libRbt.so (2013.1, Build901 2013/11/27)

>  <Rbt.Parameter_File>
/export/apps/rDock/src/rDock_2013.1_src/data/scripts/dock_solv.prm

>  <Rbt.Receptor>
prm/blind_docking_100.prm

>  <SCORE>
-6.99792

>  <SCORE.INTER>
-9.13919

>  <SCORE.INTER.CONST>
1

>  <SCORE.INTER.POLAR>
0

>  <SCORE.INTER.ROT>
8

>  <SCORE.INTER.SOLV>
13.0442

>  <SCORE.INTER.VDW>
-19.3742

>  <SCORE.INTER.norm>
-0.338488

>  <SCORE.INTRA>
2.10025

>  <SCORE.INTRA.DIHEDRAL>
4.60491

>  <SCORE.INTRA.DIHEDRAL.0>
7.82666

>  <SCORE.INTRA.POLAR>
0

>  <SCORE.INTRA.POLAR.0>
0

>  <SCORE.INTRA.REPUL>
0

>  <SCORE.INTRA.REPUL.0>
0

>  <SCORE.INTRA.SOLV>
2.92046

>  <SCORE.INTRA.SOLV.lig_0>
-83.2758

>  <SCORE.INTRA.VDW>
-1.66244

>  <SCORE.INTRA.VDW.0>
-3.26816

>  <SCORE.INTRA.norm>
0.0777869

>  <SCORE.RESTR>
0.0410181

>  <SCORE.RESTR.CAVITY>
0.0410181

>  <SCORE.RESTR.norm>
0.00151919

>  <SCORE.SYSTEM>
0

>  <SCORE.SYSTEM.CONST>
0

>  <SCORE.SYSTEM.DIHEDRAL>
0

>  <SCORE.SYSTEM.SOLV>
0

>  <SCORE.SYSTEM.norm>
0

>  <SCORE.heavy>
27

>  <SCORE.norm>
-0.259182

>  <RMSD>
24.595

$$$$
ligand
 OpenBabel11021811463D
libRbt.so/2013.1/901 2013/11/27
 27 28  0  0  0  0  0  0  0  0999 V2000
  -23.7493   63.8298  -10.1673 C   0  0  0  0  0  0  0  0  0  0  0  0
  -24.9380   55.7634   -9.7754 C   0  0  0  0  0  0  0  0  0  0  0  0
  -22.4189   54.1425   -9.7291 C   0  0  0  0  0  0  0  0  0  0  0  0
  -22.3501   54.3762   -8.2187 C   0  0  0  0  0  0  0  0  0  0  0  0
  -21.2045   55.1616   -7.8799 O   0  0  0  0  0  0  0  0  0  0  0  0
  -21.1593   55.9569   -6.4851 P   0  0  1  0  0  0  0  0  0  0  0  0
  -19.7427   58.1019   -7.6463 P   0  0  2  0  0  0  0  0  0  0  0  0
  -21.4125   57.1392  -11.8405 C   0  0  0  0  0  0  0  0  0  0  0  0
  -24.0259   61.4542   -9.4837 N   0  0  0  0  0  0  0  0  0  0  0  0
  -22.5260   56.7532   -6.2303 O   0  5  0  0  0  0  0  0  0  0  0  0
  -18.5427   58.9513   -7.5012 O   0  0  0  0  0  0  0  0  0  0  0  0
  -22.5693   57.9065  -11.8744 C   0  0  0  0  0  0  0  0  0  0  0  0
  -24.0692   62.3652  -10.4682 C   0  0  0  0  0  0  0  0  0  0  0  0
  -20.9422   54.9852   -5.2114 O   0  0  0  0  0  0  0  0  0  0  0  0
  -21.0868   58.9787   -7.6655 O   0  5  0  0  0  0  0  0  0  0  0  0
  -23.7097   57.4633  -11.2029 N   0  0  0  0  0  0  0  0  0  0  0  0
  -24.3914   62.0032  -11.7184 N   0  0  0  0  0  0  0  0  0  0  0  0
  -19.9255   57.0171   -6.4849 O   0  0  0  0  0  0  0  0  0  0  0  0
  -19.7256   57.3239   -9.0386 O   0  0  0  0  0  0  0  0  0  0  0  0
  -23.6797   56.2476  -10.5091 C   0  0  1  0  0  0  0  0  0  0  0  0
  -24.6744   60.7256  -12.0013 C   0  0  0  0  0  0  0  0  0  0  0  0
  -24.9906   60.3784  -13.2447 N   0  0  0  0  0  0  0  0  0  0  0  0
  -22.5177   55.4783  -10.4753 C   0  0  1  0  0  0  0  0  0  0  0  0
  -24.6343   59.7628  -11.0001 C   0  0  0  0  0  0  0  0  0  0  0  0
  -21.3903   55.9355  -11.1467 C   0  0  0  0  0  0  0  0  0  0  0  0
  -24.2978   60.1813   -9.7179 C   0  0  0  0  0  0  0  0  0  0  0  0
  -24.9457   58.2798  -11.2403 C   0  0  0  0  0  0  0  0  0  0  0  0
  1 13  1  0  0  0  0
  3  4  1  0  0  0  0
  4  5  1  0  0  0  0
  6  5  1  6  0  0  0
  6 10  1  0  0  0  0
  6 14  2  0  0  0  0
  6 18  1  0  0  0  0
  7 11  1  1  0  0  0
  7 15  1  0  0  0  0
  7 19  2  0  0  0  0
  7 18  1  0  0  0  0
  8 25  1  0  0  0  0
  8 12  1  0  0  0  0
  9 26  2  0  0  0  0
  9 13  1  0  0  0  0
 12 16  1  0  0  0  0
 13 17  2  0  0  0  0
 16 20  1  0  0  0  0
 16 27  1  0  0  0  0
 17 21  1  0  0  0  0
 20  2  1  1  0  0  0
 20 23  1  0  0  0  0
 21 22  1  0  0  0  0
 21 24  2  0  0  0  0
 23  3  1  1  0  0  0
 23 25  1  0  0  0  0
 24 27  1  0  0  0  0
 24 26  1  0  0  0  0
M  CHG  2  10  -1  15  -1
M  END
>  <CHROM.1>
-60.18577621,159.22096444,-46.79359706,53.56338793,-178.17706546,-74.15013813
106.87052932,-44.84577318,-22.31360460,57.89960465,-9.20483565,-2.39035822
0.85463235,3.11988514

>  <Name>
ligand

>  <RI>
0

>  <Rbt.Current_Directory>
/home/itssahil/PROJECTS/Mol_Feturizer/New_Systems/rnas/3D2V

>  <Rbt.Executable>
rbdock ($Id: //depot/dev/client3/rdock/2013.1/src/exe/rbdock.cxx#4 $)

>  <Rbt.Library>
libRbt.so (2013.1, Build901 2013/11/27)

>  <Rbt.Parameter_File>
/export/apps/rDock/src/rDock_2013.1_src/data/scripts/dock_solv.prm

>  <Rbt.Receptor>
prm/blind_docking_80.prm

>  <SCORE>
-8.32298

>  <SCORE.INTER>
-7.64392

>  <SCORE.INTER.CONST>
1

>  <SCORE.INTER.POLAR>
0

>  <SCORE.INTER.ROT>
8

>  <SCORE.INTER.SOLV>
11.1111

>  <SCORE.INTER.VDW>
-17.733

>  <SCORE.INTER.norm>
-0.283108

>  <SCORE.INTRA>
-0.67906

>  <SCORE.INTRA.DIHEDRAL>
-0.38837

>  <SCORE.INTRA.DIHEDRAL.0>
7.82666

>  <SCORE.INTRA.POLAR>
0

>  <SCORE.INTRA.POLAR.0>
0

>  <SCORE.INTRA.REPUL>
0

>  <SCORE.INTRA.REPUL.0>
0

>  <SCORE.INTRA.SOLV>
1.6584

>  <SCORE.INTRA.SOLV.lig_0>
-83.2758

>  <SCORE.INTRA.VDW>
-1.31407

>  <SCORE.INTRA.VDW.0>
-3.26816

>  <SCORE.INTRA.norm>
-0.0251504

>  <SCORE.RESTR>
0

>  <SCORE.RESTR.CAVITY>
0

>  <SCORE.RESTR.norm>
0

>  <SCORE.SYSTEM>
0

>  <SCORE.SYSTEM.CONST>
0

>  <SCORE.SYSTEM.DIHEDRAL>
0

>  <SCORE.SYSTEM.SOLV>
0

>  <SCORE.SYSTEM.norm>
0

>  <SCORE.heavy>
27

>  <SCORE.norm>
-0.308259

>  <RMSD>
24.624

$$$$
ligand
 OpenBabel11021811463D
libRbt.so/2013.1/901 2013/11/27
 27 28  0  0  0  0  0  0  0  0999 V2000
  -26.4933   55.2842   -4.6901 C   0  0  0  0  0  0  0  0  0  0  0  0
  -25.1457   59.8055  -11.2731 C   0  0  0  0  0  0  0  0  0  0  0  0
  -25.1123   58.2454  -13.8305 C   0  0  0  0  0  0  0  0  0  0  0  0
  -23.9596   58.8760  -14.6143 C   0  0  0  0  0  0  0  0  0  0  0  0
  -23.1014   57.8667  -15.1517 O   0  0  0  0  0  0  0  0  0  0  0  0
  -21.7162   58.2793  -15.8525 P   0  0  1  0  0  0  0  0  0  0  0  0
  -19.3302   59.6209  -15.1716 P   0  0  2  0  0  0  0  0  0  0  0  0
  -23.6438   55.7651  -11.3521 C   0  0  0  0  0  0  0  0  0  0  0  0
  -26.2641   56.0244   -7.0538 N   0  0  0  0  0  0  0  0  0  0  0  0
  -21.0227   57.0142  -16.5494 O   0  5  0  0  0  0  0  0  0  0  0  0
  -18.4823   58.8315  -16.0883 O   0  0  0  0  0  0  0  0  0  0  0  0
  -23.6508   56.4700  -10.1557 C   0  0  0  0  0  0  0  0  0  0  0  0
  -25.8621   56.1515   -5.7797 C   0  0  0  0  0  0  0  0  0  0  0  0
  -21.9000   59.4013  -17.0017 O   0  0  0  0  0  0  0  0  0  0  0  0
  -18.5587   59.9697  -13.8082 O   0  5  0  0  0  0  0  0  0  0  0  0
  -24.1404   57.7767  -10.1289 N   0  0  0  0  0  0  0  0  0  0  0  0
  -24.9086   57.0350   -5.4506 N   0  0  0  0  0  0  0  0  0  0  0  0
  -20.6932   58.8978  -14.7491 O   0  0  0  0  0  0  0  0  0  0  0  0
  -19.7081   61.0302  -15.8159 O   0  0  0  0  0  0  0  0  0  0  0  0
  -24.6117   58.3668  -11.3078 C   0  0  1  0  0  0  0  0  0  0  0  0
  -24.3440   57.8029   -6.3907 C   0  0  0  0  0  0  0  0  0  0  0  0
  -23.3985   58.6737   -6.0527 N   0  0  0  0  0  0  0  0  0  0  0  0
  -24.6048   57.6582  -12.5081 C   0  0  2  0  0  0  0  0  0  0  0  0
  -24.7410   57.6888   -7.7175 C   0  0  0  0  0  0  0  0  0  0  0  0
  -24.1167   56.3573  -12.5168 C   0  0  0  0  0  0  0  0  0  0  0  0
  -25.7337   56.7622   -8.0148 C   0  0  0  0  0  0  0  0  0  0  0  0
  -24.1460   58.5310   -8.8535 C   0  0  0  0  0  0  0  0  0  0  0  0
  1 13  1  0  0  0  0
  3  4  1  0  0  0  0
  4  5  1  0  0  0  0
  6  5  1  1  0  0  0
  6 10  1  0  0  0  0
  6 14  2  0  0  0  0
  6 18  1  0  0  0  0
  7 11  1  6  0  0  0
  7 15  1  0  0  0  0
  7 19  2  0  0  0  0
  7 18  1  0  0  0  0
  8 25  1  0  0  0  0
  8 12  1  0  0  0  0
  9 26  2  0  0  0  0
  9 13  1  0  0  0  0
 12 16  1  0  0  0  0
 13 17  2  0  0  0  0
 16 20  1  0  0  0  0
 16 27  1  0  0  0  0
 17 21  1  0  0  0  0
 20  2  1  1  0  0  0
 20 23  1  0  0  0  0
 21 22  1  0  0  0  0
 21 24  2  0  0  0  0
 23  3  1  6  0  0  0
 23 25  1  0  0  0  0
 24 27  1  0  0  0  0
 24 26  1  0  0  0  0
M  CHG  2  10  -1  15  -1
M  END
>  <CHROM.1>
72.13119204,-172.06708235,-172.34400488,-169.69528681,-51.61713303,93.21599278
148.57997727,-48.13317519,-22.94110965,58.09220686,-11.95055095,2.10874489
0.44747996,1.55907329

>  <Name>
ligand

>  <RI>
0

>  <Rbt.Current_Directory>
/home/itssahil/PROJECTS/Mol_Feturizer/New_Systems/rnas/3D2V

>  <Rbt.Executable>
rbdock ($Id: //depot/dev/client3/rdock/2013.1/src/exe/rbdock.cxx#4 $)

>  <Rbt.Library>
libRbt.so (2013.1, Build901 2013/11/27)

>  <Rbt.Parameter_File>
/export/apps/rDock/src/rDock_2013.1_src/data/scripts/dock_solv.prm

>  <Rbt.Receptor>
prm/blind_docking_80.prm

>  <SCORE>
-14.1871

>  <SCORE.INTER>
-12.7932

>  <SCORE.INTER.CONST>
1

>  <SCORE.INTER.POLAR>
0

>  <SCORE.INTER.ROT>
8

>  <SCORE.INTER.SOLV>
21.8602

>  <SCORE.INTER.VDW>
-24.7489

>  <SCORE.INTER.norm>
-0.473823

>  <SCORE.INTRA>
-1.39391

>  <SCORE.INTRA.DIHEDRAL>
-1.43719

>  <SCORE.INTRA.DIHEDRAL.0>
7.82666

>  <SCORE.INTRA.POLAR>
0

>  <SCORE.INTRA.POLAR.0>
0

>  <SCORE.INTRA.REPUL>
0

>  <SCORE.INTRA.REPUL.0>
0

>  <SCORE.INTRA.SOLV>
-1.26695

>  <SCORE.INTRA.SOLV.lig_0>
-83.2758

>  <SCORE.INTRA.VDW>
-0.0418344

>  <SCORE.INTRA.VDW.0>
-3.26816

>  <SCORE.INTRA.norm>
-0.0516262

>  <SCORE.RESTR>
0

>  <SCORE.RESTR.CAVITY>
0

>  <SCORE.RESTR.norm>
0

>  <SCORE.SYSTEM>
0

>  <SCORE.SYSTEM.CONST>
0

>  <SCORE.SYSTEM.DIHEDRAL>
0

>  <SCORE.SYSTEM.SOLV>
0

>  <SCORE.SYSTEM.norm>
0

>  <SCORE.heavy>
27

>  <SCORE.norm>
-0.525449

>  <RMSD>
24.665

$$$$
ligand
 OpenBabel11021811463D
libRbt.so/2013.1/901 2013/11/27
 27 28  0  0  0  0  0  0  0  0999 V2000
  -19.3426   59.0143  -16.4222 C   0  0  0  0  0  0  0  0  0  0  0  0
  -20.1215   58.0166   -8.2340 C   0  0  0  0  0  0  0  0  0  0  0  0
  -22.6727   59.0615   -7.0615 C   0  0  0  0  0  0  0  0  0  0  0  0
  -23.7118   57.9972   -7.4192 C   0  0  0  0  0  0  0  0  0  0  0  0
  -24.1297   57.2855   -6.2517 O   0  0  0  0  0  0  0  0  0  0  0  0
  -25.0905   56.0060   -6.3914 P   0  0  1  0  0  0  0  0  0  0  0  0
  -23.0090   54.4121   -7.4323 P   0  0  2  0  0  0  0  0  0  0  0  0
  -22.2056   61.2966  -10.1008 C   0  0  0  0  0  0  0  0  0  0  0  0
  -18.2160   59.5872  -14.2798 N   0  0  0  0  0  0  0  0  0  0  0  0
  -25.2217   55.2277   -4.9971 O   0  5  0  0  0  0  0  0  0  0  0  0
  -22.8616   53.0271   -7.9248 O   0  0  0  0  0  0  0  0  0  0  0  0
  -21.0250   60.8275  -10.6613 C   0  0  0  0  0  0  0  0  0  0  0  0
  -19.2922   59.0732  -14.8952 C   0  0  0  0  0  0  0  0  0  0  0  0
  -26.5914   56.3911   -6.8525 O   0  0  0  0  0  0  0  0  0  0  0  0
  -22.5512   54.5448   -5.8998 O   0  5  0  0  0  0  0  0  0  0  0  0
  -20.3520   59.7632  -10.0595 N   0  0  0  0  0  0  0  0  0  0  0  0
  -20.3283   58.6087  -14.1819 N   0  0  0  0  0  0  0  0  0  0  0  0
  -24.5013   54.9830   -7.5108 O   0  0  0  0  0  0  0  0  0  0  0  0
  -22.0647   55.4093   -8.2434 O   0  0  0  0  0  0  0  0  0  0  0  0
  -20.8678   59.1845   -8.8937 C   0  0  1  0  0  0  0  0  0  0  0  0
  -20.3024   58.6514  -12.8441 C   0  0  0  0  0  0  0  0  0  0  0  0
  -21.3345   58.1863  -12.1478 N   0  0  0  0  0  0  0  0  0  0  0  0
  -22.0533   59.6558   -8.3320 C   0  0  1  0  0  0  0  0  0  0  0  0
  -19.1987   59.1767  -12.1831 C   0  0  0  0  0  0  0  0  0  0  0  0
  -22.7124   60.7142   -8.9455 C   0  0  0  0  0  0  0  0  0  0  0  0
  -18.1475   59.6491  -12.9605 C   0  0  0  0  0  0  0  0  0  0  0  0
  -19.0906   59.2633  -10.6551 C   0  0  0  0  0  0  0  0  0  0  0  0
  1 13  1  0  0  0  0
  3  4  1  0  0  0  0
  4  5  1  0  0  0  0
  6  5  1  1  0  0  0
  6 10  1  0  0  0  0
  6 14  2  0  0  0  0
  6 18  1  0  0  0  0
  7 11  1  6  0  0  0
  7 15  1  0  0  0  0
  7 19  2  0  0  0  0
  7 18  1  0  0  0  0
  8 25  1  0  0  0  0
  8 12  1  0  0  0  0
  9 26  2  0  0  0  0
  9 13  1  0  0  0  0
 12 16  1  0  0  0  0
 13 17  2  0  0  0  0
 16 20  1  0  0  0  0
 16 27  1  0  0  0  0
 17 21  1  0  0  0  0
 20  2  1  6  0  0  0
 20 23  1  0  0  0  0
 21 22  1  0  0  0  0
 21 24  2  0  0  0  0
 23  3  1  6  0  0  0
 23 25  1  0  0  0  0
 24 27  1  0  0  0  0
 24 26  1  0  0  0  0
M  CHG  2  10  -1  15  -1
M  END
>  <CHROM.1>
170.36103621,-173.01282046,170.28253531,54.76328941,145.49028309,-94.15287981
-44.50574714,-42.49268552,-22.04599603,57.56624149,-9.31914521,-0.33108397
-0.98918298,-3.00652215

>  <Name>
ligand

>  <RI>
0

>  <Rbt.Current_Directory>
/home/itssahil/PROJECTS/Mol_Feturizer/New_Systems/rnas/3D2V

>  <Rbt.Executable>
rbdock ($Id: //depot/dev/client3/rdock/2013.1/src/exe/rbdock.cxx#4 $)

>  <Rbt.Library>
libRbt.so (2013.1, Build901 2013/11/27)

>  <Rbt.Parameter_File>
/export/apps/rDock/src/rDock_2013.1_src/data/scripts/dock_solv.prm

>  <Rbt.Receptor>
prm/blind_docking_80.prm

>  <SCORE>
-7.98876

>  <SCORE.INTER>
-9.56754

>  <SCORE.INTER.CONST>
1

>  <SCORE.INTER.POLAR>
0

>  <SCORE.INTER.ROT>
8

>  <SCORE.INTER.SOLV>
14.4685

>  <SCORE.INTER.VDW>
-20.1345

>  <SCORE.INTER.norm>
-0.354353

>  <SCORE.INTRA>
1.40444

>  <SCORE.INTRA.DIHEDRAL>
-0.40885

>  <SCORE.INTRA.DIHEDRAL.0>
7.82666

>  <SCORE.INTRA.POLAR>
0

>  <SCORE.INTRA.POLAR.0>
0

>  <SCORE.INTRA.REPUL>
0

>  <SCORE.INTRA.REPUL.0>
0

>  <SCORE.INTRA.SOLV>
4.88682

>  <SCORE.INTRA.SOLV.lig_0>
-83.2758

>  <SCORE.INTRA.VDW>
-0.834544

>  <SCORE.INTRA.VDW.0>
-3.26816

>  <SCORE.INTRA.norm>
0.0520163

>  <SCORE.RESTR>
0.174331

>  <SCORE.RESTR.CAVITY>
0.174331

>  <SCORE.RESTR.norm>
0.00645672

>  <SCORE.SYSTEM>
0

>  <SCORE.SYSTEM.CONST>
0

>  <SCORE.SYSTEM.DIHEDRAL>
0

>  <SCORE.SYSTEM.SOLV>
0

>  <SCORE.SYSTEM.norm>
0

>  <SCORE.heavy>
27

>  <SCORE.norm>
-0.29588

>  <RMSD>
24.692

$$$$
ligand
 OpenBabel11021811463D
libRbt.so/2013.1/901 2013/11/27
 27 28  0  0  0  0  0  0  0  0999 V2000
  -16.6158   59.1810  -10.5289 C   0  0  0  0  0  0  0  0  0  0  0  0
  -22.9935   60.0459  -14.1537 C   0  0  0  0  0  0  0  0  0  0  0  0
  -24.4656   57.5826  -15.0140 C   0  0  0  0  0  0  0  0  0  0  0  0
  -24.5809   56.7872  -13.7122 C   0  0  0  0  0  0  0  0  0  0  0  0
  -23.9243   57.4707  -12.6418 O   0  0  0  0  0  0  0  0  0  0  0  0
  -23.7503   56.7517  -11.2160 P   0  0  1  0  0  0  0  0  0  0  0  0
  -21.7002   54.9636  -10.4700 P   0  0  2  0  0  0  0  0  0  0  0  0
  -21.0019   57.0034  -16.4695 C   0  0  0  0  0  0  0  0  0  0  0  0
  -18.8010   59.9096  -11.4676 N   0  0  0  0  0  0  0  0  0  0  0  0
  -22.9406   57.6836  -10.1947 O   0  5  0  0  0  0  0  0  0  0  0  0
  -21.0250   53.7066  -10.8527 O   0  0  0  0  0  0  0  0  0  0  0  0
  -20.3006   58.1371  -16.0806 C   0  0  0  0  0  0  0  0  0  0  0  0
  -17.5507   59.4815  -11.7009 C   0  0  0  0  0  0  0  0  0  0  0  0
  -25.1615   56.4024  -10.5089 O   0  0  0  0  0  0  0  0  0  0  0  0
  -22.2480   54.9033   -8.9627 O   0  5  0  0  0  0  0  0  0  0  0  0
  -20.9439   59.1205  -15.3278 N   0  0  0  0  0  0  0  0  0  0  0  0
  -17.1106   59.3139  -12.9564 N   0  0  0  0  0  0  0  0  0  0  0  0
  -22.9504   55.3460  -11.3919 O   0  0  0  0  0  0  0  0  0  0  0  0
  -20.6814   56.1903  -10.5008 O   0  0  0  0  0  0  0  0  0  0  0  0
  -22.2901   58.9594  -14.9788 C   0  0  1  0  0  0  0  0  0  0  0  0
  -17.9145   59.5716  -13.9954 C   0  0  0  0  0  0  0  0  0  0  0  0
  -17.4677   59.3999  -15.2353 N   0  0  0  0  0  0  0  0  0  0  0  0
  -22.9931   57.8208  -15.3692 C   0  0  1  0  0  0  0  0  0  0  0  0
  -19.2142   60.0137  -13.7804 C   0  0  0  0  0  0  0  0  0  0  0  0
  -22.3369   56.8499  -16.1159 C   0  0  0  0  0  0  0  0  0  0  0  0
  -19.6293   60.1760  -12.4636 C   0  0  0  0  0  0  0  0  0  0  0  0
  -20.1975   60.3320  -14.9144 C   0  0  0  0  0  0  0  0  0  0  0  0
  1 13  1  0  0  0  0
  3  4  1  0  0  0  0
  4  5  1  0  0  0  0
  6  5  1  6  0  0  0
  6 10  1  0  0  0  0
  6 14  2  0  0  0  0
  6 18  1  0  0  0  0
  7 11  1  6  0  0  0
  7 15  1  0  0  0  0
  7 19  2  0  0  0  0
  7 18  1  0  0  0  0
  8 25  1  0  0  0  0
  8 12  1  0  0  0  0
  9 26  2  0  0  0  0
  9 13  1  0  0  0  0
 12 16  1  0  0  0  0
 13 17  2  0  0  0  0
 16 20  1  0  0  0  0
 16 27  1  0  0  0  0
 17 21  1  0  0  0  0
 20  2  1  1  0  0  0
 20 23  1  0  0  0  0
 21 22  1  0  0  0  0
 21 24  2  0  0  0  0
 23  3  1  1  0  0  0
 23 25  1  0  0  0  0
 24 27  1  0  0  0  0
 24 26  1  0  0  0  0
M  CHG  2  10  -1  15  -1
M  END
>  <CHROM.1>
57.87366428,-172.44484938,177.88630759,130.84505738,-174.73982226,-92.41157949
87.78038825,-74.22193356,-21.35244976,57.63331409,-12.67326198,-0.73633183
0.38506645,2.07909394

>  <Name>
ligand

>  <RI>
0

>  <Rbt.Current_Directory>
/home/itssahil/PROJECTS/Mol_Feturizer/New_Systems/rnas/3D2V

>  <Rbt.Executable>
rbdock ($Id: //depot/dev/client3/rdock/2013.1/src/exe/rbdock.cxx#4 $)

>  <Rbt.Library>
libRbt.so (2013.1, Build901 2013/11/27)

>  <Rbt.Parameter_File>
/export/apps/rDock/src/rDock_2013.1_src/data/scripts/dock_solv.prm

>  <Rbt.Receptor>
prm/blind_docking_80.prm

>  <SCORE>
-13.4613

>  <SCORE.INTER>
-13.7542

>  <SCORE.INTER.CONST>
1

>  <SCORE.INTER.POLAR>
0

>  <SCORE.INTER.ROT>
8

>  <SCORE.INTER.SOLV>
23.1766

>  <SCORE.INTER.VDW>
-25.8283

>  <SCORE.INTER.norm>
-0.509416

>  <SCORE.INTRA>
0.292954

>  <SCORE.INTRA.DIHEDRAL>
-0.0860879

>  <SCORE.INTRA.DIHEDRAL.0>
7.82666

>  <SCORE.INTRA.POLAR>
0

>  <SCORE.INTRA.POLAR.0>
0

>  <SCORE.INTRA.REPUL>
0

>  <SCORE.INTRA.REPUL.0>
0

>  <SCORE.INTRA.SOLV>
2.12597

>  <SCORE.INTRA.SOLV.lig_0>
-83.2758

>  <SCORE.INTRA.VDW>
-0.726988

>  <SCORE.INTRA.VDW.0>
-3.26816

>  <SCORE.INTRA.norm>
0.0108502

>  <SCORE.RESTR>
0

>  <SCORE.RESTR.CAVITY>
0

>  <SCORE.RESTR.norm>
0

>  <SCORE.SYSTEM>
0

>  <SCORE.SYSTEM.CONST>
0

>  <SCORE.SYSTEM.DIHEDRAL>
0

>  <SCORE.SYSTEM.SOLV>
0

>  <SCORE.SYSTEM.norm>
0

>  <SCORE.heavy>
27

>  <SCORE.norm>
-0.498566

>  <RMSD>
24.745

$$$$
ligand
 OpenBabel11021811463D
libRbt.so/2013.1/901 2013/11/27
 27 28  0  0  0  0  0  0  0  0999 V2000
  -18.7164   59.4804  -14.1668 C   0  0  0  0  0  0  0  0  0  0  0  0
  -24.4697   56.0343  -11.1435 C   0  0  0  0  0  0  0  0  0  0  0  0
  -24.7015   56.1380   -8.1584 C   0  0  0  0  0  0  0  0  0  0  0  0
  -23.3378   55.6805   -7.6373 C   0  0  0  0  0  0  0  0  0  0  0  0
  -22.5020   55.2519   -8.7153 O   0  0  0  0  0  0  0  0  0  0  0  0
  -21.1802   56.0852   -9.0876 P   0  0  1  0  0  0  0  0  0  0  0  0
  -20.4786   58.7801   -9.5363 P   0  0  2  0  0  0  0  0  0  0  0  0
  -24.3985   59.8152   -9.0732 C   0  0  0  0  0  0  0  0  0  0  0  0
  -20.4748   58.2831  -12.8779 N   0  0  0  0  0  0  0  0  0  0  0  0
  -20.1492   56.1100   -7.8614 O   0  5  0  0  0  0  0  0  0  0  0  0
  -19.3114   58.4720  -10.3880 O   0  0  0  0  0  0  0  0  0  0  0  0
  -24.2902   59.7901  -10.4574 C   0  0  0  0  0  0  0  0  0  0  0  0
  -20.1724   59.2445  -13.7640 C   0  0  0  0  0  0  0  0  0  0  0  0
  -20.3833   55.4721  -10.3535 O   0  0  0  0  0  0  0  0  0  0  0  0
  -20.0411   59.0743   -8.0205 O   0  5  0  0  0  0  0  0  0  0  0  0
  -24.3170   58.5666  -11.1282 N   0  0  0  0  0  0  0  0  0  0  0  0
  -21.1377   60.0037  -14.3022 N   0  0  0  0  0  0  0  0  0  0  0  0
  -21.5736   57.6156   -9.4743 O   0  0  0  0  0  0  0  0  0  0  0  0
  -21.2103   60.1084  -10.0305 O   0  0  0  0  0  0  0  0  0  0  0  0
  -24.4444   57.3773  -10.4006 C   0  0  1  0  0  0  0  0  0  0  0  0
  -22.4183   59.8118  -13.9621 C   0  0  0  0  0  0  0  0  0  0  0  0
  -23.3666   60.5693  -14.5037 N   0  0  0  0  0  0  0  0  0  0  0  0
  -24.5536   57.4036   -9.0112 C   0  0  2  0  0  0  0  0  0  0  0  0
  -22.7577   58.8213  -13.0485 C   0  0  0  0  0  0  0  0  0  0  0  0
  -24.5281   58.6303   -8.3591 C   0  0  0  0  0  0  0  0  0  0  0  0
  -21.7261   58.0586  -12.5132 C   0  0  0  0  0  0  0  0  0  0  0  0
  -24.1989   58.5381  -12.6051 C   0  0  0  0  0  0  0  0  0  0  0  0
  1 13  1  0  0  0  0
  3  4  1  0  0  0  0
  4  5  1  0  0  0  0
  6  5  1  1  0  0  0
  6 10  1  0  0  0  0
  6 14  2  0  0  0  0
  6 18  1  0  0  0  0
  7 11  1  6  0  0  0
  7 15  1  0  0  0  0
  7 19  2  0  0  0  0
  7 18  1  0  0  0  0
  8 25  1  0  0  0  0
  8 12  1  0  0  0  0
  9 26  2  0  0  0  0
  9 13  1  0  0  0  0
 12 16  1  0  0  0  0
 13 17  2  0  0  0  0
 16 20  1  0  0  0  0
 16 27  1  0  0  0  0
 17 21  1  0  0  0  0
 20  2  1  6  0  0  0
 20 23  1  0  0  0  0
 21 22  1  0  0  0  0
 21 24  2  0  0  0  0
 23  3  1  1  0  0  0
 23 25  1  0  0  0  0
 24 27  1  0  0  0  0
 24 26  1  0  0  0  0
M  CHG  2  10  -1  15  -1
M  END
>  <CHROM.1>
-66.28485852,113.46060844,61.47765285,164.48647097,52.82291241,95.31678330
-126.47722340,74.36574888,-22.03714681,58.00873587,-10.58243137,-1.36085755
-0.01339420,2.11947234

>  <Name>
ligand

>  <RI>
0

>  <Rbt.Current_Directory>
/home/itssahil/PROJECTS/Mol_Feturizer/New_Systems/rnas/3D2V

>  <Rbt.Executable>
rbdock ($Id: //depot/dev/client3/rdock/2013.1/src/exe/rbdock.cxx#4 $)

>  <Rbt.Library>
libRbt.so (2013.1, Build901 2013/11/27)

>  <Rbt.Parameter_File>
/export/apps/rDock/src/rDock_2013.1_src/data/scripts/dock_solv.prm

>  <Rbt.Receptor>
prm/blind_docking_80.prm

>  <SCORE>
-5.28521

>  <SCORE.INTER>
-3.45848

>  <SCORE.INTER.CONST>
1

>  <SCORE.INTER.POLAR>
0

>  <SCORE.INTER.ROT>
8

>  <SCORE.INTER.SOLV>
11.788

>  <SCORE.INTER.VDW>
-15.1683

>  <SCORE.INTER.norm>
-0.128092

>  <SCORE.INTRA>
-1.82673

>  <SCORE.INTRA.DIHEDRAL>
4.92866

>  <SCORE.INTRA.DIHEDRAL.0>
7.82666

>  <SCORE.INTRA.POLAR>
0

>  <SCORE.INTRA.POLAR.0>
0

>  <SCORE.INTRA.REPUL>
0

>  <SCORE.INTRA.REPUL.0>
0

>  <SCORE.INTRA.SOLV>
2.29628

>  <SCORE.INTRA.SOLV.lig_0>
-83.2758

>  <SCORE.INTRA.VDW>
-5.4392

>  <SCORE.INTRA.VDW.0>
-3.26816

>  <SCORE.INTRA.norm>
-0.0676567

>  <SCORE.RESTR>
0

>  <SCORE.RESTR.CAVITY>
0

>  <SCORE.RESTR.norm>
0

>  <SCORE.SYSTEM>
0

>  <SCORE.SYSTEM.CONST>
0

>  <SCORE.SYSTEM.DIHEDRAL>
0

>  <SCORE.SYSTEM.SOLV>
0

>  <SCORE.SYSTEM.norm>
0

>  <SCORE.heavy>
27

>  <SCORE.norm>
-0.195749

>  <RMSD>
24.746

$$$$
ligand
 OpenBabel11021811463D
libRbt.so/2013.1/901 2013/11/27
 27 28  0  0  0  0  0  0  0  0999 V2000
  -23.9052   57.0153  -16.5381 C   0  0  0  0  0  0  0  0  0  0  0  0
  -23.3374   60.5443   -9.4968 C   0  0  0  0  0  0  0  0  0  0  0  0
  -22.5800   58.7186   -7.2455 C   0  0  0  0  0  0  0  0  0  0  0  0
  -21.1882   58.1360   -7.4991 C   0  0  0  0  0  0  0  0  0  0  0  0
  -20.7228   58.4874   -8.8045 O   0  0  0  0  0  0  0  0  0  0  0  0
  -19.3283   57.9016   -9.3452 P   0  0  1  0  0  0  0  0  0  0  0  0
  -20.6246   55.4791   -9.9835 P   0  0  2  0  0  0  0  0  0  0  0  0
  -24.9709   56.5613   -9.2655 C   0  0  0  0  0  0  0  0  0  0  0  0
  -24.5580   56.9720  -14.1383 N   0  0  0  0  0  0  0  0  0  0  0  0
  -19.0112   58.4368  -10.8217 O   0  5  0  0  0  0  0  0  0  0  0  0
  -21.1817   56.0725  -11.2165 O   0  0  0  0  0  0  0  0  0  0  0  0
  -25.3349   57.3909  -10.3179 C   0  0  0  0  0  0  0  0  0  0  0  0
  -24.2430   57.7062  -15.2166 C   0  0  0  0  0  0  0  0  0  0  0  0
  -18.0689   58.3149   -8.4197 O   0  0  0  0  0  0  0  0  0  0  0  0
  -21.7256   55.3983   -8.8186 O   0  5  0  0  0  0  0  0  0  0  0  0
  -24.8034   58.6790  -10.3952 N   0  0  0  0  0  0  0  0  0  0  0  0
  -24.2212   59.0451  -15.1471 N   0  0  0  0  0  0  0  0  0  0  0  0
  -19.3781   56.2758   -9.3749 O   0  0  0  0  0  0  0  0  0  0  0  0
  -20.1627   53.9732  -10.2338 O   0  0  0  0  0  0  0  0  0  0  0  0
  -23.9160   59.1254   -9.4086 C   0  0  1  0  0  0  0  0  0  0  0  0
  -24.5143   59.6680  -13.9989 C   0  0  0  0  0  0  0  0  0  0  0  0
  -24.4913   60.9957  -13.9427 N   0  0  0  0  0  0  0  0  0  0  0  0
  -23.5508   58.2917   -8.3528 C   0  0  2  0  0  0  0  0  0  0  0  0
  -24.8459   58.9306  -12.8688 C   0  0  0  0  0  0  0  0  0  0  0  0
  -24.0869   57.0111   -8.2924 C   0  0  0  0  0  0  0  0  0  0  0  0
  -24.8545   57.5452  -12.9839 C   0  0  0  0  0  0  0  0  0  0  0  0
  -25.1931   59.5663  -11.5162 C   0  0  0  0  0  0  0  0  0  0  0  0
  1 13  1  0  0  0  0
  3  4  1  0  0  0  0
  4  5  1  0  0  0  0
  6  5  1  1  0  0  0
  6 10  1  0  0  0  0
  6 14  2  0  0  0  0
  6 18  1  0  0  0  0
  7 11  1  6  0  0  0
  7 15  1  0  0  0  0
  7 19  2  0  0  0  0
  7 18  1  0  0  0  0
  8 25  1  0  0  0  0
  8 12  1  0  0  0  0
  9 26  2  0  0  0  0
  9 13  1  0  0  0  0
 12 16  1  0  0  0  0
 13 17  2  0  0  0  0
 16 20  1  0  0  0  0
 16 27  1  0  0  0  0
 17 21  1  0  0  0  0
 20  2  1  6  0  0  0
 20 23  1  0  0  0  0
 21 22  1  0  0  0  0
 21 24  2  0  0  0  0
 23  3  1  1  0  0  0
 23 25  1  0  0  0  0
 24 27  1  0  0  0  0
 24 26  1  0  0  0  0
M  CHG  2  10  -1  15  -1
M  END
>  <CHROM.1>
54.49619215,-175.53573436,-179.68922036,46.50389583,40.09040382,-100.95978386
-149.68784975,-58.39232944,-22.37566909,57.72234407,-10.73112396,-2.45723477
-0.56231416,1.29019594

>  <Name>
ligand

>  <RI>
0

>  <Rbt.Current_Directory>
/home/itssahil/PROJECTS/Mol_Feturizer/New_Systems/rnas/3D2V

>  <Rbt.Executable>
rbdock ($Id: //depot/dev/client3/rdock/2013.1/src/exe/rbdock.cxx#4 $)

>  <Rbt.Library>
libRbt.so (2013.1, Build901 2013/11/27)

>  <Rbt.Parameter_File>
/export/apps/rDock/src/rDock_2013.1_src/data/scripts/dock_solv.prm

>  <Rbt.Receptor>
prm/blind_docking_80.prm

>  <SCORE>
-11.7069

>  <SCORE.INTER>
-9.80676

>  <SCORE.INTER.CONST>
1

>  <SCORE.INTER.POLAR>
0

>  <SCORE.INTER.ROT>
8

>  <SCORE.INTER.SOLV>
16.3717

>  <SCORE.INTER.VDW>
-20.9284

>  <SCORE.INTER.norm>
-0.363213

>  <SCORE.INTRA>
-1.90015

>  <SCORE.INTRA.DIHEDRAL>
-1.56615

>  <SCORE.INTRA.DIHEDRAL.0>
7.82666

>  <SCORE.INTRA.POLAR>
0

>  <SCORE.INTRA.POLAR.0>
0

>  <SCORE.INTRA.REPUL>
0

>  <SCORE.INTRA.REPUL.0>
0

>  <SCORE.INTRA.SOLV>
-0.669016

>  <SCORE.INTRA.SOLV.lig_0>
-83.2758

>  <SCORE.INTRA.VDW>
-0.782572

>  <SCORE.INTRA.VDW.0>
-3.26816

>  <SCORE.INTRA.norm>
-0.0703761

>  <SCORE.RESTR>
0

>  <SCORE.RESTR.CAVITY>
0

>  <SCORE.RESTR.norm>
0

>  <SCORE.SYSTEM>
0

>  <SCORE.SYSTEM.CONST>
0

>  <SCORE.SYSTEM.DIHEDRAL>
0

>  <SCORE.SYSTEM.SOLV>
0

>  <SCORE.SYSTEM.norm>
0

>  <SCORE.heavy>
27

>  <SCORE.norm>
-0.433589

>  <RMSD>
24.832

$$$$
ligand
 OpenBabel11021811463D
libRbt.so/2013.1/901 2013/11/27
 27 28  0  0  0  0  0  0  0  0999 V2000
  -23.8835   58.1781   -5.3133 C   0  0  0  0  0  0  0  0  0  0  0  0
  -24.0305   60.2403  -13.6689 C   0  0  0  0  0  0  0  0  0  0  0  0
  -23.6191   57.8766  -15.4630 C   0  0  0  0  0  0  0  0  0  0  0  0
  -22.2820   57.8465  -16.2058 C   0  0  0  0  0  0  0  0  0  0  0  0
  -21.5566   59.0597  -15.9913 O   0  0  0  0  0  0  0  0  0  0  0  0
  -20.0187   59.1671  -16.4425 P   0  0  1  0  0  0  0  0  0  0  0  0
  -19.2219   59.3537  -13.7431 P   0  0  2  0  0  0  0  0  0  0  0  0
  -22.7653   56.4532  -12.0431 C   0  0  0  0  0  0  0  0  0  0  0  0
  -24.8265   58.4915   -7.5936 N   0  0  0  0  0  0  0  0  0  0  0  0
  -19.7164   58.2130  -17.6937 O   0  5  0  0  0  0  0  0  0  0  0  0
  -20.5122   59.0268  -13.1022 O   0  0  0  0  0  0  0  0  0  0  0  0
  -22.9506   57.5357  -11.1935 C   0  0  0  0  0  0  0  0  0  0  0  0
  -23.7813   58.6444   -6.7659 C   0  0  0  0  0  0  0  0  0  0  0  0
  -19.5935   60.6629  -16.8842 O   0  0  0  0  0  0  0  0  0  0  0  0
  -19.0172   60.9395  -13.8812 O   0  5  0  0  0  0  0  0  0  0  0  0
  -23.3638   58.7609  -11.7189 N   0  0  0  0  0  0  0  0  0  0  0  0
  -22.6432   59.2042   -7.2011 N   0  0  0  0  0  0  0  0  0  0  0  0
  -19.0433   58.7439  -15.2112 O   0  0  0  0  0  0  0  0  0  0  0  0
  -17.9989   58.8454  -12.8544 O   0  0  0  0  0  0  0  0  0  0  0  0
  -23.5796   58.8895  -13.0962 C   0  0  1  0  0  0  0  0  0  0  0  0
  -22.5347   59.6183   -8.4696 C   0  0  0  0  0  0  0  0  0  0  0  0
  -21.4009   60.1699   -8.8900 N   0  0  0  0  0  0  0  0  0  0  0  0
  -23.3938   57.8020  -13.9482 C   0  0  2  0  0  0  0  0  0  0  0  0
  -23.6018   59.4692   -9.3471 C   0  0  0  0  0  0  0  0  0  0  0  0
  -22.9850   56.5886  -13.4085 C   0  0  0  0  0  0  0  0  0  0  0  0
  -24.7635   58.8859   -8.8544 C   0  0  0  0  0  0  0  0  0  0  0  0
  -23.5594   59.9177  -10.8137 C   0  0  0  0  0  0  0  0  0  0  0  0
  1 13  1  0  0  0  0
  3  4  1  0  0  0  0
  4  5  1  0  0  0  0
  6  5  1  1  0  0  0
  6 10  1  0  0  0  0
  6 14  2  0  0  0  0
  6 18  1  0  0  0  0
  7 11  1  1  0  0  0
  7 15  1  0  0  0  0
  7 19  2  0  0  0  0
  7 18  1  0  0  0  0
  8 25  1  0  0  0  0
  8 12  1  0  0  0  0
  9 26  2  0  0  0  0
  9 13  1  0  0  0  0
 12 16  1  0  0  0  0
 13 17  2  0  0  0  0
 16 20  1  0  0  0  0
 16 27  1  0  0  0  0
 17 21  1  0  0  0  0
 20  2  1  1  0  0  0
 20 23  1  0  0  0  0
 21 22  1  0  0  0  0
 21 24  2  0  0  0  0
 23  3  1  6  0  0  0
 23 25  1  0  0  0  0
 24 27  1  0  0  0  0
 24 26  1  0  0  0  0
M  CHG  2  10  -1  15  -1
M  END
>  <CHROM.1>
-69.59021348,168.94469019,28.92763791,-49.17983213,62.67707386,107.60364387
102.61655441,-14.30745167,-21.76280209,58.91847379,-12.59950417,-2.01228818
-0.33361715,-1.69178751

>  <Name>
ligand

>  <RI>
0

>  <Rbt.Current_Directory>
/home/itssahil/PROJECTS/Mol_Feturizer/New_Systems/rnas/3D2V

>  <Rbt.Executable>
rbdock ($Id: //depot/dev/client3/rdock/2013.1/src/exe/rbdock.cxx#4 $)

>  <Rbt.Library>
libRbt.so (2013.1, Build901 2013/11/27)

>  <Rbt.Parameter_File>
/export/apps/rDock/src/rDock_2013.1_src/data/scripts/dock_solv.prm

>  <Rbt.Receptor>
prm/blind_docking_80.prm

>  <SCORE>
-13.1456

>  <SCORE.INTER>
-10.6001

>  <SCORE.INTER.CONST>
1

>  <SCORE.INTER.POLAR>
0

>  <SCORE.INTER.ROT>
8

>  <SCORE.INTER.SOLV>
20.7753

>  <SCORE.INTER.VDW>
-22.9252

>  <SCORE.INTER.norm>
-0.392598

>  <SCORE.INTRA>
-2.54547

>  <SCORE.INTRA.DIHEDRAL>
-0.226375

>  <SCORE.INTRA.DIHEDRAL.0>
7.82666

>  <SCORE.INTRA.POLAR>
0

>  <SCORE.INTRA.POLAR.0>
0

>  <SCORE.INTRA.REPUL>
0

>  <SCORE.INTRA.REPUL.0>
0

>  <SCORE.INTRA.SOLV>
-2.18329

>  <SCORE.INTRA.SOLV.lig_0>
-83.2758

>  <SCORE.INTRA.VDW>
-1.34064

>  <SCORE.INTRA.VDW.0>
-3.26816

>  <SCORE.INTRA.norm>
-0.0942767

>  <SCORE.RESTR>
0

>  <SCORE.RESTR.CAVITY>
0

>  <SCORE.RESTR.norm>
0

>  <SCORE.SYSTEM>
0

>  <SCORE.SYSTEM.CONST>
0

>  <SCORE.SYSTEM.DIHEDRAL>
0

>  <SCORE.SYSTEM.SOLV>
0

>  <SCORE.SYSTEM.norm>
0

>  <SCORE.heavy>
27

>  <SCORE.norm>
-0.486875

>  <RMSD>
24.843

$$$$
ligand
 OpenBabel11021811463D
libRbt.so/2013.1/901 2013/11/27
 27 28  0  0  0  0  0  0  0  0999 V2000
  -24.0889   56.9255  -16.6843 C   0  0  0  0  0  0  0  0  0  0  0  0
  -21.7550   57.2042  -10.1594 C   0  0  0  0  0  0  0  0  0  0  0  0
  -23.6791   57.8639   -7.9598 C   0  0  0  0  0  0  0  0  0  0  0  0
  -23.1152   58.3520   -6.6240 C   0  0  0  0  0  0  0  0  0  0  0  0
  -22.9281   57.2573   -5.7235 O   0  0  0  0  0  0  0  0  0  0  0  0
  -21.7507   56.1959   -5.9825 P   0  0  1  0  0  0  0  0  0  0  0  0
  -23.0438   54.3446   -7.6728 P   0  0  2  0  0  0  0  0  0  0  0  0
  -23.7087   61.0455  -10.0400 C   0  0  0  0  0  0  0  0  0  0  0  0
  -23.6265   57.1789  -14.2534 N   0  0  0  0  0  0  0  0  0  0  0  0
  -20.3149   56.9060   -5.9451 O   0  5  0  0  0  0  0  0  0  0  0  0
  -23.3370   54.0739   -9.0952 O   0  0  0  0  0  0  0  0  0  0  0  0
  -22.8209   60.7603  -11.0689 C   0  0  0  0  0  0  0  0  0  0  0  0
  -23.3253   57.5395  -15.5105 C   0  0  0  0  0  0  0  0  0  0  0  0
  -21.7139   55.0129   -4.8813 O   0  0  0  0  0  0  0  0  0  0  0  0
  -24.3596   54.8037   -6.8767 O   0  5  0  0  0  0  0  0  0  0  0  0
  -22.1911   59.5155  -11.1100 N   0  0  0  0  0  0  0  0  0  0  0  0
  -22.3576   58.4365  -15.7491 N   0  0  0  0  0  0  0  0  0  0  0  0
  -21.9475   55.4844   -7.4322 O   0  0  0  0  0  0  0  0  0  0  0  0
  -22.5413   53.0240   -6.9329 O   0  0  0  0  0  0  0  0  0  0  0  0
  -22.4533   58.5703  -10.1111 C   0  0  1  0  0  0  0  0  0  0  0  0
  -21.6782   58.9852  -14.7344 C   0  0  0  0  0  0  0  0  0  0  0  0
  -20.7224   59.8746  -14.9832 N   0  0  0  0  0  0  0  0  0  0  0  0
  -23.3451   58.8574   -9.0789 C   0  0  1  0  0  0  0  0  0  0  0  0
  -21.9726   58.6303  -13.4236 C   0  0  0  0  0  0  0  0  0  0  0  0
  -23.9658   60.1003   -9.0545 C   0  0  0  0  0  0  0  0  0  0  0  0
  -22.9814   57.6955  -13.2209 C   0  0  0  0  0  0  0  0  0  0  0  0
  -21.2415   59.2107  -12.2060 C   0  0  0  0  0  0  0  0  0  0  0  0
  1 13  1  0  0  0  0
  3  4  1  0  0  0  0
  4  5  1  0  0  0  0
  6  5  1  1  0  0  0
  6 10  1  0  0  0  0
  6 14  2  0  0  0  0
  6 18  1  0  0  0  0
  7 11  1  6  0  0  0
  7 15  1  0  0  0  0
  7 19  2  0  0  0  0
  7 18  1  0  0  0  0
  8 25  1  0  0  0  0
  8 12  1  0  0  0  0
  9 26  2  0  0  0  0
  9 13  1  0  0  0  0
 12 16  1  0  0  0  0
 13 17  2  0  0  0  0
 16 20  1  0  0  0  0
 16 27  1  0  0  0  0
 17 21  1  0  0  0  0
 20  2  1  6  0  0  0
 20 23  1  0  0  0  0
 21 22  1  0  0  0  0
 21 24  2  0  0  0  0
 23  3  1  6  0  0  0
 23 25  1  0  0  0  0
 24 27  1  0  0  0  0
 24 26  1  0  0  0  0
M  CHG  2  10  -1  15  -1
M  END
>  <CHROM.1>
-156.48980572,71.37773920,61.32970558,-76.27836295,164.25441754,111.31029170
138.46252702,-87.74460919,-22.59198446,57.21068605,-9.78568118,1.69667513
-1.43550917,-1.08277006

>  <Name>
ligand

>  <RI>
0

>  <Rbt.Current_Directory>
/home/itssahil/PROJECTS/Mol_Feturizer/New_Systems/rnas/3D2V

>  <Rbt.Executable>
rbdock ($Id: //depot/dev/client3/rdock/2013.1/src/exe/rbdock.cxx#4 $)

>  <Rbt.Library>
libRbt.so (2013.1, Build901 2013/11/27)

>  <Rbt.Parameter_File>
/export/apps/rDock/src/rDock_2013.1_src/data/scripts/dock_solv.prm

>  <Rbt.Receptor>
prm/blind_docking_100.prm

>  <SCORE>
-4.69953

>  <SCORE.INTER>
-5.25303

>  <SCORE.INTER.CONST>
1

>  <SCORE.INTER.POLAR>
0

>  <SCORE.INTER.ROT>
8

>  <SCORE.INTER.SOLV>
7.59592

>  <SCORE.INTER.VDW>
-14.9673

>  <SCORE.INTER.norm>
-0.194557

>  <SCORE.INTRA>
0.551382

>  <SCORE.INTRA.DIHEDRAL>
0.59448

>  <SCORE.INTRA.DIHEDRAL.0>
7.82666

>  <SCORE.INTRA.POLAR>
0

>  <SCORE.INTRA.POLAR.0>
0

>  <SCORE.INTRA.REPUL>
0

>  <SCORE.INTRA.REPUL.0>
0

>  <SCORE.INTRA.SOLV>
2.82706

>  <SCORE.INTRA.SOLV.lig_0>
-83.2758

>  <SCORE.INTRA.VDW>
-1.15939

>  <SCORE.INTRA.VDW.0>
-3.26816

>  <SCORE.INTRA.norm>
0.0204216

>  <SCORE.RESTR>
0.00211971

>  <SCORE.RESTR.CAVITY>
0.00211971

>  <SCORE.RESTR.norm>
7.85077e-05

>  <SCORE.SYSTEM>
0

>  <SCORE.SYSTEM.CONST>
0

>  <SCORE.SYSTEM.DIHEDRAL>
0

>  <SCORE.SYSTEM.SOLV>
0

>  <SCORE.SYSTEM.norm>
0

>  <SCORE.heavy>
27

>  <SCORE.norm>
-0.174057

>  <RMSD>
24.872

$$$$
ligand
 OpenBabel11021811463D
libRbt.so/2013.1/901 2013/11/27
 27 28  0  0  0  0  0  0  0  0999 V2000
  -16.9430   61.2765  -11.4549 C   0  0  0  0  0  0  0  0  0  0  0  0
  -22.9417   56.9546  -12.3907 C   0  0  0  0  0  0  0  0  0  0  0  0
  -25.2031   57.3997  -10.4768 C   0  0  0  0  0  0  0  0  0  0  0  0
  -24.4706   57.1652   -9.1543 C   0  0  0  0  0  0  0  0  0  0  0  0
  -23.1098   56.7940   -9.3885 O   0  0  0  0  0  0  0  0  0  0  0  0
  -22.0899   56.6590   -8.1550 P   0  0  1  0  0  0  0  0  0  0  0  0
  -20.8578   54.3582   -9.2249 P   0  0  2  0  0  0  0  0  0  0  0  0
  -24.4979   60.9199  -11.7266 C   0  0  0  0  0  0  0  0  0  0  0  0
  -19.2282   60.3054  -11.3071 N   0  0  0  0  0  0  0  0  0  0  0  0
  -21.6414   58.0999   -7.6167 O   0  5  0  0  0  0  0  0  0  0  0  0
  -19.5570   53.7835   -9.6249 O   0  0  0  0  0  0  0  0  0  0  0  0
  -23.4497   60.7360  -12.6186 C   0  0  0  0  0  0  0  0  0  0  0  0
  -18.2293   60.7450  -12.0880 C   0  0  0  0  0  0  0  0  0  0  0  0
  -22.7239   55.8682   -6.8955 O   0  0  0  0  0  0  0  0  0  0  0  0
  -21.8710   54.4445  -10.4665 O   0  5  0  0  0  0  0  0  0  0  0  0
  -22.9481   59.4520  -12.8367 N   0  0  0  0  0  0  0  0  0  0  0  0
  -18.3477   60.7231  -13.4235 N   0  0  0  0  0  0  0  0  0  0  0  0
  -20.7650   55.8329   -8.6119 O   0  0  0  0  0  0  0  0  0  0  0  0
  -21.5845   53.4307   -8.1499 O   0  0  0  0  0  0  0  0  0  0  0  0
  -23.4997   58.3640  -12.1495 C   0  0  1  0  0  0  0  0  0  0  0  0
  -19.4662   60.2611  -13.9962 C   0  0  0  0  0  0  0  0  0  0  0  0
  -19.5712   60.2425  -15.3210 N   0  0  0  0  0  0  0  0  0  0  0  0
  -24.5523   58.5496  -11.2547 C   0  0  2  0  0  0  0  0  0  0  0  0
  -20.5140   59.7981  -13.2097 C   0  0  0  0  0  0  0  0  0  0  0  0
  -25.0418   59.8341  -11.0513 C   0  0  0  0  0  0  0  0  0  0  0  0
  -20.3506   59.8405  -11.8299 C   0  0  0  0  0  0  0  0  0  0  0  0
  -21.8278   59.2546  -13.7863 C   0  0  0  0  0  0  0  0  0  0  0  0
  1 13  1  0  0  0  0
  3  4  1  0  0  0  0
  4  5  1  0  0  0  0
  6  5  1  6  0  0  0
  6 10  1  0  0  0  0
  6 14  2  0  0  0  0
  6 18  1  0  0  0  0
  7 11  1  6  0  0  0
  7 15  1  0  0  0  0
  7 19  2  0  0  0  0
  7 18  1  0  0  0  0
  8 25  1  0  0  0  0
  8 12  1  0  0  0  0
  9 26  2  0  0  0  0
  9 13  1  0  0  0  0
 12 16  1  0  0  0  0
 13 17  2  0  0  0  0
 16 20  1  0  0  0  0
 16 27  1  0  0  0  0
 17 21  1  0  0  0  0
 20  2  1  6  0  0  0
 20 23  1  0  0  0  0
 21 22  1  0  0  0  0
 21 24  2  0  0  0  0
 23  3  1  1  0  0  0
 23 25  1  0  0  0  0
 24 27  1  0  0  0  0
 24 26  1  0  0  0  0
M  CHG  2  10  -1  15  -1
M  END
>  <CHROM.1>
-61.62702783,172.95599088,-75.49309238,-56.88311969,178.00807039,88.65473615
-152.44582542,71.71022852,-21.62766460,57.80422006,-10.72277358,-1.31405679
-0.07955608,2.45439930

>  <Name>
ligand

>  <RI>
0

>  <Rbt.Current_Directory>
/home/itssahil/PROJECTS/Mol_Feturizer/New_Systems/rnas/3D2V

>  <Rbt.Executable>
rbdock ($Id: //depot/dev/client3/rdock/2013.1/src/exe/rbdock.cxx#4 $)

>  <Rbt.Library>
libRbt.so (2013.1, Build901 2013/11/27)

>  <Rbt.Parameter_File>
/export/apps/rDock/src/rDock_2013.1_src/data/scripts/dock_solv.prm

>  <Rbt.Receptor>
prm/blind_docking_80.prm

>  <SCORE>
-10.8855

>  <SCORE.INTER>
-9.7091

>  <SCORE.INTER.CONST>
1

>  <SCORE.INTER.POLAR>
0

>  <SCORE.INTER.ROT>
8

>  <SCORE.INTER.SOLV>
12.1712

>  <SCORE.INTER.VDW>
-19.4631

>  <SCORE.INTER.norm>
-0.359596

>  <SCORE.INTRA>
-1.1764

>  <SCORE.INTRA.DIHEDRAL>
-1.98003

>  <SCORE.INTRA.DIHEDRAL.0>
7.82666

>  <SCORE.INTRA.POLAR>
0

>  <SCORE.INTRA.POLAR.0>
0

>  <SCORE.INTRA.REPUL>
0

>  <SCORE.INTRA.REPUL.0>
0

>  <SCORE.INTRA.SOLV>
1.26869

>  <SCORE.INTRA.SOLV.lig_0>
-83.2758

>  <SCORE.INTRA.VDW>
-0.820736

>  <SCORE.INTRA.VDW.0>
-3.26816

>  <SCORE.INTRA.norm>
-0.0435705

>  <SCORE.RESTR>
0

>  <SCORE.RESTR.CAVITY>
0

>  <SCORE.RESTR.norm>
0

>  <SCORE.SYSTEM>
0

>  <SCORE.SYSTEM.CONST>
0

>  <SCORE.SYSTEM.DIHEDRAL>
0

>  <SCORE.SYSTEM.SOLV>
0

>  <SCORE.SYSTEM.norm>
0

>  <SCORE.heavy>
27

>  <SCORE.norm>
-0.403167

>  <RMSD>
24.892

$$$$
ligand
 OpenBabel11021811463D
libRbt.so/2013.1/901 2013/11/27
 27 28  0  0  0  0  0  0  0  0999 V2000
  -20.8403   57.5495  -17.7039 C   0  0  0  0  0  0  0  0  0  0  0  0
  -24.5412   56.5210  -12.4696 C   0  0  0  0  0  0  0  0  0  0  0  0
  -23.6785   57.2597   -9.6973 C   0  0  0  0  0  0  0  0  0  0  0  0
  -22.2987   56.7094  -10.0634 C   0  0  0  0  0  0  0  0  0  0  0  0
  -21.9380   55.6308   -9.1969 O   0  0  0  0  0  0  0  0  0  0  0  0
  -20.6489   54.7313   -9.5273 P   0  0  1  0  0  0  0  0  0  0  0  0
  -20.4966   53.6604   -6.9222 P   0  0  2  0  0  0  0  0  0  0  0  0
  -24.5228   60.6438  -11.2093 C   0  0  0  0  0  0  0  0  0  0  0  0
  -22.8374   56.8631  -16.3894 N   0  0  0  0  0  0  0  0  0  0  0  0
  -20.6985   54.1822  -11.0317 O   0  5  0  0  0  0  0  0  0  0  0  0
  -19.4968   54.6540   -6.4799 O   0  0  0  0  0  0  0  0  0  0  0  0
  -24.9270   60.3235  -12.4985 C   0  0  0  0  0  0  0  0  0  0  0  0
  -22.0332   57.8567  -16.7981 C   0  0  0  0  0  0  0  0  0  0  0  0
  -19.2581   55.5407   -9.3727 O   0  0  0  0  0  0  0  0  0  0  0  0
  -20.2025   52.2107   -6.2995 O   0  5  0  0  0  0  0  0  0  0  0  0
  -24.9367   58.9886  -12.9057 N   0  0  0  0  0  0  0  0  0  0  0  0
  -22.2658   59.1217  -16.4189 N   0  0  0  0  0  0  0  0  0  0  0  0
  -20.5735   53.4655   -8.5082 O   0  0  0  0  0  0  0  0  0  0  0  0
  -21.9553   54.0524   -6.4101 O   0  0  0  0  0  0  0  0  0  0  0  0
  -24.5319   57.9871  -12.0151 C   0  0  1  0  0  0  0  0  0  0  0  0
  -23.3055   59.4103  -15.6264 C   0  0  0  0  0  0  0  0  0  0  0  0
  -23.5271   60.6681  -15.2587 N   0  0  0  0  0  0  0  0  0  0  0  0
  -24.1268   58.3096  -10.7209 C   0  0  1  0  0  0  0  0  0  0  0  0
  -24.1543   58.3997  -15.1915 C   0  0  0  0  0  0  0  0  0  0  0  0
  -24.1259   59.6432  -10.3306 C   0  0  0  0  0  0  0  0  0  0  0  0
  -23.8759   57.1024  -15.6062 C   0  0  0  0  0  0  0  0  0  0  0  0
  -25.3653   58.6456  -14.2821 C   0  0  0  0  0  0  0  0  0  0  0  0
  1 13  1  0  0  0  0
  3  4  1  0  0  0  0
  4  5  1  0  0  0  0
  6  5  1  1  0  0  0
  6 10  1  0  0  0  0
  6 14  2  0  0  0  0
  6 18  1  0  0  0  0
  7 11  1  1  0  0  0
  7 15  1  0  0  0  0
  7 19  2  0  0  0  0
  7 18  1  0  0  0  0
  8 25  1  0  0  0  0
  8 12  1  0  0  0  0
  9 26  2  0  0  0  0
  9 13  1  0  0  0  0
 12 16  1  0  0  0  0
 13 17  2  0  0  0  0
 16 20  1  0  0  0  0
 16 27  1  0  0  0  0
 17 21  1  0  0  0  0
 20  2  1  1  0  0  0
 20 23  1  0  0  0  0
 21 22  1  0  0  0  0
 21 24  2  0  0  0  0
 23  3  1  1  0  0  0
 23 25  1  0  0  0  0
 24 27  1  0  0  0  0
 24 26  1  0  0  0  0
M  CHG  2  10  -1  15  -1
M  END
>  <CHROM.1>
-173.80705271,169.94768741,-51.88415745,-58.59215860,-47.60001369,72.59266500
-71.09381740,100.16048693,-22.33802285,56.63218870,-11.34203060,-2.03475893
-0.78917733,1.79324779

>  <Name>
ligand

>  <RI>
0

>  <Rbt.Current_Directory>
/home/itssahil/PROJECTS/Mol_Feturizer/New_Systems/rnas/3D2V

>  <Rbt.Executable>
rbdock ($Id: //depot/dev/client3/rdock/2013.1/src/exe/rbdock.cxx#4 $)

>  <Rbt.Library>
libRbt.so (2013.1, Build901 2013/11/27)

>  <Rbt.Parameter_File>
/export/apps/rDock/src/rDock_2013.1_src/data/scripts/dock_solv.prm

>  <Rbt.Receptor>
prm/blind_docking_100.prm

>  <SCORE>
-10.2975

>  <SCORE.INTER>
-8.74575

>  <SCORE.INTER.CONST>
1

>  <SCORE.INTER.POLAR>
0

>  <SCORE.INTER.ROT>
8

>  <SCORE.INTER.SOLV>
15.8247

>  <SCORE.INTER.VDW>
-20.0387

>  <SCORE.INTER.norm>
-0.323917

>  <SCORE.INTRA>
-1.55171

>  <SCORE.INTRA.DIHEDRAL>
-1.68467

>  <SCORE.INTRA.DIHEDRAL.0>
7.82666

>  <SCORE.INTRA.POLAR>
0

>  <SCORE.INTRA.POLAR.0>
0

>  <SCORE.INTRA.REPUL>
0

>  <SCORE.INTRA.REPUL.0>
0

>  <SCORE.INTRA.SOLV>
-0.880364

>  <SCORE.INTRA.SOLV.lig_0>
-83.2758

>  <SCORE.INTRA.VDW>
-0.269198

>  <SCORE.INTRA.VDW.0>
-3.26816

>  <SCORE.INTRA.norm>
-0.0574709

>  <SCORE.RESTR>
0

>  <SCORE.RESTR.CAVITY>
0

>  <SCORE.RESTR.norm>
0

>  <SCORE.SYSTEM>
0

>  <SCORE.SYSTEM.CONST>
0

>  <SCORE.SYSTEM.DIHEDRAL>
0

>  <SCORE.SYSTEM.SOLV>
0

>  <SCORE.SYSTEM.norm>
0

>  <SCORE.heavy>
27

>  <SCORE.norm>
-0.381387

>  <RMSD>
24.928

$$$$
ligand
 OpenBabel11021811463D
libRbt.so/2013.1/901 2013/11/27
 27 28  0  0  0  0  0  0  0  0999 V2000
  -19.9693   54.1158   -9.7496 C   0  0  0  0  0  0  0  0  0  0  0  0
  -24.7304   59.8357  -11.7858 C   0  0  0  0  0  0  0  0  0  0  0  0
  -24.5231   60.6979  -14.6474 C   0  0  0  0  0  0  0  0  0  0  0  0
  -23.1076   61.1169  -15.0493 C   0  0  0  0  0  0  0  0  0  0  0  0
  -22.6155   60.2887  -16.1058 O   0  0  0  0  0  0  0  0  0  0  0  0
  -21.0805   60.3999  -16.5656 P   0  0  1  0  0  0  0  0  0  0  0  0
  -20.8838   57.7456  -17.4996 P   0  0  2  0  0  0  0  0  0  0  0  0
  -24.4966   56.9080  -14.9417 C   0  0  0  0  0  0  0  0  0  0  0  0
  -21.3228   55.5362  -11.2786 N   0  0  0  0  0  0  0  0  0  0  0  0
  -20.7453   61.8702  -17.1070 O   0  5  0  0  0  0  0  0  0  0  0  0
  -20.0460   57.2401  -16.3928 O   0  0  0  0  0  0  0  0  0  0  0  0
  -24.5929   56.4865  -13.6222 C   0  0  0  0  0  0  0  0  0  0  0  0
  -21.2480   54.8698  -10.1162 C   0  0  0  0  0  0  0  0  0  0  0  0
  -20.0391   60.0966  -15.3669 O   0  0  0  0  0  0  0  0  0  0  0  0
  -20.5091   57.0410  -18.8920 O   0  5  0  0  0  0  0  0  0  0  0  0
  -24.6724   57.4339  -12.6005 N   0  0  0  0  0  0  0  0  0  0  0  0
  -22.2874   54.8579   -9.2691 N   0  0  0  0  0  0  0  0  0  0  0  0
  -20.7697   59.3224  -17.7441 O   0  0  0  0  0  0  0  0  0  0  0  0
  -22.4219   57.4029  -17.2529 O   0  0  0  0  0  0  0  0  0  0  0  0
  -24.6463   58.7982  -12.9138 C   0  0  1  0  0  0  0  0  0  0  0  0
  -23.4152   55.5124   -9.5724 C   0  0  0  0  0  0  0  0  0  0  0  0
  -24.4381   55.4950   -8.7240 N   0  0  0  0  0  0  0  0  0  0  0  0
  -24.5502   59.2203  -14.2388 C   0  0  1  0  0  0  0  0  0  0  0  0
  -23.5169   56.2119  -10.7688 C   0  0  0  0  0  0  0  0  0  0  0  0
  -24.4749   58.2641  -15.2441 C   0  0  0  0  0  0  0  0  0  0  0  0
  -22.4171   56.1965  -11.6189 C   0  0  0  0  0  0  0  0  0  0  0  0
  -24.7725   56.9855  -11.1917 C   0  0  0  0  0  0  0  0  0  0  0  0
  1 13  1  0  0  0  0
  3  4  1  0  0  0  0
  4  5  1  0  0  0  0
  6  5  1  1  0  0  0
  6 10  1  0  0  0  0
  6 14  2  0  0  0  0
  6 18  1  0  0  0  0
  7 11  1  1  0  0  0
  7 15  1  0  0  0  0
  7 19  2  0  0  0  0
  7 18  1  0  0  0  0
  8 25  1  0  0  0  0
  8 12  1  0  0  0  0
  9 26  2  0  0  0  0
  9 13  1  0  0  0  0
 12 16  1  0  0  0  0
 13 17  2  0  0  0  0
 16 20  1  0  0  0  0
 16 27  1  0  0  0  0
 17 21  1  0  0  0  0
 20  2  1  6  0  0  0
 20 23  1  0  0  0  0
 21 22  1  0  0  0  0
 21 24  2  0  0  0  0
 23  3  1  6  0  0  0
 23 25  1  0  0  0  0
 24 27  1  0  0  0  0
 24 26  1  0  0  0  0
M  CHG  2  10  -1  15  -1
M  END
>  <CHROM.1>
56.83915574,-171.67002326,-61.12423082,-62.98515528,-56.67834962,105.15294342
-170.42688130,63.27057846,-22.43444207,57.95892601,-14.13473727,-1.85030564
0.66313303,-0.89583064

>  <Name>
ligand

>  <RI>
0

>  <Rbt.Current_Directory>
/home/itssahil/PROJECTS/Mol_Feturizer/New_Systems/rnas/3D2V

>  <Rbt.Executable>
rbdock ($Id: //depot/dev/client3/rdock/2013.1/src/exe/rbdock.cxx#4 $)

>  <Rbt.Library>
libRbt.so (2013.1, Build901 2013/11/27)

>  <Rbt.Parameter_File>
/export/apps/rDock/src/rDock_2013.1_src/data/scripts/dock_solv.prm

>  <Rbt.Receptor>
prm/blind_docking_80.prm

>  <SCORE>
-13.5339

>  <SCORE.INTER>
-11.1798

>  <SCORE.INTER.CONST>
1

>  <SCORE.INTER.POLAR>
0

>  <SCORE.INTER.ROT>
8

>  <SCORE.INTER.SOLV>
14.3971

>  <SCORE.INTER.VDW>
-21.1856

>  <SCORE.INTER.norm>
-0.414068

>  <SCORE.INTRA>
-2.35402

>  <SCORE.INTRA.DIHEDRAL>
-2.23435

>  <SCORE.INTRA.DIHEDRAL.0>
7.82666

>  <SCORE.INTRA.POLAR>
0

>  <SCORE.INTRA.POLAR.0>
0

>  <SCORE.INTRA.REPUL>
0

>  <SCORE.INTRA.REPUL.0>
0

>  <SCORE.INTRA.SOLV>
-1.33492

>  <SCORE.INTRA.SOLV.lig_0>
-83.2758

>  <SCORE.INTRA.VDW>
-0.569383

>  <SCORE.INTRA.VDW.0>
-3.26816

>  <SCORE.INTRA.norm>
-0.0871859

>  <SCORE.RESTR>
0

>  <SCORE.RESTR.CAVITY>
0

>  <SCORE.RESTR.norm>
0

>  <SCORE.SYSTEM>
0

>  <SCORE.SYSTEM.CONST>
0

>  <SCORE.SYSTEM.DIHEDRAL>
0

>  <SCORE.SYSTEM.SOLV>
0

>  <SCORE.SYSTEM.norm>
0

>  <SCORE.heavy>
27

>  <SCORE.norm>
-0.501254

>  <RMSD>
24.929

$$$$
ligand
 OpenBabel11021811463D
libRbt.so/2013.1/901 2013/11/27
 27 28  0  0  0  0  0  0  0  0999 V2000
  -19.3615   57.5005   -6.9905 C   0  0  0  0  0  0  0  0  0  0  0  0
  -24.7504   60.2461  -12.2460 C   0  0  0  0  0  0  0  0  0  0  0  0
  -25.1695   58.5059  -14.6483 C   0  0  0  0  0  0  0  0  0  0  0  0
  -24.3315   57.7773  -15.7007 C   0  0  0  0  0  0  0  0  0  0  0  0
  -22.9376   57.8854  -15.4011 O   0  0  0  0  0  0  0  0  0  0  0  0
  -22.1655   59.2703  -15.6576 P   0  0  1  0  0  0  0  0  0  0  0  0
  -20.1703   58.4308  -17.4661 P   0  0  2  0  0  0  0  0  0  0  0  0
  -24.6272   55.9518  -11.8854 C   0  0  0  0  0  0  0  0  0  0  0  0
  -20.6393   58.6351   -8.7980 N   0  0  0  0  0  0  0  0  0  0  0  0
  -23.1644   60.5177  -15.5435 O   0  5  0  0  0  0  0  0  0  0  0  0
  -20.2879   56.9826  -17.1992 O   0  0  0  0  0  0  0  0  0  0  0  0
  -24.4310   56.7396  -10.7589 C   0  0  0  0  0  0  0  0  0  0  0  0
  -20.6677   57.8805   -7.6886 C   0  0  0  0  0  0  0  0  0  0  0  0
  -20.9710   59.5322  -14.6001 O   0  0  0  0  0  0  0  0  0  0  0  0
  -18.9865   59.0940  -16.6090 O   0  5  0  0  0  0  0  0  0  0  0  0
  -24.4745   58.1298  -10.8745 N   0  0  0  0  0  0  0  0  0  0  0  0
  -21.8345   57.4543   -7.1836 N   0  0  0  0  0  0  0  0  0  0  0  0
  -21.4923   59.2698  -17.1386 O   0  0  0  0  0  0  0  0  0  0  0  0
  -19.7899   58.7003  -18.9915 O   0  0  0  0  0  0  0  0  0  0  0  0
  -24.7072   58.7166  -12.1242 C   0  0  1  0  0  0  0  0  0  0  0  0
  -22.9885   57.7770   -7.7807 C   0  0  0  0  0  0  0  0  0  0  0  0
  -24.1389   57.3504   -7.2698 N   0  0  0  0  0  0  0  0  0  0  0  0
  -24.9046   57.9249  -13.2543 C   0  0  2  0  0  0  0  0  0  0  0  0
  -22.9861   58.5591   -8.9292 C   0  0  0  0  0  0  0  0  0  0  0  0
  -24.8610   56.5424  -13.1213 C   0  0  0  0  0  0  0  0  0  0  0  0
  -21.7549   58.9778   -9.4203 C   0  0  0  0  0  0  0  0  0  0  0  0
  -24.2626   58.9718   -9.6737 C   0  0  0  0  0  0  0  0  0  0  0  0
  1 13  1  0  0  0  0
  3  4  1  0  0  0  0
  4  5  1  0  0  0  0
  6  5  1  1  0  0  0
  6 10  1  0  0  0  0
  6 14  2  0  0  0  0
  6 18  1  0  0  0  0
  7 11  1  1  0  0  0
  7 15  1  0  0  0  0
  7 19  2  0  0  0  0
  7 18  1  0  0  0  0
  8 25  1  0  0  0  0
  8 12  1  0  0  0  0
  9 26  2  0  0  0  0
  9 13  1  0  0  0  0
 12 16  1  0  0  0  0
 13 17  2  0  0  0  0
 16 20  1  0  0  0  0
 16 27  1  0  0  0  0
 17 21  1  0  0  0  0
 20  2  1  1  0  0  0
 20 23  1  0  0  0  0
 21 22  1  0  0  0  0
 21 24  2  0  0  0  0
 23  3  1  6  0  0  0
 23 25  1  0  0  0  0
 24 27  1  0  0  0  0
 24 26  1  0  0  0  0
M  CHG  2  10  -1  15  -1
M  END
>  <CHROM.1>
-58.76019395,-74.64520538,27.83188264,-75.16483840,57.60043720,135.46796018
-101.23576668,50.88939255,-22.40865303,58.36818872,-13.02433943,-1.74511993
-0.04451280,-1.48523351

>  <Name>
ligand

>  <RI>
0

>  <Rbt.Current_Directory>
/home/itssahil/PROJECTS/Mol_Feturizer/New_Systems/rnas/3D2V

>  <Rbt.Executable>
rbdock ($Id: //depot/dev/client3/rdock/2013.1/src/exe/rbdock.cxx#4 $)

>  <Rbt.Library>
libRbt.so (2013.1, Build901 2013/11/27)

>  <Rbt.Parameter_File>
/export/apps/rDock/src/rDock_2013.1_src/data/scripts/dock_solv.prm

>  <Rbt.Receptor>
prm/blind_docking_100.prm

>  <SCORE>
-7.28736

>  <SCORE.INTER>
-7.86881

>  <SCORE.INTER.CONST>
1

>  <SCORE.INTER.POLAR>
0

>  <SCORE.INTER.ROT>
8

>  <SCORE.INTER.SOLV>
13.4255

>  <SCORE.INTER.VDW>
-18.6544

>  <SCORE.INTER.norm>
-0.291437

>  <SCORE.INTRA>
0.534033

>  <SCORE.INTRA.DIHEDRAL>
0.0689313

>  <SCORE.INTRA.DIHEDRAL.0>
7.82666

>  <SCORE.INTRA.POLAR>
0

>  <SCORE.INTRA.POLAR.0>
0

>  <SCORE.INTRA.REPUL>
0

>  <SCORE.INTRA.REPUL.0>
0

>  <SCORE.INTRA.SOLV>
0.898682

>  <SCORE.INTRA.SOLV.lig_0>
-83.2758

>  <SCORE.INTRA.VDW>
0.0502267

>  <SCORE.INTRA.VDW.0>
-3.26816

>  <SCORE.INTRA.norm>
0.019779

>  <SCORE.RESTR>
0.0474133

>  <SCORE.RESTR.CAVITY>
0.0474133

>  <SCORE.RESTR.norm>
0.00175605

>  <SCORE.SYSTEM>
0

>  <SCORE.SYSTEM.CONST>
0

>  <SCORE.SYSTEM.DIHEDRAL>
0

>  <SCORE.SYSTEM.SOLV>
0

>  <SCORE.SYSTEM.norm>
0

>  <SCORE.heavy>
27

>  <SCORE.norm>
-0.269902

>  <RMSD>
24.936

$$$$
ligand
 OpenBabel11021811463D
libRbt.so/2013.1/901 2013/11/27
 27 28  0  0  0  0  0  0  0  0999 V2000
  -26.5714   61.0322  -14.8697 C   0  0  0  0  0  0  0  0  0  0  0  0
  -21.7435   54.8026  -11.2905 C   0  0  0  0  0  0  0  0  0  0  0  0
  -23.0707   53.5358   -8.9222 C   0  0  0  0  0  0  0  0  0  0  0  0
  -22.1279   54.0172   -7.8176 C   0  0  0  0  0  0  0  0  0  0  0  0
  -22.8290   54.8288   -6.8722 O   0  0  0  0  0  0  0  0  0  0  0  0
  -22.0191   55.6041   -5.7219 P   0  0  1  0  0  0  0  0  0  0  0  0
  -23.2417   58.1132   -6.1294 P   0  0  2  0  0  0  0  0  0  0  0  0
  -25.5108   56.3059   -9.8297 C   0  0  0  0  0  0  0  0  0  0  0  0
  -25.0736   60.1734  -13.0790 N   0  0  0  0  0  0  0  0  0  0  0  0
  -22.7261   55.4223   -4.2957 O   0  5  0  0  0  0  0  0  0  0  0  0
  -23.8297   58.4215   -4.8096 O   0  0  0  0  0  0  0  0  0  0  0  0
  -24.9133   56.9075  -10.9293 C   0  0  0  0  0  0  0  0  0  0  0  0
  -25.6438   59.9710  -14.2769 C   0  0  0  0  0  0  0  0  0  0  0  0
  -20.4986   55.0799   -5.5579 O   0  0  0  0  0  0  0  0  0  0  0  0
  -24.2899   57.3551   -7.0792 O   0  5  0  0  0  0  0  0  0  0  0  0
  -23.6956   56.4189  -11.4049 N   0  0  0  0  0  0  0  0  0  0  0  0
  -25.4077   58.8431  -14.9625 N   0  0  0  0  0  0  0  0  0  0  0  0
  -21.9357   57.1913   -6.0687 O   0  0  0  0  0  0  0  0  0  0  0  0
  -22.8559   59.4506   -6.9081 O   0  0  0  0  0  0  0  0  0  0  0  0
  -23.0845   55.3336  -10.7653 C   0  0  1  0  0  0  0  0  0  0  0  0
  -24.5982   57.9026  -14.4600 C   0  0  0  0  0  0  0  0  0  0  0  0
  -24.3702   56.7896  -15.1497 N   0  0  0  0  0  0  0  0  0  0  0  0
  -23.6854   54.7300   -9.6619 C   0  0  2  0  0  0  0  0  0  0  0  0
  -23.9938   58.0892  -13.2228 C   0  0  0  0  0  0  0  0  0  0  0  0
  -24.8991   55.2270   -9.2030 C   0  0  0  0  0  0  0  0  0  0  0  0
  -24.2673   59.2715  -12.5447 C   0  0  0  0  0  0  0  0  0  0  0  0
  -23.0555   57.0616  -12.5766 C   0  0  0  0  0  0  0  0  0  0  0  0
  1 13  1  0  0  0  0
  3  4  1  0  0  0  0
  4  5  1  0  0  0  0
  6  5  1  6  0  0  0
  6 10  1  0  0  0  0
  6 14  2  0  0  0  0
  6 18  1  0  0  0  0
  7 11  1  1  0  0  0
  7 15  1  0  0  0  0
  7 19  2  0  0  0  0
  7 18  1  0  0  0  0
  8 25  1  0  0  0  0
  8 12  1  0  0  0  0
  9 26  2  0  0  0  0
  9 13  1  0  0  0  0
 12 16  1  0  0  0  0
 13 17  2  0  0  0  0
 16 20  1  0  0  0  0
 16 27  1  0  0  0  0
 17 21  1  0  0  0  0
 20  2  1  6  0  0  0
 20 23  1  0  0  0  0
 21 22  1  0  0  0  0
 21 24  2  0  0  0  0
 23  3  1  1  0  0  0
 23 25  1  0  0  0  0
 24 27  1  0  0  0  0
 24 26  1  0  0  0  0
M  CHG  2  10  -1  15  -1
M  END
>  <CHROM.1>
59.57467297,-172.31420497,-133.93401629,64.54936129,73.12690162,88.41250668
-109.49920903,-8.45818149,-23.54577663,56.94466174,-9.41356929,2.39776520
1.17605213,-2.05078398

>  <Name>
ligand

>  <RI>
0

>  <Rbt.Current_Directory>
/home/itssahil/PROJECTS/Mol_Feturizer/New_Systems/rnas/3D2V

>  <Rbt.Executable>
rbdock ($Id: //depot/dev/client3/rdock/2013.1/src/exe/rbdock.cxx#4 $)

>  <Rbt.Library>
libRbt.so (2013.1, Build901 2013/11/27)

>  <Rbt.Parameter_File>
/export/apps/rDock/src/rDock_2013.1_src/data/scripts/dock_solv.prm

>  <Rbt.Receptor>
prm/blind_docking_80.prm

>  <SCORE>
-11.1684

>  <SCORE.INTER>
-10.7092

>  <SCORE.INTER.CONST>
1

>  <SCORE.INTER.POLAR>
0

>  <SCORE.INTER.ROT>
8

>  <SCORE.INTER.SOLV>
19.2535

>  <SCORE.INTER.VDW>
-22.4906

>  <SCORE.INTER.norm>
-0.396637

>  <SCORE.INTRA>
-0.459151

>  <SCORE.INTRA.DIHEDRAL>
0.0252171

>  <SCORE.INTRA.DIHEDRAL.0>
7.82666

>  <SCORE.INTRA.POLAR>
0

>  <SCORE.INTRA.POLAR.0>
0

>  <SCORE.INTRA.REPUL>
0

>  <SCORE.INTRA.REPUL.0>
0

>  <SCORE.INTRA.SOLV>
-0.504873

>  <SCORE.INTRA.SOLV.lig_0>
-83.2758

>  <SCORE.INTRA.VDW>
-0.219323

>  <SCORE.INTRA.VDW.0>
-3.26816

>  <SCORE.INTRA.norm>
-0.0170056

>  <SCORE.RESTR>
0

>  <SCORE.RESTR.CAVITY>
0

>  <SCORE.RESTR.norm>
0

>  <SCORE.SYSTEM>
0

>  <SCORE.SYSTEM.CONST>
0

>  <SCORE.SYSTEM.DIHEDRAL>
0

>  <SCORE.SYSTEM.SOLV>
0

>  <SCORE.SYSTEM.norm>
0

>  <SCORE.heavy>
27

>  <SCORE.norm>
-0.413643

>  <RMSD>
24.977

$$$$
ligand
 OpenBabel11021811463D
libRbt.so/2013.1/901 2013/11/27
 27 28  0  0  0  0  0  0  0  0999 V2000
  -21.7550   57.9565  -17.0587 C   0  0  0  0  0  0  0  0  0  0  0  0
  -24.8738   56.7899   -9.7306 C   0  0  0  0  0  0  0  0  0  0  0  0
  -23.9207   58.6873   -7.6171 C   0  0  0  0  0  0  0  0  0  0  0  0
  -22.4277   58.6238   -7.2891 C   0  0  0  0  0  0  0  0  0  0  0  0
  -21.7616   57.6892   -8.1418 O   0  0  0  0  0  0  0  0  0  0  0  0
  -20.2113   57.3449   -7.9010 P   0  0  1  0  0  0  0  0  0  0  0  0
  -20.4092   54.9283   -9.3423 P   0  0  2  0  0  0  0  0  0  0  0  0
  -24.0425   60.9075  -10.7005 C   0  0  0  0  0  0  0  0  0  0  0  0
  -22.5947   56.9218  -14.9584 N   0  0  0  0  0  0  0  0  0  0  0  0
  -19.3136   58.6716   -7.9347 O   0  5  0  0  0  0  0  0  0  0  0  0
  -19.6665   54.0341  -10.2540 O   0  0  0  0  0  0  0  0  0  0  0  0
  -24.4840   60.0451  -11.6953 C   0  0  0  0  0  0  0  0  0  0  0  0
  -22.6806   57.9281  -15.8420 C   0  0  0  0  0  0  0  0  0  0  0  0
  -19.9369   56.6332   -6.4756 O   0  0  0  0  0  0  0  0  0  0  0  0
  -21.8615   55.2881   -9.9230 O   0  5  0  0  0  0  0  0  0  0  0  0
  -24.7568   58.7130  -11.3809 N   0  0  0  0  0  0  0  0  0  0  0  0
  -23.5734   58.9134  -15.6685 N   0  0  0  0  0  0  0  0  0  0  0  0
  -19.6802   56.3217   -9.0488 O   0  0  0  0  0  0  0  0  0  0  0  0
  -20.6788   54.2170   -7.9404 O   0  0  0  0  0  0  0  0  0  0  0  0
  -24.5756   58.2569  -10.0697 C   0  0  1  0  0  0  0  0  0  0  0  0
  -24.3925   58.9057  -14.6096 C   0  0  0  0  0  0  0  0  0  0  0  0
  -25.2747   59.8868  -14.4493 N   0  0  0  0  0  0  0  0  0  0  0  0
  -24.1329   59.1234   -9.0717 C   0  0  2  0  0  0  0  0  0  0  0  0
  -24.3251   57.8737  -13.6815 C   0  0  0  0  0  0  0  0  0  0  0  0
  -23.8686   60.4473   -9.4009 C   0  0  0  0  0  0  0  0  0  0  0  0
  -23.3840   56.8737  -13.8982 C   0  0  0  0  0  0  0  0  0  0  0  0
  -25.2255   57.7910  -12.4421 C   0  0  0  0  0  0  0  0  0  0  0  0
  1 13  1  0  0  0  0
  3  4  1  0  0  0  0
  4  5  1  0  0  0  0
  6  5  1  6  0  0  0
  6 10  1  0  0  0  0
  6 14  2  0  0  0  0
  6 18  1  0  0  0  0
  7 11  1  6  0  0  0
  7 15  1  0  0  0  0
  7 19  2  0  0  0  0
  7 18  1  0  0  0  0
  8 25  1  0  0  0  0
  8 12  1  0  0  0  0
  9 26  2  0  0  0  0
  9 13  1  0  0  0  0
 12 16  1  0  0  0  0
 13 17  2  0  0  0  0
 16 20  1  0  0  0  0
 16 27  1  0  0  0  0
 17 21  1  0  0  0  0
 20  2  1  1  0  0  0
 20 23  1  0  0  0  0
 21 22  1  0  0  0  0
 21 24  2  0  0  0  0
 23  3  1  6  0  0  0
 23 25  1  0  0  0  0
 24 27  1  0  0  0  0
 24 26  1  0  0  0  0
M  CHG  2  10  -1  15  -1
M  END
>  <CHROM.1>
-59.89843387,-174.35266900,-56.32650961,-54.53211118,-170.36780388,108.29647307
-77.65625448,49.59535254,-22.40245494,57.52561545,-10.66632209,-2.24048804
-0.78047132,1.38052969

>  <Name>
ligand

>  <RI>
0

>  <Rbt.Current_Directory>
/home/itssahil/PROJECTS/Mol_Feturizer/New_Systems/rnas/3D2V

>  <Rbt.Executable>
rbdock ($Id: //depot/dev/client3/rdock/2013.1/src/exe/rbdock.cxx#4 $)

>  <Rbt.Library>
libRbt.so (2013.1, Build901 2013/11/27)

>  <Rbt.Parameter_File>
/export/apps/rDock/src/rDock_2013.1_src/data/scripts/dock_solv.prm

>  <Rbt.Receptor>
prm/blind_docking_80.prm

>  <SCORE>
-11.4773

>  <SCORE.INTER>
-10.5924

>  <SCORE.INTER.CONST>
1

>  <SCORE.INTER.POLAR>
0

>  <SCORE.INTER.ROT>
8

>  <SCORE.INTER.SOLV>
11.6426

>  <SCORE.INTER.VDW>
-19.8758

>  <SCORE.INTER.norm>
-0.392311

>  <SCORE.INTRA>
-0.884936

>  <SCORE.INTRA.DIHEDRAL>
-2.26596

>  <SCORE.INTRA.DIHEDRAL.0>
7.82666

>  <SCORE.INTRA.POLAR>
0

>  <SCORE.INTRA.POLAR.0>
0

>  <SCORE.INTRA.REPUL>
0

>  <SCORE.INTRA.REPUL.0>
0

>  <SCORE.INTRA.SOLV>
2.12632

>  <SCORE.INTRA.SOLV.lig_0>
-83.2758

>  <SCORE.INTRA.VDW>
-0.815117

>  <SCORE.INTRA.VDW.0>
-3.26816

>  <SCORE.INTRA.norm>
-0.0327754

>  <SCORE.RESTR>
0

>  <SCORE.RESTR.CAVITY>
0

>  <SCORE.RESTR.norm>
0

>  <SCORE.SYSTEM>
0

>  <SCORE.SYSTEM.CONST>
0

>  <SCORE.SYSTEM.DIHEDRAL>
0

>  <SCORE.SYSTEM.SOLV>
0

>  <SCORE.SYSTEM.norm>
0

>  <SCORE.heavy>
27

>  <SCORE.norm>
-0.425086

>  <RMSD>
24.987

$$$$
ligand
 OpenBabel11021811463D
libRbt.so/2013.1/901 2013/11/27
 27 28  0  0  0  0  0  0  0  0999 V2000
  -24.3603   56.9354  -16.6840 C   0  0  0  0  0  0  0  0  0  0  0  0
  -23.0478   60.0615   -8.7148 C   0  0  0  0  0  0  0  0  0  0  0  0
  -24.3239   58.3750   -6.5929 C   0  0  0  0  0  0  0  0  0  0  0  0
  -24.0196   57.0958   -5.8107 C   0  0  0  0  0  0  0  0  0  0  0  0
  -22.6116   56.9474   -5.6116 O   0  0  0  0  0  0  0  0  0  0  0  0
  -21.6408   56.7252   -6.8718 P   0  0  1  0  0  0  0  0  0  0  0  0
  -22.1665   54.4599   -8.4682 P   0  0  2  0  0  0  0  0  0  0  0  0
  -25.4253   56.6278   -9.7844 C   0  0  0  0  0  0  0  0  0  0  0  0
  -23.3472   56.9738  -14.4126 N   0  0  0  0  0  0  0  0  0  0  0  0
  -21.0690   58.1207   -7.4130 O   0  5  0  0  0  0  0  0  0  0  0  0
  -20.7746   54.1842   -8.8796 O   0  0  0  0  0  0  0  0  0  0  0  0
  -24.8422   57.3955  -10.7839 C   0  0  0  0  0  0  0  0  0  0  0  0
  -24.1291   57.5820  -15.3179 C   0  0  0  0  0  0  0  0  0  0  0  0
  -20.3607   55.8000   -6.5270 O   0  0  0  0  0  0  0  0  0  0  0  0
  -23.2091   54.0905   -9.6311 O   0  5  0  0  0  0  0  0  0  0  0  0
  -24.0695   58.5049  -10.4379 N   0  0  0  0  0  0  0  0  0  0  0  0
  -24.7123   58.7561  -15.0359 N   0  0  0  0  0  0  0  0  0  0  0  0
  -22.4467   55.9852   -8.0757 O   0  0  0  0  0  0  0  0  0  0  0  0
  -22.5833   53.5541   -7.2234 O   0  0  0  0  0  0  0  0  0  0  0  0
  -23.8958   58.8381   -9.0892 C   0  0  1  0  0  0  0  0  0  0  0  0
  -24.5219   59.3376  -13.8451 C   0  0  0  0  0  0  0  0  0  0  0  0
  -25.1068   60.5004  -13.5764 N   0  0  0  0  0  0  0  0  0  0  0  0
  -24.4811   58.0666   -8.0866 C   0  0  1  0  0  0  0  0  0  0  0  0
  -23.7187   58.7269  -12.8898 C   0  0  0  0  0  0  0  0  0  0  0  0
  -25.2450   56.9636   -8.4481 C   0  0  0  0  0  0  0  0  0  0  0  0
  -23.1317   57.5119  -13.2238 C   0  0  0  0  0  0  0  0  0  0  0  0
  -23.4489   59.3266  -11.5036 C   0  0  0  0  0  0  0  0  0  0  0  0
  1 13  1  0  0  0  0
  3  4  1  0  0  0  0
  4  5  1  0  0  0  0
  6  5  1  1  0  0  0
  6 10  1  0  0  0  0
  6 14  2  0  0  0  0
  6 18  1  0  0  0  0
  7 11  1  6  0  0  0
  7 15  1  0  0  0  0
  7 19  2  0  0  0  0
  7 18  1  0  0  0  0
  8 25  1  0  0  0  0
  8 12  1  0  0  0  0
  9 26  2  0  0  0  0
  9 13  1  0  0  0  0
 12 16  1  0  0  0  0
 13 17  2  0  0  0  0
 16 20  1  0  0  0  0
 16 27  1  0  0  0  0
 17 21  1  0  0  0  0
 20  2  1  1  0  0  0
 20 23  1  0  0  0  0
 21 22  1  0  0  0  0
 21 24  2  0  0  0  0
 23  3  1  1  0  0  0
 23 25  1  0  0  0  0
 24 27  1  0  0  0  0
 24 26  1  0  0  0  0
M  CHG  2  10  -1  15  -1
M  END
>  <CHROM.1>
96.01473433,-64.99547354,92.39346048,-108.15484930,-59.46224897,-135.09262525
112.49922248,-3.40171865,-23.21320720,57.09039217,-9.78420415,-2.28286906
-1.15685258,1.20924990

>  <Name>
ligand

>  <RI>
0

>  <Rbt.Current_Directory>
/home/itssahil/PROJECTS/Mol_Feturizer/New_Systems/rnas/3D2V

>  <Rbt.Executable>
rbdock ($Id: //depot/dev/client3/rdock/2013.1/src/exe/rbdock.cxx#4 $)

>  <Rbt.Library>
libRbt.so (2013.1, Build901 2013/11/27)

>  <Rbt.Parameter_File>
/export/apps/rDock/src/rDock_2013.1_src/data/scripts/dock_solv.prm

>  <Rbt.Receptor>
prm/blind_docking_80.prm

>  <SCORE>
-6.63326

>  <SCORE.INTER>
-9.38

>  <SCORE.INTER.CONST>
1

>  <SCORE.INTER.POLAR>
0

>  <SCORE.INTER.ROT>
8

>  <SCORE.INTER.SOLV>
10.7862

>  <SCORE.INTER.VDW>
-18.7821

>  <SCORE.INTER.norm>
-0.347407

>  <SCORE.INTRA>
2.74674

>  <SCORE.INTRA.DIHEDRAL>
4.58055

>  <SCORE.INTRA.DIHEDRAL.0>
7.82666

>  <SCORE.INTRA.POLAR>
0

>  <SCORE.INTRA.POLAR.0>
0

>  <SCORE.INTRA.REPUL>
0

>  <SCORE.INTRA.REPUL.0>
0

>  <SCORE.INTRA.SOLV>
2.24336

>  <SCORE.INTRA.SOLV.lig_0>
-83.2758

>  <SCORE.INTRA.VDW>
-0.665218

>  <SCORE.INTRA.VDW.0>
-3.26816

>  <SCORE.INTRA.norm>
0.101731

>  <SCORE.RESTR>
0

>  <SCORE.RESTR.CAVITY>
0

>  <SCORE.RESTR.norm>
0

>  <SCORE.SYSTEM>
0

>  <SCORE.SYSTEM.CONST>
0

>  <SCORE.SYSTEM.DIHEDRAL>
0

>  <SCORE.SYSTEM.SOLV>
0

>  <SCORE.SYSTEM.norm>
0

>  <SCORE.heavy>
27

>  <SCORE.norm>
-0.245676

>  <RMSD>
24.988

$$$$
ligand
 OpenBabel11021811463D
libRbt.so/2013.1/901 2013/11/27
 27 28  0  0  0  0  0  0  0  0999 V2000
  -19.7874   58.6929  -17.7435 C   0  0  0  0  0  0  0  0  0  0  0  0
  -23.7058   60.0965  -10.8616 C   0  0  0  0  0  0  0  0  0  0  0  0
  -21.9157   60.8299   -8.5740 C   0  0  0  0  0  0  0  0  0  0  0  0
  -22.2095   60.1189   -7.2516 C   0  0  0  0  0  0  0  0  0  0  0  0
  -23.2878   59.1925   -7.4039 O   0  0  0  0  0  0  0  0  0  0  0  0
  -23.5153   58.0375   -6.3110 P   0  0  1  0  0  0  0  0  0  0  0  0
  -22.1946   55.6934   -5.4641 P   0  0  2  0  0  0  0  0  0  0  0  0
  -19.8023   58.3074  -10.4769 C   0  0  0  0  0  0  0  0  0  0  0  0
  -20.0308   58.8958  -15.2763 N   0  0  0  0  0  0  0  0  0  0  0  0
  -23.8736   58.6604   -4.8790 O   0  5  0  0  0  0  0  0  0  0  0  0
  -22.7247   55.7006   -4.0851 O   0  0  0  0  0  0  0  0  0  0  0  0
  -20.6156   57.9537  -11.5454 C   0  0  0  0  0  0  0  0  0  0  0  0
  -20.5848   58.5452  -16.4473 C   0  0  0  0  0  0  0  0  0  0  0  0
  -24.7217   57.0327   -6.6966 O   0  0  0  0  0  0  0  0  0  0  0  0
  -20.6892   55.1395   -5.5141 O   0  5  0  0  0  0  0  0  0  0  0  0
  -21.8778   58.5354  -11.6723 N   0  0  0  0  0  0  0  0  0  0  0  0
  -21.8358   58.0646  -16.4928 N   0  0  0  0  0  0  0  0  0  0  0  0
  -22.1730   57.1296   -6.1682 O   0  0  0  0  0  0  0  0  0  0  0  0
  -23.0382   54.7097   -6.3940 O   0  0  0  0  0  0  0  0  0  0  0  0
  -22.3152   59.4626  -10.7188 C   0  0  1  0  0  0  0  0  0  0  0  0
  -22.5495   57.9277  -15.3684 C   0  0  0  0  0  0  0  0  0  0  0  0
  -23.7879   57.4485  -15.4259 N   0  0  0  0  0  0  0  0  0  0  0  0
  -21.4978   59.8174   -9.6469 C   0  0  1  0  0  0  0  0  0  0  0  0
  -21.9978   58.2815  -14.1431 C   0  0  0  0  0  0  0  0  0  0  0  0
  -20.2428   59.2311   -9.5369 C   0  0  0  0  0  0  0  0  0  0  0  0
  -20.6990   58.7773  -14.1412 C   0  0  0  0  0  0  0  0  0  0  0  0
  -22.7479   58.1569  -12.8106 C   0  0  0  0  0  0  0  0  0  0  0  0
  1 13  1  0  0  0  0
  3  4  1  0  0  0  0
  4  5  1  0  0  0  0
  6  5  1  6  0  0  0
  6 10  1  0  0  0  0
  6 14  2  0  0  0  0
  6 18  1  0  0  0  0
  7 11  1  1  0  0  0
  7 15  1  0  0  0  0
  7 19  2  0  0  0  0
  7 18  1  0  0  0  0
  8 25  1  0  0  0  0
  8 12  1  0  0  0  0
  9 26  2  0  0  0  0
  9 13  1  0  0  0  0
 12 16  1  0  0  0  0
 13 17  2  0  0  0  0
 16 20  1  0  0  0  0
 16 27  1  0  0  0  0
 17 21  1  0  0  0  0
 20  2  1  6  0  0  0
 20 23  1  0  0  0  0
 21 22  1  0  0  0  0
 21 24  2  0  0  0  0
 23  3  1  6  0  0  0
 23 25  1  0  0  0  0
 24 27  1  0  0  0  0
 24 26  1  0  0  0  0
M  CHG  2  10  -1  15  -1
M  END
>  <CHROM.1>
-61.29330806,162.51960506,63.63649324,-163.71479298,-55.86497594,108.00083708
176.72726850,-51.31700992,-22.15294326,57.99330314,-9.81121859,-1.03754594
-1.27346785,2.25037287

>  <Name>
ligand

>  <RI>
0

>  <Rbt.Current_Directory>
/home/itssahil/PROJECTS/Mol_Feturizer/New_Systems/rnas/3D2V

>  <Rbt.Executable>
rbdock ($Id: //depot/dev/client3/rdock/2013.1/src/exe/rbdock.cxx#4 $)

>  <Rbt.Library>
libRbt.so (2013.1, Build901 2013/11/27)

>  <Rbt.Parameter_File>
/export/apps/rDock/src/rDock_2013.1_src/data/scripts/dock_solv.prm

>  <Rbt.Receptor>
prm/blind_docking_100.prm

>  <SCORE>
-8.82694

>  <SCORE.INTER>
-8.42468

>  <SCORE.INTER.CONST>
1

>  <SCORE.INTER.POLAR>
0

>  <SCORE.INTER.ROT>
8

>  <SCORE.INTER.SOLV>
17.7213

>  <SCORE.INTER.VDW>
-20.4569

>  <SCORE.INTER.norm>
-0.312025

>  <SCORE.INTRA>
-0.402259

>  <SCORE.INTRA.DIHEDRAL>
-0.770517

>  <SCORE.INTRA.DIHEDRAL.0>
7.82666

>  <SCORE.INTRA.POLAR>
0

>  <SCORE.INTRA.POLAR.0>
0

>  <SCORE.INTRA.REPUL>
0

>  <SCORE.INTRA.REPUL.0>
0

>  <SCORE.INTRA.SOLV>
-1.35543

>  <SCORE.INTRA.SOLV.lig_0>
-83.2758

>  <SCORE.INTRA.VDW>
0.660713

>  <SCORE.INTRA.VDW.0>
-3.26816

>  <SCORE.INTRA.norm>
-0.0148985

>  <SCORE.RESTR>
0

>  <SCORE.RESTR.CAVITY>
0

>  <SCORE.RESTR.norm>
0

>  <SCORE.SYSTEM>
0

>  <SCORE.SYSTEM.CONST>
0

>  <SCORE.SYSTEM.DIHEDRAL>
0

>  <SCORE.SYSTEM.SOLV>
0

>  <SCORE.SYSTEM.norm>
0

>  <SCORE.heavy>
27

>  <SCORE.norm>
-0.326924

>  <RMSD>
25.076

$$$$
ligand
 OpenBabel11021811463D
libRbt.so/2013.1/901 2013/11/27
 27 28  0  0  0  0  0  0  0  0999 V2000
  -18.1023   57.1233   -7.9269 C   0  0  0  0  0  0  0  0  0  0  0  0
  -24.2285   57.9560  -10.4750 C   0  0  0  0  0  0  0  0  0  0  0  0
  -24.6269   59.6078  -12.9425 C   0  0  0  0  0  0  0  0  0  0  0  0
  -23.4613   59.6613  -13.9319 C   0  0  0  0  0  0  0  0  0  0  0  0
  -23.8349   59.0844  -15.1856 O   0  0  0  0  0  0  0  0  0  0  0  0
  -23.9221   57.4881  -15.3415 P   0  0  1  0  0  0  0  0  0  0  0  0
  -21.2881   57.6375  -16.3396 P   0  0  2  0  0  0  0  0  0  0  0  0
  -23.6663   62.2289  -10.3621 C   0  0  0  0  0  0  0  0  0  0  0  0
  -19.7298   58.9827   -8.2118 N   0  0  0  0  0  0  0  0  0  0  0  0
  -24.6016   56.8188  -14.0542 O   0  5  0  0  0  0  0  0  0  0  0  0
  -20.7089   58.7877  -15.6157 O   0  0  0  0  0  0  0  0  0  0  0  0
  -23.4758   61.4823   -9.2070 C   0  0  0  0  0  0  0  0  0  0  0  0
  -19.5249   57.6834   -7.9458 C   0  0  0  0  0  0  0  0  0  0  0  0
  -24.7943   57.0257  -16.6217 O   0  0  0  0  0  0  0  0  0  0  0  0
  -21.9384   58.0869  -17.7363 O   0  5  0  0  0  0  0  0  0  0  0  0
  -23.6540   60.0986   -9.2440 N   0  0  0  0  0  0  0  0  0  0  0  0
  -20.5591   56.8675   -7.6954 N   0  0  0  0  0  0  0  0  0  0  0  0
  -22.4329   56.8624  -15.5348 O   0  0  0  0  0  0  0  0  0  0  0  0
  -20.1596   56.5767  -16.7206 O   0  0  0  0  0  0  0  0  0  0  0  0
  -24.0304   59.4778  -10.4411 C   0  0  1  0  0  0  0  0  0  0  0  0
  -21.8119   57.3396   -7.7072 C   0  0  0  0  0  0  0  0  0  0  0  0
  -22.8288   56.5216   -7.4556 N   0  0  0  0  0  0  0  0  0  0  0  0
  -24.2209   60.2281  -11.6003 C   0  0  2  0  0  0  0  0  0  0  0  0
  -22.0503   58.6815   -7.9775 C   0  0  0  0  0  0  0  0  0  0  0  0
  -24.0365   61.6043  -11.5469 C   0  0  0  0  0  0  0  0  0  0  0  0
  -20.9502   59.4919   -8.2337 C   0  0  0  0  0  0  0  0  0  0  0  0
  -23.4536   59.3008   -8.0114 C   0  0  0  0  0  0  0  0  0  0  0  0
  1 13  1  0  0  0  0
  3  4  1  0  0  0  0
  4  5  1  0  0  0  0
  6  5  1  1  0  0  0
  6 10  1  0  0  0  0
  6 14  2  0  0  0  0
  6 18  1  0  0  0  0
  7 11  1  1  0  0  0
  7 15  1  0  0  0  0
  7 19  2  0  0  0  0
  7 18  1  0  0  0  0
  8 25  1  0  0  0  0
  8 12  1  0  0  0  0
  9 26  2  0  0  0  0
  9 13  1  0  0  0  0
 12 16  1  0  0  0  0
 13 17  2  0  0  0  0
 16 20  1  0  0  0  0
 16 27  1  0  0  0  0
 17 21  1  0  0  0  0
 20  2  1  6  0  0  0
 20 23  1  0  0  0  0
 21 22  1  0  0  0  0
 21 24  2  0  0  0  0
 23  3  1  1  0  0  0
 23 25  1  0  0  0  0
 24 27  1  0  0  0  0
 24 26  1  0  0  0  0
M  CHG  2  10  -1  15  -1
M  END
>  <CHROM.1>
-179.97936998,-76.40375002,41.45833101,-34.94180266,73.77644320,-109.44376895
-130.61623355,-97.44647901,-22.52098697,58.43984900,-12.20967095,-1.41942002
0.56784419,-1.76680989

>  <Name>
ligand

>  <RI>
0

>  <Rbt.Current_Directory>
/home/itssahil/PROJECTS/Mol_Feturizer/New_Systems/rnas/3D2V

>  <Rbt.Executable>
rbdock ($Id: //depot/dev/client3/rdock/2013.1/src/exe/rbdock.cxx#4 $)

>  <Rbt.Library>
libRbt.so (2013.1, Build901 2013/11/27)

>  <Rbt.Parameter_File>
/export/apps/rDock/src/rDock_2013.1_src/data/scripts/dock_solv.prm

>  <Rbt.Receptor>
prm/blind_docking_80.prm

>  <SCORE>
-6.54434

>  <SCORE.INTER>
-6.69015

>  <SCORE.INTER.CONST>
1

>  <SCORE.INTER.POLAR>
0

>  <SCORE.INTER.ROT>
8

>  <SCORE.INTER.SOLV>
22.643

>  <SCORE.INTER.VDW>
-20.9411

>  <SCORE.INTER.norm>
-0.247783

>  <SCORE.INTRA>
0.14581

>  <SCORE.INTRA.DIHEDRAL>
0.365159

>  <SCORE.INTRA.DIHEDRAL.0>
7.82666

>  <SCORE.INTRA.POLAR>
0

>  <SCORE.INTRA.POLAR.0>
0

>  <SCORE.INTRA.REPUL>
0

>  <SCORE.INTRA.REPUL.0>
0

>  <SCORE.INTRA.SOLV>
0.969546

>  <SCORE.INTRA.SOLV.lig_0>
-83.2758

>  <SCORE.INTRA.VDW>
-0.521543

>  <SCORE.INTRA.VDW.0>
-3.26816

>  <SCORE.INTRA.norm>
0.00540036

>  <SCORE.RESTR>
0

>  <SCORE.RESTR.CAVITY>
0

>  <SCORE.RESTR.norm>
0

>  <SCORE.SYSTEM>
0

>  <SCORE.SYSTEM.CONST>
0

>  <SCORE.SYSTEM.DIHEDRAL>
0

>  <SCORE.SYSTEM.SOLV>
0

>  <SCORE.SYSTEM.norm>
0

>  <SCORE.heavy>
27

>  <SCORE.norm>
-0.242383

>  <RMSD>
25.092

$$$$
ligand
 OpenBabel11021811463D
libRbt.so/2013.1/901 2013/11/27
 27 28  0  0  0  0  0  0  0  0999 V2000
  -21.0828   57.4398  -18.3515 C   0  0  0  0  0  0  0  0  0  0  0  0
  -24.7823   60.1859  -11.9606 C   0  0  0  0  0  0  0  0  0  0  0  0
  -24.2139   58.7460   -9.3957 C   0  0  0  0  0  0  0  0  0  0  0  0
  -22.7251   58.9549   -9.1122 C   0  0  0  0  0  0  0  0  0  0  0  0
  -22.0320   57.7044   -9.0999 O   0  0  0  0  0  0  0  0  0  0  0  0
  -20.4268   57.6758   -9.0488 P   0  0  1  0  0  0  0  0  0  0  0  0
  -20.6539   54.9902   -9.8810 P   0  0  2  0  0  0  0  0  0  0  0  0
  -24.4794   55.8860  -11.8859 C   0  0  0  0  0  0  0  0  0  0  0  0
  -23.3067   57.0993  -17.2907 N   0  0  0  0  0  0  0  0  0  0  0  0
  -19.7956   58.4582  -10.2964 O   0  5  0  0  0  0  0  0  0  0  0  0
  -19.8336   53.7914  -10.1501 O   0  0  0  0  0  0  0  0  0  0  0  0
  -24.7429   56.5334  -13.0858 C   0  0  0  0  0  0  0  0  0  0  0  0
  -22.1406   57.7634  -17.2960 C   0  0  0  0  0  0  0  0  0  0  0  0
  -19.8255   58.3638   -7.7152 O   0  0  0  0  0  0  0  0  0  0  0  0
  -21.1759   55.6645  -11.2406 O   0  5  0  0  0  0  0  0  0  0  0  0
  -24.8373   57.9256  -13.1111 N   0  0  0  0  0  0  0  0  0  0  0  0
  -21.8921   58.7119  -16.3813 N   0  0  0  0  0  0  0  0  0  0  0  0
  -19.8935   56.1390   -9.0680 O   0  0  0  0  0  0  0  0  0  0  0  0
  -21.9706   54.6089   -9.0656 O   0  0  0  0  0  0  0  0  0  0  0  0
  -24.6739   58.6552  -11.9274 C   0  0  1  0  0  0  0  0  0  0  0  0
  -22.8061   59.0095  -15.4494 C   0  0  0  0  0  0  0  0  0  0  0  0
  -22.5491   59.9529  -14.5492 N   0  0  0  0  0  0  0  0  0  0  0  0
  -24.4089   58.0044  -10.7235 C   0  0  1  0  0  0  0  0  0  0  0  0
  -24.0222   58.3379  -15.4240 C   0  0  0  0  0  0  0  0  0  0  0  0
  -24.3151   56.6181  -10.7163 C   0  0  0  0  0  0  0  0  0  0  0  0
  -24.2382   57.3606  -16.3888 C   0  0  0  0  0  0  0  0  0  0  0  0
  -25.1210   58.6175  -14.3904 C   0  0  0  0  0  0  0  0  0  0  0  0
  1 13  1  0  0  0  0
  3  4  1  0  0  0  0
  4  5  1  0  0  0  0
  6  5  1  6  0  0  0
  6 10  1  0  0  0  0
  6 14  2  0  0  0  0
  6 18  1  0  0  0  0
  7 11  1  6  0  0  0
  7 15  1  0  0  0  0
  7 19  2  0  0  0  0
  7 18  1  0  0  0  0
  8 25  1  0  0  0  0
  8 12  1  0  0  0  0
  9 26  2  0  0  0  0
  9 13  1  0  0  0  0
 12 16  1  0  0  0  0
 13 17  2  0  0  0  0
 16 20  1  0  0  0  0
 16 27  1  0  0  0  0
 17 21  1  0  0  0  0
 20  2  1  6  0  0  0
 20 23  1  0  0  0  0
 21 22  1  0  0  0  0
 21 24  2  0  0  0  0
 23  3  1  6  0  0  0
 23 25  1  0  0  0  0
 24 27  1  0  0  0  0
 24 26  1  0  0  0  0
M  CHG  2  10  -1  15  -1
M  END
>  <CHROM.1>
-56.94115858,170.58276682,-58.41784820,34.06847736,161.40162615,-96.58108399
-80.83117149,-60.79897194,-22.36419457,57.39307915,-11.95661543,-1.98533487
-0.65350096,1.52996385

>  <Name>
ligand

>  <RI>
0

>  <Rbt.Current_Directory>
/home/itssahil/PROJECTS/Mol_Feturizer/New_Systems/rnas/3D2V

>  <Rbt.Executable>
rbdock ($Id: //depot/dev/client3/rdock/2013.1/src/exe/rbdock.cxx#4 $)

>  <Rbt.Library>
libRbt.so (2013.1, Build901 2013/11/27)

>  <Rbt.Parameter_File>
/export/apps/rDock/src/rDock_2013.1_src/data/scripts/dock_solv.prm

>  <Rbt.Receptor>
prm/blind_docking_100.prm

>  <SCORE>
-14.1912

>  <SCORE.INTER>
-13.6129

>  <SCORE.INTER.CONST>
1

>  <SCORE.INTER.POLAR>
0

>  <SCORE.INTER.ROT>
8

>  <SCORE.INTER.SOLV>
12.6896

>  <SCORE.INTER.VDW>
-22.2384

>  <SCORE.INTER.norm>
-0.504181

>  <SCORE.INTRA>
-0.578291

>  <SCORE.INTRA.DIHEDRAL>
-0.750403

>  <SCORE.INTRA.DIHEDRAL.0>
7.82666

>  <SCORE.INTRA.POLAR>
0

>  <SCORE.INTRA.POLAR.0>
0

>  <SCORE.INTRA.REPUL>
0

>  <SCORE.INTRA.REPUL.0>
0

>  <SCORE.INTRA.SOLV>
2.76815

>  <SCORE.INTRA.SOLV.lig_0>
-83.2758

>  <SCORE.INTRA.VDW>
-1.58717

>  <SCORE.INTRA.VDW.0>
-3.26816

>  <SCORE.INTRA.norm>
-0.0214182

>  <SCORE.RESTR>
0

>  <SCORE.RESTR.CAVITY>
0

>  <SCORE.RESTR.norm>
0

>  <SCORE.SYSTEM>
0

>  <SCORE.SYSTEM.CONST>
0

>  <SCORE.SYSTEM.DIHEDRAL>
0

>  <SCORE.SYSTEM.SOLV>
0

>  <SCORE.SYSTEM.norm>
0

>  <SCORE.heavy>
27

>  <SCORE.norm>
-0.525599

>  <RMSD>
25.100

$$$$
ligand
 OpenBabel11021811463D
libRbt.so/2013.1/901 2013/11/27
 27 28  0  0  0  0  0  0  0  0999 V2000
  -17.0245   61.7957  -11.5651 C   0  0  0  0  0  0  0  0  0  0  0  0
  -22.9794   56.4634  -12.0721 C   0  0  0  0  0  0  0  0  0  0  0  0
  -25.2237   56.9445  -10.1467 C   0  0  0  0  0  0  0  0  0  0  0  0
  -24.4642   56.4432   -8.9168 C   0  0  0  0  0  0  0  0  0  0  0  0
  -24.4481   57.4393   -7.8913 O   0  0  0  0  0  0  0  0  0  0  0  0
  -23.4465   57.2927   -6.6442 P   0  0  1  0  0  0  0  0  0  0  0  0
  -22.4530   54.6886   -7.0777 P   0  0  2  0  0  0  0  0  0  0  0  0
  -24.1905   60.4810  -11.0829 C   0  0  0  0  0  0  0  0  0  0  0  0
  -19.0368   60.4010  -11.1261 N   0  0  0  0  0  0  0  0  0  0  0  0
  -21.9916   57.8598   -7.0027 O   0  5  0  0  0  0  0  0  0  0  0  0
  -21.6724   55.3027   -8.1714 O   0  0  0  0  0  0  0  0  0  0  0  0
  -23.1482   60.2807  -11.9783 C   0  0  0  0  0  0  0  0  0  0  0  0
  -18.2435   60.9978  -12.0291 C   0  0  0  0  0  0  0  0  0  0  0  0
  -23.9489   58.0948   -5.3336 O   0  0  0  0  0  0  0  0  0  0  0  0
  -23.4887   53.5961   -7.6340 O   0  5  0  0  0  0  0  0  0  0  0  0
  -22.7583   58.9802  -12.3016 N   0  0  0  0  0  0  0  0  0  0  0  0
  -18.5096   60.9015  -13.3398 N   0  0  0  0  0  0  0  0  0  0  0  0
  -23.3103   55.7290   -6.2165 O   0  0  0  0  0  0  0  0  0  0  0  0
  -21.5009   53.8956   -6.0733 O   0  0  0  0  0  0  0  0  0  0  0  0
  -23.4149   57.8914  -11.7155 C   0  0  1  0  0  0  0  0  0  0  0  0
  -19.5721   60.2070  -13.7654 C   0  0  0  0  0  0  0  0  0  0  0  0
  -19.8247   60.1170  -15.0671 N   0  0  0  0  0  0  0  0  0  0  0  0
  -24.4614   58.0936  -10.8171 C   0  0  1  0  0  0  0  0  0  0  0  0
  -20.4077   59.5779  -12.8505 C   0  0  0  0  0  0  0  0  0  0  0  0
  -24.8390   59.3947  -10.5083 C   0  0  0  0  0  0  0  0  0  0  0  0
  -20.0968   59.7048  -11.5016 C   0  0  0  0  0  0  0  0  0  0  0  0
  -21.6445   58.7650  -13.2550 C   0  0  0  0  0  0  0  0  0  0  0  0
  1 13  1  0  0  0  0
  3  4  1  0  0  0  0
  4  5  1  0  0  0  0
  6  5  1  6  0  0  0
  6 10  1  0  0  0  0
  6 14  2  0  0  0  0
  6 18  1  0  0  0  0
  7 11  1  6  0  0  0
  7 15  1  0  0  0  0
  7 19  2  0  0  0  0
  7 18  1  0  0  0  0
  8 25  1  0  0  0  0
  8 12  1  0  0  0  0
  9 26  2  0  0  0  0
  9 13  1  0  0  0  0
 12 16  1  0  0  0  0
 13 17  2  0  0  0  0
 16 20  1  0  0  0  0
 16 27  1  0  0  0  0
 17 21  1  0  0  0  0
 20  2  1  6  0  0  0
 20 23  1  0  0  0  0
 21 22  1  0  0  0  0
 21 24  2  0  0  0  0
 23  3  1  6  0  0  0
 23 25  1  0  0  0  0
 24 27  1  0  0  0  0
 24 26  1  0  0  0  0
M  CHG  2  10  -1  15  -1
M  END
>  <CHROM.1>
67.30072093,-166.23270444,84.04119569,75.00318592,7.42615692,83.15334958
-141.77406157,51.29203927,-22.16960184,57.88205613,-9.77292412,-1.13104844
0.21917328,2.13452576

>  <Name>
ligand

>  <RI>
0

>  <Rbt.Current_Directory>
/home/itssahil/PROJECTS/Mol_Feturizer/New_Systems/rnas/3D2V

>  <Rbt.Executable>
rbdock ($Id: //depot/dev/client3/rdock/2013.1/src/exe/rbdock.cxx#4 $)

>  <Rbt.Library>
libRbt.so (2013.1, Build901 2013/11/27)

>  <Rbt.Parameter_File>
/export/apps/rDock/src/rDock_2013.1_src/data/scripts/dock_solv.prm

>  <Rbt.Receptor>
prm/blind_docking_80.prm

>  <SCORE>
-7.72515

>  <SCORE.INTER>
-7.53698

>  <SCORE.INTER.CONST>
1

>  <SCORE.INTER.POLAR>
0

>  <SCORE.INTER.ROT>
8

>  <SCORE.INTER.SOLV>
13.4439

>  <SCORE.INTER.VDW>
-18.4393

>  <SCORE.INTER.norm>
-0.279148

>  <SCORE.INTRA>
-0.188169

>  <SCORE.INTRA.DIHEDRAL>
1.92895

>  <SCORE.INTRA.DIHEDRAL.0>
7.82666

>  <SCORE.INTRA.POLAR>
0

>  <SCORE.INTRA.POLAR.0>
0

>  <SCORE.INTRA.REPUL>
0

>  <SCORE.INTRA.REPUL.0>
0

>  <SCORE.INTRA.SOLV>
-1.73414

>  <SCORE.INTRA.SOLV.lig_0>
-83.2758

>  <SCORE.INTRA.VDW>
-0.285572

>  <SCORE.INTRA.VDW.0>
-3.26816

>  <SCORE.INTRA.norm>
-0.00696921

>  <SCORE.RESTR>
0

>  <SCORE.RESTR.CAVITY>
0

>  <SCORE.RESTR.norm>
0

>  <SCORE.SYSTEM>
0

>  <SCORE.SYSTEM.CONST>
0

>  <SCORE.SYSTEM.DIHEDRAL>
0

>  <SCORE.SYSTEM.SOLV>
0

>  <SCORE.SYSTEM.norm>
0

>  <SCORE.heavy>
27

>  <SCORE.norm>
-0.286117

>  <RMSD>
25.132

$$$$
ligand
 OpenBabel11021811463D
libRbt.so/2013.1/901 2013/11/27
 27 28  0  0  0  0  0  0  0  0999 V2000
  -18.3331   58.7501   -9.7132 C   0  0  0  0  0  0  0  0  0  0  0  0
  -23.8685   56.8942  -12.5811 C   0  0  0  0  0  0  0  0  0  0  0  0
  -24.3028   57.3401  -15.5116 C   0  0  0  0  0  0  0  0  0  0  0  0
  -22.8557   57.0250  -15.8951 C   0  0  0  0  0  0  0  0  0  0  0  0
  -22.2690   58.1214  -16.6006 O   0  0  0  0  0  0  0  0  0  0  0  0
  -20.7502   58.0258  -17.1147 P   0  0  1  0  0  0  0  0  0  0  0  0
  -19.4099   59.3964  -15.0456 P   0  0  2  0  0  0  0  0  0  0  0  0
  -24.6622   60.8507  -14.0983 C   0  0  0  0  0  0  0  0  0  0  0  0
  -20.2708   59.3550  -11.1508 N   0  0  0  0  0  0  0  0  0  0  0  0
  -20.5074   56.6803  -17.9501 O   0  5  0  0  0  0  0  0  0  0  0  0
  -18.7088   60.4266  -15.8391 O   0  0  0  0  0  0  0  0  0  0  0  0
  -24.4632   60.6665  -12.7365 C   0  0  0  0  0  0  0  0  0  0  0  0
  -19.8342   58.8587   -9.9828 C   0  0  0  0  0  0  0  0  0  0  0  0
  -20.3318   59.2542  -18.0788 O   0  0  0  0  0  0  0  0  0  0  0  0
  -18.5584   58.9652  -13.7553 O   0  5  0  0  0  0  0  0  0  0  0  0
  -24.2025   59.3865  -12.2454 N   0  0  0  0  0  0  0  0  0  0  0  0
  -20.7043   58.4552   -9.0457 N   0  0  0  0  0  0  0  0  0  0  0  0
  -19.7282   58.0503  -15.8493 O   0  0  0  0  0  0  0  0  0  0  0  0
  -20.7890   59.9578  -14.4737 O   0  0  0  0  0  0  0  0  0  0  0  0
  -24.1520   58.3003  -13.1273 C   0  0  1  0  0  0  0  0  0  0  0  0
  -22.0223   58.5428   -9.2635 C   0  0  0  0  0  0  0  0  0  0  0  0
  -22.8751   58.1414   -8.3264 N   0  0  0  0  0  0  0  0  0  0  0  0
  -24.3514   58.4863  -14.4943 C   0  0  2  0  0  0  0  0  0  0  0  0
  -22.4997   59.0552  -10.4636 C   0  0  0  0  0  0  0  0  0  0  0  0
  -24.6070   59.7677  -14.9671 C   0  0  0  0  0  0  0  0  0  0  0  0
  -21.5637   59.4599  -11.4084 C   0  0  0  0  0  0  0  0  0  0  0  0
  -23.9925   59.1881  -10.7920 C   0  0  0  0  0  0  0  0  0  0  0  0
  1 13  1  0  0  0  0
  3  4  1  0  0  0  0
  4  5  1  0  0  0  0
  6  5  1  1  0  0  0
  6 10  1  0  0  0  0
  6 14  2  0  0  0  0
  6 18  1  0  0  0  0
  7 11  1  6  0  0  0
  7 15  1  0  0  0  0
  7 19  2  0  0  0  0
  7 18  1  0  0  0  0
  8 25  1  0  0  0  0
  8 12  1  0  0  0  0
  9 26  2  0  0  0  0
  9 13  1  0  0  0  0
 12 16  1  0  0  0  0
 13 17  2  0  0  0  0
 16 20  1  0  0  0  0
 16 27  1  0  0  0  0
 17 21  1  0  0  0  0
 20  2  1  6  0  0  0
 20 23  1  0  0  0  0
 21 22  1  0  0  0  0
 21 24  2  0  0  0  0
 23  3  1  1  0  0  0
 23 25  1  0  0  0  0
 24 27  1  0  0  0  0
 24 26  1  0  0  0  0
M  CHG  2  10  -1  15  -1
M  END
>  <CHROM.1>
-65.95861554,-179.78328646,51.32383581,-75.12182654,-65.04167397,-82.06214633
-163.62876344,-101.28947676,-21.60821465,58.75683729,-13.70648654,-1.75525075
-0.06463327,-1.64910331

>  <Name>
ligand

>  <RI>
0

>  <Rbt.Current_Directory>
/home/itssahil/PROJECTS/Mol_Feturizer/New_Systems/rnas/3D2V

>  <Rbt.Executable>
rbdock ($Id: //depot/dev/client3/rdock/2013.1/src/exe/rbdock.cxx#4 $)

>  <Rbt.Library>
libRbt.so (2013.1, Build901 2013/11/27)

>  <Rbt.Parameter_File>
/export/apps/rDock/src/rDock_2013.1_src/data/scripts/dock_solv.prm

>  <Rbt.Receptor>
prm/blind_docking_80.prm

>  <SCORE>
-11.4331

>  <SCORE.INTER>
-8.84873

>  <SCORE.INTER.CONST>
1

>  <SCORE.INTER.POLAR>
0

>  <SCORE.INTER.ROT>
8

>  <SCORE.INTER.SOLV>
15.5396

>  <SCORE.INTER.VDW>
-20.0123

>  <SCORE.INTER.norm>
-0.327731

>  <SCORE.INTRA>
-2.58436

>  <SCORE.INTRA.DIHEDRAL>
-1.98056

>  <SCORE.INTRA.DIHEDRAL.0>
7.82666

>  <SCORE.INTRA.POLAR>
0

>  <SCORE.INTRA.POLAR.0>
0

>  <SCORE.INTRA.REPUL>
0

>  <SCORE.INTRA.REPUL.0>
0

>  <SCORE.INTRA.SOLV>
0.55867

>  <SCORE.INTRA.SOLV.lig_0>
-83.2758

>  <SCORE.INTRA.VDW>
-1.87342

>  <SCORE.INTRA.VDW.0>
-3.26816

>  <SCORE.INTRA.norm>
-0.0957171

>  <SCORE.RESTR>
0

>  <SCORE.RESTR.CAVITY>
0

>  <SCORE.RESTR.norm>
0

>  <SCORE.SYSTEM>
0

>  <SCORE.SYSTEM.CONST>
0

>  <SCORE.SYSTEM.DIHEDRAL>
0

>  <SCORE.SYSTEM.SOLV>
0

>  <SCORE.SYSTEM.norm>
0

>  <SCORE.heavy>
27

>  <SCORE.norm>
-0.423448

>  <RMSD>
25.158

$$$$
ligand
 OpenBabel11021811463D
libRbt.so/2013.1/901 2013/11/27
 27 28  0  0  0  0  0  0  0  0999 V2000
  -19.9617   57.7467  -16.7494 C   0  0  0  0  0  0  0  0  0  0  0  0
  -24.1174   56.5392  -11.8506 C   0  0  0  0  0  0  0  0  0  0  0  0
  -23.7506   57.8630   -9.1881 C   0  0  0  0  0  0  0  0  0  0  0  0
  -24.8821   57.0286   -8.5845 C   0  0  0  0  0  0  0  0  0  0  0  0
  -24.4013   56.2367   -7.4955 O   0  0  0  0  0  0  0  0  0  0  0  0
  -23.4049   55.0080   -7.7739 P   0  0  1  0  0  0  0  0  0  0  0  0
  -21.0462   54.4891   -9.2312 P   0  0  2  0  0  0  0  0  0  0  0  0
  -24.9850   60.7329  -11.3539 C   0  0  0  0  0  0  0  0  0  0  0  0
  -21.4245   58.4506  -14.8647 N   0  0  0  0  0  0  0  0  0  0  0  0
  -22.8897   54.3605   -6.4019 O   0  5  0  0  0  0  0  0  0  0  0  0
  -20.5477   53.4939   -8.2599 O   0  0  0  0  0  0  0  0  0  0  0  0
  -25.1626   60.1392  -12.5965 C   0  0  0  0  0  0  0  0  0  0  0  0
  -21.3217   57.8444  -16.0575 C   0  0  0  0  0  0  0  0  0  0  0  0
  -24.0939   53.8161   -8.6213 O   0  0  0  0  0  0  0  0  0  0  0  0
  -19.8518   55.3788   -9.8293 O   0  5  0  0  0  0  0  0  0  0  0  0
  -24.8855   58.7808  -12.7568 N   0  0  0  0  0  0  0  0  0  0  0  0
  -22.4039   57.3211  -16.6517 N   0  0  0  0  0  0  0  0  0  0  0  0
  -22.1185   55.5138   -8.6318 O   0  0  0  0  0  0  0  0  0  0  0  0
  -21.7113   53.7724  -10.4913 O   0  0  0  0  0  0  0  0  0  0  0  0
  -24.4241   58.0321  -11.6675 C   0  0  1  0  0  0  0  0  0  0  0  0
  -23.6031   57.3965  -16.0614 C   0  0  0  0  0  0  0  0  0  0  0  0
  -24.6682   56.8724  -16.6592 N   0  0  0  0  0  0  0  0  0  0  0  0
  -24.2466   58.6289  -10.4204 C   0  0  2  0  0  0  0  0  0  0  0  0
  -23.7355   58.0170  -14.8251 C   0  0  0  0  0  0  0  0  0  0  0  0
  -24.5299   59.9816  -10.2772 C   0  0  0  0  0  0  0  0  0  0  0  0
  -22.5890   58.5478  -14.2453 C   0  0  0  0  0  0  0  0  0  0  0  0
  -25.0720   58.1465  -14.0830 C   0  0  0  0  0  0  0  0  0  0  0  0
  1 13  1  0  0  0  0
  3  4  1  0  0  0  0
  4  5  1  0  0  0  0
  6  5  1  1  0  0  0
  6 10  1  0  0  0  0
  6 14  2  0  0  0  0
  6 18  1  0  0  0  0
  7 11  1  1  0  0  0
  7 15  1  0  0  0  0
  7 19  2  0  0  0  0
  7 18  1  0  0  0  0
  8 25  1  0  0  0  0
  8 12  1  0  0  0  0
  9 26  2  0  0  0  0
  9 13  1  0  0  0  0
 12 16  1  0  0  0  0
 13 17  2  0  0  0  0
 16 20  1  0  0  0  0
 16 27  1  0  0  0  0
 17 21  1  0  0  0  0
 20  2  1  1  0  0  0
 20 23  1  0  0  0  0
 21 22  1  0  0  0  0
 21 24  2  0  0  0  0
 23  3  1  6  0  0  0
 23 25  1  0  0  0  0
 24 27  1  0  0  0  0
 24 26  1  0  0  0  0
M  CHG  2  10  -1  15  -1
M  END
>  <CHROM.1>
175.72610245,-69.23911111,174.48318430,-171.76891101,-49.08566392,-77.78240637
176.56217683,99.44059356,-23.03308884,56.69423418,-11.27203941,-1.65386371
-0.72985433,1.95187309

>  <Name>
ligand

>  <RI>
0

>  <Rbt.Current_Directory>
/home/itssahil/PROJECTS/Mol_Feturizer/New_Systems/rnas/3D2V

>  <Rbt.Executable>
rbdock ($Id: //depot/dev/client3/rdock/2013.1/src/exe/rbdock.cxx#4 $)

>  <Rbt.Library>
libRbt.so (2013.1, Build901 2013/11/27)

>  <Rbt.Parameter_File>
/export/apps/rDock/src/rDock_2013.1_src/data/scripts/dock_solv.prm

>  <Rbt.Receptor>
prm/blind_docking_80.prm

>  <SCORE>
-7.16267

>  <SCORE.INTER>
-6.3845

>  <SCORE.INTER.CONST>
1

>  <SCORE.INTER.POLAR>
0

>  <SCORE.INTER.ROT>
8

>  <SCORE.INTER.SOLV>
22.7843

>  <SCORE.INTER.VDW>
-20.7844

>  <SCORE.INTER.norm>
-0.236463

>  <SCORE.INTRA>
-0.792964

>  <SCORE.INTRA.DIHEDRAL>
-1.81612

>  <SCORE.INTRA.DIHEDRAL.0>
7.82666

>  <SCORE.INTRA.POLAR>
0

>  <SCORE.INTRA.POLAR.0>
0

>  <SCORE.INTRA.REPUL>
0

>  <SCORE.INTRA.REPUL.0>
0

>  <SCORE.INTRA.SOLV>
0.708984

>  <SCORE.INTRA.SOLV.lig_0>
-83.2758

>  <SCORE.INTRA.VDW>
-0.239393

>  <SCORE.INTRA.VDW.0>
-3.26816

>  <SCORE.INTRA.norm>
-0.029369

>  <SCORE.RESTR>
0.0147991

>  <SCORE.RESTR.CAVITY>
0.0147991

>  <SCORE.RESTR.norm>
0.000548113

>  <SCORE.SYSTEM>
0

>  <SCORE.SYSTEM.CONST>
0

>  <SCORE.SYSTEM.DIHEDRAL>
0

>  <SCORE.SYSTEM.SOLV>
0

>  <SCORE.SYSTEM.norm>
0

>  <SCORE.heavy>
27

>  <SCORE.norm>
-0.265284

>  <RMSD>
25.168

$$$$
ligand
 OpenBabel11021811463D
libRbt.so/2013.1/901 2013/11/27
 27 28  0  0  0  0  0  0  0  0999 V2000
  -16.9837   59.7477  -11.4062 C   0  0  0  0  0  0  0  0  0  0  0  0
  -23.2777   56.9740  -12.9475 C   0  0  0  0  0  0  0  0  0  0  0  0
  -24.4403   57.5430  -15.6493 C   0  0  0  0  0  0  0  0  0  0  0  0
  -23.1500   56.9479  -16.2164 C   0  0  0  0  0  0  0  0  0  0  0  0
  -22.3343   57.9687  -16.7968 O   0  0  0  0  0  0  0  0  0  0  0  0
  -20.9146   57.5906  -17.4460 P   0  0  1  0  0  0  0  0  0  0  0  0
  -19.5362   59.6216  -16.0562 P   0  0  2  0  0  0  0  0  0  0  0  0
  -24.1215   61.0249  -14.1574 C   0  0  0  0  0  0  0  0  0  0  0  0
  -19.2681   59.9760  -12.3636 N   0  0  0  0  0  0  0  0  0  0  0  0
  -20.2171   56.3886  -16.6486 O   0  5  0  0  0  0  0  0  0  0  0  0
  -18.5153   58.9178  -15.2532 O   0  0  0  0  0  0  0  0  0  0  0  0
  -23.5821   60.7837  -12.9009 C   0  0  0  0  0  0  0  0  0  0  0  0
  -18.5034   59.5991  -11.3271 C   0  0  0  0  0  0  0  0  0  0  0  0
  -21.0310   57.1205  -18.9884 O   0  0  0  0  0  0  0  0  0  0  0  0
  -20.9026   59.8125  -15.2361 O   0  5  0  0  0  0  0  0  0  0  0  0
  -23.3053   59.4727  -12.5102 N   0  0  0  0  0  0  0  0  0  0  0  0
  -19.0605   59.0914  -10.2181 N   0  0  0  0  0  0  0  0  0  0  0  0
  -19.9256   58.8820  -17.4202 O   0  0  0  0  0  0  0  0  0  0  0  0
  -19.0546   61.0969  -16.4244 O   0  0  0  0  0  0  0  0  0  0  0  0
  -23.5808   58.4140  -13.3839 C   0  0  1  0  0  0  0  0  0  0  0  0
  -20.3893   58.9540  -10.1302 C   0  0  0  0  0  0  0  0  0  0  0  0
  -20.9300   58.4513   -9.0250 N   0  0  0  0  0  0  0  0  0  0  0  0
  -24.1219   58.6573  -14.6453 C   0  0  1  0  0  0  0  0  0  0  0  0
  -21.2031   59.3389  -11.1886 C   0  0  0  0  0  0  0  0  0  0  0  0
  -24.3888   59.9685  -15.0196 C   0  0  0  0  0  0  0  0  0  0  0  0
  -20.5847   59.8584  -12.3201 C   0  0  0  0  0  0  0  0  0  0  0  0
  -22.7321   59.2136  -11.1685 C   0  0  0  0  0  0  0  0  0  0  0  0
  1 13  1  0  0  0  0
  3  4  1  0  0  0  0
  4  5  1  0  0  0  0
  6  5  1  1  0  0  0
  6 10  1  0  0  0  0
  6 14  2  0  0  0  0
  6 18  1  0  0  0  0
  7 11  1  1  0  0  0
  7 15  1  0  0  0  0
  7 19  2  0  0  0  0
  7 18  1  0  0  0  0
  8 25  1  0  0  0  0
  8 12  1  0  0  0  0
  9 26  2  0  0  0  0
  9 13  1  0  0  0  0
 12 16  1  0  0  0  0
 13 17  2  0  0  0  0
 16 20  1  0  0  0  0
 16 27  1  0  0  0  0
 17 21  1  0  0  0  0
 20  2  1  6  0  0  0
 20 23  1  0  0  0  0
 21 22  1  0  0  0  0
 21 24  2  0  0  0  0
 23  3  1  6  0  0  0
 23 25  1  0  0  0  0
 24 27  1  0  0  0  0
 24 26  1  0  0  0  0
M  CHG  2  10  -1  15  -1
M  END
>  <CHROM.1>
-55.55964536,179.32029746,-34.01721048,58.18647235,77.55026460,-71.32499631
-169.90362721,-85.72981465,-21.16086822,58.86903975,-14.32348954,-1.42619324
-0.14767386,-1.76130910

>  <Name>
ligand

>  <RI>
0

>  <Rbt.Current_Directory>
/home/itssahil/PROJECTS/Mol_Feturizer/New_Systems/rnas/3D2V

>  <Rbt.Executable>
rbdock ($Id: //depot/dev/client3/rdock/2013.1/src/exe/rbdock.cxx#4 $)

>  <Rbt.Library>
libRbt.so (2013.1, Build901 2013/11/27)

>  <Rbt.Parameter_File>
/export/apps/rDock/src/rDock_2013.1_src/data/scripts/dock_solv.prm

>  <Rbt.Receptor>
prm/blind_docking_100.prm

>  <SCORE>
-12.4266

>  <SCORE.INTER>
-10.4318

>  <SCORE.INTER.CONST>
1

>  <SCORE.INTER.POLAR>
0

>  <SCORE.INTER.ROT>
8

>  <SCORE.INTER.SOLV>
17.2415

>  <SCORE.INTER.VDW>
-21.635

>  <SCORE.INTER.norm>
-0.386363

>  <SCORE.INTRA>
-1.99479

>  <SCORE.INTRA.DIHEDRAL>
-1.14071

>  <SCORE.INTRA.DIHEDRAL.0>
7.82666

>  <SCORE.INTRA.POLAR>
0

>  <SCORE.INTRA.POLAR.0>
0

>  <SCORE.INTRA.REPUL>
0

>  <SCORE.INTRA.REPUL.0>
0

>  <SCORE.INTRA.SOLV>
0.845208

>  <SCORE.INTRA.SOLV.lig_0>
-83.2758

>  <SCORE.INTRA.VDW>
-1.84704

>  <SCORE.INTRA.VDW.0>
-3.26816

>  <SCORE.INTRA.norm>
-0.073881

>  <SCORE.RESTR>
0

>  <SCORE.RESTR.CAVITY>
0

>  <SCORE.RESTR.norm>
0

>  <SCORE.SYSTEM>
0

>  <SCORE.SYSTEM.CONST>
0

>  <SCORE.SYSTEM.DIHEDRAL>
0

>  <SCORE.SYSTEM.SOLV>
0

>  <SCORE.SYSTEM.norm>
0

>  <SCORE.heavy>
27

>  <SCORE.norm>
-0.460244

>  <RMSD>
25.207

$$$$
ligand
 OpenBabel11021811463D
libRbt.so/2013.1/901 2013/11/27
 27 28  0  0  0  0  0  0  0  0999 V2000
  -20.8414   57.3909  -17.8011 C   0  0  0  0  0  0  0  0  0  0  0  0
  -24.5448   56.7463  -12.7146 C   0  0  0  0  0  0  0  0  0  0  0  0
  -23.7812   57.6286   -9.9553 C   0  0  0  0  0  0  0  0  0  0  0  0
  -22.3561   57.1684  -10.2681 C   0  0  0  0  0  0  0  0  0  0  0  0
  -21.8809   56.2726   -9.2601 O   0  0  0  0  0  0  0  0  0  0  0  0
  -20.4555   55.5525   -9.4321 P   0  0  1  0  0  0  0  0  0  0  0  0
  -21.1756   53.8332   -7.3151 P   0  0  2  0  0  0  0  0  0  0  0  0
  -24.8023   60.9020  -11.5964 C   0  0  0  0  0  0  0  0  0  0  0  0
  -22.9750   56.8377  -16.6481 N   0  0  0  0  0  0  0  0  0  0  0  0
  -20.4624   54.5503  -10.6822 O   0  5  0  0  0  0  0  0  0  0  0  0
  -22.2094   53.2411   -8.1886 O   0  0  0  0  0  0  0  0  0  0  0  0
  -25.1618   60.5146  -12.8805 C   0  0  0  0  0  0  0  0  0  0  0  0
  -22.0584   57.7684  -16.9559 C   0  0  0  0  0  0  0  0  0  0  0  0
  -19.2465   56.5969   -9.6794 O   0  0  0  0  0  0  0  0  0  0  0  0
  -21.8230   54.7876   -6.1989 O   0  5  0  0  0  0  0  0  0  0  0  0
  -25.0822   59.1689  -13.2417 N   0  0  0  0  0  0  0  0  0  0  0  0
  -22.1992   59.0314  -16.5281 N   0  0  0  0  0  0  0  0  0  0  0  0
  -20.0864   54.7136   -8.0881 O   0  0  0  0  0  0  0  0  0  0  0  0
  -20.3979   52.7013   -6.5040 O   0  0  0  0  0  0  0  0  0  0  0  0
  -24.6338   58.2244  -12.3106 C   0  0  1  0  0  0  0  0  0  0  0  0
  -23.2581   59.3810  -15.7873 C   0  0  0  0  0  0  0  0  0  0  0  0
  -23.3878   60.6364  -15.3707 N   0  0  0  0  0  0  0  0  0  0  0  0
  -24.2736   58.6142  -11.0217 C   0  0  1  0  0  0  0  0  0  0  0  0
  -24.2223   58.4365  -15.4571 C   0  0  0  0  0  0  0  0  0  0  0  0
  -24.3616   59.9575  -10.6774 C   0  0  0  0  0  0  0  0  0  0  0  0
  -24.0366   57.1385  -15.9191 C   0  0  0  0  0  0  0  0  0  0  0  0
  -25.4630   58.7545  -14.6125 C   0  0  0  0  0  0  0  0  0  0  0  0
  1 13  1  0  0  0  0
  3  4  1  0  0  0  0
  4  5  1  0  0  0  0
  6  5  1  1  0  0  0
  6 10  1  0  0  0  0
  6 14  2  0  0  0  0
  6 18  1  0  0  0  0
  7 11  1  6  0  0  0
  7 15  1  0  0  0  0
  7 19  2  0  0  0  0
  7 18  1  0  0  0  0
  8 25  1  0  0  0  0
  8 12  1  0  0  0  0
  9 26  2  0  0  0  0
  9 13  1  0  0  0  0
 12 16  1  0  0  0  0
 13 17  2  0  0  0  0
 16 20  1  0  0  0  0
 16 27  1  0  0  0  0
 17 21  1  0  0  0  0
 20  2  1  1  0  0  0
 20 23  1  0  0  0  0
 21 22  1  0  0  0  0
 21 24  2  0  0  0  0
 23  3  1  1  0  0  0
 23 25  1  0  0  0  0
 24 27  1  0  0  0  0
 24 26  1  0  0  0  0
M  CHG  2  10  -1  15  -1
M  END
>  <CHROM.1>
178.67633131,174.69841020,-65.11913180,42.12987657,31.74549418,73.41978788
-63.57315535,105.06553673,-22.49898167,56.90171577,-11.55921014,-1.98924453
-0.77686006,1.79980687

>  <Name>
ligand

>  <RI>
0

>  <Rbt.Current_Directory>
/home/itssahil/PROJECTS/Mol_Feturizer/New_Systems/rnas/3D2V

>  <Rbt.Executable>
rbdock ($Id: //depot/dev/client3/rdock/2013.1/src/exe/rbdock.cxx#4 $)

>  <Rbt.Library>
libRbt.so (2013.1, Build901 2013/11/27)

>  <Rbt.Parameter_File>
/export/apps/rDock/src/rDock_2013.1_src/data/scripts/dock_solv.prm

>  <Rbt.Receptor>
prm/blind_docking_80.prm

>  <SCORE>
-10.0514

>  <SCORE.INTER>
-8.63843

>  <SCORE.INTER.CONST>
1

>  <SCORE.INTER.POLAR>
0

>  <SCORE.INTER.ROT>
8

>  <SCORE.INTER.SOLV>
12.4628

>  <SCORE.INTER.VDW>
-18.8466

>  <SCORE.INTER.norm>
-0.319942

>  <SCORE.INTRA>
-1.41297

>  <SCORE.INTRA.DIHEDRAL>
-0.92397

>  <SCORE.INTRA.DIHEDRAL.0>
7.82666

>  <SCORE.INTRA.POLAR>
0

>  <SCORE.INTRA.POLAR.0>
0

>  <SCORE.INTRA.REPUL>
0

>  <SCORE.INTRA.REPUL.0>
0

>  <SCORE.INTRA.SOLV>
-1.46361

>  <SCORE.INTRA.SOLV.lig_0>
-83.2758

>  <SCORE.INTRA.VDW>
-0.219176

>  <SCORE.INTRA.VDW.0>
-3.26816

>  <SCORE.INTRA.norm>
-0.0523321

>  <SCORE.RESTR>
0

>  <SCORE.RESTR.CAVITY>
0

>  <SCORE.RESTR.norm>
0

>  <SCORE.SYSTEM>
0

>  <SCORE.SYSTEM.CONST>
0

>  <SCORE.SYSTEM.DIHEDRAL>
0

>  <SCORE.SYSTEM.SOLV>
0

>  <SCORE.SYSTEM.norm>
0

>  <SCORE.heavy>
27

>  <SCORE.norm>
-0.372274

>  <RMSD>
25.214

$$$$
ligand
 OpenBabel11021811463D
libRbt.so/2013.1/901 2013/11/27
 27 28  0  0  0  0  0  0  0  0999 V2000
  -22.3730   55.4879   -4.1588 C   0  0  0  0  0  0  0  0  0  0  0  0
  -23.1601   62.0131   -9.8096 C   0  0  0  0  0  0  0  0  0  0  0  0
  -24.8891   61.3291  -12.1586 C   0  0  0  0  0  0  0  0  0  0  0  0
  -23.7454   61.3956  -13.1725 C   0  0  0  0  0  0  0  0  0  0  0  0
  -23.3841   60.0847  -13.6144 O   0  0  0  0  0  0  0  0  0  0  0  0
  -22.0123   59.8572  -14.4184 P   0  0  1  0  0  0  0  0  0  0  0  0
  -23.1264   57.8187  -16.0183 P   0  0  2  0  0  0  0  0  0  0  0  0
  -24.8624   58.0714  -10.1996 C   0  0  0  0  0  0  0  0  0  0  0  0
  -23.3665   57.6182   -4.9722 N   0  0  0  0  0  0  0  0  0  0  0  0
  -21.8563   60.9212  -15.6061 O   0  5  0  0  0  0  0  0  0  0  0  0
  -23.0828   56.3624  -16.2630 O   0  0  0  0  0  0  0  0  0  0  0  0
  -24.0643   58.3674   -9.1025 C   0  0  0  0  0  0  0  0  0  0  0  0
  -22.4354   56.6652   -5.1324 C   0  0  0  0  0  0  0  0  0  0  0  0
  -20.7012   60.0065  -13.4845 O   0  0  0  0  0  0  0  0  0  0  0  0
  -22.9960   58.6503  -17.3848 O   0  5  0  0  0  0  0  0  0  0  0  0
  -23.5161   59.6444   -8.9739 N   0  0  0  0  0  0  0  0  0  0  0  0
  -21.5553   56.7347   -6.1416 N   0  0  0  0  0  0  0  0  0  0  0  0
  -21.9744   58.3576  -15.0479 O   0  0  0  0  0  0  0  0  0  0  0  0
  -24.5288   58.2501  -15.3931 O   0  0  0  0  0  0  0  0  0  0  0  0
  -23.7686   60.6114   -9.9544 C   0  0  1  0  0  0  0  0  0  0  0  0
  -21.5944   57.7577   -7.0044 C   0  0  0  0  0  0  0  0  0  0  0  0
  -20.7181   57.8148   -8.0020 N   0  0  0  0  0  0  0  0  0  0  0  0
  -24.5703   60.3135  -11.0551 C   0  0  2  0  0  0  0  0  0  0  0  0
  -22.5504   58.7560   -6.8615 C   0  0  0  0  0  0  0  0  0  0  0  0
  -25.1106   59.0382  -11.1664 C   0  0  0  0  0  0  0  0  0  0  0  0
  -23.4420   58.6464   -5.8007 C   0  0  0  0  0  0  0  0  0  0  0  0
  -22.6621   59.9608   -7.8050 C   0  0  0  0  0  0  0  0  0  0  0  0
  1 13  1  0  0  0  0
  3  4  1  0  0  0  0
  4  5  1  0  0  0  0
  6  5  1  1  0  0  0
  6 10  1  0  0  0  0
  6 14  2  0  0  0  0
  6 18  1  0  0  0  0
  7 11  1  6  0  0  0
  7 15  1  0  0  0  0
  7 19  2  0  0  0  0
  7 18  1  0  0  0  0
  8 25  1  0  0  0  0
  8 12  1  0  0  0  0
  9 26  2  0  0  0  0
  9 13  1  0  0  0  0
 12 16  1  0  0  0  0
 13 17  2  0  0  0  0
 16 20  1  0  0  0  0
 16 27  1  0  0  0  0
 17 21  1  0  0  0  0
 20  2  1  1  0  0  0
 20 23  1  0  0  0  0
 21 22  1  0  0  0  0
 21 24  2  0  0  0  0
 23  3  1  6  0  0  0
 23 25  1  0  0  0  0
 24 27  1  0  0  0  0
 24 26  1  0  0  0  0
M  CHG  2  10  -1  15  -1
M  END
>  <CHROM.1>
50.14036428,-166.37185442,-48.48144526,56.01949808,-167.70938205,82.14082842
87.34471355,-1.40730723,-22.96075308,58.91315116,-11.30077972,-1.47063413
1.30395739,-1.53533007

>  <Name>
ligand

>  <RI>
0

>  <Rbt.Current_Directory>
/home/itssahil/PROJECTS/Mol_Feturizer/New_Systems/rnas/3D2V

>  <Rbt.Executable>
rbdock ($Id: //depot/dev/client3/rdock/2013.1/src/exe/rbdock.cxx#4 $)

>  <Rbt.Library>
libRbt.so (2013.1, Build901 2013/11/27)

>  <Rbt.Parameter_File>
/export/apps/rDock/src/rDock_2013.1_src/data/scripts/dock_solv.prm

>  <Rbt.Receptor>
prm/blind_docking_100.prm

>  <SCORE>
-8.67465

>  <SCORE.INTER>
-8.68004

>  <SCORE.INTER.CONST>
1

>  <SCORE.INTER.POLAR>
0

>  <SCORE.INTER.ROT>
8

>  <SCORE.INTER.SOLV>
16.3521

>  <SCORE.INTER.VDW>
-20.1707

>  <SCORE.INTER.norm>
-0.321483

>  <SCORE.INTRA>
0.00539445

>  <SCORE.INTRA.DIHEDRAL>
-0.932977

>  <SCORE.INTRA.DIHEDRAL.0>
7.82666

>  <SCORE.INTRA.POLAR>
0

>  <SCORE.INTRA.POLAR.0>
0

>  <SCORE.INTRA.REPUL>
0

>  <SCORE.INTRA.REPUL.0>
0

>  <SCORE.INTRA.SOLV>
1.05698

>  <SCORE.INTRA.SOLV.lig_0>
-83.2758

>  <SCORE.INTRA.VDW>
-0.0566085

>  <SCORE.INTRA.VDW.0>
-3.26816

>  <SCORE.INTRA.norm>
0.000199794

>  <SCORE.RESTR>
0

>  <SCORE.RESTR.CAVITY>
0

>  <SCORE.RESTR.norm>
0

>  <SCORE.SYSTEM>
0

>  <SCORE.SYSTEM.CONST>
0

>  <SCORE.SYSTEM.DIHEDRAL>
0

>  <SCORE.SYSTEM.SOLV>
0

>  <SCORE.SYSTEM.norm>
0

>  <SCORE.heavy>
27

>  <SCORE.norm>
-0.321283

>  <RMSD>
25.283

$$$$
ligand
 OpenBabel11021811463D
libRbt.so/2013.1/901 2013/11/27
 27 28  0  0  0  0  0  0  0  0999 V2000
  -21.2293   57.5105  -18.2177 C   0  0  0  0  0  0  0  0  0  0  0  0
  -24.9599   60.2452  -11.9289 C   0  0  0  0  0  0  0  0  0  0  0  0
  -24.2536   58.9489   -9.3219 C   0  0  0  0  0  0  0  0  0  0  0  0
  -22.8228   59.4863   -9.2553 C   0  0  0  0  0  0  0  0  0  0  0  0
  -21.8763   58.4259   -9.4100 O   0  0  0  0  0  0  0  0  0  0  0  0
  -21.6252   57.3910   -8.2076 P   0  0  1  0  0  0  0  0  0  0  0  0
  -20.9903   55.2594   -9.9424 P   0  0  2  0  0  0  0  0  0  0  0  0
  -24.4925   55.9673  -11.6680 C   0  0  0  0  0  0  0  0  0  0  0  0
  -23.2586   56.8929  -16.9185 N   0  0  0  0  0  0  0  0  0  0  0  0
  -20.1407   57.5351   -7.6225 O   0  5  0  0  0  0  0  0  0  0  0  0
  -19.5404   55.1561   -9.6782 O   0  0  0  0  0  0  0  0  0  0  0  0
  -24.8195   56.5476  -12.8865 C   0  0  0  0  0  0  0  0  0  0  0  0
  -22.3038   57.8020  -17.1697 C   0  0  0  0  0  0  0  0  0  0  0  0
  -22.6379   57.6080   -6.9663 O   0  0  0  0  0  0  0  0  0  0  0  0
  -21.2927   56.1873  -11.2164 O   0  5  0  0  0  0  0  0  0  0  0  0
  -24.9672   57.9327  -12.9721 N   0  0  0  0  0  0  0  0  0  0  0  0
  -22.2822   58.9684  -16.5086 N   0  0  0  0  0  0  0  0  0  0  0  0
  -21.8387   55.8648   -8.7288 O   0  0  0  0  0  0  0  0  0  0  0  0
  -21.6073   53.8333  -10.3021 O   0  0  0  0  0  0  0  0  0  0  0  0
  -24.7927   58.7226  -11.8294 C   0  0  1  0  0  0  0  0  0  0  0  0
  -23.2147   59.2418  -15.5877 C   0  0  0  0  0  0  0  0  0  0  0  0
  -23.1840   60.4020  -14.9402 N   0  0  0  0  0  0  0  0  0  0  0  0
  -24.4639   58.1392  -10.6069 C   0  0  2  0  0  0  0  0  0  0  0  0
  -24.2152   58.3181  -15.3109 C   0  0  0  0  0  0  0  0  0  0  0  0
  -24.3177   56.7590  -10.5395 C   0  0  0  0  0  0  0  0  0  0  0  0
  -24.1995   57.1210  -16.0175 C   0  0  0  0  0  0  0  0  0  0  0  0
  -25.3187   58.5531  -14.2712 C   0  0  0  0  0  0  0  0  0  0  0  0
  1 13  1  0  0  0  0
  3  4  1  0  0  0  0
  4  5  1  0  0  0  0
  6  5  1  6  0  0  0
  6 10  1  0  0  0  0
  6 14  2  0  0  0  0
  6 18  1  0  0  0  0
  7 11  1  1  0  0  0
  7 15  1  0  0  0  0
  7 19  2  0  0  0  0
  7 18  1  0  0  0  0
  8 25  1  0  0  0  0
  8 12  1  0  0  0  0
  9 26  2  0  0  0  0
  9 13  1  0  0  0  0
 12 16  1  0  0  0  0
 13 17  2  0  0  0  0
 16 20  1  0  0  0  0
 16 27  1  0  0  0  0
 17 21  1  0  0  0  0
 20  2  1  6  0  0  0
 20 23  1  0  0  0  0
 21 22  1  0  0  0  0
 21 24  2  0  0  0  0
 23  3  1  1  0  0  0
 23 25  1  0  0  0  0
 24 27  1  0  0  0  0
 24 26  1  0  0  0  0
M  CHG  2  10  -1  15  -1
M  END
>  <CHROM.1>
-53.95316860,-73.89668500,-113.87400752,57.94548493,64.11173748,-84.17249854
-96.20085566,-63.32159365,-22.74214942,57.44535477,-11.74693246,-1.89816030
-0.79214412,1.53389390

>  <Name>
ligand

>  <RI>
0

>  <Rbt.Current_Directory>
/home/itssahil/PROJECTS/Mol_Feturizer/New_Systems/rnas/3D2V

>  <Rbt.Executable>
rbdock ($Id: //depot/dev/client3/rdock/2013.1/src/exe/rbdock.cxx#4 $)

>  <Rbt.Library>
libRbt.so (2013.1, Build901 2013/11/27)

>  <Rbt.Parameter_File>
/export/apps/rDock/src/rDock_2013.1_src/data/scripts/dock_solv.prm

>  <Rbt.Receptor>
prm/blind_docking_100.prm

>  <SCORE>
-11.9008

>  <SCORE.INTER>
-11.6409

>  <SCORE.INTER.CONST>
1

>  <SCORE.INTER.POLAR>
0

>  <SCORE.INTER.ROT>
8

>  <SCORE.INTER.SOLV>
13.4757

>  <SCORE.INTER.VDW>
-21.1858

>  <SCORE.INTER.norm>
-0.431144

>  <SCORE.INTRA>
-0.259936

>  <SCORE.INTRA.DIHEDRAL>
0.772695

>  <SCORE.INTRA.DIHEDRAL.0>
7.82666

>  <SCORE.INTRA.POLAR>
0

>  <SCORE.INTRA.POLAR.0>
0

>  <SCORE.INTRA.REPUL>
0

>  <SCORE.INTRA.REPUL.0>
0

>  <SCORE.INTRA.SOLV>
2.38401

>  <SCORE.INTRA.SOLV.lig_0>
-83.2758

>  <SCORE.INTRA.VDW>
-1.83829

>  <SCORE.INTRA.VDW.0>
-3.26816

>  <SCORE.INTRA.norm>
-0.00962724

>  <SCORE.RESTR>
0

>  <SCORE.RESTR.CAVITY>
0

>  <SCORE.RESTR.norm>
0

>  <SCORE.SYSTEM>
0

>  <SCORE.SYSTEM.CONST>
0

>  <SCORE.SYSTEM.DIHEDRAL>
0

>  <SCORE.SYSTEM.SOLV>
0

>  <SCORE.SYSTEM.norm>
0

>  <SCORE.heavy>
27

>  <SCORE.norm>
-0.440771

>  <RMSD>
25.312

$$$$
ligand
 OpenBabel11021811463D
libRbt.so/2013.1/901 2013/11/27
 27 28  0  0  0  0  0  0  0  0999 V2000
  -23.6495   63.0570  -15.0274 C   0  0  0  0  0  0  0  0  0  0  0  0
  -23.2592   57.5156   -9.4766 C   0  0  0  0  0  0  0  0  0  0  0  0
  -20.9766   57.7829   -7.5548 C   0  0  0  0  0  0  0  0  0  0  0  0
  -19.5082   58.1632   -7.3551 C   0  0  0  0  0  0  0  0  0  0  0  0
  -19.0775   59.0704   -8.3727 O   0  0  0  0  0  0  0  0  0  0  0  0
  -18.8868   58.5538   -9.8816 P   0  0  1  0  0  0  0  0  0  0  0  0
  -18.4125   59.8807  -12.3251 P   0  0  2  0  0  0  0  0  0  0  0  0
  -22.1215   61.3856   -7.9551 C   0  0  0  0  0  0  0  0  0  0  0  0
  -24.1451   62.8117  -12.6023 N   0  0  0  0  0  0  0  0  0  0  0  0
  -17.3974   58.0147  -10.1231 O   0  5  0  0  0  0  0  0  0  0  0  0
  -17.7265   58.6422  -12.7470 O   0  0  0  0  0  0  0  0  0  0  0  0
  -23.1831   61.2843   -8.8445 C   0  0  0  0  0  0  0  0  0  0  0  0
  -23.9224   62.2126  -13.7823 C   0  0  0  0  0  0  0  0  0  0  0  0
  -19.8878   57.3438  -10.2657 O   0  0  0  0  0  0  0  0  0  0  0  0
  -17.3829   61.1025  -12.1734 O   0  5  0  0  0  0  0  0  0  0  0  0
  -23.5541   60.0313   -9.3344 N   0  0  0  0  0  0  0  0  0  0  0  0
  -23.9369   60.8754  -13.8815 N   0  0  0  0  0  0  0  0  0  0  0  0
  -19.1845   59.7624  -10.9290 O   0  0  0  0  0  0  0  0  0  0  0  0
  -19.4676   60.3510  -13.4248 O   0  0  0  0  0  0  0  0  0  0  0  0
  -22.8490   58.8907   -8.9318 C   0  0  1  0  0  0  0  0  0  0  0  0
  -24.1738   60.1193  -12.8024 C   0  0  0  0  0  0  0  0  0  0  0  0
  -24.1837   58.7949  -12.9127 N   0  0  0  0  0  0  0  0  0  0  0  0
  -21.7838   58.9934   -8.0385 C   0  0  1  0  0  0  0  0  0  0  0  0
  -24.4050   60.7154  -11.5686 C   0  0  0  0  0  0  0  0  0  0  0  0
  -21.4293   60.2481   -7.5581 C   0  0  0  0  0  0  0  0  0  0  0  0
  -24.3831   62.1041  -11.5106 C   0  0  0  0  0  0  0  0  0  0  0  0
  -24.6851   59.9220  -10.2856 C   0  0  0  0  0  0  0  0  0  0  0  0
  1 13  1  0  0  0  0
  3  4  1  0  0  0  0
  4  5  1  0  0  0  0
  6  5  1  1  0  0  0
  6 10  1  0  0  0  0
  6 14  2  0  0  0  0
  6 18  1  0  0  0  0
  7 11  1  6  0  0  0
  7 15  1  0  0  0  0
  7 19  2  0  0  0  0
  7 18  1  0  0  0  0
  8 25  1  0  0  0  0
  8 12  1  0  0  0  0
  9 26  2  0  0  0  0
  9 13  1  0  0  0  0
 12 16  1  0  0  0  0
 13 17  2  0  0  0  0
 16 20  1  0  0  0  0
 16 27  1  0  0  0  0
 17 21  1  0  0  0  0
 20  2  1  1  0  0  0
 20 23  1  0  0  0  0
 21 22  1  0  0  0  0
 21 24  2  0  0  0  0
 23  3  1  1  0  0  0
 23 25  1  0  0  0  0
 24 27  1  0  0  0  0
 24 26  1  0  0  0  0
M  CHG  2  10  -1  15  -1
M  END
>  <CHROM.1>
-37.94210445,-70.84797722,-89.54700978,147.39294722,16.65093317,145.17750210
110.80425342,60.70342024,-21.20819917,59.79880571,-10.80798893,-2.56349438
-0.24421076,1.98728465

>  <Name>
ligand

>  <RI>
0

>  <Rbt.Current_Directory>
/home/itssahil/PROJECTS/Mol_Feturizer/New_Systems/rnas/3D2V

>  <Rbt.Executable>
rbdock ($Id: //depot/dev/client3/rdock/2013.1/src/exe/rbdock.cxx#4 $)

>  <Rbt.Library>
libRbt.so (2013.1, Build901 2013/11/27)

>  <Rbt.Parameter_File>
/export/apps/rDock/src/rDock_2013.1_src/data/scripts/dock_solv.prm

>  <Rbt.Receptor>
prm/blind_docking_80.prm

>  <SCORE>
-4.02158

>  <SCORE.INTER>
-7.82316

>  <SCORE.INTER.CONST>
1

>  <SCORE.INTER.POLAR>
0

>  <SCORE.INTER.ROT>
8

>  <SCORE.INTER.SOLV>
17.6676

>  <SCORE.INTER.VDW>
-20.038

>  <SCORE.INTER.norm>
-0.289747

>  <SCORE.INTRA>
3.80159

>  <SCORE.INTRA.DIHEDRAL>
4.03675

>  <SCORE.INTRA.DIHEDRAL.0>
7.82666

>  <SCORE.INTRA.POLAR>
0

>  <SCORE.INTRA.POLAR.0>
0

>  <SCORE.INTRA.REPUL>
0

>  <SCORE.INTRA.REPUL.0>
0

>  <SCORE.INTRA.SOLV>
2.12603

>  <SCORE.INTRA.SOLV.lig_0>
-83.2758

>  <SCORE.INTRA.VDW>
0.720194

>  <SCORE.INTRA.VDW.0>
-3.26816

>  <SCORE.INTRA.norm>
0.1408

>  <SCORE.RESTR>
0

>  <SCORE.RESTR.CAVITY>
0

>  <SCORE.RESTR.norm>
0

>  <SCORE.SYSTEM>
0

>  <SCORE.SYSTEM.CONST>
0

>  <SCORE.SYSTEM.DIHEDRAL>
0

>  <SCORE.SYSTEM.SOLV>
0

>  <SCORE.SYSTEM.norm>
0

>  <SCORE.heavy>
27

>  <SCORE.norm>
-0.148947

>  <RMSD>
25.361

$$$$
ligand
 OpenBabel11021811463D
libRbt.so/2013.1/901 2013/11/27
 27 28  0  0  0  0  0  0  0  0999 V2000
  -17.9424   57.8071   -7.9127 C   0  0  0  0  0  0  0  0  0  0  0  0
  -23.7442   61.3327   -9.6079 C   0  0  0  0  0  0  0  0  0  0  0  0
  -24.9191   61.0482  -12.3491 C   0  0  0  0  0  0  0  0  0  0  0  0
  -24.6105   60.6058  -13.7807 C   0  0  0  0  0  0  0  0  0  0  0  0
  -23.2811   60.0881  -13.8749 O   0  0  0  0  0  0  0  0  0  0  0  0
  -22.5985   59.8835  -15.3144 P   0  0  1  0  0  0  0  0  0  0  0  0
  -23.7963   57.3968  -15.8958 P   0  0  2  0  0  0  0  0  0  0  0  0
  -25.1832   57.5095  -10.9857 C   0  0  0  0  0  0  0  0  0  0  0  0
  -19.8794   59.3653   -7.8282 N   0  0  0  0  0  0  0  0  0  0  0  0
  -22.3823   61.2875  -16.0555 O   0  5  0  0  0  0  0  0  0  0  0  0
  -24.6883   56.6996  -16.8449 O   0  0  0  0  0  0  0  0  0  0  0  0
  -24.6428   57.6192   -9.7113 C   0  0  0  0  0  0  0  0  0  0  0  0
  -19.4433   58.0990   -7.9123 C   0  0  0  0  0  0  0  0  0  0  0  0
  -21.1485   59.1735  -15.2301 O   0  0  0  0  0  0  0  0  0  0  0  0
  -24.3842   57.3657  -14.4028 O   0  5  0  0  0  0  0  0  0  0  0  0
  -24.1803   58.8575   -9.2635 N   0  0  0  0  0  0  0  0  0  0  0  0
  -20.3136   57.0824   -7.9965 N   0  0  0  0  0  0  0  0  0  0  0  0
  -23.5342   58.9351  -16.2479 O   0  0  0  0  0  0  0  0  0  0  0  0
  -22.3789   56.6709  -15.8072 O   0  0  0  0  0  0  0  0  0  0  0  0
  -24.2577   59.9741  -10.1044 C   0  0  1  0  0  0  0  0  0  0  0  0
  -21.6315   57.3181   -7.9974 C   0  0  0  0  0  0  0  0  0  0  0  0
  -22.4846   56.3022   -8.0793 N   0  0  0  0  0  0  0  0  0  0  0  0
  -24.8007   59.8631  -11.3834 C   0  0  1  0  0  0  0  0  0  0  0  0
  -22.1085   58.6202   -7.9089 C   0  0  0  0  0  0  0  0  0  0  0  0
  -25.2593   58.6236  -11.8126 C   0  0  0  0  0  0  0  0  0  0  0  0
  -21.1722   59.6444   -7.8254 C   0  0  0  0  0  0  0  0  0  0  0  0
  -23.6010   58.9754   -7.9047 C   0  0  0  0  0  0  0  0  0  0  0  0
  1 13  1  0  0  0  0
  3  4  1  0  0  0  0
  4  5  1  0  0  0  0
  6  5  1  1  0  0  0
  6 10  1  0  0  0  0
  6 14  2  0  0  0  0
  6 18  1  0  0  0  0
  7 11  1  6  0  0  0
  7 15  1  0  0  0  0
  7 19  2  0  0  0  0
  7 18  1  0  0  0  0
  8 25  1  0  0  0  0
  8 12  1  0  0  0  0
  9 26  2  0  0  0  0
  9 13  1  0  0  0  0
 12 16  1  0  0  0  0
 13 17  2  0  0  0  0
 16 20  1  0  0  0  0
 16 27  1  0  0  0  0
 17 21  1  0  0  0  0
 20  2  1  1  0  0  0
 20 23  1  0  0  0  0
 21 22  1  0  0  0  0
 21 24  2  0  0  0  0
 23  3  1  1  0  0  0
 23 25  1  0  0  0  0
 24 27  1  0  0  0  0
 24 26  1  0  0  0  0
M  CHG  2  10  -1  15  -1
M  END
>  <CHROM.1>
-60.29562361,-165.54009326,64.98570873,-65.84037569,179.07231002,141.23575900
-75.35743729,85.64574568,-22.91238542,58.74395751,-12.03277973,-1.27918637
0.36708131,-1.63796917

>  <Name>
ligand

>  <RI>
0

>  <Rbt.Current_Directory>
/home/itssahil/PROJECTS/Mol_Feturizer/New_Systems/rnas/3D2V

>  <Rbt.Executable>
rbdock ($Id: //depot/dev/client3/rdock/2013.1/src/exe/rbdock.cxx#4 $)

>  <Rbt.Library>
libRbt.so (2013.1, Build901 2013/11/27)

>  <Rbt.Parameter_File>
/export/apps/rDock/src/rDock_2013.1_src/data/scripts/dock_solv.prm

>  <Rbt.Receptor>
prm/blind_docking_100.prm

>  <SCORE>
-8.715

>  <SCORE.INTER>
-8.74561

>  <SCORE.INTER.CONST>
1

>  <SCORE.INTER.POLAR>
0

>  <SCORE.INTER.ROT>
8

>  <SCORE.INTER.SOLV>
13.9429

>  <SCORE.INTER.VDW>
-19.4114

>  <SCORE.INTER.norm>
-0.323911

>  <SCORE.INTRA>
-0.00841945

>  <SCORE.INTRA.DIHEDRAL>
-1.59707

>  <SCORE.INTRA.DIHEDRAL.0>
7.82666

>  <SCORE.INTRA.POLAR>
0

>  <SCORE.INTRA.POLAR.0>
0

>  <SCORE.INTRA.REPUL>
0

>  <SCORE.INTRA.REPUL.0>
0

>  <SCORE.INTRA.SOLV>
2.73323

>  <SCORE.INTRA.SOLV.lig_0>
-83.2758

>  <SCORE.INTRA.VDW>
-0.576499

>  <SCORE.INTRA.VDW.0>
-3.26816

>  <SCORE.INTRA.norm>
-0.000311831

>  <SCORE.RESTR>
0.0390317

>  <SCORE.RESTR.CAVITY>
0.0390317

>  <SCORE.RESTR.norm>
0.00144562

>  <SCORE.SYSTEM>
0

>  <SCORE.SYSTEM.CONST>
0

>  <SCORE.SYSTEM.DIHEDRAL>
0

>  <SCORE.SYSTEM.SOLV>
0

>  <SCORE.SYSTEM.norm>
0

>  <SCORE.heavy>
27

>  <SCORE.norm>
-0.322778

>  <RMSD>
25.382

$$$$
ligand
 OpenBabel11021811463D
libRbt.so/2013.1/901 2013/11/27
 27 28  0  0  0  0  0  0  0  0999 V2000
  -23.9139   57.1620  -15.7094 C   0  0  0  0  0  0  0  0  0  0  0  0
  -24.2877   58.9957   -8.5405 C   0  0  0  0  0  0  0  0  0  0  0  0
  -21.9475   60.4257   -7.3347 C   0  0  0  0  0  0  0  0  0  0  0  0
  -20.7570   59.5285   -7.6791 C   0  0  0  0  0  0  0  0  0  0  0  0
  -21.1968   58.3272   -8.3175 O   0  0  0  0  0  0  0  0  0  0  0  0
  -20.1510   57.1439   -8.6110 P   0  0  1  0  0  0  0  0  0  0  0  0
  -20.9341   55.7387   -6.2940 P   0  0  2  0  0  0  0  0  0  0  0  0
  -22.7237   62.5689  -10.3769 C   0  0  0  0  0  0  0  0  0  0  0  0
  -24.5254   57.3064  -13.3026 N   0  0  0  0  0  0  0  0  0  0  0  0
  -20.0300   56.8574  -10.1828 O   0  5  0  0  0  0  0  0  0  0  0  0
  -21.6456   56.9286   -5.7838 O   0  0  0  0  0  0  0  0  0  0  0  0
  -23.8095   61.9222  -10.9521 C   0  0  0  0  0  0  0  0  0  0  0  0
  -24.3264   57.9480  -14.4644 C   0  0  0  0  0  0  0  0  0  0  0  0
  -18.6596   57.4741   -8.0818 O   0  0  0  0  0  0  0  0  0  0  0  0
  -19.5227   55.5350   -5.5577 O   0  5  0  0  0  0  0  0  0  0  0  0
  -24.3185   60.7676  -10.3558 N   0  0  0  0  0  0  0  0  0  0  0  0
  -24.4862   59.2768  -14.5454 N   0  0  0  0  0  0  0  0  0  0  0  0
  -20.6253   55.7793   -7.8631 O   0  0  0  0  0  0  0  0  0  0  0  0
  -21.7620   54.4083   -5.9966 O   0  0  0  0  0  0  0  0  0  0  0  0
  -23.7260   60.2680   -9.1899 C   0  0  1  0  0  0  0  0  0  0  0  0
  -24.8474   59.9821  -13.4663 C   0  0  0  0  0  0  0  0  0  0  0  0
  -25.0045   61.2985  -13.5592 N   0  0  0  0  0  0  0  0  0  0  0  0
  -22.6363   60.9182   -8.6130 C   0  0  1  0  0  0  0  0  0  0  0  0
  -25.0617   59.3410  -12.2522 C   0  0  0  0  0  0  0  0  0  0  0  0
  -22.1437   62.0682   -9.2177 C   0  0  0  0  0  0  0  0  0  0  0  0
  -24.8831   57.9630  -12.2117 C   0  0  0  0  0  0  0  0  0  0  0  0
  -25.4756   60.0749  -10.9700 C   0  0  0  0  0  0  0  0  0  0  0  0
  1 13  1  0  0  0  0
  3  4  1  0  0  0  0
  4  5  1  0  0  0  0
  6  5  1  1  0  0  0
  6 10  1  0  0  0  0
  6 14  2  0  0  0  0
  6 18  1  0  0  0  0
  7 11  1  1  0  0  0
  7 15  1  0  0  0  0
  7 19  2  0  0  0  0
  7 18  1  0  0  0  0
  8 25  1  0  0  0  0
  8 12  1  0  0  0  0
  9 26  2  0  0  0  0
  9 13  1  0  0  0  0
 12 16  1  0  0  0  0
 13 17  2  0  0  0  0
 16 20  1  0  0  0  0
 16 27  1  0  0  0  0
 17 21  1  0  0  0  0
 20  2  1  1  0  0  0
 20 23  1  0  0  0  0
 21 22  1  0  0  0  0
 21 24  2  0  0  0  0
 23  3  1  1  0  0  0
 23 25  1  0  0  0  0
 24 27  1  0  0  0  0
 24 26  1  0  0  0  0
M  CHG  2  10  -1  15  -1
M  END
>  <CHROM.1>
-65.41652745,-172.39508889,-118.45373795,-54.03455864,39.87730149,93.66919277
-77.23916143,72.98758441,-22.42261028,58.40090955,-9.63945363,-3.04804489
-1.04802434,0.59024124

>  <Name>
ligand

>  <RI>
0

>  <Rbt.Current_Directory>
/home/itssahil/PROJECTS/Mol_Feturizer/New_Systems/rnas/3D2V

>  <Rbt.Executable>
rbdock ($Id: //depot/dev/client3/rdock/2013.1/src/exe/rbdock.cxx#4 $)

>  <Rbt.Library>
libRbt.so (2013.1, Build901 2013/11/27)

>  <Rbt.Parameter_File>
/export/apps/rDock/src/rDock_2013.1_src/data/scripts/dock_solv.prm

>  <Rbt.Receptor>
prm/blind_docking_100.prm

>  <SCORE>
-11.2774

>  <SCORE.INTER>
-10.2763

>  <SCORE.INTER.CONST>
1

>  <SCORE.INTER.POLAR>
0

>  <SCORE.INTER.ROT>
8

>  <SCORE.INTER.SOLV>
9.43992

>  <SCORE.INTER.VDW>
-18.9308

>  <SCORE.INTER.norm>
-0.380604

>  <SCORE.INTRA>
-1.00115

>  <SCORE.INTRA.DIHEDRAL>
0.786325

>  <SCORE.INTRA.DIHEDRAL.0>
7.82666

>  <SCORE.INTRA.POLAR>
0

>  <SCORE.INTRA.POLAR.0>
0

>  <SCORE.INTRA.REPUL>
0

>  <SCORE.INTRA.REPUL.0>
0

>  <SCORE.INTRA.SOLV>
-0.854215

>  <SCORE.INTRA.SOLV.lig_0>
-83.2758

>  <SCORE.INTRA.VDW>
-0.967202

>  <SCORE.INTRA.VDW.0>
-3.26816

>  <SCORE.INTRA.norm>
-0.0370795

>  <SCORE.RESTR>
0

>  <SCORE.RESTR.CAVITY>
0

>  <SCORE.RESTR.norm>
0

>  <SCORE.SYSTEM>
0

>  <SCORE.SYSTEM.CONST>
0

>  <SCORE.SYSTEM.DIHEDRAL>
0

>  <SCORE.SYSTEM.SOLV>
0

>  <SCORE.SYSTEM.norm>
0

>  <SCORE.heavy>
27

>  <SCORE.norm>
-0.417683

>  <RMSD>
25.442

$$$$
ligand
 OpenBabel11021811463D
libRbt.so/2013.1/901 2013/11/27
 27 28  0  0  0  0  0  0  0  0999 V2000
  -21.9447   60.7711  -16.5219 C   0  0  0  0  0  0  0  0  0  0  0  0
  -23.4059   60.9704   -9.6636 C   0  0  0  0  0  0  0  0  0  0  0  0
  -22.5105   58.7581   -7.8527 C   0  0  0  0  0  0  0  0  0  0  0  0
  -23.1225   58.2928   -6.5300 C   0  0  0  0  0  0  0  0  0  0  0  0
  -22.3548   57.2274   -5.9644 O   0  0  0  0  0  0  0  0  0  0  0  0
  -22.3286   55.7888   -6.6783 P   0  0  1  0  0  0  0  0  0  0  0  0
  -21.3570   54.6106   -9.0498 P   0  0  2  0  0  0  0  0  0  0  0  0
  -24.8522   56.9502  -10.2399 C   0  0  0  0  0  0  0  0  0  0  0  0
  -22.9953   61.6925  -14.4641 N   0  0  0  0  0  0  0  0  0  0  0  0
  -21.5656   54.7092   -5.7731 O   0  5  0  0  0  0  0  0  0  0  0  0
  -22.6059   53.9469   -9.4768 O   0  0  0  0  0  0  0  0  0  0  0  0
  -25.2796   57.9605  -11.0913 C   0  0  0  0  0  0  0  0  0  0  0  0
  -22.8274   60.6405  -15.2803 C   0  0  0  0  0  0  0  0  0  0  0  0
  -23.8065   55.1978   -6.9615 O   0  0  0  0  0  0  0  0  0  0  0  0
  -20.4083   53.6096   -8.2290 O   0  5  0  0  0  0  0  0  0  0  0  0
  -24.8087   59.2613  -10.9074 N   0  0  0  0  0  0  0  0  0  0  0  0
  -23.4282   59.4709  -15.0173 N   0  0  0  0  0  0  0  0  0  0  0  0
  -21.5782   55.8919   -8.1180 O   0  0  0  0  0  0  0  0  0  0  0  0
  -20.4958   55.0705  -10.3110 O   0  0  0  0  0  0  0  0  0  0  0  0
  -23.9177   59.5372   -9.8633 C   0  0  1  0  0  0  0  0  0  0  0  0
  -24.2045   59.3372  -13.9348 C   0  0  0  0  0  0  0  0  0  0  0  0
  -24.7932   58.1724  -13.6835 N   0  0  0  0  0  0  0  0  0  0  0  0
  -23.4888   58.5222   -9.0095 C   0  0  1  0  0  0  0  0  0  0  0  0
  -24.3925   60.4108  -13.0729 C   0  0  0  0  0  0  0  0  0  0  0  0
  -23.9650   57.2320   -9.2083 C   0  0  0  0  0  0  0  0  0  0  0  0
  -23.7532   61.6054  -13.3837 C   0  0  0  0  0  0  0  0  0  0  0  0
  -25.2660   60.3410  -11.8135 C   0  0  0  0  0  0  0  0  0  0  0  0
  1 13  1  0  0  0  0
  3  4  1  0  0  0  0
  4  5  1  0  0  0  0
  6  5  1  1  0  0  0
  6 10  1  0  0  0  0
  6 14  2  0  0  0  0
  6 18  1  0  0  0  0
  7 11  1  6  0  0  0
  7 15  1  0  0  0  0
  7 19  2  0  0  0  0
  7 18  1  0  0  0  0
  8 25  1  0  0  0  0
  8 12  1  0  0  0  0
  9 26  2  0  0  0  0
  9 13  1  0  0  0  0
 12 16  1  0  0  0  0
 13 17  2  0  0  0  0
 16 20  1  0  0  0  0
 16 27  1  0  0  0  0
 17 21  1  0  0  0  0
 20  2  1  6  0  0  0
 20 23  1  0  0  0  0
 21 22  1  0  0  0  0
 21 24  2  0  0  0  0
 23  3  1  6  0  0  0
 23 25  1  0  0  0  0
 24 27  1  0  0  0  0
 24 26  1  0  0  0  0
M  CHG  2  10  -1  15  -1
M  END
>  <CHROM.1>
117.34615607,-68.60389021,-172.63672527,178.20771268,60.59011653,123.81494557
57.06690569,-86.37182255,-22.96804667,57.63374716,-10.10470164,-1.98230943
-1.05664892,1.86088748

>  <Name>
ligand

>  <RI>
0

>  <Rbt.Current_Directory>
/home/itssahil/PROJECTS/Mol_Feturizer/New_Systems/rnas/3D2V

>  <Rbt.Executable>
rbdock ($Id: //depot/dev/client3/rdock/2013.1/src/exe/rbdock.cxx#4 $)

>  <Rbt.Library>
libRbt.so (2013.1, Build901 2013/11/27)

>  <Rbt.Parameter_File>
/export/apps/rDock/src/rDock_2013.1_src/data/scripts/dock_solv.prm

>  <Rbt.Receptor>
prm/blind_docking_100.prm

>  <SCORE>
-1.08969

>  <SCORE.INTER>
-3.36442

>  <SCORE.INTER.CONST>
1

>  <SCORE.INTER.POLAR>
0

>  <SCORE.INTER.ROT>
8

>  <SCORE.INTER.SOLV>
12.3831

>  <SCORE.INTER.VDW>
-15.304

>  <SCORE.INTER.norm>
-0.124608

>  <SCORE.INTRA>
2.27473

>  <SCORE.INTRA.DIHEDRAL>
3.30833

>  <SCORE.INTRA.DIHEDRAL.0>
7.82666

>  <SCORE.INTRA.POLAR>
0

>  <SCORE.INTRA.POLAR.0>
0

>  <SCORE.INTRA.REPUL>
0

>  <SCORE.INTRA.REPUL.0>
0

>  <SCORE.INTRA.SOLV>
3.04892

>  <SCORE.INTRA.SOLV.lig_0>
-83.2758

>  <SCORE.INTRA.VDW>
-0.903902

>  <SCORE.INTRA.VDW.0>
-3.26816

>  <SCORE.INTRA.norm>
0.0842491

>  <SCORE.RESTR>
0

>  <SCORE.RESTR.CAVITY>
0

>  <SCORE.RESTR.norm>
0

>  <SCORE.SYSTEM>
0

>  <SCORE.SYSTEM.CONST>
0

>  <SCORE.SYSTEM.DIHEDRAL>
0

>  <SCORE.SYSTEM.SOLV>
0

>  <SCORE.SYSTEM.norm>
0

>  <SCORE.heavy>
27

>  <SCORE.norm>
-0.040359

>  <RMSD>
25.452

$$$$
ligand
 OpenBabel11021811463D
libRbt.so/2013.1/901 2013/11/27
 27 28  0  0  0  0  0  0  0  0999 V2000
  -20.0796   57.2090  -19.7942 C   0  0  0  0  0  0  0  0  0  0  0  0
  -21.3401   58.4031  -13.5614 C   0  0  0  0  0  0  0  0  0  0  0  0
  -23.0280   56.5372  -11.9350 C   0  0  0  0  0  0  0  0  0  0  0  0
  -24.1352   55.8638  -11.1219 C   0  0  0  0  0  0  0  0  0  0  0  0
  -24.2825   56.4951   -9.8475 O   0  0  0  0  0  0  0  0  0  0  0  0
  -23.2687   56.1406   -8.6532 P   0  0  1  0  0  0  0  0  0  0  0  0
  -21.1092   54.5832   -9.5845 P   0  0  2  0  0  0  0  0  0  0  0  0
  -25.6141   58.2761  -14.1119 C   0  0  0  0  0  0  0  0  0  0  0  0
  -21.9467   57.6070  -18.1996 N   0  0  0  0  0  0  0  0  0  0  0  0
  -23.2924   57.2737   -7.5206 O   0  5  0  0  0  0  0  0  0  0  0  0
  -21.7805   53.8729  -10.6923 O   0  0  0  0  0  0  0  0  0  0  0  0
  -24.8506   59.1480  -14.8768 C   0  0  0  0  0  0  0  0  0  0  0  0
  -20.7460   57.9897  -18.6610 C   0  0  0  0  0  0  0  0  0  0  0  0
  -23.6203   54.7429   -7.9208 O   0  0  0  0  0  0  0  0  0  0  0  0
  -21.1320   53.7206   -8.2313 O   0  5  0  0  0  0  0  0  0  0  0  0
  -23.4666   59.1867  -14.7016 N   0  0  0  0  0  0  0  0  0  0  0  0
  -20.1217   59.0542  -18.1364 N   0  0  0  0  0  0  0  0  0  0  0  0
  -21.7529   56.0036   -9.2277 O   0  0  0  0  0  0  0  0  0  0  0  0
  -19.5656   54.8180   -9.9101 O   0  0  0  0  0  0  0  0  0  0  0  0
  -22.8623   58.3536  -13.7523 C   0  0  1  0  0  0  0  0  0  0  0  0
  -20.6895   59.7505  -17.1438 C   0  0  0  0  0  0  0  0  0  0  0  0
  -20.0619   60.8049  -16.6331 N   0  0  0  0  0  0  0  0  0  0  0  0
  -23.6296   57.4784  -12.9853 C   0  0  1  0  0  0  0  0  0  0  0  0
  -21.9332   59.3760  -16.6501 C   0  0  0  0  0  0  0  0  0  0  0  0
  -25.0060   57.4503  -13.1744 C   0  0  0  0  0  0  0  0  0  0  0  0
  -22.5445   58.2655  -17.2207 C   0  0  0  0  0  0  0  0  0  0  0  0
  -22.6508   60.1185  -15.5153 C   0  0  0  0  0  0  0  0  0  0  0  0
  1 13  1  0  0  0  0
  3  4  1  0  0  0  0
  4  5  1  0  0  0  0
  6  5  1  6  0  0  0
  6 10  1  0  0  0  0
  6 14  2  0  0  0  0
  6 18  1  0  0  0  0
  7 11  1  6  0  0  0
  7 15  1  0  0  0  0
  7 19  2  0  0  0  0
  7 18  1  0  0  0  0
  8 25  1  0  0  0  0
  8 12  1  0  0  0  0
  9 26  2  0  0  0  0
  9 13  1  0  0  0  0
 12 16  1  0  0  0  0
 13 17  2  0  0  0  0
 16 20  1  0  0  0  0
 16 27  1  0  0  0  0
 17 21  1  0  0  0  0
 20  2  1  6  0  0  0
 20 23  1  0  0  0  0
 21 22  1  0  0  0  0
 21 24  2  0  0  0  0
 23  3  1  6  0  0  0
 23 25  1  0  0  0  0
 24 27  1  0  0  0  0
 24 26  1  0  0  0  0
M  CHG  2  10  -1  15  -1
M  END
>  <CHROM.1>
-101.53617308,-79.93523339,160.97601656,-97.36761198,64.30615445,171.47282248
-147.84677655,-102.81386334,-22.32710787,57.07142760,-12.75724572,-1.45437094
-0.52218720,2.02792270

>  <Name>
ligand

>  <RI>
0

>  <Rbt.Current_Directory>
/home/itssahil/PROJECTS/Mol_Feturizer/New_Systems/rnas/3D2V

>  <Rbt.Executable>
rbdock ($Id: //depot/dev/client3/rdock/2013.1/src/exe/rbdock.cxx#4 $)

>  <Rbt.Library>
libRbt.so (2013.1, Build901 2013/11/27)

>  <Rbt.Parameter_File>
/export/apps/rDock/src/rDock_2013.1_src/data/scripts/dock_solv.prm

>  <Rbt.Receptor>
prm/blind_docking_100.prm

>  <SCORE>
-4.58715

>  <SCORE.INTER>
-8.94567

>  <SCORE.INTER.CONST>
1

>  <SCORE.INTER.POLAR>
0

>  <SCORE.INTER.ROT>
8

>  <SCORE.INTER.SOLV>
11.3574

>  <SCORE.INTER.VDW>
-18.6829

>  <SCORE.INTER.norm>
-0.331321

>  <SCORE.INTRA>
4.35852

>  <SCORE.INTRA.DIHEDRAL>
5.70975

>  <SCORE.INTRA.DIHEDRAL.0>
7.82666

>  <SCORE.INTRA.POLAR>
0

>  <SCORE.INTRA.POLAR.0>
0

>  <SCORE.INTRA.REPUL>
0

>  <SCORE.INTRA.REPUL.0>
0

>  <SCORE.INTRA.SOLV>
0.689812

>  <SCORE.INTRA.SOLV.lig_0>
-83.2758

>  <SCORE.INTRA.VDW>
1.15873

>  <SCORE.INTRA.VDW.0>
-3.26816

>  <SCORE.INTRA.norm>
0.161427

>  <SCORE.RESTR>
0

>  <SCORE.RESTR.CAVITY>
0

>  <SCORE.RESTR.norm>
0

>  <SCORE.SYSTEM>
0

>  <SCORE.SYSTEM.CONST>
0

>  <SCORE.SYSTEM.DIHEDRAL>
0

>  <SCORE.SYSTEM.SOLV>
0

>  <SCORE.SYSTEM.norm>
0

>  <SCORE.heavy>
27

>  <SCORE.norm>
-0.169895

>  <RMSD>
25.472

$$$$
ligand
 OpenBabel11021811463D
libRbt.so/2013.1/901 2013/11/27
 27 28  0  0  0  0  0  0  0  0999 V2000
  -19.6382   55.6173   -6.2745 C   0  0  0  0  0  0  0  0  0  0  0  0
  -23.0491   62.3404  -10.0835 C   0  0  0  0  0  0  0  0  0  0  0  0
  -24.8269   61.6591  -12.3967 C   0  0  0  0  0  0  0  0  0  0  0  0
  -24.4818   61.0933  -13.7756 C   0  0  0  0  0  0  0  0  0  0  0  0
  -23.1254   60.6429  -13.8127 O   0  0  0  0  0  0  0  0  0  0  0  0
  -22.5033   60.0782  -15.1817 P   0  0  1  0  0  0  0  0  0  0  0  0
  -24.1573   57.7943  -15.1172 P   0  0  2  0  0  0  0  0  0  0  0  0
  -24.7681   58.4025  -10.4365 C   0  0  0  0  0  0  0  0  0  0  0  0
  -19.7802   57.8241   -7.4132 N   0  0  0  0  0  0  0  0  0  0  0  0
  -22.1727   61.2701  -16.2002 O   0  5  0  0  0  0  0  0  0  0  0  0
  -25.2743   58.1208  -14.2072 O   0  0  0  0  0  0  0  0  0  0  0  0
  -23.9473   58.6973   -9.3560 C   0  0  0  0  0  0  0  0  0  0  0  0
  -20.4146   56.8465   -6.7479 C   0  0  0  0  0  0  0  0  0  0  0  0
  -21.1265   59.2606  -14.9593 O   0  0  0  0  0  0  0  0  0  0  0  0
  -22.9361   57.1121  -14.3304 O   0  5  0  0  0  0  0  0  0  0  0  0
  -23.3937   59.9731   -9.2393 N   0  0  0  0  0  0  0  0  0  0  0  0
  -21.7279   56.9365   -6.4927 N   0  0  0  0  0  0  0  0  0  0  0  0
  -23.5498   59.0551  -15.8920 O   0  0  0  0  0  0  0  0  0  0  0  0
  -24.6068   56.7233  -16.2103 O   0  0  0  0  0  0  0  0  0  0  0  0
  -23.6637   60.9401  -10.2151 C   0  0  1  0  0  0  0  0  0  0  0  0
  -22.4246   58.0052   -6.8990 C   0  0  0  0  0  0  0  0  0  0  0  0
  -23.7255   58.0841   -6.6386 N   0  0  0  0  0  0  0  0  0  0  0  0
  -24.4881   60.6434  -11.2992 C   0  0  1  0  0  0  0  0  0  0  0  0
  -21.7905   59.0320   -7.5877 C   0  0  0  0  0  0  0  0  0  0  0  0
  -25.0336   59.3693  -11.3987 C   0  0  0  0  0  0  0  0  0  0  0  0
  -20.4287   58.8977   -7.8329 C   0  0  0  0  0  0  0  0  0  0  0  0
  -22.5155   60.2882   -8.0881 C   0  0  0  0  0  0  0  0  0  0  0  0
  1 13  1  0  0  0  0
  3  4  1  0  0  0  0
  4  5  1  0  0  0  0
  6  5  1  1  0  0  0
  6 10  1  0  0  0  0
  6 14  2  0  0  0  0
  6 18  1  0  0  0  0
  7 11  1  1  0  0  0
  7 15  1  0  0  0  0
  7 19  2  0  0  0  0
  7 18  1  0  0  0  0
  8 25  1  0  0  0  0
  8 12  1  0  0  0  0
  9 26  2  0  0  0  0
  9 13  1  0  0  0  0
 12 16  1  0  0  0  0
 13 17  2  0  0  0  0
 16 20  1  0  0  0  0
 16 27  1  0  0  0  0
 17 21  1  0  0  0  0
 20  2  1  1  0  0  0
 20 23  1  0  0  0  0
 21 22  1  0  0  0  0
 21 24  2  0  0  0  0
 23  3  1  1  0  0  0
 23 25  1  0  0  0  0
 24 27  1  0  0  0  0
 24 26  1  0  0  0  0
M  CHG  2  10  -1  15  -1
M  END
>  <CHROM.1>
-53.28586698,-176.72819378,75.49375612,-54.33761694,79.65359737,125.44118230
-72.00495298,28.71811942,-22.97855701,59.05005526,-11.58908341,-0.95737086
1.14916223,-1.98780665

>  <Name>
ligand

>  <RI>
0

>  <Rbt.Current_Directory>
/home/itssahil/PROJECTS/Mol_Feturizer/New_Systems/rnas/3D2V

>  <Rbt.Executable>
rbdock ($Id: //depot/dev/client3/rdock/2013.1/src/exe/rbdock.cxx#4 $)

>  <Rbt.Library>
libRbt.so (2013.1, Build901 2013/11/27)

>  <Rbt.Parameter_File>
/export/apps/rDock/src/rDock_2013.1_src/data/scripts/dock_solv.prm

>  <Rbt.Receptor>
prm/blind_docking_80.prm

>  <SCORE>
-8.33733

>  <SCORE.INTER>
-7.41799

>  <SCORE.INTER.CONST>
1

>  <SCORE.INTER.POLAR>
0

>  <SCORE.INTER.ROT>
8

>  <SCORE.INTER.SOLV>
17.9088

>  <SCORE.INTER.VDW>
-19.8483

>  <SCORE.INTER.norm>
-0.27474

>  <SCORE.INTRA>
-0.919341

>  <SCORE.INTRA.DIHEDRAL>
-1.41616

>  <SCORE.INTRA.DIHEDRAL.0>
7.82666

>  <SCORE.INTRA.POLAR>
0

>  <SCORE.INTRA.POLAR.0>
0

>  <SCORE.INTRA.REPUL>
0

>  <SCORE.INTRA.REPUL.0>
0

>  <SCORE.INTRA.SOLV>
0.0952262

>  <SCORE.INTRA.SOLV.lig_0>
-83.2758

>  <SCORE.INTRA.VDW>
-0.258872

>  <SCORE.INTRA.VDW.0>
-3.26816

>  <SCORE.INTRA.norm>
-0.0340497

>  <SCORE.RESTR>
0

>  <SCORE.RESTR.CAVITY>
0

>  <SCORE.RESTR.norm>
0

>  <SCORE.SYSTEM>
0

>  <SCORE.SYSTEM.CONST>
0

>  <SCORE.SYSTEM.DIHEDRAL>
0

>  <SCORE.SYSTEM.SOLV>
0

>  <SCORE.SYSTEM.norm>
0

>  <SCORE.heavy>
27

>  <SCORE.norm>
-0.30879

>  <RMSD>
25.490

$$$$
ligand
 OpenBabel11021811463D
libRbt.so/2013.1/901 2013/11/27
 27 28  0  0  0  0  0  0  0  0999 V2000
  -23.9211   57.1275  -15.7258 C   0  0  0  0  0  0  0  0  0  0  0  0
  -24.3349   58.8989   -8.6356 C   0  0  0  0  0  0  0  0  0  0  0  0
  -21.9647   60.2176   -7.3635 C   0  0  0  0  0  0  0  0  0  0  0  0
  -20.6900   59.4539   -7.7275 C   0  0  0  0  0  0  0  0  0  0  0  0
  -20.9828   58.3781   -8.6225 O   0  0  0  0  0  0  0  0  0  0  0  0
  -19.7873   57.5176   -9.2631 P   0  0  1  0  0  0  0  0  0  0  0  0
  -21.6905   56.3123  -10.9606 P   0  0  2  0  0  0  0  0  0  0  0  0
  -22.6677   62.4994  -10.3216 C   0  0  0  0  0  0  0  0  0  0  0  0
  -24.5283   57.3049  -13.3202 N   0  0  0  0  0  0  0  0  0  0  0  0
  -18.9365   58.3941  -10.2999 O   0  5  0  0  0  0  0  0  0  0  0  0
  -22.9315   56.6324  -10.2257 O   0  0  0  0  0  0  0  0  0  0  0  0
  -23.7669   61.9049  -10.9269 C   0  0  0  0  0  0  0  0  0  0  0  0
  -24.3331   57.9303  -14.4914 C   0  0  0  0  0  0  0  0  0  0  0  0
  -18.7460   56.9634   -8.1577 O   0  0  0  0  0  0  0  0  0  0  0  0
  -21.8059   54.9079  -11.7289 O   0  5  0  0  0  0  0  0  0  0  0  0
  -24.3092   60.7414  -10.3793 N   0  0  0  0  0  0  0  0  0  0  0  0
  -24.4963   59.2574  -14.5911 N   0  0  0  0  0  0  0  0  0  0  0  0
  -20.3857   56.2194  -10.0397 O   0  0  0  0  0  0  0  0  0  0  0  0
  -21.4060   57.3940  -12.0976 O   0  0  0  0  0  0  0  0  0  0  0  0
  -23.7364   60.1806   -9.2314 C   0  0  1  0  0  0  0  0  0  0  0  0
  -24.8571   59.9772  -13.5215 C   0  0  0  0  0  0  0  0  0  0  0  0
  -25.0176   61.2918  -13.6331 N   0  0  0  0  0  0  0  0  0  0  0  0
  -22.6332   60.7785   -8.6243 C   0  0  1  0  0  0  0  0  0  0  0  0
  -25.0675   59.3531  -12.2980 C   0  0  0  0  0  0  0  0  0  0  0  0
  -22.1074   61.9381   -9.1806 C   0  0  0  0  0  0  0  0  0  0  0  0
  -24.8855   57.9762  -12.2380 C   0  0  0  0  0  0  0  0  0  0  0  0
  -25.4807   60.1044  -11.0257 C   0  0  0  0  0  0  0  0  0  0  0  0
  1 13  1  0  0  0  0
  3  4  1  0  0  0  0
  4  5  1  0  0  0  0
  6  5  1  1  0  0  0
  6 10  1  0  0  0  0
  6 14  2  0  0  0  0
  6 18  1  0  0  0  0
  7 11  1  1  0  0  0
  7 15  1  0  0  0  0
  7 19  2  0  0  0  0
  7 18  1  0  0  0  0
  8 25  1  0  0  0  0
  8 12  1  0  0  0  0
  9 26  2  0  0  0  0
  9 13  1  0  0  0  0
 12 16  1  0  0  0  0
 13 17  2  0  0  0  0
 16 20  1  0  0  0  0
 16 27  1  0  0  0  0
 17 21  1  0  0  0  0
 20  2  1  1  0  0  0
 20 23  1  0  0  0  0
 21 22  1  0  0  0  0
 21 24  2  0  0  0  0
 23  3  1  1  0  0  0
 23 25  1  0  0  0  0
 24 27  1  0  0  0  0
 24 26  1  0  0  0  0
M  CHG  2  10  -1  15  -1
M  END
>  <CHROM.1>
-58.88037370,174.00247886,-68.53448921,42.20555896,-65.67133313,101.04348459
-80.63265089,75.76154048,-22.51862975,58.58381280,-10.81399385,-2.83623310
-0.76336390,0.73726767

>  <Name>
ligand

>  <RI>
0

>  <Rbt.Current_Directory>
/home/itssahil/PROJECTS/Mol_Feturizer/New_Systems/rnas/3D2V

>  <Rbt.Executable>
rbdock ($Id: //depot/dev/client3/rdock/2013.1/src/exe/rbdock.cxx#4 $)

>  <Rbt.Library>
libRbt.so (2013.1, Build901 2013/11/27)

>  <Rbt.Parameter_File>
/export/apps/rDock/src/rDock_2013.1_src/data/scripts/dock_solv.prm

>  <Rbt.Receptor>
prm/blind_docking_100.prm

>  <SCORE>
-14.4611

>  <SCORE.INTER>
-11.0236

>  <SCORE.INTER.CONST>
1

>  <SCORE.INTER.POLAR>
0

>  <SCORE.INTER.ROT>
8

>  <SCORE.INTER.SOLV>
17.4084

>  <SCORE.INTER.VDW>
-22.0852

>  <SCORE.INTER.norm>
-0.408282

>  <SCORE.INTRA>
-3.4375

>  <SCORE.INTRA.DIHEDRAL>
-1.84504

>  <SCORE.INTRA.DIHEDRAL.0>
7.82666

>  <SCORE.INTRA.POLAR>
0

>  <SCORE.INTRA.POLAR.0>
0

>  <SCORE.INTRA.REPUL>
0

>  <SCORE.INTRA.REPUL.0>
0

>  <SCORE.INTRA.SOLV>
0.263296

>  <SCORE.INTRA.SOLV.lig_0>
-83.2758

>  <SCORE.INTRA.VDW>
-2.64663

>  <SCORE.INTRA.VDW.0>
-3.26816

>  <SCORE.INTRA.norm>
-0.127315

>  <SCORE.RESTR>
0

>  <SCORE.RESTR.CAVITY>
0

>  <SCORE.RESTR.norm>
0

>  <SCORE.SYSTEM>
0

>  <SCORE.SYSTEM.CONST>
0

>  <SCORE.SYSTEM.DIHEDRAL>
0

>  <SCORE.SYSTEM.SOLV>
0

>  <SCORE.SYSTEM.norm>
0

>  <SCORE.heavy>
27

>  <SCORE.norm>
-0.535597

>  <RMSD>
25.533

$$$$
ligand
 OpenBabel11021811463D
libRbt.so/2013.1/901 2013/11/27
 27 28  0  0  0  0  0  0  0  0999 V2000
  -20.3484   58.0531  -18.2312 C   0  0  0  0  0  0  0  0  0  0  0  0
  -23.1273   56.4850  -11.7485 C   0  0  0  0  0  0  0  0  0  0  0  0
  -23.1387   58.6607   -9.6890 C   0  0  0  0  0  0  0  0  0  0  0  0
  -24.1626   58.8561   -8.5692 C   0  0  0  0  0  0  0  0  0  0  0  0
  -25.0203   57.7171   -8.4634 O   0  0  0  0  0  0  0  0  0  0  0  0
  -24.4492   56.3321   -7.8841 P   0  0  1  0  0  0  0  0  0  0  0  0
  -23.2153   53.9887   -8.8549 P   0  0  2  0  0  0  0  0  0  0  0  0
  -25.0506   60.2569  -12.5610 C   0  0  0  0  0  0  0  0  0  0  0  0
  -21.1782   57.8769  -15.8929 N   0  0  0  0  0  0  0  0  0  0  0  0
  -23.4117   56.5897   -6.6906 O   0  5  0  0  0  0  0  0  0  0  0  0
  -24.3149   53.0060   -8.7675 O   0  0  0  0  0  0  0  0  0  0  0  0
  -25.0576   59.2618  -13.5294 C   0  0  0  0  0  0  0  0  0  0  0  0
  -21.4435   57.7652  -17.2037 C   0  0  0  0  0  0  0  0  0  0  0  0
  -25.6066   55.3692   -7.2950 O   0  0  0  0  0  0  0  0  0  0  0  0
  -22.3091   53.9788   -7.5303 O   0  5  0  0  0  0  0  0  0  0  0  0
  -24.4384   58.0392  -13.2654 N   0  0  0  0  0  0  0  0  0  0  0  0
  -22.6641   57.4024  -17.6237 N   0  0  0  0  0  0  0  0  0  0  0  0
  -23.6981   55.4996   -9.0628 O   0  0  0  0  0  0  0  0  0  0  0  0
  -22.2218   53.6279  -10.0494 O   0  0  0  0  0  0  0  0  0  0  0  0
  -23.8099   57.8302  -12.0320 C   0  0  1  0  0  0  0  0  0  0  0  0
  -23.6357   57.1460  -16.7391 C   0  0  0  0  0  0  0  0  0  0  0  0
  -24.8411   56.7853  -17.1674 N   0  0  0  0  0  0  0  0  0  0  0  0
  -23.8037   58.8296  -11.0602 C   0  0  1  0  0  0  0  0  0  0  0  0
  -23.3858   57.2521  -15.3764 C   0  0  0  0  0  0  0  0  0  0  0  0
  -24.4273   60.0399  -11.3381 C   0  0  0  0  0  0  0  0  0  0  0  0
  -22.1077   57.6331  -14.9842 C   0  0  0  0  0  0  0  0  0  0  0  0
  -24.4430   56.9774  -14.2990 C   0  0  0  0  0  0  0  0  0  0  0  0
  1 13  1  0  0  0  0
  3  4  1  0  0  0  0
  4  5  1  0  0  0  0
  6  5  1  6  0  0  0
  6 10  1  0  0  0  0
  6 14  2  0  0  0  0
  6 18  1  0  0  0  0
  7 11  1  1  0  0  0
  7 15  1  0  0  0  0
  7 19  2  0  0  0  0
  7 18  1  0  0  0  0
  8 25  1  0  0  0  0
  8 12  1  0  0  0  0
  9 26  2  0  0  0  0
  9 13  1  0  0  0  0
 12 16  1  0  0  0  0
 13 17  2  0  0  0  0
 16 20  1  0  0  0  0
 16 27  1  0  0  0  0
 17 21  1  0  0  0  0
 20  2  1  1  0  0  0
 20 23  1  0  0  0  0
 21 22  1  0  0  0  0
 21 24  2  0  0  0  0
 23  3  1  1  0  0  0
 23 25  1  0  0  0  0
 24 27  1  0  0  0  0
 24 26  1  0  0  0  0
M  CHG  2  10  -1  15  -1
M  END
>  <CHROM.1>
74.76215194,71.19022162,37.39760162,-170.74013006,70.08837209,-121.29600679
-134.03698321,78.50286826,-23.55056104,56.79899489,-11.57080143,-1.23755362
-1.13935290,2.14698863

>  <Name>
ligand

>  <RI>
0

>  <Rbt.Current_Directory>
/home/itssahil/PROJECTS/Mol_Feturizer/New_Systems/rnas/3D2V

>  <Rbt.Executable>
rbdock ($Id: //depot/dev/client3/rdock/2013.1/src/exe/rbdock.cxx#4 $)

>  <Rbt.Library>
libRbt.so (2013.1, Build901 2013/11/27)

>  <Rbt.Parameter_File>
/export/apps/rDock/src/rDock_2013.1_src/data/scripts/dock_solv.prm

>  <Rbt.Receptor>
prm/blind_docking_80.prm

>  <SCORE>
-7.2952

>  <SCORE.INTER>
-7.42874

>  <SCORE.INTER.CONST>
1

>  <SCORE.INTER.POLAR>
0

>  <SCORE.INTER.ROT>
8

>  <SCORE.INTER.SOLV>
24.1085

>  <SCORE.INTER.VDW>
-21.922

>  <SCORE.INTER.norm>
-0.275139

>  <SCORE.INTRA>
0.133544

>  <SCORE.INTRA.DIHEDRAL>
-0.193688

>  <SCORE.INTRA.DIHEDRAL.0>
7.82666

>  <SCORE.INTRA.POLAR>
0

>  <SCORE.INTRA.POLAR.0>
0

>  <SCORE.INTRA.REPUL>
0

>  <SCORE.INTRA.REPUL.0>
0

>  <SCORE.INTRA.SOLV>
1.52059

>  <SCORE.INTRA.SOLV.lig_0>
-83.2758

>  <SCORE.INTRA.VDW>
-0.529908

>  <SCORE.INTRA.VDW.0>
-3.26816

>  <SCORE.INTRA.norm>
0.00494607

>  <SCORE.RESTR>
0

>  <SCORE.RESTR.CAVITY>
0

>  <SCORE.RESTR.norm>
0

>  <SCORE.SYSTEM>
0

>  <SCORE.SYSTEM.CONST>
0

>  <SCORE.SYSTEM.DIHEDRAL>
0

>  <SCORE.SYSTEM.SOLV>
0

>  <SCORE.SYSTEM.norm>
0

>  <SCORE.heavy>
27

>  <SCORE.norm>
-0.270193

>  <RMSD>
25.635

$$$$
ligand
 OpenBabel11021811463D
libRbt.so/2013.1/901 2013/11/27
 27 28  0  0  0  0  0  0  0  0999 V2000
  -17.2271   59.7351  -12.7758 C   0  0  0  0  0  0  0  0  0  0  0  0
  -23.3074   60.4000  -13.0255 C   0  0  0  0  0  0  0  0  0  0  0  0
  -25.1027   59.9414  -10.6714 C   0  0  0  0  0  0  0  0  0  0  0  0
  -24.0466   60.3045   -9.6258 C   0  0  0  0  0  0  0  0  0  0  0  0
  -23.8029   59.2020   -8.7487 O   0  0  0  0  0  0  0  0  0  0  0  0
  -22.4943   59.1901   -7.8173 P   0  0  1  0  0  0  0  0  0  0  0  0
  -23.9487   57.5394   -6.0520 P   0  0  2  0  0  0  0  0  0  0  0  0
  -24.6025   56.4167  -12.0047 C   0  0  0  0  0  0  0  0  0  0  0  0
  -19.4900   58.7651  -12.4208 N   0  0  0  0  0  0  0  0  0  0  0  0
  -21.1631   59.0296   -8.6943 O   0  5  0  0  0  0  0  0  0  0  0  0
  -25.0991   57.4458   -6.9741 O   0  0  0  0  0  0  0  0  0  0  0  0
  -23.7699   56.6067  -13.0995 C   0  0  0  0  0  0  0  0  0  0  0  0
  -18.6082   59.3083  -13.2742 C   0  0  0  0  0  0  0  0  0  0  0  0
  -22.3221   60.5457   -6.9535 O   0  0  0  0  0  0  0  0  0  0  0  0
  -24.2122   58.6122   -4.8877 O   0  5  0  0  0  0  0  0  0  0  0  0
  -23.3473   57.8956  -13.4281 N   0  0  0  0  0  0  0  0  0  0  0  0
  -18.9268   59.4815  -14.5651 N   0  0  0  0  0  0  0  0  0  0  0  0
  -22.5748   57.9610   -6.7546 O   0  0  0  0  0  0  0  0  0  0  0  0
  -23.7049   56.1530   -5.3020 O   0  0  0  0  0  0  0  0  0  0  0  0
  -23.7724   58.9843  -12.6573 C   0  0  1  0  0  0  0  0  0  0  0  0
  -20.1310   59.1137  -15.0202 C   0  0  0  0  0  0  0  0  0  0  0  0
  -20.4347   59.2886  -16.3023 N   0  0  0  0  0  0  0  0  0  0  0  0
  -24.6078   58.7925  -11.5581 C   0  0  1  0  0  0  0  0  0  0  0  0
  -21.0608   58.5469  -14.1572 C   0  0  0  0  0  0  0  0  0  0  0  0
  -25.0169   57.5025  -11.2429 C   0  0  0  0  0  0  0  0  0  0  0  0
  -20.6906   58.3873  -12.8268 C   0  0  0  0  0  0  0  0  0  0  0  0
  -22.4609   58.1001  -14.5978 C   0  0  0  0  0  0  0  0  0  0  0  0
  1 13  1  0  0  0  0
  3  4  1  0  0  0  0
  4  5  1  0  0  0  0
  6  5  1  6  0  0  0
  6 10  1  0  0  0  0
  6 14  2  0  0  0  0
  6 18  1  0  0  0  0
  7 11  1  6  0  0  0
  7 15  1  0  0  0  0
  7 19  2  0  0  0  0
  7 18  1  0  0  0  0
  8 25  1  0  0  0  0
  8 12  1  0  0  0  0
  9 26  2  0  0  0  0
  9 13  1  0  0  0  0
 12 16  1  0  0  0  0
 13 17  2  0  0  0  0
 16 20  1  0  0  0  0
 16 27  1  0  0  0  0
 17 21  1  0  0  0  0
 20  2  1  1  0  0  0
 20 23  1  0  0  0  0
 21 22  1  0  0  0  0
 21 24  2  0  0  0  0
 23  3  1  1  0  0  0
 23 25  1  0  0  0  0
 24 27  1  0  0  0  0
 24 26  1  0  0  0  0
M  CHG  2  10  -1  15  -1
M  END
>  <CHROM.1>
-62.67997954,164.37373933,-68.41799274,-38.37166333,45.87185307,-82.76469479
-164.08461915,-111.69952491,-22.52224896,58.63599152,-10.39868485,-1.15945599
0.26988153,1.56300302

>  <Name>
ligand

>  <RI>
0

>  <Rbt.Current_Directory>
/home/itssahil/PROJECTS/Mol_Feturizer/New_Systems/rnas/3D2V

>  <Rbt.Executable>
rbdock ($Id: //depot/dev/client3/rdock/2013.1/src/exe/rbdock.cxx#4 $)

>  <Rbt.Library>
libRbt.so (2013.1, Build901 2013/11/27)

>  <Rbt.Parameter_File>
/export/apps/rDock/src/rDock_2013.1_src/data/scripts/dock_solv.prm

>  <Rbt.Receptor>
prm/blind_docking_100.prm

>  <SCORE>
-13.6705

>  <SCORE.INTER>
-12.0044

>  <SCORE.INTER.CONST>
1

>  <SCORE.INTER.POLAR>
0

>  <SCORE.INTER.ROT>
8

>  <SCORE.INTER.SOLV>
21.018

>  <SCORE.INTER.VDW>
-23.9422

>  <SCORE.INTER.norm>
-0.444606

>  <SCORE.INTRA>
-1.66613

>  <SCORE.INTRA.DIHEDRAL>
-0.328288

>  <SCORE.INTRA.DIHEDRAL.0>
7.82666

>  <SCORE.INTRA.POLAR>
0

>  <SCORE.INTRA.POLAR.0>
0

>  <SCORE.INTRA.REPUL>
0

>  <SCORE.INTRA.REPUL.0>
0

>  <SCORE.INTRA.SOLV>
-2.21657

>  <SCORE.INTRA.SOLV.lig_0>
-83.2758

>  <SCORE.INTRA.VDW>
-0.393696

>  <SCORE.INTRA.VDW.0>
-3.26816

>  <SCORE.INTRA.norm>
-0.0617084

>  <SCORE.RESTR>
0

>  <SCORE.RESTR.CAVITY>
0

>  <SCORE.RESTR.norm>
0

>  <SCORE.SYSTEM>
0

>  <SCORE.SYSTEM.CONST>
0

>  <SCORE.SYSTEM.DIHEDRAL>
0

>  <SCORE.SYSTEM.SOLV>
0

>  <SCORE.SYSTEM.norm>
0

>  <SCORE.heavy>
27

>  <SCORE.norm>
-0.506314

>  <RMSD>
25.658

$$$$
ligand
 OpenBabel11021811463D
libRbt.so/2013.1/901 2013/11/27
 27 28  0  0  0  0  0  0  0  0999 V2000
  -20.7611   57.3044  -18.5686 C   0  0  0  0  0  0  0  0  0  0  0  0
  -22.0217   59.7648  -10.9738 C   0  0  0  0  0  0  0  0  0  0  0  0
  -23.5326   57.8027   -9.2878 C   0  0  0  0  0  0  0  0  0  0  0  0
  -24.3784   58.7818   -8.4714 C   0  0  0  0  0  0  0  0  0  0  0  0
  -23.8732   58.8978   -7.1389 O   0  0  0  0  0  0  0  0  0  0  0  0
  -23.8711   57.6197   -6.1661 P   0  0  1  0  0  0  0  0  0  0  0  0
  -21.2479   56.7706   -6.7613 P   0  0  2  0  0  0  0  0  0  0  0  0
  -25.0925   57.2911  -12.7165 C   0  0  0  0  0  0  0  0  0  0  0  0
  -21.2074   57.4112  -16.1238 N   0  0  0  0  0  0  0  0  0  0  0  0
  -23.4563   58.0307   -4.6741 O   0  5  0  0  0  0  0  0  0  0  0  0
  -20.8737   58.0950   -7.2984 O   0  0  0  0  0  0  0  0  0  0  0  0
  -24.4040   58.1935  -13.5163 C   0  0  0  0  0  0  0  0  0  0  0  0
  -21.2712   58.0207  -17.3177 C   0  0  0  0  0  0  0  0  0  0  0  0
  -25.3153   56.9001   -6.0663 O   0  0  0  0  0  0  0  0  0  0  0  0
  -20.6093   55.5809   -7.6287 O   0  5  0  0  0  0  0  0  0  0  0  0
  -23.4073   58.9919  -12.9533 N   0  0  0  0  0  0  0  0  0  0  0  0
  -21.7797   59.2568  -17.4258 N   0  0  0  0  0  0  0  0  0  0  0  0
  -22.8240   56.5014   -6.7135 O   0  0  0  0  0  0  0  0  0  0  0  0
  -20.6765   56.5716   -5.2856 O   0  0  0  0  0  0  0  0  0  0  0  0
  -23.1165   58.8817  -11.5882 C   0  0  1  0  0  0  0  0  0  0  0  0
  -22.2315   59.8999  -16.3420 C   0  0  0  0  0  0  0  0  0  0  0  0
  -22.7350   61.1240  -16.4618 N   0  0  0  0  0  0  0  0  0  0  0  0
  -23.8079   57.9751  -10.7863 C   0  0  1  0  0  0  0  0  0  0  0  0
  -22.1787   59.2895  -15.0948 C   0  0  0  0  0  0  0  0  0  0  0  0
  -24.7952   57.1857  -11.3632 C   0  0  0  0  0  0  0  0  0  0  0  0
  -21.6422   58.0088  -15.0271 C   0  0  0  0  0  0  0  0  0  0  0  0
  -22.6736   59.9572  -13.8051 C   0  0  0  0  0  0  0  0  0  0  0  0
  1 13  1  0  0  0  0
  3  4  1  0  0  0  0
  4  5  1  0  0  0  0
  6  5  1  6  0  0  0
  6 10  1  0  0  0  0
  6 14  2  0  0  0  0
  6 18  1  0  0  0  0
  7 11  1  6  0  0  0
  7 15  1  0  0  0  0
  7 19  2  0  0  0  0
  7 18  1  0  0  0  0
  8 25  1  0  0  0  0
  8 12  1  0  0  0  0
  9 26  2  0  0  0  0
  9 13  1  0  0  0  0
 12 16  1  0  0  0  0
 13 17  2  0  0  0  0
 16 20  1  0  0  0  0
 16 27  1  0  0  0  0
 17 21  1  0  0  0  0
 20  2  1  6  0  0  0
 20 23  1  0  0  0  0
 21 22  1  0  0  0  0
 21 24  2  0  0  0  0
 23  3  1  6  0  0  0
 23 25  1  0  0  0  0
 24 27  1  0  0  0  0
 24 26  1  0  0  0  0
M  CHG  2  10  -1  15  -1
M  END
>  <CHROM.1>
-163.77880234,-63.29990438,-172.04311337,65.33723315,-44.87664408,88.07173962
138.72470505,-48.70290480,-22.68531446,58.03680985,-10.65889938,-1.49267544
-0.42359233,1.75481575

>  <Name>
ligand

>  <RI>
0

>  <Rbt.Current_Directory>
/home/itssahil/PROJECTS/Mol_Feturizer/New_Systems/rnas/3D2V

>  <Rbt.Executable>
rbdock ($Id: //depot/dev/client3/rdock/2013.1/src/exe/rbdock.cxx#4 $)

>  <Rbt.Library>
libRbt.so (2013.1, Build901 2013/11/27)

>  <Rbt.Parameter_File>
/export/apps/rDock/src/rDock_2013.1_src/data/scripts/dock_solv.prm

>  <Rbt.Receptor>
prm/blind_docking_100.prm

>  <SCORE>
-6.5761

>  <SCORE.INTER>
-5.35527

>  <SCORE.INTER.CONST>
1

>  <SCORE.INTER.POLAR>
0

>  <SCORE.INTER.ROT>
8

>  <SCORE.INTER.SOLV>
16.3

>  <SCORE.INTER.VDW>
-17.9368

>  <SCORE.INTER.norm>
-0.198343

>  <SCORE.INTRA>
-1.22083

>  <SCORE.INTRA.DIHEDRAL>
-1.16845

>  <SCORE.INTRA.DIHEDRAL.0>
7.82666

>  <SCORE.INTRA.POLAR>
0

>  <SCORE.INTRA.POLAR.0>
0

>  <SCORE.INTRA.REPUL>
0

>  <SCORE.INTRA.REPUL.0>
0

>  <SCORE.INTRA.SOLV>
-0.901743

>  <SCORE.INTRA.SOLV.lig_0>
-83.2758

>  <SCORE.INTRA.VDW>
-0.185732

>  <SCORE.INTRA.VDW.0>
-3.26816

>  <SCORE.INTRA.norm>
-0.045216

>  <SCORE.RESTR>
0

>  <SCORE.RESTR.CAVITY>
0

>  <SCORE.RESTR.norm>
0

>  <SCORE.SYSTEM>
0

>  <SCORE.SYSTEM.CONST>
0

>  <SCORE.SYSTEM.DIHEDRAL>
0

>  <SCORE.SYSTEM.SOLV>
0

>  <SCORE.SYSTEM.norm>
0

>  <SCORE.heavy>
27

>  <SCORE.norm>
-0.243559

>  <RMSD>
25.685

$$$$
ligand
 OpenBabel11021811463D
libRbt.so/2013.1/901 2013/11/27
 27 28  0  0  0  0  0  0  0  0999 V2000
  -18.3936   59.5366  -15.1885 C   0  0  0  0  0  0  0  0  0  0  0  0
  -24.4535   57.5400  -10.7110 C   0  0  0  0  0  0  0  0  0  0  0  0
  -24.5319   58.8282   -8.0073 C   0  0  0  0  0  0  0  0  0  0  0  0
  -23.3255   58.7204   -7.0726 C   0  0  0  0  0  0  0  0  0  0  0  0
  -23.6725   58.0156   -5.8779 O   0  0  0  0  0  0  0  0  0  0  0  0
  -24.0575   56.4578   -5.9470 P   0  0  1  0  0  0  0  0  0  0  0  0
  -21.8289   55.5517   -4.4744 P   0  0  2  0  0  0  0  0  0  0  0  0
  -23.5139   61.7224  -10.2519 C   0  0  0  0  0  0  0  0  0  0  0  0
  -20.0452   58.7619  -13.4975 N   0  0  0  0  0  0  0  0  0  0  0  0
  -25.6467   56.2547   -5.9277 O   0  5  0  0  0  0  0  0  0  0  0  0
  -21.0597   56.6793   -5.0395 O   0  0  0  0  0  0  0  0  0  0  0  0
  -23.4720   61.1455  -11.5143 C   0  0  0  0  0  0  0  0  0  0  0  0
  -19.8125   59.4513  -14.6251 C   0  0  0  0  0  0  0  0  0  0  0  0
  -23.5116   55.7314   -7.2841 O   0  0  0  0  0  0  0  0  0  0  0  0
  -21.3840   54.1518   -5.1210 O   0  5  0  0  0  0  0  0  0  0  0  0
  -23.7798   59.7925  -11.6639 N   0  0  0  0  0  0  0  0  0  0  0  0
  -20.8156   60.0688  -15.2659 N   0  0  0  0  0  0  0  0  0  0  0  0
  -23.4110   55.6647   -4.6823 O   0  0  0  0  0  0  0  0  0  0  0  0
  -21.5544   55.4012   -2.9105 O   0  0  0  0  0  0  0  0  0  0  0  0
  -24.1195   59.0284  -10.5409 C   0  0  1  0  0  0  0  0  0  0  0  0
  -22.0646   60.0051  -14.7882 C   0  0  0  0  0  0  0  0  0  0  0  0
  -23.0510   60.6197  -15.4331 N   0  0  0  0  0  0  0  0  0  0  0  0
  -24.1617   59.6086   -9.2742 C   0  0  2  0  0  0  0  0  0  0  0  0
  -22.3320   59.2957  -13.6237 C   0  0  0  0  0  0  0  0  0  0  0  0
  -23.8553   60.9576   -9.1432 C   0  0  0  0  0  0  0  0  0  0  0  0
  -21.2632   58.6724  -12.9900 C   0  0  0  0  0  0  0  0  0  0  0  0
  -23.7330   59.1750  -13.0101 C   0  0  0  0  0  0  0  0  0  0  0  0
  1 13  1  0  0  0  0
  3  4  1  0  0  0  0
  4  5  1  0  0  0  0
  6  5  1  1  0  0  0
  6 10  1  0  0  0  0
  6 14  2  0  0  0  0
  6 18  1  0  0  0  0
  7 11  1  6  0  0  0
  7 15  1  0  0  0  0
  7 19  2  0  0  0  0
  7 18  1  0  0  0  0
  8 25  1  0  0  0  0
  8 12  1  0  0  0  0
  9 26  2  0  0  0  0
  9 13  1  0  0  0  0
 12 16  1  0  0  0  0
 13 17  2  0  0  0  0
 16 20  1  0  0  0  0
 16 27  1  0  0  0  0
 17 21  1  0  0  0  0
 20  2  1  6  0  0  0
 20 23  1  0  0  0  0
 21 22  1  0  0  0  0
 21 24  2  0  0  0  0
 23  3  1  1  0  0  0
 23 25  1  0  0  0  0
 24 27  1  0  0  0  0
 24 26  1  0  0  0  0
M  CHG  2  10  -1  15  -1
M  END
>  <CHROM.1>
178.88584469,66.41634823,-99.47966307,-63.47280062,28.51660934,113.32692508
-117.25903484,59.43368109,-22.71726011,58.05230088,-9.16647540,-1.43994149
-0.45310301,2.03682728

>  <Name>
ligand

>  <RI>
0

>  <Rbt.Current_Directory>
/home/itssahil/PROJECTS/Mol_Feturizer/New_Systems/rnas/3D2V

>  <Rbt.Executable>
rbdock ($Id: //depot/dev/client3/rdock/2013.1/src/exe/rbdock.cxx#4 $)

>  <Rbt.Library>
libRbt.so (2013.1, Build901 2013/11/27)

>  <Rbt.Parameter_File>
/export/apps/rDock/src/rDock_2013.1_src/data/scripts/dock_solv.prm

>  <Rbt.Receptor>
prm/blind_docking_80.prm

>  <SCORE>
-8.6237

>  <SCORE.INTER>
-8.54711

>  <SCORE.INTER.CONST>
1

>  <SCORE.INTER.POLAR>
0

>  <SCORE.INTER.ROT>
8

>  <SCORE.INTER.SOLV>
11.1142

>  <SCORE.INTER.VDW>
-18.3361

>  <SCORE.INTER.norm>
-0.31656

>  <SCORE.INTRA>
-0.0765953

>  <SCORE.INTRA.DIHEDRAL>
0.63519

>  <SCORE.INTRA.DIHEDRAL.0>
7.82666

>  <SCORE.INTRA.POLAR>
0

>  <SCORE.INTRA.POLAR.0>
0

>  <SCORE.INTRA.REPUL>
0

>  <SCORE.INTRA.REPUL.0>
0

>  <SCORE.INTRA.SOLV>
-0.604645

>  <SCORE.INTRA.SOLV.lig_0>
-83.2758

>  <SCORE.INTRA.VDW>
-0.0918679

>  <SCORE.INTRA.VDW.0>
-3.26816

>  <SCORE.INTRA.norm>
-0.00283686

>  <SCORE.RESTR>
0

>  <SCORE.RESTR.CAVITY>
0

>  <SCORE.RESTR.norm>
0

>  <SCORE.SYSTEM>
0

>  <SCORE.SYSTEM.CONST>
0

>  <SCORE.SYSTEM.DIHEDRAL>
0

>  <SCORE.SYSTEM.SOLV>
0

>  <SCORE.SYSTEM.norm>
0

>  <SCORE.heavy>
27

>  <SCORE.norm>
-0.319396

>  <RMSD>
25.691

$$$$
ligand
 OpenBabel11021811463D
libRbt.so/2013.1/901 2013/11/27
 27 28  0  0  0  0  0  0  0  0999 V2000
  -16.5977   61.2967  -11.1632 C   0  0  0  0  0  0  0  0  0  0  0  0
  -22.2765   57.4415  -11.5119 C   0  0  0  0  0  0  0  0  0  0  0  0
  -24.8697   58.5415  -10.4917 C   0  0  0  0  0  0  0  0  0  0  0  0
  -24.3353   59.1371   -9.1877 C   0  0  0  0  0  0  0  0  0  0  0  0
  -22.9990   58.6937   -8.9392 O   0  0  0  0  0  0  0  0  0  0  0  0
  -22.1566   59.3222   -7.7245 P   0  0  1  0  0  0  0  0  0  0  0  0
  -23.7278   58.0135   -5.7816 P   0  0  2  0  0  0  0  0  0  0  0  0
  -24.1144   60.8410  -13.4230 C   0  0  0  0  0  0  0  0  0  0  0  0
  -18.6443   59.8832  -11.1834 N   0  0  0  0  0  0  0  0  0  0  0  0
  -20.8238   58.4768   -7.4483 O   0  5  0  0  0  0  0  0  0  0  0  0
  -24.8377   58.2600   -4.8382 O   0  0  0  0  0  0  0  0  0  0  0  0
  -22.9126   60.3468  -13.9126 C   0  0  0  0  0  0  0  0  0  0  0  0
  -17.7668   60.6213  -11.8807 C   0  0  0  0  0  0  0  0  0  0  0  0
  -21.6925   60.8460   -8.0002 O   0  0  0  0  0  0  0  0  0  0  0  0
  -22.5459   57.1727   -5.0946 O   0  5  0  0  0  0  0  0  0  0  0  0
  -22.3192   59.2441  -13.2965 N   0  0  0  0  0  0  0  0  0  0  0  0
  -17.9050   60.7734  -13.2057 N   0  0  0  0  0  0  0  0  0  0  0  0
  -23.0570   59.3414   -6.3698 O   0  0  0  0  0  0  0  0  0  0  0  0
  -24.2145   57.1281   -7.0156 O   0  0  0  0  0  0  0  0  0  0  0  0
  -22.9355   58.6519  -12.1876 C   0  0  1  0  0  0  0  0  0  0  0  0
  -18.9221   60.1894  -13.8515 C   0  0  0  0  0  0  0  0  0  0  0  0
  -19.0476   60.3459  -15.1654 N   0  0  0  0  0  0  0  0  0  0  0  0
  -24.1422   59.1484  -11.6972 C   0  0  1  0  0  0  0  0  0  0  0  0
  -19.8428   59.4182  -13.1527 C   0  0  0  0  0  0  0  0  0  0  0  0
  -24.7211   60.2451  -12.3240 C   0  0  0  0  0  0  0  0  0  0  0  0
  -19.6636   59.2882  -11.7803 C   0  0  0  0  0  0  0  0  0  0  0  0
  -21.0354   58.7173  -13.8163 C   0  0  0  0  0  0  0  0  0  0  0  0
  1 13  1  0  0  0  0
  3  4  1  0  0  0  0
  4  5  1  0  0  0  0
  6  5  1  6  0  0  0
  6 10  1  0  0  0  0
  6 14  2  0  0  0  0
  6 18  1  0  0  0  0
  7 11  1  1  0  0  0
  7 15  1  0  0  0  0
  7 19  2  0  0  0  0
  7 18  1  0  0  0  0
  8 25  1  0  0  0  0
  8 12  1  0  0  0  0
  9 26  2  0  0  0  0
  9 13  1  0  0  0  0
 12 16  1  0  0  0  0
 13 17  2  0  0  0  0
 16 20  1  0  0  0  0
 16 27  1  0  0  0  0
 17 21  1  0  0  0  0
 20  2  1  6  0  0  0
 20 23  1  0  0  0  0
 21 22  1  0  0  0  0
 21 24  2  0  0  0  0
 23  3  1  6  0  0  0
 23 25  1  0  0  0  0
 24 27  1  0  0  0  0
 24 26  1  0  0  0  0
M  CHG  2  10  -1  15  -1
M  END
>  <CHROM.1>
-69.41706085,172.55471962,168.26553813,55.76084396,-161.12375621,85.96239668
-117.13367620,88.78516845,-21.90854565,59.20798303,-10.00534329,-1.06381211
0.20728860,1.71845686

>  <Name>
ligand

>  <RI>
0

>  <Rbt.Current_Directory>
/home/itssahil/PROJECTS/Mol_Feturizer/New_Systems/rnas/3D2V

>  <Rbt.Executable>
rbdock ($Id: //depot/dev/client3/rdock/2013.1/src/exe/rbdock.cxx#4 $)

>  <Rbt.Library>
libRbt.so (2013.1, Build901 2013/11/27)

>  <Rbt.Parameter_File>
/export/apps/rDock/src/rDock_2013.1_src/data/scripts/dock_solv.prm

>  <Rbt.Receptor>
prm/blind_docking_80.prm

>  <SCORE>
-14.3502

>  <SCORE.INTER>
-13.7498

>  <SCORE.INTER.CONST>
1

>  <SCORE.INTER.POLAR>
0

>  <SCORE.INTER.ROT>
8

>  <SCORE.INTER.SOLV>
19.8181

>  <SCORE.INTER.VDW>
-24.7059

>  <SCORE.INTER.norm>
-0.509251

>  <SCORE.INTRA>
-0.600388

>  <SCORE.INTRA.DIHEDRAL>
-1.27375

>  <SCORE.INTRA.DIHEDRAL.0>
7.82666

>  <SCORE.INTRA.POLAR>
0

>  <SCORE.INTRA.POLAR.0>
0

>  <SCORE.INTRA.REPUL>
0

>  <SCORE.INTRA.REPUL.0>
0

>  <SCORE.INTRA.SOLV>
1.31578

>  <SCORE.INTRA.SOLV.lig_0>
-83.2758

>  <SCORE.INTRA.VDW>
-0.621405

>  <SCORE.INTRA.VDW.0>
-3.26816

>  <SCORE.INTRA.norm>
-0.0222366

>  <SCORE.RESTR>
0

>  <SCORE.RESTR.CAVITY>
0

>  <SCORE.RESTR.norm>
0

>  <SCORE.SYSTEM>
0

>  <SCORE.SYSTEM.CONST>
0

>  <SCORE.SYSTEM.DIHEDRAL>
0

>  <SCORE.SYSTEM.SOLV>
0

>  <SCORE.SYSTEM.norm>
0

>  <SCORE.heavy>
27

>  <SCORE.norm>
-0.531488

>  <RMSD>
25.695

$$$$
ligand
 OpenBabel11021811463D
libRbt.so/2013.1/901 2013/11/27
 27 28  0  0  0  0  0  0  0  0999 V2000
  -22.6332   61.1033  -16.8821 C   0  0  0  0  0  0  0  0  0  0  0  0
  -24.2508   58.8505   -9.5397 C   0  0  0  0  0  0  0  0  0  0  0  0
  -22.2500   59.6827   -7.4709 C   0  0  0  0  0  0  0  0  0  0  0  0
  -20.9882   58.9170   -7.8736 C   0  0  0  0  0  0  0  0  0  0  0  0
  -21.2702   57.9977   -8.9317 O   0  0  0  0  0  0  0  0  0  0  0  0
  -20.0653   57.3052   -9.7371 P   0  0  1  0  0  0  0  0  0  0  0  0
  -20.9182   54.6510  -10.1659 P   0  0  2  0  0  0  0  0  0  0  0  0
  -22.4996   62.7885   -9.6487 C   0  0  0  0  0  0  0  0  0  0  0  0
  -23.4973   62.1045  -14.7754 N   0  0  0  0  0  0  0  0  0  0  0  0
  -19.2794   58.3760  -10.6331 O   0  5  0  0  0  0  0  0  0  0  0  0
  -19.6974   53.8672   -9.8870 O   0  0  0  0  0  0  0  0  0  0  0  0
  -23.4256   62.4236  -10.6170 C   0  0  0  0  0  0  0  0  0  0  0  0
  -23.2557   60.9944  -15.4897 C   0  0  0  0  0  0  0  0  0  0  0  0
  -18.9706   56.6174   -8.7665 O   0  0  0  0  0  0  0  0  0  0  0  0
  -21.8420   53.9324  -11.2641 O   0  5  0  0  0  0  0  0  0  0  0  0
  -23.9955   61.1502  -10.5799 N   0  0  0  0  0  0  0  0  0  0  0  0
  -23.5557   59.7855  -14.9933 N   0  0  0  0  0  0  0  0  0  0  0  0
  -20.6409   56.1313  -10.7051 O   0  0  0  0  0  0  0  0  0  0  0  0
  -21.8284   54.7721   -8.8617 O   0  0  0  0  0  0  0  0  0  0  0  0
  -23.6234   60.2510   -9.5734 C   0  0  1  0  0  0  0  0  0  0  0  0
  -24.1009   59.6700  -13.7760 C   0  0  0  0  0  0  0  0  0  0  0  0
  -24.3921   58.4663  -13.2938 N   0  0  0  0  0  0  0  0  0  0  0  0
  -22.6942   60.6184   -8.6015 C   0  0  2  0  0  0  0  0  0  0  0  0
  -24.3587   60.8040  -13.0155 C   0  0  0  0  0  0  0  0  0  0  0  0
  -22.1385   61.8910   -8.6513 C   0  0  0  0  0  0  0  0  0  0  0  0
  -24.0344   62.0374  -13.5686 C   0  0  0  0  0  0  0  0  0  0  0  0
  -24.9818   60.7585  -11.6142 C   0  0  0  0  0  0  0  0  0  0  0  0
  1 13  1  0  0  0  0
  3  4  1  0  0  0  0
  4  5  1  0  0  0  0
  6  5  1  1  0  0  0
  6 10  1  0  0  0  0
  6 14  2  0  0  0  0
  6 18  1  0  0  0  0
  7 11  1  1  0  0  0
  7 15  1  0  0  0  0
  7 19  2  0  0  0  0
  7 18  1  0  0  0  0
  8 25  1  0  0  0  0
  8 12  1  0  0  0  0
  9 26  2  0  0  0  0
  9 13  1  0  0  0  0
 12 16  1  0  0  0  0
 13 17  2  0  0  0  0
 16 20  1  0  0  0  0
 16 27  1  0  0  0  0
 17 21  1  0  0  0  0
 20  2  1  1  0  0  0
 20 23  1  0  0  0  0
 21 22  1  0  0  0  0
 21 24  2  0  0  0  0
 23  3  1  6  0  0  0
 23 25  1  0  0  0  0
 24 27  1  0  0  0  0
 24 26  1  0  0  0  0
M  CHG  2  10  -1  15  -1
M  END
>  <CHROM.1>
-67.55866454,167.10248433,-68.74502290,-84.09741864,-71.99019058,93.14046218
110.77271749,60.87048616,-22.15468038,58.65252270,-10.93169649,-3.07138523
-1.13173976,1.04365779

>  <Name>
ligand

>  <RI>
0

>  <Rbt.Current_Directory>
/home/itssahil/PROJECTS/Mol_Feturizer/New_Systems/rnas/3D2V

>  <Rbt.Executable>
rbdock ($Id: //depot/dev/client3/rdock/2013.1/src/exe/rbdock.cxx#4 $)

>  <Rbt.Library>
libRbt.so (2013.1, Build901 2013/11/27)

>  <Rbt.Parameter_File>
/export/apps/rDock/src/rDock_2013.1_src/data/scripts/dock_solv.prm

>  <Rbt.Receptor>
prm/blind_docking_100.prm

>  <SCORE>
-12.7706

>  <SCORE.INTER>
-11.9078

>  <SCORE.INTER.CONST>
1

>  <SCORE.INTER.POLAR>
0

>  <SCORE.INTER.ROT>
8

>  <SCORE.INTER.SOLV>
18.3098

>  <SCORE.INTER.VDW>
-22.9751

>  <SCORE.INTER.norm>
-0.441029

>  <SCORE.INTRA>
-0.862845

>  <SCORE.INTRA.DIHEDRAL>
-0.471896

>  <SCORE.INTRA.DIHEDRAL.0>
7.82666

>  <SCORE.INTRA.POLAR>
0

>  <SCORE.INTRA.POLAR.0>
0

>  <SCORE.INTRA.REPUL>
0

>  <SCORE.INTRA.REPUL.0>
0

>  <SCORE.INTRA.SOLV>
0.0779975

>  <SCORE.INTRA.SOLV.lig_0>
-83.2758

>  <SCORE.INTRA.VDW>
-0.665896

>  <SCORE.INTRA.VDW.0>
-3.26816

>  <SCORE.INTRA.norm>
-0.0319572

>  <SCORE.RESTR>
0

>  <SCORE.RESTR.CAVITY>
0

>  <SCORE.RESTR.norm>
0

>  <SCORE.SYSTEM>
0

>  <SCORE.SYSTEM.CONST>
0

>  <SCORE.SYSTEM.DIHEDRAL>
0

>  <SCORE.SYSTEM.SOLV>
0

>  <SCORE.SYSTEM.norm>
0

>  <SCORE.heavy>
27

>  <SCORE.norm>
-0.472986

>  <RMSD>
25.756

$$$$
ligand
 OpenBabel11021811463D
libRbt.so/2013.1/901 2013/11/27
 27 28  0  0  0  0  0  0  0  0999 V2000
  -19.7302   57.0138  -20.6088 C   0  0  0  0  0  0  0  0  0  0  0  0
  -21.9958   59.3867  -13.3889 C   0  0  0  0  0  0  0  0  0  0  0  0
  -20.1909   58.5748  -11.1398 C   0  0  0  0  0  0  0  0  0  0  0  0
  -20.8600   59.7482  -10.4216 C   0  0  0  0  0  0  0  0  0  0  0  0
  -21.4055   59.3296   -9.1680 O   0  0  0  0  0  0  0  0  0  0  0  0
  -22.3524   60.3219   -8.3321 P   0  0  1  0  0  0  0  0  0  0  0  0
  -23.3000   58.4460   -6.4508 P   0  0  2  0  0  0  0  0  0  0  0  0
  -17.7145   59.4319  -13.8937 C   0  0  0  0  0  0  0  0  0  0  0  0
  -19.3178   58.9619  -19.1182 N   0  0  0  0  0  0  0  0  0  0  0  0
  -21.7519   61.8070   -8.3058 O   0  5  0  0  0  0  0  0  0  0  0  0
  -23.6332   58.2935   -5.0196 O   0  0  0  0  0  0  0  0  0  0  0  0
  -18.5327   59.8128  -14.9490 C   0  0  0  0  0  0  0  0  0  0  0  0
  -20.0245   57.8473  -19.3612 C   0  0  0  0  0  0  0  0  0  0  0  0
  -23.8449   60.4340   -8.9433 O   0  0  0  0  0  0  0  0  0  0  0  0
  -22.3915   57.2322   -6.9771 O   0  5  0  0  0  0  0  0  0  0  0  0
  -19.9186   59.8019  -14.7848 N   0  0  0  0  0  0  0  0  0  0  0  0
  -20.9904   57.4551  -18.5178 N   0  0  0  0  0  0  0  0  0  0  0  0
  -22.5082   59.7907   -6.8024 O   0  0  0  0  0  0  0  0  0  0  0  0
  -24.6169   58.4091   -7.3498 O   0  0  0  0  0  0  0  0  0  0  0  0
  -20.4708   59.4002  -13.5626 C   0  0  1  0  0  0  0  0  0  0  0  0
  -21.2624   58.1716  -17.4201 C   0  0  0  0  0  0  0  0  0  0  0  0
  -22.2207   57.7718  -16.5905 N   0  0  0  0  0  0  0  0  0  0  0  0
  -19.6486   59.0185  -12.5037 C   0  0  1  0  0  0  0  0  0  0  0  0
  -20.5433   59.3283  -17.1448 C   0  0  0  0  0  0  0  0  0  0  0  0
  -18.2708   59.0379  -12.6829 C   0  0  0  0  0  0  0  0  0  0  0  0
  -19.5524   59.7000  -18.0461 C   0  0  0  0  0  0  0  0  0  0  0  0
  -20.7930   60.2055  -15.9110 C   0  0  0  0  0  0  0  0  0  0  0  0
  1 13  1  0  0  0  0
  3  4  1  0  0  0  0
  4  5  1  0  0  0  0
  6  5  1  6  0  0  0
  6 10  1  0  0  0  0
  6 14  2  0  0  0  0
  6 18  1  0  0  0  0
  7 11  1  1  0  0  0
  7 15  1  0  0  0  0
  7 19  2  0  0  0  0
  7 18  1  0  0  0  0
  8 25  1  0  0  0  0
  8 12  1  0  0  0  0
  9 26  2  0  0  0  0
  9 13  1  0  0  0  0
 12 16  1  0  0  0  0
 13 17  2  0  0  0  0
 16 20  1  0  0  0  0
 16 27  1  0  0  0  0
 17 21  1  0  0  0  0
 20  2  1  1  0  0  0
 20 23  1  0  0  0  0
 21 22  1  0  0  0  0
 21 24  2  0  0  0  0
 23  3  1  1  0  0  0
 23 25  1  0  0  0  0
 24 27  1  0  0  0  0
 24 26  1  0  0  0  0
M  CHG  2  10  -1  15  -1
M  END
>  <CHROM.1>
178.13116284,-170.59176052,-44.08689380,-68.28402157,-165.41575297,-67.30498512
92.29396626,58.03497101,-21.30612783,59.09448576,-12.13640131,1.25814878
-0.56220434,-1.80040626

>  <Name>
ligand

>  <RI>
0

>  <Rbt.Current_Directory>
/home/itssahil/PROJECTS/Mol_Feturizer/New_Systems/rnas/3D2V

>  <Rbt.Executable>
rbdock ($Id: //depot/dev/client3/rdock/2013.1/src/exe/rbdock.cxx#4 $)

>  <Rbt.Library>
libRbt.so (2013.1, Build901 2013/11/27)

>  <Rbt.Parameter_File>
/export/apps/rDock/src/rDock_2013.1_src/data/scripts/dock_solv.prm

>  <Rbt.Receptor>
prm/blind_docking_80.prm

>  <SCORE>
-14.3976

>  <SCORE.INTER>
-14.9178

>  <SCORE.INTER.CONST>
1

>  <SCORE.INTER.POLAR>
0

>  <SCORE.INTER.ROT>
8

>  <SCORE.INTER.SOLV>
21.3406

>  <SCORE.INTER.VDW>
-25.9921

>  <SCORE.INTER.norm>
-0.552512

>  <SCORE.INTRA>
0.511503

>  <SCORE.INTRA.DIHEDRAL>
-1.37633

>  <SCORE.INTRA.DIHEDRAL.0>
7.82666

>  <SCORE.INTRA.POLAR>
0

>  <SCORE.INTRA.POLAR.0>
0

>  <SCORE.INTRA.REPUL>
0

>  <SCORE.INTRA.REPUL.0>
0

>  <SCORE.INTRA.SOLV>
1.7931

>  <SCORE.INTRA.SOLV.lig_0>
-83.2758

>  <SCORE.INTRA.VDW>
0.303121

>  <SCORE.INTRA.VDW.0>
-3.26816

>  <SCORE.INTRA.norm>
0.0189446

>  <SCORE.RESTR>
0.00877809

>  <SCORE.RESTR.CAVITY>
0.00877809

>  <SCORE.RESTR.norm>
0.000325115

>  <SCORE.SYSTEM>
0

>  <SCORE.SYSTEM.CONST>
0

>  <SCORE.SYSTEM.DIHEDRAL>
0

>  <SCORE.SYSTEM.SOLV>
0

>  <SCORE.SYSTEM.norm>
0

>  <SCORE.heavy>
27

>  <SCORE.norm>
-0.533243

>  <RMSD>
25.785

$$$$
ligand
 OpenBabel11021811463D
libRbt.so/2013.1/901 2013/11/27
 27 28  0  0  0  0  0  0  0  0999 V2000
  -17.1892   59.6099  -12.7121 C   0  0  0  0  0  0  0  0  0  0  0  0
  -23.4512   60.6672  -13.1684 C   0  0  0  0  0  0  0  0  0  0  0  0
  -25.3425   59.8454  -10.9952 C   0  0  0  0  0  0  0  0  0  0  0  0
  -24.2810   60.2963   -9.9899 C   0  0  0  0  0  0  0  0  0  0  0  0
  -23.5574   59.1734   -9.4803 O   0  0  0  0  0  0  0  0  0  0  0  0
  -22.4803   59.3771   -8.3063 P   0  0  1  0  0  0  0  0  0  0  0  0
  -24.0868   57.9532   -6.4765 P   0  0  2  0  0  0  0  0  0  0  0  0
  -24.6103   56.5388  -12.7218 C   0  0  0  0  0  0  0  0  0  0  0  0
  -19.5587   58.8686  -12.5595 N   0  0  0  0  0  0  0  0  0  0  0  0
  -21.3010   58.2976   -8.4113 O   0  5  0  0  0  0  0  0  0  0  0  0
  -25.1351   57.6271   -7.4650 O   0  0  0  0  0  0  0  0  0  0  0  0
  -23.7319   56.8978  -13.7356 C   0  0  0  0  0  0  0  0  0  0  0  0
  -18.5672   59.3537  -13.3229 C   0  0  0  0  0  0  0  0  0  0  0  0
  -21.7814   60.8345   -8.3368 O   0  0  0  0  0  0  0  0  0  0  0  0
  -24.7130   58.2472   -5.0283 O   0  5  0  0  0  0  0  0  0  0  0  0
  -23.3535   58.2336  -13.8782 N   0  0  0  0  0  0  0  0  0  0  0  0
  -18.7733   59.6172  -14.6214 N   0  0  0  0  0  0  0  0  0  0  0  0
  -23.1999   59.2296   -6.8547 O   0  0  0  0  0  0  0  0  0  0  0  0
  -23.0975   56.7198   -6.2667 O   0  0  0  0  0  0  0  0  0  0  0  0
  -23.8681   59.1991  -13.0046 C   0  0  1  0  0  0  0  0  0  0  0  0
  -19.9729   59.3991  -15.1742 C   0  0  0  0  0  0  0  0  0  0  0  0
  -20.1646   59.6623  -16.4628 N   0  0  0  0  0  0  0  0  0  0  0  0
  -24.7494   58.8376  -11.9869 C   0  0  2  0  0  0  0  0  0  0  0  0
  -21.0152   58.8951  -14.4056 C   0  0  0  0  0  0  0  0  0  0  0  0
  -25.1136   57.5030  -11.8570 C   0  0  0  0  0  0  0  0  0  0  0  0
  -20.7594   58.6379  -13.0637 C   0  0  0  0  0  0  0  0  0  0  0  0
  -22.4183   58.6185  -14.9612 C   0  0  0  0  0  0  0  0  0  0  0  0
  1 13  1  0  0  0  0
  3  4  1  0  0  0  0
  4  5  1  0  0  0  0
  6  5  1  6  0  0  0
  6 10  1  0  0  0  0
  6 14  2  0  0  0  0
  6 18  1  0  0  0  0
  7 11  1  6  0  0  0
  7 15  1  0  0  0  0
  7 19  2  0  0  0  0
  7 18  1  0  0  0  0
  8 25  1  0  0  0  0
  8 12  1  0  0  0  0
  9 26  2  0  0  0  0
  9 13  1  0  0  0  0
 12 16  1  0  0  0  0
 13 17  2  0  0  0  0
 16 20  1  0  0  0  0
 16 27  1  0  0  0  0
 17 21  1  0  0  0  0
 20  2  1  1  0  0  0
 20 23  1  0  0  0  0
 21 22  1  0  0  0  0
 21 24  2  0  0  0  0
 23  3  1  6  0  0  0
 23 25  1  0  0  0  0
 24 27  1  0  0  0  0
 24 26  1  0  0  0  0
M  CHG  2  10  -1  15  -1
M  END
>  <CHROM.1>
-46.28577593,-174.32491821,-149.79688088,52.79566454,-51.60893071,-73.19636168
-173.55439603,-104.70164174,-22.53843319,58.82613237,-10.77208582,-1.13830361
0.21414913,1.57827827

>  <Name>
ligand

>  <RI>
0

>  <Rbt.Current_Directory>
/home/itssahil/PROJECTS/Mol_Feturizer/New_Systems/rnas/3D2V

>  <Rbt.Executable>
rbdock ($Id: //depot/dev/client3/rdock/2013.1/src/exe/rbdock.cxx#4 $)

>  <Rbt.Library>
libRbt.so (2013.1, Build901 2013/11/27)

>  <Rbt.Parameter_File>
/export/apps/rDock/src/rDock_2013.1_src/data/scripts/dock_solv.prm

>  <Rbt.Receptor>
prm/blind_docking_80.prm

>  <SCORE>
-14.2208

>  <SCORE.INTER>
-12.4194

>  <SCORE.INTER.CONST>
1

>  <SCORE.INTER.POLAR>
0

>  <SCORE.INTER.ROT>
8

>  <SCORE.INTER.SOLV>
18.6652

>  <SCORE.INTER.VDW>
-23.4347

>  <SCORE.INTER.norm>
-0.459978

>  <SCORE.INTRA>
-1.80138

>  <SCORE.INTRA.DIHEDRAL>
-0.402901

>  <SCORE.INTRA.DIHEDRAL.0>
7.82666

>  <SCORE.INTRA.POLAR>
0

>  <SCORE.INTRA.POLAR.0>
0

>  <SCORE.INTRA.REPUL>
0

>  <SCORE.INTRA.REPUL.0>
0

>  <SCORE.INTRA.SOLV>
-2.49796

>  <SCORE.INTRA.SOLV.lig_0>
-83.2758

>  <SCORE.INTRA.VDW>
-0.350953

>  <SCORE.INTRA.VDW.0>
-3.26816

>  <SCORE.INTRA.norm>
-0.0667178

>  <SCORE.RESTR>
0

>  <SCORE.RESTR.CAVITY>
0

>  <SCORE.RESTR.norm>
0

>  <SCORE.SYSTEM>
0

>  <SCORE.SYSTEM.CONST>
0

>  <SCORE.SYSTEM.DIHEDRAL>
0

>  <SCORE.SYSTEM.SOLV>
0

>  <SCORE.SYSTEM.norm>
0

>  <SCORE.heavy>
27

>  <SCORE.norm>
-0.526695

>  <RMSD>
25.845

$$$$
ligand
 OpenBabel11021811463D
libRbt.so/2013.1/901 2013/11/27
 27 28  0  0  0  0  0  0  0  0999 V2000
  -19.4315   59.0434  -18.8306 C   0  0  0  0  0  0  0  0  0  0  0  0
  -20.7734   59.4486  -10.3586 C   0  0  0  0  0  0  0  0  0  0  0  0
  -23.1383   61.1237   -9.5995 C   0  0  0  0  0  0  0  0  0  0  0  0
  -23.8515   60.0172   -8.8200 C   0  0  0  0  0  0  0  0  0  0  0  0
  -22.9370   59.3357   -7.9577 O   0  0  0  0  0  0  0  0  0  0  0  0
  -23.4408   58.0939   -7.0724 P   0  0  1  0  0  0  0  0  0  0  0  0
  -24.7653   55.6289   -7.4276 P   0  0  2  0  0  0  0  0  0  0  0  0
  -23.6094   60.7131  -13.3492 C   0  0  0  0  0  0  0  0  0  0  0  0
  -18.8892   59.5353  -16.4534 N   0  0  0  0  0  0  0  0  0  0  0  0
  -22.2154   57.3853   -6.3217 O   0  5  0  0  0  0  0  0  0  0  0  0
  -23.8531   54.9307   -6.4987 O   0  0  0  0  0  0  0  0  0  0  0  0
  -22.5206   59.9365  -13.7228 C   0  0  0  0  0  0  0  0  0  0  0  0
  -19.7132   58.9425  -17.3312 C   0  0  0  0  0  0  0  0  0  0  0  0
  -24.5015   58.5223   -5.9300 O   0  0  0  0  0  0  0  0  0  0  0  0
  -25.1368   54.7109   -8.6905 O   0  5  0  0  0  0  0  0  0  0  0  0
  -21.6043   59.5238  -12.7543 N   0  0  0  0  0  0  0  0  0  0  0  0
  -20.7858   58.2596  -16.9054 N   0  0  0  0  0  0  0  0  0  0  0  0
  -24.1831   56.9972   -8.0174 O   0  0  0  0  0  0  0  0  0  0  0  0
  -26.1566   55.9583   -6.7206 O   0  0  0  0  0  0  0  0  0  0  0  0
  -21.7863   59.9024  -11.4188 C   0  0  1  0  0  0  0  0  0  0  0  0
  -21.0488   58.1599  -15.5965 C   0  0  0  0  0  0  0  0  0  0  0  0
  -22.1138   57.4788  -15.1863 N   0  0  0  0  0  0  0  0  0  0  0  0
  -22.8799   60.6816  -11.0447 C   0  0  2  0  0  0  0  0  0  0  0  0
  -20.2097   58.7627  -14.6673 C   0  0  0  0  0  0  0  0  0  0  0  0
  -23.7843   61.0816  -12.0209 C   0  0  0  0  0  0  0  0  0  0  0  0
  -19.1104   59.4625  -15.1515 C   0  0  0  0  0  0  0  0  0  0  0  0
  -20.4405   58.6972  -13.1519 C   0  0  0  0  0  0  0  0  0  0  0  0
  1 13  1  0  0  0  0
  3  4  1  0  0  0  0
  4  5  1  0  0  0  0
  6  5  1  6  0  0  0
  6 10  1  0  0  0  0
  6 14  2  0  0  0  0
  6 18  1  0  0  0  0
  7 11  1  1  0  0  0
  7 15  1  0  0  0  0
  7 19  2  0  0  0  0
  7 18  1  0  0  0  0
  8 25  1  0  0  0  0
  8 12  1  0  0  0  0
  9 26  2  0  0  0  0
  9 13  1  0  0  0  0
 12 16  1  0  0  0  0
 13 17  2  0  0  0  0
 16 20  1  0  0  0  0
 16 27  1  0  0  0  0
 17 21  1  0  0  0  0
 20  2  1  1  0  0  0
 20 23  1  0  0  0  0
 21 22  1  0  0  0  0
 21 24  2  0  0  0  0
 23  3  1  6  0  0  0
 23 25  1  0  0  0  0
 24 27  1  0  0  0  0
 24 26  1  0  0  0  0
M  CHG  2  10  -1  15  -1
M  END
>  <CHROM.1>
103.14514970,-177.79206332,173.35337345,178.54931721,-45.14703250,-83.17270556
-71.20797216,16.71579100,-22.55678546,58.35429600,-10.93212634,0.22341538
-1.15715970,-2.65601471

>  <Name>
ligand

>  <RI>
0

>  <Rbt.Current_Directory>
/home/itssahil/PROJECTS/Mol_Feturizer/New_Systems/rnas/3D2V

>  <Rbt.Executable>
rbdock ($Id: //depot/dev/client3/rdock/2013.1/src/exe/rbdock.cxx#4 $)

>  <Rbt.Library>
libRbt.so (2013.1, Build901 2013/11/27)

>  <Rbt.Parameter_File>
/export/apps/rDock/src/rDock_2013.1_src/data/scripts/dock_solv.prm

>  <Rbt.Receptor>
prm/blind_docking_80.prm

>  <SCORE>
-4.43297

>  <SCORE.INTER>
-6.02306

>  <SCORE.INTER.CONST>
1

>  <SCORE.INTER.POLAR>
0

>  <SCORE.INTER.ROT>
8

>  <SCORE.INTER.SOLV>
20.4785

>  <SCORE.INTER.VDW>
-19.7749

>  <SCORE.INTER.norm>
-0.223076

>  <SCORE.INTRA>
1.59009

>  <SCORE.INTRA.DIHEDRAL>
2.3212

>  <SCORE.INTRA.DIHEDRAL.0>
7.82666

>  <SCORE.INTRA.POLAR>
0

>  <SCORE.INTRA.POLAR.0>
0

>  <SCORE.INTRA.REPUL>
0

>  <SCORE.INTRA.REPUL.0>
0

>  <SCORE.INTRA.SOLV>
0.400865

>  <SCORE.INTRA.SOLV.lig_0>
-83.2758

>  <SCORE.INTRA.VDW>
0.229055

>  <SCORE.INTRA.VDW.0>
-3.26816

>  <SCORE.INTRA.norm>
0.0588922

>  <SCORE.RESTR>
0

>  <SCORE.RESTR.CAVITY>
0

>  <SCORE.RESTR.norm>
0

>  <SCORE.SYSTEM>
0

>  <SCORE.SYSTEM.CONST>
0

>  <SCORE.SYSTEM.DIHEDRAL>
0

>  <SCORE.SYSTEM.SOLV>
0

>  <SCORE.SYSTEM.norm>
0

>  <SCORE.heavy>
27

>  <SCORE.norm>
-0.164184

>  <RMSD>
25.931

$$$$
ligand
 OpenBabel11021811463D
libRbt.so/2013.1/901 2013/11/27
 27 28  0  0  0  0  0  0  0  0999 V2000
  -20.3489   56.9229  -18.6024 C   0  0  0  0  0  0  0  0  0  0  0  0
  -24.2576   60.8569  -12.3918 C   0  0  0  0  0  0  0  0  0  0  0  0
  -24.6639   59.1837   -9.9402 C   0  0  0  0  0  0  0  0  0  0  0  0
  -24.2043   58.1924   -8.8693 C   0  0  0  0  0  0  0  0  0  0  0  0
  -24.5517   58.6607   -7.5638 O   0  0  0  0  0  0  0  0  0  0  0  0
  -24.2216   57.7625   -6.2737 P   0  0  1  0  0  0  0  0  0  0  0  0
  -22.0106   56.4366   -5.1293 P   0  0  2  0  0  0  0  0  0  0  0  0
  -24.4773   56.5614  -12.6860 C   0  0  0  0  0  0  0  0  0  0  0  0
  -22.6301   57.4506  -17.7627 N   0  0  0  0  0  0  0  0  0  0  0  0
  -24.6673   58.5039   -4.9250 O   0  5  0  0  0  0  0  0  0  0  0  0
  -22.2520   56.8170   -3.7223 O   0  0  0  0  0  0  0  0  0  0  0  0
  -24.2879   57.3178  -13.8350 C   0  0  0  0  0  0  0  0  0  0  0  0
  -21.3049   57.6161  -17.6310 C   0  0  0  0  0  0  0  0  0  0  0  0
  -24.9762   56.3329   -6.2902 O   0  0  0  0  0  0  0  0  0  0  0  0
  -20.4417   56.3320   -5.4509 O   0  5  0  0  0  0  0  0  0  0  0  0
  -24.2129   58.7082  -13.7397 N   0  0  0  0  0  0  0  0  0  0  0  0
  -20.8080   58.3863  -16.6523 N   0  0  0  0  0  0  0  0  0  0  0  0
  -22.6263   57.4527   -6.2005 O   0  0  0  0  0  0  0  0  0  0  0  0
  -22.6029   54.9883   -5.4381 O   0  0  0  0  0  0  0  0  0  0  0  0
  -24.3372   59.3272  -12.4901 C   0  0  1  0  0  0  0  0  0  0  0  0
  -21.6291   59.0017  -15.7925 C   0  0  0  0  0  0  0  0  0  0  0  0
  -21.1250   59.7641  -14.8276 N   0  0  0  0  0  0  0  0  0  0  0  0
  -24.5268   58.5669  -11.3372 C   0  0  2  0  0  0  0  0  0  0  0  0
  -23.0053   58.8482  -15.9090 C   0  0  0  0  0  0  0  0  0  0  0  0
  -24.5963   57.1837  -11.4493 C   0  0  0  0  0  0  0  0  0  0  0  0
  -23.4781   58.0395  -16.9361 C   0  0  0  0  0  0  0  0  0  0  0  0
  -24.0134   59.5168  -14.9653 C   0  0  0  0  0  0  0  0  0  0  0  0
  1 13  1  0  0  0  0
  3  4  1  0  0  0  0
  4  5  1  0  0  0  0
  6  5  1  6  0  0  0
  6 10  1  0  0  0  0
  6 14  2  0  0  0  0
  6 18  1  0  0  0  0
  7 11  1  1  0  0  0
  7 15  1  0  0  0  0
  7 19  2  0  0  0  0
  7 18  1  0  0  0  0
  8 25  1  0  0  0  0
  8 12  1  0  0  0  0
  9 26  2  0  0  0  0
  9 13  1  0  0  0  0
 12 16  1  0  0  0  0
 13 17  2  0  0  0  0
 16 20  1  0  0  0  0
 16 27  1  0  0  0  0
 17 21  1  0  0  0  0
 20  2  1  1  0  0  0
 20 23  1  0  0  0  0
 21 22  1  0  0  0  0
 21 24  2  0  0  0  0
 23  3  1  6  0  0  0
 23 25  1  0  0  0  0
 24 27  1  0  0  0  0
 24 26  1  0  0  0  0
M  CHG  2  10  -1  15  -1
M  END
>  <CHROM.1>
-169.53457475,177.70564077,178.60817205,-172.48396142,-60.26467707,-153.16866992
-84.56444494,-40.31319163,-23.16864410,57.85095057,-10.59612316,-1.49301750
-0.55534474,1.73218576

>  <Name>
ligand

>  <RI>
0

>  <Rbt.Current_Directory>
/home/itssahil/PROJECTS/Mol_Feturizer/New_Systems/rnas/3D2V

>  <Rbt.Executable>
rbdock ($Id: //depot/dev/client3/rdock/2013.1/src/exe/rbdock.cxx#4 $)

>  <Rbt.Library>
libRbt.so (2013.1, Build901 2013/11/27)

>  <Rbt.Parameter_File>
/export/apps/rDock/src/rDock_2013.1_src/data/scripts/dock_solv.prm

>  <Rbt.Receptor>
prm/blind_docking_100.prm

>  <SCORE>
-12.5204

>  <SCORE.INTER>
-12.7827

>  <SCORE.INTER.CONST>
1

>  <SCORE.INTER.POLAR>
0

>  <SCORE.INTER.ROT>
8

>  <SCORE.INTER.SOLV>
18.7519

>  <SCORE.INTER.VDW>
-23.7057

>  <SCORE.INTER.norm>
-0.473431

>  <SCORE.INTRA>
0.262242

>  <SCORE.INTRA.DIHEDRAL>
-2.13478

>  <SCORE.INTRA.DIHEDRAL.0>
7.82666

>  <SCORE.INTRA.POLAR>
0

>  <SCORE.INTRA.POLAR.0>
0

>  <SCORE.INTRA.REPUL>
0

>  <SCORE.INTRA.REPUL.0>
0

>  <SCORE.INTRA.SOLV>
0.229353

>  <SCORE.INTRA.SOLV.lig_0>
-83.2758

>  <SCORE.INTRA.VDW>
1.21496

>  <SCORE.INTRA.VDW.0>
-3.26816

>  <SCORE.INTRA.norm>
0.00971267

>  <SCORE.RESTR>
0

>  <SCORE.RESTR.CAVITY>
0

>  <SCORE.RESTR.norm>
0

>  <SCORE.SYSTEM>
0

>  <SCORE.SYSTEM.CONST>
0

>  <SCORE.SYSTEM.DIHEDRAL>
0

>  <SCORE.SYSTEM.SOLV>
0

>  <SCORE.SYSTEM.norm>
0

>  <SCORE.heavy>
27

>  <SCORE.norm>
-0.463719

>  <RMSD>
25.981

$$$$
ligand
 OpenBabel11021811463D
libRbt.so/2013.1/901 2013/11/27
 27 28  0  0  0  0  0  0  0  0999 V2000
  -20.7406   57.3730  -18.5505 C   0  0  0  0  0  0  0  0  0  0  0  0
  -24.1663   60.8546  -11.4634 C   0  0  0  0  0  0  0  0  0  0  0  0
  -22.1399   61.3928   -9.3235 C   0  0  0  0  0  0  0  0  0  0  0  0
  -22.3700   60.4835   -8.1148 C   0  0  0  0  0  0  0  0  0  0  0  0
  -23.5641   59.7146   -8.2801 O   0  0  0  0  0  0  0  0  0  0  0  0
  -23.4706   58.1384   -8.5747 P   0  0  1  0  0  0  0  0  0  0  0  0
  -23.7018   57.2775   -5.8986 P   0  0  2  0  0  0  0  0  0  0  0  0
  -20.1654   59.2830  -11.7935 C   0  0  0  0  0  0  0  0  0  0  0  0
  -21.7519   57.0337  -16.3034 N   0  0  0  0  0  0  0  0  0  0  0  0
  -24.9089   57.5328   -8.9374 O   0  5  0  0  0  0  0  0  0  0  0  0
  -25.1375   56.9701   -6.0623 O   0  0  0  0  0  0  0  0  0  0  0  0
  -21.0888   59.0220  -12.7972 C   0  0  0  0  0  0  0  0  0  0  0  0
  -21.4359   57.8873  -17.2896 C   0  0  0  0  0  0  0  0  0  0  0  0
  -22.4912   57.7845   -9.8113 O   0  0  0  0  0  0  0  0  0  0  0  0
  -23.4808   58.6818   -5.1538 O   0  5  0  0  0  0  0  0  0  0  0  0
  -22.3830   59.5337  -12.6925 N   0  0  0  0  0  0  0  0  0  0  0  0
  -21.7246   59.1922  -17.1803 N   0  0  0  0  0  0  0  0  0  0  0  0
  -22.8856   57.3592   -7.2720 O   0  0  0  0  0  0  0  0  0  0  0  0
  -22.9880   56.1916   -4.9738 O   0  0  0  0  0  0  0  0  0  0  0  0
  -22.7404   60.2974  -11.5749 C   0  0  1  0  0  0  0  0  0  0  0  0
  -22.3334   59.6611  -16.0840 C   0  0  0  0  0  0  0  0  0  0  0  0
  -22.6163   60.9562  -15.9880 N   0  0  0  0  0  0  0  0  0  0  0  0
  -21.8126   60.5592  -10.5681 C   0  0  1  0  0  0  0  0  0  0  0  0
  -22.6731   58.7973  -15.0499 C   0  0  0  0  0  0  0  0  0  0  0  0
  -20.5275   60.0447  -10.6892 C   0  0  0  0  0  0  0  0  0  0  0  0
  -22.3538   57.4530  -15.2030 C   0  0  0  0  0  0  0  0  0  0  0  0
  -23.3702   59.2538  -13.7616 C   0  0  0  0  0  0  0  0  0  0  0  0
  1 13  1  0  0  0  0
  3  4  1  0  0  0  0
  4  5  1  0  0  0  0
  6  5  1  1  0  0  0
  6 10  1  0  0  0  0
  6 14  2  0  0  0  0
  6 18  1  0  0  0  0
  7 11  1  6  0  0  0
  7 15  1  0  0  0  0
  7 19  2  0  0  0  0
  7 18  1  0  0  0  0
  8 25  1  0  0  0  0
  8 12  1  0  0  0  0
  9 26  2  0  0  0  0
  9 13  1  0  0  0  0
 12 16  1  0  0  0  0
 13 17  2  0  0  0  0
 16 20  1  0  0  0  0
 16 27  1  0  0  0  0
 17 21  1  0  0  0  0
 20  2  1  6  0  0  0
 20 23  1  0  0  0  0
 21 22  1  0  0  0  0
 21 24  2  0  0  0  0
 23  3  1  6  0  0  0
 23 25  1  0  0  0  0
 24 27  1  0  0  0  0
 24 26  1  0  0  0  0
M  CHG  2  10  -1  15  -1
M  END
>  <CHROM.1>
-67.73612219,108.17073054,-171.54033043,66.41751916,44.07641305,102.32410703
-94.31497485,-18.10440160,-22.71611361,58.69572036,-10.89571961,0.62838135
-1.34780413,-2.40891149

>  <Name>
ligand

>  <RI>
0

>  <Rbt.Current_Directory>
/home/itssahil/PROJECTS/Mol_Feturizer/New_Systems/rnas/3D2V

>  <Rbt.Executable>
rbdock ($Id: //depot/dev/client3/rdock/2013.1/src/exe/rbdock.cxx#4 $)

>  <Rbt.Library>
libRbt.so (2013.1, Build901 2013/11/27)

>  <Rbt.Parameter_File>
/export/apps/rDock/src/rDock_2013.1_src/data/scripts/dock_solv.prm

>  <Rbt.Receptor>
prm/blind_docking_80.prm

>  <SCORE>
-8.05143

>  <SCORE.INTER>
-9.75058

>  <SCORE.INTER.CONST>
1

>  <SCORE.INTER.POLAR>
0

>  <SCORE.INTER.ROT>
8

>  <SCORE.INTER.SOLV>
14.744

>  <SCORE.INTER.VDW>
-20.3484

>  <SCORE.INTER.norm>
-0.361133

>  <SCORE.INTRA>
1.69915

>  <SCORE.INTRA.DIHEDRAL>
4.65591

>  <SCORE.INTRA.DIHEDRAL.0>
7.82666

>  <SCORE.INTRA.POLAR>
0

>  <SCORE.INTRA.POLAR.0>
0

>  <SCORE.INTRA.REPUL>
0

>  <SCORE.INTRA.REPUL.0>
0

>  <SCORE.INTRA.SOLV>
2.07818

>  <SCORE.INTRA.SOLV.lig_0>
-83.2758

>  <SCORE.INTRA.VDW>
-1.6679

>  <SCORE.INTRA.VDW.0>
-3.26816

>  <SCORE.INTRA.norm>
0.0629316

>  <SCORE.RESTR>
0

>  <SCORE.RESTR.CAVITY>
0

>  <SCORE.RESTR.norm>
0

>  <SCORE.SYSTEM>
0

>  <SCORE.SYSTEM.CONST>
0

>  <SCORE.SYSTEM.DIHEDRAL>
0

>  <SCORE.SYSTEM.SOLV>
0

>  <SCORE.SYSTEM.norm>
0

>  <SCORE.heavy>
27

>  <SCORE.norm>
-0.298201

>  <RMSD>
26.013

$$$$
ligand
 OpenBabel11021811463D
libRbt.so/2013.1/901 2013/11/27
 27 28  0  0  0  0  0  0  0  0999 V2000
  -27.5151   61.6632  -15.0095 C   0  0  0  0  0  0  0  0  0  0  0  0
  -20.6907   59.0472  -13.4379 C   0  0  0  0  0  0  0  0  0  0  0  0
  -20.2433   57.9827  -10.6734 C   0  0  0  0  0  0  0  0  0  0  0  0
  -20.6569   59.1427   -9.7658 C   0  0  0  0  0  0  0  0  0  0  0  0
  -21.6415   58.7187   -8.8196 O   0  0  0  0  0  0  0  0  0  0  0  0
  -22.4199   59.8049   -7.9285 P   0  0  1  0  0  0  0  0  0  0  0  0
  -24.1554   57.8387   -6.8899 P   0  0  2  0  0  0  0  0  0  0  0  0
  -23.3951   56.1475  -11.7456 C   0  0  0  0  0  0  0  0  0  0  0  0
  -26.4851   59.4016  -14.9039 N   0  0  0  0  0  0  0  0  0  0  0  0
  -21.4122   60.9118   -7.3572 O   0  5  0  0  0  0  0  0  0  0  0  0
  -25.2094   58.0714   -7.8985 O   0  0  0  0  0  0  0  0  0  0  0  0
  -23.6207   56.6273  -13.0289 C   0  0  0  0  0  0  0  0  0  0  0  0
  -26.3053   60.7284  -14.9948 C   0  0  0  0  0  0  0  0  0  0  0  0
  -23.5621   60.5970   -8.7541 O   0  0  0  0  0  0  0  0  0  0  0  0
  -24.7807   57.5061   -5.4497 O   0  5  0  0  0  0  0  0  0  0  0  0
  -22.7434   57.5632  -13.5786 N   0  0  0  0  0  0  0  0  0  0  0  0
  -25.0705   61.2452  -15.0732 N   0  0  0  0  0  0  0  0  0  0  0  0
  -23.1624   59.0750   -6.6785 O   0  0  0  0  0  0  0  0  0  0  0  0
  -23.2721   56.5666   -7.2713 O   0  0  0  0  0  0  0  0  0  0  0  0
  -21.6503   58.0152  -12.8296 C   0  0  1  0  0  0  0  0  0  0  0  0
  -23.9990   60.4428  -15.0614 C   0  0  0  0  0  0  0  0  0  0  0  0
  -22.7799   60.9668  -15.1377 N   0  0  0  0  0  0  0  0  0  0  0  0
  -21.4243   57.5325  -11.5415 C   0  0  2  0  0  0  0  0  0  0  0  0
  -24.1583   59.0657  -14.9657 C   0  0  0  0  0  0  0  0  0  0  0  0
  -22.3058   56.5989  -11.0104 C   0  0  0  0  0  0  0  0  0  0  0  0
  -25.4554   58.5717  -14.8886 C   0  0  0  0  0  0  0  0  0  0  0  0
  -22.9844   58.0780  -14.9470 C   0  0  0  0  0  0  0  0  0  0  0  0
  1 13  1  0  0  0  0
  3  4  1  0  0  0  0
  4  5  1  0  0  0  0
  6  5  1  6  0  0  0
  6 10  1  0  0  0  0
  6 14  2  0  0  0  0
  6 18  1  0  0  0  0
  7 11  1  6  0  0  0
  7 15  1  0  0  0  0
  7 19  2  0  0  0  0
  7 18  1  0  0  0  0
  8 25  1  0  0  0  0
  8 12  1  0  0  0  0
  9 26  2  0  0  0  0
  9 13  1  0  0  0  0
 12 16  1  0  0  0  0
 13 17  2  0  0  0  0
 16 20  1  0  0  0  0
 16 27  1  0  0  0  0
 17 21  1  0  0  0  0
 20  2  1  6  0  0  0
 20 23  1  0  0  0  0
 21 22  1  0  0  0  0
 21 24  2  0  0  0  0
 23  3  1  1  0  0  0
 23 25  1  0  0  0  0
 24 27  1  0  0  0  0
 24 26  1  0  0  0  0
M  CHG  2  10  -1  15  -1
M  END
>  <CHROM.1>
65.24989473,-169.35572638,-43.87876637,-53.24664073,-50.99285535,93.69208199
104.21423641,74.10292657,-23.35796284,58.84601732,-10.92800624,1.77147973
0.36303433,-1.48260476

>  <Name>
ligand

>  <RI>
0

>  <Rbt.Current_Directory>
/home/itssahil/PROJECTS/Mol_Feturizer/New_Systems/rnas/3D2V

>  <Rbt.Executable>
rbdock ($Id: //depot/dev/client3/rdock/2013.1/src/exe/rbdock.cxx#4 $)

>  <Rbt.Library>
libRbt.so (2013.1, Build901 2013/11/27)

>  <Rbt.Parameter_File>
/export/apps/rDock/src/rDock_2013.1_src/data/scripts/dock_solv.prm

>  <Rbt.Receptor>
prm/blind_docking_80.prm

>  <SCORE>
-14.2414

>  <SCORE.INTER>
-12.3915

>  <SCORE.INTER.CONST>
1

>  <SCORE.INTER.POLAR>
0

>  <SCORE.INTER.ROT>
8

>  <SCORE.INTER.SOLV>
19.1563

>  <SCORE.INTER.VDW>
-23.5798

>  <SCORE.INTER.norm>
-0.458944

>  <SCORE.INTRA>
-1.84989

>  <SCORE.INTRA.DIHEDRAL>
-1.39554

>  <SCORE.INTRA.DIHEDRAL.0>
7.82666

>  <SCORE.INTRA.POLAR>
0

>  <SCORE.INTRA.POLAR.0>
0

>  <SCORE.INTRA.REPUL>
0

>  <SCORE.INTRA.REPUL.0>
0

>  <SCORE.INTRA.SOLV>
-0.37093

>  <SCORE.INTRA.SOLV.lig_0>
-83.2758

>  <SCORE.INTRA.VDW>
-0.966651

>  <SCORE.INTRA.VDW.0>
-3.26816

>  <SCORE.INTRA.norm>
-0.0685143

>  <SCORE.RESTR>
0

>  <SCORE.RESTR.CAVITY>
0

>  <SCORE.RESTR.norm>
0

>  <SCORE.SYSTEM>
0

>  <SCORE.SYSTEM.CONST>
0

>  <SCORE.SYSTEM.DIHEDRAL>
0

>  <SCORE.SYSTEM.SOLV>
0

>  <SCORE.SYSTEM.norm>
0

>  <SCORE.heavy>
27

>  <SCORE.norm>
-0.527458

>  <RMSD>
26.236

$$$$
ligand
 OpenBabel11021811463D
libRbt.so/2013.1/901 2013/11/27
 27 28  0  0  0  0  0  0  0  0999 V2000
  -20.5873   57.0175  -17.2408 C   0  0  0  0  0  0  0  0  0  0  0  0
  -24.6955   56.5717  -12.8974 C   0  0  0  0  0  0  0  0  0  0  0  0
  -24.2435   56.9750   -9.9634 C   0  0  0  0  0  0  0  0  0  0  0  0
  -25.1925   56.9621   -8.7635 C   0  0  0  0  0  0  0  0  0  0  0  0
  -24.8784   58.0235   -7.8585 O   0  0  0  0  0  0  0  0  0  0  0  0
  -23.9200   57.7486   -6.5992 P   0  0  1  0  0  0  0  0  0  0  0  0
  -22.2497   59.9011   -7.3295 P   0  0  2  0  0  0  0  0  0  0  0  0
  -24.9900   60.5056  -11.1586 C   0  0  0  0  0  0  0  0  0  0  0  0
  -22.9629   56.7996  -16.5363 N   0  0  0  0  0  0  0  0  0  0  0  0
  -24.7674   57.2964   -5.3168 O   0  5  0  0  0  0  0  0  0  0  0  0
  -23.0612   60.4073   -8.4555 O   0  0  0  0  0  0  0  0  0  0  0  0
  -25.2039   60.3411  -12.5207 C   0  0  0  0  0  0  0  0  0  0  0  0
  -21.8355   57.5274  -16.5198 C   0  0  0  0  0  0  0  0  0  0  0  0
  -22.8346   56.5826   -6.8748 O   0  0  0  0  0  0  0  0  0  0  0  0
  -21.0895   58.9146   -7.8358 O   0  5  0  0  0  0  0  0  0  0  0  0
  -25.1124   59.0672  -13.0833 N   0  0  0  0  0  0  0  0  0  0  0  0
  -21.7918   58.7022  -15.8749 N   0  0  0  0  0  0  0  0  0  0  0  0
  -23.0832   59.0936   -6.2285 O   0  0  0  0  0  0  0  0  0  0  0  0
  -21.4957   61.0951   -6.5881 O   0  0  0  0  0  0  0  0  0  0  0  0
  -24.7983   57.9699  -12.2725 C   0  0  1  0  0  0  0  0  0  0  0  0
  -22.8746   59.1654  -15.2382 C   0  0  0  0  0  0  0  0  0  0  0  0
  -22.8198   60.3321  -14.6040 N   0  0  0  0  0  0  0  0  0  0  0  0
  -24.5843   58.1360  -10.9052 C   0  0  2  0  0  0  0  0  0  0  0  0
  -24.0548   58.4318  -15.2424 C   0  0  0  0  0  0  0  0  0  0  0  0
  -24.6821   59.4106  -10.3605 C   0  0  0  0  0  0  0  0  0  0  0  0
  -24.0561   57.2186  -15.9210 C   0  0  0  0  0  0  0  0  0  0  0  0
  -25.3379   58.8905  -14.5372 C   0  0  0  0  0  0  0  0  0  0  0  0
  1 13  1  0  0  0  0
  3  4  1  0  0  0  0
  4  5  1  0  0  0  0
  6  5  1  6  0  0  0
  6 10  1  0  0  0  0
  6 14  2  0  0  0  0
  6 18  1  0  0  0  0
  7 11  1  6  0  0  0
  7 15  1  0  0  0  0
  7 19  2  0  0  0  0
  7 18  1  0  0  0  0
  8 25  1  0  0  0  0
  8 12  1  0  0  0  0
  9 26  2  0  0  0  0
  9 13  1  0  0  0  0
 12 16  1  0  0  0  0
 13 17  2  0  0  0  0
 16 20  1  0  0  0  0
 16 27  1  0  0  0  0
 17 21  1  0  0  0  0
 20  2  1  1  0  0  0
 20 23  1  0  0  0  0
 21 22  1  0  0  0  0
 21 24  2  0  0  0  0
 23  3  1  6  0  0  0
 23 25  1  0  0  0  0
 24 27  1  0  0  0  0
 24 26  1  0  0  0  0
M  CHG  2  10  -1  15  -1
M  END
>  <CHROM.1>
-73.52192025,-94.89865898,-90.04851180,-51.43194020,59.70739175,-127.87987152
-59.67614521,114.41991164,-23.51072041,58.50266396,-10.78056633,-1.53898106
0.67589161,1.48951766

>  <Name>
ligand

>  <RI>
0

>  <Rbt.Current_Directory>
/home/itssahil/PROJECTS/Mol_Feturizer/New_Systems/rnas/3D2V

>  <Rbt.Executable>
rbdock ($Id: //depot/dev/client3/rdock/2013.1/src/exe/rbdock.cxx#4 $)

>  <Rbt.Library>
libRbt.so (2013.1, Build901 2013/11/27)

>  <Rbt.Parameter_File>
/export/apps/rDock/src/rDock_2013.1_src/data/scripts/dock_solv.prm

>  <Rbt.Receptor>
prm/blind_docking_80.prm

>  <SCORE>
-11.2789

>  <SCORE.INTER>
-13.2605

>  <SCORE.INTER.CONST>
1

>  <SCORE.INTER.POLAR>
0

>  <SCORE.INTER.ROT>
8

>  <SCORE.INTER.SOLV>
22.2033

>  <SCORE.INTER.VDW>
-25.1748

>  <SCORE.INTER.norm>
-0.491129

>  <SCORE.INTRA>
1.98162

>  <SCORE.INTRA.DIHEDRAL>
3.87395

>  <SCORE.INTRA.DIHEDRAL.0>
7.82666

>  <SCORE.INTRA.POLAR>
0

>  <SCORE.INTRA.POLAR.0>
0

>  <SCORE.INTRA.REPUL>
0

>  <SCORE.INTRA.REPUL.0>
0

>  <SCORE.INTRA.SOLV>
0.887848

>  <SCORE.INTRA.SOLV.lig_0>
-83.2758

>  <SCORE.INTRA.VDW>
-0.399276

>  <SCORE.INTRA.VDW.0>
-3.26816

>  <SCORE.INTRA.norm>
0.0733935

>  <SCORE.RESTR>
0

>  <SCORE.RESTR.CAVITY>
0

>  <SCORE.RESTR.norm>
0

>  <SCORE.SYSTEM>
0

>  <SCORE.SYSTEM.CONST>
0

>  <SCORE.SYSTEM.DIHEDRAL>
0

>  <SCORE.SYSTEM.SOLV>
0

>  <SCORE.SYSTEM.norm>
0

>  <SCORE.heavy>
27

>  <SCORE.norm>
-0.417735

>  <RMSD>
26.254

$$$$
ligand
 OpenBabel11021811463D
libRbt.so/2013.1/901 2013/11/27
 27 28  0  0  0  0  0  0  0  0999 V2000
  -24.7756   57.1022   -5.9956 C   0  0  0  0  0  0  0  0  0  0  0  0
  -23.3298   59.3695  -11.7031 C   0  0  0  0  0  0  0  0  0  0  0  0
  -25.3475   60.8110  -13.3841 C   0  0  0  0  0  0  0  0  0  0  0  0
  -24.5123   60.9359  -14.6598 C   0  0  0  0  0  0  0  0  0  0  0  0
  -23.3255   60.1439  -14.5671 O   0  0  0  0  0  0  0  0  0  0  0  0
  -22.4171   59.9021  -15.8695 P   0  0  1  0  0  0  0  0  0  0  0  0
  -23.6774   57.4573  -16.4950 P   0  0  2  0  0  0  0  0  0  0  0  0
  -24.3336   63.4792  -10.8733 C   0  0  0  0  0  0  0  0  0  0  0  0
  -24.7387   58.8286   -7.7859 N   0  0  0  0  0  0  0  0  0  0  0  0
  -22.0854   61.2854  -16.6068 O   0  5  0  0  0  0  0  0  0  0  0  0
  -24.2927   56.6847  -17.5936 O   0  0  0  0  0  0  0  0  0  0  0  0
  -23.3952   62.8302  -10.0820 C   0  0  0  0  0  0  0  0  0  0  0  0
  -24.0435   58.0779   -6.9175 C   0  0  0  0  0  0  0  0  0  0  0  0
  -20.9990   59.2043  -15.5291 O   0  0  0  0  0  0  0  0  0  0  0  0
  -24.6952   57.6526  -15.2695 O   0  5  0  0  0  0  0  0  0  0  0  0
  -23.0671   61.5009  -10.3526 N   0  0  0  0  0  0  0  0  0  0  0  0
  -22.7079   58.1748   -6.8494 N   0  0  0  0  0  0  0  0  0  0  0  0
  -23.1865   58.9210  -16.9144 O   0  0  0  0  0  0  0  0  0  0  0  0
  -22.4246   56.6817  -15.8845 O   0  0  0  0  0  0  0  0  0  0  0  0
  -23.6918   60.8325  -11.4123 C   0  0  1  0  0  0  0  0  0  0  0  0
  -22.0493   59.0231   -7.6487 C   0  0  0  0  0  0  0  0  0  0  0  0
  -20.7251   59.1091   -7.5734 N   0  0  0  0  0  0  0  0  0  0  0  0
  -24.6334   61.4850  -12.2065 C   0  0  2  0  0  0  0  0  0  0  0  0
  -22.7458   59.8098   -8.5580 C   0  0  0  0  0  0  0  0  0  0  0  0
  -24.9464   62.8094  -11.9253 C   0  0  0  0  0  0  0  0  0  0  0  0
  -24.1294   59.6796   -8.5944 C   0  0  0  0  0  0  0  0  0  0  0  0
  -22.0678   60.8063   -9.5073 C   0  0  0  0  0  0  0  0  0  0  0  0
  1 13  1  0  0  0  0
  3  4  1  0  0  0  0
  4  5  1  0  0  0  0
  6  5  1  1  0  0  0
  6 10  1  0  0  0  0
  6 14  2  0  0  0  0
  6 18  1  0  0  0  0
  7 11  1  6  0  0  0
  7 15  1  0  0  0  0
  7 19  2  0  0  0  0
  7 18  1  0  0  0  0
  8 25  1  0  0  0  0
  8 12  1  0  0  0  0
  9 26  2  0  0  0  0
  9 13  1  0  0  0  0
 12 16  1  0  0  0  0
 13 17  2  0  0  0  0
 16 20  1  0  0  0  0
 16 27  1  0  0  0  0
 17 21  1  0  0  0  0
 20  2  1  6  0  0  0
 20 23  1  0  0  0  0
 21 22  1  0  0  0  0
 21 24  2  0  0  0  0
 23  3  1  1  0  0  0
 23 25  1  0  0  0  0
 24 27  1  0  0  0  0
 24 26  1  0  0  0  0
M  CHG  2  10  -1  15  -1
M  END
>  <CHROM.1>
68.79789467,169.22265000,50.25404302,-57.33267132,-176.92536700,-86.57156583
-179.78171069,105.52435066,-23.36278892,59.54446542,-12.45362206,-1.92422464
1.52545314,-1.30137612

>  <Name>
ligand

>  <RI>
0

>  <Rbt.Current_Directory>
/home/itssahil/PROJECTS/Mol_Feturizer/New_Systems/rnas/3D2V

>  <Rbt.Executable>
rbdock ($Id: //depot/dev/client3/rdock/2013.1/src/exe/rbdock.cxx#4 $)

>  <Rbt.Library>
libRbt.so (2013.1, Build901 2013/11/27)

>  <Rbt.Parameter_File>
/export/apps/rDock/src/rDock_2013.1_src/data/scripts/dock_solv.prm

>  <Rbt.Receptor>
prm/blind_docking_100.prm

>  <SCORE>
-14.3017

>  <SCORE.INTER>
-13.8134

>  <SCORE.INTER.CONST>
1

>  <SCORE.INTER.POLAR>
0

>  <SCORE.INTER.ROT>
8

>  <SCORE.INTER.SOLV>
17.8332

>  <SCORE.INTER.VDW>
-24.0867

>  <SCORE.INTER.norm>
-0.511608

>  <SCORE.INTRA>
-0.488293

>  <SCORE.INTRA.DIHEDRAL>
-1.61815

>  <SCORE.INTRA.DIHEDRAL.0>
7.82666

>  <SCORE.INTRA.POLAR>
0

>  <SCORE.INTRA.POLAR.0>
0

>  <SCORE.INTRA.REPUL>
0

>  <SCORE.INTRA.REPUL.0>
0

>  <SCORE.INTRA.SOLV>
1.3633

>  <SCORE.INTRA.SOLV.lig_0>
-83.2758

>  <SCORE.INTRA.VDW>
-0.360867

>  <SCORE.INTRA.VDW.0>
-3.26816

>  <SCORE.INTRA.norm>
-0.0180849

>  <SCORE.RESTR>
0

>  <SCORE.RESTR.CAVITY>
0

>  <SCORE.RESTR.norm>
0

>  <SCORE.SYSTEM>
0

>  <SCORE.SYSTEM.CONST>
0

>  <SCORE.SYSTEM.DIHEDRAL>
0

>  <SCORE.SYSTEM.SOLV>
0

>  <SCORE.SYSTEM.norm>
0

>  <SCORE.heavy>
27

>  <SCORE.norm>
-0.529692

>  <RMSD>
26.417

$$$$
ligand
 OpenBabel11021811463D
libRbt.so/2013.1/901 2013/11/27
 27 28  0  0  0  0  0  0  0  0999 V2000
  -20.6325   57.0777  -16.8418 C   0  0  0  0  0  0  0  0  0  0  0  0
  -24.8633   57.8534  -12.0370 C   0  0  0  0  0  0  0  0  0  0  0  0
  -24.3463   59.5756   -9.6408 C   0  0  0  0  0  0  0  0  0  0  0  0
  -23.0657   60.2112   -9.0960 C   0  0  0  0  0  0  0  0  0  0  0  0
  -22.6512   59.5617   -7.8916 O   0  0  0  0  0  0  0  0  0  0  0  0
  -22.1117   58.0495   -7.9388 P   0  0  1  0  0  0  0  0  0  0  0  0
  -23.0535   57.3342   -5.3779 P   0  0  2  0  0  0  0  0  0  0  0  0
  -25.0910   62.1480  -12.3387 C   0  0  0  0  0  0  0  0  0  0  0  0
  -22.8829   56.8075  -15.8170 N   0  0  0  0  0  0  0  0  0  0  0  0
  -23.1597   57.0855   -8.6733 O   0  5  0  0  0  0  0  0  0  0  0  0
  -23.7697   58.5894   -5.0715 O   0  0  0  0  0  0  0  0  0  0  0  0
  -25.3350   61.3686  -13.4618 C   0  0  0  0  0  0  0  0  0  0  0  0
  -21.9203   57.6413  -16.2404 C   0  0  0  0  0  0  0  0  0  0  0  0
  -20.7103   57.9038   -8.7315 O   0  0  0  0  0  0  0  0  0  0  0  0
  -22.4120   56.6841   -4.0582 O   0  5  0  0  0  0  0  0  0  0  0  0
  -25.2650   59.9782  -13.3636 N   0  0  0  0  0  0  0  0  0  0  0  0
  -22.0767   58.9694  -16.1413 N   0  0  0  0  0  0  0  0  0  0  0  0
  -21.8589   57.4980   -6.4293 O   0  0  0  0  0  0  0  0  0  0  0  0
  -24.0545   56.2314   -5.9487 O   0  0  0  0  0  0  0  0  0  0  0  0
  -24.9423   59.3830  -12.1382 C   0  0  1  0  0  0  0  0  0  0  0  0
  -23.1974   59.4817  -15.6178 C   0  0  0  0  0  0  0  0  0  0  0  0
  -23.3418   60.7997  -15.5264 N   0  0  0  0  0  0  0  0  0  0  0  0
  -24.6981   60.1663  -11.0113 C   0  0  2  0  0  0  0  0  0  0  0  0
  -24.2098   58.6396  -15.1743 C   0  0  0  0  0  0  0  0  0  0  0  0
  -24.7747   61.5490  -11.1255 C   0  0  0  0  0  0  0  0  0  0  0  0
  -24.0061   57.2696  -15.2937 C   0  0  0  0  0  0  0  0  0  0  0  0
  -25.5225   59.1453  -14.5619 C   0  0  0  0  0  0  0  0  0  0  0  0
  1 13  1  0  0  0  0
  3  4  1  0  0  0  0
  4  5  1  0  0  0  0
  6  5  1  1  0  0  0
  6 10  1  0  0  0  0
  6 14  2  0  0  0  0
  6 18  1  0  0  0  0
  7 11  1  1  0  0  0
  7 15  1  0  0  0  0
  7 19  2  0  0  0  0
  7 18  1  0  0  0  0
  8 25  1  0  0  0  0
  8 12  1  0  0  0  0
  9 26  2  0  0  0  0
  9 13  1  0  0  0  0
 12 16  1  0  0  0  0
 13 17  2  0  0  0  0
 16 20  1  0  0  0  0
 16 27  1  0  0  0  0
 17 21  1  0  0  0  0
 20  2  1  1  0  0  0
 20 23  1  0  0  0  0
 21 22  1  0  0  0  0
 21 24  2  0  0  0  0
 23  3  1  6  0  0  0
 23 25  1  0  0  0  0
 24 27  1  0  0  0  0
 24 26  1  0  0  0  0
M  CHG  2  10  -1  15  -1
M  END
>  <CHROM.1>
-173.55904961,68.45203213,-53.30333176,63.50823217,-59.88271805,127.40620003
-58.47667644,101.77403155,-23.34071545,58.60117791,-10.68942595,-1.67166311
-0.87173457,1.63234641

>  <Name>
ligand

>  <RI>
0

>  <Rbt.Current_Directory>
/home/itssahil/PROJECTS/Mol_Feturizer/New_Systems/rnas/3D2V

>  <Rbt.Executable>
rbdock ($Id: //depot/dev/client3/rdock/2013.1/src/exe/rbdock.cxx#4 $)

>  <Rbt.Library>
libRbt.so (2013.1, Build901 2013/11/27)

>  <Rbt.Parameter_File>
/export/apps/rDock/src/rDock_2013.1_src/data/scripts/dock_solv.prm

>  <Rbt.Receptor>
prm/blind_docking_100.prm

>  <SCORE>
-12.7058

>  <SCORE.INTER>
-12.4438

>  <SCORE.INTER.CONST>
1

>  <SCORE.INTER.POLAR>
0

>  <SCORE.INTER.ROT>
8

>  <SCORE.INTER.SOLV>
11.7754

>  <SCORE.INTER.VDW>
-21.1543

>  <SCORE.INTER.norm>
-0.460882

>  <SCORE.INTRA>
-0.261943

>  <SCORE.INTRA.DIHEDRAL>
-2.06231

>  <SCORE.INTRA.DIHEDRAL.0>
7.82666

>  <SCORE.INTRA.POLAR>
0

>  <SCORE.INTRA.POLAR.0>
0

>  <SCORE.INTRA.REPUL>
0

>  <SCORE.INTRA.REPUL.0>
0

>  <SCORE.INTRA.SOLV>
1.46649

>  <SCORE.INTRA.SOLV.lig_0>
-83.2758

>  <SCORE.INTRA.VDW>
0.0359714

>  <SCORE.INTRA.VDW.0>
-3.26816

>  <SCORE.INTRA.norm>
-0.00970158

>  <SCORE.RESTR>
0

>  <SCORE.RESTR.CAVITY>
0

>  <SCORE.RESTR.norm>
0

>  <SCORE.SYSTEM>
0

>  <SCORE.SYSTEM.CONST>
0

>  <SCORE.SYSTEM.DIHEDRAL>
0

>  <SCORE.SYSTEM.SOLV>
0

>  <SCORE.SYSTEM.norm>
0

>  <SCORE.heavy>
27

>  <SCORE.norm>
-0.470584

>  <RMSD>
26.500

$$$$
ligand
 OpenBabel11021811463D
libRbt.so/2013.1/901 2013/11/27
 27 28  0  0  0  0  0  0  0  0999 V2000
  -20.2643   57.6702  -18.9148 C   0  0  0  0  0  0  0  0  0  0  0  0
  -24.6865   57.3302  -12.0323 C   0  0  0  0  0  0  0  0  0  0  0  0
  -25.0204   59.9387  -10.5972 C   0  0  0  0  0  0  0  0  0  0  0  0
  -23.6428   60.0200   -9.9368 C   0  0  0  0  0  0  0  0  0  0  0  0
  -23.7327   59.7250   -8.5407 O   0  0  0  0  0  0  0  0  0  0  0  0
  -22.4066   59.7141   -7.6345 P   0  0  1  0  0  0  0  0  0  0  0  0
  -23.6180   58.1105   -5.6553 P   0  0  2  0  0  0  0  0  0  0  0  0
  -24.7942   61.0380  -14.2292 C   0  0  0  0  0  0  0  0  0  0  0  0
  -22.6115   57.2660  -18.1977 N   0  0  0  0  0  0  0  0  0  0  0  0
  -21.3724   58.5989   -8.1384 O   0  5  0  0  0  0  0  0  0  0  0  0
  -24.8715   58.3989   -4.9286 O   0  0  0  0  0  0  0  0  0  0  0  0
  -24.6392   59.8402  -14.9143 C   0  0  0  0  0  0  0  0  0  0  0  0
  -21.3575   57.5922  -17.8486 C   0  0  0  0  0  0  0  0  0  0  0  0
  -21.6167   61.1245   -7.6548 O   0  0  0  0  0  0  0  0  0  0  0  0
  -22.6228   57.2068   -4.7785 O   0  5  0  0  0  0  0  0  0  0  0  0
  -24.6081   58.6394  -14.2038 N   0  0  0  0  0  0  0  0  0  0  0  0
  -21.0516   57.8517  -16.5691 N   0  0  0  0  0  0  0  0  0  0  0  0
  -22.7911   59.4114   -6.0830 O   0  0  0  0  0  0  0  0  0  0  0  0
  -23.9063   57.2630   -6.9753 O   0  0  0  0  0  0  0  0  0  0  0  0
  -24.7250   58.6537  -12.8087 C   0  0  1  0  0  0  0  0  0  0  0  0
  -21.9953   57.7888  -15.6216 C   0  0  0  0  0  0  0  0  0  0  0  0
  -21.6805   58.0500  -14.3570 N   0  0  0  0  0  0  0  0  0  0  0  0
  -24.8810   59.8566  -12.1219 C   0  0  1  0  0  0  0  0  0  0  0  0
  -23.3017   57.4555  -15.9576 C   0  0  0  0  0  0  0  0  0  0  0  0
  -24.9129   61.0429  -12.8447 C   0  0  0  0  0  0  0  0  0  0  0  0
  -23.5752   57.1922  -17.2949 C   0  0  0  0  0  0  0  0  0  0  0  0
  -24.4402   57.3606  -14.9334 C   0  0  0  0  0  0  0  0  0  0  0  0
  1 13  1  0  0  0  0
  3  4  1  0  0  0  0
  4  5  1  0  0  0  0
  6  5  1  6  0  0  0
  6 10  1  0  0  0  0
  6 14  2  0  0  0  0
  6 18  1  0  0  0  0
  7 11  1  1  0  0  0
  7 15  1  0  0  0  0
  7 19  2  0  0  0  0
  7 18  1  0  0  0  0
  8 25  1  0  0  0  0
  8 12  1  0  0  0  0
  9 26  2  0  0  0  0
  9 13  1  0  0  0  0
 12 16  1  0  0  0  0
 13 17  2  0  0  0  0
 16 20  1  0  0  0  0
 16 27  1  0  0  0  0
 17 21  1  0  0  0  0
 20  2  1  6  0  0  0
 20 23  1  0  0  0  0
 21 22  1  0  0  0  0
 21 24  2  0  0  0  0
 23  3  1  6  0  0  0
 23 25  1  0  0  0  0
 24 27  1  0  0  0  0
 24 26  1  0  0  0  0
M  CHG  2  10  -1  15  -1
M  END
>  <CHROM.1>
-163.91225347,178.61208831,-61.58477764,55.43331492,-122.52043218,87.54420841
57.57674940,46.90614173,-23.24067192,58.67917769,-11.26261343,-1.50305591
-0.49899884,1.52759356

>  <Name>
ligand

>  <RI>
0

>  <Rbt.Current_Directory>
/home/itssahil/PROJECTS/Mol_Feturizer/New_Systems/rnas/3D2V

>  <Rbt.Executable>
rbdock ($Id: //depot/dev/client3/rdock/2013.1/src/exe/rbdock.cxx#4 $)

>  <Rbt.Library>
libRbt.so (2013.1, Build901 2013/11/27)

>  <Rbt.Parameter_File>
/export/apps/rDock/src/rDock_2013.1_src/data/scripts/dock_solv.prm

>  <Rbt.Receptor>
prm/blind_docking_100.prm

>  <SCORE>
-17.1424

>  <SCORE.INTER>
-18.297

>  <SCORE.INTER.CONST>
1

>  <SCORE.INTER.POLAR>
0

>  <SCORE.INTER.ROT>
8

>  <SCORE.INTER.SOLV>
20.6575

>  <SCORE.INTER.VDW>
-28.0172

>  <SCORE.INTER.norm>
-0.677667

>  <SCORE.INTRA>
1.15466

>  <SCORE.INTRA.DIHEDRAL>
0.691122

>  <SCORE.INTRA.DIHEDRAL.0>
7.82666

>  <SCORE.INTRA.POLAR>
0

>  <SCORE.INTRA.POLAR.0>
0

>  <SCORE.INTRA.REPUL>
0

>  <SCORE.INTRA.REPUL.0>
0

>  <SCORE.INTRA.SOLV>
2.3629

>  <SCORE.INTRA.SOLV.lig_0>
-83.2758

>  <SCORE.INTRA.VDW>
-0.372353

>  <SCORE.INTRA.VDW.0>
-3.26816

>  <SCORE.INTRA.norm>
0.0427652

>  <SCORE.RESTR>
0

>  <SCORE.RESTR.CAVITY>
0

>  <SCORE.RESTR.norm>
0

>  <SCORE.SYSTEM>
0

>  <SCORE.SYSTEM.CONST>
0

>  <SCORE.SYSTEM.DIHEDRAL>
0

>  <SCORE.SYSTEM.SOLV>
0

>  <SCORE.SYSTEM.norm>
0

>  <SCORE.heavy>
27

>  <SCORE.norm>
-0.634902

>  <RMSD>
26.516

$$$$
