@<TRIPOS>MOLECULE
3D2V_rdock.pdb
 1655 1852 0 0 0
SMALL
GASTEIGER

@<TRIPOS>ATOM
      1  P        -20.8680   64.0190  -12.8780 P.3     1  G1          0.1280
      2  C5'      -19.7140   64.1100  -10.5310 C.3     1  G1          0.1795
      3  O5'      -19.6990   64.5040  -11.8980 O.3     1  G1         -0.3259
      4  C4'      -18.6300   64.8190   -9.7370 C.3     1  G1          0.1772
      5  O4'      -18.7570   66.2540   -9.9200 O.3     1  G1         -0.3307
      6  C3'      -18.6900   64.5820   -8.2310 C.3     1  G1          0.1860
      7  O3'      -17.7360   63.5970   -7.8450 O.3     1  G1         -0.3112
      8  C2'      -18.3570   65.9520   -7.6480 C.3     1  G1          0.2309
      9  O2'      -16.9660   66.1980   -7.6080 O.3     1  G1         -0.2156
     10  C1'      -19.0210   66.8610   -8.6720 C.3     1  G1          0.2408
     11  N1       -22.9270   67.8210   -5.5240 N.ar    1  G1         -0.1709
     12  C2       -21.5780   67.8320   -5.2570 C.ar    1  G1          0.2606
     13  N2       -21.2260   68.1350   -3.9990 N.pl3   1  G1         -0.0859
     14  N3       -20.6400   67.5650   -6.1590 N.ar    1  G1         -0.1918
     15  C4       -21.1720   67.2810   -7.3730 C.ar    1  G1          0.1723
     16  C5       -22.5020   67.2450   -7.7350 C.ar    1  G1          0.1748
     17  C6       -23.4910   67.5330   -6.7640 C.ar    1  G1          0.3023
     18  O6       -24.7230   67.5490   -6.9040 O.2     1  G1         -0.2633
     19  N7       -22.6410   66.9120   -9.0770 N.ar    1  G1         -0.2173
     20  C8       -21.4160   66.7560   -9.4930 C.ar    1  G1          0.1817
     21  N9       -20.4710   66.9640   -8.5170 N.ar    1  G1         -0.2693
     22  OP1      -21.1090   62.5730  -12.6700 O.3     1  G1         -0.1955
     23  OP2      -20.5710   64.5360  -14.2330 O.co2   1  G1         -0.7863
     24  P        -18.1860   62.0710   -7.6700 P.3     2  G2          0.2141
     25  C5'      -18.2980   62.5600   -5.0960 C.3     2  G2          0.1812
     26  O5'      -18.9590   62.0960   -6.2680 O.3     2  G2         -0.3114
     27  C4'      -19.2970   63.0000   -4.0390 C.3     2  G2          0.1773
     28  O4'      -19.9220   64.2500   -4.4300 O.3     2  G2         -0.3307
     29  C3'      -20.4820   62.0730   -3.8220 C.3     2  G2          0.1860
     30  O3'      -20.1320   60.9520   -3.0220 O.3     2  G2         -0.3112
     31  C2'      -21.4170   63.0230   -3.0860 C.3     2  G2          0.2309
     32  O2'      -21.0000   63.2680   -1.7580 O.3     2  G2         -0.2156
     33  C1'      -21.2510   64.2770   -3.9380 C.3     2  G2          0.2408
     34  N1       -26.0670   64.9720   -5.4140 N.ar    2  G2         -0.1709
     35  C2       -25.5200   65.0680   -4.1560 C.ar    2  G2          0.2606
     36  N2       -26.3640   65.3870   -3.1630 N.pl3   2  G2         -0.0859
     37  N3       -24.2360   64.8640   -3.8890 N.ar    2  G2         -0.1918
     38  C4       -23.5330   64.5520   -5.0050 C.ar    2  G2          0.1723
     39  C5       -23.9870   64.4330   -6.3000 C.ar    2  G2          0.1748
     40  C6       -25.3580   64.6520   -6.5700 C.ar    2  G2          0.3023
     41  O6       -25.9450   64.5920   -7.6600 O.2     2  G2         -0.2633
     42  N7       -22.9470   64.0970   -7.1580 N.ar    2  G2         -0.2173
     43  C8       -21.9030   64.0210   -6.3790 C.ar    2  G2          0.1817
     44  N9       -22.1820   64.2880   -5.0610 N.ar    2  G2         -0.2693
     45  OP1      -16.9590   61.2590   -7.5010 O.3     2  G2         -0.4373
     46  OP2      -19.1530   61.7400   -8.7410 O.co2   2  G2         -0.5172
     47  P        -20.7820   59.5270   -3.3510 P.3     3  G3          0.2141
     48  C5'      -22.7210   60.0770   -1.6740 C.3     3  G3          0.1812
     49  O5'      -22.3290   59.7320   -2.9980 O.3     3  G3         -0.3114
     50  C4'      -24.1830   60.4790   -1.6280 C.3     3  G3          0.1773
     51  O4'      -24.4110   61.6240   -2.4870 O.3     3  G3         -0.3307
     52  C3'      -25.1620   59.4400   -2.1500 C.3     3  G3          0.1860
     53  O3'      -25.4320   58.4640   -1.1560 O.3     3  G3         -0.3112
     54  C2'      -26.3820   60.3130   -2.4130 C.3     3  G3          0.2309
     55  O2'      -27.0860   60.6260   -1.2280 O.3     3  G3         -0.2156
     56  C1'      -25.7330   61.5670   -2.9920 C.3     3  G3          0.2408
     57  N1       -28.4170   61.7430   -7.3060 N.ar    3  G3         -0.1709
     58  C2       -28.8560   61.7990   -6.0040 C.ar    3  G3          0.2606
     59  N2       -30.1800   61.9160   -5.8280 N.pl3   3  G3         -0.0859
     60  N3       -28.0540   61.7440   -4.9490 N.ar    3  G3         -0.1918
     61  C4       -26.7530   61.6270   -5.3090 C.ar    3  G3          0.1723
     62  C5       -26.2170   61.5630   -6.5750 C.ar    3  G3          0.1748
     63  C6       -27.0840   61.6230   -7.6920 C.ar    3  G3          0.3023
     64  O6       -26.7880   61.5820   -8.8940 O.2     3  G3         -0.2633
     65  N7       -24.8340   61.4440   -6.5180 N.ar    3  G3         -0.2173
     66  C8       -24.5650   61.4370   -5.2420 C.ar    3  G3          0.1817
     67  N9       -25.6810   61.5470   -4.4500 N.ar    3  G3         -0.2693
     68  OP1      -20.2250   58.5460   -2.3930 O.3     3  G3         -0.4373
     69  OP2      -20.6540   59.2980   -4.8080 O.co2   3  G3         -0.5172
     70  P        -25.6470   56.9400   -1.5880 P.3     4  A4          0.2141
     71  C5'      -28.1920   57.2410   -1.0950 C.3     4  A4          0.1812
     72  O5'      -27.1820   56.9020   -2.0330 O.3     4  A4         -0.3114
     73  C4'      -29.5160   57.4660   -1.7990 C.3     4  A4          0.1773
     74  O4'      -29.4190   58.6430   -2.6370 O.3     4  A4         -0.3307
     75  C3'      -29.9340   56.3510   -2.7440 C.3     4  A4          0.1860
     76  O3'      -30.6260   55.3380   -2.0250 O.3     4  A4         -0.3112
     77  C2'      -30.8650   57.0940   -3.6960 C.3     4  A4          0.2309
     78  O2'      -32.1640   57.2540   -3.1620 O.3     4  A4         -0.2156
     79  C1'      -30.1800   58.4520   -3.8140 C.3     4  A4          0.2408
     80  N1       -29.7640   58.6300   -8.9390 N.ar    4  A4         -0.2040
     81  C2       -30.8280   58.5360   -8.1320 C.ar    4  A4          0.2016
     82  N3       -30.8710   58.4940   -6.8010 N.ar    4  A4         -0.2048
     83  C4       -29.6340   58.5600   -6.2860 C.ar    4  A4          0.1692
     84  C5       -28.4450   58.6590   -6.9850 C.ar    4  A4          0.1518
     85  C6       -28.5330   58.6950   -8.3900 C.ar    4  A4          0.1919
     86  N6       -27.4650   58.7880   -9.1900 N.pl3   4  A4         -0.1054
     87  N7       -27.3670   58.7040   -6.1170 N.ar    4  A4         -0.2193
     88  C8       -27.9170   58.6320   -4.9280 C.ar    4  A4          0.1816
     89  N9       -29.2810   58.5450   -4.9570 N.ar    4  A4         -0.2693
     90  OP1      -25.5050   56.1040   -0.3740 O.3     4  A4         -0.4373
     91  OP2      -24.7990   56.6810   -2.7740 O.co2   4  A4         -0.5172
     92  P        -30.5570   53.8180   -2.5170 P.3     5  C5          0.2141
     93  C5'      -32.9500   54.2910   -3.4570 C.3     5  C5          0.1812
     94  O5'      -31.6470   53.7740   -3.6840 O.3     5  C5         -0.3114
     95  C4'      -33.7030   54.3410   -4.7700 C.3     5  C5          0.1773
     96  O4'      -33.1710   55.4010   -5.6010 O.3     5  C5         -0.3307
     97  C3'      -33.5500   53.0760   -5.5950 C.3     5  C5          0.1860
     98  O3'      -34.5500   52.1400   -5.2160 O.3     5  C5         -0.3112
     99  C2'      -33.7370   53.5820   -7.0230 C.3     5  C5          0.2309
    100  O2'      -35.0980   53.6310   -7.4050 O.3     5  C5         -0.2156
    101  C1'      -33.1570   54.9940   -6.9570 C.3     5  C5          0.2420
    102  N1       -31.7560   55.0970   -7.4620 N.ar    5  C5         -0.2535
    103  C2       -31.5260   55.3310   -8.8220 C.ar    5  C5          0.3532
    104  O2       -32.4920   55.4440   -9.5870 O.2     5  C5         -0.2443
    105  N3       -30.2460   55.4250   -9.2630 N.ar    5  C5         -0.1739
    106  C4       -29.2320   55.2960   -8.4050 C.ar    5  C5          0.1759
    107  N4       -27.9870   55.3960   -8.8850 N.pl3   5  C5         -0.1070
    108  C5       -29.4480   55.0590   -7.0160 C.ar    5  C5          0.0566
    109  C6       -30.7130   54.9690   -6.5920 C.ar    5  C5          0.0850
    110  OP1      -31.0400   52.9560   -1.4150 O.3     5  C5         -0.4373
    111  OP2      -29.2180   53.5920   -3.1060 O.co2   5  C5         -0.5172
    112  P        -34.3920   50.6130   -5.6600 P.3     6  C6          0.2141
    113  C5'      -34.0150   49.9100   -8.1310 C.3     6  C6          0.1812
    114  O5'      -34.7250   50.7160   -7.2180 O.3     6  C6         -0.3114
    115  C4'      -34.2980   50.3410   -9.5550 C.3     6  C6          0.1773
    116  O4'      -33.8230   51.6930   -9.7790 O.3     6  C6         -0.3307
    117  C3'      -33.5800   49.4850  -10.5790 C.3     6  C6          0.1860
    118  O3'      -34.4080   48.3790  -10.9030 O.3     6  C6         -0.3112
    119  C2'      -33.3960   50.4540  -11.7410 C.3     6  C6          0.2309
    120  O2'      -34.5610   50.5840  -12.5320 O.3     6  C6         -0.2156
    121  C1'      -33.1040   51.7540  -10.9960 C.3     6  C6          0.2420
    122  N1       -31.6630   51.9420  -10.6650 N.ar    6  C6         -0.2535
    123  C2       -30.7470   52.2560  -11.6750 C.ar    6  C6          0.3532
    124  O2       -31.1460   52.3720  -12.8400 O.2     6  C6         -0.2443
    125  N3       -29.4420   52.4210  -11.3450 N.ar    6  C6         -0.1739
    126  C4       -29.0480   52.2860  -10.0760 C.ar    6  C6          0.1759
    127  N4       -27.7520   52.4590   -9.8000 N.pl3   6  C6         -0.1070
    128  C5       -29.9670   51.9680   -9.0340 C.ar    6  C6          0.0566
    129  C6       -31.2500   51.8070   -9.3710 C.ar    6  C6          0.0850
    130  OP1      -35.4610   49.8180   -5.0140 O.3     6  C6         -0.4373
    131  OP2      -32.9750   50.2240   -5.4890 O.co2   6  C6         -0.5172
    132  P        -33.8550   46.9020  -10.6440 P.3     7  A7          0.2141
    133  C5'      -33.4620   47.1900  -13.2000 C.3     7  A7          0.1812
    134  O5'      -32.9890   46.6680  -11.9650 O.3     7  A7         -0.3114
    135  C4'      -32.2940   47.4880  -14.1170 C.3     7  A7          0.1773
    136  O4'      -31.6480   48.7270  -13.7310 O.3     7  A7         -0.3307
    137  C3'      -31.1820   46.4580  -14.0480 C.3     7  A7          0.1860
    138  O3'      -31.5150   45.3330  -14.8470 O.3     7  A7         -0.3112
    139  C2'      -30.0130   47.2600  -14.6100 C.3     7  A7          0.2309
    140  O2'      -30.0510   47.3670  -16.0190 O.3     7  A7         -0.2156
    141  C1'      -30.2550   48.6230  -13.9660 C.3     7  A7          0.2408
    142  N1       -25.8200   49.7700  -11.6200 N.ar    7  A7         -0.2040
    143  C2       -26.1620   49.7310  -12.9130 C.ar    7  A7          0.2016
    144  N3       -27.3370   49.4250  -13.4600 N.ar    7  A7         -0.2048
    145  C4       -28.2400   49.1290  -12.5120 C.ar    7  A7          0.1692
    146  C5       -28.0390   49.1260  -11.1450 C.ar    7  A7          0.1518
    147  C6       -26.7510   49.4680  -10.6890 C.ar    7  A7          0.1919
    148  N6       -26.4150   49.5060   -9.3950 N.pl3   7  A7         -0.1054
    149  N7       -29.2000   48.7700  -10.4790 N.ar    7  A7         -0.2193
    150  C8       -30.0670   48.5680  -11.4440 C.ar    7  A7          0.1816
    151  N9       -29.5550   48.7690  -12.6950 N.ar    7  A7         -0.2693
    152  OP1      -34.9950   45.9590  -10.6570 O.2     7  A7         -0.5172
    153  OP2      -32.9490   46.9490   -9.4740 O.co2   7  A7         -0.4373
    154  P        -30.6810   43.9820  -14.6720 P.3     8  G8          0.2141
    155  C5'      -28.0820   43.7850  -14.8480 C.3     8  G8          0.1812
    156  O5'      -29.2670   44.4310  -15.2610 O.3     8  G8         -0.3114
    157  C4'      -26.8850   44.5050  -15.4340 C.3     8  G8          0.1773
    158  O4'      -26.8710   45.8860  -14.9820 O.3     8  G8         -0.3307
    159  C3'      -25.5450   43.9270  -15.0100 C.3     8  G8          0.1860
    160  O3'      -25.1660   42.8900  -15.9080 O.3     8  G8         -0.3112
    161  C2'      -24.6460   45.1520  -15.1150 C.3     8  G8          0.2309
    162  O2'      -24.3100   45.4590  -16.4520 O.3     8  G8         -0.2156
    163  C1'      -25.5690   46.2220  -14.5420 C.3     8  G8          0.2408
    164  N1       -22.8390   46.9900  -10.3250 N.ar    8  G8         -0.1709
    165  C2       -22.4600   47.1030  -11.6430 C.ar    8  G8          0.2606
    166  N2       -21.1900   47.4680  -11.8690 N.pl3   8  G8         -0.0859
    167  N3       -23.2660   46.8770  -12.6700 N.ar    8  G8         -0.1918
    168  C4       -24.5070   46.5210  -12.2620 C.ar    8  G8          0.1723
    169  C5       -24.9830   46.3800  -10.9770 C.ar    8  G8          0.1748
    170  C6       -24.1110   46.6260   -9.8900 C.ar    8  G8          0.3023
    171  O6       -24.3570   46.5500   -8.6780 O.2     8  G8         -0.2633
    172  N7       -26.3190   45.9990  -10.9840 N.ar    8  G8         -0.2173
    173  C8       -26.6190   45.9180  -12.2510 C.ar    8  G8          0.1817
    174  N9       -25.5700   46.2250  -13.0840 N.ar    8  G8         -0.2693
    175  OP1      -31.2540   42.9590  -15.5780 O.2     8  G8         -0.5172
    176  OP2      -30.5350   43.6970  -13.2260 O.co2   8  G8         -0.4373
    177  P        -24.4510   41.5850  -15.3260 P.3     9  G9          0.2141
    178  C5'      -22.2410   42.8040  -16.0030 C.3     9  G9          0.1812
    179  O5'      -22.9920   42.1450  -14.9920 O.3     9  G9         -0.3114
    180  C4'      -20.9390   43.3180  -15.4230 C.3     9  G9          0.1773
    181  O4'      -21.2140   44.4090  -14.5080 O.3     9  G9         -0.3307
    182  C3'      -20.1850   42.3100  -14.5690 C.3     9  G9          0.1860
    183  O3'      -19.4300   41.4220  -15.3780 O.3     9  G9         -0.3112
    184  C2'      -19.2940   43.2540  -13.7740 C.3     9  G9          0.2309
    185  O2'      -18.2490   43.7930  -14.5560 O.3     9  G9         -0.2156
    186  C1'      -20.3010   44.3440  -13.4280 C.3     9  G9          0.2408
    187  N1       -20.0310   44.0850   -8.3720 N.ar    9  G9         -0.1709
    188  C2       -19.0640   44.4320   -9.2870 C.ar    9  G9          0.2606
    189  N2       -17.8590   44.7530   -8.7960 N.pl3   9  G9         -0.0859
    190  N3       -19.2590   44.4620  -10.5960 N.ar    9  G9         -0.1918
    191  C4       -20.5240   44.1110  -10.9240 C.ar    9  G9          0.1723
    192  C5       -21.5590   43.7510  -10.0920 C.ar    9  G9          0.1748
    193  C6       -21.3380   43.7230   -8.6930 C.ar    9  G9          0.3023
    194  O6       -22.1360   43.4270   -7.7920 O.2     9  G9         -0.2633
    195  N7       -22.7000   43.4630  -10.8300 N.ar    9  G9         -0.2173
    196  C8       -22.3380   43.6530  -12.0700 C.ar    9  G9          0.1817
    197  N9       -21.0300   44.0500  -12.2000 N.ar    9  G9         -0.2693
    198  OP1      -24.3280   40.5930  -16.4190 O.2     9  G9         -0.5172
    199  OP2      -25.1200   41.2120  -14.0590 O.co2   9  G9         -0.4373
    200  P        -19.1920   39.9130  -14.9060 P.3    10  G10         0.2141
    201  C5'      -16.9390   40.6490  -13.8080 C.3    10  G10         0.1812
    202  O5'      -18.2200   40.0630  -13.6430 O.3    10  G10        -0.3114
    203  C4'      -16.2670   40.8770  -12.4660 C.3    10  G10         0.1773
    204  O4'      -17.1100   41.6940  -11.6180 O.3    10  G10        -0.3307
    205  C3'      -16.0190   39.6290  -11.6330 C.3    10  G10         0.1860
    206  O3'      -14.8600   38.9520  -12.1170 O.3    10  G10        -0.3112
    207  C2'      -15.7830   40.2720  -10.2690 C.3    10  G10         0.2309
    208  O2'      -14.4800   40.8060  -10.1530 O.3    10  G10        -0.2156
    209  C1'      -16.7980   41.4150  -10.2660 C.3    10  G10         0.2408
    210  N1       -19.1070   41.2110   -5.7360 N.ar   10  G10        -0.1709
    211  C2       -17.8180   41.5770   -6.0380 C.ar   10  G10         0.2606
    212  N2       -17.0430   41.9310   -5.0030 N.pl3  10  G10        -0.0859
    213  N3       -17.3210   41.5920   -7.2690 N.ar   10  G10        -0.1918
    214  C4       -18.2380   41.2040   -8.1880 C.ar   10  G10         0.1723
    215  C5       -19.5450   40.8230   -7.9850 C.ar   10  G10         0.1748
    216  C6       -20.0610   40.8120   -6.6680 C.ar   10  G10         0.3023
    217  O6       -21.2000   40.5020   -6.2910 O.2    10  G10        -0.2633
    218  N7       -20.1560   40.4980   -9.1880 N.ar   10  G10        -0.2173
    219  C8       -19.2240   40.6860  -10.0810 C.ar   10  G10         0.1817
    220  N9       -18.0330   41.1140   -9.5460 N.ar   10  G10        -0.2693
    221  OP1      -18.4370   39.2400  -15.9860 O.2    10  G10        -0.5172
    222  OP2      -20.4850   39.3600  -14.4380 O.co2  10  G10        -0.4373
    223  P        -14.7120   37.3580  -12.0430 P.3    11  G11         0.2141
    224  C5'      -12.5360   37.6940  -10.6250 C.3    11  G11         0.1812
    225  O5'      -13.8420   37.1380  -10.7200 O.3    11  G11        -0.3114
    226  C4'      -12.1300   37.8120   -9.1680 C.3    11  G11         0.1773
    227  O4'      -13.0120   38.7460   -8.4950 O.3    11  G11        -0.3307
    228  C3'      -12.2400   36.5180   -8.3770 C.3    11  G11         0.1860
    229  O3'      -11.0140   35.8080   -8.4770 O.3    11  G11        -0.3112
    230  C2'      -12.4560   37.0380   -6.9610 C.3    11  G11         0.2309
    231  O2'      -11.2330   37.4130   -6.3570 O.3    11  G11        -0.2156
    232  C1'      -13.3150   38.2770   -7.1960 C.3    11  G11         0.2408
    233  N1       -17.5380   38.5190   -4.3410 N.ar   11  G11        -0.1709
    234  C2       -16.2460   38.8530   -4.0120 C.ar   11  G11         0.2606
    235  N2       -16.0500   39.3070   -2.7670 N.pl3  11  G11        -0.0859
    236  N3       -15.2150   38.7480   -4.8440 N.ar   11  G11        -0.1918
    237  C4       -15.5890   38.2730   -6.0570 C.ar   11  G11         0.1723
    238  C5       -16.8510   37.9140   -6.4790 C.ar   11  G11         0.1748
    239  C6       -17.9420   38.0320   -5.5820 C.ar   11  G11         0.3023
    240  O6       -19.1370   37.7630   -5.7790 O.2    11  G11        -0.2633
    241  N7       -16.8200   37.4740   -7.7970 N.ar   11  G11        -0.2173
    242  C8       -15.5640   37.5720   -8.1380 C.ar   11  G11         0.1817
    243  N9       -14.7570   38.0470   -7.1320 N.ar   11  G11        -0.2693
    244  OP1      -13.8830   36.9410  -13.1940 O.2    11  G11        -0.5172
    245  OP2      -16.0480   36.7580  -11.8330 O.co2  11  G11        -0.4373
    246  P        -10.9960   34.2150   -8.6360 P.3    12  U12         0.2141
    247  C5'      -10.4620   33.9200   -6.0890 C.3    12  U12         0.1812
    248  O5'      -11.3510   33.6910   -7.1700 O.3    12  U12        -0.3114
    249  C4'      -11.1850   33.6490   -4.7850 C.3    12  U12         0.1773
    250  O4'      -12.3160   34.5420   -4.6970 O.3    12  U12        -0.3307
    251  C3'      -11.7770   32.2510   -4.6570 C.3    12  U12         0.1860
    252  O3'      -10.8370   31.4130   -4.0090 O.3    12  U12        -0.3112
    253  C2'      -12.9860   32.4640   -3.7510 C.3    12  U12         0.2309
    254  O2'      -12.6850   32.1640   -2.4050 O.3    12  U12        -0.2156
    255  C1'      -13.3030   33.9540   -3.8780 C.3    12  U12         0.2420
    256  N1       -14.6340   34.2190   -4.4730 N.ar   12  U12        -0.2534
    257  C2       -15.6180   34.7510   -3.6710 C.ar   12  U12         0.3546
    258  O2       -15.4460   35.0170   -2.4950 O.2    12  U12        -0.2443
    259  N3       -16.8200   34.9600   -4.2980 N.ar   12  U12        -0.1530
    260  C4       -17.1260   34.6930   -5.6170 C.ar   12  U12         0.2846
    261  O4       -18.2540   34.9340   -6.0340 O.2    12  U12        -0.2650
    262  C5       -16.0450   34.1390   -6.3920 C.ar   12  U12         0.0814
    263  C6       -14.8640   33.9240   -5.8010 C.ar   12  U12         0.0870
    264  OP1       -9.6030   33.8130   -8.9290 O.3    12  U12        -0.4373
    265  OP2      -12.0990   33.8360   -9.5470 O.co2  12  U12        -0.5172
    266  P        -10.5880   29.9060   -4.4780 P.3    13  G13         0.2141
    267  C5'       -8.2480   30.4350   -5.4960 C.3    13  G13         0.1812
    268  O5'       -8.9900   29.8250   -4.4510 O.3    13  G13        -0.3114
    269  C4'       -7.0700   31.2060   -4.9310 C.3    13  G13         0.1773
    270  O4'       -7.5490   32.3370   -4.1620 O.3    13  G13        -0.3307
    271  C3'       -6.2110   30.4360   -3.9390 C.3    13  G13         0.1860
    272  O3'       -5.2940   29.5960   -4.6220 O.3    13  G13        -0.3112
    273  C2'       -5.5010   31.5950   -3.2550 C.3    13  G13         0.2309
    274  O2'       -4.5130   32.1710   -4.0840 O.3    13  G13        -0.2156
    275  C1'       -6.6550   32.5750   -3.0890 C.3    13  G13         0.2408
    276  N1        -6.4950   33.0840    1.9760 N.ar   13  G13        -0.1709
    277  C2        -5.5150   33.3460    1.0480 C.ar   13  G13         0.2606
    278  N2        -4.3450   33.8050    1.5240 N.pl3  13  G13        -0.0859
    279  N3        -5.6720   33.1720   -0.2580 N.ar   13  G13        -0.1918
    280  C4        -6.9080   32.7100   -0.5650 C.ar   13  G13         0.1723
    281  C5        -7.9490   32.4230    0.2870 C.ar   13  G13         0.1748
    282  C6        -7.7700   32.6100    1.6760 C.ar   13  G13         0.3023
    283  O6        -8.5880   32.4060    2.5840 O.2    13  G13        -0.2633
    284  N7        -9.0550   31.9680   -0.4200 N.ar   13  G13        -0.2173
    285  C8        -8.6720   31.9890   -1.6650 C.ar   13  G13         0.1817
    286  N9        -7.3800   32.4270   -1.8290 N.ar   13  G13        -0.2693
    287  OP1      -11.0330   29.7840   -5.8840 O.2    13  G13        -0.5172
    288  OP2      -11.1250   28.9940   -3.4430 O.co2  13  G13        -0.4373
    289  P         -4.9010   28.1810   -3.9930 P.3    14  C14         0.2141
    290  C5'       -2.7380   29.2810   -3.0160 C.3    14  C14         0.1812
    291  O5'       -3.9490   28.5770   -2.7710 O.3    14  C14        -0.3114
    292  C4'       -2.1080   29.7240   -1.7100 C.3    14  C14         0.1773
    293  O4'       -2.9780   30.6880   -1.0680 O.3    14  C14        -0.3307
    294  C3'       -1.9430   28.6310   -0.6650 C.3    14  C14         0.1860
    295  O3'       -0.7570   27.8830   -0.8910 O.3    14  C14        -0.3112
    296  C2'       -1.8290   29.4670    0.5990 C.3    14  C14         0.2309
    297  O2'       -0.5510   30.0530    0.7280 O.3    14  C14        -0.2156
    298  C1'       -2.8700   30.5490    0.3340 C.3    14  C14         0.2420
    299  N1        -4.2030   30.2040    0.8730 N.ar   14  C14        -0.2535
    300  C2        -4.4210   30.3260    2.2460 C.ar   14  C14         0.3532
    301  O2        -3.4940   30.7260    2.9640 O.2    14  C14        -0.2443
    302  N3        -5.6410   30.0080    2.7430 N.ar   14  C14        -0.1739
    303  C4        -6.6060   29.5840    1.9270 C.ar   14  C14         0.1759
    304  N4        -7.7890   29.2840    2.4720 N.pl3  14  C14        -0.1070
    305  C5        -6.4010   29.4510    0.5220 C.ar   14  C14         0.0566
    306  C6        -5.1930   29.7670    0.0410 C.ar   14  C14         0.0850
    307  OP1       -4.0800   27.4560   -4.9880 O.2    14  C14        -0.5172
    308  OP2       -6.1340   27.5680   -3.4510 O.co2  14  C14        -0.4373
    309  P         -0.8060   26.2880   -0.7860 P.3    15  U15         0.2141
    310  C5'        0.2130   26.4440    1.6160 C.3    15  U15         0.1812
    311  O5'       -0.8600   26.0250    0.7880 O.3    15  U15        -0.3114
    312  C4'       -0.2140   26.3820    3.0690 C.3    15  U15         0.1773
    313  O4'       -1.2810   27.3350    3.2990 O.3    15  U15        -0.3307
    314  C3'       -0.8080   25.0500    3.5090 C.3    15  U15         0.1860
    315  O3'        0.2240   24.1140    3.7940 O.3    15  U15        -0.3112
    316  C2'       -1.5530   25.4960    4.7620 C.3    15  U15         0.2309
    317  O2'       -0.6900   25.7120    5.8600 O.3    15  U15        -0.2156
    318  C1'       -2.1520   26.8200    4.2860 C.3    15  U15         0.2420
    319  N1        -3.5000   26.6160    3.7010 N.ar   15  U15        -0.2534
    320  C2        -4.5790   26.6210    4.5530 C.ar   15  U15         0.3546
    321  O2        -4.4680   26.8020    5.7520 O.2    15  U15        -0.2443
    322  N3        -5.7920   26.4120    3.9490 N.ar   15  U15        -0.1530
    323  C4        -6.0250   26.1980    2.6030 C.ar   15  U15         0.2846
    324  O4        -7.1740   26.0240    2.2100 O.2    15  U15        -0.2650
    325  C5        -4.8450   26.2030    1.7750 C.ar   15  U15         0.0814
    326  C6        -3.6510   26.4040    2.3440 C.ar   15  U15         0.0870
    327  OP1        0.4740   25.7550   -1.3040 O.3    15  U15        -0.4373
    328  OP2       -2.0880   25.8420   -1.3720 O.co2  15  U15        -0.5172
    329  P         -0.0970   22.5470    3.9250 P.3    16  U16         0.2141
    330  C5'        0.0040   22.5700    6.5470 C.3    16  U16         0.1812
    331  O5'       -0.7810   22.4490    5.3650 O.3    16  U16        -0.3114
    332  C4'       -0.8040   22.1840    7.7760 C.3    16  U16         0.1773
    333  O4'       -1.8540   23.1610    7.9970 O.3    16  U16        -0.3307
    334  C3'       -1.5480   20.8580    7.6850 C.3    16  U16         0.1860
    335  O3'       -0.7000   19.7590    7.9930 O.3    16  U16        -0.3112
    336  C2'       -2.6080   21.0550    8.7590 C.3    16  U16         0.2309
    337  O2'       -2.0800   20.9080   10.0600 O.3    16  U16        -0.2156
    338  C1'       -3.0000   22.5090    8.5160 C.3    16  U16         0.2420
    339  N1        -4.1130   22.6540    7.5400 N.ar   16  U16        -0.2534
    340  C2        -5.4070   22.6230    8.0060 C.ar   16  U16         0.3546
    341  O2        -5.6820   22.4830    9.1820 O.2    16  U16        -0.2443
    342  N3        -6.3740   22.7670    7.0440 N.ar   16  U16        -0.1530
    343  C4        -6.1790   22.9310    5.6870 C.ar   16  U16         0.2846
    344  O4        -7.1500   23.0460    4.9460 O.2    16  U16        -0.2650
    345  C5        -4.7990   22.9500    5.2730 C.ar   16  U16         0.0814
    346  C6        -3.8390   22.8130    6.1960 C.ar   16  U16         0.0870
    347  OP1        1.2050   21.8440    3.9660 O.3    16  U16        -0.4373
    348  OP2       -1.0980   22.1680    2.9030 O.co2  16  U16        -0.5172
    349  P         -1.0640   18.3000    7.4390 P.3    17  G17         0.2141
    350  C5'       -2.1100   17.4720    9.6970 C.3    17  G17         0.1812
    351  O5'       -2.3100   17.8630    8.3430 O.3    17  G17        -0.3114
    352  C4'       -3.4270   17.3860   10.4480 C.3    17  G17         0.1773
    353  O4'       -4.1590   18.6240   10.2730 O.3    17  G17        -0.3307
    354  C3'       -4.4000   16.3080    9.9880 C.3    17  G17         0.1860
    355  O3'       -4.0710   15.0570   10.5870 O.3    17  G17        -0.3112
    356  C2'       -5.7140   16.8640   10.5270 C.3    17  G17         0.2309
    357  O2'       -5.8740   16.6470   11.9160 O.3    17  G17        -0.2156
    358  C1'       -5.5470   18.3540   10.2510 C.3    17  G17         0.2408
    359  N1        -9.7370   19.3840    7.5890 N.ar   17  G17        -0.1709
    360  C2        -9.6090   19.0410    8.9130 C.ar   17  G17         0.2606
    361  N2       -10.7430   18.9580    9.6240 N.pl3  17  G17        -0.0859
    362  N3        -8.4470   18.7940    9.5020 N.ar   17  G17        -0.1918
    363  C4        -7.4100   18.9220    8.6410 C.ar   17  G17         0.1723
    364  C5        -7.4330   19.2590    7.3090 C.ar   17  G17         0.1748
    365  C6        -8.6790   19.5190    6.6920 C.ar   17  G17         0.3023
    366  O6        -8.8990   19.8320    5.5150 O.2    17  G17        -0.2633
    367  N7        -6.1480   19.2810    6.7820 N.ar   17  G17        -0.2173
    368  C8        -5.3840   18.9620    7.7890 C.ar   17  G17         0.1817
    369  N9        -6.0830   18.7330    8.9490 N.ar   17  G17        -0.2693
    370  OP1        0.0790   17.4180    7.7580 O.3    17  G17        -0.4373
    371  OP2       -1.5220   18.4270    6.0370 O.co2  17  G17        -0.5172
    372  P         -4.8060   13.6910   10.1760 P.3    18  U18         0.2141
    373  C5'       -4.7460   13.9480    7.5740 C.3    18  U18         0.1812
    374  O5'       -4.2010   13.3410    8.7350 O.3    18  U18        -0.3114
    375  C4'       -4.6100   13.0600    6.3510 C.3    18  U18         0.1773
    376  O4'       -4.9160   11.6870    6.7030 O.3    18  U18        -0.3307
    377  C3'       -5.6100   13.3870    5.2560 C.3    18  U18         0.1860
    378  O3'       -5.2090   12.8150    4.0180 O.3    18  U18        -0.3112
    379  C2'       -6.8470   12.7060    5.8260 C.3    18  U18         0.2309
    380  O2'       -7.8410   12.4810    4.8480 O.3    18  U18        -0.2156
    381  C1'       -6.2450   11.3900    6.3130 C.3    18  U18         0.2420
    382  N1        -6.9630   10.8130    7.4860 N.ar   18  U18        -0.2534
    383  C2        -8.1560   10.1460    7.2980 C.ar   18  U18         0.3546
    384  O2        -8.6720    9.9920    6.2050 O.2    18  U18        -0.2443
    385  N3        -8.7310    9.6580    8.4450 N.ar   18  U18        -0.1530
    386  C4        -8.2440    9.7670    9.7340 C.ar   18  U18         0.2846
    387  O4        -8.8710    9.2790   10.6680 O.2    18  U18        -0.2650
    388  C5        -6.9970   10.4750    9.8500 C.ar   18  U18         0.0814
    389  C6        -6.4180   10.9600    8.7450 C.ar   18  U18         0.0870
    390  OP1       -6.2490   13.9710   10.0080 O.2    18  U18        -0.5172
    391  OP2       -4.3750   12.6530   11.1370 O.co2  18  U18        -0.4373
    392  P         -4.1560   13.5910    3.0960 P.3    19  U19         0.2141
    393  C5'       -5.8540   14.2470    1.1960 C.3    19  U19         0.1812
    394  O5'       -5.0740   14.6470    2.3190 O.3    19  U19        -0.3114
    395  C4'       -6.7520   15.3700    0.7000 C.3    19  U19         0.1773
    396  O4'       -7.8390   15.5640    1.6390 O.3    19  U19        -0.3307
    397  C3'       -6.1080   16.7450    0.5810 C.3    19  U19         0.1860
    398  O3'       -6.8430   17.5900   -0.3060 O.3    19  U19        -0.3112
    399  C2'       -6.2810   17.2630    2.0030 C.3    19  U19         0.2309
    400  O2'       -6.1530   18.6680    2.0670 O.3    19  U19        -0.2156
    401  C1'       -7.7320   16.8510    2.2180 C.3    19  U19         0.2420
    402  N1        -8.1730   16.7220    3.6270 N.ar   19  U19        -0.2534
    403  C2        -9.4980   16.9550    3.9160 C.ar   19  U19         0.3546
    404  O2       -10.3110   17.2730    3.0660 O.2    19  U19        -0.2443
    405  N3        -9.8380   16.8030    5.2370 N.ar   19  U19        -0.1530
    406  C4        -8.9960   16.4430    6.2740 C.ar   19  U19         0.2846
    407  O4        -9.4420   16.3470    7.4140 O.2    19  U19        -0.2650
    408  C5        -7.6270   16.2140    5.8900 C.ar   19  U19         0.0814
    409  C6        -7.2750   16.3560    4.6070 C.ar   19  U19         0.0870
    410  OP1       -3.6200   12.6340    2.1020 O.2    19  U19        -0.5172
    411  OP2       -3.2240   14.3260    3.9790 O.co2  19  U19        -0.4373
    412  P         -7.4590   17.0910   -1.7000 P.3    20  C20         0.2141
    413  C5'       -9.7800   16.8900   -0.5320 C.3    20  C20         0.1812
    414  O5'       -8.7410   16.2380   -1.2590 O.3    20  C20        -0.3114
    415  C4'      -11.1340   16.2390   -0.7500 C.3    20  C20         0.1773
    416  O4'      -11.0520   14.8210   -0.4540 O.3    20  C20        -0.3307
    417  C3'      -12.2340   16.7800    0.1520 C.3    20  C20         0.1860
    418  O3'      -12.8800   17.8810   -0.4730 O.3    20  C20        -0.3112
    419  C2'      -13.1700   15.5820    0.2710 C.3    20  C20         0.2309
    420  O2'      -14.0430   15.4690   -0.8350 O.3    20  C20        -0.2156
    421  C1'      -12.1890   14.4140    0.2850 C.3    20  C20         0.2420
    422  N1       -11.7350   14.0160    1.6480 N.ar   20  C20        -0.2535
    423  C2       -12.6530   13.5060    2.5760 C.ar   20  C20         0.3532
    424  O2       -13.8430   13.3950    2.2570 O.2    20  C20        -0.2443
    425  N3       -12.2090   13.1500    3.8060 N.ar   20  C20        -0.1739
    426  C4       -10.9190   13.2840    4.1170 C.ar   20  C20         0.1759
    427  N4       -10.5280   12.9200    5.3430 N.pl3  20  C20        -0.1070
    428  C5        -9.9700   13.7980    3.1850 C.ar   20  C20         0.0566
    429  C6       -10.4180   14.1470    1.9750 C.ar   20  C20         0.0850
    430  OP1       -6.4760   16.1860   -2.3380 O.3    20  C20        -0.4373
    431  OP2       -7.9350   18.2860   -2.4280 O.co2  20  C20        -0.5172
    432  P        -13.3180   19.1580    0.3870 P.3    21  A21         0.2141
    433  C5'      -15.6930   18.1140    0.7260 C.3    21  A21         0.1812
    434  O5'      -14.4890   18.5840    1.3130 O.3    21  A21        -0.3114
    435  C4'      -16.5090   17.3360    1.7420 C.3    21  A21         0.1773
    436  O4'      -15.7260   16.2310    2.2590 O.3    21  A21        -0.3307
    437  C3'      -16.9010   18.1160    2.9850 C.3    21  A21         0.1860
    438  O3'      -18.0580   18.8980    2.7310 O.3    21  A21        -0.3112
    439  C2'      -17.2060   16.9790    3.9520 C.3    21  A21         0.2309
    440  O2'      -18.4930   16.4370    3.7360 O.3    21  A21        -0.2156
    441  C1'      -16.1400   15.9480    3.5840 C.3    21  A21         0.2408
    442  N1       -14.3910   15.4040    8.3930 N.ar   21  A21        -0.2040
    443  C2       -15.6190   15.3080    7.8720 C.ar   21  A21         0.2016
    444  N3       -16.0060   15.4620    6.6070 N.ar   21  A21        -0.2048
    445  C4       -14.9590   15.7500    5.8190 C.ar   21  A21         0.1692
    446  C5       -13.6390   15.8820    6.2080 C.ar   21  A21         0.1518
    447  C6       -13.3580   15.6950    7.5760 C.ar   21  A21         0.1919
    448  N6       -12.1300   15.7910    8.0960 N.pl3  21  A21        -0.1054
    449  N7       -12.8350   16.1840    5.1210 N.ar   21  A21        -0.2193
    450  C8       -13.6750   16.2280    4.1120 C.ar   21  A21         0.1816
    451  N9       -14.9720   15.9740    4.4610 N.ar   21  A21        -0.2693
    452  OP1      -13.9100   20.1470   -0.5420 O.2    21  A21        -0.5172
    453  OP2      -12.1760   19.5450    1.2460 O.co2  21  A21        -0.4373
    454  P        -18.0510   20.4650    3.0560 P.3    22  C22         0.2141
    455  C5'      -18.6740   20.0040    5.5680 C.3    22  C22         0.1812
    456  O5'      -17.7400   20.5130    4.6240 O.3    22  C22        -0.3114
    457  C4'      -17.9950   19.7780    6.9060 C.3    22  C22         0.1773
    458  O4'      -16.9610   18.7760    6.7500 O.3    22  C22        -0.3307
    459  C3'      -17.2580   20.9850    7.4710 C.3    22  C22         0.1860
    460  O3'      -18.1380   21.8340    8.1960 O.3    22  C22        -0.3112
    461  C2'      -16.2460   20.3150    8.3920 C.3    22  C22         0.2309
    462  O2'      -16.8230   19.8940    9.6120 O.3    22  C22        -0.2156
    463  C1'      -15.8430   19.1030    7.5570 C.3    22  C22         0.2420
    464  N1       -14.6640   19.3540    6.6750 N.ar   22  C22        -0.2535
    465  C2       -13.3720   19.2780    7.2080 C.ar   22  C22         0.3532
    466  O2       -13.2270   19.0040    8.4050 O.2    22  C22        -0.2443
    467  N3       -12.3110   19.5100    6.3940 N.ar   22  C22        -0.1739
    468  C4       -12.5090   19.8030    5.1070 C.ar   22  C22         0.1759
    469  N4       -11.4350   20.0230    4.3420 N.pl3  22  C22        -0.1070
    470  C5       -13.8180   19.8860    4.5470 C.ar   22  C22         0.0566
    471  C6       -14.8550   19.6570    5.3590 C.ar   22  C22         0.0850
    472  OP1      -19.4240   20.9740    2.8450 O.3    22  C22        -0.4373
    473  OP2      -16.9190   21.0760    2.3230 O.co2  22  C22        -0.5172
    474  P        -17.7910   23.3920    8.3050 P.3    23  A23         0.2141
    475  C5'      -16.8540   22.9300   10.7000 C.3    23  A23         0.1812
    476  O5'      -16.6120   23.4140    9.3860 O.3    23  A23        -0.3114
    477  C4'      -15.5600   22.8390   11.4870 C.3    23  A23         0.1773
    478  O4'      -14.6960   21.8280   10.9090 O.3    23  A23        -0.3307
    479  C3'      -14.7110   24.1000   11.4840 C.3    23  A23         0.1860
    480  O3'      -15.1790   25.0220   12.4620 O.3    23  A23        -0.3112
    481  C2'      -13.3510   23.5200   11.8520 C.3    23  A23         0.2309
    482  O2'      -13.2530   23.2140   13.2290 O.3    23  A23        -0.2156
    483  C1'      -13.3450   22.2370   11.0250 C.3    23  A23         0.2408
    484  N1        -9.1020   22.4470    8.0990 N.ar   23  A23        -0.2040
    485  C2        -9.2710   22.2250    9.4080 C.ar   23  A23         0.2016
    486  N3       -10.4030   22.1810   10.1100 N.ar   23  A23        -0.2048
    487  C4       -11.4660   22.4010    9.3200 C.ar   23  A23         0.1692
    488  C5       -11.4490   22.6450    7.9590 C.ar   23  A23         0.1518
    489  C6       -10.1890   22.6650    7.3290 C.ar   23  A23         0.1919
    490  N6       -10.0240   22.8890    6.0190 N.pl3  23  A23        -0.1054
    491  N7       -12.7350   22.8270    7.4770 N.ar   23  A23        -0.2193
    492  C8       -13.4920   22.6920    8.5400 C.ar   23  A23         0.1816
    493  N9       -12.7940   22.4310    9.6870 N.ar   23  A23        -0.2693
    494  OP1      -18.9620   24.0870    8.8840 O.3    23  A23        -0.4373
    495  OP2      -17.2510   23.8260    6.9980 O.co2  23  A23        -0.5172
    496  P        -14.6600   26.5390   12.4360 P.3    24  G24         0.2141
    497  C5'      -12.1300   27.2610   12.4370 C.3    24  G24         0.1812
    498  O5'      -13.1370   26.3700   12.8970 O.3    24  G24        -0.3114
    499  C4'      -10.7560   26.7440   12.8260 C.3    24  G24         0.1773
    500  O4'      -10.4810   25.5020   12.1260 O.3    24  G24        -0.3307
    501  C3'       -9.5980   27.6530   12.4510 C.3    24  G24         0.1860
    502  O3'       -9.3990   28.6420   13.4510 O.3    24  G24        -0.3112
    503  C2'       -8.4470   26.6550   12.3900 C.3    24  G24         0.2309
    504  O2'       -7.9860   26.2620   13.6660 O.3    24  G24        -0.2156
    505  C1'       -9.1340   25.4860   11.6930 C.3    24  G24         0.2408
    506  N1        -6.2050   25.8750    7.5640 N.ar   24  G24        -0.1709
    507  C2        -5.8380   25.7260    8.8810 C.ar   24  G24         0.2606
    508  N2        -4.5210   25.6720    9.1350 N.pl3  24  G24        -0.0859
    509  N3        -6.7020   25.6330    9.8820 N.ar   24  G24        -0.1918
    510  C4        -7.9840   25.7010    9.4510 C.ar   24  G24         0.1723
    511  C5        -8.4490   25.8500    8.1660 C.ar   24  G24         0.1748
    512  C6        -7.5190   25.9480    7.1050 C.ar   24  G24         0.3023
    513  O6        -7.7490   26.0840    5.8970 O.2    24  G24        -0.2633
    514  N7        -9.8370   25.8800    8.1440 N.ar   24  G24        -0.2173
    515  C8       -10.1780   25.7500    9.3950 C.ar   24  G24         0.1817
    516  N9        -9.1050   25.6330   10.2430 N.ar   24  G24        -0.2693
    517  OP1      -15.3830   27.2830   13.4930 O.3    24  G24        -0.4373
    518  OP2      -14.7020   27.0300   11.0410 O.co2  24  G24        -0.5172
    519  P         -9.1240   30.1570   13.0140 P.3    25  G25         0.2141
    520  C5'       -6.5530   29.8290   13.3610 C.3    25  G25         0.1812
    521  O5'       -7.6230   30.0970   12.4670 O.3    25  G25        -0.3114
    522  C4'       -5.2250   29.8880   12.6280 C.3    25  G25         0.1773
    523  O4'       -5.1000   28.7390   11.7520 O.3    25  G25        -0.3307
    524  C3'       -5.0470   31.0850   11.7050 C.3    25  G25         0.1860
    525  O3'       -4.5840   32.2150   12.4230 O.3    25  G25        -0.3112
    526  C2'       -3.9750   30.5520   10.7640 C.3    25  G25         0.2309
    527  O2'       -2.6920   30.5270   11.3570 O.3    25  G25        -0.2156
    528  C1'       -4.5050   29.1410   10.5340 C.3    25  G25         0.2408
    529  N1        -5.3840   29.6630    5.5690 N.ar   25  G25        -0.1709
    530  C2        -4.1930   29.7040    6.2580 C.ar   25  G25         0.2606
    531  N2        -3.0870   29.9160    5.5320 N.pl3  25  G25        -0.0859
    532  N3        -4.0890   29.5490    7.5720 N.ar   25  G25        -0.1918
    533  C4        -5.2990   29.3470    8.1490 C.ar   25  G25         0.1723
    534  C5        -6.5390   29.2900    7.5530 C.ar   25  G25         0.1748
    535  C6        -6.6350   29.4560    6.1500 C.ar   25  G25         0.3023
    536  O6        -7.6540   29.4350    5.4440 O.2    25  G25        -0.2633
    537  N7        -7.5280   29.0600    8.5000 N.ar   25  G25        -0.2173
    538  C8        -6.8790   28.9870    9.6320 C.ar   25  G25         0.1817
    539  N9        -5.5220   29.1460    9.4900 N.ar   25  G25        -0.2693
    540  OP1       -9.1240   30.9910   14.2370 O.3    25  G25        -0.4373
    541  OP2      -10.0310   30.4850   11.8930 O.co2  25  G25        -0.5172
    542  P         -4.9430   33.6870   11.9030 P.3    26  C26         0.2141
    543  C5'       -2.7410   33.8950   10.4860 C.3    26  C26         0.1812
    544  O5'       -4.1590   33.7770   10.5110 O.3    26  C26        -0.3114
    545  C4'       -2.2690   34.3960    9.1330 C.3    26  C26         0.1773
    546  O4'       -2.5100   33.3860    8.1180 O.3    26  C26        -0.3307
    547  C3'       -2.9890   35.6280    8.5980 C.3    26  C26         0.1860
    548  O3'       -2.4440   36.8160    9.1560 O.3    26  C26        -0.3112
    549  C2'       -2.6520   35.5120    7.1190 C.3    26  C26         0.2309
    550  O2'       -1.2960   35.8110    6.8650 O.3    26  C26        -0.2156
    551  C1'       -2.8660   34.0190    6.9010 C.3    26  C26         0.2420
    552  N1        -4.2640   33.6330    6.5360 N.ar   26  C26        -0.2535
    553  C2        -4.6800   33.7470    5.2030 C.ar   26  C26         0.3532
    554  O2        -3.8820   34.1760    4.3600 O.2    26  C26        -0.2443
    555  N3        -5.9460   33.3830    4.8760 N.ar   26  C26        -0.1739
    556  C4        -6.7730   32.9240    5.8170 C.ar   26  C26         0.1759
    557  N4        -8.0120   32.5790    5.4490 N.pl3  26  C26        -0.1070
    558  C5        -6.3670   32.8000    7.1800 C.ar   26  C26         0.0566
    559  C6        -5.1170   33.1610    7.4910 C.ar   26  C26         0.0850
    560  OP1       -4.3250   34.6440   12.8480 O.3    26  C26        -0.4373
    561  OP2       -6.3970   33.7530   11.6320 O.co2  26  C26        -0.5172
    562  P         -3.3830   38.0920    9.3860 P.3    27  U27         0.2141
    563  C5'       -2.4420   39.2540    7.2410 C.3    27  U27         0.1812
    564  O5'       -3.5560   38.7000    7.9200 O.3    27  U27        -0.3114
    565  C4'       -2.8170   39.5440    5.8010 C.3    27  U27         0.1773
    566  O4'       -3.1520   38.3040    5.1260 O.3    27  U27        -0.3307
    567  C3'       -4.0580   40.4030    5.6230 C.3    27  U27         0.1860
    568  O3'       -3.7410   41.7850    5.7920 O.3    27  U27        -0.3112
    569  C2'       -4.4090   40.0680    4.1790 C.3    27  U27         0.2309
    570  O2'       -3.5670   40.7300    3.2570 O.3    27  U27        -0.2156
    571  C1'       -4.1320   38.5670    4.1390 C.3    27  U27         0.2420
    572  N1        -5.3420   37.7300    4.3950 N.ar   27  U27        -0.2534
    573  C2        -6.1060   37.3300    3.3200 C.ar   27  U27         0.3546
    574  O2        -5.8350   37.6270    2.1710 O.2    27  U27        -0.2443
    575  N3        -7.2020   36.5660    3.6350 N.ar   27  U27        -0.1530
    576  C4        -7.6020   36.1690    4.8960 C.ar   27  U27         0.2846
    577  O4        -8.6110   35.4820    5.0240 O.2    27  U27        -0.2650
    578  C5        -6.7550   36.6280    5.9680 C.ar   27  U27         0.0814
    579  C6        -5.6810   37.3740    5.6840 C.ar   27  U27         0.0870
    580  OP1       -2.6130   39.0710   10.1870 O.3    27  U27        -0.4373
    581  OP2       -4.7070   37.6200    9.8520 O.co2  27  U27        -0.5172
    582  P         -4.8070   42.7900    6.4450 P.3    28  G28         0.2141
    583  C5'       -5.6970   43.5220    4.0990 C.3    28  G28         0.1812
    584  O5'       -5.9570   42.8850    5.3400 O.3    28  G28        -0.3114
    585  C4'       -6.8230   43.2380    3.1260 C.3    28  G28         0.1773
    586  O4'       -6.9240   41.8060    2.8960 O.3    28  G28        -0.3307
    587  C3'       -8.2100   43.6210    3.6170 C.3    28  G28         0.1860
    588  O3'       -8.4470   45.0200    3.4640 O.3    28  G28        -0.3112
    589  C2'       -9.0600   42.7930    2.6630 C.3    28  G28         0.2309
    590  O2'       -9.1120   43.3530    1.3680 O.3    28  G28        -0.2156
    591  C1'       -8.2810   41.4790    2.6500 C.3    28  G28         0.2408
    592  N1       -11.3900   37.6060    3.7090 N.ar   28  G28        -0.1709
    593  C2       -11.1750   38.2510    2.5140 C.ar   28  G28         0.2606
    594  N2       -11.8810   37.8130    1.4610 N.pl3  28  G28        -0.0859
    595  N3       -10.3280   39.2570    2.3590 N.ar   28  G28        -0.1918
    596  C4        -9.7010   39.5730    3.5170 C.ar   28  G28         0.1723
    597  C5        -9.8450   38.9930    4.7560 C.ar   28  G28         0.1748
    598  C6       -10.7530   37.9190    4.9090 C.ar   28  G28         0.3023
    599  O6       -11.0160   37.2770    5.9340 O.2    28  G28        -0.2633
    600  N7        -9.0180   39.6110    5.6880 N.ar   28  G28        -0.2173
    601  C8        -8.4020   40.5370    5.0050 C.ar   28  G28         0.1817
    602  N9        -8.7630   40.5670    3.6800 N.ar   28  G28        -0.2693
    603  OP1       -4.1640   44.1200    6.5390 O.2    28  G28        -0.5172
    604  OP2       -5.3740   42.1570    7.6540 O.co2  28  G28        -0.4373
    605  P         -9.3520   45.7920    4.5380 P.3    29  A29         0.2141
    606  C5'      -11.9360   45.8130    4.9150 C.3    29  A29         0.1812
    607  O5'      -10.8460   45.4610    4.0770 O.3    29  A29        -0.3114
    608  C4'      -13.2440   45.4110    4.2650 C.3    29  A29         0.1773
    609  O4'      -13.4260   46.1760    3.0510 O.3    29  A29        -0.3307
    610  C3'      -13.3050   43.9580    3.8230 C.3    29  A29         0.1860
    611  O3'      -13.7380   43.1520    4.9120 O.3    29  A29        -0.3112
    612  C2'      -14.3410   44.0150    2.7030 C.3    29  A29         0.2309
    613  O2'      -15.6640   43.9650    3.1940 O.3    29  A29        -0.2156
    614  C1'      -14.0970   45.3900    2.0850 C.3    29  A29         0.2408
    615  N1       -13.6540   43.8500   -2.8400 N.ar   29  A29        -0.2040
    616  C2       -14.5960   43.6180   -1.9190 C.ar   29  A29         0.2016
    617  N3       -14.6560   44.0420   -0.6560 N.ar   29  A29        -0.2048
    618  C4       -13.5900   44.7990   -0.3490 C.ar   29  A29         0.1692
    619  C5       -12.5430   45.1240   -1.1910 C.ar   29  A29         0.1518
    620  C6       -12.5940   44.6130   -2.5030 C.ar   29  A29         0.1919
    621  N6       -11.6490   44.8490   -3.4190 N.pl3  29  A29        -0.1054
    622  N7       -11.6180   45.9190   -0.5370 N.ar   29  A29        -0.2193
    623  C8       -12.1150   46.0580    0.6690 C.ar   29  A29         0.1816
    624  N9       -13.3030   45.4080    0.8560 N.ar   29  A29        -0.2693
    625  OP1       -9.1360   47.2430    4.3520 O.2    29  A29        -0.5172
    626  OP2       -9.1180   45.1660    5.8590 O.co2  29  A29        -0.4373
    627  P        -13.0980   41.7030    5.1570 P.3    30  G30         0.2141
    628  C5'      -15.2080   40.6890    4.0120 C.3    30  G30         0.1812
    629  O5'      -13.7960   40.8320    4.0150 O.3    30  G30        -0.3114
    630  C4'      -15.6670   40.1410    2.6770 C.3    30  G30         0.1773
    631  O4'      -15.3660   41.1130    1.6480 O.3    30  G30        -0.3307
    632  C3'      -14.9730   38.8540    2.2530 C.3    30  G30         0.1860
    633  O3'      -15.7520   37.7480    2.6710 O.3    30  G30        -0.3112
    634  C2'      -14.9840   38.9580    0.7340 C.3    30  G30         0.2309
    635  O2'      -16.2090   38.5060    0.1980 O.3    30  G30        -0.2156
    636  C1'      -14.8700   40.4590    0.4950 C.3    30  G30         0.2408
    637  N1       -11.3560   41.4770   -3.0430 N.ar   30  G30        -0.1709
    638  C2       -12.6160   40.9470   -3.1960 C.ar   30  G30         0.2606
    639  N2       -12.9930   40.6520   -4.4480 N.pl3  30  G30        -0.0859
    640  N3       -13.4500   40.7200   -2.1890 N.ar   30  G30        -0.1918
    641  C4       -12.9130   41.0750   -0.9960 C.ar   30  G30         0.1723
    642  C5       -11.6710   41.6130   -0.7420 C.ar   30  G30         0.1748
    643  C6       -10.7900   41.8500   -1.8240 C.ar   30  G30         0.3023
    644  O6        -9.6450   42.3220   -1.7890 O.2    30  G30        -0.2633
    645  N7       -11.5000   41.8370    0.6180 N.ar   30  G30        -0.2173
    646  C8       -12.6220   41.4370    1.1510 C.ar   30  G30         0.1817
    647  N9       -13.5240   40.9590    0.2320 N.ar   30  G30        -0.2693
    648  OP1      -13.5860   41.2040    6.4620 O.3    30  G30        -0.4373
    649  OP2      -11.6430   41.7790    4.8980 O.co2  30  G30        -0.5172
    650  P        -15.0660   36.4760    3.3520 P.3    31  A31         0.2141
    651  C5'      -14.8280   35.3810    0.9890 C.3    31  A31         0.1812
    652  O5'      -14.1930   35.8530    2.1680 O.3    31  A31        -0.3114
    653  C4'      -13.9080   34.4010    0.2890 C.3    31  A31         0.1773
    654  O4'      -12.6530   35.0590   -0.0230 O.3    31  A31        -0.3307
    655  C3'      -13.5460   33.1820    1.1340 C.3    31  A31         0.1860
    656  O3'      -13.8770   31.9800    0.4480 O.3    31  A31        -0.3112
    657  C2'      -12.0420   33.3070    1.3580 C.3    31  A31         0.2309
    658  O2'      -11.3900   32.0500    1.3880 O.3    31  A31        -0.2156
    659  C1'      -11.6340   34.0960    0.1230 C.3    31  A31         0.2408
    660  N1        -7.5300   36.0040   -2.3290 N.ar   31  A31        -0.2040
    661  C2        -8.6500   35.4240   -2.7770 C.ar   31  A31         0.2016
    662  N3        -9.6840   34.9490   -2.0840 N.ar   31  A31        -0.2048
    663  C4        -9.4910   35.1160   -0.7670 C.ar   31  A31         0.1692
    664  C5        -8.3950   35.6940   -0.1550 C.ar   31  A31         0.1518
    665  C6        -7.3640   36.1580   -0.9980 C.ar   31  A31         0.1919
    666  N6        -6.2450   36.7340   -0.5490 N.pl3  31  A31        -0.1054
    667  N7        -8.5470   35.6890    1.2230 N.ar   31  A31        -0.2193
    668  C8        -9.7150   35.1220    1.4110 C.ar   31  A31         0.1816
    669  N9       -10.3380   34.7530    0.2540 N.ar   31  A31        -0.2693
    670  OP1      -16.1420   35.5110    3.6670 O.2    31  A31        -0.5172
    671  OP2      -14.1540   36.9570    4.4140 O.co2  31  A31        -0.4373
    672  P        -15.2130   31.1930    0.8420 P.3    32  A32         0.2141
    673  C5'      -16.6170   32.2830   -1.0930 C.3    32  A32         0.1812
    674  O5'      -16.3820   32.1470    0.3060 O.3    32  A32        -0.3114
    675  C4'      -18.1050   32.2310   -1.3950 C.3    32  A32         0.1773
    676  O4'      -18.3300   32.5610   -2.7920 O.3    32  A32        -0.3307
    677  C3'      -18.7430   30.8590   -1.2080 C.3    32  A32         0.1860
    678  O3'      -20.1350   30.9920   -0.9450 O.3    32  A32        -0.3112
    679  C2'      -18.5320   30.2590   -2.5910 C.3    32  A32         0.2309
    680  O2'      -19.3700   29.1470   -2.8410 O.3    32  A32        -0.2156
    681  C1'      -18.9700   31.4610   -3.4160 C.3    32  A32         0.2408
    682  N1       -15.3510   30.4200   -6.9610 N.ar   32  A32        -0.2040
    683  C2       -15.3330   30.3510   -5.6250 C.ar   32  A32         0.2016
    684  N3       -16.3030   30.6340   -4.7560 N.ar   32  A32        -0.2048
    685  C4       -17.4140   31.0340   -5.3930 C.ar   32  A32         0.1692
    686  C5       -17.5840   31.1550   -6.7600 C.ar   32  A32         0.1518
    687  C6       -16.4820   30.8260   -7.5740 C.ar   32  A32         0.1919
    688  N6       -16.5070   30.8960   -8.9090 N.pl3  32  A32        -0.1054
    689  N7       -18.8610   31.5950   -7.0600 N.ar   32  A32        -0.2193
    690  C8       -19.4290   31.7290   -5.8850 C.ar   32  A32         0.1816
    691  N9       -18.6140   31.4100   -4.8340 N.ar   32  A32        -0.2693
    692  OP1      -15.2940   31.1720    2.3200 O.3    32  A32        -0.4373
    693  OP2      -15.2330   29.9230    0.0840 O.co2  32  A32        -0.5172
    694  P        -20.6870   31.1460    0.5480 P.3    33  A33         0.2141
    695  C5'      -19.8080   32.7400    2.4340 C.3    33  A33         0.1812
    696  O5'      -20.0240   32.5140    1.0460 O.3    33  A33        -0.3114
    697  C4'      -19.4160   34.1830    2.6950 C.3    33  A33         0.1773
    698  O4'      -18.4700   34.6200    1.6890 O.3    33  A33        -0.3307
    699  C3'      -20.5690   35.1740    2.6310 C.3    33  A33         0.1860
    700  O3'      -21.1170   35.3360    3.9320 O.3    33  A33        -0.3112
    701  C2'      -19.8850   36.4540    2.1620 C.3    33  A33         0.2309
    702  O2'      -19.3060   37.1510    3.2460 O.3    33  A33        -0.2156
    703  C1'      -18.7790   35.9310    1.2480 C.3    33  A33         0.2408
    704  N1       -22.3540   35.1540   -2.4380 N.ar   33  A33        -0.2040
    705  C2       -22.4470   35.1580   -1.1040 C.ar   33  A33         0.2016
    706  N3       -21.4940   35.3660   -0.1980 N.ar   33  A33        -0.2048
    707  C4       -20.3090   35.5960   -0.7850 C.ar   33  A33         0.1692
    708  C5       -20.0600   35.6210   -2.1450 C.ar   33  A33         0.1518
    709  C6       -21.1520   35.3850   -3.0050 C.ar   33  A33         0.1919
    710  N6       -21.0510   35.3810   -4.3400 N.pl3  33  A33        -0.1054
    711  N7       -18.7260   35.8870   -2.3950 N.ar   33  A33        -0.2193
    712  C8       -18.2020   36.0140   -1.2010 C.ar   33  A33         0.1816
    713  N9       -19.0960   35.8540   -0.1800 N.ar   33  A33        -0.2693
    714  OP1      -20.1250   30.0430    1.3610 O.3    33  A33        -0.4373
    715  OP2      -22.1530   31.3270    0.4610 O.co2  33  A33        -0.5172
    716  P        -22.6400   34.9430    4.2240 P.3    34  G34         0.2141
    717  C5'      -23.5720   37.2800    3.4880 C.3    34  G34         0.1812
    718  O5'      -23.3230   36.3540    4.5360 O.3    34  G34        -0.3114
    719  C4'      -23.2050   38.6790    3.9440 C.3    34  G34         0.1773
    720  O4'      -21.7610   38.8000    3.9370 O.3    34  G34        -0.3307
    721  C3'      -23.7260   39.8000    3.0560 C.3    34  G34         0.1860
    722  O3'      -24.9600   40.2770    3.5770 O.3    34  G34        -0.3112
    723  C2'      -22.6410   40.8680    3.1600 C.3    34  G34         0.2309
    724  O2'      -22.8760   41.7570    4.2360 O.3    34  G34        -0.2156
    725  C1'      -21.3710   40.0590    3.4230 C.3    34  G34         0.2408
    726  N1       -21.0830   39.0500   -1.5970 N.ar   34  G34        -0.1709
    727  C2       -22.2000   39.1850   -0.8080 C.ar   34  G34         0.2606
    728  N2       -23.3820   39.0380   -1.4210 N.pl3  34  G34        -0.0859
    729  N3       -22.1630   39.4500    0.4910 N.ar   34  G34        -0.1918
    730  C4       -20.8950   39.5710    0.9540 C.ar   34  G34         0.1723
    731  C5       -19.7190   39.4520    0.2440 C.ar   34  G34         0.1748
    732  C6       -19.7720   39.1700   -1.1420 C.ar   34  G34         0.3023
    733  O6       -18.8270   39.0310   -1.9320 O.2    34  G34        -0.2633
    734  N7       -18.6210   39.6420    1.0720 N.ar   34  G34        -0.2173
    735  C8       -19.1420   39.8700    2.2450 C.ar   34  G34         0.1817
    736  N9       -20.5160   39.8410    2.2540 N.ar   34  G34        -0.2693
    737  OP1      -22.6580   34.1430    5.4690 O.3    34  G34        -0.4373
    738  OP2      -23.2200   34.3920    2.9770 O.co2  34  G34        -0.5172
    739  P        -26.2990   40.1440    2.7130 P.3    35  U35         0.2141
    740  C5'      -26.1710   42.5560    1.7410 C.3    35  U35         0.1812
    741  O5'      -26.0440   41.1610    1.5070 O.3    35  U35        -0.3114
    742  C4'      -25.1570   43.3350    0.9260 C.3    35  U35         0.1773
    743  O4'      -25.3720   43.1070   -0.4910 O.3    35  U35        -0.3307
    744  C3'      -25.2110   44.8470    1.1320 C.3    35  U35         0.1860
    745  O3'      -23.8980   45.3640    1.2930 O.3    35  U35        -0.3112
    746  C2'      -25.8460   45.3530   -0.1580 C.3    35  U35         0.2309
    747  O2'      -25.4260   46.6600   -0.4900 O.3    35  U35        -0.2156
    748  C1'      -25.2790   44.3510   -1.1520 C.3    35  U35         0.2420
    749  N1       -26.0280   44.2960   -2.4350 N.ar   35  U35        -0.2534
    750  C2       -27.2780   43.7150   -2.4740 C.ar   35  U35         0.3546
    751  O2       -27.8200   43.2300   -1.4980 O.2    35  U35        -0.2443
    752  N3       -27.8780   43.7210   -3.7080 N.ar   35  U35        -0.1530
    753  C4       -27.3640   44.2390   -4.8820 C.ar   35  U35         0.2846
    754  O4       -28.0190   44.1720   -5.9170 O.2    35  U35        -0.2650
    755  C5       -26.0570   44.8290   -4.7580 C.ar   35  U35         0.0814
    756  C6       -25.4510   44.8340   -3.5660 C.ar   35  U35         0.0870
    757  OP1      -27.4120   40.6890    3.5260 O.3    35  U35        -0.4373
    758  OP2      -26.3680   38.7640    2.1830 O.co2  35  U35        -0.5172
    759  P        -23.0580   45.0850    2.6270 P.3    36  C36         0.2141
    760  C5'      -20.5820   44.3110    2.9120 C.3    36  C36         0.1812
    761  O5'      -21.7080   44.4440    2.0560 O.3    36  C36        -0.3114
    762  C4'      -19.3100   44.1700    2.0990 C.3    36  C36         0.1773
    763  O4'      -19.2830   42.8700    1.4570 O.3    36  C36        -0.3307
    764  C3'      -19.1620   45.1640    0.9550 C.3    36  C36         0.1860
    765  O3'      -18.6000   46.3770    1.4180 O.3    36  C36        -0.3112
    766  C2'      -18.1750   44.4220    0.0680 C.3    36  C36         0.2309
    767  O2'      -16.8650   44.4800    0.5930 O.3    36  C36        -0.2156
    768  C1'      -18.7000   42.9960    0.1740 C.3    36  C36         0.2420
    769  N1       -19.7160   42.6490   -0.8580 N.ar   36  C36        -0.2535
    770  C2       -19.2930   42.3910   -2.1650 C.ar   36  C36         0.3532
    771  O2       -18.0870   42.4650   -2.4300 O.2    36  C36        -0.2443
    772  N3       -20.2150   42.0700   -3.1050 N.ar   36  C36        -0.1739
    773  C4       -21.5050   42.0010   -2.7760 C.ar   36  C36         0.1759
    774  N4       -22.3760   41.6790   -3.7390 N.pl3  36  C36        -0.1070
    775  C5       -21.9570   42.2610   -1.4480 C.ar   36  C36         0.0566
    776  C6       -21.0370   42.5760   -0.5290 C.ar   36  C36         0.0850
    777  OP1      -23.7590   44.0550    3.4230 O.3    36  C36        -0.4373
    778  OP2      -22.7370   46.3950    3.2380 O.co2  36  C36        -0.5172
    779  P        -18.8930   47.7360    0.6250 P.3    37  C37         0.2141
    780  C5'      -16.6130   47.5510   -0.6620 C.3    37  C37         0.1812
    781  O5'      -18.0350   47.5730   -0.7160 O.3    37  C37        -0.3114
    782  C4'      -16.0390   47.1940   -2.0210 C.3    37  C37         0.1773
    783  O4'      -16.4730   45.8620   -2.3910 O.3    37  C37        -0.3307
    784  C3'      -16.5210   48.0650   -3.1700 C.3    37  C37         0.1860
    785  O3'      -15.7640   49.2580   -3.2480 O.3    37  C37        -0.3112
    786  C2'      -16.2440   47.1540   -4.3600 C.3    37  C37         0.2309
    787  O2'      -14.8770   47.1270   -4.7170 O.3    37  C37        -0.2156
    788  C1'      -16.6660   45.8020   -3.7930 C.3    37  C37         0.2420
    789  N1       -18.0910   45.4950   -4.0930 N.ar   37  C37        -0.2535
    790  C2       -18.4110   45.0120   -5.3620 C.ar   37  C37         0.3532
    791  O2       -17.5000   44.8490   -6.1810 O.2    37  C37        -0.2443
    792  N3       -19.7050   44.7350   -5.6540 N.ar   37  C37        -0.1739
    793  C4       -20.6510   44.9260   -4.7350 C.ar   37  C37         0.1759
    794  N4       -21.9110   44.6350   -5.0730 N.pl3  37  C37        -0.1070
    795  C5       -20.3450   45.4210   -3.4320 C.ar   37  C37         0.0566
    796  C6       -19.0640   45.6920   -3.1580 C.ar   37  C37         0.0850
    797  OP1      -18.3020   48.8430    1.4080 O.3    37  C37        -0.4373
    798  OP2      -20.3260   47.7520    0.2600 O.co2  37  C37        -0.5172
    799  P        -16.4430   50.5750   -3.8520 P.3    38  C38         0.2141
    800  C5'      -15.2510   50.1390   -6.1330 C.3    38  C38         0.1812
    801  O5'      -16.4720   50.2820   -5.4220 O.3    38  C38        -0.3114
    802  C4'      -15.5070   49.5990   -7.5270 C.3    38  C38         0.1773
    803  O4'      -16.1870   48.3240   -7.4260 O.3    38  C38        -0.3307
    804  C3'      -16.4230   50.4520   -8.3900 C.3    38  C38         0.1860
    805  O3'      -15.6690   51.4560   -9.0470 O.3    38  C38        -0.3112
    806  C2'      -16.9290   49.4190   -9.3850 C.3    38  C38         0.2309
    807  O2'      -15.9610   49.1270  -10.3710 O.3    38  C38        -0.2156
    808  C1'      -17.1200   48.2060   -8.4850 C.3    38  C38         0.2420
    809  N1       -18.4870   48.0880   -7.9070 N.ar   38  C38        -0.2535
    810  C2       -19.5430   47.7090   -8.7400 C.ar   38  C38         0.3532
    811  O2       -19.3090   47.4930   -9.9340 O.2    38  C38        -0.2443
    812  N3       -20.7880   47.5930   -8.2160 N.ar   38  C38        -0.1739
    813  C4       -20.9890   47.8370   -6.9190 C.ar   38  C38         0.1759
    814  N4       -22.2340   47.7090   -6.4450 N.pl3  38  C38        -0.1070
    815  C5       -19.9230   48.2230   -6.0530 C.ar   38  C38         0.0566
    816  C6       -18.6990   48.3340   -6.5820 C.ar   38  C38         0.0850
    817  OP1      -15.5130   51.7030   -3.6130 O.2    38  C38        -0.5172
    818  OP2      -17.8350   50.6450   -3.3570 O.co2  38  C38        -0.4373
    819  P        -16.2870   52.9150   -9.2750 P.3    39  U39         0.2141
    820  C5'      -16.7670   52.2070  -11.7390 C.3    39  U39         0.1812
    821  O5'      -17.2790   52.7000  -10.5090 O.3    39  U39        -0.3114
    822  C4'      -17.8910   51.9440  -12.7230 C.3    39  U39         0.1773
    823  O4'      -18.6690   50.8050  -12.2820 O.3    39  U39        -0.3307
    824  C3'      -18.9130   53.0630  -12.8510 C.3    39  U39         0.1860
    825  O3'      -18.4440   54.0650  -13.7520 O.3    39  U39        -0.3112
    826  C2'      -20.1110   52.3100  -13.4210 C.3    39  U39         0.2309
    827  O2'      -20.0240   52.1500  -14.8230 O.3    39  U39        -0.2156
    828  C1'      -20.0000   50.9440  -12.7460 C.3    39  U39         0.2420
    829  N1       -20.9340   50.7500  -11.6000 N.ar   39  U39        -0.2534
    830  C2       -22.2560   50.4530  -11.8560 C.ar   39  U39         0.3546
    831  O2       -22.7080   50.3440  -12.9800 O.2    39  U39        -0.2443
    832  N3       -23.0390   50.2860  -10.7430 N.ar   39  U39        -0.1530
    833  C4       -22.6410   50.3830   -9.4240 C.ar   39  U39         0.2846
    834  O4       -23.4610   50.2040   -8.5290 O.2    39  U39        -0.2650
    835  C5       -21.2470   50.6940   -9.2360 C.ar   39  U39         0.0814
    836  C6       -20.4620   50.8610  -10.3080 C.ar   39  U39         0.0870
    837  OP1      -15.1780   53.7880   -9.7230 O.2    39  U39        -0.5172
    838  OP2      -17.0810   53.2730   -8.0790 O.co2  39  U39        -0.4373
    839  P        -18.9290   55.5850  -13.5920 P.3    40  U40         0.2141
    840  C5'      -16.6600   56.4810  -14.5230 C.3    40  U40         0.1812
    841  O5'      -18.0630   56.3510  -14.6950 O.3    40  U40        -0.3114
    842  C4'      -15.9430   56.2760  -15.8450 C.3    40  U40         0.1773
    843  O4'      -16.1240   54.9110  -16.3030 O.3    40  U40        -0.3307
    844  C3'      -16.4160   57.1710  -16.9890 C.3    40  U40         0.1860
    845  O3'      -15.2810   57.7040  -17.6610 O.3    40  U40        -0.3112
    846  C2'      -17.1950   56.2100  -17.8830 C.3    40  U40         0.2309
    847  O2'      -17.1880   56.6040  -19.2400 O.3    40  U40        -0.2156
    848  C1'      -16.3700   54.9460  -17.6920 C.3    40  U40         0.2420
    849  N1       -17.0560   53.6900  -18.1010 N.ar   40  U40        -0.2534
    850  C2       -16.8380   53.1850  -19.3650 C.ar   40  U40         0.3546
    851  O2       -16.1090   53.7170  -20.1810 O.2    40  U40        -0.2443
    852  N3       -17.5130   52.0250  -19.6490 N.ar   40  U40        -0.1530
    853  C4       -18.3650   51.3310  -18.8090 C.ar   40  U40         0.2846
    854  O4       -18.9020   50.2980  -19.2030 O.2    40  U40        -0.2650
    855  C5       -18.5390   51.9200  -17.5060 C.ar   40  U40         0.0814
    856  C6       -17.8920   53.0520  -17.2090 C.ar   40  U40         0.0870
    857  OP1      -18.4950   56.0650  -12.2610 O.3    40  U40        -0.4373
    858  OP2      -20.3590   55.6480  -13.9640 O.co2  40  U40        -0.5172
    859  P        -15.2020   59.2670  -17.9930 P.3    41  U41         0.2141
    860  C5'      -12.8510   59.3940  -16.8300 C.3    41  U41         0.1812
    861  O5'      -14.2100   59.8130  -16.8640 O.3    41  U41        -0.3114
    862  C4'      -12.2640   59.6400  -15.4510 C.3    41  U41         0.1773
    863  O4'      -12.5460   61.0020  -15.0410 O.3    41  U41        -0.3307
    864  C3'      -12.8210   58.7400  -14.3540 C.3    41  U41         0.1860
    865  O3'      -11.7980   58.3830  -13.4310 O.3    41  U41        -0.3112
    866  C2'      -13.8900   59.5960  -13.6830 C.3    41  U41         0.2309
    867  O2'      -14.0010   59.3210  -12.3000 O.3    41  U41        -0.2156
    868  C1'      -13.3750   61.0170  -13.8940 C.3    41  U41         0.2420
    869  N1       -14.4720   62.0000  -14.1200 N.ar   41  U41        -0.2534
    870  C2       -14.3910   63.2530  -13.5490 C.ar   41  U41         0.3546
    871  O2       -13.4530   63.6110  -12.8590 O.2    41  U41        -0.2443
    872  N3       -15.4540   64.0810  -13.8200 N.ar   41  U41        -0.1530
    873  C4       -16.5670   63.7830  -14.5880 C.ar   41  U41         0.2846
    874  O4       -17.4460   64.6250  -14.7450 O.2    41  U41        -0.2650
    875  C5       -16.5790   62.4560  -15.1470 C.ar   41  U41         0.0814
    876  C6       -15.5530   61.6340  -14.8960 C.ar   41  U41         0.0870
    877  OP1      -16.5370   59.8550  -17.7420 O.3    41  U41        -0.4373
    878  OP2      -14.5590   59.4170  -19.3170 O.co2  41  U41        -0.5172
    879  P        -10.7920   57.1780  -13.7450 P.3    42  G42         0.2141
    880  C5'      -12.5550   55.5690  -12.6540 C.3    42  G42         0.1812
    881  O5'      -11.7560   55.9010  -13.7820 O.3    42  G42        -0.3114
    882  C4'      -13.2040   54.2100  -12.8440 C.3    42  G42         0.1773
    883  O4'      -14.1830   54.2680  -13.9130 O.3    42  G42        -0.3307
    884  C3'      -12.2600   53.1000  -13.2810 C.3    42  G42         0.1860
    885  O3'      -11.5610   52.5590  -12.1720 O.3    42  G42        -0.3112
    886  C2'      -13.2610   52.1040  -13.8510 C.3    42  G42         0.2309
    887  O2'      -14.0120   51.4670  -12.8390 O.3    42  G42        -0.2156
    888  C1'      -14.1630   53.0470  -14.6340 C.3    42  G42         0.2408
    889  N1       -13.9950   51.4380  -19.4630 N.ar   42  G42        -0.1709
    890  C2       -14.5930   50.8510  -18.3750 C.ar   42  G42         0.2606
    891  N2       -15.2250   49.6890  -18.5990 N.pl3  42  G42        -0.0859
    892  N3       -14.5710   51.3640  -17.1510 N.ar   42  G42        -0.1918
    893  C4       -13.8910   52.5350  -17.1070 C.ar   42  G42         0.1723
    894  C5       -13.2620   53.1980  -18.1360 C.ar   42  G42         0.1748
    895  C6       -13.2920   52.6400  -19.4340 C.ar   42  G42         0.3023
    896  O6       -12.7890   53.0880  -20.4730 O.2    42  G42        -0.2633
    897  N7       -12.6750   54.3730  -17.6810 N.ar   42  G42        -0.2173
    898  C8       -12.9550   54.3980  -16.4070 C.ar   42  G42         0.1817
    899  N9       -13.6890   53.3140  -15.9880 N.ar   42  G42        -0.2693
    900  OP1       -9.8930   57.0420  -12.5770 O.3    42  G42        -0.4373
    901  OP2      -10.2200   57.3840  -15.0940 O.co2  42  G42        -0.5172
    902  P        -10.0920   51.9720  -12.4020 P.3    43  A43         0.2141
    903  C5'      -10.1250   49.9500  -10.7390 C.3    43  A43         0.1812
    904  O5'       -9.7500   51.2950  -11.0000 O.3    43  A43        -0.3114
    905  C4'       -8.9180   49.2290  -10.1760 C.3    43  A43         0.1773
    906  O4'       -7.9470   49.0730  -11.2410 O.3    43  A43        -0.3307
    907  C3'       -8.2070   49.9920   -9.0570 C.3    43  A43         0.1860
    908  O3'       -7.9860   49.1530   -7.9250 O.3    43  A43        -0.3112
    909  C2'       -6.8990   50.4570   -9.6970 C.3    43  A43         0.2309
    910  O2'       -5.8170   50.4920   -8.7880 O.3    43  A43        -0.2156
    911  C1'       -6.6650   49.3670  -10.7330 C.3    43  A43         0.2408
    912  N1        -3.9070   47.9400  -14.8510 N.ar   43  A43        -0.2040
    913  C2        -4.6570   47.2380  -13.9920 C.ar   43  A43         0.2016
    914  N3        -5.3510   47.6680  -12.9380 N.ar   43  A43        -0.2048
    915  C4        -5.2270   48.9990  -12.7940 C.ar   43  A43         0.1692
    916  C5        -4.4930   49.8550  -13.5920 C.ar   43  A43         0.1518
    917  C6        -3.8020   49.2760  -14.6760 C.ar   43  A43         0.1919
    918  N6        -3.0540   49.9830  -15.5290 N.pl3  43  A43        -0.1054
    919  N7        -4.5960   51.1640  -13.1390 N.ar   43  A43        -0.2193
    920  C8        -5.3800   51.0720  -12.0910 C.ar   43  A43         0.1816
    921  N9        -5.7950   49.7950  -11.8240 N.ar   43  A43        -0.2693
    922  OP1       -9.1570   53.1010  -12.5870 O.3    43  A43        -0.4373
    923  OP2      -10.1910   50.9250  -13.4420 O.co2  43  A43        -0.5172
    924  P         -9.0490   49.1510   -6.7270 P.3    44  A44         0.2141
    925  C5'      -10.5000   47.2180   -7.7010 C.3    44  A44         0.1812
    926  O5'      -10.3840   48.6040   -7.4140 O.3    44  A44        -0.3114
    927  C4'      -11.9320   46.7580   -7.5070 C.3    44  A44         0.1773
    928  O4'      -12.7980   47.4720   -8.4200 O.3    44  A44        -0.3307
    929  C3'      -12.1760   45.2870   -7.8040 C.3    44  A44         0.1860
    930  O3'      -11.9100   44.5250   -6.6400 O.3    44  A44        -0.3112
    931  C2'      -13.6640   45.2870   -8.1270 C.3    44  A44         0.2309
    932  O2'      -14.4580   45.2960   -6.9560 O.3    44  A44        -0.2156
    933  C1'      -13.8350   46.6150   -8.8590 C.3    44  A44         0.2408
    934  N1       -16.0680   44.9840  -13.2240 N.ar   44  A44        -0.2040
    935  C2       -16.4250   44.8530  -11.9410 C.ar   44  A44         0.2016
    936  N3       -15.8030   45.2940  -10.8470 N.ar   44  A44        -0.2048
    937  C4       -14.6780   45.9520  -11.1700 C.ar   44  A44         0.1692
    938  C5       -14.1850   46.1670  -12.4420 C.ar   44  A44         0.1518
    939  C6       -14.9320   45.6490  -13.5160 C.ar   44  A44         0.1919
    940  N6       -14.5630   45.7890  -14.7920 N.pl3  44  A44        -0.1054
    941  N7       -13.0000   46.8790  -12.3980 N.ar   44  A44        -0.2193
    942  C8       -12.8040   47.0830  -11.1170 C.ar   44  A44         0.1816
    943  N9       -13.7740   46.5460  -10.3170 N.ar   44  A44        -0.2693
    944  OP1       -9.2920   50.5570   -6.3340 O.2    44  A44        -0.5172
    945  OP2       -8.5860   48.1750   -5.7170 O.co2  44  A44        -0.4373
    946  P        -10.7250   43.4520   -6.6130 P.3    45  C45         0.2141
    947  C5'      -10.4640   42.5310   -8.9970 C.3    45  C45         0.1812
    948  O5'      -11.1450   42.4580   -7.7780 O.3    45  C45        -0.3114
    949  C4'      -11.3620   41.9990  -10.0880 C.3    45  C45         0.1773
    950  O4'      -12.1770   43.0900  -10.5850 O.3    45  C45        -0.3307
    951  C3'      -10.5910   41.4720  -11.2820 C.3    45  C45         0.1860
    952  O3'      -10.3700   40.0810  -11.1000 O.3    45  C45        -0.3112
    953  C2'      -11.5470   41.7790  -12.4260 C.3    45  C45         0.2309
    954  O2'      -12.6100   40.8510  -12.4970 O.3    45  C45        -0.2156
    955  C1'      -12.0670   43.1460  -11.9910 C.3    45  C45         0.2420
    956  N1       -11.1520   44.2610  -12.3580 N.ar   45  C45        -0.2535
    957  C2       -11.1580   44.7100  -13.6760 C.ar   45  C45         0.3532
    958  O2       -11.9280   44.1670  -14.4740 O.2    45  C45        -0.2443
    959  N3       -10.3330   45.7220  -14.0350 N.ar   45  C45        -0.1739
    960  C4        -9.5250   46.2760  -13.1310 C.ar   45  C45         0.1759
    961  N4        -8.7300   47.2720  -13.5350 N.pl3  45  C45        -0.1070
    962  C5        -9.5000   45.8310  -11.7750 C.ar   45  C45         0.0566
    963  C6       -10.3210   44.8300  -11.4360 C.ar   45  C45         0.0850
    964  OP1      -10.8100   42.6860   -5.3510 O.3    45  C45        -0.4373
    965  OP2       -9.4690   44.1380   -6.9940 O.co2  45  C45        -0.5172
    966  P         -8.9310   39.4740  -11.4280 P.3    46  C46         0.2141
    967  C5'      -10.1090   38.4990  -13.5350 C.3    46  C46         0.1812
    968  O5'       -9.0330   39.2560  -13.0020 O.3    46  C46        -0.3114
    969  C4'      -10.1130   38.6560  -15.0370 C.3    46  C46         0.1773
    970  O4'      -10.5040   40.0120  -15.3700 O.3    46  C46        -0.3307
    971  C3'       -8.7390   38.4980  -15.6680 C.3    46  C46         0.1860
    972  O3'       -8.4550   37.1260  -15.9100 O.3    46  C46        -0.3112
    973  C2'       -8.9230   39.2710  -16.9640 C.3    46  C46         0.2309
    974  O2'       -9.6620   38.5390  -17.9170 O.3    46  C46        -0.2156
    975  C1'       -9.7630   40.4520  -16.4920 C.3    46  C46         0.2420
    976  N1        -8.9730   41.6580  -16.1230 N.ar   46  C46        -0.2535
    977  C2        -8.3430   42.3880  -17.1320 C.ar   46  C46         0.3532
    978  O2        -8.4540   41.9950  -18.2990 O.2    46  C46        -0.2443
    979  N3        -7.6310   43.4980  -16.8000 N.ar   46  C46        -0.1739
    980  C4        -7.5430   43.8750  -15.5220 C.ar   46  C46         0.1759
    981  N4        -6.8310   44.9730  -15.2380 N.pl3  46  C46        -0.1070
    982  C5        -8.1830   43.1430  -14.4790 C.ar   46  C46         0.0566
    983  C6        -8.8820   42.0530  -14.8210 C.ar   46  C46         0.0850
    984  OP1       -8.8230   38.1530  -10.7730 O.3    46  C46        -0.4373
    985  OP2       -7.9160   40.5210  -11.1560 O.co2  46  C46        -0.5172
    986  P         -6.9370   36.6280  -15.9000 P.3    47  U47         0.2141
    987  C5'       -6.7780   36.7820  -18.5180 C.3    47  U47         0.1812
    988  O5'       -6.3420   37.2380  -17.2490 O.3    47  U47        -0.3114
    989  C4'       -5.9550   37.4640  -19.5920 C.3    47  U47         0.1773
    990  O4'       -6.2680   38.8760  -19.6080 O.3    47  U47        -0.3307
    991  C3'       -4.4520   37.4190  -19.3620 C.3    47  U47         0.1860
    992  O3'       -3.9100   36.2020  -19.8540 O.3    47  U47        -0.3112
    993  C2'       -3.9940   38.6010  -20.2030 C.3    47  U47         0.2309
    994  O2'       -3.9750   38.2960  -21.5820 O.3    47  U47        -0.2156
    995  C1'       -5.1010   39.6130  -19.9300 C.3    47  U47         0.2420
    996  N1        -4.8160   40.5770  -18.8250 N.ar   47  U47        -0.2534
    997  C2        -3.9730   41.6360  -19.0780 C.ar   47  U47         0.3546
    998  O2        -3.4370   41.8090  -20.1570 O.2    47  U47        -0.2443
    999  N3        -3.7700   42.4860  -18.0190 N.ar   47  U47        -0.1530
   1000  C4        -4.3230   42.3840  -16.7570 C.ar   47  U47         0.2846
   1001  O4        -4.0500   43.2260  -15.9070 O.2    47  U47        -0.2650
   1002  C5        -5.1980   41.2540  -16.5700 C.ar   47  U47         0.0814
   1003  C6        -5.4090   40.4090  -17.5900 C.ar   47  U47         0.0870
   1004  OP1       -6.9420   35.1540  -16.0250 O.2    47  U47        -0.5172
   1005  OP2       -6.2450   37.2690  -14.7620 O.co2  47  U47        -0.4373
   1006  P         -2.7040   35.4850  -19.0840 P.3    48  G48         0.2141
   1007  C5'       -0.8580   36.6090  -20.5450 C.3    48  G48         0.1812
   1008  O5'       -1.4830   36.5030  -19.2710 O.3    48  G48        -0.3114
   1009  C4'        0.1010   37.7820  -20.5860 C.3    48  G48         0.1773
   1010  O4'       -0.6390   38.9910  -20.2910 O.3    48  G48        -0.3307
   1011  C3'        1.2260   37.7650  -19.5610 C.3    48  G48         0.1860
   1012  O3'        2.3530   37.0570  -20.0570 O.3    48  G48        -0.3112
   1013  C2'        1.5550   39.2500  -19.4530 C.3    48  G48         0.2309
   1014  O2'        2.3410   39.7010  -20.5370 O.3    48  G48        -0.2156
   1015  C1'        0.1740   39.8820  -19.5500 C.3    48  G48         0.2408
   1016  N1        -0.6440   43.1770  -15.7500 N.ar   48  G48        -0.1709
   1017  C2         0.1070   43.3370  -16.8920 C.ar   48  G48         0.2606
   1018  N2         0.7160   44.5220  -17.0460 N.pl3  48  G48        -0.0859
   1019  N3         0.2540   42.3990  -17.8210 N.ar   48  G48        -0.1918
   1020  C4        -0.4250   41.2690  -17.5160 C.ar   48  G48         0.1723
   1021  C5        -1.1950   41.0110  -16.4110 C.ar   48  G48         0.1748
   1022  C6        -1.3420   42.0130  -15.4320 C.ar   48  G48         0.3023
   1023  O6        -1.9990   41.9320  -14.3940 O.2    48  G48        -0.2633
   1024  N7        -1.7280   39.7320  -16.4530 N.ar   48  G48        -0.2173
   1025  C8        -1.2740   39.2410  -17.5730 C.ar   48  G48         0.1817
   1026  N9        -0.4750   40.1160  -18.2670 N.ar   48  G48        -0.2693
   1027  OP1       -2.3760   34.2580  -19.8380 O.2    48  G48        -0.5172
   1028  OP2       -3.0420   35.3980  -17.6490 O.co2  48  G48        -0.4373
   1029  P          2.5070   35.4770  -19.8600 P.3    49  A49         0.2141
   1030  C5'        2.2710   33.9320  -17.7670 C.3    49  A49         0.1812
   1031  O5'        2.1110   35.2340  -18.3320 O.3    49  A49        -0.3114
   1032  C4'        1.6030   33.8260  -16.4090 C.3    49  A49         0.1773
   1033  O4'        2.0780   34.9090  -15.5660 O.3    49  A49        -0.3307
   1034  C3'        0.0860   33.9590  -16.4220 C.3    49  A49         0.1860
   1035  O3'       -0.4770   33.2630  -15.3200 O.3    49  A49        -0.3112
   1036  C2'       -0.0940   35.4650  -16.2500 C.3    49  A49         0.2309
   1037  O2'       -1.3380   35.7920  -15.6670 O.3    49  A49        -0.2156
   1038  C1'        1.0150   35.7880  -15.2560 C.3    49  A49         0.2408
   1039  N1         0.6780   40.6390  -13.5070 N.ar   49  A49        -0.2040
   1040  C2         0.0250   39.5220  -13.1610 C.ar   49  A49         0.2016
   1041  N3         0.1570   38.2890  -13.6530 N.ar   49  A49        -0.2048
   1042  C4         1.0890   38.2550  -14.6180 C.ar   49  A49         0.1692
   1043  C5         1.8400   39.3220  -15.0790 C.ar   49  A49         0.1518
   1044  C6         1.6120   40.5770  -14.4820 C.ar   49  A49         0.1919
   1045  N6         2.2690   41.6920  -14.8360 N.pl3  49  A49        -0.1054
   1046  N7         2.7050   38.9180  -16.0810 N.ar   49  A49        -0.2193
   1047  C8         2.4630   37.6340  -16.2030 C.ar   49  A49         0.1816
   1048  N9         1.5010   37.1640  -15.3520 N.ar   49  A49        -0.2693
   1049  OP1        3.9430   35.1540  -20.0010 O.3    49  A49        -0.4373
   1050  OP2        1.5190   34.8070  -20.7350 O.co2  49  A49        -0.5172
   1051  P         -0.6100   31.6630  -15.2990 P.3    50  A50         0.2141
   1052  C5'        0.6370   31.4790  -13.0030 C.3    50  A50         0.1812
   1053  O5'        0.6340   31.2240  -14.3980 O.3    50  A50        -0.3114
   1054  C4'        2.0190   31.2390  -12.4250 C.3    50  A50         0.1773
   1055  O4'        2.3270   29.8210  -12.5180 O.3    50  A50        -0.3307
   1056  C3'        3.1420   31.9550  -13.1630 C.3    50  A50         0.1860
   1057  O3'        4.2340   32.2430  -12.3020 O.3    50  A50        -0.3112
   1058  C2'        3.5570   30.9190  -14.1960 C.3    50  A50         0.2309
   1059  O2'        4.8960   31.1080  -14.6050 O.3    50  A50        -0.2156
   1060  C1'        3.4110   29.6210  -13.4010 C.3    50  A50         0.2408
   1061  N1         4.9410   25.0210  -15.1990 N.ar   50  A50        -0.2040
   1062  C2         5.5210   25.8830  -14.3530 C.ar   50  A50         0.2016
   1063  N3         5.0760   27.0610  -13.9190 N.ar   50  A50        -0.2048
   1064  C4         3.8780   27.3470  -14.4550 C.ar   50  A50         0.1692
   1065  C5         3.1600   26.5620  -15.3380 C.ar   50  A50         0.1518
   1066  C6         3.7370   25.3380  -15.7220 C.ar   50  A50         0.1919
   1067  N6         3.1440   24.4910  -16.5690 N.pl3  50  A50        -0.1054
   1068  N7         1.9650   27.1690  -15.6820 N.ar   50  A50        -0.2193
   1069  C8         1.9830   28.2970  -15.0100 C.ar   50  A50         0.1816
   1070  N9         3.1060   28.4710  -14.2480 N.ar   50  A50        -0.2693
   1071  OP1       -0.3850   31.1400  -16.6650 O.2    50  A50        -0.5172
   1072  OP2       -1.8590   31.3580  -14.5770 O.co2  50  A50        -0.4373
   1073  P          4.4740   33.7300  -11.7570 P.3    51  C51         0.2141
   1074  C5'        5.3990   34.3570  -14.1530 C.3    51  C51         0.1812
   1075  O5'        4.4630   34.5950  -13.1020 O.3    51  C51        -0.3114
   1076  C4'        6.1060   35.6460  -14.5410 C.3    51  C51         0.1773
   1077  O4'        5.1230   36.6720  -14.8370 O.3    51  C51        -0.3307
   1078  C3'        6.9730   36.2530  -13.4500 C.3    51  C51         0.1860
   1079  O3'        8.2670   35.6710  -13.4930 O.3    51  C51        -0.3112
   1080  C2'        7.0080   37.7140  -13.8770 C.3    51  C51         0.2309
   1081  O2'        7.9130   37.9330  -14.9400 O.3    51  C51        -0.2156
   1082  C1'        5.5780   37.9240  -14.3650 C.3    51  C51         0.2420
   1083  N1         4.6610   38.4120  -13.2990 N.ar   51  C51        -0.2535
   1084  C2         4.7790   39.7330  -12.8610 C.ar   51  C51         0.3532
   1085  O2         5.6410   40.4550  -13.3770 O.2    51  C51        -0.2443
   1086  N3         3.9450   40.1810  -11.8900 N.ar   51  C51        -0.1739
   1087  C4         3.0300   39.3590  -11.3650 C.ar   51  C51         0.1759
   1088  N4         2.2270   39.8400  -10.4080 N.pl3  51  C51        -0.1070
   1089  C5         2.8960   38.0090  -11.8000 C.ar   51  C51         0.0566
   1090  C6         3.7230   37.5820  -12.7610 C.ar   51  C51         0.0850
   1091  OP1        5.8250   33.7840  -11.1580 O.2    51  C51        -0.5172
   1092  OP2        3.3040   34.1230  -10.9420 O.co2  51  C51        -0.4373
   1093  P          9.1220   35.5460  -12.1480 P.3    52  A52         0.2141
   1094  C5'       10.5760   37.6380  -12.8470 C.3    52  A52         0.1812
   1095  O5'        9.7050   37.0160  -11.9140 O.3    52  A52        -0.3114
   1096  C4'       10.8160   39.0760  -12.4240 C.3    52  A52         0.1773
   1097  O4'        9.5780   39.8200  -12.5400 O.3    52  A52        -0.3307
   1098  C3'       11.2350   39.2520  -10.9720 C.3    52  A52         0.1860
   1099  O3'       12.6450   39.1670  -10.8500 O.3    52  A52        -0.3112
   1100  C2'       10.7510   40.6630  -10.6670 C.3    52  A52         0.2309
   1101  O2'       11.6380   41.6500  -11.1540 O.3    52  A52        -0.2156
   1102  C1'        9.4460   40.7130  -11.4510 C.3    52  A52         0.2408
   1103  N1         5.9950   42.3580   -8.0460 N.ar   52  A52        -0.2040
   1104  C2         7.0520   42.9460   -8.6130 C.ar   52  A52         0.2016
   1105  N3         7.9090   42.4490   -9.4990 N.ar   52  A52        -0.2048
   1106  C4         7.5970   41.1810   -9.8010 C.ar   52  A52         0.1692
   1107  C5         6.5450   40.4360   -9.3030 C.ar   52  A52         0.1518
   1108  C6         5.7040   41.0810   -8.3730 C.ar   52  A52         0.1919
   1109  N6         4.6450   40.5030   -7.7980 N.pl3  52  A52        -0.1054
   1110  N7         6.5470   39.1640   -9.8520 N.ar   52  A52        -0.2193
   1111  C8         7.5850   39.1680  -10.6590 C.ar   52  A52         0.1816
   1112  N9         8.2630   40.3560  -10.6720 N.ar   52  A52        -0.2693
   1113  OP1       10.2440   34.6170  -12.4130 O.2    52  A52        -0.5172
   1114  OP2        8.1820   35.2700  -11.0500 O.co2  52  A52        -0.4373
   1115  P         13.2730   38.4570   -9.5640 P.3    53  G53         0.2141
   1116  C5'       14.0660   40.8360   -8.8180 C.3    53  G53         0.1812
   1117  O5'       13.3530   39.6450   -8.5000 O.3    53  G53        -0.3114
   1118  C4'       13.7820   41.9020   -7.7780 C.3    53  G53         0.1773
   1119  O4'       12.4980   42.5200   -8.0390 O.3    53  G53        -0.3307
   1120  C3'       13.6470   41.3800   -6.3580 C.3    53  G53         0.1860
   1121  O3'       14.9250   41.1840   -5.7700 O.3    53  G53        -0.3112
   1122  C2'       12.8610   42.5170   -5.7160 C.3    53  G53         0.2309
   1123  O2'       13.6420   43.6750   -5.4900 O.3    53  G53        -0.2156
   1124  C1'       11.8380   42.7850   -6.8150 C.3    53  G53         0.2408
   1125  N1         7.2860   42.0120   -4.6690 N.ar   53  G53        -0.1709
   1126  C2         8.1750   43.0440   -4.4750 C.ar   53  G53         0.2606
   1127  N2         7.8070   43.9890   -3.5980 N.pl3  53  G53        -0.0859
   1128  N3         9.3430   43.1440   -5.0950 N.ar   53  G53        -0.1918
   1129  C4         9.5530   42.1080   -5.9410 C.ar   53  G53         0.1723
   1130  C5         8.7300   41.0360   -6.2020 C.ar   53  G53         0.1748
   1131  C6         7.4870   40.9420   -5.5360 C.ar   53  G53         0.3023
   1132  O6         6.6240   40.0610   -5.6440 O.2    53  G53        -0.2633
   1133  N7         9.3070   40.1860   -7.1340 N.ar   53  G53        -0.2173
   1134  C8        10.4490   40.7500   -7.4150 C.ar   53  G53         0.1817
   1135  N9        10.6660   41.9210   -6.7300 N.ar   53  G53        -0.2693
   1136  OP1       14.6530   38.0460   -9.9040 O.2    53  G53        -0.5172
   1137  OP2       12.3030   37.4470   -9.0870 O.co2  53  G53        -0.4373
   1138  P         15.0350   40.2900   -4.4480 P.3    54  G54         0.2141
   1139  C5'       13.7780   40.6720   -2.1960 C.3    54  G54         0.1812
   1140  O5'       14.2270   41.2000   -3.4180 O.3    54  G54        -0.3114
   1141  C4'       13.1340   41.7710   -1.3750 C.3    54  G54         0.1773
   1142  O4'       12.1370   42.4770   -2.1600 O.3    54  G54        -0.3307
   1143  C3'       12.4130   41.2420   -0.1470 C.3    54  G54         0.1860
   1144  O3'       13.2920   41.3420    0.9570 O.3    54  G54        -0.3112
   1145  C2'       11.2010   42.1640   -0.0400 C.3    54  G54         0.2309
   1146  O2'       11.4980   43.3980    0.5830 O.3    54  G54        -0.2156
   1147  C1'       10.8820   42.3750   -1.5160 C.3    54  G54         0.2408
   1148  N1         6.5520   39.6970   -1.5810 N.ar   54  G54        -0.1709
   1149  C2         6.8950   40.7800   -0.8080 C.ar   54  G54         0.2606
   1150  N2         5.9680   41.2100    0.0590 N.pl3  54  G54        -0.0859
   1151  N3         8.0630   41.4030   -0.8800 N.ar   54  G54        -0.1918
   1152  C4         8.8770   40.8420   -1.8050 C.ar   54  G54         0.1723
   1153  C5         8.6280   39.7640   -2.6230 C.ar   54  G54         0.1748
   1154  C6         7.3770   39.1090   -2.5360 C.ar   54  G54         0.3023
   1155  O6         6.9740   38.1330   -3.1830 O.2    54  G54        -0.2633
   1156  N7         9.7230   39.5000   -3.4350 N.ar   54  G54        -0.2173
   1157  C8        10.5960   40.4080   -3.0980 C.ar   54  G54         0.1817
   1158  N9        10.1520   41.2590   -2.1160 N.ar   54  G54        -0.2693
   1159  OP1       16.4520   40.2620   -4.0200 O.3    54  G54        -0.4373
   1160  OP2       14.3000   39.0230   -4.6650 O.co2  54  G54        -0.5172
   1161  P         13.8280   40.0070    1.6530 P.3    55  G55         0.2141
   1162  C5'       11.9240   40.5280    3.3320 C.3    55  G55         0.1812
   1163  O5'       12.5430   39.5640    2.4930 O.3    55  G55        -0.3114
   1164  C4'       10.4500   40.2220    3.5060 C.3    55  G55         0.1773
   1165  O4'        9.7470   40.4350    2.2560 O.3    55  G55        -0.3307
   1166  C3'       10.1370   38.7770    3.8580 C.3    55  G55         0.1860
   1167  O3'       10.3310   38.5510    5.2440 O.3    55  G55        -0.3112
   1168  C2'        8.6660   38.7290    3.4760 C.3    55  G55         0.2309
   1169  O2'        7.8500   39.4300    4.3920 O.3    55  G55        -0.2156
   1170  C1'        8.7110   39.4720    2.1470 C.3    55  G55         0.2408
   1171  N1         6.8620   35.8700   -0.9160 N.ar   55  G55        -0.1709
   1172  C2         6.2480   36.5320    0.1210 C.ar   55  G55         0.2606
   1173  N2         4.9760   36.1940    0.3790 N.pl3  55  G55        -0.0859
   1174  N3         6.8400   37.4630    0.8570 N.ar   55  G55        -0.1918
   1175  C4         8.1170   37.6810    0.4620 C.ar   55  G55         0.1723
   1176  C5         8.8160   37.0720   -0.5550 C.ar   55  G55         0.1748
   1177  C6         8.1730   36.0810   -1.3330 C.ar   55  G55         0.3023
   1178  O6         8.6350   35.4310   -2.2810 O.2    55  G55        -0.2633
   1179  N7        10.1070   37.5800   -0.6350 N.ar   55  G55        -0.2173
   1180  C8        10.1640   38.4690    0.3190 C.ar   55  G55         0.1817
   1181  N9         8.9910   38.5850    1.0240 N.ar   55  G55        -0.2693
   1182  OP1       14.8930   40.3960    2.6060 O.3    55  G55        -0.4373
   1183  OP2       14.1030   38.9940    0.6100 O.co2  55  G55        -0.5172
   1184  P         10.7960   37.1050    5.7440 P.3    56  U56         0.2141
   1185  C5'        8.2980   36.7010    6.3620 C.3    56  U56         0.1812
   1186  O5'        9.4410   36.2630    5.6390 O.3    56  U56        -0.3114
   1187  C4'        7.0810   35.8750    5.9940 C.3    56  U56         0.1773
   1188  O4'        6.7560   36.0700    4.5950 O.3    56  U56        -0.3307
   1189  C3'        7.2650   34.3710    6.1060 C.3    56  U56         0.1860
   1190  O3'        7.1570   33.9510    7.4630 O.3    56  U56        -0.3112
   1191  C2'        6.0950   33.8970    5.2500 C.3    56  U56         0.2309
   1192  O2'        4.8520   34.0230    5.9120 O.3    56  U56        -0.2156
   1193  C1'        6.1610   34.8880    4.0890 C.3    56  U56         0.2420
   1194  N1         6.9530   34.3800    2.9330 N.ar   56  U56        -0.2534
   1195  C2         6.3290   33.5590    2.0170 C.ar   56  U56         0.3546
   1196  O2         5.1600   33.2360    2.1100 O.2    56  U56        -0.2443
   1197  N3         7.1240   33.1270    0.9850 N.ar   56  U56        -0.1530
   1198  C4         8.4580   33.4330    0.7820 C.ar   56  U56         0.2846
   1199  O4         9.0460   32.9750   -0.1930 O.2    56  U56        -0.2650
   1200  C5         9.0390   34.2940    1.7820 C.ar   56  U56         0.0814
   1201  C6         8.2820   34.7260    2.7980 C.ar   56  U56         0.0870
   1202  OP1       11.1520   37.2100    7.1780 O.3    56  U56        -0.4373
   1203  OP2       11.7780   36.5730    4.7730 O.co2  56  U56        -0.5172
   1204  P          8.0890   32.7630    8.0040 P.3    57  A57         0.2141
   1205  C5'        8.0510   30.2230    7.3750 C.3    57  A57         0.1812
   1206  O5'        7.3400   31.4530    7.4760 O.3    57  A57        -0.3114
   1207  C4'        7.1680   29.1440    6.7750 C.3    57  A57         0.1773
   1208  O4'        6.0360   28.9280    7.6500 O.3    57  A57        -0.3307
   1209  C3'        6.5590   29.4960    5.4260 C.3    57  A57         0.1860
   1210  O3'        7.4290   29.0940    4.3790 O.3    57  A57        -0.3112
   1211  C2'        5.2730   28.6770    5.4120 C.3    57  A57         0.2309
   1212  O2'        5.4950   27.3430    4.9950 O.3    57  A57        -0.2156
   1213  C1'        4.8720   28.6820    6.8830 C.3    57  A57         0.2408
   1214  N1        -0.0280   30.1960    6.4570 N.ar   57  A57        -0.2040
   1215  C2         0.6320   29.1570    5.9360 C.ar   57  A57         0.2016
   1216  N3         1.9110   28.8170    6.0830 N.ar   57  A57        -0.2048
   1217  C4         2.5460   29.6950    6.8760 C.ar   57  A57         0.1692
   1218  C5         2.0030   30.8100    7.4820 C.ar   57  A57         0.1518
   1219  C6         0.6380   31.0610    7.2490 C.ar   57  A57         0.1919
   1220  N6        -0.0200   32.1010    7.7700 N.pl3  57  A57        -0.1054
   1221  N7         2.9620   31.4770    8.2270 N.ar   57  A57        -0.2193
   1222  C8         4.0470   30.7630    8.0580 C.ar   57  A57         0.1816
   1223  N9         3.8680   29.6750    7.2520 N.ar   57  A57        -0.2693
   1224  OP1        8.0100   32.7760    9.4810 O.3    57  A57        -0.4373
   1225  OP2        9.4040   32.8490    7.3290 O.co2  57  A57        -0.5172
   1226  P          7.6320   30.0710    3.1260 P.3    58  A58         0.2141
   1227  C5'        5.8280   28.7660    1.7830 C.3    58  A58         0.1812
   1228  O5'        6.2140   29.9910    2.3920 O.3    58  A58        -0.3114
   1229  C4'        4.3850   28.8400    1.3300 C.3    58  A58         0.1773
   1230  O4'        3.5230   28.9430    2.4880 O.3    58  A58        -0.3307
   1231  C3'        4.0510   30.0610    0.4860 C.3    58  A58         0.1860
   1232  O3'        4.3520   29.7830   -0.8710 O.3    58  A58        -0.3112
   1233  C2'        2.5490   30.1730    0.7090 C.3    58  A58         0.2309
   1234  O2'        1.8390   29.2650   -0.1090 O.3    58  A58        -0.2156
   1235  C1'        2.4090   29.7560    2.1720 C.3    58  A58         0.2408
   1236  N1        -0.4880   33.2100    4.6540 N.ar   58  A58        -0.2040
   1237  C2        -0.7970   32.2580    3.7660 C.ar   58  A58         0.2016
   1238  N3         0.0050   31.3910    3.1530 N.ar   58  A58        -0.2048
   1239  C4         1.2780   31.5660    3.5410 C.ar   58  A58         0.1692
   1240  C5         1.7500   32.5000    4.4430 C.ar   58  A58         0.1518
   1241  C6         0.8010   33.3630    5.0220 C.ar   58  A58         0.1919
   1242  N6         1.1140   34.3140    5.9110 N.pl3  58  A58        -0.1054
   1243  N7         3.1210   32.3830    4.5940 N.ar   58  A58        -0.2193
   1244  C8         3.4460   31.3970    3.7920 C.ar   58  A58         0.1816
   1245  N9         2.3820   30.8600    3.1240 N.ar   58  A58        -0.2693
   1246  OP1        8.6300   29.4470    2.2290 O.2    58  A58        -0.5172
   1247  OP2        7.8350   31.4410    3.6410 O.co2  58  A58        -0.4373
   1248  P          4.8100   30.9500   -1.8690 P.3    59  U59         0.2141
   1249  C5'        2.4520   31.0310   -3.0170 C.3    59  U59         0.1812
   1250  O5'        3.4360   31.6870   -2.2240 O.3    59  U59        -0.3114
   1251  C4'        1.1100   31.7310   -2.9010 C.3    59  U59         0.1773
   1252  O4'        0.6430   31.6620   -1.5310 O.3    59  U59        -0.3307
   1253  C3'        1.1100   33.2260   -3.1780 C.3    59  U59         0.1860
   1254  O3'        1.1260   33.5040   -4.5700 O.3    59  U59        -0.3112
   1255  C2'       -0.2340   33.6000   -2.5660 C.3    59  U59         0.2309
   1256  O2'       -1.3200   33.2260   -3.3880 O.3    59  U59        -0.2156
   1257  C1'       -0.2320   32.7500   -1.2970 C.3    59  U59         0.2420
   1258  N1         0.2070   33.5240   -0.1030 N.ar   59  U59        -0.2534
   1259  C2        -0.7630   34.0980    0.6820 C.ar   59  U59         0.3546
   1260  O2        -1.9510   33.9890    0.4400 O.2    59  U59        -0.2443
   1261  N3        -0.2960   34.7990    1.7640 N.ar   59  U59        -0.1530
   1262  C4         1.0230   34.9810    2.1290 C.ar   59  U59         0.2846
   1263  O4         1.2870   35.6410    3.1300 O.2    59  U59        -0.2650
   1264  C5         1.9810   34.3530    1.2570 C.ar   59  U59         0.0814
   1265  C6         1.5470   33.6630    0.1940 C.ar   59  U59         0.0870
   1266  OP1        5.3200   30.2920   -3.0900 O.2    59  U59        -0.5172
   1267  OP2        5.6640   31.9000   -1.1220 O.co2  59  U59        -0.4373
   1268  P          2.0500   34.6870   -5.1290 P.3    60  G60         0.2141
   1269  C5'       -0.0260   36.3190   -4.8350 C.3    60  G60         0.1812
   1270  O5'        1.3370   36.0110   -4.5960 O.3    60  G60        -0.3114
   1271  C4'       -0.1600   37.8290   -4.7450 C.3    60  G60         0.1773
   1272  O4'        0.3000   38.3900   -5.9950 O.3    60  G60        -0.3307
   1273  C3'       -1.5580   38.3860   -4.5260 C.3    60  G60         0.1860
   1274  O3'       -1.7380   38.6320   -3.1430 O.3    60  G60        -0.3112
   1275  C2'       -1.5290   39.7240   -5.2610 C.3    60  G60         0.2309
   1276  O2'       -1.1570   40.7720   -4.3880 O.3    60  G60        -0.2156
   1277  C1'       -0.4470   39.5460   -6.3200 C.3    60  G60         0.2408
   1278  N1        -3.2500   36.7070   -9.5100 N.ar   60  G60        -0.1709
   1279  C2        -3.0090   36.5170   -8.1700 C.ar   60  G60         0.2606
   1280  N2        -3.5860   35.4390   -7.6200 N.pl3  60  G60        -0.0859
   1281  N3        -2.2600   37.3260   -7.4270 N.ar   60  G60        -0.1918
   1282  C4        -1.7570   38.3580   -8.1480 C.ar   60  G60         0.1723
   1283  C5        -1.9410   38.6320   -9.4840 C.ar   60  G60         0.1748
   1284  C6        -2.7420   37.7630  -10.2610 C.ar   60  G60         0.3023
   1285  O6        -3.0140   37.8490  -11.4630 O.2    60  G60        -0.2633
   1286  N7        -1.2600   39.7870   -9.8500 N.ar   60  G60        -0.2173
   1287  C8        -0.6890   40.1900   -8.7510 C.ar   60  G60         0.1817
   1288  N9        -0.9490   39.3730   -7.6780 N.ar   60  G60        -0.2693
   1289  OP1        1.9730   34.6500   -6.6040 O.2    60  G60        -0.5172
   1290  OP2        3.3710   34.6120   -4.4630 O.co2  60  G60        -0.4373
   1291  P         -2.5080   37.5970   -2.2040 P.3    61  C61         0.2141
   1292  C5'       -2.2530   38.2600    0.3300 C.3    61  C61         0.1812
   1293  O5'       -1.6840   37.6640   -0.8320 O.3    61  C61        -0.3114
   1294  C4'       -1.2120   39.0560    1.0970 C.3    61  C61         0.1773
   1295  O4'       -0.0380   38.2420    1.3410 O.3    61  C61        -0.3307
   1296  C3'       -0.6840   40.2670    0.3450 C.3    61  C61         0.1860
   1297  O3'       -1.5440   41.3740    0.5500 O.3    61  C61        -0.3112
   1298  C2'        0.6740   40.4750    1.0030 C.3    61  C61         0.2309
   1299  O2'        0.5830   41.1490    2.2440 O.3    61  C61        -0.2156
   1300  C1'        1.1300   39.0340    1.2080 C.3    61  C61         0.2420
   1301  N1         1.9370   38.5250    0.0670 N.ar   61  C61        -0.2535
   1302  C2         3.2280   39.0270   -0.1270 C.ar   61  C61         0.3532
   1303  O2         3.6670   39.8780    0.6570 O.2    61  C61        -0.2443
   1304  N3         3.9620   38.5640   -1.1670 N.ar   61  C61        -0.1739
   1305  C4         3.4510   37.6460   -1.9900 C.ar   61  C61         0.1759
   1306  N4         4.2170   37.2250   -3.0010 N.pl3  61  C61        -0.1070
   1307  C5         2.1360   37.1240   -1.8110 C.ar   61  C61         0.0566
   1308  C6         1.4200   37.5880   -0.7800 C.ar   61  C61         0.0850
   1309  OP1       -2.3200   36.2440   -2.7730 O.2    61  C61        -0.5172
   1310  OP2       -3.8710   38.1310   -1.9950 O.co2  61  C61        -0.4373
   1311  P         -1.6420   42.5230   -0.5610 P.3    62  C62         0.2141
   1312  C5'        0.0630   44.0250    0.7370 C.3    62  C62         0.1812
   1313  O5'       -0.2410   43.2770   -0.4310 O.3    62  C62        -0.3114
   1314  C4'        1.4630   44.5960    0.6290 C.3    62  C62         0.1773
   1315  O4'        2.4230   43.5150    0.5400 O.3    62  C62        -0.3307
   1316  C3'        1.7180   45.4160   -0.6250 C.3    62  C62         0.1860
   1317  O3'        1.2520   46.7450   -0.4460 O.3    62  C62        -0.3112
   1318  C2'        3.2370   45.3550   -0.6950 C.3    62  C62         0.2309
   1319  O2'        3.8390   46.2220    0.2440 O.3    62  C62        -0.2156
   1320  C1'        3.5010   43.9090   -0.2900 C.3    62  C62         0.2420
   1321  N1         3.6090   42.9540   -1.4330 N.ar   62  C62        -0.2535
   1322  C2         4.7730   42.9410   -2.2100 C.ar   62  C62         0.3532
   1323  O2         5.6890   43.7290   -1.9390 O.2    62  C62        -0.2443
   1324  N3         4.8650   42.0650   -3.2390 N.ar   62  C62        -0.1739
   1325  C4         3.8580   41.2310   -3.5010 C.ar   62  C62         0.1759
   1326  N4         4.0020   40.3920   -4.5290 N.pl3  62  C62        -0.1070
   1327  C5         2.6630   41.2260   -2.7230 C.ar   62  C62         0.0566
   1328  C6         2.5830   42.0940   -1.7070 C.ar   62  C62         0.0850
   1329  OP1       -2.7120   43.4460   -0.1340 O.3    62  C62        -0.4373
   1330  OP2       -1.7020   41.8940   -1.8980 O.co2  62  C62        -0.5172
   1331  P          0.7340   47.5840   -1.7080 P.3    63  U63         0.2141
   1332  C5'        3.1050   48.6050   -2.0640 C.3    63  U63         0.1812
   1333  O5'        2.0670   47.7800   -2.5610 O.3    63  U63        -0.3114
   1334  C4'        4.2940   48.5410   -2.9990 C.3    63  U63         0.1773
   1335  O4'        4.8920   47.2200   -2.9600 O.3    63  U63        -0.3307
   1336  C3'        3.9550   48.7210   -4.4670 C.3    63  U63         0.1860
   1337  O3'        3.7460   50.0890   -4.7770 O.3    63  U63        -0.3112
   1338  C2'        5.2360   48.1750   -5.0810 C.3    63  U63         0.2309
   1339  O2'        6.3240   49.0540   -4.8880 O.3    63  U63        -0.2156
   1340  C1'        5.4200   46.9150   -4.2400 C.3    63  U63         0.2420
   1341  N1         4.7120   45.7260   -4.8190 N.ar   63  U63        -0.2534
   1342  C2         5.3720   44.9370   -5.7400 C.ar   63  U63         0.3546
   1343  O2         6.5120   45.1520   -6.1100 O.2    63  U63        -0.2443
   1344  N3         4.6500   43.8720   -6.2220 N.ar   63  U63        -0.1530
   1345  C4         3.3560   43.5230   -5.8890 C.ar   63  U63         0.2846
   1346  O4         2.8420   42.5370   -6.4120 O.2    63  U63        -0.2650
   1347  C5         2.7310   44.3930   -4.9240 C.ar   63  U63         0.0814
   1348  C6         3.4160   45.4390   -4.4370 C.ar   63  U63         0.0870
   1349  OP1        0.2920   48.9060   -1.2160 O.3    63  U63        -0.4373
   1350  OP2       -0.2010   46.7420   -2.4890 O.co2  63  U63        -0.5172
   1351  P          3.2190   50.4870   -6.2340 P.3    64  G64         0.2141
   1352  C5'        4.4560   50.1570   -8.5050 C.3    64  G64         0.1812
   1353  O5'        4.5420   50.2900   -7.1050 O.3    64  G64        -0.3114
   1354  C4'        5.7370   49.5480   -9.0360 C.3    64  G64         0.1773
   1355  O4'        6.0080   48.3170   -8.3220 O.3    64  G64        -0.3307
   1356  C3'        5.6680   49.1720  -10.5070 C.3    64  G64         0.1860
   1357  O3'        6.1840   50.2350  -11.2960 O.3    64  G64        -0.3112
   1358  C2'        6.5430   47.9300  -10.5920 C.3    64  G64         0.2309
   1359  O2'        7.9140   48.2470  -10.7230 O.3    64  G64        -0.2156
   1360  C1'        6.2950   47.2780   -9.2370 C.3    64  G64         0.2408
   1361  N1         4.3940   42.8920  -11.0510 N.ar   64  G64        -0.1709
   1362  C2         5.5590   43.5370  -11.3900 C.ar   64  G64         0.2606
   1363  N2         6.3120   42.9380  -12.3240 N.pl3  64  G64        -0.0859
   1364  N3         5.9570   44.6860  -10.8530 N.ar   64  G64        -0.1918
   1365  C4         5.0780   45.1450   -9.9300 C.ar   64  G64         0.1723
   1366  C5         3.8900   44.5730   -9.5250 C.ar   64  G64         0.1748
   1367  C6         3.4780   43.3480  -10.1060 C.ar   64  G64         0.3023
   1368  O6         2.4530   42.6920   -9.8690 O.2    64  G64        -0.2633
   1369  N7         3.2700   45.3510   -8.5550 N.ar   64  G64        -0.2173
   1370  C8         4.0820   46.3610   -8.3950 C.ar   64  G64         0.1817
   1371  N9         5.1990   46.3070   -9.1960 N.ar   64  G64        -0.2693
   1372  OP1        2.8750   51.9280   -6.2380 O.3    64  G64        -0.4373
   1373  OP2        2.2070   49.4920   -6.6480 O.co2  64  G64        -0.5172
   1374  P          5.2490   50.8710  -12.4260 P.3    65  C65         0.2141
   1375  C5'        6.1760   49.0400  -14.0490 C.3    65  C65         0.1812
   1376  O5'        5.0480   49.6400  -13.4280 O.3    65  C65        -0.3114
   1377  C4'        5.7950   47.6930  -14.6360 C.3    65  C65         0.1773
   1378  O4'        5.4760   46.7770  -13.5580 O.3    65  C65        -0.3307
   1379  C3'        4.5610   47.7120  -15.5260 C.3    65  C65         0.1860
   1380  O3'        4.9460   47.9810  -16.8680 O.3    65  C65        -0.3112
   1381  C2'        4.0470   46.2820  -15.3890 C.3    65  C65         0.2309
   1382  O2'        4.7160   45.4040  -16.2690 O.3    65  C65        -0.2156
   1383  C1'        4.4100   45.9300  -13.9480 C.3    65  C65         0.2420
   1384  N1         3.2830   46.0870  -12.9760 N.ar   65  C65        -0.2535
   1385  C2         2.3540   45.0510  -12.8390 C.ar   65  C65         0.3532
   1386  O2         2.4930   44.0400  -13.5360 O.2    65  C65        -0.2443
   1387  N3         1.3340   45.1860  -11.9550 N.ar   65  C65        -0.1739
   1388  C4         1.2270   46.3010  -11.2300 C.ar   65  C65         0.1759
   1389  N4         0.2070   46.3980  -10.3680 N.pl3  65  C65        -0.1070
   1390  C5         2.1650   47.3660  -11.3530 C.ar   65  C65         0.0566
   1391  C6         3.1670   47.2180  -12.2260 C.ar   65  C65         0.0850
   1392  OP1        6.0250   51.9080  -13.1380 O.2    65  C65        -0.5172
   1393  OP2        3.9520   51.2110  -11.8050 O.co2  65  C65        -0.4373
   1394  P          3.9290   48.6830  -17.8830 P.3    66  G66         0.2141
   1395  C5'        2.6400   50.9460  -17.6520 C.3    66  G66         0.1812
   1396  O5'        3.3860   49.9160  -17.0250 O.3    66  G66        -0.3114
   1397  C4'        1.6760   51.5700  -16.6610 C.3    66  G66         0.1773
   1398  O4'        0.6130   50.6230  -16.3800 O.3    66  G66        -0.3307
   1399  C3'        2.2830   51.9510  -15.3120 C.3    66  G66         0.1860
   1400  O3'        1.6620   53.1310  -14.8220 O.3    66  G66        -0.3112
   1401  C2'        1.9370   50.7440  -14.4400 C.3    66  G66         0.2309
   1402  O2'        1.7980   51.0740  -13.0740 O.3    66  G66        -0.2156
   1403  C1'        0.5760   50.3500  -14.9960 C.3    66  G66         0.2408
   1404  N1        -1.9380   46.7080  -12.4500 N.ar   66  G66        -0.1709
   1405  C2        -1.9020   48.0610  -12.1990 C.ar   66  G66         0.2606
   1406  N2        -2.6200   48.4950  -11.1510 N.pl3  66  G66        -0.0859
   1407  N3        -1.2060   48.9290  -12.9250 N.ar   66  G66        -0.1918
   1408  C4        -0.5430   48.3260  -13.9410 C.ar   66  G66         0.1723
   1409  C5        -0.5180   46.9910  -14.2670 C.ar   66  G66         0.1748
   1410  C6        -1.2560   46.0800  -13.4900 C.ar   66  G66         0.3023
   1411  O6        -1.3320   44.8580  -13.6610 O.2    66  G66        -0.2633
   1412  N7         0.2800   46.7530  -15.3760 N.ar   66  G66        -0.2173
   1413  C8         0.7210   47.9350  -15.7000 C.ar   66  G66         0.1817
   1414  N9         0.2670   48.9330  -14.8730 N.ar   66  G66        -0.2693
   1415  OP1        2.7880   47.7680  -18.1150 O.3    66  G66        -0.4373
   1416  OP2        4.7090   49.1910  -19.0340 O.co2  66  G66        -0.5172
   1417  P          2.4590   54.5200  -14.6890 P.3    67  C67         0.2141
   1418  C5'        1.5050   55.0880  -17.0280 C.3    67  C67         0.1812
   1419  O5'        2.6550   54.9740  -16.2090 O.3    67  C67        -0.3114
   1420  C4'        1.7950   55.7330  -18.3720 C.3    67  C67         0.1773
   1421  O4'        2.2080   57.1160  -18.2130 O.3    67  C67        -0.3307
   1422  C3'        2.8880   55.0540  -19.1860 C.3    67  C67         0.1860
   1423  O3'        2.4450   54.9590  -20.5270 O.3    67  C67        -0.3112
   1424  C2'        4.0640   56.0150  -19.0520 C.3    67  C67         0.2309
   1425  O2'        4.9450   55.9460  -20.1550 O.3    67  C67        -0.2156
   1426  C1'        3.3310   57.3490  -19.0350 C.3    67  C67         0.2420
   1427  N1         4.1190   58.4630  -18.4440 N.ar   67  C67        -0.2535
   1428  C2         4.0120   59.7550  -18.9770 C.ar   67  C67         0.3532
   1429  O2         3.2590   59.9630  -19.9380 O.2    67  C67        -0.2443
   1430  N3         4.7440   60.7500  -18.4180 N.ar   67  C67        -0.1739
   1431  C4         5.5460   60.4990  -17.3830 C.ar   67  C67         0.1759
   1432  N4         6.2420   61.5220  -16.8720 N.pl3  67  C67        -0.1070
   1433  C5         5.6680   59.1900  -16.8280 C.ar   67  C67         0.0566
   1434  C6         4.9430   58.2130  -17.3850 C.ar   67  C67         0.0850
   1435  OP1        3.8020   54.2510  -14.1270 O.2    67  C67        -0.5172
   1436  OP2        1.5390   55.4570  -14.0130 O.co2  67  C67        -0.4373
   1437  P          2.4760   53.5480  -21.2710 P.3    68  A68         0.2141
   1438  C5'        0.2740   52.2090  -20.8370 C.3    68  A68         0.1812
   1439  O5'        1.5330   52.6460  -20.3450 O.3    68  A68        -0.3114
   1440  C4'        0.4630   50.9010  -21.5840 C.3    68  A68         0.1773
   1441  O4'        0.9190   49.8900  -20.6520 O.3    68  A68        -0.3307
   1442  C3'       -0.7950   50.3250  -22.2110 C.3    68  A68         0.1860
   1443  O3'       -0.9310   50.8170  -23.5320 O.3    68  A68        -0.3112
   1444  C2'       -0.4800   48.8360  -22.2350 C.3    68  A68         0.2309
   1445  O2'        0.3400   48.4900  -23.3320 O.3    68  A68        -0.2156
   1446  C1'        0.2980   48.6520  -20.9380 C.3    68  A68         0.2408
   1447  N1        -2.3210   44.8560  -18.6570 N.ar   68  A68        -0.2040
   1448  C2        -1.6070   44.8980  -19.7880 C.ar   68  A68         0.2016
   1449  N3        -0.9500   45.9240  -20.3260 N.ar   68  A68        -0.2048
   1450  C4        -1.0740   47.0220  -19.5650 C.ar   68  A68         0.1692
   1451  C5        -1.7740   47.1350  -18.3780 C.ar   68  A68         0.1518
   1452  C6        -2.4300   45.9750  -17.9140 C.ar   68  A68         0.1919
   1453  N6        -3.1450   45.9280  -16.7850 N.pl3  68  A68        -0.1054
   1454  N7        -1.6790   48.4260  -17.8780 N.ar   68  A68        -0.2193
   1455  C8        -0.9330   49.0550  -18.7580 C.ar   68  A68         0.1816
   1456  N9        -0.5350   48.2660  -19.8030 N.ar   68  A68        -0.2693
   1457  OP1        3.8550   53.0130  -21.1860 O.3    68  A68        -0.4373
   1458  OP2        1.8250   53.7380  -22.5850 O.co2  68  A68        -0.5172
   1459  P         -2.3730   51.2500  -24.0610 P.3    69  G69         0.2141
   1460  C5'       -2.8930   48.9610  -25.2260 C.3    69  G69         0.1812
   1461  O5'       -3.1770   49.8710  -24.1760 O.3    69  G69        -0.3114
   1462  C4'       -3.5950   47.6410  -24.9770 C.3    69  G69         0.1773
   1463  O4'       -3.1150   47.0580  -23.7410 O.3    69  G69        -0.3307
   1464  C3'       -5.0930   47.7300  -24.7390 C.3    69  G69         0.1860
   1465  O3'       -5.8070   47.9100  -25.9560 O.3    69  G69        -0.3112
   1466  C2'       -5.3450   46.3580  -24.1220 C.3    69  G69         0.2309
   1467  O2'       -5.3820   45.3270  -25.0870 O.3    69  G69        -0.2156
   1468  C1'       -4.1200   46.2050  -23.2230 C.3    69  G69         0.2408
   1469  N1        -6.3030   44.7300  -18.9110 N.ar   69  G69        -0.1709
   1470  C2        -6.1850   44.0670  -20.1100 C.ar   69  G69         0.2606
   1471  N2        -6.7180   42.8390  -20.1770 N.pl3  69  G69        -0.0859
   1472  N3        -5.5800   44.5700  -21.1750 N.ar   69  G69        -0.1918
   1473  C4        -5.0990   45.8100  -20.9390 C.ar   69  G69         0.1723
   1474  C5        -5.1670   46.5570  -19.7870 C.ar   69  G69         0.1748
   1475  C6        -5.8140   46.0080  -18.6550 C.ar   69  G69         0.3023
   1476  O6        -5.9770   46.5170  -17.5380 O.2    69  G69        -0.2633
   1477  N7        -4.5430   47.7850  -19.9650 N.ar   69  G69        -0.2173
   1478  C8        -4.1230   47.7560  -21.2010 C.ar   69  G69         0.1817
   1479  N9        -4.4220   46.5810  -21.8480 N.ar   69  G69        -0.2693
   1480  OP1       -2.1930   51.7890  -25.4270 O.2    69  G69        -0.5172
   1481  OP2       -3.0060   52.0700  -23.0060 O.co2  69  G69        -0.4373
   1482  P         -7.3140   48.4440  -25.8930 P.3    70  G70         0.2141
   1483  C5'       -9.3540   47.3380  -24.6390 C.3    70  G70         0.1812
   1484  O5'       -8.0960   47.1890  -25.2890 O.3    70  G70        -0.3114
   1485  C4'       -9.7000   46.0530  -23.9070 C.3    70  G70         0.1773
   1486  O4'       -8.6440   45.7500  -22.9560 O.3    70  G70        -0.3307
   1487  C3'      -10.9690   46.0960  -23.0690 C.3    70  G70         0.1860
   1488  O3'      -12.1200   45.7930  -23.8510 O.3    70  G70        -0.3112
   1489  C2'      -10.6930   44.9940  -22.0530 C.3    70  G70         0.2309
   1490  O2'      -10.9360   43.7050  -22.5760 O.3    70  G70        -0.2156
   1491  C1'       -9.2040   45.1900  -21.7810 C.3    70  G70         0.2408
   1492  N1        -9.9350   45.9440  -16.8120 N.ar   70  G70        -0.1709
   1493  C2       -10.3330   44.8950  -17.6060 C.ar   70  G70         0.2606
   1494  N2       -11.0190   43.9120  -17.0050 N.pl3  70  G70        -0.0859
   1495  N3       -10.0770   44.8110  -18.9030 N.ar   70  G70        -0.1918
   1496  C4        -9.3800   45.8820  -19.3510 C.ar   70  G70         0.1723
   1497  C5        -8.9410   46.9780  -18.6410 C.ar   70  G70         0.1748
   1498  C6        -9.2180   47.0540  -17.2540 C.ar   70  G70         0.3023
   1499  O6        -8.9100   47.9480  -16.4520 O.2    70  G70        -0.2633
   1500  N7        -8.2600   47.8580  -19.4720 N.ar   70  G70        -0.2173
   1501  C8        -8.3020   47.2870  -20.6470 C.ar   70  G70         0.1817
   1502  N9        -8.9650   46.0830  -20.6480 N.ar   70  G70        -0.2693
   1503  OP1       -7.7810   48.6620  -27.2820 O.2    70  G70        -0.5172
   1504  OP2       -7.3670   49.5530  -24.9160 O.co2  70  G70        -0.4373
   1505  P        -13.4730   46.6170  -23.6060 P.3    71  G71         0.2141
   1506  C5'      -14.3380   44.9820  -21.7360 C.3    71  G71         0.1812
   1507  O5'      -13.8620   46.2700  -22.0950 O.3    71  G71        -0.3114
   1508  C4'      -14.5450   44.9280  -20.2350 C.3    71  G71         0.1773
   1509  O4'      -13.2690   45.1430  -19.5800 O.3    71  G71        -0.3307
   1510  C3'      -15.4470   46.0200  -19.6730 C.3    71  G71         0.1860
   1511  O3'      -16.8190   45.6340  -19.7490 O.3    71  G71        -0.3112
   1512  C2'      -14.9520   46.1180  -18.2320 C.3    71  G71         0.2309
   1513  O2'      -15.4620   45.0950  -17.4050 O.3    71  G71        -0.2156
   1514  C1'      -13.4510   45.9240  -18.4130 C.3    71  G71         0.2408
   1515  N1       -11.2570   49.8620  -16.0620 N.ar   71  G71        -0.1709
   1516  C2       -11.8990   48.7770  -15.5160 C.ar   71  G71         0.2606
   1517  N2       -11.9620   48.7440  -14.1760 N.pl3  71  G71        -0.0859
   1518  N3       -12.4410   47.7990  -16.2340 N.ar   71  G71        -0.1918
   1519  C4       -12.2790   48.0050  -17.5650 C.ar   71  G71         0.1723
   1520  C5       -11.6560   49.0540  -18.2010 C.ar   71  G71         0.1748
   1521  C6       -11.0860   50.0880  -17.4250 C.ar   71  G71         0.3023
   1522  O6       -10.4890   51.1010  -17.8170 O.2    71  G71        -0.2633
   1523  N7       -11.7020   48.8960  -19.5800 N.ar   71  G71        -0.2173
   1524  C8       -12.3440   47.7730  -19.7500 C.ar   71  G71         0.1817
   1525  N9       -12.7240   47.1790  -18.5720 N.ar   71  G71        -0.2693
   1526  OP1      -14.5270   46.0540  -24.4800 O.2    71  G71        -0.5172
   1527  OP2      -13.1370   48.0520  -23.6770 O.co2  71  G71        -0.4373
   1528  P        -17.7700   46.2850  -20.8640 P.3    72  A72         0.2141
   1529  C5'      -20.0360   45.6310  -19.7150 C.3    72  A72         0.1812
   1530  O5'      -19.0910   46.6470  -20.0370 O.3    72  A72        -0.3114
   1531  C4'      -20.8520   46.0300  -18.5000 C.3    72  A72         0.1773
   1532  O4'      -20.0480   45.8420  -17.3090 O.3    72  A72        -0.3307
   1533  C3'      -21.2880   47.4900  -18.4740 C.3    72  A72         0.1860
   1534  O3'      -22.5570   47.6360  -19.1100 O.3    72  A72        -0.3112
   1535  C2'      -21.3690   47.7820  -16.9770 C.3    72  A72         0.2309
   1536  O2'      -22.6150   47.4150  -16.4190 O.3    72  A72        -0.2156
   1537  C1'      -20.2640   46.9010  -16.3960 C.3    72  A72         0.2408
   1538  N1       -16.7310   48.4860  -12.9930 N.ar   72  A72        -0.2040
   1539  C2       -17.8710   47.8030  -12.8390 C.ar   72  A72         0.2016
   1540  N3       -18.7470   47.4240  -13.7680 N.ar   72  A72        -0.2048
   1541  C4       -18.3560   47.8190  -14.9910 C.ar   72  A72         0.1692
   1542  C5       -17.2120   48.5250  -15.3050 C.ar   72  A72         0.1518
   1543  C6       -16.3660   48.8700  -14.2340 C.ar   72  A72         0.1919
   1544  N6       -15.2280   49.5510  -14.3920 N.pl3  72  A72        -0.1054
   1545  N7       -17.1350   48.7560  -16.6680 N.ar   72  A72        -0.2193
   1546  C8       -18.2180   48.1910  -17.1450 C.ar   72  A72         0.1816
   1547  N9       -19.0010   47.6060  -16.1890 N.ar   72  A72        -0.2693
   1548  OP1      -18.1170   45.2310  -21.8410 O.2    72  A72        -0.5172
   1549  OP2      -17.1390   47.5420  -21.3250 O.co2  72  A72        -0.4373
   1550  P        -22.9080   48.9810  -19.9090 P.3    73  G73         0.2141
   1551  C5'      -23.8660   50.5630  -18.0530 C.3    73  G73         0.1812
   1552  O5'      -22.7380   50.1070  -18.7870 O.3    73  G73        -0.3114
   1553  C4'      -24.4190   51.8260  -18.6840 C.3    73  G73         0.1773
   1554  O4'      -25.1480   52.5660  -17.6750 O.3    73  G73        -0.3307
   1555  C3'      -23.3580   52.8000  -19.1670 C.3    73  G73         0.1860
   1556  O3'      -23.9170   53.7490  -20.0740 O.3    73  G73        -0.3112
   1557  C2'      -22.9720   53.4590  -17.8510 C.3    73  G73         0.2309
   1558  O2'      -22.3560   54.7150  -18.0540 O.3    73  G73        -0.2156
   1559  C1'      -24.3440   53.6310  -17.2020 C.3    73  G73         0.2408
   1560  N1       -27.0350   52.7130  -12.9690 N.ar   73  G73        -0.1709
   1561  C2       -27.4290   52.6330  -14.2830 C.ar   73  G73         0.2606
   1562  N2       -28.6990   52.2620  -14.4990 N.pl3  73  G73        -0.0859
   1563  N3       -26.6350   52.8970  -15.3130 N.ar   73  G73        -0.1918
   1564  C4       -25.3900   53.2540  -14.9150 C.ar   73  G73         0.1723
   1565  C5       -24.9030   53.3630  -13.6320 C.ar   73  G73         0.1748
   1566  C6       -25.7610   53.0780  -12.5420 C.ar   73  G73         0.3023
   1567  O6       -25.5040   53.1210  -11.3310 O.2    73  G73        -0.2633
   1568  N7       -23.5720   53.7590  -13.6420 N.ar   73  G73        -0.2173
   1569  C8       -23.2850   53.8800  -14.9080 C.ar   73  G73         0.1817
   1570  N9       -24.3380   53.5880  -15.7410 N.ar   73  G73        -0.2693
   1571  OP1      -24.3390   48.9190  -20.2780 O.3    73  G73        -0.4373
   1572  OP2      -21.8830   49.1960  -20.9550 O.co2  73  G73        -0.5172
   1573  P        -23.0970   54.1890  -21.3780 P.3    74  U74         0.2141
   1574  C5'      -24.8930   56.0940  -21.7220 C.3    74  U74         0.1812
   1575  O5'      -24.1810   54.9790  -22.2540 O.3    74  U74        -0.3114
   1576  C4'      -23.9430   57.2190  -21.3540 C.3    74  U74         0.1773
   1577  O4'      -23.1960   57.6380  -22.5240 O.3    74  U74        -0.3307
   1578  C3'      -24.6030   58.4950  -20.8580 C.3    74  U74         0.1860
   1579  O3'      -24.9420   58.3720  -19.4810 O.3    74  U74        -0.3112
   1580  C2'      -23.4820   59.5030  -21.0940 C.3    74  U74         0.2309
   1581  O2'      -22.4720   59.4420  -20.1050 O.3    74  U74        -0.2156
   1582  C1'      -22.9350   59.0290  -22.4390 C.3    74  U74         0.2420
   1583  N1       -23.5690   59.7160  -23.6030 N.ar   74  U74        -0.2534
   1584  C2       -23.0630   60.9310  -24.0200 C.ar   74  U74         0.3546
   1585  O2       -22.1150   61.4810  -23.4870 O.2    74  U74        -0.2443
   1586  N3       -23.7140   61.4870  -25.0940 N.ar   74  U74        -0.1530
   1587  C4       -24.7960   60.9640  -25.7790 C.ar   74  U74         0.2846
   1588  O4       -25.2710   61.5830  -26.7280 O.2    74  U74        -0.2650
   1589  C5       -25.2650   59.6930  -25.2850 C.ar   74  U74         0.0814
   1590  C6       -24.6480   59.1310  -24.2380 C.ar   74  U74         0.0870
   1591  OP1      -22.7460   52.9570  -22.1190 O.2    74  U74        -0.5172
   1592  OP2      -22.0200   55.1110  -20.9520 O.co2  74  U74        -0.4373
   1593  P        -26.0820   59.3030  -18.8540 P.3    75  G75         0.2141
   1594  C5'      -28.0220   57.7820  -19.7380 C.3    75  G75         0.1812
   1595  O5'      -27.2960   58.2880  -18.6230 O.3    75  G75        -0.3114
   1596  C4'      -29.3160   57.1430  -19.2730 C.3    75  G75         0.1773
   1597  O4'      -29.0310   55.8890  -18.6010 O.3    75  G75        -0.3307
   1598  C3'      -30.0900   57.9630  -18.2510 C.3    75  G75         0.1860
   1599  O3'      -30.9350   58.9060  -18.9030 O.3    75  G75        -0.3112
   1600  C2'      -30.8840   56.8750  -17.5370 C.3    75  G75         0.2309
   1601  O2'      -32.0050   56.4470  -18.2870 O.3    75  G75        -0.2156
   1602  C1'      -29.8460   55.7620  -17.4500 C.3    75  G75         0.2408
   1603  N1       -29.5870   55.5190  -12.3600 N.ar   75  G75        -0.1709
   1604  C2       -30.6780   55.3580  -13.1810 C.ar   75  G75         0.2606
   1605  N2       -31.8460   55.1000  -12.5740 N.pl3  75  G75        -0.0859
   1606  N3       -30.6300   55.4420  -14.5060 N.ar   75  G75        -0.1918
   1607  C4       -29.3760   55.7070  -14.9500 C.ar   75  G75         0.1723
   1608  C5       -28.2270   55.8840  -14.2100 C.ar   75  G75         0.1748
   1609  C6       -28.2920   55.7910  -12.7990 C.ar   75  G75         0.3023
   1610  O6       -27.3710   55.9200  -11.9790 O.2    75  G75        -0.2633
   1611  N7       -27.1410   56.1390  -15.0370 N.ar   75  G75        -0.2173
   1612  C8       -27.6440   56.1120  -16.2400 C.ar   75  G75         0.1817
   1613  N9       -28.9940   55.8540  -16.2660 N.ar   75  G75        -0.2693
   1614  OP1      -26.4980   60.2740  -19.8910 O.2    75  G75        -0.5172
   1615  OP2      -25.6010   59.7850  -17.5400 O.co2  75  G75        -0.4373
   1616  P        -31.0630   60.3910  -18.3170 P.3    76  U76         0.2141
   1617  C5'      -33.1210   59.2440  -17.1890 C.3    76  U76         0.1812
   1618  O5'      -32.5530   60.4300  -17.7280 O.3    76  U76        -0.3114
   1619  C4'      -33.8210   59.4790  -15.8640 C.3    76  U76         0.1773
   1620  O4'      -33.4210   58.4170  -14.9560 O.3    76  U76        -0.3307
   1621  C3'      -33.4420   60.7530  -15.1220 C.3    76  U76         0.1860
   1622  O3'      -34.2110   61.8670  -15.5660 O.3    76  U76        -0.3112
   1623  C2'      -33.7870   60.3470  -13.6930 C.3    76  U76         0.2309
   1624  O2'      -35.1810   60.2660  -13.4680 O.3    76  U76        -0.2156
   1625  C1'      -33.1750   58.9530  -13.6690 C.3    76  U76         0.2420
   1626  N1       -31.7040   58.9780  -13.3960 N.ar   76  U76        -0.2534
   1627  C2       -31.2670   58.9520  -12.0870 C.ar   76  U76         0.3546
   1628  O2       -32.0220   58.9010  -11.1310 O.2    76  U76        -0.2443
   1629  N3       -29.9020   58.9850  -11.9310 N.ar   76  U76        -0.1530
   1630  C4       -28.9490   59.0440  -12.9320 C.ar   76  U76         0.2846
   1631  O4       -27.7570   59.0680  -12.6400 O.2    76  U76        -0.2650
   1632  C5       -29.4820   59.0710  -14.2700 C.ar   76  U76         0.0814
   1633  C6       -30.8080   59.0380  -14.4450 C.ar   76  U76         0.0870
   1634  OP1      -30.9980   61.3330  -19.4570 O.2    76  U76        -0.5172
   1635  OP2      -30.0970   60.5190  -17.2030 O.co2  76  U76        -0.4373
   1636  P        -33.5950   63.3440  -15.4780 P.3    77  C77         0.2141
   1637  C5'      -35.0080   63.6510  -13.2900 C.3    77  C77         0.1813
   1638  O5'      -33.7340   63.6950  -13.9230 O.3    77  C77        -0.3114
   1639  C4'      -34.8660   63.7580  -11.7830 C.3    77  C77         0.1801
   1640  O4'      -34.1830   62.5860  -11.2700 O.3    77  C77        -0.3306
   1641  C3'      -34.0330   64.9370  -11.3020 C.3    77  C77         0.2161
   1642  O3'      -34.8520   66.0920  -11.1720 O.3    77  C77        -0.2175
   1643  C2'      -33.5420   64.4420   -9.9460 C.3    77  C77         0.2338
   1644  O2'      -34.5060   64.6170   -8.9260 O.3    77  C77        -0.2155
   1645  C1'      -33.3160   62.9560  -10.2130 C.3    77  C77         0.2421
   1646  N1       -31.9130   62.6270  -10.6040 N.ar   77  C77        -0.2535
   1647  C2       -30.9570   62.3850   -9.6110 C.ar   77  C77         0.3532
   1648  O2       -31.2920   62.4490   -8.4230 O.2    77  C77        -0.2443
   1649  N3       -29.6870   62.0870   -9.9810 N.ar   77  C77        -0.1739
   1650  C4       -29.3650   62.0270  -11.2740 C.ar   77  C77         0.1759
   1651  N4       -28.1000   61.7310  -11.5900 N.pl3  77  C77        -0.1070
   1652  C5       -30.3240   62.2710  -12.3000 C.ar   77  C77         0.0566
   1653  C6       -31.5730   62.5640  -11.9240 C.ar   77  C77         0.0850
   1654  OP1      -34.4840   64.2540  -16.2340 O.2    77  C77        -0.5172
   1655  OP2      -32.1570   63.2660  -15.8240 O.co2  77  C77        -0.4373
@<TRIPOS>BOND
     1  1503  1482    2
     2  1588  1587    2
     3  1465  1482    1
     4  1465  1464    1
     5  1482  1484    1
     6  1482  1504    1
     7  1587  1589   ar
     8  1587  1586   ar
     9  1480  1459    2
    10  1484  1483    1
    11  1589  1590   ar
    12  1460  1462    1
    13  1460  1461    1
    14  1586  1584   ar
    15  1467  1466    1
    16  1462  1464    1
    17  1462  1463    1
    18  1464  1466    1
    19  1483  1485    1
    20  1526  1505    2
    21  1590  1583   ar
    22  1461  1459    1
    23  1466  1468    1
    24  1459  1443    1
    25  1459  1481    1
    26  1584  1583   ar
    27  1584  1585    2
    28  1485  1487    1
    29  1485  1486    1
    30  1488  1505    1
    31  1488  1487    1
    32  1463  1468    1
    33  1527  1505    1
    34  1505  1507    1
    35  1583  1582    1
    36  1443  1442    1
    37  1445  1444    1
    38  1468  1479    1
    39  1487  1489    1
    40  1486  1491    1
    41  1458  1437    2
    42  1490  1489    1
    43  1577  1582    1
    44  1577  1576    1
    45  1582  1580    1
    46  1575  1574    1
    47  1575  1573    1
    48  1444  1442    1
    49  1444  1446    1
    50  1442  1440    1
    51  1591  1573    2
    52  1507  1506    1
    53  1489  1491    1
    54  1479  1478   ar
    55  1479  1473   ar
    56  1548  1528    2
    57  1491  1502    1
    58  1506  1508    1
    59  1574  1576    1
    60  1440  1438    1
    61  1440  1441    1
    62   994   993    1
    63  1573  1592    1
    64  1573  1556    1
    65  1576  1578    1
    66  1549  1528    1
    67  1437  1457    1
    68  1437  1423    1
    69  1437  1439    1
    70  1478  1477   ar
    71  1472  1473   ar
    72  1472  1470   ar
    73  1580  1578    1
    74  1580  1581    1
    75  1572  1550    2
    76  1473  1474   ar
    77  1446  1441    1
    78  1446  1456    1
    79  1528  1530    1
    80  1528  1511    1
    81  1578  1579    1
    82  1438  1439    1
    83  1050  1029    2
    84  1502  1501   ar
    85  1502  1496   ar
    86  1501  1500   ar
    87  1009  1007    1
    88  1009  1010    1
    89  1009  1011    1
    90  1007  1008    1
    91  1014  1013    1
    92  1423  1422    1
    93   896   895    2
    94  1449  1448   ar
    95  1449  1450   ar
    96  1010  1015    1
    97  1571  1550    1
    98  1508  1510    1
    99  1508  1509    1
   100   993   995    1
   101   993   991    1
   102   851   850    2
   103  1471  1470    1
   104   998   997    2
   105  1425  1424    1
   106  1470  1469   ar
   107  1556  1555    1
   108  1012  1029    1
   109  1012  1011    1
   110  1530  1529    1
   111  1049  1029    1
   112  1477  1474   ar
   113  1429  1428    2
   114   995   990    1
   115   995   996    1
   116  1550  1534    1
   117  1550  1552    1
   118  1614  1593    2
   119  1029  1031    1
   120   992   991    1
   121   992  1006    1
   122  1027  1006    2
   123  1456  1450   ar
   124  1456  1455   ar
   125  1448  1447   ar
   126  1474  1475   ar
   127  1524  1523   ar
   128  1524  1525   ar
   129  1511  1510    1
   130  1594  1596    1
   131  1594  1595    1
   132  1529  1531    1
   133  1510  1512    1
   134   852   850   ar
   135   852   853   ar
   136   990   989    1
   137   989   991    1
   138   989   987    1
   139  1523  1520   ar
   140  1509  1514    1
   141  1450  1451   ar
   142  1011  1013    1
   143  1015  1013    1
   144  1015  1026    1
   145  1579  1593    1
   146  1500  1497   ar
   147   889   895   ar
   148   889   890   ar
   149  1634  1616    2
   150   895   894   ar
   151   850   849   ar
   152  1496  1495   ar
   153  1496  1497   ar
   154   878   859    2
   155  1596  1597    1
   156  1596  1598    1
   157  1008  1006    1
   158   847   846    1
   159   854   853    2
   160  1422  1424    1
   161  1422  1420    1
   162  1555  1553    1
   163  1555  1557    1
   164  1534  1533    1
   165  1006  1028    1
   166   997   996   ar
   167   997   999   ar
   168  1424  1426    1
   169  1426  1427    1
   170  1426  1421    1
   171  1416  1394    2
   172  1428  1427   ar
   173  1428  1430   ar
   174  1469  1475   ar
   175  1599  1616    1
   176  1599  1598    1
   177  1495  1493   ar
   178  1593  1595    1
   179  1593  1615    1
   180   996  1003   ar
   181   853   855   ar
   182  1552  1551    1
   183  1455  1454   ar
   184  1553  1551    1
   185  1553  1554    1
   186  1447  1452   ar
   187  1475  1476    2
   188  1497  1498   ar
   189  1597  1602    1
   190   891   890    1
   191  1525  1514    1
   192  1525  1519   ar
   193   987   988    1
   194  1531  1533    1
   195  1531  1532    1
   196  1533  1535    1
   197  1427  1434   ar
   198  1430  1431   ar
   199  1514  1512    1
   200  1451  1452   ar
   201  1451  1454   ar
   202   890   892   ar
   203  1420  1421    1
   204  1420  1418    1
   205  1031  1030    1
   206  1616  1618    1
   207  1616  1635    1
   208   978   977    2
   209  1601  1600    1
   210  1026  1025   ar
   211  1026  1020   ar
   212  1598  1600    1
   213  1512  1513    1
   214  1520  1519   ar
   215  1520  1521   ar
   216   894   897   ar
   217   894   893   ar
   218  1415  1394    1
   219   849   848    1
   220   849   856   ar
   221  1558  1557    1
   222   999  1000   ar
   223   859   877    1
   224   859   845    1
   225   859   861    1
   226   974   973    1
   227  1452  1453    1
   228  1394  1396    1
   229  1394  1380    1
   230   846   848    1
   231   846   844    1
   232  1557  1559    1
   233  1019  1020   ar
   234  1019  1017   ar
   235  1522  1521    2
   236  1030  1032    1
   237  1618  1617    1
   238   848   843    1
   239   897   898   ar
   240  1554  1559    1
   241   845   844    1
   242  1395  1396    1
   243  1395  1397    1
   244  1493  1494    1
   245  1493  1492   ar
   246  1003  1002   ar
   247  1025  1024   ar
   248  1519  1518   ar
   249  1600  1602    1
   250  1020  1021   ar
   251   855   856   ar
   252  1602  1613    1
   253  1521  1515   ar
   254  1434  1433   ar
   255  1431  1432    1
   256  1431  1433   ar
   257  1532  1537    1
   258  1498  1492   ar
   259  1498  1499    2
   260   988   986    1
   261  1559  1570    1
   262  1617  1619    1
   263   892   893   ar
   264  1546  1545   ar
   265  1546  1547   ar
   266   977   979   ar
   267   977   976   ar
   268   893   899   ar
   269  1018  1017    1
   270  1418  1419    1
   271   844   842    1
   272  1535  1536    1
   273  1535  1537    1
   274   973   975    1
   275   973   971    1
   276  1017  1016   ar
   277  1380  1379    1
   278   861   860    1
   279   860   862    1
   280   979   980   ar
   281  1000  1002   ar
   282  1000  1001    2
   283  1545  1542   ar
   284  1071  1051    2
   285  1397  1398    1
   286  1397  1399    1
   287  1067  1066    1
   288   975   976    1
   289   975   970    1
   290  1024  1021   ar
   291   162   161    1
   292  1034  1032    1
   293  1034  1036    1
   294  1034  1035    1
   295   198   177    2
   296  1021  1022   ar
   297  1032  1033    1
   298   898   899   ar
   299  1537  1547    1
   300  1398  1403    1
   301   843   842    1
   302  1382  1381    1
   303  1613  1612   ar
   304  1613  1607   ar
   305  1036  1037    1
   306  1036  1038    1
   307  1612  1611   ar
   308  1518  1516   ar
   309  1654  1636    2
   310  1419  1417    1
   311  1047  1046   ar
   312  1047  1048   ar
   313  1547  1541   ar
   314   976   983   ar
   315  1046  1043   ar
   316  1515  1516   ar
   317  1004   986    2
   318   140   139    1
   319   178   180    1
   320   178   179    1
   321   899   888    1
   322   221   200    2
   323   972   986    1
   324   972   971    1
   325   160   177    1
   326   160   159    1
   327   986  1005    1
   328  1619  1621    1
   329  1619  1620    1
   330   842   840    1
   331  1655  1636    1
   332  1016  1022   ar
   333  1570  1564   ar
   334  1570  1569   ar
   335  1066  1065   ar
   336  1066  1061   ar
   337  1413  1412   ar
   338  1413  1414   ar
   339  1068  1065   ar
   340  1068  1069   ar
   341   971   969    1
   342   175   154    2
   343  1622  1636    1
   344  1622  1621    1
   345  1033  1038    1
   346   918   917    1
   347  1379  1381    1
   348  1379  1377    1
   349   980   981    1
   350   980   982   ar
   351  1516  1517    1
   352  1636  1638    1
   353   862   863    1
   354   862   864    1
   355   157   159    1
   356   157   158    1
   357   157   155    1
   358  1022  1023    2
   359   180   182    1
   360   180   181    1
   361  1381  1383    1
   362   183   200    1
   363   183   182    1
   364  1412  1409   ar
   365   970   969    1
   366  1048  1038    1
   367  1048  1042   ar
   368  1065  1064   ar
   369   177   179    1
   370   177   199    1
   371  1035  1051    1
   372  1563  1564   ar
   373  1563  1561   ar
   374  1399  1400    1
   375  1399  1401    1
   376  1542  1541   ar
   377  1542  1543   ar
   378  1051  1072    1
   379  1051  1053    1
   380   156   155    1
   381   156   154    1
   382  1061  1062   ar
   383   875   876   ar
   384   875   873   ar
   385  1621  1623    1
   386   161   159    1
   387   161   163    1
   388   901   879    2
   389  1043  1042   ar
   390  1043  1044   ar
   391   863   868    1
   392  1611  1608   ar
   393   969   967    1
   394  1069  1070   ar
   395  1403  1414    1
   396  1403  1401    1
   397  1541  1540   ar
   398   158   163    1
   399  1620  1625    1
   400  1607  1606   ar
   401  1607  1608   ar
   402  1081  1080    1
   403  1564  1565   ar
   404  1569  1568   ar
   405   200   222    1
   406   200   202    1
   407   876   869   ar
   408  1414  1408   ar
   409   912   917   ar
   410   912   913   ar
   411   138   154    1
   412   138   137    1
   413  1077  1076    1
   414  1077  1082    1
   415  1045  1044    1
   416   827   826    1
   417  1400  1417    1
   418   983   982   ar
   419   940   939    1
   420   874   873    2
   421   841   840    1
   422   841   839    1
   423  1417  1435    2
   424  1417  1436    1
   425   917   916   ar
   426   154   176    1
   427  1377  1375    1
   428  1377  1378    1
   429   888   883    1
   430   888   886    1
   431  1042  1041   ar
   432   139   137    1
   433   139   141    1
   434  1059  1058    1
   435   873   872   ar
   436   182   184    1
   437   185   184    1
   438   163   174    1
   439  1076  1074    1
   440  1076  1078    1
   441   181   186    1
   442  1606  1604   ar
   443  1562  1561    1
   444  1044  1039   ar
   445   958   957    2
   446  1064  1070   ar
   447  1064  1063   ar
   448  1633  1632   ar
   449  1633  1626   ar
   450  1401  1402    1
   451  1053  1052    1
   452  1544  1543    1
   453  1082  1080    1
   454  1082  1083    1
   455   864   866    1
   456   864   865    1
   457  1062  1063   ar
   458  1561  1560   ar
   459  1632  1630   ar
   460  1409  1408   ar
   461  1409  1410   ar
   462  1070  1060    1
   463  1543  1538   ar
   464    23     1    1
   465  1608  1609   ar
   466  1058  1060    1
   467  1058  1056    1
   468  1074  1075    1
   469   869   868    1
   470   869   870   ar
   471   135   137    1
   472   135   136    1
   473   135   133    1
   474  1375  1376    1
   475   959   957   ar
   476   959   960   ar
   477   913   914   ar
   478   141   136    1
   479   141   151    1
   480   858   839    2
   481  1383  1378    1
   482  1383  1384    1
   483  1408  1407   ar
   484  1638  1637    1
   485   883   882    1
   486   868   866    1
   487  1080  1078    1
   488   886   884    1
   489   886   887    1
   490   872   870   ar
   491   201   202    1
   492   201   203    1
   493   881   879    1
   494   881   880    1
   495   184   186    1
   496  1540  1539   ar
   497   825   839    1
   498   825   824    1
   499   879   865    1
   500   879   900    1
   501  1623  1625    1
   502  1623  1624    1
   503   866   867    1
   504   957   956   ar
   505  1625  1626    1
   506  1411  1410    2
   507  1041  1040   ar
   508  1568  1565   ar
   509  1565  1566   ar
   510   916   919   ar
   511   916   915   ar
   512   839   857    1
   513   870   871    2
   514  1386  1385    2
   515   967   968    1
   516   961   960    1
   517   939   934   ar
   518   939   938   ar
   519  1039  1040   ar
   520  1079  1078    1
   521  1079  1093    1
   522  1410  1404   ar
   523   144   143   ar
   524   144   145   ar
   525   923   902    2
   526   186   197    1
   527  1376  1374    1
   528   826   824    1
   529   826   828    1
   530  1060  1055    1
   531  1626  1627   ar
   532  1085  1084    2
   533  1083  1084   ar
   534  1083  1090   ar
   535  1637  1639    1
   536   884   882    1
   537   884   885    1
   538   934   935   ar
   539   133   134    1
   540   244   223    2
   541  1604  1605    1
   542  1604  1603   ar
   543  1056  1054    1
   544  1056  1057    1
   545   919   920   ar
   546  1392  1374    2
   547   960   962   ar
   548  1075  1073    1
   549   174   168   ar
   550   174   173   ar
   551  1052  1054    1
   552   968   966    1
   553  1538  1539   ar
   554   831   830    2
   555  1384  1385   ar
   556  1384  1391   ar
   557  1560  1566   ar
   558   914   915   ar
   559  1630  1631    2
   560  1630  1629   ar
   561  1407  1405   ar
   562   143   142   ar
   563     1    22    1
   564     1     3    1
   565  1084  1086   ar
   566   824   822    1
   567  1094  1096    1
   568  1094  1095    1
   569   882   880    1
   570   124   123    2
   571  1385  1387   ar
   572  1609  1603   ar
   573  1609  1610    2
   574   915   921   ar
   575  1090  1089   ar
   576   828   823    1
   577   828   829    1
   578   822   823    1
   579   822   820    1
   580   151   145   ar
   581   151   150   ar
   582   167   168   ar
   583   167   165   ar
   584   922   902    1
   585  1566  1567    2
   586  1097  1096    1
   587  1097  1102    1
   588   120   119    1
   589  1055  1054    1
   590   145   146   ar
   591   954   953    1
   592   203   205    1
   593   203   204    1
   594  1404  1405   ar
   595   938   941   ar
   596   938   937   ar
   597  1374  1393    1
   598  1374  1357    1
   599   953   955    1
   600   953   951    1
   601  1096  1098    1
   602  1113  1093    2
   603   902   885    1
   604   902   904    1
   605   941   942   ar
   606   956   955    1
   607   956   963   ar
   608  1363  1362    1
   609  1057  1073    1
   610  1652  1653   ar
   611  1652  1650   ar
   612   168   169   ar
   613   173   172   ar
   614  1391  1390   ar
   615   197   196   ar
   616   197   191   ar
   617  1405  1406    1
   618  1093  1095    1
   619  1093  1114    1
   620   206   223    1
   621   206   205    1
   622   920   921   ar
   623  1627  1629   ar
   624  1627  1628    2
   625   196   195   ar
   626   223   245    1
   627   223   225    1
   628   955   950    1
   629   134   132    1
   630  1387  1388   ar
   631   935   936   ar
   632  1653  1646   ar
   633     3     2    1
   634  1086  1087   ar
   635   166   165    1
   636   830   829   ar
   637   830   832   ar
   638   921   911    1
   639  1089  1087   ar
   640  1639  1641    1
   641  1639  1640    1
   642   962   963   ar
   643  1073  1091    2
   644  1073  1092    1
   645   119   121    1
   646   119   117    1
   647   820   821    1
   648   123   125   ar
   649   123   122   ar
   650   165   164   ar
   651   205   207    1
   652   142   147   ar
   653   204   209    1
   654   829   836   ar
   655  1651  1650    1
   656  1285  1284    2
   657  1102  1112    1
   658  1102  1100    1
   659   150   149   ar
   660   966   985    2
   661   966   952    1
   662   966   984    1
   663  1362  1361   ar
   664  1362  1364   ar
   665  1087  1088    1
   666  1390  1388   ar
   667   125   126   ar
   668  1641  1642    1
   669  1641  1643    1
   670  1357  1356    1
   671   951   952    1
   672   951   949    1
   673  1650  1649   ar
   674  1640  1645    1
   675   906   911    1
   676   906   905    1
   677  1388  1389    1
   678   937   936   ar
   679   937   943   ar
   680  1101  1100    1
   681   146   147   ar
   682   146   149   ar
   683   942   943   ar
   684  1361  1367   ar
   685   904   903    1
   686   121   122    1
   687   121   116    1
   688   172   169   ar
   689   169   170   ar
   690  1098  1099    1
   691  1098  1100    1
   692   191   190   ar
   693   191   192   ar
   694   118   132    1
   695   118   117    1
   696  1364  1365   ar
   697  1099  1115    1
   698   195   192   ar
   699   832   833   ar
   700   903   905    1
   701   911   909    1
   702  1359  1358    1
   703   225   224    1
   704   147   148    1
   705  1112  1111   ar
   706  1112  1106   ar
   707   122   129   ar
   708  1111  1110   ar
   709   152   132    2
   710   132   153    1
   711   224   226    1
   712  1646  1645    1
   713  1646  1647   ar
   714   190   188   ar
   715  1358  1356    1
   716  1358  1360    1
   717   950   949    1
   718   117   115    1
   719     2     4    1
   720   821   819    1
   721  1356  1354    1
   722   807   806    1
   723   164   170   ar
   724   943   933    1
   725   836   835   ar
   726   207   209    1
   727   207   208    1
   728   209   220    1
   729  1284  1278   ar
   730  1284  1283   ar
   731  1645  1643    1
   732   905   907    1
   733  1367  1368    2
   734  1367  1366   ar
   735   192   193   ar
   736   949   947    1
   737   219   220   ar
   738   219   218   ar
   739   126   127    1
   740   126   128   ar
   741  1649  1647   ar
   742  1643  1644    1
   743   811   810    2
   744  1365  1366   ar
   745  1365  1371   ar
   746     5     4    1
   747     5    10    1
   748  1136  1115    2
   749   170   171    2
   750  1110  1107   ar
   751  1286  1283   ar
   752  1286  1287   ar
   753  1106  1105   ar
   754  1106  1107   ar
   755   116   115    1
   756     4     6    1
   757   837   819    2
   758   909   907    1
   759   909   910    1
   760  1647  1648    2
   761   104   103    2
   762  1115  1137    1
   763  1115  1117    1
   764   115   113    1
   765   265   246    2
   766   220   214   ar
   767  1366  1369   ar
   768  1278  1279   ar
   769  1105  1104   ar
   770    20    19   ar
   771    20    21   ar
   772  1283  1282   ar
   773   833   835   ar
   774   833   834    2
   775   806   808    1
   776   806   804    1
   777   129   128   ar
   778  1107  1108   ar
   779   188   189    1
   780   188   187   ar
   781   819   805    1
   782   819   838    1
   783   105   103   ar
   784   105   106   ar
   785  1360  1371    1
   786  1360  1355    1
   787  1371  1370   ar
   788    86    85    1
   789   218   215   ar
   790   226   227    1
   791   226   228    1
   792    19    16   ar
   793   907   908    1
   794   805   804    1
   795  1354  1352    1
   796  1354  1355    1
   797   947   948    1
   798    80    85   ar
   799    80    81   ar
   800   264   246    1
   801   688   687    1
   802    64    63    2
   803   107   106    1
   804   933   928    1
   805   933   931    1
   806   103   102   ar
   807  1116  1117    1
   808  1116  1118    1
   809  1287  1288   ar
   810    46    24    2
   811   810   812   ar
   812   810   809   ar
   813   193   187   ar
   814   193   194    2
   815    10    21    1
   816    10     8    1
   817   246   229    1
   818   246   248    1
   819  1104  1103   ar
   820  1369  1370   ar
   821    21    15   ar
   822  1352  1353    1
   823   227   232    1
   824   808   809    1
   825   808   803    1
   826   229   228    1
   827   928   927    1
   828   106   108   ar
   829   804   802    1
   830    85    84   ar
   831   228   230    1
   832  1108  1103   ar
   833  1108  1109    1
   834     6     7    1
   835     6     8    1
   836   812   813   ar
   837   214   215   ar
   838   214   213   ar
   839  1279  1280    1
   840  1279  1281   ar
   841  1282  1288   ar
   842  1282  1281   ar
   843   242   241   ar
   844   242   243   ar
   845    81    82   ar
   846   113   114    1
   847   931   929    1
   848   931   932    1
   849  1119  1118    1
   850  1119  1124    1
   851   215   216   ar
   852   908   924    1
   853   809   816   ar
   854     7    24    1
   855   929   927    1
   856   929   930    1
   857   241   238   ar
   858   948   946    1
   859  1118  1120    1
   860    16    15   ar
   861    16    17   ar
   862   925   927    1
   863   925   926    1
   864    63    57   ar
   865    63    62   ar
   866  1288  1277    1
   867    24    45    1
   868    24    26    1
   869    41    40    2
   870     8     9    1
   871   687   682   ar
   872   687   686   ar
   873   802   803    1
   874   802   800    1
   875   102   101    1
   876   102   109   ar
   877  1134  1133   ar
   878  1134  1135   ar
   879   926   924    1
   880   100    99    1
   881    15    14   ar
   882    57    58   ar
   883   213   211   ar
   884   114   112    1
   885   232   243    1
   886   232   230    1
   887   248   247    1
   888    42    43   ar
   889    42    39   ar
   890  1133  1130   ar
   891   243   237   ar
   892  1353  1351    1
   893   689   686   ar
   894   689   690   ar
   895    99   101    1
   896    99    97    1
   897   108   109   ar
   898   965   946    2
   899    84    83   ar
   900    84    87   ar
   901   230   231    1
   902   682   683   ar
   903   101    96    1
   904   813   814    1
   905   813   815   ar
   906    18    17    2
   907  1124  1135    1
   908  1124  1122    1
   909    82    83   ar
   910    17    11   ar
   911   686   685   ar
   912  1135  1129   ar
   913   924   944    2
   914   924   945    1
   915   216   217    2
   916   216   210   ar
   917  1373  1351    2
   918   930   946    1
   919   946   964    1
   920  1289  1268    2
   921   816   815   ar
   922    62    65   ar
   923    62    61   ar
   924    40    39   ar
   925    40    34   ar
   926    65    66   ar
   927   238   237   ar
   928   238   239   ar
   929  1346  1345    2
   930   262   263   ar
   931   262   260   ar
   932    43    44   ar
   933  1120  1121    1
   934  1120  1122    1
   935  1277  1272    1
   936  1277  1275    1
   937    39    38   ar
   938    83    89   ar
   939    26    25    1
   940  1372  1351    1
   941  1351  1337    1
   942  1344  1345   ar
   943  1344  1342   ar
   944  1130  1129   ar
   945  1130  1131   ar
   946   791   790    2
   947    14    12   ar
   948   800   801    1
   949    87    88   ar
   950  1343  1342    2
   951   247   249    1
   952   237   236   ar
   953   211   210   ar
   954   211   212    1
   955   261   260    2
   956    58    59    1
   957    58    60   ar
   958  1272  1271    1
   959  1129  1128   ar
   960   754   753    2
   961  1345  1347   ar
   962   690   691   ar
   963   287   266    2
   964   263   256   ar
   965   240   239    2
   966  1121  1138    1
   967  1342  1341   ar
   968  1122  1123    1
   969   112   131    2
   970   112    98    1
   971   112   130    1
   972   792   790   ar
   973   792   793   ar
   974  1132  1131    2
   975   683   684   ar
   976   260   259   ar
   977    96    95    1
   978    97    98    1
   979    97    95    1
   980   239   233   ar
   981  1131  1125   ar
   982    11    12   ar
   983   267   269    1
   984   267   268    1
   985   801   799    1
   986    34    35   ar
   987   685   691   ar
   988   685   684   ar
   989   790   789   ar
   990    61    60   ar
   991    61    67   ar
   992  1275  1273    1
   993  1275  1276    1
   994    12    13    1
   995    66    67   ar
   996  1268  1270    1
   997  1268  1254    1
   998  1268  1290    1
   999    25    27    1
  1000  1128  1126   ar
  1001  1338  1339    1
  1002  1338  1336    1
  1003  1338  1340    1
  1004   794   793    1
  1005    44    38   ar
  1006    44    33    1
  1007    38    37   ar
  1008   307   289    2
  1009    89    88   ar
  1010    89    79    1
  1011   269   270    1
  1012   269   271    1
  1013  1347  1348   ar
  1014   753   755   ar
  1015   753   752   ar
  1016   236   234   ar
  1017  1269  1271    1
  1018  1269  1270    1
  1019   691   681    1
  1020  1341  1348   ar
  1021  1341  1340    1
  1022    69    47    2
  1023   249   250    1
  1024   249   251    1
  1025  1337  1336    1
  1026    95    93    1
  1027   755   756   ar
  1028  1271  1273    1
  1029   793   795   ar
  1030   787   786    1
  1031   250   255    1
  1032  1125  1126   ar
  1033  1160  1138    2
  1034   251   252    1
  1035   251   253    1
  1036   272   289    1
  1037   272   271    1
  1038  1254  1253    1
  1039  1326  1325    1
  1040  1273  1274    1
  1041   266   268    1
  1042   266   252    1
  1043   266   288    1
  1044  1126  1127    1
  1045   256   255    1
  1046   256   257   ar
  1047  1336  1334    1
  1048    67    56    1
  1049  1138  1159    1
  1050  1138  1140    1
  1051   639   638    1
  1052    28    27    1
  1053    28    33    1
  1054   786   788    1
  1055   786   784    1
  1056   233   234   ar
  1057   710   709    1
  1058   259   257   ar
  1059  1340  1335    1
  1060   270   275    1
  1061    35    37   ar
  1062    35    36    1
  1063   789   788    1
  1064   789   796   ar
  1065   274   273    1
  1066    27    29    1
  1067   234   235    1
  1068   289   308    1
  1069   289   291    1
  1070   271   273    1
  1071    33    31    1
  1072   255   253    1
  1073   799   817    2
  1074   799   818    1
  1075   799   785    1
  1076    29    31    1
  1077    29    30    1
  1078    79    77    1
  1079    79    74    1
  1080   788   783    1
  1081   253   254    1
  1082   774   773    1
  1083   752   750   ar
  1084    77    78    1
  1085    77    75    1
  1086    94    93    1
  1087    94    92    1
  1088   257   258    2
  1089   756   749   ar
  1090  1325  1324   ar
  1091  1325  1327   ar
  1092  1156  1157   ar
  1093  1156  1153   ar
  1094   795   796   ar
  1095   621   620    1
  1096  1140  1139    1
  1097   681   676    1
  1098   681   679    1
  1099  1256  1255    1
  1100    47    30    1
  1101    47    49    1
  1102    47    68    1
  1103   273   275    1
  1104   785   784    1
  1105  1324  1322   ar
  1106   638   637   ar
  1107   638   640   ar
  1108  1155  1154    2
  1109  1253  1251    1
  1110  1253  1255    1
  1111   784   782    1
  1112  1274  1291    1
  1113   111    92    2
  1114   772   773   ar
  1115   772   770   ar
  1116  1157  1158   ar
  1117  1266  1248    2
  1118   275   286    1
  1119    31    32    1
  1120   637   643   ar
  1121  1249  1251    1
  1122  1249  1250    1
  1123   290   291    1
  1124   290   292    1
  1125   709   704   ar
  1126   709   708   ar
  1127  1306  1305    1
  1128  1334  1335    1
  1129  1334  1332    1
  1130    49    48    1
  1131    56    51    1
  1132    56    54    1
  1133  1251  1252    1
  1134   680   679    1
  1135   615   620   ar
  1136   615   616   ar
  1137   676   675    1
  1138   661   660   ar
  1139   661   662   ar
  1140   773   775   ar
  1141    91    70    2
  1142  1309  1291    2
  1143    75    76    1
  1144    75    73    1
  1145  1327  1328   ar
  1146    74    73    1
  1147  1153  1154   ar
  1148  1153  1152   ar
  1149   679   677    1
  1150  1255  1257    1
  1151  1333  1332    1
  1152  1333  1331    1
  1153  1154  1148   ar
  1154    92    76    1
  1155    92   110    1
  1156   620   619   ar
  1157  1350  1331    2
  1158    51    50    1
  1159   750   749   ar
  1160   750   751    2
  1161   704   705   ar
  1162   749   748    1
  1163   771   770    2
  1164   431   412    2
  1165    54    52    1
  1166    54    55    1
  1167   711   708   ar
  1168   711   712   ar
  1169   783   782    1
  1170   430   412    1
  1171   660   665   ar
  1172  1178  1177    2
  1173  1250  1248    1
  1174  1322  1323    2
  1175  1322  1321   ar
  1176  1291  1310    1
  1177  1291  1293    1
  1178  1139  1141    1
  1179   640   641   ar
  1180   770   769   ar
  1181  1142  1147    1
  1182  1142  1141    1
  1183    52    50    1
  1184    52    53    1
  1185   708   707   ar
  1186  1158  1152   ar
  1187  1158  1147    1
  1188   662   663   ar
  1189    72    70    1
  1190    72    71    1
  1191   782   780    1
  1192  1305  1307   ar
  1193  1305  1304   ar
  1194   733   732    2
  1195   616   617   ar
  1196  1330  1311    2
  1197  1248  1267    1
  1198  1248  1232    1
  1199   286   285   ar
  1200   286   280   ar
  1201   643   644    2
  1202   643   642   ar
  1203  1307  1308   ar
  1204  1152  1151   ar
  1205    73    71    1
  1206   292   293    1
  1207   292   294    1
  1208  1331  1349    1
  1209  1331  1317    1
  1210  1328  1321   ar
  1211   412   414    1
  1212   412   398    1
  1213    48    50    1
  1214   285   284   ar
  1215   726   732   ar
  1216   726   727   ar
  1217    70    53    1
  1218    70    90    1
  1219  1148  1149   ar
  1220  1252  1257    1
  1221  1147  1145    1
  1222   775   776   ar
  1223  1321  1320    1
  1224   728   727    1
  1225   675   677    1
  1226   675   673    1
  1227  1141  1143    1
  1228   328   309    2
  1229  1177  1171   ar
  1230  1177  1176   ar
  1231   327   309    1
  1232  1257  1258    1
  1233   414   413    1
  1234   677   678    1
  1235   712   713   ar
  1236   619   622   ar
  1237   619   618   ar
  1238  1304  1302   ar
  1239   748   743    1
  1240   748   746    1
  1241   732   731   ar
  1242   705   706   ar
  1243   673   674    1
  1244   293   298    1
  1245   665   666    1
  1246   665   664   ar
  1247   641   642   ar
  1248   641   647   ar
  1249   678   694    1
  1250  1171  1172   ar
  1251   295   309    1
  1252   295   294    1
  1253  1151  1149   ar
  1254  1232  1231    1
  1255   769   776   ar
  1256   769   768    1
  1257   420   419    1
  1258  1293  1292    1
  1259   727   729   ar
  1260  1149  1150    1
  1261   309   311    1
  1262   707   706   ar
  1263   707   713   ar
  1264  1308  1301   ar
  1265   663   664   ar
  1266   663   669   ar
  1267   415   413    1
  1268   415   416    1
  1269   415   417    1
  1270   642   645   ar
  1271   781   780    1
  1272   781   779    1
  1273  1318  1316    1
  1274  1318  1320    1
  1275  1318  1319    1
  1276   294   296    1
  1277   617   618   ar
  1278  1179  1176   ar
  1279  1179  1180   ar
  1280  1316  1317    1
  1281  1316  1314    1
  1282   280   279   ar
  1283   280   281   ar
  1284  1311  1313    1
  1285  1311  1329    1
  1286  1311  1297    1
  1287  1176  1175   ar
  1288   452   432    2
  1289   622   623   ar
  1290   743   742    1
  1291   747   746    1
  1292   418   417    1
  1293   418   432    1
  1294   416   421    1
  1295  1313  1312    1
  1296   284   281   ar
  1297   618   624   ar
  1298   398   397    1
  1299  1320  1315    1
  1300   279   277   ar
  1301  1199  1198    2
  1302   713   703    1
  1303   746   744    1
  1304   664   667   ar
  1305  1143  1145    1
  1306  1143  1144    1
  1307  1302  1301   ar
  1308  1302  1303    2
  1309  1234  1233    1
  1310  1258  1265   ar
  1311  1258  1259   ar
  1312  1145  1146    1
  1313   654   659    1
  1314   654   653    1
  1315   306   305   ar
  1316   306   299   ar
  1317  1301  1300    1
  1318   766   768    1
  1319   766   767    1
  1320   766   764    1
  1321   693   672    2
  1322  1172  1173    1
  1323  1172  1174   ar
  1324   659   669    1
  1325   659   657    1
  1326   417   419    1
  1327   768   763    1
  1328  1265  1264   ar
  1329   635   634    1
  1330   647   636    1
  1331   647   646   ar
  1332   731   730   ar
  1333   731   734   ar
  1334   669   668   ar
  1335   798   779    2
  1336   419   421    1
  1337   421   422    1
  1338   281   282   ar
  1339   653   651    1
  1340   653   655    1
  1341   674   672    1
  1342  1180  1181   ar
  1343  1292  1294    1
  1344   298   296    1
  1345   298   299    1
  1346  1296  1297    1
  1347  1296  1298    1
  1348  1296  1294    1
  1349   432   453    1
  1350   432   434    1
  1351  1260  1259    2
  1352   656   672    1
  1353   656   655    1
  1354   715   694    2
  1355  1175  1174   ar
  1356  1175  1181   ar
  1357  1231  1233    1
  1358  1231  1229    1
  1359   729   730   ar
  1360   636   634    1
  1361   636   631    1
  1362   305   303   ar
  1363  1315  1314    1
  1364   694   696    1
  1365   694   714    1
  1366   397   395    1
  1367   397   399    1
  1368   296   297    1
  1369  1183  1161    2
  1370   645   646   ar
  1371   779   797    1
  1372   779   765    1
  1373  1314  1312    1
  1374   623   624   ar
  1375  1259  1261   ar
  1376   395   393    1
  1377   395   396    1
  1378  1233  1235    1
  1379   433   434    1
  1380   433   435    1
  1381   634   632    1
  1382  1198  1197   ar
  1383  1198  1200   ar
  1384   311   310    1
  1385   672   692    1
  1386   624   614    1
  1387   299   300   ar
  1388   742   744    1
  1389   742   740    1
  1390   730   736   ar
  1391   764   765    1
  1392   764   762    1
  1393  1144  1161    1
  1394  1197  1195   ar
  1395   651   652    1
  1396  1298  1300    1
  1397  1298  1299    1
  1398  1181  1170    1
  1399   696   695    1
  1400   277   278    1
  1401   277   276   ar
  1402   734   735   ar
  1403  1294  1295    1
  1404   744   745    1
  1405   655   657    1
  1406   393   394    1
  1407  1300  1295    1
  1408   667   668   ar
  1409   703   698    1
  1410   703   701    1
  1411  1264  1262   ar
  1412   745   759    1
  1413  1229  1227    1
  1414  1229  1230    1
  1415   657   658    1
  1416   590   589    1
  1417   763   762    1
  1418   594   593    1
  1419   741   740    1
  1420   741   739    1
  1421   310   312    1
  1422   396   401    1
  1423   631   630    1
  1424   422   429   ar
  1425   422   423   ar
  1426  1161  1163    1
  1427  1161  1182    1
  1428   282   276   ar
  1429   282   283    2
  1430   698   697    1
  1431   435   436    1
  1432   435   437    1
  1433  1261  1262   ar
  1434   325   326   ar
  1435   325   323   ar
  1436  1200  1201   ar
  1437  1227  1228    1
  1438   303   304    1
  1439   303   302   ar
  1440   429   428   ar
  1441   399   400    1
  1442   399   401    1
  1443  1195  1196    2
  1444  1195  1194   ar
  1445   761   759    1
  1446   761   760    1
  1447   614   612    1
  1448   614   609    1
  1449   762   760    1
  1450   410   392    2
  1451  1262  1263    2
  1452  1170  1165    1
  1453  1170  1168    1
  1454   701   699    1
  1455   701   702    1
  1456   652   650    1
  1457   574   573    2
  1458  1235  1230    1
  1459  1235  1245    1
  1460   758   739    2
  1461   324   323    2
  1462   401   402    1
  1463  1246  1226    2
  1464   735   736   ar
  1465   300   302   ar
  1466   300   301    2
  1467   632   633    1
  1468   632   630    1
  1469   736   725    1
  1470  1165  1164    1
  1471   424   423    2
  1472   436   441    1
  1473   394   392    1
  1474   473   454    2
  1475   326   319   ar
  1476   595   593   ar
  1477   595   596   ar
  1478  1228  1226    1
  1479   695   697    1
  1480  1163  1162    1
  1481   593   592   ar
  1482   423   425   ar
  1483   323   322   ar
  1484   759   778    2
  1485   759   777    1
  1486   699   697    1
  1487   699   700    1
  1488   591   589    1
  1489   591   586    1
  1490   591   602    1
  1491   589   587    1
  1492   633   650    1
  1493   630   628    1
  1494   612   613    1
  1495   612   610    1
  1496   739   757    1
  1497   739   722    1
  1498   438   437    1
  1499   438   454    1
  1500  1201  1194   ar
  1501   472   454    1
  1502   586   585    1
  1503   348   329    2
  1504  1194  1193    1
  1505   738   716    2
  1506   437   439    1
  1507   609   608    1
  1508   454   456    1
  1509   721   723    1
  1510   721   722    1
  1511   721   719    1
  1512   404   403    2
  1513   312   313    1
  1514   312   314    1
  1515   392   411    1
  1516   392   378    1
  1517  1245  1239   ar
  1518  1245  1244   ar
  1519  1226  1247    1
  1520  1226  1210    1
  1521   585   587    1
  1522   585   583    1
  1523  1238  1239   ar
  1524  1238  1237   ar
  1525   723   725    1
  1526   723   724    1
  1527   428   426   ar
  1528   570   569    1
  1529   313   318    1
  1530   573   575   ar
  1531   573   572   ar
  1532  1162  1164    1
  1533   650   670    2
  1534   650   671    1
  1535   725   720    1
  1536   588   587    1
  1537   588   605    1
  1538  1168  1166    1
  1539  1168  1169    1
  1540   717   719    1
  1541   717   718    1
  1542  1164  1166    1
  1543   314   315    1
  1544   314   316    1
  1545   596   602   ar
  1546   596   597   ar
  1547  1239  1240   ar
  1548   441   439    1
  1549   441   451    1
  1550   402   403   ar
  1551   402   409   ar
  1552   575   576   ar
  1553   602   601   ar
  1554   319   318    1
  1555   319   320   ar
  1556   592   598   ar
  1557   440   439    1
  1558  1237  1236   ar
  1559  1244  1243   ar
  1560   315   329    1
  1561   425   426   ar
  1562   610   608    1
  1563   610   611    1
  1564  1166  1167    1
  1565   403   405   ar
  1566   329   347    1
  1567   329   331    1
  1568   700   716    1
  1569   720   719    1
  1570   322   320   ar
  1571   628   629    1
  1572   629   627    1
  1573   378   377    1
  1574   607   605    1
  1575   607   606    1
  1576  1193  1188    1
  1577  1193  1191    1
  1578   583   584    1
  1579   450   451   ar
  1580   450   449   ar
  1581   426   427    1
  1582   571   569    1
  1583   571   572    1
  1584   571   566    1
  1585   569   567    1
  1586   716   718    1
  1587   716   737    1
  1588   608   606    1
  1589   318   316    1
  1590   469   468    1
  1591   625   605    2
  1592   554   553    2
  1593  1210  1209    1
  1594   572   579   ar
  1595  1240  1243   ar
  1596  1240  1241   ar
  1597   451   445   ar
  1598   605   626    1
  1599   470   468   ar
  1600   470   471   ar
  1601   320   321    2
  1602  1188  1187    1
  1603   409   408   ar
  1604   456   455    1
  1605  1236  1241   ar
  1606   597   598   ar
  1607   597   600   ar
  1608   316   317    1
  1609  1203  1184    2
  1610   380   379    1
  1611   555   553   ar
  1612   555   556   ar
  1613   576   577    2
  1614   576   578   ar
  1615   649   627    2
  1616   598   599    2
  1617   611   627    1
  1618   344   343    2
  1619  1212  1211    1
  1620   601   600   ar
  1621  1241  1242    1
  1622   468   467   ar
  1623   449   446   ar
  1624   566   565    1
  1625   627   648    1
  1626   553   552   ar
  1627   405   406   ar
  1628  1167  1184    1
  1629  1191  1192    1
  1630  1191  1189    1
  1631   377   379    1
  1632   377   375    1
  1633   345   343   ar
  1634   345   346   ar
  1635   584   582    1
  1636   471   464   ar
  1637   331   330    1
  1638  1211  1209    1
  1639  1211  1213    1
  1640  1209  1207    1
  1641   536   535    2
  1642   557   556    1
  1643   366   365    2
  1644   531   530    1
  1645   455   457    1
  1646   529   535   ar
  1647   529   530   ar
  1648   567   568    1
  1649   567   565    1
  1650  1186  1184    1
  1651  1186  1185    1
  1652   579   578   ar
  1653   343   342   ar
  1654  1184  1202    1
  1655   568   582    1
  1656   565   563    1
  1657   556   558   ar
  1658   445   446   ar
  1659   445   444   ar
  1660   379   381    1
  1661   408   406   ar
  1662   513   512    2
  1663  1215  1216   ar
  1664  1215  1214   ar
  1665  1187  1189    1
  1666  1187  1185    1
  1667   490   489    1
  1668   371   349    2
  1669  1216  1217   ar
  1670  1189  1190    1
  1671   535   534   ar
  1672   346   339   ar
  1673   384   383    2
  1674   446   447   ar
  1675   530   532   ar
  1676   406   407    2
  1677   381   376    1
  1678   381   382    1
  1679   375   376    1
  1680   375   373    1
  1681   467   465   ar
  1682   582   603    2
  1683   582   604    1
  1684  1214  1219   ar
  1685   552   551    1
  1686   552   559   ar
  1687   330   332    1
  1688   444   443   ar
  1689   464   465   ar
  1690   464   463    1
  1691   365   364   ar
  1692   365   359   ar
  1693   458   457    1
  1694   458   463    1
  1695  1207  1205    1
  1696  1207  1208    1
  1697   367   364   ar
  1698   367   368   ar
  1699   550   549    1
  1700  1217  1223   ar
  1701  1217  1218   ar
  1702  1213  1223    1
  1703  1213  1208    1
  1704   551   549    1
  1705   551   546    1
  1706   457   459    1
  1707   495   474    2
  1708   342   340   ar
  1709   512   506   ar
  1710   512   511   ar
  1711   549   547    1
  1712   558   559   ar
  1713   465   466    2
  1714   563   564    1
  1715  1219  1218   ar
  1716  1219  1220    1
  1717  1223  1222   ar
  1718   383   382   ar
  1719   383   385   ar
  1720   364   363   ar
  1721   489   488   ar
  1722   489   484   ar
  1723  1225  1204    2
  1724  1205  1206    1
  1725   349   370    1
  1726   349   335    1
  1727   349   351    1
  1728  1190  1204    1
  1729   459   460    1
  1730   459   461    1
  1731  1206  1204    1
  1732   491   488   ar
  1733   491   492   ar
  1734  1218  1221   ar
  1735   382   389   ar
  1736   339   340   ar
  1737   339   338    1
  1738   534   533   ar
  1739   534   537   ar
  1740   463   461    1
  1741   506   507   ar
  1742   532   533   ar
  1743   373   374    1
  1744   447   448    1
  1745   447   442   ar
  1746   359   360   ar
  1747   334   332    1
  1748   334   335    1
  1749   334   336    1
  1750   332   333    1
  1751   368   369   ar
  1752   443   442   ar
  1753   564   562    1
  1754   488   487   ar
  1755   333   338    1
  1756  1204  1224    1
  1757   340   341    2
  1758  1222  1221   ar
  1759   484   485   ar
  1760   546   545    1
  1761   514   511   ar
  1762   514   515   ar
  1763   533   539   ar
  1764   511   510   ar
  1765   460   474    1
  1766   474   494    1
  1767   474   476    1
  1768   351   350    1
  1769   461   462    1
  1770   385   386   ar
  1771   537   538   ar
  1772   338   336    1
  1773   492   493   ar
  1774   547   545    1
  1775   547   548    1
  1776   363   369   ar
  1777   363   362   ar
  1778   374   372    1
  1779   389   388   ar
  1780   336   337    1
  1781   507   508    1
  1782   507   509   ar
  1783   360   362   ar
  1784   360   361    1
  1785   369   358    1
  1786   545   543    1
  1787   548   562    1
  1788   487   493   ar
  1789   487   486   ar
  1790   562   581    2
  1791   562   580    1
  1792   476   475    1
  1793   515   516   ar
  1794   485   486   ar
  1795   510   509   ar
  1796   510   516   ar
  1797   539   538   ar
  1798   539   528    1
  1799   493   483    1
  1800   350   352    1
  1801   386   388   ar
  1802   386   387    2
  1803   354   352    1
  1804   354   356    1
  1805   354   355    1
  1806   390   372    2
  1807   372   355    1
  1808   372   391    1
  1809   516   505    1
  1810   358   353    1
  1811   358   356    1
  1812   353   352    1
  1813   543   544    1
  1814   544   542    1
  1815   356   357    1
  1816   528   526    1
  1817   528   523    1
  1818   475   477    1
  1819   526   527    1
  1820   526   524    1
  1821   478   483    1
  1822   478   477    1
  1823   483   481    1
  1824   518   496    2
  1825   479   477    1
  1826   479   481    1
  1827   479   480    1
  1828   561   542    2
  1829   505   500    1
  1830   505   503    1
  1831   524   525    1
  1832   524   522    1
  1833   523   522    1
  1834   481   482    1
  1835   541   519    2
  1836   542   525    1
  1837   542   560    1
  1838   500   499    1
  1839   503   501    1
  1840   503   504    1
  1841   496   480    1
  1842   496   498    1
  1843   496   517    1
  1844   497   499    1
  1845   497   498    1
  1846   501   499    1
  1847   501   502    1
  1848   521   519    1
  1849   521   520    1
  1850   522   520    1
  1851   519   502    1
  1852   519   540    1
