ligand
 OpenBabel11021811473D
libRbt.so/2013.1/901 2013/11/27
 27 29  0  0  0  0  0  0  0  0999 V2000
   18.1490   -6.0149  -19.2696 N   0  0  0  0  0  0  0  0  0  0  0  0
   16.7749   -5.6628  -18.8825 C   0  0  2  0  0  0  0  0  0  0  0  0
   16.6065   -5.8057  -17.3667 C   0  0  0  0  0  0  0  0  0  0  0  0
   15.8058   -5.0237  -16.8091 O   0  0  0  0  0  0  0  0  0  0  0  0
   15.8048   -6.6112  -19.5891 C   0  0  0  0  0  0  0  0  0  0  0  0
   14.3468   -6.1813  -19.4078 C   0  0  0  0  0  0  0  0  0  0  0  0
   11.6012   -6.9101  -19.4346 C   0  0  0  0  0  0  0  0  0  0  0  0
   13.1927   -7.3727  -20.2463 Se  0  0  2  0  0  0  0  0  0  0  0  0
   13.5054   -9.0577  -19.5257 C   0  0  0  0  0  0  0  0  0  0  0  0
   12.3754  -10.0544  -19.7869 C   0  0  1  0  0  0  0  0  0  0  0  0
   11.9281   -9.8867  -21.1432 O   0  0  0  0  0  0  0  0  0  0  0  0
   12.9889  -11.4547  -19.7517 C   0  0  1  0  0  0  0  0  0  0  0  0
   11.9506  -12.4343  -19.8009 O   0  0  0  0  0  0  0  0  0  0  0  0
   13.7417  -11.4265  -21.0796 C   0  0  1  0  0  0  0  0  0  0  0  0
   13.9760  -12.7703  -21.5043 O   0  0  0  0  0  0  0  0  0  0  0  0
   12.6657  -10.8041  -21.9704 C   0  0  2  0  0  0  0  0  0  0  0  0
   17.2880   -6.6863  -16.7972 O   0  0  0  0  0  0  0  0  0  0  0  0
   16.0312   -7.2986  -23.7110 N   0  0  0  0  0  0  0  0  0  0  0  0
   15.7888   -7.6666  -22.4647 C   0  0  0  0  0  0  0  0  0  0  0  0
   14.8883   -8.5890  -22.1733 N   0  0  0  0  0  0  0  0  0  0  0  0
   14.1868   -9.1894  -23.1467 C   0  0  0  0  0  0  0  0  0  0  0  0
   14.4123   -8.8282  -24.4676 C   0  0  0  0  0  0  0  0  0  0  0  0
   15.3649   -7.8514  -24.7327 C   0  0  0  0  0  0  0  0  0  0  0  0
   15.5815   -7.4512  -25.9818 N   0  0  0  0  0  0  0  0  0  0  0  0
   13.6024   -9.5560  -25.2283 N   0  0  0  0  0  0  0  0  0  0  0  0
   12.8944  -10.3437  -24.4222 C   0  0  0  0  0  0  0  0  0  0  0  0
   13.2446  -10.1267  -23.1543 N   0  0  0  0  0  0  0  0  0  0  0  0
  2  1  1  1  0  0  0
  2  5  1  0  0  0  0
  2  3  1  0  0  0  0
  3 17  1  0  0  0  0
  3  4  1  0  0  0  0
  5  6  1  0  0  0  0
  7  8  1  0  0  0  0
  8  6  1  1  0  0  0
  8  9  1  0  0  0  0
 10  9  1  6  0  0  0
 10 11  1  0  0  0  0
 10 12  1  0  0  0  0
 11 16  1  0  0  0  0
 12 13  1  6  0  0  0
 12 14  1  0  0  0  0
 14 15  1  6  0  0  0
 14 16  1  0  0  0  0
 16 27  1  6  0  0  0
 18 23  2  0  0  0  0
 18 19  1  0  0  0  0
 19 20  2  0  0  0  0
 20 21  1  0  0  0  0
 21 22  2  0  0  0  0
 21 27  1  0  0  0  0
 22 23  1  0  0  0  0
 22 25  1  0  0  0  0
 23 24  1  0  0  0  0
 25 26  2  0  0  0  0
 26 27  1  0  0  0  0
M  END
>  <CHROM.1>
-171.37023365,148.05271824,-178.78407204,163.38007025,162.43217249,41.67011366
65.61664981,14.20078103,-8.38857200,-20.95827489,-0.96009085,-0.87885182
-1.80185612

>  <Name>
ligand

>  <RI>
0

>  <Rbt.Current_Directory>
/home/itssahil/PROJECTS/Mol_Feturizer/New_Systems/rnas/3E5F

>  <Rbt.Executable>
rbdock ($Id: //depot/dev/client3/rdock/2013.1/src/exe/rbdock.cxx#4 $)

>  <Rbt.Library>
libRbt.so (2013.1, Build901 2013/11/27)

>  <Rbt.Parameter_File>
/export/apps/rDock/src/rDock_2013.1_src/data/scripts/dock_solv.prm

>  <Rbt.Receptor>
prm/pocket_docking_2.prm

>  <SCORE>
-18.4361

>  <SCORE.INTER>
-16.9972

>  <SCORE.INTER.CONST>
1

>  <SCORE.INTER.POLAR>
0

>  <SCORE.INTER.ROT>
7

>  <SCORE.INTER.SOLV>
20.685

>  <SCORE.INTER.VDW>
-26.4931

>  <SCORE.INTER.norm>
-0.629526

>  <SCORE.INTRA>
-1.43894

>  <SCORE.INTRA.DIHEDRAL>
-0.322197

>  <SCORE.INTRA.DIHEDRAL.0>
4.89803

>  <SCORE.INTRA.POLAR>
0

>  <SCORE.INTRA.POLAR.0>
0

>  <SCORE.INTRA.REPUL>
0

>  <SCORE.INTRA.REPUL.0>
0

>  <SCORE.INTRA.SOLV>
0.0425626

>  <SCORE.INTRA.SOLV.lig_0>
-48.5832

>  <SCORE.INTRA.VDW>
-1.29912

>  <SCORE.INTRA.VDW.0>
-2.39056

>  <SCORE.INTRA.norm>
-0.0532939

>  <SCORE.RESTR>
0

>  <SCORE.RESTR.CAVITY>
0

>  <SCORE.RESTR.norm>
0

>  <SCORE.SYSTEM>
0

>  <SCORE.SYSTEM.CONST>
0

>  <SCORE.SYSTEM.DIHEDRAL>
0

>  <SCORE.SYSTEM.SOLV>
0

>  <SCORE.SYSTEM.norm>
0

>  <SCORE.heavy>
27

>  <SCORE.norm>
-0.68282

>  <RMSD>
0.670

$$$$
ligand
 OpenBabel11021811473D
libRbt.so/2013.1/901 2013/11/27
 27 29  0  0  0  0  0  0  0  0999 V2000
   18.1879   -5.8807  -19.3785 N   0  0  0  0  0  0  0  0  0  0  0  0
   16.8139   -5.5882  -18.9444 C   0  0  2  0  0  0  0  0  0  0  0  0
   16.6882   -5.7968  -17.4322 C   0  0  0  0  0  0  0  0  0  0  0  0
   17.3114   -6.7624  -16.9394 O   0  0  0  0  0  0  0  0  0  0  0  0
   15.8559   -6.5380  -19.6656 C   0  0  0  0  0  0  0  0  0  0  0  0
   14.3901   -6.1731  -19.4173 C   0  0  0  0  0  0  0  0  0  0  0  0
   11.6431   -6.8920  -19.5041 C   0  0  0  0  0  0  0  0  0  0  0  0
   13.2526   -7.3708  -20.2695 Se  0  0  2  0  0  0  0  0  0  0  0  0
   13.5403   -9.0476  -19.5200 C   0  0  0  0  0  0  0  0  0  0  0  0
   12.3985  -10.0337  -19.7697 C   0  0  1  0  0  0  0  0  0  0  0  0
   11.9377   -9.8603  -21.1207 O   0  0  0  0  0  0  0  0  0  0  0  0
   12.9997  -11.4395  -19.7429 C   0  0  1  0  0  0  0  0  0  0  0  0
   11.9520  -12.4097  -19.7816 O   0  0  0  0  0  0  0  0  0  0  0  0
   13.7378  -11.4165  -21.0790 C   0  0  1  0  0  0  0  0  0  0  0  0
   13.9553  -12.7619  -21.5078 O   0  0  0  0  0  0  0  0  0  0  0  0
   12.6577  -10.7834  -21.9571 C   0  0  2  0  0  0  0  0  0  0  0  0
   15.9650   -4.9933  -16.8033 O   0  0  0  0  0  0  0  0  0  0  0  0
   16.0784   -7.3512  -23.7357 N   0  0  0  0  0  0  0  0  0  0  0  0
   15.8524   -7.7250  -22.4881 C   0  0  0  0  0  0  0  0  0  0  0  0
   14.9339   -8.6261  -22.1864 N   0  0  0  0  0  0  0  0  0  0  0  0
   14.1965   -9.1979  -23.1502 C   0  0  0  0  0  0  0  0  0  0  0  0
   14.4038   -8.8297  -24.4721 C   0  0  0  0  0  0  0  0  0  0  0  0
   15.3763   -7.8759  -24.7482 C   0  0  0  0  0  0  0  0  0  0  0  0
   15.5773   -7.4692  -25.9978 N   0  0  0  0  0  0  0  0  0  0  0  0
   13.5589   -9.5282  -25.2223 N   0  0  0  0  0  0  0  0  0  0  0  0
   12.8473  -10.3049  -24.4088 C   0  0  0  0  0  0  0  0  0  0  0  0
   13.2296  -10.1098  -23.1466 N   0  0  0  0  0  0  0  0  0  0  0  0
  2  1  1  6  0  0  0
  2  5  1  0  0  0  0
  2  3  1  0  0  0  0
  3 17  1  0  0  0  0
  3  4  1  0  0  0  0
  5  6  1  0  0  0  0
  7  8  1  0  0  0  0
  8  6  1  1  0  0  0
  8  9  1  0  0  0  0
 10  9  1  6  0  0  0
 10 11  1  0  0  0  0
 10 12  1  0  0  0  0
 11 16  1  0  0  0  0
 12 13  1  6  0  0  0
 12 14  1  0  0  0  0
 14 15  1  6  0  0  0
 14 16  1  0  0  0  0
 16 27  1  6  0  0  0
 18 23  2  0  0  0  0
 18 19  1  0  0  0  0
 19 20  2  0  0  0  0
 20 21  1  0  0  0  0
 21 22  2  0  0  0  0
 21 27  1  0  0  0  0
 22 23  1  0  0  0  0
 22 25  1  0  0  0  0
 23 24  1  0  0  0  0
 25 26  2  0  0  0  0
 26 27  1  0  0  0  0
M  END
>  <CHROM.1>
-172.11179134,-38.28773062,-178.51394573,168.64897656,161.10475285,40.31177231
66.87200288,14.23058619,-8.37891838,-20.97915589,-0.93081891,-0.87482766
-1.79464780

>  <Name>
ligand

>  <RI>
0

>  <Rbt.Current_Directory>
/home/itssahil/PROJECTS/Mol_Feturizer/New_Systems/rnas/3E5F

>  <Rbt.Executable>
rbdock ($Id: //depot/dev/client3/rdock/2013.1/src/exe/rbdock.cxx#4 $)

>  <Rbt.Library>
libRbt.so (2013.1, Build901 2013/11/27)

>  <Rbt.Parameter_File>
/export/apps/rDock/src/rDock_2013.1_src/data/scripts/dock_solv.prm

>  <Rbt.Receptor>
prm/pocket_docking_2.prm

>  <SCORE>
-18.511

>  <SCORE.INTER>
-17.0323

>  <SCORE.INTER.CONST>
1

>  <SCORE.INTER.POLAR>
0

>  <SCORE.INTER.ROT>
7

>  <SCORE.INTER.SOLV>
21.1208

>  <SCORE.INTER.VDW>
-26.6618

>  <SCORE.INTER.norm>
-0.630824

>  <SCORE.INTRA>
-1.47875

>  <SCORE.INTRA.DIHEDRAL>
-0.324988

>  <SCORE.INTRA.DIHEDRAL.0>
4.89803

>  <SCORE.INTRA.POLAR>
0

>  <SCORE.INTRA.POLAR.0>
0

>  <SCORE.INTRA.REPUL>
0

>  <SCORE.INTRA.REPUL.0>
0

>  <SCORE.INTRA.SOLV>
0.0407778

>  <SCORE.INTRA.SOLV.lig_0>
-48.5832

>  <SCORE.INTRA.VDW>
-1.33664

>  <SCORE.INTRA.VDW.0>
-2.39056

>  <SCORE.INTRA.norm>
-0.0547684

>  <SCORE.RESTR>
0

>  <SCORE.RESTR.CAVITY>
0

>  <SCORE.RESTR.norm>
0

>  <SCORE.SYSTEM>
0

>  <SCORE.SYSTEM.CONST>
0

>  <SCORE.SYSTEM.DIHEDRAL>
0

>  <SCORE.SYSTEM.SOLV>
0

>  <SCORE.SYSTEM.norm>
0

>  <SCORE.heavy>
27

>  <SCORE.norm>
-0.685592

>  <RMSD>
0.703

$$$$
ligand
 OpenBabel11021811473D
libRbt.so/2013.1/901 2013/11/27
 27 29  0  0  0  0  0  0  0  0999 V2000
   17.3572   -5.9309  -19.5779 N   0  0  0  0  0  0  0  0  0  0  0  0
   16.3199   -5.4412  -18.6581 C   0  0  2  0  0  0  0  0  0  0  0  0
   16.7760   -5.6301  -17.2081 C   0  0  0  0  0  0  0  0  0  0  0  0
   16.2103   -4.9300  -16.3401 O   0  0  0  0  0  0  0  0  0  0  0  0
   15.0367   -6.2407  -18.8910 C   0  0  0  0  0  0  0  0  0  0  0  0
   14.4238   -5.9558  -20.2645 C   0  0  0  0  0  0  0  0  0  0  0  0
   11.7235   -6.2253  -19.4242 C   0  0  0  0  0  0  0  0  0  0  0  0
   12.9342   -7.0264  -20.5635 Se  0  0  2  0  0  0  0  0  0  0  0  0
   13.2318   -8.6519  -19.7118 C   0  0  0  0  0  0  0  0  0  0  0  0
   12.1488   -9.6954  -19.9888 C   0  0  1  0  0  0  0  0  0  0  0  0
   11.7870   -9.6149  -21.3781 O   0  0  0  0  0  0  0  0  0  0  0  0
   12.7963  -11.0723  -19.8363 C   0  0  1  0  0  0  0  0  0  0  0  0
   11.7902  -12.0845  -19.8970 O   0  0  0  0  0  0  0  0  0  0  0  0
   13.6334  -11.0928  -21.1127 C   0  0  1  0  0  0  0  0  0  0  0  0
   13.9314  -12.4498  -21.4459 O   0  0  0  0  0  0  0  0  0  0  0  0
   12.6018  -10.5526  -22.1040 C   0  0  2  0  0  0  0  0  0  0  0  0
   17.6861   -6.4623  -16.9999 O   0  0  0  0  0  0  0  0  0  0  0  0
   16.2033   -7.2780  -23.8215 N   0  0  0  0  0  0  0  0  0  0  0  0
   15.9207   -7.6194  -22.5761 C   0  0  0  0  0  0  0  0  0  0  0  0
   14.9604   -8.4816  -22.2910 N   0  0  0  0  0  0  0  0  0  0  0  0
   14.2370   -9.0456  -23.2700 C   0  0  0  0  0  0  0  0  0  0  0  0
   14.5034   -8.7105  -24.5901 C   0  0  0  0  0  0  0  0  0  0  0  0
   15.5186   -7.7971  -24.8487 C   0  0  0  0  0  0  0  0  0  0  0  0
   15.7775   -7.4219  -26.0975 N   0  0  0  0  0  0  0  0  0  0  0  0
   13.6607   -9.3932  -25.3571 N   0  0  0  0  0  0  0  0  0  0  0  0
   12.8937  -10.1285  -24.5556 C   0  0  0  0  0  0  0  0  0  0  0  0
   13.2385   -9.9227  -23.2843 N   0  0  0  0  0  0  0  0  0  0  0  0
  2  1  1  6  0  0  0
  2  5  1  0  0  0  0
  2  3  1  0  0  0  0
  3 17  1  0  0  0  0
  3  4  1  0  0  0  0
  5  6  1  0  0  0  0
  7  8  1  0  0  0  0
  8  6  1  1  0  0  0
  8  9  1  0  0  0  0
 10  9  1  6  0  0  0
 10 11  1  0  0  0  0
 10 12  1  0  0  0  0
 11 16  1  0  0  0  0
 12 13  1  6  0  0  0
 12 14  1  0  0  0  0
 14 15  1  6  0  0  0
 14 16  1  0  0  0  0
 16 27  1  6  0  0  0
 18 23  2  0  0  0  0
 18 19  1  0  0  0  0
 19 20  2  0  0  0  0
 20 21  1  0  0  0  0
 21 22  2  0  0  0  0
 21 27  1  0  0  0  0
 22 23  1  0  0  0  0
 22 25  1  0  0  0  0
 23 24  1  0  0  0  0
 25 26  2  0  0  0  0
 26 27  1  0  0  0  0
M  END
>  <CHROM.1>
-67.35405804,159.59290683,176.11078359,72.67873606,-174.08395127,40.84448971
72.14952785,14.11967687,-8.13798719,-21.07479097,-1.05256874,-0.82811470
-1.84757856

>  <Name>
ligand

>  <RI>
0

>  <Rbt.Current_Directory>
/home/itssahil/PROJECTS/Mol_Feturizer/New_Systems/rnas/3E5F

>  <Rbt.Executable>
rbdock ($Id: //depot/dev/client3/rdock/2013.1/src/exe/rbdock.cxx#4 $)

>  <Rbt.Library>
libRbt.so (2013.1, Build901 2013/11/27)

>  <Rbt.Parameter_File>
/export/apps/rDock/src/rDock_2013.1_src/data/scripts/dock_solv.prm

>  <Rbt.Receptor>
prm/pocket_docking_4.prm

>  <SCORE>
-17.8143

>  <SCORE.INTER>
-17.401

>  <SCORE.INTER.CONST>
1

>  <SCORE.INTER.POLAR>
0

>  <SCORE.INTER.ROT>
7

>  <SCORE.INTER.SOLV>
19.7809

>  <SCORE.INTER.VDW>
-26.461

>  <SCORE.INTER.norm>
-0.644483

>  <SCORE.INTRA>
-0.413259

>  <SCORE.INTRA.DIHEDRAL>
0.261791

>  <SCORE.INTRA.DIHEDRAL.0>
4.89803

>  <SCORE.INTRA.POLAR>
0

>  <SCORE.INTRA.POLAR.0>
0

>  <SCORE.INTRA.REPUL>
0

>  <SCORE.INTRA.REPUL.0>
0

>  <SCORE.INTRA.SOLV>
0.819423

>  <SCORE.INTRA.SOLV.lig_0>
-48.5832

>  <SCORE.INTRA.VDW>
-0.953866

>  <SCORE.INTRA.VDW.0>
-2.39056

>  <SCORE.INTRA.norm>
-0.0153059

>  <SCORE.RESTR>
0

>  <SCORE.RESTR.CAVITY>
0

>  <SCORE.RESTR.norm>
0

>  <SCORE.SYSTEM>
0

>  <SCORE.SYSTEM.CONST>
0

>  <SCORE.SYSTEM.DIHEDRAL>
0

>  <SCORE.SYSTEM.SOLV>
0

>  <SCORE.SYSTEM.norm>
0

>  <SCORE.heavy>
27

>  <SCORE.norm>
-0.659788

>  <RMSD>
0.704

$$$$
ligand
 OpenBabel11021811473D
libRbt.so/2013.1/901 2013/11/27
 27 29  0  0  0  0  0  0  0  0999 V2000
   18.1706   -6.0178  -19.3482 N   0  0  0  0  0  0  0  0  0  0  0  0
   16.7957   -5.6501  -18.9791 C   0  0  2  0  0  0  0  0  0  0  0  0
   16.6295   -5.7105  -17.4576 C   0  0  0  0  0  0  0  0  0  0  0  0
   17.3607   -6.5142  -16.8389 O   0  0  0  0  0  0  0  0  0  0  0  0
   15.8284   -6.6394  -19.6314 C   0  0  0  0  0  0  0  0  0  0  0  0
   14.3703   -6.1951  -19.4900 C   0  0  0  0  0  0  0  0  0  0  0  0
   11.6174   -6.8929  -19.5618 C   0  0  0  0  0  0  0  0  0  0  0  0
   13.2234   -7.4038  -20.3136 Se  0  0  2  0  0  0  0  0  0  0  0  0
   13.4965   -9.0640  -19.5228 C   0  0  0  0  0  0  0  0  0  0  0  0
   12.3690  -10.0620  -19.7897 C   0  0  1  0  0  0  0  0  0  0  0  0
   11.9209   -9.8873  -21.1448 O   0  0  0  0  0  0  0  0  0  0  0  0
   12.9860  -11.4609  -19.7631 C   0  0  1  0  0  0  0  0  0  0  0  0
   11.9501  -12.4429  -19.8179 O   0  0  0  0  0  0  0  0  0  0  0  0
   13.7383  -11.4229  -21.0909 C   0  0  1  0  0  0  0  0  0  0  0  0
   13.9760  -12.7635  -21.5238 O   0  0  0  0  0  0  0  0  0  0  0  0
   12.6606  -10.7979  -21.9778 C   0  0  2  0  0  0  0  0  0  0  0  0
   15.7693   -4.9596  -16.9472 O   0  0  0  0  0  0  0  0  0  0  0  0
   16.0728   -7.3307  -23.7039 N   0  0  0  0  0  0  0  0  0  0  0  0
   15.8393   -7.7150  -22.4609 C   0  0  0  0  0  0  0  0  0  0  0  0
   14.9243   -8.6242  -22.1731 N   0  0  0  0  0  0  0  0  0  0  0  0
   14.1983   -9.1938  -23.1469 C   0  0  0  0  0  0  0  0  0  0  0  0
   14.4137   -8.8145  -24.4644 C   0  0  0  0  0  0  0  0  0  0  0  0
   15.3822   -7.8525  -24.7258 C   0  0  0  0  0  0  0  0  0  0  0  0
   15.5905   -7.4353  -25.9707 N   0  0  0  0  0  0  0  0  0  0  0  0
   13.5794   -9.5130  -25.2264 N   0  0  0  0  0  0  0  0  0  0  0  0
   12.8664  -10.3002  -24.4243 C   0  0  0  0  0  0  0  0  0  0  0  0
   13.2374  -10.1119  -23.1577 N   0  0  0  0  0  0  0  0  0  0  0  0
  2  1  1  1  0  0  0
  2  5  1  0  0  0  0
  2  3  1  0  0  0  0
  3 17  1  0  0  0  0
  3  4  1  0  0  0  0
  5  6  1  0  0  0  0
  7  8  1  0  0  0  0
  8  6  1  1  0  0  0
  8  9  1  0  0  0  0
 10  9  1  6  0  0  0
 10 11  1  0  0  0  0
 10 12  1  0  0  0  0
 11 16  1  0  0  0  0
 12 13  1  6  0  0  0
 12 14  1  0  0  0  0
 14 15  1  6  0  0  0
 14 16  1  0  0  0  0
 16 27  1  6  0  0  0
 18 23  2  0  0  0  0
 18 19  1  0  0  0  0
 19 20  2  0  0  0  0
 20 21  1  0  0  0  0
 21 22  2  0  0  0  0
 21 27  1  0  0  0  0
 22 23  1  0  0  0  0
 22 25  1  0  0  0  0
 23 24  1  0  0  0  0
 25 26  2  0  0  0  0
 26 27  1  0  0  0  0
M  END
>  <CHROM.1>
-170.52411641,-28.26912888,179.16366926,164.06186530,163.09601676,38.44220505
67.23275282,14.21383477,-8.38350987,-20.99468694,-0.92991703,-0.87596497
-1.80335971

>  <Name>
ligand

>  <RI>
0

>  <Rbt.Current_Directory>
/home/itssahil/PROJECTS/Mol_Feturizer/New_Systems/rnas/3E5F

>  <Rbt.Executable>
rbdock ($Id: //depot/dev/client3/rdock/2013.1/src/exe/rbdock.cxx#4 $)

>  <Rbt.Library>
libRbt.so (2013.1, Build901 2013/11/27)

>  <Rbt.Parameter_File>
/export/apps/rDock/src/rDock_2013.1_src/data/scripts/dock_solv.prm

>  <Rbt.Receptor>
prm/pocket_docking_2.prm

>  <SCORE>
-18.4337

>  <SCORE.INTER>
-17.1897

>  <SCORE.INTER.CONST>
1

>  <SCORE.INTER.POLAR>
0

>  <SCORE.INTER.ROT>
7

>  <SCORE.INTER.SOLV>
20.7263

>  <SCORE.INTER.VDW>
-26.6352

>  <SCORE.INTER.norm>
-0.636656

>  <SCORE.INTRA>
-1.24401

>  <SCORE.INTRA.DIHEDRAL>
0.0192548

>  <SCORE.INTRA.DIHEDRAL.0>
4.89803

>  <SCORE.INTRA.POLAR>
0

>  <SCORE.INTRA.POLAR.0>
0

>  <SCORE.INTRA.REPUL>
0

>  <SCORE.INTRA.REPUL.0>
0

>  <SCORE.INTRA.SOLV>
0.0494086

>  <SCORE.INTRA.SOLV.lig_0>
-48.5832

>  <SCORE.INTRA.VDW>
-1.27835

>  <SCORE.INTRA.VDW.0>
-2.39056

>  <SCORE.INTRA.norm>
-0.0460746

>  <SCORE.RESTR>
0

>  <SCORE.RESTR.CAVITY>
0

>  <SCORE.RESTR.norm>
0

>  <SCORE.SYSTEM>
0

>  <SCORE.SYSTEM.CONST>
0

>  <SCORE.SYSTEM.DIHEDRAL>
0

>  <SCORE.SYSTEM.SOLV>
0

>  <SCORE.SYSTEM.norm>
0

>  <SCORE.heavy>
27

>  <SCORE.norm>
-0.682731

>  <RMSD>
0.718

$$$$
ligand
 OpenBabel11021811473D
libRbt.so/2013.1/901 2013/11/27
 27 29  0  0  0  0  0  0  0  0999 V2000
   18.1816   -5.8752  -19.4575 N   0  0  0  0  0  0  0  0  0  0  0  0
   16.8153   -5.6120  -18.9824 C   0  0  2  0  0  0  0  0  0  0  0  0
   16.7263   -5.8749  -17.4760 C   0  0  0  0  0  0  0  0  0  0  0  0
   16.0443   -5.0739  -16.8001 O   0  0  0  0  0  0  0  0  0  0  0  0
   15.8498   -6.5454  -19.7149 C   0  0  0  0  0  0  0  0  0  0  0  0
   14.3867   -6.1974  -19.4293 C   0  0  0  0  0  0  0  0  0  0  0  0
   11.6405   -6.9229  -19.4814 C   0  0  0  0  0  0  0  0  0  0  0  0
   13.2415   -7.3983  -20.2666 Se  0  0  2  0  0  0  0  0  0  0  0  0
   13.5425   -9.0740  -19.5200 C   0  0  0  0  0  0  0  0  0  0  0  0
   12.4190  -10.0755  -19.7906 C   0  0  1  0  0  0  0  0  0  0  0  0
   11.9538   -9.8812  -21.1373 O   0  0  0  0  0  0  0  0  0  0  0  0
   13.0461  -11.4701  -19.7947 C   0  0  1  0  0  0  0  0  0  0  0  0
   12.0165  -12.4585  -19.8540 O   0  0  0  0  0  0  0  0  0  0  0  0
   13.7825  -11.4044  -21.1304 C   0  0  1  0  0  0  0  0  0  0  0  0
   14.0244  -12.7358  -21.5886 O   0  0  0  0  0  0  0  0  0  0  0  0
   12.6900  -10.7724  -21.9940 C   0  0  2  0  0  0  0  0  0  0  0  0
   17.3490   -6.8643  -17.0315 O   0  0  0  0  0  0  0  0  0  0  0  0
   16.0985   -7.2951  -23.7073 N   0  0  0  0  0  0  0  0  0  0  0  0
   15.8880   -7.7082  -22.4693 C   0  0  0  0  0  0  0  0  0  0  0  0
   14.9704   -8.6157  -22.1844 N   0  0  0  0  0  0  0  0  0  0  0  0
   14.2181   -9.1540  -23.1561 C   0  0  0  0  0  0  0  0  0  0  0  0
   14.4089   -8.7439  -24.4681 C   0  0  0  0  0  0  0  0  0  0  0  0
   15.3810   -7.7847  -24.7265 C   0  0  0  0  0  0  0  0  0  0  0  0
   15.5666   -7.3385  -25.9650 N   0  0  0  0  0  0  0  0  0  0  0  0
   13.5516   -9.4152  -25.2289 N   0  0  0  0  0  0  0  0  0  0  0  0
   12.8482  -10.2156  -24.4313 C   0  0  0  0  0  0  0  0  0  0  0  0
   13.2482  -10.0625  -23.1688 N   0  0  0  0  0  0  0  0  0  0  0  0
  2  1  1  6  0  0  0
  2  5  1  0  0  0  0
  2  3  1  0  0  0  0
  3 17  1  0  0  0  0
  3  4  1  0  0  0  0
  5  6  1  0  0  0  0
  7  8  1  0  0  0  0
  8  6  1  1  0  0  0
  8  9  1  0  0  0  0
 10  9  1  6  0  0  0
 10 11  1  0  0  0  0
 10 12  1  0  0  0  0
 11 16  1  0  0  0  0
 12 13  1  6  0  0  0
 12 14  1  0  0  0  0
 14 15  1  6  0  0  0
 14 16  1  0  0  0  0
 16 27  1  6  0  0  0
 18 23  2  0  0  0  0
 18 19  1  0  0  0  0
 19 20  2  0  0  0  0
 20 21  1  0  0  0  0
 21 22  2  0  0  0  0
 21 27  1  0  0  0  0
 22 23  1  0  0  0  0
 22 25  1  0  0  0  0
 23 24  1  0  0  0  0
 25 26  2  0  0  0  0
 26 27  1  0  0  0  0
M  END
>  <CHROM.1>
-171.66725114,139.97036406,-177.26630783,169.58461996,162.83266402,38.95574673
68.43869864,14.24686776,-8.37879844,-20.99741434,-0.90921609,-0.87869346
-1.77369989

>  <Name>
ligand

>  <RI>
0

>  <Rbt.Current_Directory>
/home/itssahil/PROJECTS/Mol_Feturizer/New_Systems/rnas/3E5F

>  <Rbt.Executable>
rbdock ($Id: //depot/dev/client3/rdock/2013.1/src/exe/rbdock.cxx#4 $)

>  <Rbt.Library>
libRbt.so (2013.1, Build901 2013/11/27)

>  <Rbt.Parameter_File>
/export/apps/rDock/src/rDock_2013.1_src/data/scripts/dock_solv.prm

>  <Rbt.Receptor>
prm/pocket_docking_2.prm

>  <SCORE>
-18.4511

>  <SCORE.INTER>
-17.1211

>  <SCORE.INTER.CONST>
1

>  <SCORE.INTER.POLAR>
0

>  <SCORE.INTER.ROT>
7

>  <SCORE.INTER.SOLV>
21.0525

>  <SCORE.INTER.VDW>
-26.6982

>  <SCORE.INTER.norm>
-0.634113

>  <SCORE.INTRA>
-1.33009

>  <SCORE.INTRA.DIHEDRAL>
-0.153958

>  <SCORE.INTRA.DIHEDRAL.0>
4.89803

>  <SCORE.INTRA.POLAR>
0

>  <SCORE.INTRA.POLAR.0>
0

>  <SCORE.INTRA.REPUL>
0

>  <SCORE.INTRA.REPUL.0>
0

>  <SCORE.INTRA.SOLV>
0.0424611

>  <SCORE.INTRA.SOLV.lig_0>
-48.5832

>  <SCORE.INTRA.VDW>
-1.27434

>  <SCORE.INTRA.VDW.0>
-2.39056

>  <SCORE.INTRA.norm>
-0.0492626

>  <SCORE.RESTR>
0

>  <SCORE.RESTR.CAVITY>
0

>  <SCORE.RESTR.norm>
0

>  <SCORE.SYSTEM>
0

>  <SCORE.SYSTEM.CONST>
0

>  <SCORE.SYSTEM.DIHEDRAL>
0

>  <SCORE.SYSTEM.SOLV>
0

>  <SCORE.SYSTEM.norm>
0

>  <SCORE.heavy>
27

>  <SCORE.norm>
-0.683376

>  <RMSD>
0.724

$$$$
ligand
 OpenBabel11021811473D
libRbt.so/2013.1/901 2013/11/27
 27 29  0  0  0  0  0  0  0  0999 V2000
   18.1350   -5.8774  -19.4781 N   0  0  0  0  0  0  0  0  0  0  0  0
   16.7652   -5.5983  -19.0225 C   0  0  2  0  0  0  0  0  0  0  0  0
   16.6824   -5.7389  -17.4995 C   0  0  0  0  0  0  0  0  0  0  0  0
   15.7663   -5.1142  -16.9215 O   0  0  0  0  0  0  0  0  0  0  0  0
   15.8141   -6.6038  -19.6739 C   0  0  0  0  0  0  0  0  0  0  0  0
   14.3458   -6.2257  -19.4625 C   0  0  0  0  0  0  0  0  0  0  0  0
   11.6009   -6.9511  -19.5583 C   0  0  0  0  0  0  0  0  0  0  0  0
   13.2180   -7.4439  -20.2983 Se  0  0  2  0  0  0  0  0  0  0  0  0
   13.5015   -9.1032  -19.5093 C   0  0  0  0  0  0  0  0  0  0  0  0
   12.3783  -10.1067  -19.7739 C   0  0  1  0  0  0  0  0  0  0  0  0
   11.9187   -9.9264  -21.1244 O   0  0  0  0  0  0  0  0  0  0  0  0
   13.0042  -11.5017  -19.7606 C   0  0  1  0  0  0  0  0  0  0  0  0
   11.9741  -12.4899  -19.8136 O   0  0  0  0  0  0  0  0  0  0  0  0
   13.7461  -11.4508  -21.0939 C   0  0  1  0  0  0  0  0  0  0  0  0
   13.9888  -12.7872  -21.5368 O   0  0  0  0  0  0  0  0  0  0  0  0
   12.6577  -10.8272  -21.9686 C   0  0  2  0  0  0  0  0  0  0  0  0
   17.5416   -6.4593  -16.9452 O   0  0  0  0  0  0  0  0  0  0  0  0
   16.0640   -7.3583  -23.7031 N   0  0  0  0  0  0  0  0  0  0  0  0
   15.8464   -7.7562  -22.4614 C   0  0  0  0  0  0  0  0  0  0  0  0
   14.9306   -8.6638  -22.1711 N   0  0  0  0  0  0  0  0  0  0  0  0
   14.1873   -9.2177  -23.1410 C   0  0  0  0  0  0  0  0  0  0  0  0
   14.3857   -8.8239  -24.4568 C   0  0  0  0  0  0  0  0  0  0  0  0
   15.3557   -7.8640  -24.7209 C   0  0  0  0  0  0  0  0  0  0  0  0
   15.5482   -7.4332  -25.9637 N   0  0  0  0  0  0  0  0  0  0  0  0
   13.5365   -9.5086  -25.2148 N   0  0  0  0  0  0  0  0  0  0  0  0
   12.8308  -10.3014  -24.4118 C   0  0  0  0  0  0  0  0  0  0  0  0
   13.2212  -10.1303  -23.1486 N   0  0  0  0  0  0  0  0  0  0  0  0
  2  1  1  6  0  0  0
  2  5  1  0  0  0  0
  2  3  1  0  0  0  0
  3 17  1  0  0  0  0
  3  4  1  0  0  0  0
  5  6  1  0  0  0  0
  7  8  1  0  0  0  0
  8  6  1  1  0  0  0
  8  9  1  0  0  0  0
 10  9  1  6  0  0  0
 10 11  1  0  0  0  0
 10 12  1  0  0  0  0
 11 16  1  0  0  0  0
 12 13  1  6  0  0  0
 12 14  1  0  0  0  0
 14 15  1  6  0  0  0
 14 16  1  0  0  0  0
 16 27  1  6  0  0  0
 18 23  2  0  0  0  0
 18 19  1  0  0  0  0
 19 20  2  0  0  0  0
 20 21  1  0  0  0  0
 21 22  2  0  0  0  0
 21 27  1  0  0  0  0
 22 23  1  0  0  0  0
 22 25  1  0  0  0  0
 23 24  1  0  0  0  0
 25 26  2  0  0  0  0
 26 27  1  0  0  0  0
M  END
>  <CHROM.1>
-169.32249479,156.09612829,178.68578855,167.89664477,162.40262043,38.01108971
68.08523054,14.21342999,-8.40542352,-20.99843655,-0.90516300,-0.87637115
-1.79649522

>  <Name>
ligand

>  <RI>
0

>  <Rbt.Current_Directory>
/home/itssahil/PROJECTS/Mol_Feturizer/New_Systems/rnas/3E5F

>  <Rbt.Executable>
rbdock ($Id: //depot/dev/client3/rdock/2013.1/src/exe/rbdock.cxx#4 $)

>  <Rbt.Library>
libRbt.so (2013.1, Build901 2013/11/27)

>  <Rbt.Parameter_File>
/export/apps/rDock/src/rDock_2013.1_src/data/scripts/dock_solv.prm

>  <Rbt.Receptor>
prm/pocket_docking_2.prm

>  <SCORE>
-18.3938

>  <SCORE.INTER>
-17.2556

>  <SCORE.INTER.CONST>
1

>  <SCORE.INTER.POLAR>
0

>  <SCORE.INTER.ROT>
7

>  <SCORE.INTER.SOLV>
20.928

>  <SCORE.INTER.VDW>
-26.7464

>  <SCORE.INTER.norm>
-0.639096

>  <SCORE.INTRA>
-1.13817

>  <SCORE.INTRA.DIHEDRAL>
0.142451

>  <SCORE.INTRA.DIHEDRAL.0>
4.89803

>  <SCORE.INTRA.POLAR>
0

>  <SCORE.INTRA.POLAR.0>
0

>  <SCORE.INTRA.REPUL>
0

>  <SCORE.INTRA.REPUL.0>
0

>  <SCORE.INTRA.SOLV>
0.0554287

>  <SCORE.INTRA.SOLV.lig_0>
-48.5832

>  <SCORE.INTRA.VDW>
-1.23711

>  <SCORE.INTRA.VDW.0>
-2.39056

>  <SCORE.INTRA.norm>
-0.0421545

>  <SCORE.RESTR>
0

>  <SCORE.RESTR.CAVITY>
0

>  <SCORE.RESTR.norm>
0

>  <SCORE.SYSTEM>
0

>  <SCORE.SYSTEM.CONST>
0

>  <SCORE.SYSTEM.DIHEDRAL>
0

>  <SCORE.SYSTEM.SOLV>
0

>  <SCORE.SYSTEM.norm>
0

>  <SCORE.heavy>
27

>  <SCORE.norm>
-0.68125

>  <RMSD>
0.746

$$$$
ligand
 OpenBabel11021811473D
libRbt.so/2013.1/901 2013/11/27
 27 29  0  0  0  0  0  0  0  0999 V2000
   18.1975   -5.8548  -19.5240 N   0  0  0  0  0  0  0  0  0  0  0  0
   16.8348   -5.5725  -19.0494 C   0  0  2  0  0  0  0  0  0  0  0  0
   16.7722   -5.7156  -17.5257 C   0  0  0  0  0  0  0  0  0  0  0  0
   15.9099   -5.0359  -16.9274 O   0  0  0  0  0  0  0  0  0  0  0  0
   15.8720   -6.5741  -19.6897 C   0  0  0  0  0  0  0  0  0  0  0  0
   14.4078   -6.1963  -19.4513 C   0  0  0  0  0  0  0  0  0  0  0  0
   11.6554   -6.8928  -19.5464 C   0  0  0  0  0  0  0  0  0  0  0  0
   13.2654   -7.3948  -20.2956 Se  0  0  2  0  0  0  0  0  0  0  0  0
   13.5340   -9.0645  -19.5233 C   0  0  0  0  0  0  0  0  0  0  0  0
   12.3914  -10.0481  -19.7790 C   0  0  1  0  0  0  0  0  0  0  0  0
   11.9363   -9.8720  -21.1316 O   0  0  0  0  0  0  0  0  0  0  0  0
   12.9898  -11.4551  -19.7517 C   0  0  1  0  0  0  0  0  0  0  0  0
   11.9404  -12.4232  -19.7959 O   0  0  0  0  0  0  0  0  0  0  0  0
   13.7333  -11.4317  -21.0848 C   0  0  1  0  0  0  0  0  0  0  0  0
   13.9499  -12.7769  -21.5145 O   0  0  0  0  0  0  0  0  0  0  0  0
   12.6579  -10.7953  -21.9664 C   0  0  2  0  0  0  0  0  0  0  0  0
   17.5931   -6.4933  -16.9912 O   0  0  0  0  0  0  0  0  0  0  0  0
   16.0797   -7.3540  -23.7252 N   0  0  0  0  0  0  0  0  0  0  0  0
   15.8463   -7.7271  -22.4787 C   0  0  0  0  0  0  0  0  0  0  0  0
   14.9286   -8.6309  -22.1823 N   0  0  0  0  0  0  0  0  0  0  0  0
   14.1997   -9.2062  -23.1506 C   0  0  0  0  0  0  0  0  0  0  0  0
   14.4150   -8.8388  -24.4714 C   0  0  0  0  0  0  0  0  0  0  0  0
   15.3863   -7.8821  -24.7419 C   0  0  0  0  0  0  0  0  0  0  0  0
   15.5947   -7.4762  -25.9905 N   0  0  0  0  0  0  0  0  0  0  0  0
   13.5776   -9.5409  -25.2266 N   0  0  0  0  0  0  0  0  0  0  0  0
   12.8629  -10.3190  -24.4172 C   0  0  0  0  0  0  0  0  0  0  0  0
   13.2358  -10.1212  -23.1526 N   0  0  0  0  0  0  0  0  0  0  0  0
  2  1  1  6  0  0  0
  2  5  1  0  0  0  0
  2  3  1  0  0  0  0
  3 17  1  0  0  0  0
  3  4  1  0  0  0  0
  5  6  1  0  0  0  0
  7  8  1  0  0  0  0
  8  6  1  1  0  0  0
  8  9  1  0  0  0  0
 10  9  1  6  0  0  0
 10 11  1  0  0  0  0
 10 12  1  0  0  0  0
 11 16  1  0  0  0  0
 12 13  1  6  0  0  0
 12 14  1  0  0  0  0
 14 15  1  6  0  0  0
 14 16  1  0  0  0  0
 16 27  1  6  0  0  0
 18 23  2  0  0  0  0
 18 19  1  0  0  0  0
 19 20  2  0  0  0  0
 20 21  1  0  0  0  0
 21 22  2  0  0  0  0
 21 27  1  0  0  0  0
 22 23  1  0  0  0  0
 22 25  1  0  0  0  0
 23 24  1  0  0  0  0
 25 26  2  0  0  0  0
 26 27  1  0  0  0  0
M  END
>  <CHROM.1>
-169.63434307,152.51428668,177.82576065,168.83381812,161.64893628,39.35384238
66.50304117,14.24657801,-8.37943358,-21.00566074,-0.90085372,-0.86558372
-1.80176513

>  <Name>
ligand

>  <RI>
0

>  <Rbt.Current_Directory>
/home/itssahil/PROJECTS/Mol_Feturizer/New_Systems/rnas/3E5F

>  <Rbt.Executable>
rbdock ($Id: //depot/dev/client3/rdock/2013.1/src/exe/rbdock.cxx#4 $)

>  <Rbt.Library>
libRbt.so (2013.1, Build901 2013/11/27)

>  <Rbt.Parameter_File>
/export/apps/rDock/src/rDock_2013.1_src/data/scripts/dock_solv.prm

>  <Rbt.Receptor>
prm/pocket_docking_2.prm

>  <SCORE>
-18.5164

>  <SCORE.INTER>
-17.2907

>  <SCORE.INTER.CONST>
1

>  <SCORE.INTER.POLAR>
0

>  <SCORE.INTER.ROT>
7

>  <SCORE.INTER.SOLV>
21.0914

>  <SCORE.INTER.VDW>
-26.8243

>  <SCORE.INTER.norm>
-0.640398

>  <SCORE.INTRA>
-1.22563

>  <SCORE.INTRA.DIHEDRAL>
-0.0154197

>  <SCORE.INTRA.DIHEDRAL.0>
4.89803

>  <SCORE.INTRA.POLAR>
0

>  <SCORE.INTRA.POLAR.0>
0

>  <SCORE.INTRA.REPUL>
0

>  <SCORE.INTRA.REPUL.0>
0

>  <SCORE.INTRA.SOLV>
0.0520789

>  <SCORE.INTRA.SOLV.lig_0>
-48.5832

>  <SCORE.INTRA.VDW>
-1.24396

>  <SCORE.INTRA.VDW.0>
-2.39056

>  <SCORE.INTRA.norm>
-0.0453937

>  <SCORE.RESTR>
0

>  <SCORE.RESTR.CAVITY>
0

>  <SCORE.RESTR.norm>
0

>  <SCORE.SYSTEM>
0

>  <SCORE.SYSTEM.CONST>
0

>  <SCORE.SYSTEM.DIHEDRAL>
0

>  <SCORE.SYSTEM.SOLV>
0

>  <SCORE.SYSTEM.norm>
0

>  <SCORE.heavy>
27

>  <SCORE.norm>
-0.685792

>  <RMSD>
0.753

$$$$
ligand
 OpenBabel11021811473D
libRbt.so/2013.1/901 2013/11/27
 27 29  0  0  0  0  0  0  0  0999 V2000
   18.2346   -6.1508  -19.3980 N   0  0  0  0  0  0  0  0  0  0  0  0
   16.8739   -5.7279  -19.0354 C   0  0  2  0  0  0  0  0  0  0  0  0
   16.7250   -5.6981  -17.5112 C   0  0  0  0  0  0  0  0  0  0  0  0
   15.7693   -5.0382  -17.0478 O   0  0  0  0  0  0  0  0  0  0  0  0
   15.8744   -6.7273  -19.6201 C   0  0  0  0  0  0  0  0  0  0  0  0
   14.4331   -6.2199  -19.5262 C   0  0  0  0  0  0  0  0  0  0  0  0
   11.6720   -6.8877  -19.5442 C   0  0  0  0  0  0  0  0  0  0  0  0
   13.2554   -7.4076  -20.3367 Se  0  0  2  0  0  0  0  0  0  0  0  0
   13.5278   -9.0789  -19.5694 C   0  0  0  0  0  0  0  0  0  0  0  0
   12.3968  -10.0706  -19.8448 C   0  0  1  0  0  0  0  0  0  0  0  0
   11.9443   -9.8776  -21.1960 O   0  0  0  0  0  0  0  0  0  0  0  0
   13.0102  -11.4713  -19.8380 C   0  0  1  0  0  0  0  0  0  0  0  0
   11.9715  -12.4498  -19.9014 O   0  0  0  0  0  0  0  0  0  0  0  0
   13.7578  -11.4184  -21.1679 C   0  0  1  0  0  0  0  0  0  0  0  0
   13.9904  -12.7542  -21.6184 O   0  0  0  0  0  0  0  0  0  0  0  0
   12.6786  -10.7796  -22.0430 C   0  0  2  0  0  0  0  0  0  0  0  0
   17.5742   -6.3272  -16.8423 O   0  0  0  0  0  0  0  0  0  0  0  0
   16.0786   -7.2840  -23.7357 N   0  0  0  0  0  0  0  0  0  0  0  0
   15.8464   -7.6811  -22.4963 C   0  0  0  0  0  0  0  0  0  0  0  0
   14.9347   -8.5962  -22.2173 N   0  0  0  0  0  0  0  0  0  0  0  0
   14.2107   -9.1589  -23.1966 C   0  0  0  0  0  0  0  0  0  0  0  0
   14.4248   -8.7663  -24.5104 C   0  0  0  0  0  0  0  0  0  0  0  0
   15.3898   -7.7984  -24.7625 C   0  0  0  0  0  0  0  0  0  0  0  0
   15.5966   -7.3686  -26.0034 N   0  0  0  0  0  0  0  0  0  0  0  0
   13.5930   -9.4604  -25.2791 N   0  0  0  0  0  0  0  0  0  0  0  0
   12.8827  -10.2578  -24.4846 C   0  0  0  0  0  0  0  0  0  0  0  0
   13.2530  -10.0803  -23.2162 N   0  0  0  0  0  0  0  0  0  0  0  0
  2  1  1  1  0  0  0
  2  5  1  0  0  0  0
  2  3  1  0  0  0  0
  3 17  1  0  0  0  0
  3  4  1  0  0  0  0
  5  6  1  0  0  0  0
  7  8  1  0  0  0  0
  8  6  1  1  0  0  0
  8  9  1  0  0  0  0
 10  9  1  6  0  0  0
 10 11  1  0  0  0  0
 10 12  1  0  0  0  0
 11 16  1  0  0  0  0
 12 13  1  6  0  0  0
 12 14  1  0  0  0  0
 14 15  1  6  0  0  0
 14 16  1  0  0  0  0
 16 27  1  6  0  0  0
 18 23  2  0  0  0  0
 18 19  1  0  0  0  0
 19 20  2  0  0  0  0
 20 21  1  0  0  0  0
 21 22  2  0  0  0  0
 21 27  1  0  0  0  0
 22 23  1  0  0  0  0
 22 25  1  0  0  0  0
 23 24  1  0  0  0  0
 25 26  2  0  0  0  0
 26 27  1  0  0  0  0
M  END
>  <CHROM.1>
-168.81109862,161.77998626,176.54174241,160.13241730,164.23325568,38.50679314
66.79003142,14.24875753,-8.37672918,-21.03889398,-0.91247820,-0.86782179
-1.78682743

>  <Name>
ligand

>  <RI>
0

>  <Rbt.Current_Directory>
/home/itssahil/PROJECTS/Mol_Feturizer/New_Systems/rnas/3E5F

>  <Rbt.Executable>
rbdock ($Id: //depot/dev/client3/rdock/2013.1/src/exe/rbdock.cxx#4 $)

>  <Rbt.Library>
libRbt.so (2013.1, Build901 2013/11/27)

>  <Rbt.Parameter_File>
/export/apps/rDock/src/rDock_2013.1_src/data/scripts/dock_solv.prm

>  <Rbt.Receptor>
prm/pocket_docking_2.prm

>  <SCORE>
-18.3529

>  <SCORE.INTER>
-17.348

>  <SCORE.INTER.CONST>
1

>  <SCORE.INTER.POLAR>
0

>  <SCORE.INTER.ROT>
7

>  <SCORE.INTER.SOLV>
20.5021

>  <SCORE.INTER.VDW>
-26.6661

>  <SCORE.INTER.norm>
-0.64252

>  <SCORE.INTRA>
-1.00485

>  <SCORE.INTRA.DIHEDRAL>
0.3181

>  <SCORE.INTRA.DIHEDRAL.0>
4.89803

>  <SCORE.INTRA.POLAR>
0

>  <SCORE.INTRA.POLAR.0>
0

>  <SCORE.INTRA.REPUL>
0

>  <SCORE.INTRA.REPUL.0>
0

>  <SCORE.INTRA.SOLV>
0.0562174

>  <SCORE.INTRA.SOLV.lig_0>
-48.5832

>  <SCORE.INTRA.VDW>
-1.19201

>  <SCORE.INTRA.VDW.0>
-2.39056

>  <SCORE.INTRA.norm>
-0.0372165

>  <SCORE.RESTR>
0

>  <SCORE.RESTR.CAVITY>
0

>  <SCORE.RESTR.norm>
0

>  <SCORE.SYSTEM>
0

>  <SCORE.SYSTEM.CONST>
0

>  <SCORE.SYSTEM.DIHEDRAL>
0

>  <SCORE.SYSTEM.SOLV>
0

>  <SCORE.SYSTEM.norm>
0

>  <SCORE.heavy>
27

>  <SCORE.norm>
-0.679737

>  <RMSD>
0.763

$$$$
ligand
 OpenBabel11021811473D
libRbt.so/2013.1/901 2013/11/27
 27 29  0  0  0  0  0  0  0  0999 V2000
   18.1947   -5.7989  -19.5765 N   0  0  0  0  0  0  0  0  0  0  0  0
   16.8360   -5.5419  -19.0768 C   0  0  2  0  0  0  0  0  0  0  0  0
   16.8063   -5.6767  -17.5513 C   0  0  0  0  0  0  0  0  0  0  0  0
   15.8806   -5.0908  -16.9484 O   0  0  0  0  0  0  0  0  0  0  0  0
   15.8820   -6.5671  -19.6921 C   0  0  0  0  0  0  0  0  0  0  0  0
   14.4149   -6.2117  -19.4375 C   0  0  0  0  0  0  0  0  0  0  0  0
   11.6617   -6.8986  -19.5733 C   0  0  0  0  0  0  0  0  0  0  0  0
   13.2815   -7.4094  -20.2951 Se  0  0  2  0  0  0  0  0  0  0  0  0
   13.5319   -9.0770  -19.5123 C   0  0  0  0  0  0  0  0  0  0  0  0
   12.3829  -10.0528  -19.7699 C   0  0  1  0  0  0  0  0  0  0  0  0
   11.9248   -9.8667  -21.1201 O   0  0  0  0  0  0  0  0  0  0  0  0
   12.9734  -11.4632  -19.7520 C   0  0  1  0  0  0  0  0  0  0  0  0
   11.9184  -12.4251  -19.7984 O   0  0  0  0  0  0  0  0  0  0  0  0
   13.7130  -11.4367  -21.0872 C   0  0  1  0  0  0  0  0  0  0  0  0
   13.9207  -12.7808  -21.5250 O   0  0  0  0  0  0  0  0  0  0  0  0
   12.6387  -10.7895  -21.9621 C   0  0  2  0  0  0  0  0  0  0  0  0
   17.7140   -6.3537  -17.0203 O   0  0  0  0  0  0  0  0  0  0  0  0
   16.0962   -7.3811  -23.7152 N   0  0  0  0  0  0  0  0  0  0  0  0
   15.8673   -7.7631  -22.4705 C   0  0  0  0  0  0  0  0  0  0  0  0
   14.9390   -8.6562  -22.1755 N   0  0  0  0  0  0  0  0  0  0  0  0
   14.1940   -9.2113  -23.1433 C   0  0  0  0  0  0  0  0  0  0  0  0
   14.4040   -8.8341  -24.4622 C   0  0  0  0  0  0  0  0  0  0  0  0
   15.3870   -7.8890  -24.7313 C   0  0  0  0  0  0  0  0  0  0  0  0
   15.5912   -7.4738  -25.9775 N   0  0  0  0  0  0  0  0  0  0  0  0
   13.5504   -9.5164  -25.2174 N   0  0  0  0  0  0  0  0  0  0  0  0
   12.8309  -10.2920  -24.4098 C   0  0  0  0  0  0  0  0  0  0  0  0
   13.2168  -10.1122  -23.1464 N   0  0  0  0  0  0  0  0  0  0  0  0
  2  1  1  6  0  0  0
  2  5  1  0  0  0  0
  2  3  1  0  0  0  0
  3 17  1  0  0  0  0
  3  4  1  0  0  0  0
  5  6  1  0  0  0  0
  7  8  1  0  0  0  0
  8  6  1  1  0  0  0
  8  9  1  0  0  0  0
 10  9  1  6  0  0  0
 10 11  1  0  0  0  0
 10 12  1  0  0  0  0
 11 16  1  0  0  0  0
 12 13  1  6  0  0  0
 12 14  1  0  0  0  0
 14 15  1  6  0  0  0
 14 16  1  0  0  0  0
 16 27  1  6  0  0  0
 18 23  2  0  0  0  0
 18 19  1  0  0  0  0
 19 20  2  0  0  0  0
 20 21  1  0  0  0  0
 21 22  2  0  0  0  0
 21 27  1  0  0  0  0
 22 23  1  0  0  0  0
 22 25  1  0  0  0  0
 23 24  1  0  0  0  0
 25 26  2  0  0  0  0
 26 27  1  0  0  0  0
M  END
>  <CHROM.1>
-169.14233650,157.70189139,176.09313201,170.83210633,161.03967895,38.52845828
67.14295459,14.24874236,-8.37740150,-21.00793585,-0.88378392,-0.85930483
-1.80229554

>  <Name>
ligand

>  <RI>
0

>  <Rbt.Current_Directory>
/home/itssahil/PROJECTS/Mol_Feturizer/New_Systems/rnas/3E5F

>  <Rbt.Executable>
rbdock ($Id: //depot/dev/client3/rdock/2013.1/src/exe/rbdock.cxx#4 $)

>  <Rbt.Library>
libRbt.so (2013.1, Build901 2013/11/27)

>  <Rbt.Parameter_File>
/export/apps/rDock/src/rDock_2013.1_src/data/scripts/dock_solv.prm

>  <Rbt.Receptor>
prm/pocket_docking_2.prm

>  <SCORE>
-18.44

>  <SCORE.INTER>
-17.3483

>  <SCORE.INTER.CONST>
1

>  <SCORE.INTER.POLAR>
0

>  <SCORE.INTER.ROT>
7

>  <SCORE.INTER.SOLV>
21.1644

>  <SCORE.INTER.VDW>
-26.887

>  <SCORE.INTER.norm>
-0.642528

>  <SCORE.INTRA>
-1.09171

>  <SCORE.INTRA.DIHEDRAL>
0.158173

>  <SCORE.INTRA.DIHEDRAL.0>
4.89803

>  <SCORE.INTRA.POLAR>
0

>  <SCORE.INTRA.POLAR.0>
0

>  <SCORE.INTRA.REPUL>
0

>  <SCORE.INTRA.REPUL.0>
0

>  <SCORE.INTRA.SOLV>
0.0572018

>  <SCORE.INTRA.SOLV.lig_0>
-48.5832

>  <SCORE.INTRA.VDW>
-1.1994

>  <SCORE.INTRA.VDW.0>
-2.39056

>  <SCORE.INTRA.norm>
-0.0404339

>  <SCORE.RESTR>
0

>  <SCORE.RESTR.CAVITY>
0

>  <SCORE.RESTR.norm>
0

>  <SCORE.SYSTEM>
0

>  <SCORE.SYSTEM.CONST>
0

>  <SCORE.SYSTEM.DIHEDRAL>
0

>  <SCORE.SYSTEM.SOLV>
0

>  <SCORE.SYSTEM.norm>
0

>  <SCORE.heavy>
27

>  <SCORE.norm>
-0.682962

>  <RMSD>
0.771

$$$$
ligand
 OpenBabel11021811473D
libRbt.so/2013.1/901 2013/11/27
 27 29  0  0  0  0  0  0  0  0999 V2000
   17.0933   -6.4751  -18.1086 N   0  0  0  0  0  0  0  0  0  0  0  0
   15.9156   -5.6392  -17.8330 C   0  0  2  0  0  0  0  0  0  0  0  0
   15.8168   -5.3548  -16.3311 C   0  0  0  0  0  0  0  0  0  0  0  0
   16.4906   -6.0835  -15.5706 O   0  0  0  0  0  0  0  0  0  0  0  0
   14.6617   -6.3882  -18.2876 C   0  0  0  0  0  0  0  0  0  0  0  0
   13.4140   -5.5026  -18.2383 C   0  0  0  0  0  0  0  0  0  0  0  0
   11.5560   -7.5010  -17.4481 C   0  0  0  0  0  0  0  0  0  0  0  0
   11.9280   -6.4096  -18.8890 Se  0  0  2  0  0  0  0  0  0  0  0  0
   12.5283   -7.6402  -20.1465 C   0  0  0  0  0  0  0  0  0  0  0  0
   11.6422   -8.8814  -20.2599 C   0  0  1  0  0  0  0  0  0  0  0  0
   11.4969   -9.2085  -21.6526 O   0  0  0  0  0  0  0  0  0  0  0  0
   12.4252  -10.0532  -19.6664 C   0  0  1  0  0  0  0  0  0  0  0  0
   11.5765  -11.1983  -19.5724 O   0  0  0  0  0  0  0  0  0  0  0  0
   13.4491  -10.2539  -20.7808 C   0  0  1  0  0  0  0  0  0  0  0  0
   13.9639  -11.5841  -20.6987 O   0  0  0  0  0  0  0  0  0  0  0  0
   12.5272  -10.1520  -21.9967 C   0  0  2  0  0  0  0  0  0  0  0  0
   15.0633   -4.4221  -15.9752 O   0  0  0  0  0  0  0  0  0  0  0  0
   16.2785   -7.2196  -23.9901 N   0  0  0  0  0  0  0  0  0  0  0  0
   15.8984   -7.3341  -22.7291 C   0  0  0  0  0  0  0  0  0  0  0  0
   14.9115   -8.1361  -22.3692 N   0  0  0  0  0  0  0  0  0  0  0  0
   14.2602   -8.8699  -23.2842 C   0  0  0  0  0  0  0  0  0  0  0  0
   14.6298   -8.7751  -24.6185 C   0  0  0  0  0  0  0  0  0  0  0  0
   15.6698   -7.9176  -24.9574 C   0  0  0  0  0  0  0  0  0  0  0  0
   16.0269   -7.7707  -26.2294 N   0  0  0  0  0  0  0  0  0  0  0  0
   13.8423   -9.5882  -25.3135 N   0  0  0  0  0  0  0  0  0  0  0  0
   13.0097  -10.1720  -24.4548 C   0  0  0  0  0  0  0  0  0  0  0  0
   13.2580   -9.7403  -23.2182 N   0  0  0  0  0  0  0  0  0  0  0  0
  2  1  1  1  0  0  0
  2  5  1  0  0  0  0
  2  3  1  0  0  0  0
  3 17  1  0  0  0  0
  3  4  1  0  0  0  0
  5  6  1  0  0  0  0
  7  8  1  0  0  0  0
  8  6  1  1  0  0  0
  8  9  1  0  0  0  0
 10  9  1  6  0  0  0
 10 11  1  0  0  0  0
 10 12  1  0  0  0  0
 11 16  1  0  0  0  0
 12 13  1  6  0  0  0
 12 14  1  0  0  0  0
 14 15  1  1  0  0  0
 14 16  1  0  0  0  0
 16 27  1  6  0  0  0
 18 23  2  0  0  0  0
 18 19  1  0  0  0  0
 19 20  2  0  0  0  0
 20 21  1  0  0  0  0
 21 22  2  0  0  0  0
 21 27  1  0  0  0  0
 22 23  1  0  0  0  0
 22 25  1  0  0  0  0
 23 24  1  0  0  0  0
 25 26  2  0  0  0  0
 26 27  1  0  0  0  0
M  END
>  <CHROM.1>
-171.07731412,-16.44890275,176.70334875,76.41260087,151.05827046,138.06275620
82.57152944,13.70771676,-7.83333709,-20.44765412,-1.57148022,-0.56120411
-2.02649349

>  <Name>
ligand

>  <RI>
0

>  <Rbt.Current_Directory>
/home/itssahil/PROJECTS/Mol_Feturizer/New_Systems/rnas/3E5F

>  <Rbt.Executable>
rbdock ($Id: //depot/dev/client3/rdock/2013.1/src/exe/rbdock.cxx#4 $)

>  <Rbt.Library>
libRbt.so (2013.1, Build901 2013/11/27)

>  <Rbt.Parameter_File>
/export/apps/rDock/src/rDock_2013.1_src/data/scripts/dock_solv.prm

>  <Rbt.Receptor>
prm/pocket_docking_2.prm

>  <SCORE>
-8.41727

>  <SCORE.INTER>
-11.3894

>  <SCORE.INTER.CONST>
1

>  <SCORE.INTER.POLAR>
0

>  <SCORE.INTER.ROT>
7

>  <SCORE.INTER.SOLV>
19.5082

>  <SCORE.INTER.VDW>
-22.3623

>  <SCORE.INTER.norm>
-0.421829

>  <SCORE.INTRA>
2.96668

>  <SCORE.INTRA.DIHEDRAL>
3.66783

>  <SCORE.INTRA.DIHEDRAL.0>
4.89803

>  <SCORE.INTRA.POLAR>
0

>  <SCORE.INTRA.POLAR.0>
0

>  <SCORE.INTRA.REPUL>
0

>  <SCORE.INTRA.REPUL.0>
0

>  <SCORE.INTRA.SOLV>
0.0312156

>  <SCORE.INTRA.SOLV.lig_0>
-48.5832

>  <SCORE.INTRA.VDW>
1.11716

>  <SCORE.INTRA.VDW.0>
-2.39056

>  <SCORE.INTRA.norm>
0.109877

>  <SCORE.RESTR>
0.00541892

>  <SCORE.RESTR.CAVITY>
0.00541892

>  <SCORE.RESTR.norm>
0.000200701

>  <SCORE.SYSTEM>
0

>  <SCORE.SYSTEM.CONST>
0

>  <SCORE.SYSTEM.DIHEDRAL>
0

>  <SCORE.SYSTEM.SOLV>
0

>  <SCORE.SYSTEM.norm>
0

>  <SCORE.heavy>
27

>  <SCORE.norm>
-0.311751

>  <RMSD>
0.775

$$$$
ligand
 OpenBabel11021811473D
libRbt.so/2013.1/901 2013/11/27
 27 29  0  0  0  0  0  0  0  0999 V2000
   18.0139   -5.4757  -19.8430 N   0  0  0  0  0  0  0  0  0  0  0  0
   16.6898   -5.3291  -19.2209 C   0  0  2  0  0  0  0  0  0  0  0  0
   16.7954   -5.5516  -17.7092 C   0  0  0  0  0  0  0  0  0  0  0  0
   15.9015   -5.0435  -16.9975 O   0  0  0  0  0  0  0  0  0  0  0  0
   15.7452   -6.3730  -19.8193 C   0  0  0  0  0  0  0  0  0  0  0  0
   14.2854   -6.1111  -19.4400 C   0  0  0  0  0  0  0  0  0  0  0  0
   11.5575   -6.9040  -19.4436 C   0  0  0  0  0  0  0  0  0  0  0  0
   13.1546   -7.3370  -20.2605 Se  0  0  2  0  0  0  0  0  0  0  0  0
   13.5108   -9.0073  -19.5261 C   0  0  0  0  0  0  0  0  0  0  0  0
   12.4030  -10.0326  -19.7712 C   0  0  1  0  0  0  0  0  0  0  0  0
   11.9464   -9.8905  -21.1273 O   0  0  0  0  0  0  0  0  0  0  0  0
   13.0486  -11.4179  -19.7230 C   0  0  1  0  0  0  0  0  0  0  0  0
   12.0328  -12.4216  -19.7568 O   0  0  0  0  0  0  0  0  0  0  0  0
   13.7951  -11.3875  -21.0544 C   0  0  1  0  0  0  0  0  0  0  0  0
   14.0585  -12.7303  -21.4650 O   0  0  0  0  0  0  0  0  0  0  0  0
   12.7015  -10.8000  -21.9475 C   0  0  2  0  0  0  0  0  0  0  0  0
   17.7715   -6.2161  -17.2968 O   0  0  0  0  0  0  0  0  0  0  0  0
   16.0596   -7.3185  -23.7492 N   0  0  0  0  0  0  0  0  0  0  0  0
   15.8419   -7.6896  -22.4993 C   0  0  0  0  0  0  0  0  0  0  0  0
   14.9396   -8.6048  -22.1915 N   0  0  0  0  0  0  0  0  0  0  0  0
   14.2108   -9.1945  -23.1512 C   0  0  0  0  0  0  0  0  0  0  0  0
   14.4098   -8.8296  -24.4753 C   0  0  0  0  0  0  0  0  0  0  0  0
   15.3653   -7.8606  -24.7578 C   0  0  0  0  0  0  0  0  0  0  0  0
   15.5574   -7.4571  -26.0099 N   0  0  0  0  0  0  0  0  0  0  0  0
   13.5761   -9.5466  -25.2205 N   0  0  0  0  0  0  0  0  0  0  0  0
   12.8791  -10.3312  -24.4019 C   0  0  0  0  0  0  0  0  0  0  0  0
   13.2599  -10.1229  -23.1413 N   0  0  0  0  0  0  0  0  0  0  0  0
  2  1  1  6  0  0  0
  2  5  1  0  0  0  0
  2  3  1  0  0  0  0
  3 17  1  0  0  0  0
  3  4  1  0  0  0  0
  5  6  1  0  0  0  0
  7  8  1  0  0  0  0
  8  6  1  1  0  0  0
  8  9  1  0  0  0  0
 10  9  1  6  0  0  0
 10 11  1  0  0  0  0
 10 12  1  0  0  0  0
 11 16  1  0  0  0  0
 12 13  1  6  0  0  0
 12 14  1  0  0  0  0
 14 15  1  6  0  0  0
 14 16  1  0  0  0  0
 16 27  1  6  0  0  0
 18 23  2  0  0  0  0
 18 19  1  0  0  0  0
 19 20  2  0  0  0  0
 20 21  1  0  0  0  0
 21 22  2  0  0  0  0
 21 27  1  0  0  0  0
 22 23  1  0  0  0  0
 22 25  1  0  0  0  0
 23 24  1  0  0  0  0
 25 26  2  0  0  0  0
 26 27  1  0  0  0  0
M  END
>  <CHROM.1>
-168.45676964,156.85824546,176.74520468,172.85829489,162.43351494,41.81342140
67.92204591,14.22321910,-8.31655086,-21.02966877,-0.89926479,-0.87445269
-1.85053875

>  <Name>
ligand

>  <RI>
0

>  <Rbt.Current_Directory>
/home/itssahil/PROJECTS/Mol_Feturizer/New_Systems/rnas/3E5F

>  <Rbt.Executable>
rbdock ($Id: //depot/dev/client3/rdock/2013.1/src/exe/rbdock.cxx#4 $)

>  <Rbt.Library>
libRbt.so (2013.1, Build901 2013/11/27)

>  <Rbt.Parameter_File>
/export/apps/rDock/src/rDock_2013.1_src/data/scripts/dock_solv.prm

>  <Rbt.Receptor>
prm/pocket_docking_4.prm

>  <SCORE>
-18.478

>  <SCORE.INTER>
-17.305

>  <SCORE.INTER.CONST>
1

>  <SCORE.INTER.POLAR>
0

>  <SCORE.INTER.ROT>
7

>  <SCORE.INTER.SOLV>
21.7624

>  <SCORE.INTER.VDW>
-27.0575

>  <SCORE.INTER.norm>
-0.640925

>  <SCORE.INTRA>
-1.17299

>  <SCORE.INTRA.DIHEDRAL>
-0.21708

>  <SCORE.INTRA.DIHEDRAL.0>
4.89803

>  <SCORE.INTRA.POLAR>
0

>  <SCORE.INTRA.POLAR.0>
0

>  <SCORE.INTRA.REPUL>
0

>  <SCORE.INTRA.REPUL.0>
0

>  <SCORE.INTRA.SOLV>
0.0478062

>  <SCORE.INTRA.SOLV.lig_0>
-48.5832

>  <SCORE.INTRA.VDW>
-1.08835

>  <SCORE.INTRA.VDW.0>
-2.39056

>  <SCORE.INTRA.norm>
-0.0434439

>  <SCORE.RESTR>
0

>  <SCORE.RESTR.CAVITY>
0

>  <SCORE.RESTR.norm>
0

>  <SCORE.SYSTEM>
0

>  <SCORE.SYSTEM.CONST>
0

>  <SCORE.SYSTEM.DIHEDRAL>
0

>  <SCORE.SYSTEM.SOLV>
0

>  <SCORE.SYSTEM.norm>
0

>  <SCORE.heavy>
27

>  <SCORE.norm>
-0.684369

>  <RMSD>
0.812

$$$$
ligand
 OpenBabel11021811473D
libRbt.so/2013.1/901 2013/11/27
 27 29  0  0  0  0  0  0  0  0999 V2000
   18.0864   -5.5954  -19.8887 N   0  0  0  0  0  0  0  0  0  0  0  0
   16.7791   -5.4339  -19.2355 C   0  0  2  0  0  0  0  0  0  0  0  0
   16.9257   -5.6151  -17.7217 C   0  0  0  0  0  0  0  0  0  0  0  0
   17.8787   -6.3207  -17.3248 O   0  0  0  0  0  0  0  0  0  0  0  0
   15.8212   -6.4951  -19.7798 C   0  0  0  0  0  0  0  0  0  0  0  0
   14.3653   -6.1971  -19.4127 C   0  0  0  0  0  0  0  0  0  0  0  0
   11.6176   -6.9178  -19.4487 C   0  0  0  0  0  0  0  0  0  0  0  0
   13.2100   -7.3834  -20.2569 Se  0  0  2  0  0  0  0  0  0  0  0  0
   13.5158   -9.0707  -19.5389 C   0  0  0  0  0  0  0  0  0  0  0  0
   12.3817  -10.0624  -19.8017 C   0  0  1  0  0  0  0  0  0  0  0  0
   11.9239   -9.8793  -21.1524 O   0  0  0  0  0  0  0  0  0  0  0  0
   12.9926  -11.4642  -19.7864 C   0  0  1  0  0  0  0  0  0  0  0  0
   11.9519  -12.4412  -19.8376 O   0  0  0  0  0  0  0  0  0  0  0  0
   13.7347  -11.4233  -21.1199 C   0  0  1  0  0  0  0  0  0  0  0  0
   13.9630  -12.7629  -21.5608 O   0  0  0  0  0  0  0  0  0  0  0  0
   12.6529  -10.7893  -21.9953 C   0  0  2  0  0  0  0  0  0  0  0  0
   16.0772   -5.0529  -16.9947 O   0  0  0  0  0  0  0  0  0  0  0  0
   16.0903   -7.3539  -23.7351 N   0  0  0  0  0  0  0  0  0  0  0  0
   15.8680   -7.7466  -22.4926 C   0  0  0  0  0  0  0  0  0  0  0  0
   14.9442   -8.6456  -22.2009 N   0  0  0  0  0  0  0  0  0  0  0  0
   14.1974   -9.1959  -23.1702 C   0  0  0  0  0  0  0  0  0  0  0  0
   14.4006   -8.8073  -24.4869 C   0  0  0  0  0  0  0  0  0  0  0  0
   15.3790   -7.8564  -24.7523 C   0  0  0  0  0  0  0  0  0  0  0  0
   15.5766   -7.4306  -25.9961 N   0  0  0  0  0  0  0  0  0  0  0  0
   13.5466   -9.4869  -25.2440 N   0  0  0  0  0  0  0  0  0  0  0  0
   12.8333  -10.2717  -24.4397 C   0  0  0  0  0  0  0  0  0  0  0  0
   13.2237  -10.1004  -23.1765 N   0  0  0  0  0  0  0  0  0  0  0  0
  2  1  1  6  0  0  0
  2  5  1  0  0  0  0
  2  3  1  0  0  0  0
  3 17  1  0  0  0  0
  3  4  1  0  0  0  0
  5  6  1  0  0  0  0
  7  8  1  0  0  0  0
  8  6  1  1  0  0  0
  8  9  1  0  0  0  0
 10  9  1  6  0  0  0
 10 11  1  0  0  0  0
 10 12  1  0  0  0  0
 11 16  1  0  0  0  0
 12 13  1  6  0  0  0
 12 14  1  0  0  0  0
 14 15  1  6  0  0  0
 14 16  1  0  0  0  0
 16 27  1  6  0  0  0
 18 23  2  0  0  0  0
 18 19  1  0  0  0  0
 19 20  2  0  0  0  0
 20 21  1  0  0  0  0
 21 22  2  0  0  0  0
 21 27  1  0  0  0  0
 22 23  1  0  0  0  0
 22 25  1  0  0  0  0
 23 24  1  0  0  0  0
 25 26  2  0  0  0  0
 26 27  1  0  0  0  0
M  END
>  <CHROM.1>
-166.33471676,-25.97861819,173.12590173,172.71660117,162.25415471,40.96438445
67.91428493,14.24540164,-8.34969372,-21.04701114,-0.86528926,-0.85440882
-1.82508662

>  <Name>
ligand

>  <RI>
0

>  <Rbt.Current_Directory>
/home/itssahil/PROJECTS/Mol_Feturizer/New_Systems/rnas/3E5F

>  <Rbt.Executable>
rbdock ($Id: //depot/dev/client3/rdock/2013.1/src/exe/rbdock.cxx#4 $)

>  <Rbt.Library>
libRbt.so (2013.1, Build901 2013/11/27)

>  <Rbt.Parameter_File>
/export/apps/rDock/src/rDock_2013.1_src/data/scripts/dock_solv.prm

>  <Rbt.Receptor>
prm/pocket_docking_3.prm

>  <SCORE>
-18.5558

>  <SCORE.INTER>
-17.4772

>  <SCORE.INTER.CONST>
1

>  <SCORE.INTER.POLAR>
0

>  <SCORE.INTER.ROT>
7

>  <SCORE.INTER.SOLV>
21.2379

>  <SCORE.INTER.VDW>
-26.9974

>  <SCORE.INTER.norm>
-0.647302

>  <SCORE.INTRA>
-1.07866

>  <SCORE.INTRA.DIHEDRAL>
0.180413

>  <SCORE.INTRA.DIHEDRAL.0>
4.89803

>  <SCORE.INTRA.POLAR>
0

>  <SCORE.INTRA.POLAR.0>
0

>  <SCORE.INTRA.REPUL>
0

>  <SCORE.INTRA.REPUL.0>
0

>  <SCORE.INTRA.SOLV>
0.0516525

>  <SCORE.INTRA.SOLV.lig_0>
-48.5832

>  <SCORE.INTRA.VDW>
-1.1947

>  <SCORE.INTRA.VDW.0>
-2.39056

>  <SCORE.INTRA.norm>
-0.0399505

>  <SCORE.RESTR>
0

>  <SCORE.RESTR.CAVITY>
0

>  <SCORE.RESTR.norm>
0

>  <SCORE.SYSTEM>
0

>  <SCORE.SYSTEM.CONST>
0

>  <SCORE.SYSTEM.DIHEDRAL>
0

>  <SCORE.SYSTEM.SOLV>
0

>  <SCORE.SYSTEM.norm>
0

>  <SCORE.heavy>
27

>  <SCORE.norm>
-0.687252

>  <RMSD>
0.833

$$$$
ligand
 OpenBabel11021811473D
libRbt.so/2013.1/901 2013/11/27
 27 29  0  0  0  0  0  0  0  0999 V2000
   17.5541   -6.2811  -19.3565 N   0  0  0  0  0  0  0  0  0  0  0  0
   16.6647   -6.1253  -18.1960 C   0  0  2  0  0  0  0  0  0  0  0  0
   17.3220   -6.7263  -16.9498 C   0  0  0  0  0  0  0  0  0  0  0  0
   17.5435   -5.9495  -15.9953 O   0  0  0  0  0  0  0  0  0  0  0  0
   15.3528   -6.8597  -18.4778 C   0  0  0  0  0  0  0  0  0  0  0  0
   14.6603   -6.3354  -19.7383 C   0  0  0  0  0  0  0  0  0  0  0  0
   11.9653   -6.8184  -18.9805 C   0  0  0  0  0  0  0  0  0  0  0  0
   13.2166   -7.4109  -20.2006 Se  0  0  2  0  0  0  0  0  0  0  0  0
   13.5704   -9.1247  -19.5730 C   0  0  0  0  0  0  0  0  0  0  0  0
   12.4503  -10.1252  -19.8606 C   0  0  1  0  0  0  0  0  0  0  0  0
   12.0231   -9.9478  -21.2221 O   0  0  0  0  0  0  0  0  0  0  0  0
   13.0710  -11.5224  -19.8283 C   0  0  1  0  0  0  0  0  0  0  0  0
   12.0390  -12.5072  -19.9023 O   0  0  0  0  0  0  0  0  0  0  0  0
   13.8441  -11.4781  -21.1439 C   0  0  1  0  0  0  0  0  0  0  0  0
   14.0926  -12.8168  -21.5769 O   0  0  0  0  0  0  0  0  0  0  0  0
   12.7786  -10.8537  -22.0459 C   0  0  2  0  0  0  0  0  0  0  0  0
   17.5974   -7.9459  -16.9817 O   0  0  0  0  0  0  0  0  0  0  0  0
   16.1093   -7.2738  -23.6998 N   0  0  0  0  0  0  0  0  0  0  0  0
   15.8439   -7.6484  -22.4601 C   0  0  0  0  0  0  0  0  0  0  0  0
   14.9567   -8.5905  -22.1919 N   0  0  0  0  0  0  0  0  0  0  0  0
   14.2931   -9.2049  -23.1828 C   0  0  0  0  0  0  0  0  0  0  0  0
   14.5436   -8.8374  -24.4974 C   0  0  0  0  0  0  0  0  0  0  0  0
   15.4810   -7.8398  -24.7381 C   0  0  0  0  0  0  0  0  0  0  0  0
   15.7200   -7.4337  -25.9811 N   0  0  0  0  0  0  0  0  0  0  0  0
   13.7690   -9.5819  -25.2786 N   0  0  0  0  0  0  0  0  0  0  0  0
   13.0585  -10.3858  -24.4909 C   0  0  0  0  0  0  0  0  0  0  0  0
   13.3720  -10.1626  -23.2145 N   0  0  0  0  0  0  0  0  0  0  0  0
  2  1  1  6  0  0  0
  2  5  1  0  0  0  0
  2  3  1  0  0  0  0
  3 17  1  0  0  0  0
  3  4  1  0  0  0  0
  5  6  1  0  0  0  0
  7  8  1  0  0  0  0
  8  6  1  1  0  0  0
  8  9  1  0  0  0  0
 10  9  1  6  0  0  0
 10 11  1  0  0  0  0
 10 12  1  0  0  0  0
 11 16  1  0  0  0  0
 12 13  1  6  0  0  0
 12 14  1  0  0  0  0
 14 15  1  6  0  0  0
 14 16  1  0  0  0  0
 16 27  1  6  0  0  0
 18 23  2  0  0  0  0
 18 19  1  0  0  0  0
 19 20  2  0  0  0  0
 20 21  1  0  0  0  0
 21 22  2  0  0  0  0
 21 27  1  0  0  0  0
 22 23  1  0  0  0  0
 22 25  1  0  0  0  0
 23 24  1  0  0  0  0
 25 26  2  0  0  0  0
 26 27  1  0  0  0  0
M  END
>  <CHROM.1>
-58.30587758,119.02663232,171.26152578,78.01561454,179.01118044,44.90595930
64.44302305,14.34383644,-8.55035453,-20.88411654,-0.95942240,-0.86246873
-1.64112700

>  <Name>
ligand

>  <RI>
0

>  <Rbt.Current_Directory>
/home/itssahil/PROJECTS/Mol_Feturizer/New_Systems/rnas/3E5F

>  <Rbt.Executable>
rbdock ($Id: //depot/dev/client3/rdock/2013.1/src/exe/rbdock.cxx#4 $)

>  <Rbt.Library>
libRbt.so (2013.1, Build901 2013/11/27)

>  <Rbt.Parameter_File>
/export/apps/rDock/src/rDock_2013.1_src/data/scripts/dock_solv.prm

>  <Rbt.Receptor>
prm/pocket_docking_2.prm

>  <SCORE>
-16.6932

>  <SCORE.INTER>
-16.379

>  <SCORE.INTER.CONST>
1

>  <SCORE.INTER.POLAR>
0

>  <SCORE.INTER.ROT>
7

>  <SCORE.INTER.SOLV>
19.8617

>  <SCORE.INTER.VDW>
-25.8066

>  <SCORE.INTER.norm>
-0.60663

>  <SCORE.INTRA>
-0.314213

>  <SCORE.INTRA.DIHEDRAL>
-0.044313

>  <SCORE.INTRA.DIHEDRAL.0>
4.89803

>  <SCORE.INTRA.POLAR>
0

>  <SCORE.INTRA.POLAR.0>
0

>  <SCORE.INTRA.REPUL>
0

>  <SCORE.INTRA.REPUL.0>
0

>  <SCORE.INTRA.SOLV>
0.840507

>  <SCORE.INTRA.SOLV.lig_0>
-48.5832

>  <SCORE.INTRA.VDW>
-0.71231

>  <SCORE.INTRA.VDW.0>
-2.39056

>  <SCORE.INTRA.norm>
-0.0116375

>  <SCORE.RESTR>
0

>  <SCORE.RESTR.CAVITY>
0

>  <SCORE.RESTR.norm>
0

>  <SCORE.SYSTEM>
0

>  <SCORE.SYSTEM.CONST>
0

>  <SCORE.SYSTEM.DIHEDRAL>
0

>  <SCORE.SYSTEM.SOLV>
0

>  <SCORE.SYSTEM.norm>
0

>  <SCORE.heavy>
27

>  <SCORE.norm>
-0.618268

>  <RMSD>
0.858

$$$$
ligand
 OpenBabel11021811473D
libRbt.so/2013.1/901 2013/11/27
 27 29  0  0  0  0  0  0  0  0999 V2000
   17.5466   -5.9595  -19.5514 N   0  0  0  0  0  0  0  0  0  0  0  0
   16.4361   -5.2276  -18.9246 C   0  0  2  0  0  0  0  0  0  0  0  0
   16.4836   -5.4082  -17.4043 C   0  0  0  0  0  0  0  0  0  0  0  0
   15.5260   -4.9436  -16.7480 O   0  0  0  0  0  0  0  0  0  0  0  0
   15.1149   -5.7849  -19.4573 C   0  0  0  0  0  0  0  0  0  0  0  0
   14.9619   -7.2794  -19.1635 C   0  0  0  0  0  0  0  0  0  0  0  0
   12.1647   -7.4911  -18.7152 C   0  0  0  0  0  0  0  0  0  0  0  0
   13.4331   -7.9630  -19.9698 Se  0  0  2  0  0  0  0  0  0  0  0  0
   13.4782   -9.8119  -19.7805 C   0  0  0  0  0  0  0  0  0  0  0  0
   12.1943  -10.5055  -20.2379 C   0  0  1  0  0  0  0  0  0  0  0  0
   11.8075   -9.9510  -21.5070 O   0  0  0  0  0  0  0  0  0  0  0  0
   12.5495  -11.9611  -20.5432 C   0  0  1  0  0  0  0  0  0  0  0  0
   11.3551  -12.7038  -20.7927 O   0  0  0  0  0  0  0  0  0  0  0  0
   13.3184  -11.7582  -21.8464 C   0  0  1  0  0  0  0  0  0  0  0  0
   13.3185  -12.9862  -22.5766 O   0  0  0  0  0  0  0  0  0  0  0  0
   12.3854  -10.7663  -22.5422 C   0  0  2  0  0  0  0  0  0  0  0  0
   17.4797   -5.9976  -16.9303 O   0  0  0  0  0  0  0  0  0  0  0  0
   16.0807   -7.2718  -23.4244 N   0  0  0  0  0  0  0  0  0  0  0  0
   15.7186   -7.8232  -22.2788 C   0  0  0  0  0  0  0  0  0  0  0  0
   14.7446   -8.7139  -22.2115 N   0  0  0  0  0  0  0  0  0  0  0  0
   14.0883   -9.0924  -23.3187 C   0  0  0  0  0  0  0  0  0  0  0  0
   14.4390   -8.5341  -24.5399 C   0  0  0  0  0  0  0  0  0  0  0  0
   15.4659   -7.5980  -24.5685 C   0  0  0  0  0  0  0  0  0  0  0  0
   15.8044   -7.0127  -25.7132 N   0  0  0  0  0  0  0  0  0  0  0  0
   13.6502   -9.0654  -25.4672 N   0  0  0  0  0  0  0  0  0  0  0  0
   12.8350   -9.9230  -24.8578 C   0  0  0  0  0  0  0  0  0  0  0  0
   13.0957   -9.9452  -23.5506 N   0  0  0  0  0  0  0  0  0  0  0  0
  2  1  1  6  0  0  0
  2  5  1  0  0  0  0
  2  3  1  0  0  0  0
  3 17  1  0  0  0  0
  3  4  1  0  0  0  0
  5  6  1  0  0  0  0
  7  8  1  0  0  0  0
  8  6  1  1  0  0  0
  8  9  1  0  0  0  0
 10  9  1  6  0  0  0
 10 11  1  0  0  0  0
 10 12  1  0  0  0  0
 11 16  1  0  0  0  0
 12 13  1  6  0  0  0
 12 14  1  0  0  0  0
 14 15  1  6  0  0  0
 14 16  1  0  0  0  0
 16 27  1  6  0  0  0
 18 23  2  0  0  0  0
 18 19  1  0  0  0  0
 19 20  2  0  0  0  0
 20 21  1  0  0  0  0
 21 22  2  0  0  0  0
 21 27  1  0  0  0  0
 22 23  1  0  0  0  0
 22 25  1  0  0  0  0
 23 24  1  0  0  0  0
 25 26  2  0  0  0  0
 26 27  1  0  0  0  0
M  END
>  <CHROM.1>
59.16862618,-173.50201796,-174.25914095,-82.89619977,172.56620997,45.84041024
56.89707394,14.13276620,-8.49425155,-21.07219800,-0.89822050,-0.88570136
-1.80666017

>  <Name>
ligand

>  <RI>
0

>  <Rbt.Current_Directory>
/home/itssahil/PROJECTS/Mol_Feturizer/New_Systems/rnas/3E5F

>  <Rbt.Executable>
rbdock ($Id: //depot/dev/client3/rdock/2013.1/src/exe/rbdock.cxx#4 $)

>  <Rbt.Library>
libRbt.so (2013.1, Build901 2013/11/27)

>  <Rbt.Parameter_File>
/export/apps/rDock/src/rDock_2013.1_src/data/scripts/dock_solv.prm

>  <Rbt.Receptor>
prm/pocket_docking_2.prm

>  <SCORE>
-16.5221

>  <SCORE.INTER>
-15.8237

>  <SCORE.INTER.CONST>
1

>  <SCORE.INTER.POLAR>
0

>  <SCORE.INTER.ROT>
7

>  <SCORE.INTER.SOLV>
18.9298

>  <SCORE.INTER.VDW>
-25.1258

>  <SCORE.INTER.norm>
-0.586064

>  <SCORE.INTRA>
-0.698348

>  <SCORE.INTRA.DIHEDRAL>
-0.833632

>  <SCORE.INTRA.DIHEDRAL.0>
4.89803

>  <SCORE.INTRA.POLAR>
0

>  <SCORE.INTRA.POLAR.0>
0

>  <SCORE.INTRA.REPUL>
0

>  <SCORE.INTRA.REPUL.0>
0

>  <SCORE.INTRA.SOLV>
0.873504

>  <SCORE.INTRA.SOLV.lig_0>
-48.5832

>  <SCORE.INTRA.VDW>
-0.718284

>  <SCORE.INTRA.VDW.0>
-2.39056

>  <SCORE.INTRA.norm>
-0.0258647

>  <SCORE.RESTR>
0

>  <SCORE.RESTR.CAVITY>
0

>  <SCORE.RESTR.norm>
0

>  <SCORE.SYSTEM>
0

>  <SCORE.SYSTEM.CONST>
0

>  <SCORE.SYSTEM.DIHEDRAL>
0

>  <SCORE.SYSTEM.SOLV>
0

>  <SCORE.SYSTEM.norm>
0

>  <SCORE.heavy>
27

>  <SCORE.norm>
-0.611928

>  <RMSD>
1.029

$$$$
ligand
 OpenBabel11021811473D
libRbt.so/2013.1/901 2013/11/27
 27 29  0  0  0  0  0  0  0  0999 V2000
   17.8807   -6.0940  -19.5603 N   0  0  0  0  0  0  0  0  0  0  0  0
   16.8019   -5.3461  -18.8979 C   0  0  2  0  0  0  0  0  0  0  0  0
   16.8775   -5.5529  -17.3821 C   0  0  0  0  0  0  0  0  0  0  0  0
   17.7545   -6.3380  -16.9600 O   0  0  0  0  0  0  0  0  0  0  0  0
   15.4565   -5.8627  -19.4106 C   0  0  0  0  0  0  0  0  0  0  0  0
   15.2632   -7.3524  -19.1159 C   0  0  0  0  0  0  0  0  0  0  0  0
   12.5231   -7.5877  -18.4037 C   0  0  0  0  0  0  0  0  0  0  0  0
   13.6529   -7.9651  -19.8132 Se  0  0  2  0  0  0  0  0  0  0  0  0
   13.6952   -9.8233  -19.7728 C   0  0  0  0  0  0  0  0  0  0  0  0
   12.3730  -10.4747  -20.1801 C   0  0  1  0  0  0  0  0  0  0  0  0
   11.9533   -9.9035  -21.4312 O   0  0  0  0  0  0  0  0  0  0  0  0
   12.6698  -11.9395  -20.5031 C   0  0  1  0  0  0  0  0  0  0  0  0
   11.4436  -12.6436  -20.7064 O   0  0  0  0  0  0  0  0  0  0  0  0
   13.3919  -11.7558  -21.8356 C   0  0  1  0  0  0  0  0  0  0  0  0
   13.3242  -12.9804  -22.5684 O   0  0  0  0  0  0  0  0  0  0  0  0
   12.4633  -10.7325  -22.4908 C   0  0  2  0  0  0  0  0  0  0  0  0
   16.0517   -4.9298  -16.6791 O   0  0  0  0  0  0  0  0  0  0  0  0
   16.1393   -7.2499  -23.4922 N   0  0  0  0  0  0  0  0  0  0  0  0
   15.7942   -7.7792  -22.3311 C   0  0  0  0  0  0  0  0  0  0  0  0
   14.8229   -8.6701  -22.2329 N   0  0  0  0  0  0  0  0  0  0  0  0
   14.1521   -9.0713  -23.3233 C   0  0  0  0  0  0  0  0  0  0  0  0
   14.4849   -8.5365  -24.5599 C   0  0  0  0  0  0  0  0  0  0  0  0
   15.5096   -7.5994  -24.6211 C   0  0  0  0  0  0  0  0  0  0  0  0
   15.8311   -7.0361  -25.7815 N   0  0  0  0  0  0  0  0  0  0  0  0
   13.6845   -9.0872  -25.4658 N   0  0  0  0  0  0  0  0  0  0  0  0
   12.8794   -9.9341  -24.8285 C   0  0  0  0  0  0  0  0  0  0  0  0
   13.1581   -9.9302  -23.5248 N   0  0  0  0  0  0  0  0  0  0  0  0
  2  1  1  6  0  0  0
  2  5  1  0  0  0  0
  2  3  1  0  0  0  0
  3 17  1  0  0  0  0
  3  4  1  0  0  0  0
  5  6  1  0  0  0  0
  7  8  1  0  0  0  0
  8  6  1  1  0  0  0
  8  9  1  0  0  0  0
 10  9  1  6  0  0  0
 10 11  1  0  0  0  0
 10 12  1  0  0  0  0
 11 16  1  0  0  0  0
 12 13  1  6  0  0  0
 12 14  1  0  0  0  0
 14 15  1  6  0  0  0
 14 16  1  0  0  0  0
 16 27  1  6  0  0  0
 18 23  2  0  0  0  0
 18 19  1  0  0  0  0
 19 20  2  0  0  0  0
 20 21  1  0  0  0  0
 21 22  2  0  0  0  0
 21 27  1  0  0  0  0
 22 23  1  0  0  0  0
 22 25  1  0  0  0  0
 23 24  1  0  0  0  0
 25 26  2  0  0  0  0
 26 27  1  0  0  0  0
M  END
>  <CHROM.1>
60.15870043,-3.36448142,-177.61590619,-87.64031373,173.86323611,50.89234360
54.14246992,14.31209802,-8.51761425,-21.02330899,-0.85528192,-0.87315652
-1.74022998

>  <Name>
ligand

>  <RI>
0

>  <Rbt.Current_Directory>
/home/itssahil/PROJECTS/Mol_Feturizer/New_Systems/rnas/3E5F

>  <Rbt.Executable>
rbdock ($Id: //depot/dev/client3/rdock/2013.1/src/exe/rbdock.cxx#4 $)

>  <Rbt.Library>
libRbt.so (2013.1, Build901 2013/11/27)

>  <Rbt.Parameter_File>
/export/apps/rDock/src/rDock_2013.1_src/data/scripts/dock_solv.prm

>  <Rbt.Receptor>
prm/pocket_docking_2.prm

>  <SCORE>
-16.7319

>  <SCORE.INTER>
-15.8376

>  <SCORE.INTER.CONST>
1

>  <SCORE.INTER.POLAR>
0

>  <SCORE.INTER.ROT>
7

>  <SCORE.INTER.SOLV>
19.533

>  <SCORE.INTER.VDW>
-25.3361

>  <SCORE.INTER.norm>
-0.586578

>  <SCORE.INTRA>
-0.899782

>  <SCORE.INTRA.DIHEDRAL>
-1.07015

>  <SCORE.INTRA.DIHEDRAL.0>
4.89803

>  <SCORE.INTRA.POLAR>
0

>  <SCORE.INTRA.POLAR.0>
0

>  <SCORE.INTRA.REPUL>
0

>  <SCORE.INTRA.REPUL.0>
0

>  <SCORE.INTRA.SOLV>
0.813862

>  <SCORE.INTRA.SOLV.lig_0>
-48.5832

>  <SCORE.INTRA.VDW>
-0.771637

>  <SCORE.INTRA.VDW.0>
-2.39056

>  <SCORE.INTRA.norm>
-0.0333253

>  <SCORE.RESTR>
0.00544998

>  <SCORE.RESTR.CAVITY>
0.00544998

>  <SCORE.RESTR.norm>
0.000201851

>  <SCORE.SYSTEM>
0

>  <SCORE.SYSTEM.CONST>
0

>  <SCORE.SYSTEM.DIHEDRAL>
0

>  <SCORE.SYSTEM.SOLV>
0

>  <SCORE.SYSTEM.norm>
0

>  <SCORE.heavy>
27

>  <SCORE.norm>
-0.619701

>  <RMSD>
1.049

$$$$
ligand
 OpenBabel11021811473D
libRbt.so/2013.1/901 2013/11/27
 27 29  0  0  0  0  0  0  0  0999 V2000
   16.1993   -5.3341  -20.4345 N   0  0  0  0  0  0  0  0  0  0  0  0
   15.4030   -5.2087  -19.2049 C   0  0  2  0  0  0  0  0  0  0  0  0
   16.2980   -5.4168  -17.9794 C   0  0  0  0  0  0  0  0  0  0  0  0
   15.8227   -5.0939  -16.8688 O   0  0  0  0  0  0  0  0  0  0  0  0
   14.3072   -6.2759  -19.2157 C   0  0  0  0  0  0  0  0  0  0  0  0
   13.3387   -6.0929  -20.3870 C   0  0  0  0  0  0  0  0  0  0  0  0
   11.0614   -6.7609  -18.8255 C   0  0  0  0  0  0  0  0  0  0  0  0
   11.9696   -7.3482  -20.3208 Se  0  0  2  0  0  0  0  0  0  0  0  0
   12.7017   -8.9449  -19.7120 C   0  0  0  0  0  0  0  0  0  0  0  0
   11.8313  -10.1679  -20.0038 C   0  0  1  0  0  0  0  0  0  0  0  0
   11.5688  -10.2101  -21.4169 O   0  0  0  0  0  0  0  0  0  0  0  0
   12.6847  -11.4072  -19.7312 C   0  0  1  0  0  0  0  0  0  0  0  0
   11.8682  -12.5770  -19.8041 O   0  0  0  0  0  0  0  0  0  0  0  0
   13.6090  -11.3407  -20.9444 C   0  0  1  0  0  0  0  0  0  0  0  0
   14.1527  -12.6406  -21.1805 O   0  0  0  0  0  0  0  0  0  0  0  0
   12.5810  -11.0267  -22.0322 C   0  0  2  0  0  0  0  0  0  0  0  0
   17.4405   -5.8846  -18.1798 O   0  0  0  0  0  0  0  0  0  0  0  0
   15.9024   -7.4330  -23.6751 N   0  0  0  0  0  0  0  0  0  0  0  0
   15.6123   -7.7877  -22.4351 C   0  0  0  0  0  0  0  0  0  0  0  0
   14.7316   -8.7367  -22.1700 N   0  0  0  0  0  0  0  0  0  0  0  0
   14.1002   -9.3789  -23.1644 C   0  0  0  0  0  0  0  0  0  0  0  0
   14.3772   -9.0329  -24.4795 C   0  0  0  0  0  0  0  0  0  0  0  0
   15.3067   -8.0272  -24.7170 C   0  0  0  0  0  0  0  0  0  0  0  0
   15.5700   -7.6413  -25.9616 N   0  0  0  0  0  0  0  0  0  0  0  0
   13.6316   -9.8026  -25.2644 N   0  0  0  0  0  0  0  0  0  0  0  0
   12.9132  -10.6012  -24.4785 C   0  0  0  0  0  0  0  0  0  0  0  0
   13.1930  -10.3496  -23.1995 N   0  0  0  0  0  0  0  0  0  0  0  0
  2  1  1  6  0  0  0
  2  5  1  0  0  0  0
  2  3  1  0  0  0  0
  3 17  1  0  0  0  0
  3  4  1  0  0  0  0
  5  6  1  0  0  0  0
  7  8  1  0  0  0  0
  8  6  1  1  0  0  0
  8  9  1  0  0  0  0
 10  9  1  6  0  0  0
 10 11  1  0  0  0  0
 10 12  1  0  0  0  0
 11 16  1  0  0  0  0
 12 13  1  6  0  0  0
 12 14  1  0  0  0  0
 14 15  1  6  0  0  0
 14 16  1  0  0  0  0
 16 27  1  6  0  0  0
 18 23  2  0  0  0  0
 18 19  1  0  0  0  0
 19 20  2  0  0  0  0
 20 21  1  0  0  0  0
 21 22  2  0  0  0  0
 21 27  1  0  0  0  0
 22 23  1  0  0  0  0
 22 25  1  0  0  0  0
 23 24  1  0  0  0  0
 25 26  2  0  0  0  0
 26 27  1  0  0  0  0
M  END
>  <CHROM.1>
-62.28731456,166.89463533,-176.98705846,68.70850097,-162.19539077,55.34255651
77.28078556,13.68870324,-8.36358960,-21.09647998,-1.16884130,-0.81732149
-2.13281381

>  <Name>
ligand

>  <RI>
0

>  <Rbt.Current_Directory>
/home/itssahil/PROJECTS/Mol_Feturizer/New_Systems/rnas/3E5F

>  <Rbt.Executable>
rbdock ($Id: //depot/dev/client3/rdock/2013.1/src/exe/rbdock.cxx#4 $)

>  <Rbt.Library>
libRbt.so (2013.1, Build901 2013/11/27)

>  <Rbt.Parameter_File>
/export/apps/rDock/src/rDock_2013.1_src/data/scripts/dock_solv.prm

>  <Rbt.Receptor>
prm/pocket_docking_7.prm

>  <SCORE>
-17.88

>  <SCORE.INTER>
-17.5613

>  <SCORE.INTER.CONST>
1

>  <SCORE.INTER.POLAR>
0

>  <SCORE.INTER.ROT>
7

>  <SCORE.INTER.SOLV>
19.2612

>  <SCORE.INTER.VDW>
-26.3946

>  <SCORE.INTER.norm>
-0.650418

>  <SCORE.INTRA>
-0.318701

>  <SCORE.INTRA.DIHEDRAL>
-0.629118

>  <SCORE.INTRA.DIHEDRAL.0>
4.89803

>  <SCORE.INTRA.POLAR>
0

>  <SCORE.INTRA.POLAR.0>
0

>  <SCORE.INTRA.REPUL>
0

>  <SCORE.INTRA.REPUL.0>
0

>  <SCORE.INTRA.SOLV>
1.19381

>  <SCORE.INTRA.SOLV.lig_0>
-48.5832

>  <SCORE.INTRA.VDW>
-0.601046

>  <SCORE.INTRA.VDW.0>
-2.39056

>  <SCORE.INTRA.norm>
-0.0118037

>  <SCORE.RESTR>
0

>  <SCORE.RESTR.CAVITY>
0

>  <SCORE.RESTR.norm>
0

>  <SCORE.SYSTEM>
0

>  <SCORE.SYSTEM.CONST>
0

>  <SCORE.SYSTEM.DIHEDRAL>
0

>  <SCORE.SYSTEM.SOLV>
0

>  <SCORE.SYSTEM.norm>
0

>  <SCORE.heavy>
27

>  <SCORE.norm>
-0.662221

>  <RMSD>
1.074

$$$$
ligand
 OpenBabel11021811473D
libRbt.so/2013.1/901 2013/11/27
 27 29  0  0  0  0  0  0  0  0999 V2000
   15.9456   -5.6133  -20.1466 N   0  0  0  0  0  0  0  0  0  0  0  0
   15.0639   -5.3310  -19.0044 C   0  0  2  0  0  0  0  0  0  0  0  0
   15.8409   -5.4877  -17.6936 C   0  0  0  0  0  0  0  0  0  0  0  0
   16.9898   -5.9752  -17.7704 O   0  0  0  0  0  0  0  0  0  0  0  0
   13.9002   -6.3236  -19.0222 C   0  0  0  0  0  0  0  0  0  0  0  0
   13.0292   -6.1652  -20.2711 C   0  0  0  0  0  0  0  0  0  0  0  0
   10.7711   -6.9995  -18.7627 C   0  0  0  0  0  0  0  0  0  0  0  0
   11.6791   -7.4420  -20.3072 Se  0  0  2  0  0  0  0  0  0  0  0  0
   12.4380   -9.0740  -19.8415 C   0  0  0  0  0  0  0  0  0  0  0  0
   11.5875  -10.2807  -20.2405 C   0  0  1  0  0  0  0  0  0  0  0  0
   11.3629  -10.2271  -21.6598 O   0  0  0  0  0  0  0  0  0  0  0  0
   12.4452  -11.5291  -20.0308 C   0  0  1  0  0  0  0  0  0  0  0  0
   11.6422  -12.6974  -20.2063 O   0  0  0  0  0  0  0  0  0  0  0  0
   13.4006  -11.3718  -21.2110 C   0  0  1  0  0  0  0  0  0  0  0  0
   13.9628  -12.6480  -21.5212 O   0  0  0  0  0  0  0  0  0  0  0  0
   12.3990  -10.9913  -22.3021 C   0  0  2  0  0  0  0  0  0  0  0  0
   15.2667   -5.1262  -16.6430 O   0  0  0  0  0  0  0  0  0  0  0  0
   15.9109   -7.4454  -23.6204 N   0  0  0  0  0  0  0  0  0  0  0  0
   15.6167   -7.9132  -22.4195 C   0  0  0  0  0  0  0  0  0  0  0  0
   14.6833   -8.8313  -22.2390 N   0  0  0  0  0  0  0  0  0  0  0  0
   14.0004   -9.3246  -23.2832 C   0  0  0  0  0  0  0  0  0  0  0  0
   14.2801   -8.8566  -24.5594 C   0  0  0  0  0  0  0  0  0  0  0  0
   15.2660   -7.8881  -24.7073 C   0  0  0  0  0  0  0  0  0  0  0  0
   15.5354   -7.3873  -25.9089 N   0  0  0  0  0  0  0  0  0  0  0  0
   13.4782   -9.4922  -25.4064 N   0  0  0  0  0  0  0  0  0  0  0  0
   12.7232  -10.3265  -24.6955 C   0  0  0  0  0  0  0  0  0  0  0  0
   13.0353  -10.2305  -23.4030 N   0  0  0  0  0  0  0  0  0  0  0  0
  2  1  1  6  0  0  0
  2  5  1  0  0  0  0
  2  3  1  0  0  0  0
  3 17  1  0  0  0  0
  3  4  1  0  0  0  0
  5  6  1  0  0  0  0
  7  8  1  0  0  0  0
  8  6  1  1  0  0  0
  8  9  1  0  0  0  0
 10  9  1  6  0  0  0
 10 11  1  0  0  0  0
 10 12  1  0  0  0  0
 11 16  1  0  0  0  0
 12 13  1  6  0  0  0
 12 14  1  0  0  0  0
 14 15  1  6  0  0  0
 14 16  1  0  0  0  0
 16 27  1  6  0  0  0
 18 23  2  0  0  0  0
 18 19  1  0  0  0  0
 19 20  2  0  0  0  0
 20 21  1  0  0  0  0
 21 22  2  0  0  0  0
 21 27  1  0  0  0  0
 22 23  1  0  0  0  0
 22 25  1  0  0  0  0
 23 24  1  0  0  0  0
 25 26  2  0  0  0  0
 26 27  1  0  0  0  0
M  END
>  <CHROM.1>
-63.33185526,-8.74811982,177.01381294,61.31145428,-161.88644340,57.31403424
82.44107210,13.45447187,-8.39520496,-21.12836340,-1.27472235,-0.78452889
-2.13048328

>  <Name>
ligand

>  <RI>
0

>  <Rbt.Current_Directory>
/home/itssahil/PROJECTS/Mol_Feturizer/New_Systems/rnas/3E5F

>  <Rbt.Executable>
rbdock ($Id: //depot/dev/client3/rdock/2013.1/src/exe/rbdock.cxx#4 $)

>  <Rbt.Library>
libRbt.so (2013.1, Build901 2013/11/27)

>  <Rbt.Parameter_File>
/export/apps/rDock/src/rDock_2013.1_src/data/scripts/dock_solv.prm

>  <Rbt.Receptor>
prm/pocket_docking_2.prm

>  <SCORE>
-17.3185

>  <SCORE.INTER>
-17.2764

>  <SCORE.INTER.CONST>
1

>  <SCORE.INTER.POLAR>
0

>  <SCORE.INTER.ROT>
7

>  <SCORE.INTER.SOLV>
17.9243

>  <SCORE.INTER.VDW>
-25.759

>  <SCORE.INTER.norm>
-0.639866

>  <SCORE.INTRA>
-0.0431871

>  <SCORE.INTRA.DIHEDRAL>
-0.911725

>  <SCORE.INTRA.DIHEDRAL.0>
4.89803

>  <SCORE.INTRA.POLAR>
0

>  <SCORE.INTRA.POLAR.0>
0

>  <SCORE.INTRA.REPUL>
0

>  <SCORE.INTRA.REPUL.0>
0

>  <SCORE.INTRA.SOLV>
1.13722

>  <SCORE.INTRA.SOLV.lig_0>
-48.5832

>  <SCORE.INTRA.VDW>
-0.155935

>  <SCORE.INTRA.VDW.0>
-2.39056

>  <SCORE.INTRA.norm>
-0.00159952

>  <SCORE.RESTR>
0.00105093

>  <SCORE.RESTR.CAVITY>
0.00105093

>  <SCORE.RESTR.norm>
3.89233e-05

>  <SCORE.SYSTEM>
0

>  <SCORE.SYSTEM.CONST>
0

>  <SCORE.SYSTEM.DIHEDRAL>
0

>  <SCORE.SYSTEM.SOLV>
0

>  <SCORE.SYSTEM.norm>
0

>  <SCORE.heavy>
27

>  <SCORE.norm>
-0.641427

>  <RMSD>
1.097

$$$$
ligand
 OpenBabel11021811473D
libRbt.so/2013.1/901 2013/11/27
 27 29  0  0  0  0  0  0  0  0999 V2000
   15.8602   -5.5773  -20.1379 N   0  0  0  0  0  0  0  0  0  0  0  0
   14.9361   -5.3143  -19.0249 C   0  0  2  0  0  0  0  0  0  0  0  0
   15.6805   -5.4241  -17.6908 C   0  0  0  0  0  0  0  0  0  0  0  0
   15.0547   -5.0849  -16.6628 O   0  0  0  0  0  0  0  0  0  0  0  0
   13.8119   -6.3510  -19.0616 C   0  0  0  0  0  0  0  0  0  0  0  0
   12.9190   -6.1866  -20.2941 C   0  0  0  0  0  0  0  0  0  0  0  0
   10.6896   -6.9852  -18.7249 C   0  0  0  0  0  0  0  0  0  0  0  0
   11.5472   -7.4408  -20.2941 Se  0  0  2  0  0  0  0  0  0  0  0  0
   12.2914   -9.0858  -19.8509 C   0  0  0  0  0  0  0  0  0  0  0  0
   11.4497  -10.2800  -20.3025 C   0  0  1  0  0  0  0  0  0  0  0  0
   11.2726  -10.1964  -21.7270 O   0  0  0  0  0  0  0  0  0  0  0  0
   12.2948  -11.5365  -20.0902 C   0  0  1  0  0  0  0  0  0  0  0  0
   11.4934  -12.6971  -20.3162 O   0  0  0  0  0  0  0  0  0  0  0  0
   13.2896  -11.3596  -21.2346 C   0  0  1  0  0  0  0  0  0  0  0  0
   13.8566  -12.6319  -21.5523 O   0  0  0  0  0  0  0  0  0  0  0  0
   12.3263  -10.9522  -22.3503 C   0  0  2  0  0  0  0  0  0  0  0  0
   16.8612   -5.8353  -17.7281 O   0  0  0  0  0  0  0  0  0  0  0  0
   15.9642   -7.4719  -23.4890 N   0  0  0  0  0  0  0  0  0  0  0  0
   15.6380   -7.9735  -22.3103 C   0  0  0  0  0  0  0  0  0  0  0  0
   14.6744   -8.8681  -22.1765 N   0  0  0  0  0  0  0  0  0  0  0  0
   13.9923   -9.3017  -23.2474 C   0  0  0  0  0  0  0  0  0  0  0  0
   14.3052   -8.7966  -24.5015 C   0  0  0  0  0  0  0  0  0  0  0  0
   15.3223   -7.8545  -24.6002 C   0  0  0  0  0  0  0  0  0  0  0  0
   15.6247   -7.3190  -25.7788 N   0  0  0  0  0  0  0  0  0  0  0  0
   13.4969   -9.3758  -25.3823 N   0  0  0  0  0  0  0  0  0  0  0  0
   12.7062  -10.2114  -24.7130 C   0  0  0  0  0  0  0  0  0  0  0  0
   13.0018  -10.1721  -23.4136 N   0  0  0  0  0  0  0  0  0  0  0  0
  2  1  1  6  0  0  0
  2  5  1  0  0  0  0
  2  3  1  0  0  0  0
  3 17  1  0  0  0  0
  3  4  1  0  0  0  0
  5  6  1  0  0  0  0
  7  8  1  0  0  0  0
  8  6  1  1  0  0  0
  8  9  1  0  0  0  0
 10  9  1  6  0  0  0
 10 11  1  0  0  0  0
 10 12  1  0  0  0  0
 11 16  1  0  0  0  0
 12 13  1  6  0  0  0
 12 14  1  0  0  0  0
 14 15  1  6  0  0  0
 14 16  1  0  0  0  0
 16 27  1  6  0  0  0
 18 23  2  0  0  0  0
 18 19  1  0  0  0  0
 19 20  2  0  0  0  0
 20 21  1  0  0  0  0
 21 22  2  0  0  0  0
 21 27  1  0  0  0  0
 22 23  1  0  0  0  0
 22 25  1  0  0  0  0
 23 24  1  0  0  0  0
 25 26  2  0  0  0  0
 26 27  1  0  0  0  0
M  END
>  <CHROM.1>
-66.87025857,172.54171640,-179.02004569,60.66938069,-158.41169817,57.84082746
84.51778107,13.37263158,-8.37288617,-21.12096482,-1.28816885,-0.75251570
-2.16362382

>  <Name>
ligand

>  <RI>
0

>  <Rbt.Current_Directory>
/home/itssahil/PROJECTS/Mol_Feturizer/New_Systems/rnas/3E5F

>  <Rbt.Executable>
rbdock ($Id: //depot/dev/client3/rdock/2013.1/src/exe/rbdock.cxx#4 $)

>  <Rbt.Library>
libRbt.so (2013.1, Build901 2013/11/27)

>  <Rbt.Parameter_File>
/export/apps/rDock/src/rDock_2013.1_src/data/scripts/dock_solv.prm

>  <Rbt.Receptor>
prm/pocket_docking_2.prm

>  <SCORE>
-17.3651

>  <SCORE.INTER>
-17.4781

>  <SCORE.INTER.CONST>
1

>  <SCORE.INTER.POLAR>
0

>  <SCORE.INTER.ROT>
7

>  <SCORE.INTER.SOLV>
17.5962

>  <SCORE.INTER.VDW>
-25.7841

>  <SCORE.INTER.norm>
-0.647337

>  <SCORE.INTRA>
0.109721

>  <SCORE.INTRA.DIHEDRAL>
-0.608178

>  <SCORE.INTRA.DIHEDRAL.0>
4.89803

>  <SCORE.INTRA.POLAR>
0

>  <SCORE.INTRA.POLAR.0>
0

>  <SCORE.INTRA.REPUL>
0

>  <SCORE.INTRA.REPUL.0>
0

>  <SCORE.INTRA.SOLV>
1.15641

>  <SCORE.INTRA.SOLV.lig_0>
-48.5832

>  <SCORE.INTRA.VDW>
-0.164397

>  <SCORE.INTRA.VDW.0>
-2.39056

>  <SCORE.INTRA.norm>
0.00406372

>  <SCORE.RESTR>
0.00324861

>  <SCORE.RESTR.CAVITY>
0.00324861

>  <SCORE.RESTR.norm>
0.000120319

>  <SCORE.SYSTEM>
0

>  <SCORE.SYSTEM.CONST>
0

>  <SCORE.SYSTEM.DIHEDRAL>
0

>  <SCORE.SYSTEM.SOLV>
0

>  <SCORE.SYSTEM.norm>
0

>  <SCORE.heavy>
27

>  <SCORE.norm>
-0.643153

>  <RMSD>
1.143

$$$$
ligand
 OpenBabel11021811473D
libRbt.so/2013.1/901 2013/11/27
 27 29  0  0  0  0  0  0  0  0999 V2000
   15.3786   -4.9253  -16.6892 N   0  0  0  0  0  0  0  0  0  0  0  0
   15.8726   -6.2619  -17.0515 C   0  0  2  0  0  0  0  0  0  0  0  0
   17.3949   -6.2286  -17.2184 C   0  0  0  0  0  0  0  0  0  0  0  0
   18.0610   -7.0058  -16.5002 O   0  0  0  0  0  0  0  0  0  0  0  0
   15.2298   -6.6838  -18.3739 C   0  0  0  0  0  0  0  0  0  0  0  0
   13.7030   -6.7405  -18.2780 C   0  0  0  0  0  0  0  0  0  0  0  0
   11.1921   -7.6198  -19.2742 C   0  0  0  0  0  0  0  0  0  0  0  0
   12.9761   -7.6182  -19.7463 Se  0  0  2  0  0  0  0  0  0  0  0  0
   13.4066   -9.4201  -19.5921 C   0  0  0  0  0  0  0  0  0  0  0  0
   12.2748  -10.3581  -20.0137 C   0  0  1  0  0  0  0  0  0  0  0  0
   11.8667  -10.0050  -21.3465 O   0  0  0  0  0  0  0  0  0  0  0  0
   12.8735  -11.7585  -20.1500 C   0  0  1  0  0  0  0  0  0  0  0  0
   11.8275  -12.7090  -20.3568 O   0  0  0  0  0  0  0  0  0  0  0  0
   13.6629  -11.5634  -21.4421 C   0  0  1  0  0  0  0  0  0  0  0  0
   13.8959  -12.8416  -22.0364 O   0  0  0  0  0  0  0  0  0  0  0  0
   12.6180  -10.8136  -22.2695 C   0  0  2  0  0  0  0  0  0  0  0  0
   17.8601   -5.4210  -18.0525 O   0  0  0  0  0  0  0  0  0  0  0  0
   16.1049   -7.1938  -23.4457 N   0  0  0  0  0  0  0  0  0  0  0  0
   15.8302   -7.7275  -22.2679 C   0  0  0  0  0  0  0  0  0  0  0  0
   14.9008   -8.6560  -22.1236 N   0  0  0  0  0  0  0  0  0  0  0  0
   14.2019   -9.0924  -23.1824 C   0  0  0  0  0  0  0  0  0  0  0  0
   14.4608   -8.5543  -24.4351 C   0  0  0  0  0  0  0  0  0  0  0  0
   15.4432   -7.5772  -24.5450 C   0  0  0  0  0  0  0  0  0  0  0  0
   15.6929   -7.0104  -25.7213 N   0  0  0  0  0  0  0  0  0  0  0  0
   13.6463   -9.1437  -25.3031 N   0  0  0  0  0  0  0  0  0  0  0  0
   12.9034  -10.0173  -24.6274 C   0  0  0  0  0  0  0  0  0  0  0  0
   13.2359   -9.9920  -23.3366 N   0  0  0  0  0  0  0  0  0  0  0  0
  2  1  1  6  0  0  0
  2  5  1  0  0  0  0
  2  3  1  0  0  0  0
  3 17  1  0  0  0  0
  3  4  1  0  0  0  0
  5  6  1  0  0  0  0
  7  8  1  0  0  0  0
  8  6  1  1  0  0  0
  8  9  1  0  0  0  0
 10  9  1  6  0  0  0
 10 11  1  0  0  0  0
 10 12  1  0  0  0  0
 11 16  1  0  0  0  0
 12 13  1  6  0  0  0
 12 14  1  0  0  0  0
 14 15  1  6  0  0  0
 14 16  1  0  0  0  0
 16 27  1  6  0  0  0
 18 23  2  0  0  0  0
 18 19  1  0  0  0  0
 19 20  2  0  0  0  0
 20 21  1  0  0  0  0
 21 22  2  0  0  0  0
 21 27  1  0  0  0  0
 22 23  1  0  0  0  0
 22 25  1  0  0  0  0
 23 24  1  0  0  0  0
 25 26  2  0  0  0  0
 26 27  1  0  0  0  0
M  END
>  <CHROM.1>
-60.05787794,122.31508883,-166.96254185,176.21805573,140.69883646,54.37423685
66.80474506,14.10770195,-8.49153610,-20.75328216,1.03062233,0.81433219,1.35590244

>  <Name>
ligand

>  <RI>
0

>  <Rbt.Current_Directory>
/home/itssahil/PROJECTS/Mol_Feturizer/New_Systems/rnas/3E5F

>  <Rbt.Executable>
rbdock ($Id: //depot/dev/client3/rdock/2013.1/src/exe/rbdock.cxx#4 $)

>  <Rbt.Library>
libRbt.so (2013.1, Build901 2013/11/27)

>  <Rbt.Parameter_File>
/export/apps/rDock/src/rDock_2013.1_src/data/scripts/dock_solv.prm

>  <Rbt.Receptor>
prm/pocket_docking_2.prm

>  <SCORE>
-14.8304

>  <SCORE.INTER>
-15.1904

>  <SCORE.INTER.CONST>
1

>  <SCORE.INTER.POLAR>
0

>  <SCORE.INTER.ROT>
7

>  <SCORE.INTER.SOLV>
20.3936

>  <SCORE.INTER.VDW>
-25.1915

>  <SCORE.INTER.norm>
-0.562609

>  <SCORE.INTRA>
0.360007

>  <SCORE.INTRA.DIHEDRAL>
-0.0198034

>  <SCORE.INTRA.DIHEDRAL.0>
4.89803

>  <SCORE.INTRA.POLAR>
0

>  <SCORE.INTRA.POLAR.0>
0

>  <SCORE.INTRA.REPUL>
0

>  <SCORE.INTRA.REPUL.0>
0

>  <SCORE.INTRA.SOLV>
0.761632

>  <SCORE.INTRA.SOLV.lig_0>
-48.5832

>  <SCORE.INTRA.VDW>
-0.0109077

>  <SCORE.INTRA.VDW.0>
-2.39056

>  <SCORE.INTRA.norm>
0.0133336

>  <SCORE.RESTR>
0

>  <SCORE.RESTR.CAVITY>
0

>  <SCORE.RESTR.norm>
0

>  <SCORE.SYSTEM>
0

>  <SCORE.SYSTEM.CONST>
0

>  <SCORE.SYSTEM.DIHEDRAL>
0

>  <SCORE.SYSTEM.SOLV>
0

>  <SCORE.SYSTEM.norm>
0

>  <SCORE.heavy>
27

>  <SCORE.norm>
-0.549276

>  <RMSD>
1.197

$$$$
ligand
 OpenBabel11021811473D
libRbt.so/2013.1/901 2013/11/27
 27 29  0  0  0  0  0  0  0  0999 V2000
   16.8792   -7.9322  -17.5297 N   0  0  0  0  0  0  0  0  0  0  0  0
   16.1473   -7.0208  -18.4217 C   0  0  2  0  0  0  0  0  0  0  0  0
   16.9401   -5.7235  -18.6076 C   0  0  0  0  0  0  0  0  0  0  0  0
   16.5913   -4.9756  -19.5470 O   0  0  0  0  0  0  0  0  0  0  0  0
   14.7915   -6.6971  -17.7919 C   0  0  0  0  0  0  0  0  0  0  0  0
   13.8628   -5.9716  -18.7689 C   0  0  0  0  0  0  0  0  0  0  0  0
   11.3344   -7.0166  -19.5339 C   0  0  0  0  0  0  0  0  0  0  0  0
   13.1175   -7.1615  -19.9868 Se  0  0  2  0  0  0  0  0  0  0  0  0
   13.5139   -8.8819  -19.4043 C   0  0  0  0  0  0  0  0  0  0  0  0
   12.4069   -9.8964  -19.6939 C   0  0  1  0  0  0  0  0  0  0  0  0
   11.9924   -9.7364  -21.0615 O   0  0  0  0  0  0  0  0  0  0  0  0
   13.0411  -11.2868  -19.6414 C   0  0  1  0  0  0  0  0  0  0  0  0
   12.0199  -12.2827  -19.7166 O   0  0  0  0  0  0  0  0  0  0  0  0
   13.8276  -11.2475  -20.9492 C   0  0  1  0  0  0  0  0  0  0  0  0
   14.0940  -12.5878  -21.3664 O   0  0  0  0  0  0  0  0  0  0  0  0
   12.7656  -10.6426  -21.8684 C   0  0  2  0  0  0  0  0  0  0  0  0
   17.8829   -5.5119  -17.8135 O   0  0  0  0  0  0  0  0  0  0  0  0
   16.1701   -7.1353  -23.5275 N   0  0  0  0  0  0  0  0  0  0  0  0
   15.9080   -7.5136  -22.2883 C   0  0  0  0  0  0  0  0  0  0  0  0
   14.9996   -8.4349  -22.0186 N   0  0  0  0  0  0  0  0  0  0  0  0
   14.3101   -9.0236  -23.0075 C   0  0  0  0  0  0  0  0  0  0  0  0
   14.5563   -8.6513  -24.3216 C   0  0  0  0  0  0  0  0  0  0  0  0
   15.5166   -7.6760  -24.5638 C   0  0  0  0  0  0  0  0  0  0  0  0
   15.7530   -7.2654  -25.8059 N   0  0  0  0  0  0  0  0  0  0  0  0
   13.7548   -9.3688  -25.1007 N   0  0  0  0  0  0  0  0  0  0  0  0
   13.0320  -10.1610  -24.3122 C   0  0  0  0  0  0  0  0  0  0  0  0
   13.3644   -9.9569  -23.0374 N   0  0  0  0  0  0  0  0  0  0  0  0
  2  1  1  1  0  0  0
  2  5  1  0  0  0  0
  2  3  1  0  0  0  0
  3 17  1  0  0  0  0
  3  4  1  0  0  0  0
  5  6  1  0  0  0  0
  7  8  1  0  0  0  0
  8  6  1  1  0  0  0
  8  9  1  0  0  0  0
 10  9  1  6  0  0  0
 10 11  1  0  0  0  0
 10 12  1  0  0  0  0
 11 16  1  0  0  0  0
 12 13  1  6  0  0  0
 12 14  1  0  0  0  0
 14 15  1  6  0  0  0
 14 16  1  0  0  0  0
 16 27  1  6  0  0  0
 18 23  2  0  0  0  0
 18 19  1  0  0  0  0
 19 20  2  0  0  0  0
 20 21  1  0  0  0  0
 21 22  2  0  0  0  0
 21 27  1  0  0  0  0
 22 23  1  0  0  0  0
 22 25  1  0  0  0  0
 23 24  1  0  0  0  0
 25 26  2  0  0  0  0
 26 27  1  0  0  0  0
M  END
>  <CHROM.1>
-169.21993985,165.38365910,77.71442125,116.04686921,145.30306337,47.42574062
67.03894617,14.18860434,-8.31076212,-20.86605201,0.98659359,0.87505263,1.29574917

>  <Name>
ligand

>  <RI>
0

>  <Rbt.Current_Directory>
/home/itssahil/PROJECTS/Mol_Feturizer/New_Systems/rnas/3E5F

>  <Rbt.Executable>
rbdock ($Id: //depot/dev/client3/rdock/2013.1/src/exe/rbdock.cxx#4 $)

>  <Rbt.Library>
libRbt.so (2013.1, Build901 2013/11/27)

>  <Rbt.Parameter_File>
/export/apps/rDock/src/rDock_2013.1_src/data/scripts/dock_solv.prm

>  <Rbt.Receptor>
prm/pocket_docking_2.prm

>  <SCORE>
-14.2824

>  <SCORE.INTER>
-16.3891

>  <SCORE.INTER.CONST>
1

>  <SCORE.INTER.POLAR>
0

>  <SCORE.INTER.ROT>
7

>  <SCORE.INTER.SOLV>
21.5928

>  <SCORE.INTER.VDW>
-26.3903

>  <SCORE.INTER.norm>
-0.607004

>  <SCORE.INTRA>
2.10676

>  <SCORE.INTRA.DIHEDRAL>
3.2697

>  <SCORE.INTRA.DIHEDRAL.0>
4.89803

>  <SCORE.INTRA.POLAR>
0

>  <SCORE.INTRA.POLAR.0>
0

>  <SCORE.INTRA.REPUL>
0

>  <SCORE.INTRA.REPUL.0>
0

>  <SCORE.INTRA.SOLV>
0.684426

>  <SCORE.INTRA.SOLV.lig_0>
-48.5832

>  <SCORE.INTRA.VDW>
0.129696

>  <SCORE.INTRA.VDW.0>
-2.39056

>  <SCORE.INTRA.norm>
0.0780282

>  <SCORE.RESTR>
0

>  <SCORE.RESTR.CAVITY>
0

>  <SCORE.RESTR.norm>
0

>  <SCORE.SYSTEM>
0

>  <SCORE.SYSTEM.CONST>
0

>  <SCORE.SYSTEM.DIHEDRAL>
0

>  <SCORE.SYSTEM.SOLV>
0

>  <SCORE.SYSTEM.norm>
0

>  <SCORE.heavy>
27

>  <SCORE.norm>
-0.528976

>  <RMSD>
1.198

$$$$
ligand
 OpenBabel11021811473D
libRbt.so/2013.1/901 2013/11/27
 27 29  0  0  0  0  0  0  0  0999 V2000
   15.0462   -4.9242  -16.6942 N   0  0  0  0  0  0  0  0  0  0  0  0
   15.5132   -6.3119  -16.8279 C   0  0  2  0  0  0  0  0  0  0  0  0
   16.8638   -6.3412  -17.5498 C   0  0  0  0  0  0  0  0  0  0  0  0
   17.1769   -5.3253  -18.2082 O   0  0  0  0  0  0  0  0  0  0  0  0
   14.4881   -7.1010  -17.6443 C   0  0  0  0  0  0  0  0  0  0  0  0
   14.3258   -6.5396  -19.0592 C   0  0  0  0  0  0  0  0  0  0  0  0
   11.5785   -7.2565  -19.1534 C   0  0  0  0  0  0  0  0  0  0  0  0
   13.1540   -7.5809  -20.0578 Se  0  0  2  0  0  0  0  0  0  0  0  0
   13.4760   -9.3598  -19.6244 C   0  0  0  0  0  0  0  0  0  0  0  0
   12.3368  -10.3014  -20.0171 C   0  0  1  0  0  0  0  0  0  0  0  0
   11.9231   -9.9780  -21.3557 O   0  0  0  0  0  0  0  0  0  0  0  0
   12.9272  -11.7079  -20.1232 C   0  0  1  0  0  0  0  0  0  0  0  0
   11.8750  -12.6574  -20.3014 O   0  0  0  0  0  0  0  0  0  0  0  0
   13.7103  -11.5481  -21.4239 C   0  0  1  0  0  0  0  0  0  0  0  0
   13.9332  -12.8413  -21.9887 O   0  0  0  0  0  0  0  0  0  0  0  0
   12.6648  -10.8125  -22.2632 C   0  0  2  0  0  0  0  0  0  0  0  0
   17.5494   -7.3811  -17.4361 O   0  0  0  0  0  0  0  0  0  0  0  0
   16.0826   -7.1578  -23.5306 N   0  0  0  0  0  0  0  0  0  0  0  0
   15.8005   -7.6496  -22.3364 C   0  0  0  0  0  0  0  0  0  0  0  0
   14.8916   -8.5944  -22.1691 N   0  0  0  0  0  0  0  0  0  0  0  0
   14.2221   -9.0910  -23.2203 C   0  0  0  0  0  0  0  0  0  0  0  0
   14.4896   -8.5983  -24.4898 C   0  0  0  0  0  0  0  0  0  0  0  0
   15.4497   -7.6022  -24.6238 C   0  0  0  0  0  0  0  0  0  0  0  0
   15.7061   -7.0780  -25.8183 N   0  0  0  0  0  0  0  0  0  0  0  0
   13.7049   -9.2430  -25.3460 N   0  0  0  0  0  0  0  0  0  0  0  0
   12.9719  -10.1065  -24.6471 C   0  0  0  0  0  0  0  0  0  0  0  0
   13.2811  -10.0201  -23.3531 N   0  0  0  0  0  0  0  0  0  0  0  0
  2  1  1  6  0  0  0
  2  5  1  0  0  0  0
  2  3  1  0  0  0  0
  3 17  1  0  0  0  0
  3  4  1  0  0  0  0
  5  6  1  0  0  0  0
  7  8  1  0  0  0  0
  8  6  1  1  0  0  0
  8  9  1  0  0  0  0
 10  9  1  6  0  0  0
 10 11  1  0  0  0  0
 10 12  1  0  0  0  0
 11 16  1  0  0  0  0
 12 13  1  6  0  0  0
 12 14  1  0  0  0  0
 14 15  1  6  0  0  0
 14 16  1  0  0  0  0
 16 27  1  6  0  0  0
 18 23  2  0  0  0  0
 18 19  1  0  0  0  0
 19 20  2  0  0  0  0
 20 21  1  0  0  0  0
 21 22  2  0  0  0  0
 21 27  1  0  0  0  0
 22 23  1  0  0  0  0
 22 25  1  0  0  0  0
 23 24  1  0  0  0  0
 25 26  2  0  0  0  0
 26 27  1  0  0  0  0
M  END
>  <CHROM.1>
61.63942692,-18.62211064,176.50451298,66.86235380,162.18782639,45.63929246
64.43706834,14.08861968,-8.49081496,-20.86207885,-1.11273500,-0.91369531
-1.81180734

>  <Name>
ligand

>  <RI>
0

>  <Rbt.Current_Directory>
/home/itssahil/PROJECTS/Mol_Feturizer/New_Systems/rnas/3E5F

>  <Rbt.Executable>
rbdock ($Id: //depot/dev/client3/rdock/2013.1/src/exe/rbdock.cxx#4 $)

>  <Rbt.Library>
libRbt.so (2013.1, Build901 2013/11/27)

>  <Rbt.Parameter_File>
/export/apps/rDock/src/rDock_2013.1_src/data/scripts/dock_solv.prm

>  <Rbt.Receptor>
prm/pocket_docking_2.prm

>  <SCORE>
-15.7675

>  <SCORE.INTER>
-15.7476

>  <SCORE.INTER.CONST>
1

>  <SCORE.INTER.POLAR>
0

>  <SCORE.INTER.ROT>
7

>  <SCORE.INTER.SOLV>
20.13

>  <SCORE.INTER.VDW>
-25.4751

>  <SCORE.INTER.norm>
-0.583245

>  <SCORE.INTRA>
-0.0208923

>  <SCORE.INTRA.DIHEDRAL>
-0.826109

>  <SCORE.INTRA.DIHEDRAL.0>
4.89803

>  <SCORE.INTRA.POLAR>
0

>  <SCORE.INTRA.POLAR.0>
0

>  <SCORE.INTRA.REPUL>
0

>  <SCORE.INTRA.REPUL.0>
0

>  <SCORE.INTRA.SOLV>
0.733123

>  <SCORE.INTRA.SOLV.lig_0>
-48.5832

>  <SCORE.INTRA.VDW>
0.0256006

>  <SCORE.INTRA.VDW.0>
-2.39056

>  <SCORE.INTRA.norm>
-0.000773791

>  <SCORE.RESTR>
0.000968126

>  <SCORE.RESTR.CAVITY>
0.000968126

>  <SCORE.RESTR.norm>
3.58565e-05

>  <SCORE.SYSTEM>
0

>  <SCORE.SYSTEM.CONST>
0

>  <SCORE.SYSTEM.DIHEDRAL>
0

>  <SCORE.SYSTEM.SOLV>
0

>  <SCORE.SYSTEM.norm>
0

>  <SCORE.heavy>
27

>  <SCORE.norm>
-0.583983

>  <RMSD>
1.232

$$$$
ligand
 OpenBabel11021811473D
libRbt.so/2013.1/901 2013/11/27
 27 29  0  0  0  0  0  0  0  0999 V2000
   17.7208   -5.7311  -20.1647 N   0  0  0  0  0  0  0  0  0  0  0  0
   16.8613   -5.1669  -19.1136 C   0  0  2  0  0  0  0  0  0  0  0  0
   17.4112   -5.5393  -17.7334 C   0  0  0  0  0  0  0  0  0  0  0  0
   16.8788   -4.9903  -16.7441 O   0  0  0  0  0  0  0  0  0  0  0  0
   15.4523   -5.7425  -19.2668 C   0  0  0  0  0  0  0  0  0  0  0  0
   15.4526   -7.2732  -19.2540 C   0  0  0  0  0  0  0  0  0  0  0  0
   13.0656   -7.8621  -17.8306 C   0  0  0  0  0  0  0  0  0  0  0  0
   13.7429   -7.9415  -19.5454 Se  0  0  2  0  0  0  0  0  0  0  0  0
   13.8945   -9.7762  -19.8042 C   0  0  0  0  0  0  0  0  0  0  0  0
   12.5700  -10.4568  -20.1523 C   0  0  1  0  0  0  0  0  0  0  0  0
   12.0818   -9.8950  -21.3826 O   0  0  0  0  0  0  0  0  0  0  0  0
   12.8844  -11.9147  -20.4900 C   0  0  1  0  0  0  0  0  0  0  0  0
   11.6663  -12.6457  -20.6386 O   0  0  0  0  0  0  0  0  0  0  0  0
   13.5415  -11.7147  -21.8534 C   0  0  1  0  0  0  0  0  0  0  0  0
   13.4681  -12.9405  -22.5838 O   0  0  0  0  0  0  0  0  0  0  0  0
   12.5619  -10.7123  -22.4650 C   0  0  2  0  0  0  0  0  0  0  0  0
   18.3573   -6.3565  -17.6973 O   0  0  0  0  0  0  0  0  0  0  0  0
   16.0995   -7.1367  -23.6245 N   0  0  0  0  0  0  0  0  0  0  0  0
   15.8173   -7.6719  -22.4492 C   0  0  0  0  0  0  0  0  0  0  0  0
   14.8749   -8.5879  -22.3092 N   0  0  0  0  0  0  0  0  0  0  0  0
   14.1699   -9.0094  -23.3700 C   0  0  0  0  0  0  0  0  0  0  0  0
   14.4365   -8.4692  -24.6202 C   0  0  0  0  0  0  0  0  0  0  0  0
   15.4326   -7.5056  -24.7256 C   0  0  0  0  0  0  0  0  0  0  0  0
   15.6904   -6.9370  -25.8993 N   0  0  0  0  0  0  0  0  0  0  0  0
   13.6137   -9.0431  -25.4909 N   0  0  0  0  0  0  0  0  0  0  0  0
   12.8586   -9.9092  -24.8193 C   0  0  0  0  0  0  0  0  0  0  0  0
   13.1913   -9.8946  -23.5284 N   0  0  0  0  0  0  0  0  0  0  0  0
  2  1  1  6  0  0  0
  2  5  1  0  0  0  0
  2  3  1  0  0  0  0
  3 17  1  0  0  0  0
  3  4  1  0  0  0  0
  5  6  1  0  0  0  0
  7  8  1  0  0  0  0
  8  6  1  1  0  0  0
  8  9  1  0  0  0  0
 10  9  1  6  0  0  0
 10 11  1  0  0  0  0
 10 12  1  0  0  0  0
 11 16  1  0  0  0  0
 12 13  1  6  0  0  0
 12 14  1  0  0  0  0
 14 15  1  6  0  0  0
 14 16  1  0  0  0  0
 16 27  1  6  0  0  0
 18 23  2  0  0  0  0
 18 19  1  0  0  0  0
 19 20  2  0  0  0  0
 20 21  1  0  0  0  0
 21 22  2  0  0  0  0
 21 27  1  0  0  0  0
 22 23  1  0  0  0  0
 22 25  1  0  0  0  0
 23 24  1  0  0  0  0
 25 26  2  0  0  0  0
 26 27  1  0  0  0  0
M  END
>  <CHROM.1>
55.35369786,171.33967826,-176.54362641,-83.85030154,-176.06547114,61.11092134
53.80551146,14.45250651,-8.47389214,-21.03589061,-0.77296869,-0.88672895
-1.67773945

>  <Name>
ligand

>  <RI>
0

>  <Rbt.Current_Directory>
/home/itssahil/PROJECTS/Mol_Feturizer/New_Systems/rnas/3E5F

>  <Rbt.Executable>
rbdock ($Id: //depot/dev/client3/rdock/2013.1/src/exe/rbdock.cxx#4 $)

>  <Rbt.Library>
libRbt.so (2013.1, Build901 2013/11/27)

>  <Rbt.Parameter_File>
/export/apps/rDock/src/rDock_2013.1_src/data/scripts/dock_solv.prm

>  <Rbt.Receptor>
prm/pocket_docking_3.prm

>  <SCORE>
-17.3863

>  <SCORE.INTER>
-16.6511

>  <SCORE.INTER.CONST>
1

>  <SCORE.INTER.POLAR>
0

>  <SCORE.INTER.ROT>
7

>  <SCORE.INTER.SOLV>
20.2416

>  <SCORE.INTER.VDW>
-26.1146

>  <SCORE.INTER.norm>
-0.616708

>  <SCORE.INTRA>
-0.735191

>  <SCORE.INTRA.DIHEDRAL>
-1.18982

>  <SCORE.INTRA.DIHEDRAL.0>
4.89803

>  <SCORE.INTRA.POLAR>
0

>  <SCORE.INTRA.POLAR.0>
0

>  <SCORE.INTRA.REPUL>
0

>  <SCORE.INTRA.REPUL.0>
0

>  <SCORE.INTRA.SOLV>
1.0003

>  <SCORE.INTRA.SOLV.lig_0>
-48.5832

>  <SCORE.INTRA.VDW>
-0.640432

>  <SCORE.INTRA.VDW.0>
-2.39056

>  <SCORE.INTRA.norm>
-0.0272293

>  <SCORE.RESTR>
0

>  <SCORE.RESTR.CAVITY>
0

>  <SCORE.RESTR.norm>
0

>  <SCORE.SYSTEM>
0

>  <SCORE.SYSTEM.CONST>
0

>  <SCORE.SYSTEM.DIHEDRAL>
0

>  <SCORE.SYSTEM.SOLV>
0

>  <SCORE.SYSTEM.norm>
0

>  <SCORE.heavy>
27

>  <SCORE.norm>
-0.643938

>  <RMSD>
1.242

$$$$
ligand
 OpenBabel11021811473D
libRbt.so/2013.1/901 2013/11/27
 27 29  0  0  0  0  0  0  0  0999 V2000
   17.6492   -6.0855  -19.9310 N   0  0  0  0  0  0  0  0  0  0  0  0
   16.4130   -6.3157  -19.1691 C   0  0  2  0  0  0  0  0  0  0  0  0
   16.2871   -7.8003  -18.8138 C   0  0  0  0  0  0  0  0  0  0  0  0
   16.5929   -8.6240  -19.7035 O   0  0  0  0  0  0  0  0  0  0  0  0
   15.2185   -5.9004  -20.0297 C   0  0  0  0  0  0  0  0  0  0  0  0
   13.8937   -6.0274  -19.2731 C   0  0  0  0  0  0  0  0  0  0  0  0
   11.2559   -7.0618  -19.0680 C   0  0  0  0  0  0  0  0  0  0  0  0
   12.7813   -7.2761  -20.0842 Se  0  0  2  0  0  0  0  0  0  0  0  0
   13.3517   -8.9639  -19.5533 C   0  0  0  0  0  0  0  0  0  0  0  0
   12.3243  -10.0667  -19.8118 C   0  0  1  0  0  0  0  0  0  0  0  0
   11.9062   -9.9832  -21.1851 O   0  0  0  0  0  0  0  0  0  0  0  0
   13.0594  -11.4038  -19.7112 C   0  0  1  0  0  0  0  0  0  0  0  0
   12.1150  -12.4746  -19.7559 O   0  0  0  0  0  0  0  0  0  0  0  0
   13.8475  -11.3496  -21.0176 C   0  0  1  0  0  0  0  0  0  0  0  0
   14.2144  -12.6795  -21.3891 O   0  0  0  0  0  0  0  0  0  0  0  0
   12.7484  -10.8558  -21.9592 C   0  0  2  0  0  0  0  0  0  0  0  0
   15.8793   -8.0797  -17.6649 O   0  0  0  0  0  0  0  0  0  0  0  0
   16.0726   -7.3307  -23.7391 N   0  0  0  0  0  0  0  0  0  0  0  0
   15.8577   -7.7108  -22.4914 C   0  0  0  0  0  0  0  0  0  0  0  0
   14.9644   -8.6368  -22.1893 N   0  0  0  0  0  0  0  0  0  0  0  0
   14.2423   -9.2285  -23.1529 C   0  0  0  0  0  0  0  0  0  0  0  0
   14.4387   -8.8545  -24.4748 C   0  0  0  0  0  0  0  0  0  0  0  0
   15.3846   -7.8743  -24.7513 C   0  0  0  0  0  0  0  0  0  0  0  0
   15.5736   -7.4621  -26.0009 N   0  0  0  0  0  0  0  0  0  0  0  0
   13.6129   -9.5758  -25.2246 N   0  0  0  0  0  0  0  0  0  0  0  0
   12.9233  -10.3719  -24.4109 C   0  0  0  0  0  0  0  0  0  0  0  0
   13.3009  -10.1666  -23.1489 N   0  0  0  0  0  0  0  0  0  0  0  0
  2  1  1  6  0  0  0
  2  5  1  0  0  0  0
  2  3  1  0  0  0  0
  3 17  1  0  0  0  0
  3  4  1  0  0  0  0
  5  6  1  0  0  0  0
  7  8  1  0  0  0  0
  8  6  1  1  0  0  0
  8  9  1  0  0  0  0
 10  9  1  6  0  0  0
 10 11  1  0  0  0  0
 10 12  1  0  0  0  0
 11 16  1  0  0  0  0
 12 13  1  6  0  0  0
 12 14  1  0  0  0  0
 14 15  1  6  0  0  0
 14 16  1  0  0  0  0
 16 27  1  6  0  0  0
 18 23  2  0  0  0  0
 18 19  1  0  0  0  0
 19 20  2  0  0  0  0
 20 21  1  0  0  0  0
 21 22  2  0  0  0  0
 21 27  1  0  0  0  0
 22 23  1  0  0  0  0
 22 25  1  0  0  0  0
 23 24  1  0  0  0  0
 25 26  2  0  0  0  0
 26 27  1  0  0  0  0
M  END
>  <CHROM.1>
-176.41507279,-41.68046156,-117.24176436,-174.39595680,163.94229059,51.55681314
72.01079435,14.04930716,-8.61382150,-21.13028387,-1.30371643,-0.89331367
-1.96369123

>  <Name>
ligand

>  <RI>
0

>  <Rbt.Current_Directory>
/home/itssahil/PROJECTS/Mol_Feturizer/New_Systems/rnas/3E5F

>  <Rbt.Executable>
rbdock ($Id: //depot/dev/client3/rdock/2013.1/src/exe/rbdock.cxx#4 $)

>  <Rbt.Library>
libRbt.so (2013.1, Build901 2013/11/27)

>  <Rbt.Parameter_File>
/export/apps/rDock/src/rDock_2013.1_src/data/scripts/dock_solv.prm

>  <Rbt.Receptor>
prm/pocket_docking_5.prm

>  <SCORE>
-17.3291

>  <SCORE.INTER>
-17.2397

>  <SCORE.INTER.CONST>
1

>  <SCORE.INTER.POLAR>
0

>  <SCORE.INTER.ROT>
7

>  <SCORE.INTER.SOLV>
19.7353

>  <SCORE.INTER.VDW>
-26.3382

>  <SCORE.INTER.norm>
-0.638507

>  <SCORE.INTRA>
-0.0894144

>  <SCORE.INTRA.DIHEDRAL>
4.13266

>  <SCORE.INTRA.DIHEDRAL.0>
4.89803

>  <SCORE.INTRA.POLAR>
0

>  <SCORE.INTRA.POLAR.0>
0

>  <SCORE.INTRA.REPUL>
0

>  <SCORE.INTRA.REPUL.0>
0

>  <SCORE.INTRA.SOLV>
0.338085

>  <SCORE.INTRA.SOLV.lig_0>
-48.5832

>  <SCORE.INTRA.VDW>
-2.32479

>  <SCORE.INTRA.VDW.0>
-2.39056

>  <SCORE.INTRA.norm>
-0.00331164

>  <SCORE.RESTR>
0

>  <SCORE.RESTR.CAVITY>
0

>  <SCORE.RESTR.norm>
0

>  <SCORE.SYSTEM>
0

>  <SCORE.SYSTEM.CONST>
0

>  <SCORE.SYSTEM.DIHEDRAL>
0

>  <SCORE.SYSTEM.SOLV>
0

>  <SCORE.SYSTEM.norm>
0

>  <SCORE.heavy>
27

>  <SCORE.norm>
-0.641818

>  <RMSD>
1.270

$$$$
ligand
 OpenBabel11021811473D
libRbt.so/2013.1/901 2013/11/27
 27 29  0  0  0  0  0  0  0  0999 V2000
   16.4869   -7.4086  -15.9670 N   0  0  0  0  0  0  0  0  0  0  0  0
   16.3865   -6.9849  -17.3714 C   0  0  2  0  0  0  0  0  0  0  0  0
   16.4798   -5.4588  -17.4644 C   0  0  0  0  0  0  0  0  0  0  0  0
   16.1001   -4.8058  -16.4680 O   0  0  0  0  0  0  0  0  0  0  0  0
   15.0377   -7.4423  -17.9295 C   0  0  0  0  0  0  0  0  0  0  0  0
   14.8230   -6.9720  -19.3703 C   0  0  0  0  0  0  0  0  0  0  0  0
   12.0222   -7.2558  -18.9891 C   0  0  0  0  0  0  0  0  0  0  0  0
   13.3552   -7.8181  -20.1348 Se  0  0  2  0  0  0  0  0  0  0  0  0
   13.4703   -9.6261  -19.7179 C   0  0  0  0  0  0  0  0  0  0  0  0
   12.2527  -10.4361  -20.1652 C   0  0  1  0  0  0  0  0  0  0  0  0
   11.8503   -9.9688  -21.4642 O   0  0  0  0  0  0  0  0  0  0  0  0
   12.7242  -11.8718  -20.3990 C   0  0  1  0  0  0  0  0  0  0  0  0
   11.5954  -12.7147  -20.6349 O   0  0  0  0  0  0  0  0  0  0  0  0
   13.5014  -11.6668  -21.6969 C   0  0  1  0  0  0  0  0  0  0  0  0
   13.6102  -12.9216  -22.3712 O   0  0  0  0  0  0  0  0  0  0  0  0
   12.5095  -10.7811  -22.4519 C   0  0  2  0  0  0  0  0  0  0  0  0
   16.9194   -4.9779  -18.5321 O   0  0  0  0  0  0  0  0  0  0  0  0
   16.1126   -7.2239  -23.4562 N   0  0  0  0  0  0  0  0  0  0  0  0
   15.7940   -7.7761  -22.2981 C   0  0  0  0  0  0  0  0  0  0  0  0
   14.8390   -8.6843  -22.1987 N   0  0  0  0  0  0  0  0  0  0  0  0
   14.1580   -9.0801  -23.2848 C   0  0  0  0  0  0  0  0  0  0  0  0
   14.4629   -8.5215  -24.5180 C   0  0  0  0  0  0  0  0  0  0  0  0
   15.4712   -7.5668  -24.5806 C   0  0  0  0  0  0  0  0  0  0  0  0
   15.7656   -6.9810  -25.7371 N   0  0  0  0  0  0  0  0  0  0  0  0
   13.6576   -9.0717  -25.4198 N   0  0  0  0  0  0  0  0  0  0  0  0
   12.8763   -9.9411  -24.7833 C   0  0  0  0  0  0  0  0  0  0  0  0
   13.1750   -9.9521  -23.4841 N   0  0  0  0  0  0  0  0  0  0  0  0
  2  1  1  1  0  0  0
  2  5  1  0  0  0  0
  2  3  1  0  0  0  0
  3 17  1  0  0  0  0
  3  4  1  0  0  0  0
  5  6  1  0  0  0  0
  7  8  1  0  0  0  0
  8  6  1  1  0  0  0
  8  9  1  0  0  0  0
 10  9  1  6  0  0  0
 10 11  1  0  0  0  0
 10 12  1  0  0  0  0
 11 16  1  0  0  0  0
 12 13  1  6  0  0  0
 12 14  1  0  0  0  0
 14 15  1  6  0  0  0
 14 16  1  0  0  0  0
 16 27  1  6  0  0  0
 18 23  2  0  0  0  0
 18 19  1  0  0  0  0
 19 20  2  0  0  0  0
 20 21  1  0  0  0  0
 21 22  2  0  0  0  0
 21 27  1  0  0  0  0
 22 23  1  0  0  0  0
 22 25  1  0  0  0  0
 23 24  1  0  0  0  0
 25 26  2  0  0  0  0
 26 27  1  0  0  0  0
M  END
>  <CHROM.1>
176.89790799,-27.31326077,168.51096512,60.49908472,174.31566089,40.43284866
61.77341115,14.12021375,-8.54137803,-20.92253043,0.98572004,0.94311537,1.42918333

>  <Name>
ligand

>  <RI>
0

>  <Rbt.Current_Directory>
/home/itssahil/PROJECTS/Mol_Feturizer/New_Systems/rnas/3E5F

>  <Rbt.Executable>
rbdock ($Id: //depot/dev/client3/rdock/2013.1/src/exe/rbdock.cxx#4 $)

>  <Rbt.Library>
libRbt.so (2013.1, Build901 2013/11/27)

>  <Rbt.Parameter_File>
/export/apps/rDock/src/rDock_2013.1_src/data/scripts/dock_solv.prm

>  <Rbt.Receptor>
prm/pocket_docking_2.prm

>  <SCORE>
-16.8216

>  <SCORE.INTER>
-16.455

>  <SCORE.INTER.CONST>
1

>  <SCORE.INTER.POLAR>
0

>  <SCORE.INTER.ROT>
7

>  <SCORE.INTER.SOLV>
18.8801

>  <SCORE.INTER.VDW>
-25.53

>  <SCORE.INTER.norm>
-0.609444

>  <SCORE.INTRA>
-0.366669

>  <SCORE.INTRA.DIHEDRAL>
-0.185215

>  <SCORE.INTRA.DIHEDRAL.0>
4.89803

>  <SCORE.INTRA.POLAR>
0

>  <SCORE.INTRA.POLAR.0>
0

>  <SCORE.INTRA.REPUL>
0

>  <SCORE.INTRA.REPUL.0>
0

>  <SCORE.INTRA.SOLV>
0.0271531

>  <SCORE.INTRA.SOLV.lig_0>
-48.5832

>  <SCORE.INTRA.VDW>
-0.287638

>  <SCORE.INTRA.VDW.0>
-2.39056

>  <SCORE.INTRA.norm>
-0.0135803

>  <SCORE.RESTR>
9.95771e-05

>  <SCORE.RESTR.CAVITY>
9.95771e-05

>  <SCORE.RESTR.norm>
3.68804e-06

>  <SCORE.SYSTEM>
0

>  <SCORE.SYSTEM.CONST>
0

>  <SCORE.SYSTEM.DIHEDRAL>
0

>  <SCORE.SYSTEM.SOLV>
0

>  <SCORE.SYSTEM.norm>
0

>  <SCORE.heavy>
27

>  <SCORE.norm>
-0.623021

>  <RMSD>
1.285

$$$$
ligand
 OpenBabel11021811473D
libRbt.so/2013.1/901 2013/11/27
 27 29  0  0  0  0  0  0  0  0999 V2000
   15.2708   -6.7717  -16.8859 N   0  0  0  0  0  0  0  0  0  0  0  0
   15.5812   -7.1627  -18.2688 C   0  0  2  0  0  0  0  0  0  0  0  0
   17.0871   -7.3992  -18.4193 C   0  0  0  0  0  0  0  0  0  0  0  0
   17.7557   -7.4838  -17.3660 O   0  0  0  0  0  0  0  0  0  0  0  0
   15.1518   -6.0348  -19.2087 C   0  0  0  0  0  0  0  0  0  0  0  0
   13.6414   -5.7905  -19.1602 C   0  0  0  0  0  0  0  0  0  0  0  0
   11.0466   -6.9162  -19.4258 C   0  0  0  0  0  0  0  0  0  0  0  0
   12.7296   -7.0572  -20.1696 Se  0  0  2  0  0  0  0  0  0  0  0  0
   13.2625   -8.7365  -19.5761 C   0  0  0  0  0  0  0  0  0  0  0  0
   12.2303   -9.8341  -19.8377 C   0  0  1  0  0  0  0  0  0  0  0  0
   11.8526   -9.7794  -21.2241 O   0  0  0  0  0  0  0  0  0  0  0  0
   12.9468  -11.1762  -19.6841 C   0  0  1  0  0  0  0  0  0  0  0  0
   11.9919  -12.2375  -19.7304 O   0  0  0  0  0  0  0  0  0  0  0  0
   13.7726  -11.1622  -20.9680 C   0  0  1  0  0  0  0  0  0  0  0  0
   14.1347  -12.5045  -21.2969 O   0  0  0  0  0  0  0  0  0  0  0  0
   12.7065  -10.6795  -21.9525 C   0  0  2  0  0  0  0  0  0  0  0  0
   17.5386   -7.4808  -19.5828 O   0  0  0  0  0  0  0  0  0  0  0  0
   16.1610   -7.2769  -23.7225 N   0  0  0  0  0  0  0  0  0  0  0  0
   15.9118   -7.6305  -22.4734 C   0  0  0  0  0  0  0  0  0  0  0  0
   14.9874   -8.5265  -22.1743 N   0  0  0  0  0  0  0  0  0  0  0  0
   14.2677   -9.1137  -23.1423 C   0  0  0  0  0  0  0  0  0  0  0  0
   14.4997   -8.7669  -24.4659 C   0  0  0  0  0  0  0  0  0  0  0  0
   15.4776   -7.8178  -24.7392 C   0  0  0  0  0  0  0  0  0  0  0  0
   15.7019   -7.4313  -25.9913 N   0  0  0  0  0  0  0  0  0  0  0  0
   13.6686   -9.4773  -25.2202 N   0  0  0  0  0  0  0  0  0  0  0  0
   12.9417  -10.2407  -24.4077 C   0  0  0  0  0  0  0  0  0  0  0  0
   13.3006  -10.0253  -23.1419 N   0  0  0  0  0  0  0  0  0  0  0  0
  2  1  1  1  0  0  0
  2  5  1  0  0  0  0
  2  3  1  0  0  0  0
  3 17  1  0  0  0  0
  3  4  1  0  0  0  0
  5  6  1  0  0  0  0
  7  8  1  0  0  0  0
  8  6  1  1  0  0  0
  8  9  1  0  0  0  0
 10  9  1  6  0  0  0
 10 11  1  0  0  0  0
 10 12  1  0  0  0  0
 11 16  1  0  0  0  0
 12 13  1  6  0  0  0
 12 14  1  0  0  0  0
 14 15  1  6  0  0  0
 14 16  1  0  0  0  0
 16 27  1  6  0  0  0
 18 23  2  0  0  0  0
 18 19  1  0  0  0  0
 19 20  2  0  0  0  0
 20 21  1  0  0  0  0
 21 22  2  0  0  0  0
 21 27  1  0  0  0  0
 22 23  1  0  0  0  0
 22 25  1  0  0  0  0
 23 24  1  0  0  0  0
 25 26  2  0  0  0  0
 26 27  1  0  0  0  0
M  END
>  <CHROM.1>
-62.76257449,13.12442197,-78.97938893,159.63917966,155.08705525,51.32689338
73.19595476,14.04132908,-8.45734237,-20.97050345,-1.30280615,-0.73583407
-1.86101040

>  <Name>
ligand

>  <RI>
0

>  <Rbt.Current_Directory>
/home/itssahil/PROJECTS/Mol_Feturizer/New_Systems/rnas/3E5F

>  <Rbt.Executable>
rbdock ($Id: //depot/dev/client3/rdock/2013.1/src/exe/rbdock.cxx#4 $)

>  <Rbt.Library>
libRbt.so (2013.1, Build901 2013/11/27)

>  <Rbt.Parameter_File>
/export/apps/rDock/src/rDock_2013.1_src/data/scripts/dock_solv.prm

>  <Rbt.Receptor>
prm/pocket_docking_2.prm

>  <SCORE>
-15.4073

>  <SCORE.INTER>
-15.845

>  <SCORE.INTER.CONST>
1

>  <SCORE.INTER.POLAR>
0

>  <SCORE.INTER.ROT>
7

>  <SCORE.INTER.SOLV>
18.775

>  <SCORE.INTER.VDW>
-25.0883

>  <SCORE.INTER.norm>
-0.586852

>  <SCORE.INTRA>
0.437748

>  <SCORE.INTRA.DIHEDRAL>
0.24942

>  <SCORE.INTRA.DIHEDRAL.0>
4.89803

>  <SCORE.INTRA.POLAR>
0

>  <SCORE.INTRA.POLAR.0>
0

>  <SCORE.INTRA.REPUL>
0

>  <SCORE.INTRA.REPUL.0>
0

>  <SCORE.INTRA.SOLV>
1.38606

>  <SCORE.INTRA.SOLV.lig_0>
-48.5832

>  <SCORE.INTRA.VDW>
-0.379991

>  <SCORE.INTRA.VDW.0>
-2.39056

>  <SCORE.INTRA.norm>
0.0162129

>  <SCORE.RESTR>
0

>  <SCORE.RESTR.CAVITY>
0

>  <SCORE.RESTR.norm>
0

>  <SCORE.SYSTEM>
0

>  <SCORE.SYSTEM.CONST>
0

>  <SCORE.SYSTEM.DIHEDRAL>
0

>  <SCORE.SYSTEM.SOLV>
0

>  <SCORE.SYSTEM.norm>
0

>  <SCORE.heavy>
27

>  <SCORE.norm>
-0.570639

>  <RMSD>
1.316

$$$$
ligand
 OpenBabel11021811473D
libRbt.so/2013.1/901 2013/11/27
 27 29  0  0  0  0  0  0  0  0999 V2000
   13.7273   -4.9292  -17.8819 N   0  0  0  0  0  0  0  0  0  0  0  0
   14.0860   -6.3265  -18.1661 C   0  0  2  0  0  0  0  0  0  0  0  0
   15.3968   -6.6836  -17.4587 C   0  0  0  0  0  0  0  0  0  0  0  0
   15.5349   -7.8690  -17.0853 O   0  0  0  0  0  0  0  0  0  0  0  0
   14.2667   -6.4922  -19.6760 C   0  0  0  0  0  0  0  0  0  0  0  0
   13.0061   -6.1016  -20.4517 C   0  0  0  0  0  0  0  0  0  0  0  0
   10.9572   -6.8348  -18.6255 C   0  0  0  0  0  0  0  0  0  0  0  0
   11.6714   -7.3774  -20.2383 Se  0  0  2  0  0  0  0  0  0  0  0  0
   12.4942   -8.9760  -19.7653 C   0  0  0  0  0  0  0  0  0  0  0  0
   11.6733  -10.2159  -20.1220 C   0  0  1  0  0  0  0  0  0  0  0  0
   11.4305  -10.2060  -21.5393 O   0  0  0  0  0  0  0  0  0  0  0  0
   12.5682  -11.4341  -19.8907 C   0  0  1  0  0  0  0  0  0  0  0  0
   11.7963  -12.6284  -20.0257 O   0  0  0  0  0  0  0  0  0  0  0  0
   13.5048  -11.2813  -21.0865 C   0  0  1  0  0  0  0  0  0  0  0  0
   14.0990  -12.5492  -21.3706 O   0  0  0  0  0  0  0  0  0  0  0  0
   12.4800  -10.9577  -22.1745 C   0  0  2  0  0  0  0  0  0  0  0  0
   16.2279   -5.7628  -17.2980 O   0  0  0  0  0  0  0  0  0  0  0  0
   15.9548   -7.4332  -23.6402 N   0  0  0  0  0  0  0  0  0  0  0  0
   15.6991   -7.8891  -22.4260 C   0  0  0  0  0  0  0  0  0  0  0  0
   14.7701   -8.8031  -22.2065 N   0  0  0  0  0  0  0  0  0  0  0  0
   14.0521   -9.3043  -23.2230 C   0  0  0  0  0  0  0  0  0  0  0  0
   14.2909   -8.8488  -24.5120 C   0  0  0  0  0  0  0  0  0  0  0  0
   15.2736   -7.8843  -24.7012 C   0  0  0  0  0  0  0  0  0  0  0  0
   15.5046   -7.3953  -25.9156 N   0  0  0  0  0  0  0  0  0  0  0  0
   13.4603   -9.4901  -25.3264 N   0  0  0  0  0  0  0  0  0  0  0  0
   12.7270  -10.3158  -24.5834 C   0  0  0  0  0  0  0  0  0  0  0  0
   13.0815  -10.2087  -23.3027 N   0  0  0  0  0  0  0  0  0  0  0  0
  2  1  1  6  0  0  0
  2  5  1  0  0  0  0
  2  3  1  0  0  0  0
  3 17  1  0  0  0  0
  3  4  1  0  0  0  0
  5  6  1  0  0  0  0
  7  8  1  0  0  0  0
  8  6  1  1  0  0  0
  8  9  1  0  0  0  0
 10  9  1  6  0  0  0
 10 11  1  0  0  0  0
 10 12  1  0  0  0  0
 11 16  1  0  0  0  0
 12 13  1  6  0  0  0
 12 14  1  0  0  0  0
 14 15  1  6  0  0  0
 14 16  1  0  0  0  0
 16 27  1  6  0  0  0
 18 23  2  0  0  0  0
 18 19  1  0  0  0  0
 19 20  2  0  0  0  0
 20 21  1  0  0  0  0
 21 22  2  0  0  0  0
 21 27  1  0  0  0  0
 22 23  1  0  0  0  0
 22 25  1  0  0  0  0
 23 24  1  0  0  0  0
 25 26  2  0  0  0  0
 26 27  1  0  0  0  0
M  END
>  <CHROM.1>
-57.88642869,148.64164559,-72.64464509,82.98439075,-155.41771903,58.26831773
84.75614001,13.37510078,-8.49224957,-20.98674794,-1.55955658,-0.91317643
-2.12364658

>  <Name>
ligand

>  <RI>
0

>  <Rbt.Current_Directory>
/home/itssahil/PROJECTS/Mol_Feturizer/New_Systems/rnas/3E5F

>  <Rbt.Executable>
rbdock ($Id: //depot/dev/client3/rdock/2013.1/src/exe/rbdock.cxx#4 $)

>  <Rbt.Library>
libRbt.so (2013.1, Build901 2013/11/27)

>  <Rbt.Parameter_File>
/export/apps/rDock/src/rDock_2013.1_src/data/scripts/dock_solv.prm

>  <Rbt.Receptor>
prm/pocket_docking_2.prm

>  <SCORE>
-15.0975

>  <SCORE.INTER>
-16.0888

>  <SCORE.INTER.CONST>
1

>  <SCORE.INTER.POLAR>
0

>  <SCORE.INTER.ROT>
7

>  <SCORE.INTER.SOLV>
18.3264

>  <SCORE.INTER.VDW>
-25.1013

>  <SCORE.INTER.norm>
-0.595882

>  <SCORE.INTRA>
0.991297

>  <SCORE.INTRA.DIHEDRAL>
1.01307

>  <SCORE.INTRA.DIHEDRAL.0>
4.89803

>  <SCORE.INTRA.POLAR>
0

>  <SCORE.INTRA.POLAR.0>
0

>  <SCORE.INTRA.REPUL>
0

>  <SCORE.INTRA.REPUL.0>
0

>  <SCORE.INTRA.SOLV>
1.8216

>  <SCORE.INTRA.SOLV.lig_0>
-48.5832

>  <SCORE.INTRA.VDW>
-0.42604

>  <SCORE.INTRA.VDW.0>
-2.39056

>  <SCORE.INTRA.norm>
0.0367147

>  <SCORE.RESTR>
0

>  <SCORE.RESTR.CAVITY>
0

>  <SCORE.RESTR.norm>
0

>  <SCORE.SYSTEM>
0

>  <SCORE.SYSTEM.CONST>
0

>  <SCORE.SYSTEM.DIHEDRAL>
0

>  <SCORE.SYSTEM.SOLV>
0

>  <SCORE.SYSTEM.norm>
0

>  <SCORE.heavy>
27

>  <SCORE.norm>
-0.559167

>  <RMSD>
1.322

$$$$
ligand
 OpenBabel11021811473D
libRbt.so/2013.1/901 2013/11/27
 27 29  0  0  0  0  0  0  0  0999 V2000
   15.5251   -5.7478  -20.1324 N   0  0  0  0  0  0  0  0  0  0  0  0
   15.8893   -5.5913  -18.7165 C   0  0  2  0  0  0  0  0  0  0  0  0
   17.4131   -5.6184  -18.5630 C   0  0  0  0  0  0  0  0  0  0  0  0
   18.0901   -5.5233  -19.6099 O   0  0  0  0  0  0  0  0  0  0  0  0
   15.2818   -6.7474  -17.9201 C   0  0  0  0  0  0  0  0  0  0  0  0
   13.7515   -6.7278  -17.9557 C   0  0  0  0  0  0  0  0  0  0  0  0
   11.3106   -7.5472  -19.1561 C   0  0  0  0  0  0  0  0  0  0  0  0
   13.1133   -7.4591  -19.5408 Se  0  0  2  0  0  0  0  0  0  0  0  0
   13.5818   -9.2581  -19.5570 C   0  0  0  0  0  0  0  0  0  0  0  0
   12.4220  -10.1894  -19.9122 C   0  0  1  0  0  0  0  0  0  0  0  0
   11.9818   -9.8766  -21.2448 O   0  0  0  0  0  0  0  0  0  0  0  0
   12.9921  -11.6046  -20.0146 C   0  0  1  0  0  0  0  0  0  0  0  0
   11.9241  -12.5424  -20.1572 O   0  0  0  0  0  0  0  0  0  0  0  0
   13.7470  -11.4704  -21.3347 C   0  0  1  0  0  0  0  0  0  0  0  0
   13.9405  -12.7730  -21.8887 O   0  0  0  0  0  0  0  0  0  0  0  0
   12.6919  -10.7313  -22.1588 C   0  0  2  0  0  0  0  0  0  0  0  0
   17.8679   -5.7432  -17.4046 O   0  0  0  0  0  0  0  0  0  0  0  0
   16.1518   -7.1633  -23.5527 N   0  0  0  0  0  0  0  0  0  0  0  0
   15.8946   -7.6412  -22.3473 C   0  0  0  0  0  0  0  0  0  0  0  0
   14.9700   -8.5640  -22.1465 N   0  0  0  0  0  0  0  0  0  0  0  0
   14.2582   -9.0517  -23.1738 C   0  0  0  0  0  0  0  0  0  0  0  0
   14.4986   -8.5730  -24.4540 C   0  0  0  0  0  0  0  0  0  0  0  0
   15.4765   -7.6000  -24.6235 C   0  0  0  0  0  0  0  0  0  0  0  0
   15.7087   -7.0892  -25.8287 N   0  0  0  0  0  0  0  0  0  0  0  0
   13.6742   -9.2050  -25.2820 N   0  0  0  0  0  0  0  0  0  0  0  0
   12.9432  -10.0472  -24.5556 C   0  0  0  0  0  0  0  0  0  0  0  0
   13.2929   -9.9599  -23.2721 N   0  0  0  0  0  0  0  0  0  0  0  0
  2  1  1  6  0  0  0
  2  5  1  0  0  0  0
  2  3  1  0  0  0  0
  3 17  1  0  0  0  0
  3  4  1  0  0  0  0
  5  6  1  0  0  0  0
  7  8  1  0  0  0  0
  8  6  1  1  0  0  0
  8  9  1  0  0  0  0
 10  9  1  6  0  0  0
 10 11  1  0  0  0  0
 10 12  1  0  0  0  0
 11 16  1  0  0  0  0
 12 13  1  6  0  0  0
 12 14  1  0  0  0  0
 14 15  1  6  0  0  0
 14 16  1  0  0  0  0
 16 27  1  6  0  0  0
 18 23  2  0  0  0  0
 18 19  1  0  0  0  0
 19 20  2  0  0  0  0
 20 21  1  0  0  0  0
 21 22  2  0  0  0  0
 21 27  1  0  0  0  0
 22 23  1  0  0  0  0
 22 25  1  0  0  0  0
 23 24  1  0  0  0  0
 25 26  2  0  0  0  0
 26 27  1  0  0  0  0
M  END
>  <CHROM.1>
-63.63712899,12.29312313,80.38028247,171.05928730,131.35985993,62.20272949
65.20035186,14.18775258,-8.37379809,-20.95049123,-0.93495162,-0.82400790
-1.89909637

>  <Name>
ligand

>  <RI>
0

>  <Rbt.Current_Directory>
/home/itssahil/PROJECTS/Mol_Feturizer/New_Systems/rnas/3E5F

>  <Rbt.Executable>
rbdock ($Id: //depot/dev/client3/rdock/2013.1/src/exe/rbdock.cxx#4 $)

>  <Rbt.Library>
libRbt.so (2013.1, Build901 2013/11/27)

>  <Rbt.Parameter_File>
/export/apps/rDock/src/rDock_2013.1_src/data/scripts/dock_solv.prm

>  <Rbt.Receptor>
prm/pocket_docking_2.prm

>  <SCORE>
-14.748

>  <SCORE.INTER>
-17.056

>  <SCORE.INTER.CONST>
1

>  <SCORE.INTER.POLAR>
0

>  <SCORE.INTER.ROT>
7

>  <SCORE.INTER.SOLV>
19.1002

>  <SCORE.INTER.VDW>
-26.004

>  <SCORE.INTER.norm>
-0.631702

>  <SCORE.INTRA>
2.29799

>  <SCORE.INTRA.DIHEDRAL>
1.27538

>  <SCORE.INTRA.DIHEDRAL.0>
4.89803

>  <SCORE.INTRA.POLAR>
0

>  <SCORE.INTRA.POLAR.0>
0

>  <SCORE.INTRA.REPUL>
0

>  <SCORE.INTRA.REPUL.0>
0

>  <SCORE.INTRA.SOLV>
2.79727

>  <SCORE.INTRA.SOLV.lig_0>
-48.5832

>  <SCORE.INTRA.VDW>
0.261669

>  <SCORE.INTRA.VDW.0>
-2.39056

>  <SCORE.INTRA.norm>
0.0851109

>  <SCORE.RESTR>
0.00992224

>  <SCORE.RESTR.CAVITY>
0.00992224

>  <SCORE.RESTR.norm>
0.00036749

>  <SCORE.SYSTEM>
0

>  <SCORE.SYSTEM.CONST>
0

>  <SCORE.SYSTEM.DIHEDRAL>
0

>  <SCORE.SYSTEM.SOLV>
0

>  <SCORE.SYSTEM.norm>
0

>  <SCORE.heavy>
27

>  <SCORE.norm>
-0.546224

>  <RMSD>
1.342

$$$$
ligand
 OpenBabel11021811473D
libRbt.so/2013.1/901 2013/11/27
 27 29  0  0  0  0  0  0  0  0999 V2000
   16.0903   -5.1316  -17.1454 N   0  0  0  0  0  0  0  0  0  0  0  0
   16.3744   -6.5630  -17.3250 C   0  0  2  0  0  0  0  0  0  0  0  0
   17.5533   -6.7450  -18.2860 C   0  0  0  0  0  0  0  0  0  0  0  0
   18.0479   -5.7079  -18.7792 O   0  0  0  0  0  0  0  0  0  0  0  0
   15.1359   -7.2418  -17.9125 C   0  0  0  0  0  0  0  0  0  0  0  0
   14.7480   -6.6527  -19.2712 C   0  0  0  0  0  0  0  0  0  0  0  0
   11.9914   -7.1969  -18.8521 C   0  0  0  0  0  0  0  0  0  0  0  0
   13.3475   -7.6066  -20.0348 Se  0  0  2  0  0  0  0  0  0  0  0  0
   13.6314   -9.4074  -19.6707 C   0  0  0  0  0  0  0  0  0  0  0  0
   12.4457  -10.3006  -20.0383 C   0  0  1  0  0  0  0  0  0  0  0  0
   11.9931   -9.9339  -21.3530 O   0  0  0  0  0  0  0  0  0  0  0  0
   12.9821  -11.7239  -20.1962 C   0  0  1  0  0  0  0  0  0  0  0  0
   11.8912  -12.6326  -20.3530 O   0  0  0  0  0  0  0  0  0  0  0  0
   13.7202  -11.5624  -21.5227 C   0  0  1  0  0  0  0  0  0  0  0  0
   13.8760  -12.8499  -22.1223 O   0  0  0  0  0  0  0  0  0  0  0  0
   12.6700  -10.7733  -22.3056 C   0  0  2  0  0  0  0  0  0  0  0  0
   17.9282   -7.9162  -18.5141 O   0  0  0  0  0  0  0  0  0  0  0  0
   16.0830   -7.1281  -23.6130 N   0  0  0  0  0  0  0  0  0  0  0  0
   15.8184   -7.6241  -22.4165 C   0  0  0  0  0  0  0  0  0  0  0  0
   14.9080   -8.5655  -22.2384 N   0  0  0  0  0  0  0  0  0  0  0  0
   14.2190   -9.0544  -23.2806 C   0  0  0  0  0  0  0  0  0  0  0  0
   14.4678   -8.5571  -24.5521 C   0  0  0  0  0  0  0  0  0  0  0  0
   15.4301   -7.5648  -24.6976 C   0  0  0  0  0  0  0  0  0  0  0  0
   15.6691   -7.0364  -25.8938 N   0  0  0  0  0  0  0  0  0  0  0  0
   13.6662   -9.1944  -25.3981 N   0  0  0  0  0  0  0  0  0  0  0  0
   12.9409  -10.0578  -24.6910 C   0  0  0  0  0  0  0  0  0  0  0  0
   13.2718   -9.9787  -23.4020 N   0  0  0  0  0  0  0  0  0  0  0  0
  2  1  1  6  0  0  0
  2  5  1  0  0  0  0
  2  3  1  0  0  0  0
  3 17  1  0  0  0  0
  3  4  1  0  0  0  0
  5  6  1  0  0  0  0
  7  8  1  0  0  0  0
  8  6  1  1  0  0  0
  8  9  1  0  0  0  0
 10  9  1  6  0  0  0
 10 11  1  0  0  0  0
 10 12  1  0  0  0  0
 11 16  1  0  0  0  0
 12 13  1  6  0  0  0
 12 14  1  0  0  0  0
 14 15  1  6  0  0  0
 14 16  1  0  0  0  0
 16 27  1  6  0  0  0
 18 23  2  0  0  0  0
 18 19  1  0  0  0  0
 19 20  2  0  0  0  0
 20 21  1  0  0  0  0
 21 22  2  0  0  0  0
 21 27  1  0  0  0  0
 22 23  1  0  0  0  0
 22 25  1  0  0  0  0
 23 24  1  0  0  0  0
 25 26  2  0  0  0  0
 26 27  1  0  0  0  0
M  END
>  <CHROM.1>
60.18792917,-1.92429818,174.36754838,66.91704661,170.60172555,46.36784695
62.09261468,14.30342786,-8.54807889,-21.00727132,-0.92201042,-0.84798119
-1.71643888

>  <Name>
ligand

>  <RI>
0

>  <Rbt.Current_Directory>
/home/itssahil/PROJECTS/Mol_Feturizer/New_Systems/rnas/3E5F

>  <Rbt.Executable>
rbdock ($Id: //depot/dev/client3/rdock/2013.1/src/exe/rbdock.cxx#4 $)

>  <Rbt.Library>
libRbt.so (2013.1, Build901 2013/11/27)

>  <Rbt.Parameter_File>
/export/apps/rDock/src/rDock_2013.1_src/data/scripts/dock_solv.prm

>  <Rbt.Receptor>
prm/pocket_docking_2.prm

>  <SCORE>
-15.863

>  <SCORE.INTER>
-15.6508

>  <SCORE.INTER.CONST>
1

>  <SCORE.INTER.POLAR>
0

>  <SCORE.INTER.ROT>
7

>  <SCORE.INTER.SOLV>
21.5621

>  <SCORE.INTER.VDW>
-25.8879

>  <SCORE.INTER.norm>
-0.579659

>  <SCORE.INTRA>
-0.212154

>  <SCORE.INTRA.DIHEDRAL>
-0.955474

>  <SCORE.INTRA.DIHEDRAL.0>
4.89803

>  <SCORE.INTRA.POLAR>
0

>  <SCORE.INTRA.POLAR.0>
0

>  <SCORE.INTRA.REPUL>
0

>  <SCORE.INTRA.REPUL.0>
0

>  <SCORE.INTRA.SOLV>
0.733627

>  <SCORE.INTRA.SOLV.lig_0>
-48.5832

>  <SCORE.INTRA.VDW>
-0.101231

>  <SCORE.INTRA.VDW.0>
-2.39056

>  <SCORE.INTRA.norm>
-0.00785757

>  <SCORE.RESTR>
0

>  <SCORE.RESTR.CAVITY>
0

>  <SCORE.RESTR.norm>
0

>  <SCORE.SYSTEM>
0

>  <SCORE.SYSTEM.CONST>
0

>  <SCORE.SYSTEM.DIHEDRAL>
0

>  <SCORE.SYSTEM.SOLV>
0

>  <SCORE.SYSTEM.norm>
0

>  <SCORE.heavy>
27

>  <SCORE.norm>
-0.587517

>  <RMSD>
1.354

$$$$
ligand
 OpenBabel11021811473D
libRbt.so/2013.1/901 2013/11/27
 27 29  0  0  0  0  0  0  0  0999 V2000
   15.3331   -4.9114  -19.0194 N   0  0  0  0  0  0  0  0  0  0  0  0
   14.8082   -5.9560  -18.1277 C   0  0  2  0  0  0  0  0  0  0  0  0
   15.4808   -7.2961  -18.4404 C   0  0  0  0  0  0  0  0  0  0  0  0
   15.5668   -7.6198  -19.6452 O   0  0  0  0  0  0  0  0  0  0  0  0
   13.3005   -6.0842  -18.3520 C   0  0  0  0  0  0  0  0  0  0  0  0
   12.9406   -6.1022  -19.8398 C   0  0  0  0  0  0  0  0  0  0  0  0
   10.5315   -7.1795  -18.7883 C   0  0  0  0  0  0  0  0  0  0  0  0
   11.6876   -7.4254  -20.2054 Se  0  0  2  0  0  0  0  0  0  0  0  0
   12.4600   -9.0620  -19.7797 C   0  0  0  0  0  0  0  0  0  0  0  0
   11.6110  -10.2653  -20.1921 C   0  0  1  0  0  0  0  0  0  0  0  0
   11.3820  -10.1934  -21.6098 O   0  0  0  0  0  0  0  0  0  0  0  0
   12.4722  -11.5144  -20.0016 C   0  0  1  0  0  0  0  0  0  0  0  0
   11.6713  -12.6821  -20.1902 O   0  0  0  0  0  0  0  0  0  0  0  0
   13.4236  -11.3392  -21.1825 C   0  0  1  0  0  0  0  0  0  0  0  0
   13.9878  -12.6099  -21.5114 O   0  0  0  0  0  0  0  0  0  0  0  0
   12.4178  -10.9466  -22.2655 C   0  0  2  0  0  0  0  0  0  0  0  0
   15.8855   -7.9721  -17.4690 O   0  0  0  0  0  0  0  0  0  0  0  0
   16.0040   -7.4681  -23.5632 N   0  0  0  0  0  0  0  0  0  0  0  0
   15.7263   -7.9659  -22.3705 C   0  0  0  0  0  0  0  0  0  0  0  0
   14.7696   -8.8606  -22.1945 N   0  0  0  0  0  0  0  0  0  0  0  0
   14.0448   -9.2982  -23.2352 C   0  0  0  0  0  0  0  0  0  0  0  0
   14.3059   -8.7972  -24.5028 C   0  0  0  0  0  0  0  0  0  0  0  0
   15.3175   -7.8549  -24.6460 C   0  0  0  0  0  0  0  0  0  0  0  0
   15.5713   -7.3232  -25.8378 N   0  0  0  0  0  0  0  0  0  0  0  0
   13.4628   -9.3797  -25.3479 N   0  0  0  0  0  0  0  0  0  0  0  0
   12.7006  -10.2135  -24.6441 C   0  0  0  0  0  0  0  0  0  0  0  0
   13.0489  -10.1697  -23.3580 N   0  0  0  0  0  0  0  0  0  0  0  0
  2  1  1  6  0  0  0
  2  5  1  0  0  0  0
  2  3  1  0  0  0  0
  3 17  1  0  0  0  0
  3  4  1  0  0  0  0
  5  6  1  0  0  0  0
  7  8  1  0  0  0  0
  8  6  1  1  0  0  0
  8  9  1  0  0  0  0
 10  9  1  6  0  0  0
 10 11  1  0  0  0  0
 10 12  1  0  0  0  0
 11 16  1  0  0  0  0
 12 13  1  6  0  0  0
 12 14  1  0  0  0  0
 14 15  1  6  0  0  0
 14 16  1  0  0  0  0
 16 27  1  6  0  0  0
 18 23  2  0  0  0  0
 18 19  1  0  0  0  0
 19 20  2  0  0  0  0
 20 21  1  0  0  0  0
 21 22  2  0  0  0  0
 21 27  1  0  0  0  0
 22 23  1  0  0  0  0
 22 25  1  0  0  0  0
 23 24  1  0  0  0  0
 25 26  2  0  0  0  0
 26 27  1  0  0  0  0
M  END
>  <CHROM.1>
45.20531032,-46.23099386,135.62581502,43.76146576,-172.74990479,57.91509999
85.01778493,13.37784941,-8.58116600,-21.10750486,-1.63427541,-0.84099789
-2.19143074

>  <Name>
ligand

>  <RI>
0

>  <Rbt.Current_Directory>
/home/itssahil/PROJECTS/Mol_Feturizer/New_Systems/rnas/3E5F

>  <Rbt.Executable>
rbdock ($Id: //depot/dev/client3/rdock/2013.1/src/exe/rbdock.cxx#4 $)

>  <Rbt.Library>
libRbt.so (2013.1, Build901 2013/11/27)

>  <Rbt.Parameter_File>
/export/apps/rDock/src/rDock_2013.1_src/data/scripts/dock_solv.prm

>  <Rbt.Receptor>
prm/pocket_docking_2.prm

>  <SCORE>
-12.3267

>  <SCORE.INTER>
-15.6287

>  <SCORE.INTER.CONST>
1

>  <SCORE.INTER.POLAR>
0

>  <SCORE.INTER.ROT>
7

>  <SCORE.INTER.SOLV>
19.6008

>  <SCORE.INTER.VDW>
-25.2194

>  <SCORE.INTER.norm>
-0.578839

>  <SCORE.INTRA>
3.2806

>  <SCORE.INTRA.DIHEDRAL>
3.95718

>  <SCORE.INTRA.DIHEDRAL.0>
4.89803

>  <SCORE.INTRA.POLAR>
0

>  <SCORE.INTRA.POLAR.0>
0

>  <SCORE.INTRA.REPUL>
0

>  <SCORE.INTRA.REPUL.0>
0

>  <SCORE.INTRA.SOLV>
0.812427

>  <SCORE.INTRA.SOLV.lig_0>
-48.5832

>  <SCORE.INTRA.VDW>
0.895796

>  <SCORE.INTRA.VDW.0>
-2.39056

>  <SCORE.INTRA.norm>
0.121504

>  <SCORE.RESTR>
0.0214049

>  <SCORE.RESTR.CAVITY>
0.0214049

>  <SCORE.RESTR.norm>
0.000792775

>  <SCORE.SYSTEM>
0

>  <SCORE.SYSTEM.CONST>
0

>  <SCORE.SYSTEM.DIHEDRAL>
0

>  <SCORE.SYSTEM.SOLV>
0

>  <SCORE.SYSTEM.norm>
0

>  <SCORE.heavy>
27

>  <SCORE.norm>
-0.456543

>  <RMSD>
1.434

$$$$
ligand
 OpenBabel11021811473D
libRbt.so/2013.1/901 2013/11/27
 27 29  0  0  0  0  0  0  0  0999 V2000
   15.5687   -4.9540  -16.4915 N   0  0  0  0  0  0  0  0  0  0  0  0
   16.1349   -6.0046  -17.3503 C   0  0  2  0  0  0  0  0  0  0  0  0
   16.0587   -5.5761  -18.8189 C   0  0  0  0  0  0  0  0  0  0  0  0
   17.0260   -5.8825  -19.5497 O   0  0  0  0  0  0  0  0  0  0  0  0
   15.3262   -7.2886  -17.1574 C   0  0  0  0  0  0  0  0  0  0  0  0
   13.8479   -7.0940  -17.5038 C   0  0  0  0  0  0  0  0  0  0  0  0
   11.6792   -7.4519  -19.3036 C   0  0  0  0  0  0  0  0  0  0  0  0
   13.5240   -7.4978  -19.2889 Se  0  0  2  0  0  0  0  0  0  0  0  0
   13.8560   -9.3120  -19.5226 C   0  0  0  0  0  0  0  0  0  0  0  0
   12.6024  -10.1274  -19.8423 C   0  0  1  0  0  0  0  0  0  0  0  0
   12.1334   -9.7443  -21.1466 O   0  0  0  0  0  0  0  0  0  0  0  0
   13.0375  -11.5849  -19.9998 C   0  0  1  0  0  0  0  0  0  0  0  0
   11.8842  -12.4201  -20.1116 O   0  0  0  0  0  0  0  0  0  0  0  0
   13.7421  -11.4863  -21.3505 C   0  0  1  0  0  0  0  0  0  0  0  0
   13.7926  -12.7871  -21.9392 O   0  0  0  0  0  0  0  0  0  0  0  0
   12.7223  -10.6364  -22.1096 C   0  0  2  0  0  0  0  0  0  0  0  0
   15.0408   -4.9438  -19.1770 O   0  0  0  0  0  0  0  0  0  0  0  0
   16.1760   -7.0775  -23.5416 N   0  0  0  0  0  0  0  0  0  0  0  0
   15.8966   -7.5191  -22.3273 C   0  0  0  0  0  0  0  0  0  0  0  0
   14.9772   -8.4449  -22.1171 N   0  0  0  0  0  0  0  0  0  0  0  0
   14.2937   -8.9733  -23.1436 C   0  0  0  0  0  0  0  0  0  0  0  0
   14.5580   -8.5336  -24.4331 C   0  0  0  0  0  0  0  0  0  0  0  0
   15.5295   -7.5558  -24.6123 C   0  0  0  0  0  0  0  0  0  0  0  0
   15.7835   -7.0816  -25.8280 N   0  0  0  0  0  0  0  0  0  0  0  0
   13.7590   -9.2008  -25.2581 N   0  0  0  0  0  0  0  0  0  0  0  0
   13.0204  -10.0272  -24.5212 C   0  0  0  0  0  0  0  0  0  0  0  0
   13.3403   -9.8948  -23.2337 N   0  0  0  0  0  0  0  0  0  0  0  0
  2  1  1  1  0  0  0
  2  5  1  0  0  0  0
  2  3  1  0  0  0  0
  3 17  1  0  0  0  0
  3  4  1  0  0  0  0
  5  6  1  0  0  0  0
  7  8  1  0  0  0  0
  8  6  1  1  0  0  0
  8  9  1  0  0  0  0
 10  9  1  6  0  0  0
 10 11  1  0  0  0  0
 10 12  1  0  0  0  0
 11 16  1  0  0  0  0
 12 13  1  6  0  0  0
 12 14  1  0  0  0  0
 14 15  1  6  0  0  0
 14 16  1  0  0  0  0
 16 27  1  6  0  0  0
 18 23  2  0  0  0  0
 18 19  1  0  0  0  0
 19 20  2  0  0  0  0
 20 21  1  0  0  0  0
 21 22  2  0  0  0  0
 21 27  1  0  0  0  0
 22 23  1  0  0  0  0
 22 25  1  0  0  0  0
 23 24  1  0  0  0  0
 25 26  2  0  0  0  0
 26 27  1  0  0  0  0
M  END
>  <CHROM.1>
59.02395838,141.94167029,91.25986341,170.77522775,112.81275896,67.68404826
57.58532858,14.13704680,-8.34698622,-20.76896054,-1.23071684,-0.97609079
-1.91873758

>  <Name>
ligand

>  <RI>
0

>  <Rbt.Current_Directory>
/home/itssahil/PROJECTS/Mol_Feturizer/New_Systems/rnas/3E5F

>  <Rbt.Executable>
rbdock ($Id: //depot/dev/client3/rdock/2013.1/src/exe/rbdock.cxx#4 $)

>  <Rbt.Library>
libRbt.so (2013.1, Build901 2013/11/27)

>  <Rbt.Parameter_File>
/export/apps/rDock/src/rDock_2013.1_src/data/scripts/dock_solv.prm

>  <Rbt.Receptor>
prm/pocket_docking_2.prm

>  <SCORE>
-12.2815

>  <SCORE.INTER>
-15.2705

>  <SCORE.INTER.CONST>
1

>  <SCORE.INTER.POLAR>
0

>  <SCORE.INTER.ROT>
7

>  <SCORE.INTER.SOLV>
20.7743

>  <SCORE.INTER.VDW>
-25.3718

>  <SCORE.INTER.norm>
-0.565574

>  <SCORE.INTRA>
2.98872

>  <SCORE.INTRA.DIHEDRAL>
3.45719

>  <SCORE.INTRA.DIHEDRAL.0>
4.89803

>  <SCORE.INTRA.POLAR>
0

>  <SCORE.INTRA.POLAR.0>
0

>  <SCORE.INTRA.REPUL>
0

>  <SCORE.INTRA.REPUL.0>
0

>  <SCORE.INTRA.SOLV>
0.819952

>  <SCORE.INTRA.SOLV.lig_0>
-48.5832

>  <SCORE.INTRA.VDW>
0.850146

>  <SCORE.INTRA.VDW.0>
-2.39056

>  <SCORE.INTRA.norm>
0.110693

>  <SCORE.RESTR>
0.000306568

>  <SCORE.RESTR.CAVITY>
0.000306568

>  <SCORE.RESTR.norm>
1.13544e-05

>  <SCORE.SYSTEM>
0

>  <SCORE.SYSTEM.CONST>
0

>  <SCORE.SYSTEM.DIHEDRAL>
0

>  <SCORE.SYSTEM.SOLV>
0

>  <SCORE.SYSTEM.norm>
0

>  <SCORE.heavy>
27

>  <SCORE.norm>
-0.454869

>  <RMSD>
1.435

$$$$
ligand
 OpenBabel11021811473D
libRbt.so/2013.1/901 2013/11/27
 27 29  0  0  0  0  0  0  0  0999 V2000
   14.8713   -5.5040  -20.4382 N   0  0  0  0  0  0  0  0  0  0  0  0
   15.1666   -4.9626  -19.1034 C   0  0  2  0  0  0  0  0  0  0  0  0
   16.5895   -5.3472  -18.6868 C   0  0  0  0  0  0  0  0  0  0  0  0
   16.9010   -5.1569  -17.4909 O   0  0  0  0  0  0  0  0  0  0  0  0
   14.1717   -5.5507  -18.1013 C   0  0  0  0  0  0  0  0  0  0  0  0
   14.1756   -7.0814  -18.1190 C   0  0  0  0  0  0  0  0  0  0  0  0
   11.5655   -7.6361  -19.0938 C   0  0  0  0  0  0  0  0  0  0  0  0
   13.3260   -7.7315  -19.6389 Se  0  0  2  0  0  0  0  0  0  0  0  0
   13.6028   -9.5691  -19.6934 C   0  0  0  0  0  0  0  0  0  0  0  0
   12.3606  -10.3634  -20.0990 C   0  0  1  0  0  0  0  0  0  0  0  0
   11.9254   -9.8966  -21.3875 O   0  0  0  0  0  0  0  0  0  0  0  0
   12.8041  -11.8070  -20.3394 C   0  0  1  0  0  0  0  0  0  0  0  0
   11.6565  -12.6345  -20.5362 O   0  0  0  0  0  0  0  0  0  0  0  0
   13.5441  -11.6196  -21.6615 C   0  0  1  0  0  0  0  0  0  0  0  0
   13.6141  -12.8792  -22.3321 O   0  0  0  0  0  0  0  0  0  0  0  0
   12.5423  -10.7233  -22.3906 C   0  0  2  0  0  0  0  0  0  0  0  0
   17.3376   -5.8138  -19.5740 O   0  0  0  0  0  0  0  0  0  0  0  0
   16.0938   -7.1479  -23.5075 N   0  0  0  0  0  0  0  0  0  0  0  0
   15.7933   -7.6787  -22.3348 C   0  0  0  0  0  0  0  0  0  0  0  0
   14.8499   -8.5953  -22.2062 N   0  0  0  0  0  0  0  0  0  0  0  0
   14.1626   -9.0220  -23.2765 C   0  0  0  0  0  0  0  0  0  0  0  0
   14.4486   -8.4865  -24.5244 C   0  0  0  0  0  0  0  0  0  0  0  0
   15.4451   -7.5220  -24.6177 C   0  0  0  0  0  0  0  0  0  0  0  0
   15.7211   -6.9579  -25.7894 N   0  0  0  0  0  0  0  0  0  0  0  0
   13.6407   -9.0650  -25.4059 N   0  0  0  0  0  0  0  0  0  0  0  0
   12.8759   -9.9293  -24.7430 C   0  0  0  0  0  0  0  0  0  0  0  0
   13.1878   -9.9091  -23.4470 N   0  0  0  0  0  0  0  0  0  0  0  0
  2  1  1  6  0  0  0
  2  5  1  0  0  0  0
  2  3  1  0  0  0  0
  3 17  1  0  0  0  0
  3  4  1  0  0  0  0
  5  6  1  0  0  0  0
  7  8  1  0  0  0  0
  8  6  1  1  0  0  0
  8  9  1  0  0  0  0
 10  9  1  6  0  0  0
 10 11  1  0  0  0  0
 10 12  1  0  0  0  0
 11 16  1  0  0  0  0
 12 13  1  6  0  0  0
 12 14  1  0  0  0  0
 14 15  1  6  0  0  0
 14 16  1  0  0  0  0
 16 27  1  6  0  0  0
 18 23  2  0  0  0  0
 18 19  1  0  0  0  0
 19 20  2  0  0  0  0
 20 21  1  0  0  0  0
 21 22  2  0  0  0  0
 21 27  1  0  0  0  0
 22 23  1  0  0  0  0
 22 25  1  0  0  0  0
 23 24  1  0  0  0  0
 25 26  2  0  0  0  0
 26 27  1  0  0  0  0
M  END
>  <CHROM.1>
55.32611454,-168.04043900,-74.01848739,-82.45377592,137.98570705,57.62421279
59.66805802,14.02462852,-8.37022825,-21.09341831,-0.99307730,-0.93406239
-1.95590865

>  <Name>
ligand

>  <RI>
0

>  <Rbt.Current_Directory>
/home/itssahil/PROJECTS/Mol_Feturizer/New_Systems/rnas/3E5F

>  <Rbt.Executable>
rbdock ($Id: //depot/dev/client3/rdock/2013.1/src/exe/rbdock.cxx#4 $)

>  <Rbt.Library>
libRbt.so (2013.1, Build901 2013/11/27)

>  <Rbt.Parameter_File>
/export/apps/rDock/src/rDock_2013.1_src/data/scripts/dock_solv.prm

>  <Rbt.Receptor>
prm/pocket_docking_2.prm

>  <SCORE>
-14.5952

>  <SCORE.INTER>
-16.3528

>  <SCORE.INTER.CONST>
1

>  <SCORE.INTER.POLAR>
0

>  <SCORE.INTER.ROT>
7

>  <SCORE.INTER.SOLV>
18.9893

>  <SCORE.INTER.VDW>
-25.4983

>  <SCORE.INTER.norm>
-0.60566

>  <SCORE.INTRA>
1.75766

>  <SCORE.INTRA.DIHEDRAL>
0.554687

>  <SCORE.INTRA.DIHEDRAL.0>
4.89803

>  <SCORE.INTRA.POLAR>
0

>  <SCORE.INTRA.POLAR.0>
0

>  <SCORE.INTRA.REPUL>
0

>  <SCORE.INTRA.REPUL.0>
0

>  <SCORE.INTRA.SOLV>
3.06225

>  <SCORE.INTRA.SOLV.lig_0>
-48.5832

>  <SCORE.INTRA.VDW>
-0.0508058

>  <SCORE.INTRA.VDW.0>
-2.39056

>  <SCORE.INTRA.norm>
0.0650987

>  <SCORE.RESTR>
0

>  <SCORE.RESTR.CAVITY>
0

>  <SCORE.RESTR.norm>
0

>  <SCORE.SYSTEM>
0

>  <SCORE.SYSTEM.CONST>
0

>  <SCORE.SYSTEM.DIHEDRAL>
0

>  <SCORE.SYSTEM.SOLV>
0

>  <SCORE.SYSTEM.norm>
0

>  <SCORE.heavy>
27

>  <SCORE.norm>
-0.540562

>  <RMSD>
1.450

$$$$
ligand
 OpenBabel11021811473D
libRbt.so/2013.1/901 2013/11/27
 27 29  0  0  0  0  0  0  0  0999 V2000
   15.5739   -4.7278  -16.1114 N   0  0  0  0  0  0  0  0  0  0  0  0
   16.1526   -6.0231  -16.4974 C   0  0  2  0  0  0  0  0  0  0  0  0
   16.7283   -5.9365  -17.9142 C   0  0  0  0  0  0  0  0  0  0  0  0
   17.6122   -6.7669  -18.2187 O   0  0  0  0  0  0  0  0  0  0  0  0
   15.0518   -7.0847  -16.4647 C   0  0  0  0  0  0  0  0  0  0  0  0
   13.9408   -6.7914  -17.4763 C   0  0  0  0  0  0  0  0  0  0  0  0
   13.0650   -6.4602  -20.1584 C   0  0  0  0  0  0  0  0  0  0  0  0
   14.5453   -7.0333  -19.2172 Se  0  0  2  0  0  0  0  0  0  0  0  0
   14.5290   -8.8590  -19.5679 C   0  0  0  0  0  0  0  0  0  0  0  0
   13.1225   -9.4525  -19.6580 C   0  0  1  0  0  0  0  0  0  0  0  0
   12.5717   -9.1189  -20.9437 O   0  0  0  0  0  0  0  0  0  0  0  0
   13.2732  -10.9739  -19.6839 C   0  0  1  0  0  0  0  0  0  0  0  0
   11.9866  -11.5850  -19.5766 O   0  0  0  0  0  0  0  0  0  0  0  0
   13.8134  -11.1431  -21.1017 C   0  0  1  0  0  0  0  0  0  0  0  0
   13.5631  -12.4819  -21.5329 O   0  0  0  0  0  0  0  0  0  0  0  0
   12.8730  -10.1963  -21.8485 C   0  0  2  0  0  0  0  0  0  0  0  0
   16.2798   -5.0370  -18.6586 O   0  0  0  0  0  0  0  0  0  0  0  0
   16.3616   -7.0789  -24.0294 N   0  0  0  0  0  0  0  0  0  0  0  0
   16.1146   -7.2759  -22.7458 C   0  0  0  0  0  0  0  0  0  0  0  0
   15.1804   -8.1167  -22.3372 N   0  0  0  0  0  0  0  0  0  0  0  0
   14.4478   -8.8066  -23.2245 C   0  0  0  0  0  0  0  0  0  0  0  0
   14.6769   -8.6250  -24.5812 C   0  0  0  0  0  0  0  0  0  0  0  0
   15.6656   -7.7291  -24.9708 C   0  0  0  0  0  0  0  0  0  0  0  0
   15.8880   -7.4995  -26.2612 N   0  0  0  0  0  0  0  0  0  0  0  0
   13.8326   -9.4098  -25.2411 N   0  0  0  0  0  0  0  0  0  0  0  0
   13.1003  -10.0598  -24.3396 C   0  0  0  0  0  0  0  0  0  0  0  0
   13.4689   -9.6983  -23.1104 N   0  0  0  0  0  0  0  0  0  0  0  0
  2  1  1  6  0  0  0
  2  5  1  0  0  0  0
  2  3  1  0  0  0  0
  3 17  1  0  0  0  0
  3  4  1  0  0  0  0
  5  6  1  0  0  0  0
  7  8  1  0  0  0  0
  8  6  1  1  0  0  0
  8  9  1  0  0  0  0
 10  9  1  6  0  0  0
 10 11  1  0  0  0  0
 10 12  1  0  0  0  0
 11 16  1  0  0  0  0
 12 13  1  6  0  0  0
 12 14  1  0  0  0  0
 14 15  1  6  0  0  0
 14 16  1  0  0  0  0
 16 27  1  6  0  0  0
 18 23  2  0  0  0  0
 18 19  1  0  0  0  0
 19 20  2  0  0  0  0
 20 21  1  0  0  0  0
 21 22  2  0  0  0  0
 21 27  1  0  0  0  0
 22 23  1  0  0  0  0
 22 25  1  0  0  0  0
 23 24  1  0  0  0  0
 25 26  2  0  0  0  0
 26 27  1  0  0  0  0
M  END
>  <CHROM.1>
62.74102677,157.23113304,69.85510277,-174.92184296,68.92704121,77.93403888
46.63615231,14.55292689,-8.11123533,-20.61643142,-1.24533462,-0.94980946
-1.78933824

>  <Name>
ligand

>  <RI>
0

>  <Rbt.Current_Directory>
/home/itssahil/PROJECTS/Mol_Feturizer/New_Systems/rnas/3E5F

>  <Rbt.Executable>
rbdock ($Id: //depot/dev/client3/rdock/2013.1/src/exe/rbdock.cxx#4 $)

>  <Rbt.Library>
libRbt.so (2013.1, Build901 2013/11/27)

>  <Rbt.Parameter_File>
/export/apps/rDock/src/rDock_2013.1_src/data/scripts/dock_solv.prm

>  <Rbt.Receptor>
prm/pocket_docking_2.prm

>  <SCORE>
-13.648

>  <SCORE.INTER>
-14.0934

>  <SCORE.INTER.CONST>
1

>  <SCORE.INTER.POLAR>
0

>  <SCORE.INTER.ROT>
7

>  <SCORE.INTER.SOLV>
21.5331

>  <SCORE.INTER.VDW>
-24.8399

>  <SCORE.INTER.norm>
-0.521976

>  <SCORE.INTRA>
0.443203

>  <SCORE.INTRA.DIHEDRAL>
0.152805

>  <SCORE.INTRA.DIHEDRAL.0>
4.89803

>  <SCORE.INTRA.POLAR>
0

>  <SCORE.INTRA.POLAR.0>
0

>  <SCORE.INTRA.REPUL>
0

>  <SCORE.INTRA.REPUL.0>
0

>  <SCORE.INTRA.SOLV>
0.842112

>  <SCORE.INTRA.SOLV.lig_0>
-48.5832

>  <SCORE.INTRA.VDW>
-0.0542554

>  <SCORE.INTRA.VDW.0>
-2.39056

>  <SCORE.INTRA.norm>
0.0164149

>  <SCORE.RESTR>
0.00216339

>  <SCORE.RESTR.CAVITY>
0.00216339

>  <SCORE.RESTR.norm>
8.01255e-05

>  <SCORE.SYSTEM>
0

>  <SCORE.SYSTEM.CONST>
0

>  <SCORE.SYSTEM.DIHEDRAL>
0

>  <SCORE.SYSTEM.SOLV>
0

>  <SCORE.SYSTEM.norm>
0

>  <SCORE.heavy>
27

>  <SCORE.norm>
-0.505481

>  <RMSD>
1.451

$$$$
ligand
 OpenBabel11021811473D
libRbt.so/2013.1/901 2013/11/27
 27 29  0  0  0  0  0  0  0  0999 V2000
   16.3627   -5.1382  -17.5424 N   0  0  0  0  0  0  0  0  0  0  0  0
   16.7796   -6.5073  -17.8796 C   0  0  2  0  0  0  0  0  0  0  0  0
   18.2339   -6.5070  -18.3604 C   0  0  0  0  0  0  0  0  0  0  0  0
   18.6154   -5.5104  -19.0121 O   0  0  0  0  0  0  0  0  0  0  0  0
   15.8793   -7.0358  -18.9977 C   0  0  0  0  0  0  0  0  0  0  0  0
   14.3971   -6.9716  -18.6204 C   0  0  0  0  0  0  0  0  0  0  0  0
   11.6685   -7.5173  -19.1927 C   0  0  0  0  0  0  0  0  0  0  0  0
   13.3439   -7.7821  -19.9198 Se  0  0  2  0  0  0  0  0  0  0  0  0
   13.5453   -9.6213  -19.7379 C   0  0  0  0  0  0  0  0  0  0  0  0
   12.3134  -10.4176  -20.1702 C   0  0  1  0  0  0  0  0  0  0  0  0
   11.8961   -9.9410  -21.4610 O   0  0  0  0  0  0  0  0  0  0  0  0
   12.7675  -11.8568  -20.4169 C   0  0  1  0  0  0  0  0  0  0  0  0
   11.6272  -12.6878  -20.6392 O   0  0  0  0  0  0  0  0  0  0  0  0
   13.5272  -11.6538  -21.7254 C   0  0  1  0  0  0  0  0  0  0  0  0
   13.6137  -12.9067  -22.4064 O   0  0  0  0  0  0  0  0  0  0  0  0
   12.5326  -10.7554  -22.4619 C   0  0  2  0  0  0  0  0  0  0  0  0
   18.9297   -7.5063  -18.0746 O   0  0  0  0  0  0  0  0  0  0  0  0
   16.0682   -7.1370  -23.4872 N   0  0  0  0  0  0  0  0  0  0  0  0
   15.7498   -7.6777  -22.3237 C   0  0  0  0  0  0  0  0  0  0  0  0
   14.8137   -8.6047  -22.2192 N   0  0  0  0  0  0  0  0  0  0  0  0
   14.1525   -9.0323  -23.3055 C   0  0  0  0  0  0  0  0  0  0  0  0
   14.4578   -8.4867  -24.5444 C   0  0  0  0  0  0  0  0  0  0  0  0
   15.4458   -7.5114  -24.6122 C   0  0  0  0  0  0  0  0  0  0  0  0
   15.7393   -6.9377  -25.7750 N   0  0  0  0  0  0  0  0  0  0  0  0
   13.6738   -9.0684  -25.4452 N   0  0  0  0  0  0  0  0  0  0  0  0
   12.9050   -9.9444  -24.8026 C   0  0  0  0  0  0  0  0  0  0  0  0
   13.1906   -9.9285  -23.5005 N   0  0  0  0  0  0  0  0  0  0  0  0
  2  1  1  6  0  0  0
  2  5  1  0  0  0  0
  2  3  1  0  0  0  0
  3 17  1  0  0  0  0
  3  4  1  0  0  0  0
  5  6  1  0  0  0  0
  7  8  1  0  0  0  0
  8  6  1  1  0  0  0
  8  9  1  0  0  0  0
 10  9  1  6  0  0  0
 10 11  1  0  0  0  0
 10 12  1  0  0  0  0
 11 16  1  0  0  0  0
 12 13  1  6  0  0  0
 12 14  1  0  0  0  0
 14 15  1  6  0  0  0
 14 16  1  0  0  0  0
 16 27  1  6  0  0  0
 18 23  2  0  0  0  0
 18 19  1  0  0  0  0
 19 20  2  0  0  0  0
 20 21  1  0  0  0  0
 21 22  2  0  0  0  0
 21 27  1  0  0  0  0
 22 23  1  0  0  0  0
 22 25  1  0  0  0  0
 23 24  1  0  0  0  0
 25 26  2  0  0  0  0
 26 27  1  0  0  0  0
M  END
>  <CHROM.1>
-55.96489184,-34.48091076,-174.03998329,-179.22369982,150.49963162,48.76970510
59.20977937,14.34728004,-8.57212681,-21.07887006,0.72785444,0.75079301,1.44576706

>  <Name>
ligand

>  <RI>
0

>  <Rbt.Current_Directory>
/home/itssahil/PROJECTS/Mol_Feturizer/New_Systems/rnas/3E5F

>  <Rbt.Executable>
rbdock ($Id: //depot/dev/client3/rdock/2013.1/src/exe/rbdock.cxx#4 $)

>  <Rbt.Library>
libRbt.so (2013.1, Build901 2013/11/27)

>  <Rbt.Parameter_File>
/export/apps/rDock/src/rDock_2013.1_src/data/scripts/dock_solv.prm

>  <Rbt.Receptor>
prm/pocket_docking_2.prm

>  <SCORE>
-16.6196

>  <SCORE.INTER>
-15.8612

>  <SCORE.INTER.CONST>
1

>  <SCORE.INTER.POLAR>
0

>  <SCORE.INTER.ROT>
7

>  <SCORE.INTER.SOLV>
21.4432

>  <SCORE.INTER.VDW>
-25.9886

>  <SCORE.INTER.norm>
-0.587454

>  <SCORE.INTRA>
-0.758397

>  <SCORE.INTRA.DIHEDRAL>
-0.625424

>  <SCORE.INTRA.DIHEDRAL.0>
4.89803

>  <SCORE.INTRA.POLAR>
0

>  <SCORE.INTRA.POLAR.0>
0

>  <SCORE.INTRA.REPUL>
0

>  <SCORE.INTRA.REPUL.0>
0

>  <SCORE.INTRA.SOLV>
0.80122

>  <SCORE.INTRA.SOLV.lig_0>
-48.5832

>  <SCORE.INTRA.VDW>
-0.846295

>  <SCORE.INTRA.VDW.0>
-2.39056

>  <SCORE.INTRA.norm>
-0.0280888

>  <SCORE.RESTR>
0

>  <SCORE.RESTR.CAVITY>
0

>  <SCORE.RESTR.norm>
0

>  <SCORE.SYSTEM>
0

>  <SCORE.SYSTEM.CONST>
0

>  <SCORE.SYSTEM.DIHEDRAL>
0

>  <SCORE.SYSTEM.SOLV>
0

>  <SCORE.SYSTEM.norm>
0

>  <SCORE.heavy>
27

>  <SCORE.norm>
-0.615542

>  <RMSD>
1.459

$$$$
ligand
 OpenBabel11021811473D
libRbt.so/2013.1/901 2013/11/27
 27 29  0  0  0  0  0  0  0  0999 V2000
   17.9683   -7.0459  -19.6717 N   0  0  0  0  0  0  0  0  0  0  0  0
   16.5507   -6.7987  -19.3699 C   0  0  2  0  0  0  0  0  0  0  0  0
   16.3760   -5.3865  -18.8029 C   0  0  0  0  0  0  0  0  0  0  0  0
   17.0110   -5.1112  -17.7615 O   0  0  0  0  0  0  0  0  0  0  0  0
   16.0818   -7.8200  -18.3321 C   0  0  0  0  0  0  0  0  0  0  0  0
   14.5905   -7.6763  -18.0178 C   0  0  0  0  0  0  0  0  0  0  0  0
   11.8653   -7.9626  -18.7673 C   0  0  0  0  0  0  0  0  0  0  0  0
   13.5536   -8.1130  -19.4972 Se  0  0  2  0  0  0  0  0  0  0  0  0
   13.6888   -9.9492  -19.7544 C   0  0  0  0  0  0  0  0  0  0  0  0
   12.3816  -10.6020  -20.2058 C   0  0  1  0  0  0  0  0  0  0  0  0
   11.9650   -9.9797  -21.4334 O   0  0  0  0  0  0  0  0  0  0  0  0
   12.7058  -12.0452  -20.5937 C   0  0  1  0  0  0  0  0  0  0  0  0
   11.4936  -12.7585  -20.8427 O   0  0  0  0  0  0  0  0  0  0  0  0
   13.4380  -11.7876  -21.9083 C   0  0  1  0  0  0  0  0  0  0  0  0
   13.3979  -12.9775  -22.6981 O   0  0  0  0  0  0  0  0  0  0  0  0
   12.4992  -10.7498  -22.5250 C   0  0  2  0  0  0  0  0  0  0  0  0
   15.6048   -4.6164  -19.4165 O   0  0  0  0  0  0  0  0  0  0  0  0
   16.0494   -7.0854  -23.3077 N   0  0  0  0  0  0  0  0  0  0  0  0
   15.6908   -7.6624  -22.1737 C   0  0  0  0  0  0  0  0  0  0  0  0
   14.7569   -8.5966  -22.1323 N   0  0  0  0  0  0  0  0  0  0  0  0
   14.1394   -8.9944  -23.2550 C   0  0  0  0  0  0  0  0  0  0  0  0
   14.4878   -8.4103  -24.4647 C   0  0  0  0  0  0  0  0  0  0  0  0
   15.4719   -7.4288  -24.4661 C   0  0  0  0  0  0  0  0  0  0  0  0
   15.8054   -6.8189  -25.5993 N   0  0  0  0  0  0  0  0  0  0  0  0
   13.7416   -8.9683  -25.4114 N   0  0  0  0  0  0  0  0  0  0  0  0
   12.9544   -9.8670  -24.8247 C   0  0  0  0  0  0  0  0  0  0  0  0
   13.1908   -9.8889  -23.5129 N   0  0  0  0  0  0  0  0  0  0  0  0
  2  1  1  1  0  0  0
  2  5  1  0  0  0  0
  2  3  1  0  0  0  0
  3 17  1  0  0  0  0
  3  4  1  0  0  0  0
  5  6  1  0  0  0  0
  7  8  1  0  0  0  0
  8  6  1  1  0  0  0
  8  9  1  0  0  0  0
 10  9  1  6  0  0  0
 10 11  1  0  0  0  0
 10 12  1  0  0  0  0
 11 16  1  0  0  0  0
 12 13  1  6  0  0  0
 12 14  1  0  0  0  0
 14 15  1  6  0  0  0
 14 16  1  0  0  0  0
 16 27  1  6  0  0  0
 18 23  2  0  0  0  0
 18 19  1  0  0  0  0
 19 20  2  0  0  0  0
 20 21  1  0  0  0  0
 21 22  2  0  0  0  0
 21 27  1  0  0  0  0
 22 23  1  0  0  0  0
 22 25  1  0  0  0  0
 23 24  1  0  0  0  0
 25 26  2  0  0  0  0
 26 27  1  0  0  0  0
M  END
>  <CHROM.1>
-176.96993816,-58.62442607,66.40962570,176.07053539,142.31212439,58.34344993
51.87543688,14.21151814,-8.62748693,-21.08066910,-0.77287682,-0.90617111
-1.76492296

>  <Name>
ligand

>  <RI>
0

>  <Rbt.Current_Directory>
/home/itssahil/PROJECTS/Mol_Feturizer/New_Systems/rnas/3E5F

>  <Rbt.Executable>
rbdock ($Id: //depot/dev/client3/rdock/2013.1/src/exe/rbdock.cxx#4 $)

>  <Rbt.Library>
libRbt.so (2013.1, Build901 2013/11/27)

>  <Rbt.Parameter_File>
/export/apps/rDock/src/rDock_2013.1_src/data/scripts/dock_solv.prm

>  <Rbt.Receptor>
prm/blind_docking_100.prm

>  <SCORE>
-17.2667

>  <SCORE.INTER>
-16.1877

>  <SCORE.INTER.CONST>
1

>  <SCORE.INTER.POLAR>
0

>  <SCORE.INTER.ROT>
7

>  <SCORE.INTER.SOLV>
19.0148

>  <SCORE.INTER.VDW>
-25.3968

>  <SCORE.INTER.norm>
-0.599546

>  <SCORE.INTRA>
-1.07893

>  <SCORE.INTRA.DIHEDRAL>
-0.61465

>  <SCORE.INTRA.DIHEDRAL.0>
4.89803

>  <SCORE.INTRA.POLAR>
0

>  <SCORE.INTRA.POLAR.0>
0

>  <SCORE.INTRA.REPUL>
0

>  <SCORE.INTRA.REPUL.0>
0

>  <SCORE.INTRA.SOLV>
0.47049

>  <SCORE.INTRA.SOLV.lig_0>
-48.5832

>  <SCORE.INTRA.VDW>
-1.00685

>  <SCORE.INTRA.VDW.0>
-2.39056

>  <SCORE.INTRA.norm>
-0.0399605

>  <SCORE.RESTR>
0

>  <SCORE.RESTR.CAVITY>
0

>  <SCORE.RESTR.norm>
0

>  <SCORE.SYSTEM>
0

>  <SCORE.SYSTEM.CONST>
0

>  <SCORE.SYSTEM.DIHEDRAL>
0

>  <SCORE.SYSTEM.SOLV>
0

>  <SCORE.SYSTEM.norm>
0

>  <SCORE.heavy>
27

>  <SCORE.norm>
-0.639506

>  <RMSD>
1.470

$$$$
ligand
 OpenBabel11021811473D
libRbt.so/2013.1/901 2013/11/27
 27 29  0  0  0  0  0  0  0  0999 V2000
   15.0085   -5.5063  -14.8010 N   0  0  0  0  0  0  0  0  0  0  0  0
   14.8168   -6.2381  -16.0617 C   0  0  2  0  0  0  0  0  0  0  0  0
   16.1645   -6.7519  -16.5775 C   0  0  0  0  0  0  0  0  0  0  0  0
   16.2427   -7.9716  -16.8416 O   0  0  0  0  0  0  0  0  0  0  0  0
   14.2102   -5.2885  -17.0962 C   0  0  0  0  0  0  0  0  0  0  0  0
   14.0796   -5.9459  -18.4725 C   0  0  0  0  0  0  0  0  0  0  0  0
   13.4432   -8.5820  -17.6263 C   0  0  0  0  0  0  0  0  0  0  0  0
   12.6678   -7.1543  -18.5015 Se  0  0  2  0  0  0  0  0  0  0  0  0
   12.5260   -7.8095  -20.2355 C   0  0  0  0  0  0  0  0  0  0  0  0
   11.5772   -9.0020  -20.3636 C   0  0  1  0  0  0  0  0  0  0  0  0
   11.3893   -9.2831  -21.7612 O   0  0  0  0  0  0  0  0  0  0  0  0
   12.3120  -10.2267  -19.8175 C   0  0  1  0  0  0  0  0  0  0  0  0
   11.4092  -11.3307  -19.7365 O   0  0  0  0  0  0  0  0  0  0  0  0
   13.3032  -10.4470  -20.9574 C   0  0  1  0  0  0  0  0  0  0  0  0
   13.7526  -11.8027  -20.9210 O   0  0  0  0  0  0  0  0  0  0  0  0
   12.3646  -10.2664  -22.1511 C   0  0  2  0  0  0  0  0  0  0  0  0
   17.0894   -5.9172  -16.6875 O   0  0  0  0  0  0  0  0  0  0  0  0
   16.1591   -7.3962  -24.1533 N   0  0  0  0  0  0  0  0  0  0  0  0
   15.7896   -7.5158  -22.8897 C   0  0  0  0  0  0  0  0  0  0  0  0
   14.7890   -8.2997  -22.5277 N   0  0  0  0  0  0  0  0  0  0  0  0
   14.1121   -9.0091  -23.4434 C   0  0  0  0  0  0  0  0  0  0  0  0
   14.4698   -8.9081  -24.7805 C   0  0  0  0  0  0  0  0  0  0  0  0
   15.5251   -8.0702  -25.1214 C   0  0  0  0  0  0  0  0  0  0  0  0
   15.8721   -7.9176  -26.3955 N   0  0  0  0  0  0  0  0  0  0  0  0
   13.6573   -9.6962  -25.4757 N   0  0  0  0  0  0  0  0  0  0  0  0
   12.8210  -10.2707  -24.6143 C   0  0  0  0  0  0  0  0  0  0  0  0
   13.0916   -9.8578  -23.3759 N   0  0  0  0  0  0  0  0  0  0  0  0
  2  1  1  1  0  0  0
  2  5  1  0  0  0  0
  2  3  1  0  0  0  0
  3 17  1  0  0  0  0
  3  4  1  0  0  0  0
  5  6  1  0  0  0  0
  7  8  1  0  0  0  0
  8  6  1  6  0  0  0
  8  9  1  0  0  0  0
 10  9  1  6  0  0  0
 10 11  1  0  0  0  0
 10 12  1  0  0  0  0
 11 16  1  0  0  0  0
 12 13  1  6  0  0  0
 12 14  1  0  0  0  0
 14 15  1  1  0  0  0
 14 16  1  0  0  0  0
 16 27  1  6  0  0  0
 18 23  2  0  0  0  0
 18 19  1  0  0  0  0
 19 20  2  0  0  0  0
 20 21  1  0  0  0  0
 21 22  2  0  0  0  0
 21 27  1  0  0  0  0
 22 23  1  0  0  0  0
 22 25  1  0  0  0  0
 23 24  1  0  0  0  0
 25 26  2  0  0  0  0
 26 27  1  0  0  0  0
M  END
>  <CHROM.1>
175.55747637,126.96829594,74.85389849,-77.86770371,169.41824493,171.13860649
80.66684465,13.81125282,-8.21400645,-20.36016815,-1.48797678,-0.66899205
-1.87644613

>  <Name>
ligand

>  <RI>
0

>  <Rbt.Current_Directory>
/home/itssahil/PROJECTS/Mol_Feturizer/New_Systems/rnas/3E5F

>  <Rbt.Executable>
rbdock ($Id: //depot/dev/client3/rdock/2013.1/src/exe/rbdock.cxx#4 $)

>  <Rbt.Library>
libRbt.so (2013.1, Build901 2013/11/27)

>  <Rbt.Parameter_File>
/export/apps/rDock/src/rDock_2013.1_src/data/scripts/dock_solv.prm

>  <Rbt.Receptor>
prm/pocket_docking_2.prm

>  <SCORE>
-6.86215

>  <SCORE.INTER>
-9.29539

>  <SCORE.INTER.CONST>
1

>  <SCORE.INTER.POLAR>
0

>  <SCORE.INTER.ROT>
7

>  <SCORE.INTER.SOLV>
18.7623

>  <SCORE.INTER.VDW>
-20.7177

>  <SCORE.INTER.norm>
-0.344274

>  <SCORE.INTRA>
1.54927

>  <SCORE.INTRA.DIHEDRAL>
-0.658647

>  <SCORE.INTRA.DIHEDRAL.0>
4.89803

>  <SCORE.INTRA.POLAR>
0

>  <SCORE.INTRA.POLAR.0>
0

>  <SCORE.INTRA.REPUL>
0

>  <SCORE.INTRA.REPUL.0>
0

>  <SCORE.INTRA.SOLV>
0.343449

>  <SCORE.INTRA.SOLV.lig_0>
-48.5832

>  <SCORE.INTRA.VDW>
1.70687

>  <SCORE.INTRA.VDW.0>
-2.39056

>  <SCORE.INTRA.norm>
0.0573805

>  <SCORE.RESTR>
0.88397

>  <SCORE.RESTR.CAVITY>
0.88397

>  <SCORE.RESTR.norm>
0.0327396

>  <SCORE.SYSTEM>
0

>  <SCORE.SYSTEM.CONST>
0

>  <SCORE.SYSTEM.DIHEDRAL>
0

>  <SCORE.SYSTEM.SOLV>
0

>  <SCORE.SYSTEM.norm>
0

>  <SCORE.heavy>
27

>  <SCORE.norm>
-0.254154

>  <RMSD>
1.479

$$$$
ligand
 OpenBabel11021811473D
libRbt.so/2013.1/901 2013/11/27
 27 29  0  0  0  0  0  0  0  0999 V2000
   14.9026   -5.3424  -18.9254 N   0  0  0  0  0  0  0  0  0  0  0  0
   14.6939   -5.2850  -17.4711 C   0  0  2  0  0  0  0  0  0  0  0  0
   16.0381   -5.1141  -16.7568 C   0  0  0  0  0  0  0  0  0  0  0  0
   16.0036   -4.9295  -15.5206 O   0  0  0  0  0  0  0  0  0  0  0  0
   14.0428   -6.5916  -17.0142 C   0  0  0  0  0  0  0  0  0  0  0  0
   12.8064   -6.9393  -17.8471 C   0  0  0  0  0  0  0  0  0  0  0  0
   14.5926   -8.6158  -19.2855 C   0  0  0  0  0  0  0  0  0  0  0  0
   12.9177   -8.6711  -18.5126 Se  0  0  2  0  0  0  0  0  0  0  0  0
   11.8176   -8.7690  -20.0081 C   0  0  0  0  0  0  0  0  0  0  0  0
   11.2456  -10.1652  -20.2568 C   0  0  1  0  0  0  0  0  0  0  0  0
   11.1556  -10.3712  -21.6771 O   0  0  0  0  0  0  0  0  0  0  0  0
   12.2925  -11.1748  -19.7845 C   0  0  1  0  0  0  0  0  0  0  0  0
   11.7381  -12.4908  -19.8167 O   0  0  0  0  0  0  0  0  0  0  0  0
   13.3143  -11.0125  -20.9071 C   0  0  1  0  0  0  0  0  0  0  0  0
   14.1283  -12.1853  -20.9617 O   0  0  0  0  0  0  0  0  0  0  0  0
   12.3720  -11.0050  -22.1116 C   0  0  2  0  0  0  0  0  0  0  0  0
   17.0696   -5.1621  -17.4625 O   0  0  0  0  0  0  0  0  0  0  0  0
   15.8388   -7.5586  -23.7695 N   0  0  0  0  0  0  0  0  0  0  0  0
   15.5948   -7.9591  -22.5335 C   0  0  0  0  0  0  0  0  0  0  0  0
   14.6662   -8.8600  -22.2637 N   0  0  0  0  0  0  0  0  0  0  0  0
   13.9365   -9.4042  -23.2493 C   0  0  0  0  0  0  0  0  0  0  0  0
   14.1627   -9.0074  -24.5598 C   0  0  0  0  0  0  0  0  0  0  0  0
   15.1454   -8.0548  -24.8021 C   0  0  0  0  0  0  0  0  0  0  0  0
   15.3646   -7.6212  -26.0395 N   0  0  0  0  0  0  0  0  0  0  0  0
   13.3221   -9.6822  -25.3359 N   0  0  0  0  0  0  0  0  0  0  0  0
   12.5950  -10.4720  -24.5492 C   0  0  0  0  0  0  0  0  0  0  0  0
   12.9632  -10.3087  -23.2783 N   0  0  0  0  0  0  0  0  0  0  0  0
  2  1  1  6  0  0  0
  2  5  1  0  0  0  0
  2  3  1  0  0  0  0
  3 17  1  0  0  0  0
  3  4  1  0  0  0  0
  5  6  1  0  0  0  0
  7  8  1  0  0  0  0
  8  6  1  6  0  0  0
  8  9  1  0  0  0  0
 10  9  1  6  0  0  0
 10 11  1  0  0  0  0
 10 12  1  0  0  0  0
 11 16  1  0  0  0  0
 12 13  1  6  0  0  0
 12 14  1  0  0  0  0
 14 15  1  6  0  0  0
 14 16  1  0  0  0  0
 16 27  1  6  0  0  0
 18 23  2  0  0  0  0
 18 19  1  0  0  0  0
 19 20  2  0  0  0  0
 20 21  1  0  0  0  0
 21 22  2  0  0  0  0
 21 27  1  0  0  0  0
 22 23  1  0  0  0  0
 22 25  1  0  0  0  0
 23 24  1  0  0  0  0
 25 26  2  0  0  0  0
 26 27  1  0  0  0  0
M  END
>  <CHROM.1>
-50.89972953,173.76856964,127.68592894,-51.25762309,-151.22833316,-145.06575837
97.21248778,13.73375570,-8.63239882,-20.47126946,-1.26762176,-0.88157786
-1.87866902

>  <Name>
ligand

>  <RI>
0

>  <Rbt.Current_Directory>
/home/itssahil/PROJECTS/Mol_Feturizer/New_Systems/rnas/3E5F

>  <Rbt.Executable>
rbdock ($Id: //depot/dev/client3/rdock/2013.1/src/exe/rbdock.cxx#4 $)

>  <Rbt.Library>
libRbt.so (2013.1, Build901 2013/11/27)

>  <Rbt.Parameter_File>
/export/apps/rDock/src/rDock_2013.1_src/data/scripts/dock_solv.prm

>  <Rbt.Receptor>
prm/pocket_docking_2.prm

>  <SCORE>
-5.91388

>  <SCORE.INTER>
-12.5663

>  <SCORE.INTER.CONST>
1

>  <SCORE.INTER.POLAR>
0

>  <SCORE.INTER.ROT>
7

>  <SCORE.INTER.SOLV>
18.8221

>  <SCORE.INTER.VDW>
-22.9182

>  <SCORE.INTER.norm>
-0.46542

>  <SCORE.INTRA>
6.63045

>  <SCORE.INTRA.DIHEDRAL>
8.68335

>  <SCORE.INTRA.DIHEDRAL.0>
4.89803

>  <SCORE.INTRA.POLAR>
0

>  <SCORE.INTRA.POLAR.0>
0

>  <SCORE.INTRA.REPUL>
0

>  <SCORE.INTRA.REPUL.0>
0

>  <SCORE.INTRA.SOLV>
2.06962

>  <SCORE.INTRA.SOLV.lig_0>
-48.5832

>  <SCORE.INTRA.VDW>
1.25397

>  <SCORE.INTRA.VDW.0>
-2.39056

>  <SCORE.INTRA.norm>
0.245572

>  <SCORE.RESTR>
0.0219945

>  <SCORE.RESTR.CAVITY>
0.0219945

>  <SCORE.RESTR.norm>
0.000814613

>  <SCORE.SYSTEM>
0

>  <SCORE.SYSTEM.CONST>
0

>  <SCORE.SYSTEM.DIHEDRAL>
0

>  <SCORE.SYSTEM.SOLV>
0

>  <SCORE.SYSTEM.norm>
0

>  <SCORE.heavy>
27

>  <SCORE.norm>
-0.219033

>  <RMSD>
1.487

$$$$
ligand
 OpenBabel11021811473D
libRbt.so/2013.1/901 2013/11/27
 27 29  0  0  0  0  0  0  0  0999 V2000
   17.2243   -7.6625  -18.7449 N   0  0  0  0  0  0  0  0  0  0  0  0
   16.0990   -6.8071  -19.1497 C   0  0  2  0  0  0  0  0  0  0  0  0
   16.3896   -5.3503  -18.7764 C   0  0  0  0  0  0  0  0  0  0  0  0
   16.9334   -5.1464  -17.6690 O   0  0  0  0  0  0  0  0  0  0  0  0
   14.8380   -7.2725  -18.4196 C   0  0  0  0  0  0  0  0  0  0  0  0
   14.3461   -8.6292  -18.9305 C   0  0  0  0  0  0  0  0  0  0  0  0
   13.0853   -6.5805  -20.4417 C   0  0  0  0  0  0  0  0  0  0  0  0
   13.2191   -8.4205  -20.3936 Se  0  0  2  0  0  0  0  0  0  0  0  0
   11.5071   -8.9072  -19.8567 C   0  0  0  0  0  0  0  0  0  0  0  0
   11.1348  -10.3436  -20.2264 C   0  0  1  0  0  0  0  0  0  0  0  0
   11.1696  -10.4660  -21.6587 O   0  0  0  0  0  0  0  0  0  0  0  0
   12.2660  -11.2464  -19.7329 C   0  0  1  0  0  0  0  0  0  0  0  0
   11.8860  -12.6154  -19.8812 O   0  0  0  0  0  0  0  0  0  0  0  0
   13.3338  -10.8878  -20.7632 C   0  0  1  0  0  0  0  0  0  0  0  0
   14.2914  -11.9465  -20.8211 O   0  0  0  0  0  0  0  0  0  0  0  0
   12.4834  -10.9168  -22.0339 C   0  0  2  0  0  0  0  0  0  0  0  0
   16.0536   -4.4718  -19.6009 O   0  0  0  0  0  0  0  0  0  0  0  0
   16.0914   -7.4647  -23.3412 N   0  0  0  0  0  0  0  0  0  0  0  0
   15.8842   -8.0432  -22.1708 C   0  0  0  0  0  0  0  0  0  0  0  0
   14.9103   -8.9180  -21.9889 N   0  0  0  0  0  0  0  0  0  0  0  0
   14.0948   -9.2515  -23.0006 C   0  0  0  0  0  0  0  0  0  0  0  0
   14.2802   -8.6635  -24.2439 C   0  0  0  0  0  0  0  0  0  0  0  0
   15.3130   -7.7455  -24.3940 C   0  0  0  0  0  0  0  0  0  0  0  0
   15.4978   -7.1326  -25.5591 N   0  0  0  0  0  0  0  0  0  0  0  0
   13.3559   -9.1527  -25.0629 N   0  0  0  0  0  0  0  0  0  0  0  0
   12.6171  -10.0133  -24.3665 C   0  0  0  0  0  0  0  0  0  0  0  0
   13.0607  -10.0790  -23.1110 N   0  0  0  0  0  0  0  0  0  0  0  0
  2  1  1  1  0  0  0
  2  5  1  0  0  0  0
  2  3  1  0  0  0  0
  3 17  1  0  0  0  0
  3  4  1  0  0  0  0
  5  6  1  0  0  0  0
  7  8  1  0  0  0  0
  8  6  1  1  0  0  0
  8  9  1  0  0  0  0
 10  9  1  6  0  0  0
 10 11  1  0  0  0  0
 10 12  1  0  0  0  0
 11 16  1  0  0  0  0
 12 13  1  6  0  0  0
 12 14  1  0  0  0  0
 14 15  1  6  0  0  0
 14 16  1  0  0  0  0
 16 27  1  6  0  0  0
 18 23  2  0  0  0  0
 18 19  1  0  0  0  0
 19 20  2  0  0  0  0
 20 21  1  0  0  0  0
 21 22  2  0  0  0  0
 21 27  1  0  0  0  0
 22 23  1  0  0  0  0
 22 25  1  0  0  0  0
 23 24  1  0  0  0  0
 25 26  2  0  0  0  0
 26 27  1  0  0  0  0
M  END
>  <CHROM.1>
-70.08937423,-40.57309282,-87.06156030,-5.54260016,-97.34748587,-61.59894851
111.56569904,13.98082129,-8.63329648,-21.07598080,0.55190193,0.86235065,1.44517447

>  <Name>
ligand

>  <RI>
0

>  <Rbt.Current_Directory>
/home/itssahil/PROJECTS/Mol_Feturizer/New_Systems/rnas/3E5F

>  <Rbt.Executable>
rbdock ($Id: //depot/dev/client3/rdock/2013.1/src/exe/rbdock.cxx#4 $)

>  <Rbt.Library>
libRbt.so (2013.1, Build901 2013/11/27)

>  <Rbt.Parameter_File>
/export/apps/rDock/src/rDock_2013.1_src/data/scripts/dock_solv.prm

>  <Rbt.Receptor>
prm/pocket_docking_2.prm

>  <SCORE>
-6.15935

>  <SCORE.INTER>
-12.8915

>  <SCORE.INTER.CONST>
1

>  <SCORE.INTER.POLAR>
0

>  <SCORE.INTER.ROT>
7

>  <SCORE.INTER.SOLV>
19.8493

>  <SCORE.INTER.VDW>
-23.4774

>  <SCORE.INTER.norm>
-0.477463

>  <SCORE.INTRA>
6.19582

>  <SCORE.INTRA.DIHEDRAL>
4.09195

>  <SCORE.INTRA.DIHEDRAL.0>
4.89803

>  <SCORE.INTRA.POLAR>
0

>  <SCORE.INTRA.POLAR.0>
0

>  <SCORE.INTRA.REPUL>
0

>  <SCORE.INTRA.REPUL.0>
0

>  <SCORE.INTRA.SOLV>
1.27348

>  <SCORE.INTRA.SOLV.lig_0>
-48.5832

>  <SCORE.INTRA.VDW>
3.51311

>  <SCORE.INTRA.VDW.0>
-2.39056

>  <SCORE.INTRA.norm>
0.229475

>  <SCORE.RESTR>
0.536337

>  <SCORE.RESTR.CAVITY>
0.536337

>  <SCORE.RESTR.norm>
0.0198643

>  <SCORE.SYSTEM>
0

>  <SCORE.SYSTEM.CONST>
0

>  <SCORE.SYSTEM.DIHEDRAL>
0

>  <SCORE.SYSTEM.SOLV>
0

>  <SCORE.SYSTEM.norm>
0

>  <SCORE.heavy>
27

>  <SCORE.norm>
-0.228124

>  <RMSD>
1.532

$$$$
ligand
 OpenBabel11021811473D
libRbt.so/2013.1/901 2013/11/27
 27 29  0  0  0  0  0  0  0  0999 V2000
   16.3012   -6.8893  -17.6490 N   0  0  0  0  0  0  0  0  0  0  0  0
   16.3730   -6.9318  -19.1170 C   0  0  2  0  0  0  0  0  0  0  0  0
   17.8368   -6.9527  -19.5679 C   0  0  0  0  0  0  0  0  0  0  0  0
   18.6258   -6.1908  -18.9676 O   0  0  0  0  0  0  0  0  0  0  0  0
   15.6898   -5.6846  -19.6807 C   0  0  0  0  0  0  0  0  0  0  0  0
   14.1923   -5.6576  -19.3643 C   0  0  0  0  0  0  0  0  0  0  0  0
   11.5444   -6.5700  -19.8402 C   0  0  0  0  0  0  0  0  0  0  0  0
   13.2755   -6.9190  -20.3757 Se  0  0  2  0  0  0  0  0  0  0  0  0
   13.5783   -8.5834  -19.6047 C   0  0  0  0  0  0  0  0  0  0  0  0
   12.4394   -9.5787  -19.8302 C   0  0  1  0  0  0  0  0  0  0  0  0
   12.0222   -9.4861  -21.2032 O   0  0  0  0  0  0  0  0  0  0  0  0
   13.0314  -10.9825  -19.6991 C   0  0  1  0  0  0  0  0  0  0  0  0
   11.9800  -11.9493  -19.7121 O   0  0  0  0  0  0  0  0  0  0  0  0
   13.8113  -11.0436  -21.0101 C   0  0  1  0  0  0  0  0  0  0  0  0
   14.0345  -12.4133  -21.3494 O   0  0  0  0  0  0  0  0  0  0  0  0
   12.7629  -10.4610  -21.9588 C   0  0  2  0  0  0  0  0  0  0  0  0
   18.1334   -7.7220  -20.5084 O   0  0  0  0  0  0  0  0  0  0  0  0
   16.1857   -7.0820  -23.8327 N   0  0  0  0  0  0  0  0  0  0  0  0
   15.9087   -7.3676  -22.5720 C   0  0  0  0  0  0  0  0  0  0  0  0
   14.9976   -8.2675  -22.2456 N   0  0  0  0  0  0  0  0  0  0  0  0
   14.3204   -8.9289  -23.1964 C   0  0  0  0  0  0  0  0  0  0  0  0
   14.5824   -8.6549  -24.5314 C   0  0  0  0  0  0  0  0  0  0  0  0
   15.5450   -7.6990  -24.8338 C   0  0  0  0  0  0  0  0  0  0  0  0
   15.7964   -7.3814  -26.1000 N   0  0  0  0  0  0  0  0  0  0  0  0
   13.7906   -9.4294  -25.2646 N   0  0  0  0  0  0  0  0  0  0  0  0
   13.0587  -10.1617  -24.4284 C   0  0  0  0  0  0  0  0  0  0  0  0
   13.3755   -9.8631  -23.1683 N   0  0  0  0  0  0  0  0  0  0  0  0
  2  1  1  1  0  0  0
  2  5  1  0  0  0  0
  2  3  1  0  0  0  0
  3 17  1  0  0  0  0
  3  4  1  0  0  0  0
  5  6  1  0  0  0  0
  7  8  1  0  0  0  0
  8  6  1  1  0  0  0
  8  9  1  0  0  0  0
 10  9  1  6  0  0  0
 10 11  1  0  0  0  0
 10 12  1  0  0  0  0
 11 16  1  0  0  0  0
 12 13  1  6  0  0  0
 12 14  1  0  0  0  0
 14 15  1  6  0  0  0
 14 16  1  0  0  0  0
 16 27  1  6  0  0  0
 18 23  2  0  0  0  0
 18 19  1  0  0  0  0
 19 20  2  0  0  0  0
 20 21  1  0  0  0  0
 21 22  2  0  0  0  0
 21 27  1  0  0  0  0
 22 23  1  0  0  0  0
 22 25  1  0  0  0  0
 23 24  1  0  0  0  0
 25 26  2  0  0  0  0
 26 27  1  0  0  0  0
M  END
>  <CHROM.1>
-64.64824082,-42.20298170,-72.04296756,-177.04594424,151.59835369,43.87774571
64.80064149,14.36568101,-8.25452799,-21.24117994,0.83387045,0.71048202,1.26793421

>  <Name>
ligand

>  <RI>
0

>  <Rbt.Current_Directory>
/home/itssahil/PROJECTS/Mol_Feturizer/New_Systems/rnas/3E5F

>  <Rbt.Executable>
rbdock ($Id: //depot/dev/client3/rdock/2013.1/src/exe/rbdock.cxx#4 $)

>  <Rbt.Library>
libRbt.so (2013.1, Build901 2013/11/27)

>  <Rbt.Parameter_File>
/export/apps/rDock/src/rDock_2013.1_src/data/scripts/dock_solv.prm

>  <Rbt.Receptor>
prm/pocket_docking_3.prm

>  <SCORE>
-17.9004

>  <SCORE.INTER>
-16.6385

>  <SCORE.INTER.CONST>
1

>  <SCORE.INTER.POLAR>
0

>  <SCORE.INTER.ROT>
7

>  <SCORE.INTER.SOLV>
19.1829

>  <SCORE.INTER.VDW>
-25.7533

>  <SCORE.INTER.norm>
-0.616239

>  <SCORE.INTRA>
-1.2619

>  <SCORE.INTRA.DIHEDRAL>
0.199978

>  <SCORE.INTRA.DIHEDRAL.0>
4.89803

>  <SCORE.INTRA.POLAR>
0

>  <SCORE.INTRA.POLAR.0>
0

>  <SCORE.INTRA.REPUL>
0

>  <SCORE.INTRA.REPUL.0>
0

>  <SCORE.INTRA.SOLV>
1.48258

>  <SCORE.INTRA.SOLV.lig_0>
-48.5832

>  <SCORE.INTRA.VDW>
-2.10318

>  <SCORE.INTRA.VDW.0>
-2.39056

>  <SCORE.INTRA.norm>
-0.046737

>  <SCORE.RESTR>
0

>  <SCORE.RESTR.CAVITY>
0

>  <SCORE.RESTR.norm>
0

>  <SCORE.SYSTEM>
0

>  <SCORE.SYSTEM.CONST>
0

>  <SCORE.SYSTEM.DIHEDRAL>
0

>  <SCORE.SYSTEM.SOLV>
0

>  <SCORE.SYSTEM.norm>
0

>  <SCORE.heavy>
27

>  <SCORE.norm>
-0.662977

>  <RMSD>
1.567

$$$$
ligand
 OpenBabel11021811473D
libRbt.so/2013.1/901 2013/11/27
 27 29  0  0  0  0  0  0  0  0999 V2000
   17.9008   -7.3027  -19.6926 N   0  0  0  0  0  0  0  0  0  0  0  0
   16.6239   -6.5737  -19.6881 C   0  0  2  0  0  0  0  0  0  0  0  0
   16.8786   -5.0729  -19.8576 C   0  0  0  0  0  0  0  0  0  0  0  0
   18.0687   -4.6916  -19.8157 O   0  0  0  0  0  0  0  0  0  0  0  0
   15.9211   -6.8179  -18.3515 C   0  0  0  0  0  0  0  0  0  0  0  0
   14.4562   -6.3745  -18.3835 C   0  0  0  0  0  0  0  0  0  0  0  0
   11.7742   -7.0765  -19.0035 C   0  0  0  0  0  0  0  0  0  0  0  0
   13.4883   -7.3643  -19.6236 Se  0  0  2  0  0  0  0  0  0  0  0  0
   13.7355   -9.1626  -19.2219 C   0  0  0  0  0  0  0  0  0  0  0  0
   12.5307  -10.0384  -19.5682 C   0  0  1  0  0  0  0  0  0  0  0  0
   12.1760   -9.7984  -20.9408 O   0  0  0  0  0  0  0  0  0  0  0  0
   13.0037  -11.4923  -19.5387 C   0  0  1  0  0  0  0  0  0  0  0  0
   11.8800  -12.3646  -19.6681 O   0  0  0  0  0  0  0  0  0  0  0  0
   13.8267  -11.5089  -20.8244 C   0  0  1  0  0  0  0  0  0  0  0  0
   13.9533  -12.8597  -21.2723 O   0  0  0  0  0  0  0  0  0  0  0  0
   12.8657  -10.7653  -21.7530 C   0  0  2  0  0  0  0  0  0  0  0  0
   15.8786   -4.3385  -20.0158 O   0  0  0  0  0  0  0  0  0  0  0  0
   15.5793   -6.6883  -23.3836 N   0  0  0  0  0  0  0  0  0  0  0  0
   15.0873   -6.9282  -22.1803 C   0  0  0  0  0  0  0  0  0  0  0  0
   14.4080   -8.0298  -21.9124 N   0  0  0  0  0  0  0  0  0  0  0  0
   14.1977   -8.9505  -22.8652 C   0  0  0  0  0  0  0  0  0  0  0  0
   14.6974   -8.7330  -24.1415 C   0  0  0  0  0  0  0  0  0  0  0  0
   15.4032   -7.5605  -24.3844 C   0  0  0  0  0  0  0  0  0  0  0  0
   15.8639   -7.2986  -25.6036 N   0  0  0  0  0  0  0  0  0  0  0  0
   14.3577   -9.7761  -24.8905 N   0  0  0  0  0  0  0  0  0  0  0  0
   13.6719  -10.6173  -24.1202 C   0  0  0  0  0  0  0  0  0  0  0  0
   13.5706  -10.1222  -22.8865 N   0  0  0  0  0  0  0  0  0  0  0  0
  2  1  1  1  0  0  0
  2  5  1  0  0  0  0
  2  3  1  0  0  0  0
  3 17  1  0  0  0  0
  3  4  1  0  0  0  0
  5  6  1  0  0  0  0
  7  8  1  0  0  0  0
  8  6  1  1  0  0  0
  8  9  1  0  0  0  0
 10  9  1  6  0  0  0
 10 11  1  0  0  0  0
 10 12  1  0  0  0  0
 11 16  1  0  0  0  0
 12 13  1  6  0  0  0
 12 14  1  0  0  0  0
 14 15  1  6  0  0  0
 14 16  1  0  0  0  0
 16 27  1  6  0  0  0
 18 23  2  0  0  0  0
 18 19  1  0  0  0  0
 19 20  2  0  0  0  0
 20 21  1  0  0  0  0
 21 22  2  0  0  0  0
 21 27  1  0  0  0  0
 22 23  1  0  0  0  0
 22 25  1  0  0  0  0
 23 24  1  0  0  0  0
 25 26  2  0  0  0  0
 26 27  1  0  0  0  0
M  END
>  <CHROM.1>
-166.60471194,-7.92335835,62.98760411,160.03343045,148.58424641,52.73957445
37.32519216,14.34529110,-8.29320951,-20.94204032,-0.63874663,-0.92998163
-2.02116163

>  <Name>
ligand

>  <RI>
0

>  <Rbt.Current_Directory>
/home/itssahil/PROJECTS/Mol_Feturizer/New_Systems/rnas/3E5F

>  <Rbt.Executable>
rbdock ($Id: //depot/dev/client3/rdock/2013.1/src/exe/rbdock.cxx#4 $)

>  <Rbt.Library>
libRbt.so (2013.1, Build901 2013/11/27)

>  <Rbt.Parameter_File>
/export/apps/rDock/src/rDock_2013.1_src/data/scripts/dock_solv.prm

>  <Rbt.Receptor>
prm/blind_docking_100.prm

>  <SCORE>
-16.0583

>  <SCORE.INTER>
-14.8897

>  <SCORE.INTER.CONST>
1

>  <SCORE.INTER.POLAR>
0

>  <SCORE.INTER.ROT>
7

>  <SCORE.INTER.SOLV>
19.988

>  <SCORE.INTER.VDW>
-24.8558

>  <SCORE.INTER.norm>
-0.551469

>  <SCORE.INTRA>
-1.17218

>  <SCORE.INTRA.DIHEDRAL>
-0.0415856

>  <SCORE.INTRA.DIHEDRAL.0>
4.89803

>  <SCORE.INTRA.POLAR>
0

>  <SCORE.INTRA.POLAR.0>
0

>  <SCORE.INTRA.REPUL>
0

>  <SCORE.INTRA.REPUL.0>
0

>  <SCORE.INTRA.SOLV>
0.426436

>  <SCORE.INTRA.SOLV.lig_0>
-48.5832

>  <SCORE.INTRA.VDW>
-1.3646

>  <SCORE.INTRA.VDW.0>
-2.39056

>  <SCORE.INTRA.norm>
-0.0434139

>  <SCORE.RESTR>
0.00357471

>  <SCORE.RESTR.CAVITY>
0.00357471

>  <SCORE.RESTR.norm>
0.000132397

>  <SCORE.SYSTEM>
0

>  <SCORE.SYSTEM.CONST>
0

>  <SCORE.SYSTEM.DIHEDRAL>
0

>  <SCORE.SYSTEM.SOLV>
0

>  <SCORE.SYSTEM.norm>
0

>  <SCORE.heavy>
27

>  <SCORE.norm>
-0.59475

>  <RMSD>
1.577

$$$$
ligand
 OpenBabel11021811473D
libRbt.so/2013.1/901 2013/11/27
 27 29  0  0  0  0  0  0  0  0999 V2000
   15.3880   -7.4370  -16.7539 N   0  0  0  0  0  0  0  0  0  0  0  0
   15.1240   -7.5650  -18.1947 C   0  0  2  0  0  0  0  0  0  0  0  0
   16.4300   -7.8526  -18.9415 C   0  0  0  0  0  0  0  0  0  0  0  0
   17.4506   -7.2427  -18.5542 O   0  0  0  0  0  0  0  0  0  0  0  0
   14.5297   -6.2515  -18.7060 C   0  0  0  0  0  0  0  0  0  0  0  0
   14.2682   -6.2879  -20.2139 C   0  0  0  0  0  0  0  0  0  0  0  0
   11.5243   -6.6409  -19.5684 C   0  0  0  0  0  0  0  0  0  0  0  0
   12.8383   -7.4056  -20.6144 Se  0  0  2  0  0  0  0  0  0  0  0  0
   13.1248   -9.0192  -19.7366 C   0  0  0  0  0  0  0  0  0  0  0  0
   12.0820  -10.0884  -20.0652 C   0  0  1  0  0  0  0  0  0  0  0  0
   11.7152   -9.9531  -21.4490 O   0  0  0  0  0  0  0  0  0  0  0  0
   12.7818  -11.4453  -19.9808 C   0  0  1  0  0  0  0  0  0  0  0  0
   11.8151  -12.4910  -20.0920 O   0  0  0  0  0  0  0  0  0  0  0  0
   13.6172  -11.3706  -21.2565 C   0  0  1  0  0  0  0  0  0  0  0  0
   13.9663  -12.6971  -21.6563 O   0  0  0  0  0  0  0  0  0  0  0  0
   12.5641  -10.8219  -22.2201 C   0  0  2  0  0  0  0  0  0  0  0  0
   16.3784   -8.6678  -19.8887 O   0  0  0  0  0  0  0  0  0  0  0  0
   16.0744   -7.3725  -23.7772 N   0  0  0  0  0  0  0  0  0  0  0  0
   15.8123   -7.7918  -22.5512 C   0  0  0  0  0  0  0  0  0  0  0  0
   14.8744   -8.6906  -22.3080 N   0  0  0  0  0  0  0  0  0  0  0  0
   14.1535   -9.2133  -23.3114 C   0  0  0  0  0  0  0  0  0  0  0  0
   14.3986   -8.7964  -24.6122 C   0  0  0  0  0  0  0  0  0  0  0  0
   15.3906   -7.8467  -24.8265 C   0  0  0  0  0  0  0  0  0  0  0  0
   15.6282   -7.3941  -26.0536 N   0  0  0  0  0  0  0  0  0  0  0  0
   13.5633   -9.4524  -25.4099 N   0  0  0  0  0  0  0  0  0  0  0  0
   12.8211  -10.2501  -24.6455 C   0  0  0  0  0  0  0  0  0  0  0  0
   13.1745  -10.1105  -23.3676 N   0  0  0  0  0  0  0  0  0  0  0  0
  2  1  1  1  0  0  0
  2  5  1  0  0  0  0
  2  3  1  0  0  0  0
  3 17  1  0  0  0  0
  3  4  1  0  0  0  0
  5  6  1  0  0  0  0
  7  8  1  0  0  0  0
  8  6  1  1  0  0  0
  8  9  1  0  0  0  0
 10  9  1  6  0  0  0
 10 11  1  0  0  0  0
 10 12  1  0  0  0  0
 11 16  1  0  0  0  0
 12 13  1  6  0  0  0
 12 14  1  0  0  0  0
 14 15  1  6  0  0  0
 14 16  1  0  0  0  0
 16 27  1  6  0  0  0
 18 23  2  0  0  0  0
 18 19  1  0  0  0  0
 19 20  2  0  0  0  0
 20 21  1  0  0  0  0
 21 22  2  0  0  0  0
 21 27  1  0  0  0  0
 22 23  1  0  0  0  0
 22 25  1  0  0  0  0
 23 24  1  0  0  0  0
 25 26  2  0  0  0  0
 26 27  1  0  0  0  0
M  END
>  <CHROM.1>
178.11716679,-39.43775270,71.13667781,56.31922652,-175.20730591,36.24803766
73.30617113,13.92521686,-8.68991239,-21.24898477,1.32044876,0.89434579,1.34301920

>  <Name>
ligand

>  <RI>
0

>  <Rbt.Current_Directory>
/home/itssahil/PROJECTS/Mol_Feturizer/New_Systems/rnas/3E5F

>  <Rbt.Executable>
rbdock ($Id: //depot/dev/client3/rdock/2013.1/src/exe/rbdock.cxx#4 $)

>  <Rbt.Library>
libRbt.so (2013.1, Build901 2013/11/27)

>  <Rbt.Parameter_File>
/export/apps/rDock/src/rDock_2013.1_src/data/scripts/dock_solv.prm

>  <Rbt.Receptor>
prm/pocket_docking_3.prm

>  <SCORE>
-17.5437

>  <SCORE.INTER>
-17.2938

>  <SCORE.INTER.CONST>
1

>  <SCORE.INTER.POLAR>
0

>  <SCORE.INTER.ROT>
7

>  <SCORE.INTER.SOLV>
19.6843

>  <SCORE.INTER.VDW>
-26.3573

>  <SCORE.INTER.norm>
-0.64051

>  <SCORE.INTRA>
-0.249949

>  <SCORE.INTRA.DIHEDRAL>
0.391124

>  <SCORE.INTRA.DIHEDRAL.0>
4.89803

>  <SCORE.INTRA.POLAR>
0

>  <SCORE.INTRA.POLAR.0>
0

>  <SCORE.INTRA.REPUL>
0

>  <SCORE.INTRA.REPUL.0>
0

>  <SCORE.INTRA.SOLV>
0.565142

>  <SCORE.INTRA.SOLV.lig_0>
-48.5832

>  <SCORE.INTRA.VDW>
-0.728082

>  <SCORE.INTRA.VDW.0>
-2.39056

>  <SCORE.INTRA.norm>
-0.00925736

>  <SCORE.RESTR>
0

>  <SCORE.RESTR.CAVITY>
0

>  <SCORE.RESTR.norm>
0

>  <SCORE.SYSTEM>
0

>  <SCORE.SYSTEM.CONST>
0

>  <SCORE.SYSTEM.DIHEDRAL>
0

>  <SCORE.SYSTEM.SOLV>
0

>  <SCORE.SYSTEM.norm>
0

>  <SCORE.heavy>
27

>  <SCORE.norm>
-0.649768

>  <RMSD>
1.585

$$$$
ligand
 OpenBabel11021811473D
libRbt.so/2013.1/901 2013/11/27
 27 29  0  0  0  0  0  0  0  0999 V2000
   13.9949   -5.6517  -17.8035 N   0  0  0  0  0  0  0  0  0  0  0  0
   14.0598   -6.8509  -18.6517 C   0  0  2  0  0  0  0  0  0  0  0  0
   15.4510   -7.4845  -18.5549 C   0  0  0  0  0  0  0  0  0  0  0  0
   15.6345   -8.5486  -19.1855 O   0  0  0  0  0  0  0  0  0  0  0  0
   13.7908   -6.4448  -20.1017 C   0  0  0  0  0  0  0  0  0  0  0  0
   12.3484   -5.9754  -20.3086 C   0  0  0  0  0  0  0  0  0  0  0  0
   10.5718   -7.0942  -18.3949 C   0  0  0  0  0  0  0  0  0  0  0  0
   11.1554   -7.3882  -20.1207 Se  0  0  2  0  0  0  0  0  0  0  0  0
   12.1547   -8.9429  -19.9190 C   0  0  0  0  0  0  0  0  0  0  0  0
   11.4149  -10.2072  -20.3580 C   0  0  1  0  0  0  0  0  0  0  0  0
   11.2827  -10.1806  -21.7896 O   0  0  0  0  0  0  0  0  0  0  0  0
   12.3378  -11.3934  -20.0762 C   0  0  1  0  0  0  0  0  0  0  0  0
   11.6279  -12.6145  -20.2896 O   0  0  0  0  0  0  0  0  0  0  0  0
   13.3575  -11.1819  -21.1925 C   0  0  1  0  0  0  0  0  0  0  0  0
   14.0228  -12.4200  -21.4486 O   0  0  0  0  0  0  0  0  0  0  0  0
   12.4079  -10.8787  -22.3522 C   0  0  2  0  0  0  0  0  0  0  0  0
   16.2976   -6.8973  -17.8458 O   0  0  0  0  0  0  0  0  0  0  0  0
   16.0082   -7.3660  -23.5113 N   0  0  0  0  0  0  0  0  0  0  0  0
   15.7008   -7.8790  -22.3324 C   0  0  0  0  0  0  0  0  0  0  0  0
   14.7448   -8.7808  -22.1930 N   0  0  0  0  0  0  0  0  0  0  0  0
   14.0514   -9.2104  -23.2581 C   0  0  0  0  0  0  0  0  0  0  0  0
   14.3443   -8.6935  -24.5123 C   0  0  0  0  0  0  0  0  0  0  0  0
   15.3540   -7.7440  -24.6169 C   0  0  0  0  0  0  0  0  0  0  0  0
   15.6374   -7.1974  -25.7951 N   0  0  0  0  0  0  0  0  0  0  0  0
   13.5282   -9.2709  -25.3868 N   0  0  0  0  0  0  0  0  0  0  0  0
   12.7518  -10.1169  -24.7138 C   0  0  0  0  0  0  0  0  0  0  0  0
   13.0643  -10.0859  -23.4181 N   0  0  0  0  0  0  0  0  0  0  0  0
  2  1  1  1  0  0  0
  2  5  1  0  0  0  0
  2  3  1  0  0  0  0
  3 17  1  0  0  0  0
  3  4  1  0  0  0  0
  5  6  1  0  0  0  0
  7  8  1  0  0  0  0
  8  6  1  1  0  0  0
  8  9  1  0  0  0  0
 10  9  1  6  0  0  0
 10 11  1  0  0  0  0
 10 12  1  0  0  0  0
 11 16  1  0  0  0  0
 12 13  1  6  0  0  0
 12 14  1  0  0  0  0
 14 15  1  6  0  0  0
 14 16  1  0  0  0  0
 16 27  1  6  0  0  0
 18 23  2  0  0  0  0
 18 19  1  0  0  0  0
 19 20  2  0  0  0  0
 20 21  1  0  0  0  0
 21 22  2  0  0  0  0
 21 27  1  0  0  0  0
 22 23  1  0  0  0  0
 22 25  1  0  0  0  0
 23 24  1  0  0  0  0
 25 26  2  0  0  0  0
 26 27  1  0  0  0  0
M  END
>  <CHROM.1>
-67.56979993,177.17195026,-68.36810851,99.85727531,-154.59549824,69.89573507
89.62890356,13.21261513,-8.57408181,-21.15007245,-1.90266741,-0.71863934
-2.22682260

>  <Name>
ligand

>  <RI>
0

>  <Rbt.Current_Directory>
/home/itssahil/PROJECTS/Mol_Feturizer/New_Systems/rnas/3E5F

>  <Rbt.Executable>
rbdock ($Id: //depot/dev/client3/rdock/2013.1/src/exe/rbdock.cxx#4 $)

>  <Rbt.Library>
libRbt.so (2013.1, Build901 2013/11/27)

>  <Rbt.Parameter_File>
/export/apps/rDock/src/rDock_2013.1_src/data/scripts/dock_solv.prm

>  <Rbt.Receptor>
prm/pocket_docking_3.prm

>  <SCORE>
-16.0927

>  <SCORE.INTER>
-17.635

>  <SCORE.INTER.CONST>
1

>  <SCORE.INTER.POLAR>
0

>  <SCORE.INTER.ROT>
7

>  <SCORE.INTER.SOLV>
18.274

>  <SCORE.INTER.VDW>
-26.1147

>  <SCORE.INTER.norm>
-0.653149

>  <SCORE.INTRA>
1.54231

>  <SCORE.INTRA.DIHEDRAL>
2.13754

>  <SCORE.INTRA.DIHEDRAL.0>
4.89803

>  <SCORE.INTRA.POLAR>
0

>  <SCORE.INTRA.POLAR.0>
0

>  <SCORE.INTRA.REPUL>
0

>  <SCORE.INTRA.REPUL.0>
0

>  <SCORE.INTRA.SOLV>
1.7186

>  <SCORE.INTRA.SOLV.lig_0>
-48.5832

>  <SCORE.INTRA.VDW>
-0.385759

>  <SCORE.INTRA.VDW.0>
-2.39056

>  <SCORE.INTRA.norm>
0.0571227

>  <SCORE.RESTR>
0

>  <SCORE.RESTR.CAVITY>
0

>  <SCORE.RESTR.norm>
0

>  <SCORE.SYSTEM>
0

>  <SCORE.SYSTEM.CONST>
0

>  <SCORE.SYSTEM.DIHEDRAL>
0

>  <SCORE.SYSTEM.SOLV>
0

>  <SCORE.SYSTEM.norm>
0

>  <SCORE.heavy>
27

>  <SCORE.norm>
-0.596026

>  <RMSD>
1.609

$$$$
ligand
 OpenBabel11021811473D
libRbt.so/2013.1/901 2013/11/27
 27 29  0  0  0  0  0  0  0  0999 V2000
   15.7385   -6.9072  -17.7931 N   0  0  0  0  0  0  0  0  0  0  0  0
   15.1502   -6.5655  -19.0966 C   0  0  2  0  0  0  0  0  0  0  0  0
   16.0022   -5.4984  -19.7906 C   0  0  0  0  0  0  0  0  0  0  0  0
   16.8076   -4.8628  -19.0757 O   0  0  0  0  0  0  0  0  0  0  0  0
   13.7398   -6.0173  -18.8729 C   0  0  0  0  0  0  0  0  0  0  0  0
   12.9350   -5.9542  -20.1736 C   0  0  0  0  0  0  0  0  0  0  0  0
   10.7021   -6.9173  -18.7049 C   0  0  0  0  0  0  0  0  0  0  0  0
   11.6603   -7.3055  -20.2336 Se  0  0  2  0  0  0  0  0  0  0  0  0
   12.5024   -8.8925  -19.7555 C   0  0  0  0  0  0  0  0  0  0  0  0
   11.7084  -10.1442  -20.1316 C   0  0  1  0  0  0  0  0  0  0  0  0
   11.4908  -10.1323  -21.5530 O   0  0  0  0  0  0  0  0  0  0  0  0
   12.6189  -11.3485  -19.8891 C   0  0  1  0  0  0  0  0  0  0  0  0
   11.8693  -12.5547  -20.0426 O   0  0  0  0  0  0  0  0  0  0  0  0
   13.5741  -11.1755  -21.0674 C   0  0  1  0  0  0  0  0  0  0  0  0
   14.1939  -12.4323  -21.3457 O   0  0  0  0  0  0  0  0  0  0  0  0
   12.5636  -10.8641  -22.1723 C   0  0  2  0  0  0  0  0  0  0  0  0
   15.8237   -5.3344  -21.0176 O   0  0  0  0  0  0  0  0  0  0  0  0
   16.0112   -7.2828  -23.5627 N   0  0  0  0  0  0  0  0  0  0  0  0
   15.7421   -7.7487  -22.3552 C   0  0  0  0  0  0  0  0  0  0  0  0
   14.8228   -8.6770  -22.1557 N   0  0  0  0  0  0  0  0  0  0  0  0
   14.1289   -9.1830  -23.1864 C   0  0  0  0  0  0  0  0  0  0  0  0
   14.3822   -8.7173  -24.4690 C   0  0  0  0  0  0  0  0  0  0  0  0
   15.3539   -7.7379  -24.6371 C   0  0  0  0  0  0  0  0  0  0  0  0
   15.5977   -7.2393  -25.8451 N   0  0  0  0  0  0  0  0  0  0  0  0
   13.5743   -9.3661  -25.3001 N   0  0  0  0  0  0  0  0  0  0  0  0
   12.8409  -10.2061  -24.5735 C   0  0  0  0  0  0  0  0  0  0  0  0
   13.1728  -10.1007  -23.2866 N   0  0  0  0  0  0  0  0  0  0  0  0
  2  1  1  1  0  0  0
  2  5  1  0  0  0  0
  2  3  1  0  0  0  0
  3 17  1  0  0  0  0
  3  4  1  0  0  0  0
  5  6  1  0  0  0  0
  7  8  1  0  0  0  0
  8  6  1  1  0  0  0
  8  9  1  0  0  0  0
 10  9  1  6  0  0  0
 10 11  1  0  0  0  0
 10 12  1  0  0  0  0
 11 16  1  0  0  0  0
 12 13  1  6  0  0  0
 12 14  1  0  0  0  0
 14 15  1  6  0  0  0
 14 16  1  0  0  0  0
 16 27  1  6  0  0  0
 18 23  2  0  0  0  0
 18 19  1  0  0  0  0
 19 20  2  0  0  0  0
 20 21  1  0  0  0  0
 21 22  2  0  0  0  0
 21 27  1  0  0  0  0
 22 23  1  0  0  0  0
 22 25  1  0  0  0  0
 23 24  1  0  0  0  0
 25 26  2  0  0  0  0
 26 27  1  0  0  0  0
M  END
>  <CHROM.1>
-166.21578974,-17.07775909,105.60288659,58.12219866,-163.64506557,58.39342032
84.91605962,13.52954839,-8.31231189,-21.23739424,1.21089475,0.80289784,0.86614368

>  <Name>
ligand

>  <RI>
0

>  <Rbt.Current_Directory>
/home/itssahil/PROJECTS/Mol_Feturizer/New_Systems/rnas/3E5F

>  <Rbt.Executable>
rbdock ($Id: //depot/dev/client3/rdock/2013.1/src/exe/rbdock.cxx#4 $)

>  <Rbt.Library>
libRbt.so (2013.1, Build901 2013/11/27)

>  <Rbt.Parameter_File>
/export/apps/rDock/src/rDock_2013.1_src/data/scripts/dock_solv.prm

>  <Rbt.Receptor>
prm/pocket_docking_3.prm

>  <SCORE>
-15.2436

>  <SCORE.INTER>
-17.0663

>  <SCORE.INTER.CONST>
1

>  <SCORE.INTER.POLAR>
0

>  <SCORE.INTER.ROT>
7

>  <SCORE.INTER.SOLV>
18.4247

>  <SCORE.INTER.VDW>
-25.7858

>  <SCORE.INTER.norm>
-0.632086

>  <SCORE.INTRA>
1.82276

>  <SCORE.INTRA.DIHEDRAL>
4.33088

>  <SCORE.INTRA.DIHEDRAL.0>
4.89803

>  <SCORE.INTRA.POLAR>
0

>  <SCORE.INTRA.POLAR.0>
0

>  <SCORE.INTRA.REPUL>
0

>  <SCORE.INTRA.REPUL.0>
0

>  <SCORE.INTRA.SOLV>
0.370139

>  <SCORE.INTRA.SOLV.lig_0>
-48.5832

>  <SCORE.INTRA.VDW>
-0.527746

>  <SCORE.INTRA.VDW.0>
-2.39056

>  <SCORE.INTRA.norm>
0.0675098

>  <SCORE.RESTR>
0

>  <SCORE.RESTR.CAVITY>
0

>  <SCORE.RESTR.norm>
0

>  <SCORE.SYSTEM>
0

>  <SCORE.SYSTEM.CONST>
0

>  <SCORE.SYSTEM.DIHEDRAL>
0

>  <SCORE.SYSTEM.SOLV>
0

>  <SCORE.SYSTEM.norm>
0

>  <SCORE.heavy>
27

>  <SCORE.norm>
-0.564576

>  <RMSD>
1.631

$$$$
ligand
 OpenBabel11021811473D
libRbt.so/2013.1/901 2013/11/27
 27 29  0  0  0  0  0  0  0  0999 V2000
   13.2994   -5.7699  -17.0017 N   0  0  0  0  0  0  0  0  0  0  0  0
   14.7089   -5.9954  -16.6493 C   0  0  2  0  0  0  0  0  0  0  0  0
   15.2788   -4.7545  -15.9555 C   0  0  0  0  0  0  0  0  0  0  0  0
   14.4947   -3.7983  -15.7700 O   0  0  0  0  0  0  0  0  0  0  0  0
   15.5006   -6.2650  -17.9301 C   0  0  0  0  0  0  0  0  0  0  0  0
   15.4672   -7.7435  -18.3255 C   0  0  0  0  0  0  0  0  0  0  0  0
   13.0091   -8.7359  -17.3040 C   0  0  0  0  0  0  0  0  0  0  0  0
   13.7731   -8.2383  -18.9085 Se  0  0  2  0  0  0  0  0  0  0  0  0
   13.9335   -9.8770  -19.7717 C   0  0  0  0  0  0  0  0  0  0  0  0
   12.5904  -10.5104  -20.1370 C   0  0  1  0  0  0  0  0  0  0  0  0
   12.1220   -9.9078  -21.3557 O   0  0  0  0  0  0  0  0  0  0  0  0
   12.8625  -11.9692  -20.5059 C   0  0  1  0  0  0  0  0  0  0  0  0
   11.6237  -12.6606  -20.6727 O   0  0  0  0  0  0  0  0  0  0  0  0
   13.5286  -11.7592  -21.8634 C   0  0  1  0  0  0  0  0  0  0  0  0
   13.4210  -12.9661  -22.6204 O   0  0  0  0  0  0  0  0  0  0  0  0
   12.5805  -10.7152  -22.4548 C   0  0  2  0  0  0  0  0  0  0  0  0
   16.4873   -4.7845  -15.6343 O   0  0  0  0  0  0  0  0  0  0  0  0
   16.1439   -7.1332  -23.5110 N   0  0  0  0  0  0  0  0  0  0  0  0
   15.8320   -7.6725  -22.3451 C   0  0  0  0  0  0  0  0  0  0  0  0
   14.8870   -8.5896  -22.2324 N   0  0  0  0  0  0  0  0  0  0  0  0
   14.2100   -9.0081  -23.3124 C   0  0  0  0  0  0  0  0  0  0  0  0
   14.5082   -8.4636  -24.5536 C   0  0  0  0  0  0  0  0  0  0  0  0
   15.5059   -7.4989  -24.6301 C   0  0  0  0  0  0  0  0  0  0  0  0
   15.7933   -6.9262  -25.7948 N   0  0  0  0  0  0  0  0  0  0  0  0
   13.7086   -9.0352  -25.4471 N   0  0  0  0  0  0  0  0  0  0  0  0
   12.9372   -9.9041  -24.7980 C   0  0  0  0  0  0  0  0  0  0  0  0
   13.2365   -9.8936  -23.4989 N   0  0  0  0  0  0  0  0  0  0  0  0
  2  1  1  6  0  0  0
  2  5  1  0  0  0  0
  2  3  1  0  0  0  0
  3 17  1  0  0  0  0
  3  4  1  0  0  0  0
  5  6  1  0  0  0  0
  7  8  1  0  0  0  0
  8  6  1  1  0  0  0
  8  9  1  0  0  0  0
 10  9  1  6  0  0  0
 10 11  1  0  0  0  0
 10 12  1  0  0  0  0
 11 16  1  0  0  0  0
 12 13  1  6  0  0  0
 12 14  1  0  0  0  0
 14 15  1  6  0  0  0
 14 16  1  0  0  0  0
 16 27  1  6  0  0  0
 18 23  2  0  0  0  0
 18 19  1  0  0  0  0
 19 20  2  0  0  0  0
 20 21  1  0  0  0  0
 21 22  2  0  0  0  0
 21 27  1  0  0  0  0
 22 23  1  0  0  0  0
 22 25  1  0  0  0  0
 23 24  1  0  0  0  0
 25 26  2  0  0  0  0
 26 27  1  0  0  0  0
M  END
>  <CHROM.1>
-86.35892024,1.71853764,69.96194927,-88.86015504,171.88510651,81.40409569
51.36522573,14.05489790,-8.50123417,-20.47475726,1.30127227,1.04092511,1.24499528

>  <Name>
ligand

>  <RI>
0

>  <Rbt.Current_Directory>
/home/itssahil/PROJECTS/Mol_Feturizer/New_Systems/rnas/3E5F

>  <Rbt.Executable>
rbdock ($Id: //depot/dev/client3/rdock/2013.1/src/exe/rbdock.cxx#4 $)

>  <Rbt.Library>
libRbt.so (2013.1, Build901 2013/11/27)

>  <Rbt.Parameter_File>
/export/apps/rDock/src/rDock_2013.1_src/data/scripts/dock_solv.prm

>  <Rbt.Receptor>
prm/pocket_docking_4.prm

>  <SCORE>
-12.7623

>  <SCORE.INTER>
-15.242

>  <SCORE.INTER.CONST>
1

>  <SCORE.INTER.POLAR>
0

>  <SCORE.INTER.ROT>
7

>  <SCORE.INTER.SOLV>
18.736

>  <SCORE.INTER.VDW>
-24.6734

>  <SCORE.INTER.norm>
-0.56452

>  <SCORE.INTRA>
2.47971

>  <SCORE.INTRA.DIHEDRAL>
2.92508

>  <SCORE.INTRA.DIHEDRAL.0>
4.89803

>  <SCORE.INTRA.POLAR>
0

>  <SCORE.INTRA.POLAR.0>
0

>  <SCORE.INTRA.REPUL>
0

>  <SCORE.INTRA.REPUL.0>
0

>  <SCORE.INTRA.SOLV>
2.33018

>  <SCORE.INTRA.SOLV.lig_0>
-48.5832

>  <SCORE.INTRA.VDW>
-0.147921

>  <SCORE.INTRA.VDW.0>
-2.39056

>  <SCORE.INTRA.norm>
0.0918411

>  <SCORE.RESTR>
0

>  <SCORE.RESTR.CAVITY>
0

>  <SCORE.RESTR.norm>
0

>  <SCORE.SYSTEM>
0

>  <SCORE.SYSTEM.CONST>
0

>  <SCORE.SYSTEM.DIHEDRAL>
0

>  <SCORE.SYSTEM.SOLV>
0

>  <SCORE.SYSTEM.norm>
0

>  <SCORE.heavy>
27

>  <SCORE.norm>
-0.472679

>  <RMSD>
1.654

$$$$
ligand
 OpenBabel11021811473D
libRbt.so/2013.1/901 2013/11/27
 27 29  0  0  0  0  0  0  0  0999 V2000
   17.4170   -7.3384  -19.2408 N   0  0  0  0  0  0  0  0  0  0  0  0
   16.3948   -6.3021  -19.4480 C   0  0  2  0  0  0  0  0  0  0  0  0
   17.0631   -4.9789  -19.8335 C   0  0  0  0  0  0  0  0  0  0  0  0
   16.3109   -4.0490  -20.1983 O   0  0  0  0  0  0  0  0  0  0  0  0
   15.6140   -6.1120  -18.1464 C   0  0  0  0  0  0  0  0  0  0  0  0
   14.8778   -7.3868  -17.7268 C   0  0  0  0  0  0  0  0  0  0  0  0
   12.1620   -8.2194  -17.7676 C   0  0  0  0  0  0  0  0  0  0  0  0
   13.5292   -7.8049  -18.9357 Se  0  0  2  0  0  0  0  0  0  0  0  0
   13.9221   -9.4715  -19.6598 C   0  0  0  0  0  0  0  0  0  0  0  0
   12.6819  -10.3016  -19.9936 C   0  0  1  0  0  0  0  0  0  0  0  0
   12.1759   -9.8675  -21.2677 O   0  0  0  0  0  0  0  0  0  0  0  0
   13.1485  -11.7383  -20.2312 C   0  0  1  0  0  0  0  0  0  0  0  0
   12.0134  -12.5958  -20.3605 O   0  0  0  0  0  0  0  0  0  0  0  0
   13.8213  -11.5566  -21.5895 C   0  0  1  0  0  0  0  0  0  0  0  0
   13.8905  -12.8256  -22.2422 O   0  0  0  0  0  0  0  0  0  0  0  0
   12.7652  -10.6967  -22.2851 C   0  0  2  0  0  0  0  0  0  0  0  0
   18.3109   -4.9283  -19.7646 O   0  0  0  0  0  0  0  0  0  0  0  0
   16.1469   -7.0323  -23.6198 N   0  0  0  0  0  0  0  0  0  0  0  0
   15.9107   -7.5458  -22.4248 C   0  0  0  0  0  0  0  0  0  0  0  0
   15.0047   -8.4899  -22.2389 N   0  0  0  0  0  0  0  0  0  0  0  0
   14.2910   -8.9635  -23.2714 C   0  0  0  0  0  0  0  0  0  0  0  0
   14.5096   -8.4476  -24.5411 C   0  0  0  0  0  0  0  0  0  0  0  0
   15.4683   -7.4531  -24.6949 C   0  0  0  0  0  0  0  0  0  0  0  0
   15.6789   -6.9072  -25.8885 N   0  0  0  0  0  0  0  0  0  0  0  0
   13.6879   -9.0726  -25.3770 N   0  0  0  0  0  0  0  0  0  0  0  0
   12.9794   -9.9463  -24.6656 C   0  0  0  0  0  0  0  0  0  0  0  0
   13.3409   -9.8861  -23.3838 N   0  0  0  0  0  0  0  0  0  0  0  0
  2  1  1  1  0  0  0
  2  5  1  0  0  0  0
  2  3  1  0  0  0  0
  3 17  1  0  0  0  0
  3  4  1  0  0  0  0
  5  6  1  0  0  0  0
  7  8  1  0  0  0  0
  8  6  1  1  0  0  0
  8  9  1  0  0  0  0
 10  9  1  6  0  0  0
 10 11  1  0  0  0  0
 10 12  1  0  0  0  0
 11 16  1  0  0  0  0
 12 13  1  6  0  0  0
 12 14  1  0  0  0  0
 14 15  1  6  0  0  0
 14 16  1  0  0  0  0
 16 27  1  6  0  0  0
 18 23  2  0  0  0  0
 18 19  1  0  0  0  0
 19 20  2  0  0  0  0
 20 21  1  0  0  0  0
 21 22  2  0  0  0  0
 21 27  1  0  0  0  0
 22 23  1  0  0  0  0
 22 25  1  0  0  0  0
 23 24  1  0  0  0  0
 25 26  2  0  0  0  0
 26 27  1  0  0  0  0
M  END
>  <CHROM.1>
-61.97526332,171.59242223,-66.48254880,-135.33935479,146.87761494,81.67526533
58.90221075,14.39668743,-8.41584042,-20.99996913,-0.76061562,-0.92408320
-1.83343087

>  <Name>
ligand

>  <RI>
0

>  <Rbt.Current_Directory>
/home/itssahil/PROJECTS/Mol_Feturizer/New_Systems/rnas/3E5F

>  <Rbt.Executable>
rbdock ($Id: //depot/dev/client3/rdock/2013.1/src/exe/rbdock.cxx#4 $)

>  <Rbt.Library>
libRbt.so (2013.1, Build901 2013/11/27)

>  <Rbt.Parameter_File>
/export/apps/rDock/src/rDock_2013.1_src/data/scripts/dock_solv.prm

>  <Rbt.Receptor>
prm/pocket_docking_3.prm

>  <SCORE>
-15.5476

>  <SCORE.INTER>
-17.123

>  <SCORE.INTER.CONST>
1

>  <SCORE.INTER.POLAR>
0

>  <SCORE.INTER.ROT>
7

>  <SCORE.INTER.SOLV>
19.981

>  <SCORE.INTER.VDW>
-26.3424

>  <SCORE.INTER.norm>
-0.634186

>  <SCORE.INTRA>
1.57542

>  <SCORE.INTRA.DIHEDRAL>
2.70551

>  <SCORE.INTRA.DIHEDRAL.0>
4.89803

>  <SCORE.INTRA.POLAR>
0

>  <SCORE.INTRA.POLAR.0>
0

>  <SCORE.INTRA.REPUL>
0

>  <SCORE.INTRA.REPUL.0>
0

>  <SCORE.INTRA.SOLV>
1.50649

>  <SCORE.INTRA.SOLV.lig_0>
-48.5832

>  <SCORE.INTRA.VDW>
-0.530587

>  <SCORE.INTRA.VDW.0>
-2.39056

>  <SCORE.INTRA.norm>
0.0583488

>  <SCORE.RESTR>
0

>  <SCORE.RESTR.CAVITY>
0

>  <SCORE.RESTR.norm>
0

>  <SCORE.SYSTEM>
0

>  <SCORE.SYSTEM.CONST>
0

>  <SCORE.SYSTEM.DIHEDRAL>
0

>  <SCORE.SYSTEM.SOLV>
0

>  <SCORE.SYSTEM.norm>
0

>  <SCORE.heavy>
27

>  <SCORE.norm>
-0.575837

>  <RMSD>
1.689

$$$$
ligand
 OpenBabel11021811473D
libRbt.so/2013.1/901 2013/11/27
 27 29  0  0  0  0  0  0  0  0999 V2000
   16.3077   -5.2993  -17.4315 N   0  0  0  0  0  0  0  0  0  0  0  0
   16.8277   -6.1241  -18.5320 C   0  0  2  0  0  0  0  0  0  0  0  0
   17.6670   -5.2616  -19.4796 C   0  0  0  0  0  0  0  0  0  0  0  0
   18.8650   -5.5866  -19.6307 O   0  0  0  0  0  0  0  0  0  0  0  0
   15.6479   -6.7184  -19.3033 C   0  0  0  0  0  0  0  0  0  0  0  0
   14.7228   -7.5355  -18.3977 C   0  0  0  0  0  0  0  0  0  0  0  0
   12.0189   -8.2715  -17.9318 C   0  0  0  0  0  0  0  0  0  0  0  0
   13.2167   -8.1054  -19.3258 Se  0  0  2  0  0  0  0  0  0  0  0  0
   13.4892   -9.8823  -19.7999 C   0  0  0  0  0  0  0  0  0  0  0  0
   12.2211  -10.5890  -20.2806 C   0  0  1  0  0  0  0  0  0  0  0  0
   11.8332  -10.0156  -21.5409 O   0  0  0  0  0  0  0  0  0  0  0  0
   12.6042  -12.0316  -20.6127 C   0  0  1  0  0  0  0  0  0  0  0  0
   11.4250  -12.7900  -20.8858 O   0  0  0  0  0  0  0  0  0  0  0  0
   13.3783  -11.7886  -21.9059 C   0  0  1  0  0  0  0  0  0  0  0  0
   13.4053  -13.0013  -22.6608 O   0  0  0  0  0  0  0  0  0  0  0  0
   12.4325  -10.7993  -22.5882 C   0  0  2  0  0  0  0  0  0  0  0  0
   17.0963   -4.2912  -20.0245 O   0  0  0  0  0  0  0  0  0  0  0  0
   16.0913   -7.2447  -23.3771 N   0  0  0  0  0  0  0  0  0  0  0  0
   15.7341   -7.8287  -22.2463 C   0  0  0  0  0  0  0  0  0  0  0  0
   14.7695   -8.7311  -22.2027 N   0  0  0  0  0  0  0  0  0  0  0  0
   14.1183   -9.0883  -23.3199 C   0  0  0  0  0  0  0  0  0  0  0  0
   14.4642   -8.4956  -24.5262 C   0  0  0  0  0  0  0  0  0  0  0  0
   15.4811   -7.5482  -24.5299 C   0  0  0  0  0  0  0  0  0  0  0  0
   15.8144   -6.9305  -25.6589 N   0  0  0  0  0  0  0  0  0  0  0  0
   13.6820   -9.0115  -25.4677 N   0  0  0  0  0  0  0  0  0  0  0  0
   12.8753   -9.8929  -24.8812 C   0  0  0  0  0  0  0  0  0  0  0  0
   13.1350   -9.9455  -23.5746 N   0  0  0  0  0  0  0  0  0  0  0  0
  2  1  1  1  0  0  0
  2  5  1  0  0  0  0
  2  3  1  0  0  0  0
  3 17  1  0  0  0  0
  3  4  1  0  0  0  0
  5  6  1  0  0  0  0
  7  8  1  0  0  0  0
  8  6  1  1  0  0  0
  8  9  1  0  0  0  0
 10  9  1  6  0  0  0
 10 11  1  0  0  0  0
 10 12  1  0  0  0  0
 11 16  1  0  0  0  0
 12 13  1  6  0  0  0
 12 14  1  0  0  0  0
 14 15  1  6  0  0  0
 14 16  1  0  0  0  0
 16 27  1  6  0  0  0
 18 23  2  0  0  0  0
 18 19  1  0  0  0  0
 19 20  2  0  0  0  0
 20 21  1  0  0  0  0
 21 22  2  0  0  0  0
 21 27  1  0  0  0  0
 22 23  1  0  0  0  0
 22 25  1  0  0  0  0
 23 24  1  0  0  0  0
 25 26  2  0  0  0  0
 26 27  1  0  0  0  0
M  END
>  <CHROM.1>
-56.97912615,120.12607707,174.52024177,-153.70427995,166.58815916,68.19136608
57.50204217,14.23056197,-8.55448910,-21.10599265,0.67246831,0.83118568,1.30919726

>  <Name>
ligand

>  <RI>
0

>  <Rbt.Current_Directory>
/home/itssahil/PROJECTS/Mol_Feturizer/New_Systems/rnas/3E5F

>  <Rbt.Executable>
rbdock ($Id: //depot/dev/client3/rdock/2013.1/src/exe/rbdock.cxx#4 $)

>  <Rbt.Library>
libRbt.so (2013.1, Build901 2013/11/27)

>  <Rbt.Parameter_File>
/export/apps/rDock/src/rDock_2013.1_src/data/scripts/dock_solv.prm

>  <Rbt.Receptor>
prm/pocket_docking_3.prm

>  <SCORE>
-16.2487

>  <SCORE.INTER>
-15.797

>  <SCORE.INTER.CONST>
1

>  <SCORE.INTER.POLAR>
0

>  <SCORE.INTER.ROT>
7

>  <SCORE.INTER.SOLV>
21.0932

>  <SCORE.INTER.VDW>
-25.8291

>  <SCORE.INTER.norm>
-0.585076

>  <SCORE.INTRA>
-0.457087

>  <SCORE.INTRA.DIHEDRAL>
-0.17842

>  <SCORE.INTRA.DIHEDRAL.0>
4.89803

>  <SCORE.INTRA.POLAR>
0

>  <SCORE.INTRA.POLAR.0>
0

>  <SCORE.INTRA.REPUL>
0

>  <SCORE.INTRA.REPUL.0>
0

>  <SCORE.INTRA.SOLV>
0.721264

>  <SCORE.INTRA.SOLV.lig_0>
-48.5832

>  <SCORE.INTRA.VDW>
-0.728509

>  <SCORE.INTRA.VDW.0>
-2.39056

>  <SCORE.INTRA.norm>
-0.0169291

>  <SCORE.RESTR>
0.00542634

>  <SCORE.RESTR.CAVITY>
0.00542634

>  <SCORE.RESTR.norm>
0.000200976

>  <SCORE.SYSTEM>
0

>  <SCORE.SYSTEM.CONST>
0

>  <SCORE.SYSTEM.DIHEDRAL>
0

>  <SCORE.SYSTEM.SOLV>
0

>  <SCORE.SYSTEM.norm>
0

>  <SCORE.heavy>
27

>  <SCORE.norm>
-0.601804

>  <RMSD>
1.721

$$$$
ligand
 OpenBabel11021811473D
libRbt.so/2013.1/901 2013/11/27
 27 29  0  0  0  0  0  0  0  0999 V2000
   16.6901   -5.0446  -16.7128 N   0  0  0  0  0  0  0  0  0  0  0  0
   16.7924   -6.1490  -17.6779 C   0  0  2  0  0  0  0  0  0  0  0  0
   17.5128   -5.6723  -18.9428 C   0  0  0  0  0  0  0  0  0  0  0  0
   18.5853   -6.2452  -19.2344 O   0  0  0  0  0  0  0  0  0  0  0  0
   15.3826   -6.6147  -18.0461 C   0  0  0  0  0  0  0  0  0  0  0  0
   15.3969   -7.9419  -18.8088 C   0  0  0  0  0  0  0  0  0  0  0  0
   12.8387   -8.5516  -17.7345 C   0  0  0  0  0  0  0  0  0  0  0  0
   13.6863   -8.4069  -19.3674 Se  0  0  2  0  0  0  0  0  0  0  0  0
   13.7399  -10.1809  -19.9207 C   0  0  0  0  0  0  0  0  0  0  0  0
   12.3800  -10.7272  -20.3576 C   0  0  1  0  0  0  0  0  0  0  0  0
   11.9589  -10.0089  -21.5299 O   0  0  0  0  0  0  0  0  0  0  0  0
   12.6014  -12.1611  -20.8406 C   0  0  1  0  0  0  0  0  0  0  0  0
   11.3397  -12.7855  -21.0828 O   0  0  0  0  0  0  0  0  0  0  0  0
   13.3007  -11.8688  -22.1657 C   0  0  1  0  0  0  0  0  0  0  0  0
   13.1599  -13.0046  -23.0208 O   0  0  0  0  0  0  0  0  0  0  0  0
   12.4058  -10.7423  -22.6842 C   0  0  2  0  0  0  0  0  0  0  0  0
   16.9815   -4.7399  -19.5853 O   0  0  0  0  0  0  0  0  0  0  0  0
   15.9536   -7.0523  -23.3488 N   0  0  0  0  0  0  0  0  0  0  0  0
   15.5749   -7.6451  -22.2296 C   0  0  0  0  0  0  0  0  0  0  0  0
   14.6447   -8.5840  -22.2189 N   0  0  0  0  0  0  0  0  0  0  0  0
   14.0521   -8.9705  -23.3588 C   0  0  0  0  0  0  0  0  0  0  0  0
   14.4222   -8.3696  -24.5538 C   0  0  0  0  0  0  0  0  0  0  0  0
   15.4014   -7.3837  -24.5229 C   0  0  0  0  0  0  0  0  0  0  0  0
   15.7549   -6.7581  -25.6414 N   0  0  0  0  0  0  0  0  0  0  0  0
   13.6980   -8.9191  -25.5224 N   0  0  0  0  0  0  0  0  0  0  0  0
   12.9034   -9.8286  -24.9631 C   0  0  0  0  0  0  0  0  0  0  0  0
   13.1133   -9.8659  -23.6471 N   0  0  0  0  0  0  0  0  0  0  0  0
  2  1  1  1  0  0  0
  2  5  1  0  0  0  0
  2  3  1  0  0  0  0
  3 17  1  0  0  0  0
  3  4  1  0  0  0  0
  5  6  1  0  0  0  0
  7  8  1  0  0  0  0
  8  6  1  1  0  0  0
  8  9  1  0  0  0  0
 10  9  1  6  0  0  0
 10 11  1  0  0  0  0
 10 12  1  0  0  0  0
 11 16  1  0  0  0  0
 12 13  1  6  0  0  0
 12 14  1  0  0  0  0
 14 15  1  6  0  0  0
 14 16  1  0  0  0  0
 16 27  1  6  0  0  0
 18 23  2  0  0  0  0
 18 19  1  0  0  0  0
 19 20  2  0  0  0  0
 20 21  1  0  0  0  0
 21 22  2  0  0  0  0
 21 27  1  0  0  0  0
 22 23  1  0  0  0  0
 22 25  1  0  0  0  0
 23 24  1  0  0  0  0
 25 26  2  0  0  0  0
 26 27  1  0  0  0  0
M  END
>  <CHROM.1>
-167.91073650,118.69333291,-175.15315270,-61.37519184,177.58674725,64.92949387
46.23570052,14.33201399,-8.65067534,-21.03589921,0.72295403,0.87923961,1.48082541

>  <Name>
ligand

>  <RI>
0

>  <Rbt.Current_Directory>
/home/itssahil/PROJECTS/Mol_Feturizer/New_Systems/rnas/3E5F

>  <Rbt.Executable>
rbdock ($Id: //depot/dev/client3/rdock/2013.1/src/exe/rbdock.cxx#4 $)

>  <Rbt.Library>
libRbt.so (2013.1, Build901 2013/11/27)

>  <Rbt.Parameter_File>
/export/apps/rDock/src/rDock_2013.1_src/data/scripts/dock_solv.prm

>  <Rbt.Receptor>
prm/pocket_docking_3.prm

>  <SCORE>
-16.3296

>  <SCORE.INTER>
-15.1755

>  <SCORE.INTER.CONST>
1

>  <SCORE.INTER.POLAR>
0

>  <SCORE.INTER.ROT>
7

>  <SCORE.INTER.SOLV>
22.7002

>  <SCORE.INTER.VDW>
-25.9504

>  <SCORE.INTER.norm>
-0.562057

>  <SCORE.INTRA>
-1.15406

>  <SCORE.INTRA.DIHEDRAL>
-1.08314

>  <SCORE.INTRA.DIHEDRAL.0>
4.89803

>  <SCORE.INTRA.POLAR>
0

>  <SCORE.INTRA.POLAR.0>
0

>  <SCORE.INTRA.REPUL>
0

>  <SCORE.INTRA.REPUL.0>
0

>  <SCORE.INTRA.SOLV>
0.00189761

>  <SCORE.INTRA.SOLV.lig_0>
-48.5832

>  <SCORE.INTRA.VDW>
-0.613433

>  <SCORE.INTRA.VDW.0>
-2.39056

>  <SCORE.INTRA.norm>
-0.0427428

>  <SCORE.RESTR>
0

>  <SCORE.RESTR.CAVITY>
0

>  <SCORE.RESTR.norm>
0

>  <SCORE.SYSTEM>
0

>  <SCORE.SYSTEM.CONST>
0

>  <SCORE.SYSTEM.DIHEDRAL>
0

>  <SCORE.SYSTEM.SOLV>
0

>  <SCORE.SYSTEM.norm>
0

>  <SCORE.heavy>
27

>  <SCORE.norm>
-0.604799

>  <RMSD>
1.749

$$$$
ligand
 OpenBabel11021811473D
libRbt.so/2013.1/901 2013/11/27
 27 29  0  0  0  0  0  0  0  0999 V2000
   17.9963   -6.9030  -18.6762 N   0  0  0  0  0  0  0  0  0  0  0  0
   16.6911   -6.5336  -18.1091 C   0  0  2  0  0  0  0  0  0  0  0  0
   16.6775   -6.8141  -16.6033 C   0  0  0  0  0  0  0  0  0  0  0  0
   17.1442   -7.9114  -16.2268 O   0  0  0  0  0  0  0  0  0  0  0  0
   15.6041   -7.3694  -18.7872 C   0  0  0  0  0  0  0  0  0  0  0  0
   14.2007   -6.9734  -18.3215 C   0  0  0  0  0  0  0  0  0  0  0  0
   11.4305   -6.7740  -18.9188 C   0  0  0  0  0  0  0  0  0  0  0  0
   12.8977   -7.8056  -19.3532 Se  0  0  2  0  0  0  0  0  0  0  0  0
   12.4780   -9.4196  -18.5315 C   0  0  0  0  0  0  0  0  0  0  0  0
   11.7104  -10.3852  -19.4354 C   0  0  1  0  0  0  0  0  0  0  0  0
   11.8659   -9.9510  -20.7974 O   0  0  0  0  0  0  0  0  0  0  0  0
   12.4303  -11.7329  -19.3738 C   0  0  1  0  0  0  0  0  0  0  0  0
   11.6520  -12.7232  -20.0477 O   0  0  0  0  0  0  0  0  0  0  0  0
   13.6660  -11.3894  -20.2019 C   0  0  1  0  0  0  0  0  0  0  0  0
   14.2350  -12.6001  -20.7033 O   0  0  0  0  0  0  0  0  0  0  0  0
   13.0002  -10.6380  -21.3554 C   0  0  2  0  0  0  0  0  0  0  0  0
   16.1928   -5.9306  -15.8624 O   0  0  0  0  0  0  0  0  0  0  0  0
   14.3825   -8.3447  -25.7684 N   0  0  0  0  0  0  0  0  0  0  0  0
   13.3923   -9.1929  -25.5507 C   0  0  0  0  0  0  0  0  0  0  0  0
   13.1598   -9.6995  -24.3523 N   0  0  0  0  0  0  0  0  0  0  0  0
   13.9299   -9.3609  -23.3072 C   0  0  0  0  0  0  0  0  0  0  0  0
   14.9804   -8.4742  -23.4972 C   0  0  0  0  0  0  0  0  0  0  0  0
   15.1947   -7.9664  -24.7732 C   0  0  0  0  0  0  0  0  0  0  0  0
   16.2144   -7.1449  -25.0026 N   0  0  0  0  0  0  0  0  0  0  0  0
   15.5824   -8.3055  -22.3252 N   0  0  0  0  0  0  0  0  0  0  0  0
   14.9396   -9.0543  -21.4321 C   0  0  0  0  0  0  0  0  0  0  0  0
   13.9328   -9.6991  -22.0219 N   0  0  0  0  0  0  0  0  0  0  0  0
  2  1  1  6  0  0  0
  2  5  1  0  0  0  0
  2  3  1  0  0  0  0
  3 17  1  0  0  0  0
  3  4  1  0  0  0  0
  5  6  1  0  0  0  0
  7  8  1  0  0  0  0
  8  6  1  1  0  0  0
  8  9  1  0  0  0  0
 10  9  1  1  0  0  0
 10 11  1  0  0  0  0
 10 12  1  0  0  0  0
 11 16  1  0  0  0  0
 12 13  1  6  0  0  0
 12 14  1  0  0  0  0
 14 15  1  6  0  0  0
 14 16  1  0  0  0  0
 16 27  1  1  0  0  0
 18 23  2  0  0  0  0
 18 19  1  0  0  0  0
 19 20  2  0  0  0  0
 20 21  1  0  0  0  0
 21 22  2  0  0  0  0
 21 27  1  0  0  0  0
 22 23  1  0  0  0  0
 22 25  1  0  0  0  0
 23 24  1  0  0  0  0
 25 26  2  0  0  0  0
 26 27  1  0  0  0  0
M  END
>  <CHROM.1>
-175.95043986,-45.21740475,170.86165534,-163.66478043,-164.49534010,17.12127752
-92.52052301,14.06036356,-8.71242807,-20.42577088,-1.23222072,-0.76070362
-1.69905787

>  <Name>
ligand

>  <RI>
0

>  <Rbt.Current_Directory>
/home/itssahil/PROJECTS/Mol_Feturizer/New_Systems/rnas/3E5F

>  <Rbt.Executable>
rbdock ($Id: //depot/dev/client3/rdock/2013.1/src/exe/rbdock.cxx#4 $)

>  <Rbt.Library>
libRbt.so (2013.1, Build901 2013/11/27)

>  <Rbt.Parameter_File>
/export/apps/rDock/src/rDock_2013.1_src/data/scripts/dock_solv.prm

>  <Rbt.Receptor>
prm/pocket_docking_2.prm

>  <SCORE>
-13.2267

>  <SCORE.INTER>
-14.1308

>  <SCORE.INTER.CONST>
1

>  <SCORE.INTER.POLAR>
0

>  <SCORE.INTER.ROT>
7

>  <SCORE.INTER.SOLV>
20.1779

>  <SCORE.INTER.VDW>
-24.4131

>  <SCORE.INTER.norm>
-0.523362

>  <SCORE.INTRA>
0.904095

>  <SCORE.INTRA.DIHEDRAL>
3.93422

>  <SCORE.INTRA.DIHEDRAL.0>
4.89803

>  <SCORE.INTRA.POLAR>
0

>  <SCORE.INTRA.POLAR.0>
0

>  <SCORE.INTRA.REPUL>
0

>  <SCORE.INTRA.REPUL.0>
0

>  <SCORE.INTRA.SOLV>
0.0310228

>  <SCORE.INTRA.SOLV.lig_0>
-48.5832

>  <SCORE.INTRA.VDW>
-1.07853

>  <SCORE.INTRA.VDW.0>
-2.39056

>  <SCORE.INTRA.norm>
0.033485

>  <SCORE.RESTR>
0

>  <SCORE.RESTR.CAVITY>
0

>  <SCORE.RESTR.norm>
0

>  <SCORE.SYSTEM>
0

>  <SCORE.SYSTEM.CONST>
0

>  <SCORE.SYSTEM.DIHEDRAL>
0

>  <SCORE.SYSTEM.SOLV>
0

>  <SCORE.SYSTEM.norm>
0

>  <SCORE.heavy>
27

>  <SCORE.norm>
-0.489877

>  <RMSD>
1.774

$$$$
ligand
 OpenBabel11021811473D
libRbt.so/2013.1/901 2013/11/27
 27 29  0  0  0  0  0  0  0  0999 V2000
   18.3487   -5.9007  -20.1563 N   0  0  0  0  0  0  0  0  0  0  0  0
   17.6150   -6.6270  -19.1094 C   0  0  2  0  0  0  0  0  0  0  0  0
   18.3042   -7.9641  -18.8205 C   0  0  0  0  0  0  0  0  0  0  0  0
   18.6734   -8.1690  -17.6436 O   0  0  0  0  0  0  0  0  0  0  0  0
   16.1895   -6.8899  -19.5978 C   0  0  0  0  0  0  0  0  0  0  0  0
   15.3214   -7.5364  -18.5153 C   0  0  0  0  0  0  0  0  0  0  0  0
   12.7418   -8.3511  -17.6481 C   0  0  0  0  0  0  0  0  0  0  0  0
   13.6856   -8.0799  -19.2105 Se  0  0  2  0  0  0  0  0  0  0  0  0
   13.8907   -9.8200  -19.8318 C   0  0  0  0  0  0  0  0  0  0  0  0
   12.5694  -10.5023  -20.1885 C   0  0  1  0  0  0  0  0  0  0  0  0
   12.0810   -9.9306  -21.4142 O   0  0  0  0  0  0  0  0  0  0  0  0
   12.8900  -11.9557  -20.5396 C   0  0  1  0  0  0  0  0  0  0  0  0
   11.6749  -12.6900  -20.6972 O   0  0  0  0  0  0  0  0  0  0  0  0
   13.5484  -11.7402  -21.9000 C   0  0  1  0  0  0  0  0  0  0  0  0
   13.4809  -12.9592  -22.6421 O   0  0  0  0  0  0  0  0  0  0  0  0
   12.5659  -10.7357  -22.5036 C   0  0  2  0  0  0  0  0  0  0  0  0
   18.4556   -8.7480  -19.7833 O   0  0  0  0  0  0  0  0  0  0  0  0
   16.1088   -7.1538  -23.6272 N   0  0  0  0  0  0  0  0  0  0  0  0
   15.8292   -7.7040  -22.4581 C   0  0  0  0  0  0  0  0  0  0  0  0
   14.8849   -8.6194  -22.3272 N   0  0  0  0  0  0  0  0  0  0  0  0
   14.1753   -9.0249  -23.3911 C   0  0  0  0  0  0  0  0  0  0  0  0
   14.4391   -8.4687  -24.6349 C   0  0  0  0  0  0  0  0  0  0  0  0
   15.4372   -7.5063  -24.7308 C   0  0  0  0  0  0  0  0  0  0  0  0
   15.6925   -6.9227  -25.8976 N   0  0  0  0  0  0  0  0  0  0  0  0
   13.6119   -9.0289  -25.5104 N   0  0  0  0  0  0  0  0  0  0  0  0
   12.8569   -9.9020  -24.8479 C   0  0  0  0  0  0  0  0  0  0  0  0
   13.1939   -9.9055  -23.5580 N   0  0  0  0  0  0  0  0  0  0  0  0
  2  1  1  6  0  0  0
  2  5  1  0  0  0  0
  2  3  1  0  0  0  0
  3 17  1  0  0  0  0
  3  4  1  0  0  0  0
  5  6  1  0  0  0  0
  7  8  1  0  0  0  0
  8  6  1  1  0  0  0
  8  9  1  0  0  0  0
 10  9  1  6  0  0  0
 10 11  1  0  0  0  0
 10 12  1  0  0  0  0
 11 16  1  0  0  0  0
 12 13  1  6  0  0  0
 12 14  1  0  0  0  0
 14 15  1  6  0  0  0
 14 16  1  0  0  0  0
 16 27  1  6  0  0  0
 18 23  2  0  0  0  0
 18 19  1  0  0  0  0
 19 20  2  0  0  0  0
 20 21  1  0  0  0  0
 21 22  2  0  0  0  0
 21 27  1  0  0  0  0
 22 23  1  0  0  0  0
 22 25  1  0  0  0  0
 23 24  1  0  0  0  0
 25 26  2  0  0  0  0
 26 27  1  0  0  0  0
M  END
>  <CHROM.1>
-175.01375942,122.41750011,-171.30853466,-164.97901411,168.91145208,73.23852768
54.31784114,14.58926759,-8.89141821,-21.11051436,-0.70645274,-0.69336658
-1.54737563

>  <Name>
ligand

>  <RI>
0

>  <Rbt.Current_Directory>
/home/itssahil/PROJECTS/Mol_Feturizer/New_Systems/rnas/3E5F

>  <Rbt.Executable>
rbdock ($Id: //depot/dev/client3/rdock/2013.1/src/exe/rbdock.cxx#4 $)

>  <Rbt.Library>
libRbt.so (2013.1, Build901 2013/11/27)

>  <Rbt.Parameter_File>
/export/apps/rDock/src/rDock_2013.1_src/data/scripts/dock_solv.prm

>  <Rbt.Receptor>
prm/pocket_docking_4.prm

>  <SCORE>
-17.0781

>  <SCORE.INTER>
-16.304

>  <SCORE.INTER.CONST>
1

>  <SCORE.INTER.POLAR>
0

>  <SCORE.INTER.ROT>
7

>  <SCORE.INTER.SOLV>
20.2318

>  <SCORE.INTER.VDW>
-25.88

>  <SCORE.INTER.norm>
-0.603854

>  <SCORE.INTRA>
-0.774016

>  <SCORE.INTRA.DIHEDRAL>
-0.257584

>  <SCORE.INTRA.DIHEDRAL.0>
4.89803

>  <SCORE.INTRA.POLAR>
0

>  <SCORE.INTRA.POLAR.0>
0

>  <SCORE.INTRA.REPUL>
0

>  <SCORE.INTRA.REPUL.0>
0

>  <SCORE.INTRA.SOLV>
0.0703429

>  <SCORE.INTRA.SOLV.lig_0>
-48.5832

>  <SCORE.INTRA.VDW>
-0.680395

>  <SCORE.INTRA.VDW.0>
-2.39056

>  <SCORE.INTRA.norm>
-0.0286673

>  <SCORE.RESTR>
0

>  <SCORE.RESTR.CAVITY>
0

>  <SCORE.RESTR.norm>
0

>  <SCORE.SYSTEM>
0

>  <SCORE.SYSTEM.CONST>
0

>  <SCORE.SYSTEM.DIHEDRAL>
0

>  <SCORE.SYSTEM.SOLV>
0

>  <SCORE.SYSTEM.norm>
0

>  <SCORE.heavy>
27

>  <SCORE.norm>
-0.632521

>  <RMSD>
1.808

$$$$
ligand
 OpenBabel11021811473D
libRbt.so/2013.1/901 2013/11/27
 27 29  0  0  0  0  0  0  0  0999 V2000
   17.5765   -6.6100  -18.8041 N   0  0  0  0  0  0  0  0  0  0  0  0
   16.3929   -6.4410  -17.9483 C   0  0  2  0  0  0  0  0  0  0  0  0
   16.7055   -6.9137  -16.5253 C   0  0  0  0  0  0  0  0  0  0  0  0
   16.4625   -6.1132  -15.5958 O   0  0  0  0  0  0  0  0  0  0  0  0
   15.2482   -7.2805  -18.5182 C   0  0  0  0  0  0  0  0  0  0  0  0
   13.9456   -7.0793  -17.7397 C   0  0  0  0  0  0  0  0  0  0  0  0
   11.1516   -7.4931  -17.4354 C   0  0  0  0  0  0  0  0  0  0  0  0
   12.5177   -7.8896  -18.6110 Se  0  0  2  0  0  0  0  0  0  0  0  0
   12.6896   -9.7263  -18.3807 C   0  0  0  0  0  0  0  0  0  0  0  0
   11.8187  -10.5468  -19.3331 C   0  0  1  0  0  0  0  0  0  0  0  0
   11.9450   -9.9920  -20.6536 O   0  0  0  0  0  0  0  0  0  0  0  0
   12.4455  -11.9378  -19.4358 C   0  0  1  0  0  0  0  0  0  0  0  0
   11.5722  -12.8047  -20.1612 O   0  0  0  0  0  0  0  0  0  0  0  0
   13.6651  -11.5954  -20.2877 C   0  0  1  0  0  0  0  0  0  0  0  0
   14.1268  -12.7853  -20.9296 O   0  0  0  0  0  0  0  0  0  0  0  0
   13.0038  -10.6928  -21.3301 C   0  0  2  0  0  0  0  0  0  0  0  0
   17.1891   -8.0601  -16.3978 O   0  0  0  0  0  0  0  0  0  0  0  0
   14.5263   -8.3040  -25.6452 N   0  0  0  0  0  0  0  0  0  0  0  0
   13.5142   -9.1367  -25.4726 C   0  0  0  0  0  0  0  0  0  0  0  0
   13.2461   -9.6724  -24.2945 N   0  0  0  0  0  0  0  0  0  0  0  0
   14.0008   -9.3804  -23.2244 C   0  0  0  0  0  0  0  0  0  0  0  0
   15.0734   -8.5114  -23.3670 C   0  0  0  0  0  0  0  0  0  0  0  0
   15.3250   -7.9719  -24.6230 C   0  0  0  0  0  0  0  0  0  0  0  0
   16.3662   -7.1661  -24.8074 N   0  0  0  0  0  0  0  0  0  0  0  0
   15.6539   -8.3893  -22.1785 N   0  0  0  0  0  0  0  0  0  0  0  0
   14.9770   -9.1494  -21.3209 C   0  0  0  0  0  0  0  0  0  0  0  0
   13.9697   -9.7554  -21.9497 N   0  0  0  0  0  0  0  0  0  0  0  0
  2  1  1  6  0  0  0
  2  5  1  0  0  0  0
  2  3  1  0  0  0  0
  3 17  1  0  0  0  0
  3  4  1  0  0  0  0
  5  6  1  0  0  0  0
  7  8  1  0  0  0  0
  8  6  1  1  0  0  0
  8  9  1  0  0  0  0
 10  9  1  1  0  0  0
 10 11  1  0  0  0  0
 10 12  1  0  0  0  0
 11 16  1  0  0  0  0
 12 13  1  6  0  0  0
 12 14  1  0  0  0  0
 14 15  1  6  0  0  0
 14 16  1  0  0  0  0
 16 27  1  1  0  0  0
 18 23  2  0  0  0  0
 18 19  1  0  0  0  0
 19 20  2  0  0  0  0
 20 21  1  0  0  0  0
 21 22  2  0  0  0  0
 21 27  1  0  0  0  0
 22 23  1  0  0  0  0
 22 25  1  0  0  0  0
 23 24  1  0  0  0  0
 25 26  2  0  0  0  0
 26 27  1  0  0  0  0
M  END
>  <CHROM.1>
-175.83844106,127.32414585,170.84637826,179.21800534,-164.66213904,45.19364967
-98.60263330,13.98723477,-8.80112607,-20.17582902,-1.40557239,-0.72750799
-1.79943660

>  <Name>
ligand

>  <RI>
0

>  <Rbt.Current_Directory>
/home/itssahil/PROJECTS/Mol_Feturizer/New_Systems/rnas/3E5F

>  <Rbt.Executable>
rbdock ($Id: //depot/dev/client3/rdock/2013.1/src/exe/rbdock.cxx#4 $)

>  <Rbt.Library>
libRbt.so (2013.1, Build901 2013/11/27)

>  <Rbt.Parameter_File>
/export/apps/rDock/src/rDock_2013.1_src/data/scripts/dock_solv.prm

>  <Rbt.Receptor>
prm/pocket_docking_2.prm

>  <SCORE>
-14.5961

>  <SCORE.INTER>
-14.0084

>  <SCORE.INTER.CONST>
1

>  <SCORE.INTER.POLAR>
0

>  <SCORE.INTER.ROT>
7

>  <SCORE.INTER.SOLV>
19.8751

>  <SCORE.INTER.VDW>
-24.2306

>  <SCORE.INTER.norm>
-0.51883

>  <SCORE.INTRA>
-0.58772

>  <SCORE.INTRA.DIHEDRAL>
-0.0789967

>  <SCORE.INTRA.DIHEDRAL.0>
4.89803

>  <SCORE.INTRA.POLAR>
0

>  <SCORE.INTRA.POLAR.0>
0

>  <SCORE.INTRA.REPUL>
0

>  <SCORE.INTRA.REPUL.0>
0

>  <SCORE.INTRA.SOLV>
-0.0424247

>  <SCORE.INTRA.SOLV.lig_0>
-48.5832

>  <SCORE.INTRA.VDW>
-0.527009

>  <SCORE.INTRA.VDW.0>
-2.39056

>  <SCORE.INTRA.norm>
-0.0217674

>  <SCORE.RESTR>
0

>  <SCORE.RESTR.CAVITY>
0

>  <SCORE.RESTR.norm>
0

>  <SCORE.SYSTEM>
0

>  <SCORE.SYSTEM.CONST>
0

>  <SCORE.SYSTEM.DIHEDRAL>
0

>  <SCORE.SYSTEM.SOLV>
0

>  <SCORE.SYSTEM.norm>
0

>  <SCORE.heavy>
27

>  <SCORE.norm>
-0.540598

>  <RMSD>
1.823

$$$$
ligand
 OpenBabel11021811473D
libRbt.so/2013.1/901 2013/11/27
 27 29  0  0  0  0  0  0  0  0999 V2000
   16.5660   -5.9135  -19.7677 N   0  0  0  0  0  0  0  0  0  0  0  0
   15.7737   -5.2479  -18.7232 C   0  0  2  0  0  0  0  0  0  0  0  0
   16.3527   -5.5717  -17.3425 C   0  0  0  0  0  0  0  0  0  0  0  0
   16.0423   -4.8061  -16.4039 O   0  0  0  0  0  0  0  0  0  0  0  0
   14.3330   -5.7565  -18.7975 C   0  0  0  0  0  0  0  0  0  0  0  0
   14.2517   -7.2770  -18.6398 C   0  0  0  0  0  0  0  0  0  0  0  0
   11.6668   -7.0855  -17.4770 C   0  0  0  0  0  0  0  0  0  0  0  0
   12.5151   -7.8821  -18.9093 Se  0  0  2  0  0  0  0  0  0  0  0  0
   12.4648   -9.6762  -18.4246 C   0  0  0  0  0  0  0  0  0  0  0  0
   11.6774  -10.5519  -19.4001 C   0  0  1  0  0  0  0  0  0  0  0  0
   11.8547  -10.0250  -20.7262 O   0  0  0  0  0  0  0  0  0  0  0  0
   12.3590  -11.9203  -19.4326 C   0  0  1  0  0  0  0  0  0  0  0  0
   11.5585  -12.8370  -20.1805 O   0  0  0  0  0  0  0  0  0  0  0  0
   13.6098  -11.5529  -20.2270 C   0  0  1  0  0  0  0  0  0  0  0  0
   14.1487  -12.7397  -20.8119 O   0  0  0  0  0  0  0  0  0  0  0  0
   12.9735  -10.7016  -21.3266 C   0  0  2  0  0  0  0  0  0  0  0  0
   17.0999   -6.5711  -17.2569 O   0  0  0  0  0  0  0  0  0  0  0  0
   14.5814   -8.2946  -25.6005 N   0  0  0  0  0  0  0  0  0  0  0  0
   13.5844   -9.1508  -25.4575 C   0  0  0  0  0  0  0  0  0  0  0  0
   13.2900   -9.6878  -24.2863 N   0  0  0  0  0  0  0  0  0  0  0  0
   14.0014   -9.3733  -23.1932 C   0  0  0  0  0  0  0  0  0  0  0  0
   15.0569   -8.4792  -23.3043 C   0  0  0  0  0  0  0  0  0  0  0  0
   15.3373   -7.9390  -24.5539 C   0  0  0  0  0  0  0  0  0  0  0  0
   16.3644   -7.1091  -24.7076 N   0  0  0  0  0  0  0  0  0  0  0  0
   15.5943   -8.3382  -22.0978 N   0  0  0  0  0  0  0  0  0  0  0  0
   14.9077   -9.1109  -21.2594 C   0  0  0  0  0  0  0  0  0  0  0  0
   13.9367   -9.7436  -21.9184 N   0  0  0  0  0  0  0  0  0  0  0  0
  2  1  1  6  0  0  0
  2  5  1  0  0  0  0
  2  3  1  0  0  0  0
  3 17  1  0  0  0  0
  3  4  1  0  0  0  0
  5  6  1  0  0  0  0
  7  8  1  0  0  0  0
  8  6  1  1  0  0  0
  8  9  1  0  0  0  0
 10  9  1  1  0  0  0
 10 11  1  0  0  0  0
 10 12  1  0  0  0  0
 11 16  1  0  0  0  0
 12 13  1  6  0  0  0
 12 14  1  0  0  0  0
 14 15  1  6  0  0  0
 14 16  1  0  0  0  0
 16 27  1  1  0  0  0
 18 23  2  0  0  0  0
 18 19  1  0  0  0  0
 19 20  2  0  0  0  0
 20 21  1  0  0  0  0
 21 22  2  0  0  0  0
 21 27  1  0  0  0  0
 22 23  1  0  0  0  0
 22 25  1  0  0  0  0
 23 24  1  0  0  0  0
 25 26  2  0  0  0  0
 26 27  1  0  0  0  0
M  END
>  <CHROM.1>
57.70138217,160.44979461,-174.13399535,-65.06112480,-137.03222711,33.71773574
-96.77137264,13.88634264,-8.53764071,-20.39172931,-1.29434006,-0.88445701
-1.98507370

>  <Name>
ligand

>  <RI>
0

>  <Rbt.Current_Directory>
/home/itssahil/PROJECTS/Mol_Feturizer/New_Systems/rnas/3E5F

>  <Rbt.Executable>
rbdock ($Id: //depot/dev/client3/rdock/2013.1/src/exe/rbdock.cxx#4 $)

>  <Rbt.Library>
libRbt.so (2013.1, Build901 2013/11/27)

>  <Rbt.Parameter_File>
/export/apps/rDock/src/rDock_2013.1_src/data/scripts/dock_solv.prm

>  <Rbt.Receptor>
prm/pocket_docking_2.prm

>  <SCORE>
-12.5173

>  <SCORE.INTER>
-14.2894

>  <SCORE.INTER.CONST>
1

>  <SCORE.INTER.POLAR>
0

>  <SCORE.INTER.ROT>
7

>  <SCORE.INTER.SOLV>
19.5394

>  <SCORE.INTER.VDW>
-24.306

>  <SCORE.INTER.norm>
-0.529236

>  <SCORE.INTRA>
1.77205

>  <SCORE.INTRA.DIHEDRAL>
2.30803

>  <SCORE.INTRA.DIHEDRAL.0>
4.89803

>  <SCORE.INTRA.POLAR>
0

>  <SCORE.INTRA.POLAR.0>
0

>  <SCORE.INTRA.REPUL>
0

>  <SCORE.INTRA.REPUL.0>
0

>  <SCORE.INTRA.SOLV>
1.07611

>  <SCORE.INTRA.SOLV.lig_0>
-48.5832

>  <SCORE.INTRA.VDW>
0.0799792

>  <SCORE.INTRA.VDW.0>
-2.39056

>  <SCORE.INTRA.norm>
0.0656316

>  <SCORE.RESTR>
0

>  <SCORE.RESTR.CAVITY>
0

>  <SCORE.RESTR.norm>
0

>  <SCORE.SYSTEM>
0

>  <SCORE.SYSTEM.CONST>
0

>  <SCORE.SYSTEM.DIHEDRAL>
0

>  <SCORE.SYSTEM.SOLV>
0

>  <SCORE.SYSTEM.norm>
0

>  <SCORE.heavy>
27

>  <SCORE.norm>
-0.463604

>  <RMSD>
1.838

$$$$
ligand
 OpenBabel11021811473D
libRbt.so/2013.1/901 2013/11/27
 27 29  0  0  0  0  0  0  0  0999 V2000
   17.1043   -5.8031  -17.5093 N   0  0  0  0  0  0  0  0  0  0  0  0
   17.2532   -6.2017  -18.9167 C   0  0  2  0  0  0  0  0  0  0  0  0
   17.8278   -5.0386  -19.7310 C   0  0  0  0  0  0  0  0  0  0  0  0
   17.0529   -4.0931  -19.9937 O   0  0  0  0  0  0  0  0  0  0  0  0
   15.8775   -6.5746  -19.4720 C   0  0  0  0  0  0  0  0  0  0  0  0
   15.4094   -7.9446  -18.9747 C   0  0  0  0  0  0  0  0  0  0  0  0
   12.6994   -8.1638  -18.1513 C   0  0  0  0  0  0  0  0  0  0  0  0
   13.7359   -8.3667  -19.6645 Se  0  0  2  0  0  0  0  0  0  0  0  0
   13.6801  -10.2083  -19.9132 C   0  0  0  0  0  0  0  0  0  0  0  0
   12.3050  -10.7276  -20.3351 C   0  0  1  0  0  0  0  0  0  0  0  0
   11.9004  -10.0249  -21.5227 O   0  0  0  0  0  0  0  0  0  0  0  0
   12.4867  -12.1774  -20.7858 C   0  0  1  0  0  0  0  0  0  0  0  0
   11.2081  -12.7730  -21.0116 O   0  0  0  0  0  0  0  0  0  0  0  0
   13.1904  -11.9340  -22.1185 C   0  0  1  0  0  0  0  0  0  0  0  0
   13.0171  -13.0848  -22.9474 O   0  0  0  0  0  0  0  0  0  0  0  0
   12.3248  -10.7960  -22.6609 C   0  0  2  0  0  0  0  0  0  0  0  0
   19.0255   -5.1240  -20.0813 O   0  0  0  0  0  0  0  0  0  0  0  0
   16.0247   -7.2786  -23.4248 N   0  0  0  0  0  0  0  0  0  0  0  0
   15.6406   -7.8443  -22.2934 C   0  0  0  0  0  0  0  0  0  0  0  0
   14.6687   -8.7392  -22.2569 N   0  0  0  0  0  0  0  0  0  0  0  0
   14.0374   -9.1073  -23.3820 C   0  0  0  0  0  0  0  0  0  0  0  0
   14.4118   -8.5339  -24.5891 C   0  0  0  0  0  0  0  0  0  0  0  0
   15.4355   -7.5938  -24.5854 C   0  0  0  0  0  0  0  0  0  0  0  0
   15.7960   -6.9943  -25.7158 N   0  0  0  0  0  0  0  0  0  0  0  0
   13.6448   -9.0573  -25.5389 N   0  0  0  0  0  0  0  0  0  0  0  0
   12.8201   -9.9247  -24.9567 C   0  0  0  0  0  0  0  0  0  0  0  0
   13.0531   -9.9609  -23.6446 N   0  0  0  0  0  0  0  0  0  0  0  0
  2  1  1  1  0  0  0
  2  5  1  0  0  0  0
  2  3  1  0  0  0  0
  3 17  1  0  0  0  0
  3  4  1  0  0  0  0
  5  6  1  0  0  0  0
  7  8  1  0  0  0  0
  8  6  1  1  0  0  0
  8  9  1  0  0  0  0
 10  9  1  6  0  0  0
 10 11  1  0  0  0  0
 10 12  1  0  0  0  0
 11 16  1  0  0  0  0
 12 13  1  6  0  0  0
 12 14  1  0  0  0  0
 14 15  1  6  0  0  0
 14 16  1  0  0  0  0
 16 27  1  6  0  0  0
 18 23  2  0  0  0  0
 18 19  1  0  0  0  0
 19 20  2  0  0  0  0
 20 21  1  0  0  0  0
 21 22  2  0  0  0  0
 21 27  1  0  0  0  0
 22 23  1  0  0  0  0
 22 25  1  0  0  0  0
 23 24  1  0  0  0  0
 25 26  2  0  0  0  0
 26 27  1  0  0  0  0
M  END
>  <CHROM.1>
-75.46293310,-74.68715508,179.92035991,-107.50983392,173.68151562,55.61540008
47.90058233,14.38186029,-8.63003751,-21.28610185,0.48974158,0.85639577,1.45326626

>  <Name>
ligand

>  <RI>
0

>  <Rbt.Current_Directory>
/home/itssahil/PROJECTS/Mol_Feturizer/New_Systems/rnas/3E5F

>  <Rbt.Executable>
rbdock ($Id: //depot/dev/client3/rdock/2013.1/src/exe/rbdock.cxx#4 $)

>  <Rbt.Library>
libRbt.so (2013.1, Build901 2013/11/27)

>  <Rbt.Parameter_File>
/export/apps/rDock/src/rDock_2013.1_src/data/scripts/dock_solv.prm

>  <Rbt.Receptor>
prm/pocket_docking_3.prm

>  <SCORE>
-16.2853

>  <SCORE.INTER>
-15.88

>  <SCORE.INTER.CONST>
1

>  <SCORE.INTER.POLAR>
0

>  <SCORE.INTER.ROT>
7

>  <SCORE.INTER.SOLV>
21.2945

>  <SCORE.INTER.VDW>
-25.9515

>  <SCORE.INTER.norm>
-0.588147

>  <SCORE.INTRA>
-0.405343

>  <SCORE.INTRA.DIHEDRAL>
0.751371

>  <SCORE.INTRA.DIHEDRAL.0>
4.89803

>  <SCORE.INTRA.POLAR>
0

>  <SCORE.INTRA.POLAR.0>
0

>  <SCORE.INTRA.REPUL>
0

>  <SCORE.INTRA.REPUL.0>
0

>  <SCORE.INTRA.SOLV>
0.575954

>  <SCORE.INTRA.SOLV.lig_0>
-48.5832

>  <SCORE.INTRA.VDW>
-1.06901

>  <SCORE.INTRA.VDW.0>
-2.39056

>  <SCORE.INTRA.norm>
-0.0150127

>  <SCORE.RESTR>
0

>  <SCORE.RESTR.CAVITY>
0

>  <SCORE.RESTR.norm>
0

>  <SCORE.SYSTEM>
0

>  <SCORE.SYSTEM.CONST>
0

>  <SCORE.SYSTEM.DIHEDRAL>
0

>  <SCORE.SYSTEM.SOLV>
0

>  <SCORE.SYSTEM.norm>
0

>  <SCORE.heavy>
27

>  <SCORE.norm>
-0.60316

>  <RMSD>
1.907

$$$$
ligand
 OpenBabel11021811473D
libRbt.so/2013.1/901 2013/11/27
 27 29  0  0  0  0  0  0  0  0999 V2000
   14.8799   -7.4122  -14.4595 N   0  0  0  0  0  0  0  0  0  0  0  0
   14.5867   -8.0440  -15.7543 C   0  0  2  0  0  0  0  0  0  0  0  0
   15.4711   -7.4334  -16.8457 C   0  0  0  0  0  0  0  0  0  0  0  0
   16.1838   -8.2216  -17.5048 O   0  0  0  0  0  0  0  0  0  0  0  0
   13.1170   -7.7995  -16.1011 C   0  0  0  0  0  0  0  0  0  0  0  0
   12.6734   -8.6066  -17.3239 C   0  0  0  0  0  0  0  0  0  0  0  0
   12.4810   -7.2876  -19.8326 C   0  0  0  0  0  0  0  0  0  0  0  0
   13.7167   -8.1962  -18.8064 Se  0  0  2  0  0  0  0  0  0  0  0  0
   13.9398   -9.7607  -19.7855 C   0  0  0  0  0  0  0  0  0  0  0  0
   12.6237  -10.4559  -20.1368 C   0  0  1  0  0  0  0  0  0  0  0  0
   12.1327   -9.9000  -21.3687 O   0  0  0  0  0  0  0  0  0  0  0  0
   12.9549  -11.9104  -20.4728 C   0  0  1  0  0  0  0  0  0  0  0  0
   11.7453  -12.6548  -20.6243 O   0  0  0  0  0  0  0  0  0  0  0  0
   13.6135  -11.7040  -21.8346 C   0  0  1  0  0  0  0  0  0  0  0  0
   13.5554  -12.9309  -22.5644 O   0  0  0  0  0  0  0  0  0  0  0  0
   12.6246  -10.7126  -22.4494 C   0  0  2  0  0  0  0  0  0  0  0  0
   15.4230   -6.1921  -16.9913 O   0  0  0  0  0  0  0  0  0  0  0  0
   16.1275   -7.1006  -23.6016 N   0  0  0  0  0  0  0  0  0  0  0  0
   15.8481   -7.6385  -22.4268 C   0  0  0  0  0  0  0  0  0  0  0  0
   14.9150   -8.5642  -22.2887 N   0  0  0  0  0  0  0  0  0  0  0  0
   14.2169   -8.9933  -23.3510 C   0  0  0  0  0  0  0  0  0  0  0  0
   14.4807   -8.4506  -24.6008 C   0  0  0  0  0  0  0  0  0  0  0  0
   15.4670   -7.4767  -24.7041 C   0  0  0  0  0  0  0  0  0  0  0  0
   15.7215   -6.9058  -25.8773 N   0  0  0  0  0  0  0  0  0  0  0  0
   13.6660   -9.0333  -25.4732 N   0  0  0  0  0  0  0  0  0  0  0  0
   12.9184   -9.9071  -24.8031 C   0  0  0  0  0  0  0  0  0  0  0  0
   13.2480   -9.8887  -23.5115 N   0  0  0  0  0  0  0  0  0  0  0  0
  2  1  1  1  0  0  0
  2  5  1  0  0  0  0
  2  3  1  0  0  0  0
  3 17  1  0  0  0  0
  3  4  1  0  0  0  0
  5  6  1  0  0  0  0
  7  8  1  0  0  0  0
  8  6  1  1  0  0  0
  8  9  1  0  0  0  0
 10  9  1  6  0  0  0
 10 11  1  0  0  0  0
 10 12  1  0  0  0  0
 11 16  1  0  0  0  0
 12 13  1  6  0  0  0
 12 14  1  0  0  0  0
 14 15  1  6  0  0  0
 14 16  1  0  0  0  0
 16 27  1  6  0  0  0
 18 23  2  0  0  0  0
 18 19  1  0  0  0  0
 19 20  2  0  0  0  0
 20 21  1  0  0  0  0
 21 22  2  0  0  0  0
 21 27  1  0  0  0  0
 22 23  1  0  0  0  0
 22 25  1  0  0  0  0
 23 24  1  0  0  0  0
 25 26  2  0  0  0  0
 26 27  1  0  0  0  0
M  END
>  <CHROM.1>
-171.08096230,123.85110565,-58.08808573,-110.07856270,53.39784563,87.29275668
53.84553311,13.94852048,-8.90570397,-20.49241853,-1.51139538,-0.99948041
-1.73639879

>  <Name>
ligand

>  <RI>
0

>  <Rbt.Current_Directory>
/home/itssahil/PROJECTS/Mol_Feturizer/New_Systems/rnas/3E5F

>  <Rbt.Executable>
rbdock ($Id: //depot/dev/client3/rdock/2013.1/src/exe/rbdock.cxx#4 $)

>  <Rbt.Library>
libRbt.so (2013.1, Build901 2013/11/27)

>  <Rbt.Parameter_File>
/export/apps/rDock/src/rDock_2013.1_src/data/scripts/dock_solv.prm

>  <Rbt.Receptor>
prm/pocket_docking_4.prm

>  <SCORE>
-15.6576

>  <SCORE.INTER>
-15.4909

>  <SCORE.INTER.CONST>
1

>  <SCORE.INTER.POLAR>
0

>  <SCORE.INTER.ROT>
7

>  <SCORE.INTER.SOLV>
18.5578

>  <SCORE.INTER.VDW>
-24.7799

>  <SCORE.INTER.norm>
-0.573737

>  <SCORE.INTRA>
-0.166715

>  <SCORE.INTRA.DIHEDRAL>
2.41256

>  <SCORE.INTRA.DIHEDRAL.0>
4.89803

>  <SCORE.INTRA.POLAR>
0

>  <SCORE.INTRA.POLAR.0>
0

>  <SCORE.INTRA.REPUL>
0

>  <SCORE.INTRA.REPUL.0>
0

>  <SCORE.INTRA.SOLV>
0.127536

>  <SCORE.INTRA.SOLV.lig_0>
-48.5832

>  <SCORE.INTRA.VDW>
-1.43676

>  <SCORE.INTRA.VDW.0>
-2.39056

>  <SCORE.INTRA.norm>
-0.00617461

>  <SCORE.RESTR>
0

>  <SCORE.RESTR.CAVITY>
0

>  <SCORE.RESTR.norm>
0

>  <SCORE.SYSTEM>
0

>  <SCORE.SYSTEM.CONST>
0

>  <SCORE.SYSTEM.DIHEDRAL>
0

>  <SCORE.SYSTEM.SOLV>
0

>  <SCORE.SYSTEM.norm>
0

>  <SCORE.heavy>
27

>  <SCORE.norm>
-0.579912

>  <RMSD>
1.910

$$$$
ligand
 OpenBabel11021811473D
libRbt.so/2013.1/901 2013/11/27
 27 29  0  0  0  0  0  0  0  0999 V2000
   17.2108   -6.3734  -17.4666 N   0  0  0  0  0  0  0  0  0  0  0  0
   17.3663   -7.6441  -18.1898 C   0  0  2  0  0  0  0  0  0  0  0  0
   18.6254   -7.5985  -19.0610 C   0  0  0  0  0  0  0  0  0  0  0  0
   19.4037   -8.5741  -18.9840 O   0  0  0  0  0  0  0  0  0  0  0  0
   16.1428   -7.8563  -19.0830 C   0  0  0  0  0  0  0  0  0  0  0  0
   14.8372   -7.8320  -18.2841 C   0  0  0  0  0  0  0  0  0  0  0  0
   12.0366   -8.2756  -18.1101 C   0  0  0  0  0  0  0  0  0  0  0  0
   13.3852   -8.2425  -19.3693 Se  0  0  2  0  0  0  0  0  0  0  0  0
   13.5166  -10.0400  -19.8256 C   0  0  0  0  0  0  0  0  0  0  0  0
   12.1992  -10.6462  -20.3109 C   0  0  1  0  0  0  0  0  0  0  0  0
   11.8145   -9.9800  -21.5257 O   0  0  0  0  0  0  0  0  0  0  0  0
   12.4915  -12.0861  -20.7345 C   0  0  1  0  0  0  0  0  0  0  0  0
   11.2648  -12.7608  -21.0180 O   0  0  0  0  0  0  0  0  0  0  0  0
   13.2470  -11.8117  -22.0324 C   0  0  1  0  0  0  0  0  0  0  0  0
   13.1869  -12.9781  -22.8552 O   0  0  0  0  0  0  0  0  0  0  0  0
   12.3430  -10.7335  -22.6316 C   0  0  2  0  0  0  0  0  0  0  0  0
   18.7875   -6.5861  -19.7773 O   0  0  0  0  0  0  0  0  0  0  0  0
   15.7824   -6.9330  -23.2406 N   0  0  0  0  0  0  0  0  0  0  0  0
   15.3651   -7.5010  -22.1222 C   0  0  0  0  0  0  0  0  0  0  0  0
   14.4713   -8.4745  -22.1268 N   0  0  0  0  0  0  0  0  0  0  0  0
   13.9569   -8.9232  -23.2818 C   0  0  0  0  0  0  0  0  0  0  0  0
   14.3693   -8.3501  -24.4766 C   0  0  0  0  0  0  0  0  0  0  0  0
   15.3081   -7.3262  -24.4296 C   0  0  0  0  0  0  0  0  0  0  0  0
   15.6989   -6.7265  -25.5498 N   0  0  0  0  0  0  0  0  0  0  0  0
   13.7203   -8.9608  -25.4616 N   0  0  0  0  0  0  0  0  0  0  0  0
   12.9305   -9.8807  -24.9126 C   0  0  0  0  0  0  0  0  0  0  0  0
   13.0691   -9.8641  -23.5867 N   0  0  0  0  0  0  0  0  0  0  0  0
  2  1  1  6  0  0  0
  2  5  1  0  0  0  0
  2  3  1  0  0  0  0
  3 17  1  0  0  0  0
  3  4  1  0  0  0  0
  5  6  1  0  0  0  0
  7  8  1  0  0  0  0
  8  6  1  1  0  0  0
  8  9  1  0  0  0  0
 10  9  1  6  0  0  0
 10 11  1  0  0  0  0
 10 12  1  0  0  0  0
 11 16  1  0  0  0  0
 12 13  1  6  0  0  0
 12 14  1  0  0  0  0
 14 15  1  6  0  0  0
 14 16  1  0  0  0  0
 16 27  1  6  0  0  0
 18 23  2  0  0  0  0
 18 19  1  0  0  0  0
 19 20  2  0  0  0  0
 20 21  1  0  0  0  0
 21 22  2  0  0  0  0
 21 27  1  0  0  0  0
 22 23  1  0  0  0  0
 22 25  1  0  0  0  0
 23 24  1  0  0  0  0
 25 26  2  0  0  0  0
 26 27  1  0  0  0  0
M  END
>  <CHROM.1>
-56.70072199,131.50339341,-174.93917008,175.27018913,160.80022149,63.68646480
45.83182161,14.36533496,-8.91348372,-21.05999435,0.61658790,0.64525448,1.57057641

>  <Name>
ligand

>  <RI>
0

>  <Rbt.Current_Directory>
/home/itssahil/PROJECTS/Mol_Feturizer/New_Systems/rnas/3E5F

>  <Rbt.Executable>
rbdock ($Id: //depot/dev/client3/rdock/2013.1/src/exe/rbdock.cxx#4 $)

>  <Rbt.Library>
libRbt.so (2013.1, Build901 2013/11/27)

>  <Rbt.Parameter_File>
/export/apps/rDock/src/rDock_2013.1_src/data/scripts/dock_solv.prm

>  <Rbt.Receptor>
prm/pocket_docking_3.prm

>  <SCORE>
-16.4225

>  <SCORE.INTER>
-15.2093

>  <SCORE.INTER.CONST>
1

>  <SCORE.INTER.POLAR>
0

>  <SCORE.INTER.ROT>
7

>  <SCORE.INTER.SOLV>
19.1182

>  <SCORE.INTER.VDW>
-24.779

>  <SCORE.INTER.norm>
-0.563309

>  <SCORE.INTRA>
-1.21315

>  <SCORE.INTRA.DIHEDRAL>
-1.51418

>  <SCORE.INTRA.DIHEDRAL.0>
4.89803

>  <SCORE.INTRA.POLAR>
0

>  <SCORE.INTRA.POLAR.0>
0

>  <SCORE.INTRA.REPUL>
0

>  <SCORE.INTRA.REPUL.0>
0

>  <SCORE.INTRA.SOLV>
0.764583

>  <SCORE.INTRA.SOLV.lig_0>
-48.5832

>  <SCORE.INTRA.VDW>
-0.83835

>  <SCORE.INTRA.VDW.0>
-2.39056

>  <SCORE.INTRA.norm>
-0.0449314

>  <SCORE.RESTR>
0

>  <SCORE.RESTR.CAVITY>
0

>  <SCORE.RESTR.norm>
0

>  <SCORE.SYSTEM>
0

>  <SCORE.SYSTEM.CONST>
0

>  <SCORE.SYSTEM.DIHEDRAL>
0

>  <SCORE.SYSTEM.SOLV>
0

>  <SCORE.SYSTEM.norm>
0

>  <SCORE.heavy>
27

>  <SCORE.norm>
-0.608241

>  <RMSD>
1.913

$$$$
ligand
 OpenBabel11021811473D
libRbt.so/2013.1/901 2013/11/27
 27 29  0  0  0  0  0  0  0  0999 V2000
   14.3538   -5.0499  -17.0989 N   0  0  0  0  0  0  0  0  0  0  0  0
   15.0510   -5.1993  -18.3848 C   0  0  2  0  0  0  0  0  0  0  0  0
   14.0319   -5.2734  -19.5260 C   0  0  0  0  0  0  0  0  0  0  0  0
   14.4718   -5.5586  -20.6612 O   0  0  0  0  0  0  0  0  0  0  0  0
   15.8693   -6.4913  -18.3552 C   0  0  0  0  0  0  0  0  0  0  0  0
   15.0076   -7.7093  -18.0127 C   0  0  0  0  0  0  0  0  0  0  0  0
   12.2035   -7.9502  -18.3996 C   0  0  0  0  0  0  0  0  0  0  0  0
   13.7753   -8.0530  -19.3610 Se  0  0  2  0  0  0  0  0  0  0  0  0
   13.8600   -9.8692  -19.7485 C   0  0  0  0  0  0  0  0  0  0  0  0
   12.5079  -10.4796  -20.1199 C   0  0  1  0  0  0  0  0  0  0  0  0
   12.0576   -9.8722  -21.3431 O   0  0  0  0  0  0  0  0  0  0  0  0
   12.7559  -11.9441  -20.4830 C   0  0  1  0  0  0  0  0  0  0  0  0
   11.5060  -12.6136  -20.6552 O   0  0  0  0  0  0  0  0  0  0  0  0
   13.4336  -11.7501  -21.8371 C   0  0  1  0  0  0  0  0  0  0  0  0
   13.3088  -12.9570  -22.5914 O   0  0  0  0  0  0  0  0  0  0  0  0
   12.5079  -10.6910  -22.4371 C   0  0  2  0  0  0  0  0  0  0  0  0
   12.8377   -5.0343  -19.2413 O   0  0  0  0  0  0  0  0  0  0  0  0
   16.1078   -7.1406  -23.4762 N   0  0  0  0  0  0  0  0  0  0  0  0
   15.7748   -7.6656  -22.3096 C   0  0  0  0  0  0  0  0  0  0  0  0
   14.8230   -8.5761  -22.2018 N   0  0  0  0  0  0  0  0  0  0  0  0
   14.1602   -9.0024  -23.2876 C   0  0  0  0  0  0  0  0  0  0  0  0
   14.4807   -8.4729  -24.5297 C   0  0  0  0  0  0  0  0  0  0  0  0
   15.4850   -7.5147  -24.6011 C   0  0  0  0  0  0  0  0  0  0  0  0
   15.7936   -6.9563  -25.7673 N   0  0  0  0  0  0  0  0  0  0  0  0
   13.6916   -9.0496  -25.4293 N   0  0  0  0  0  0  0  0  0  0  0  0
   12.9053   -9.9071  -24.7830 C   0  0  0  0  0  0  0  0  0  0  0  0
   13.1846   -9.8843  -23.4796 N   0  0  0  0  0  0  0  0  0  0  0  0
  2  1  1  1  0  0  0
  2  5  1  0  0  0  0
  2  3  1  0  0  0  0
  3 17  1  0  0  0  0
  3  4  1  0  0  0  0
  5  6  1  0  0  0  0
  7  8  1  0  0  0  0
  8  6  1  1  0  0  0
  8  9  1  0  0  0  0
 10  9  1  6  0  0  0
 10 11  1  0  0  0  0
 10 12  1  0  0  0  0
 11 16  1  0  0  0  0
 12 13  1  6  0  0  0
 12 14  1  0  0  0  0
 14 15  1  6  0  0  0
 14 16  1  0  0  0  0
 16 27  1  6  0  0  0
 18 23  2  0  0  0  0
 18 19  1  0  0  0  0
 19 20  2  0  0  0  0
 20 21  1  0  0  0  0
 21 22  2  0  0  0  0
 21 27  1  0  0  0  0
 22 23  1  0  0  0  0
 22 25  1  0  0  0  0
 23 24  1  0  0  0  0
 25 26  2  0  0  0  0
 26 27  1  0  0  0  0
M  END
>  <CHROM.1>
55.03884537,-171.81269193,66.37088280,-122.11390388,144.96820950,64.41097649
50.36895410,13.86573553,-8.48304779,-21.04846258,1.30484942,1.09548807,1.09094178

>  <Name>
ligand

>  <RI>
0

>  <Rbt.Current_Directory>
/home/itssahil/PROJECTS/Mol_Feturizer/New_Systems/rnas/3E5F

>  <Rbt.Executable>
rbdock ($Id: //depot/dev/client3/rdock/2013.1/src/exe/rbdock.cxx#4 $)

>  <Rbt.Library>
libRbt.so (2013.1, Build901 2013/11/27)

>  <Rbt.Parameter_File>
/export/apps/rDock/src/rDock_2013.1_src/data/scripts/dock_solv.prm

>  <Rbt.Receptor>
prm/pocket_docking_2.prm

>  <SCORE>
-13.8352

>  <SCORE.INTER>
-14.5026

>  <SCORE.INTER.CONST>
1

>  <SCORE.INTER.POLAR>
0

>  <SCORE.INTER.ROT>
7

>  <SCORE.INTER.SOLV>
19.0293

>  <SCORE.INTER.VDW>
-24.2781

>  <SCORE.INTER.norm>
-0.537133

>  <SCORE.INTRA>
0.471121

>  <SCORE.INTRA.DIHEDRAL>
1.54081

>  <SCORE.INTRA.DIHEDRAL.0>
4.89803

>  <SCORE.INTRA.POLAR>
0

>  <SCORE.INTRA.POLAR.0>
0

>  <SCORE.INTRA.REPUL>
0

>  <SCORE.INTRA.REPUL.0>
0

>  <SCORE.INTRA.SOLV>
1.62904

>  <SCORE.INTRA.SOLV.lig_0>
-48.5832

>  <SCORE.INTRA.VDW>
-1.1138

>  <SCORE.INTRA.VDW.0>
-2.39056

>  <SCORE.INTRA.norm>
0.0174489

>  <SCORE.RESTR>
0.196224

>  <SCORE.RESTR.CAVITY>
0.196224

>  <SCORE.RESTR.norm>
0.00726755

>  <SCORE.SYSTEM>
0

>  <SCORE.SYSTEM.CONST>
0

>  <SCORE.SYSTEM.DIHEDRAL>
0

>  <SCORE.SYSTEM.SOLV>
0

>  <SCORE.SYSTEM.norm>
0

>  <SCORE.heavy>
27

>  <SCORE.norm>
-0.512417

>  <RMSD>
1.935

$$$$
ligand
 OpenBabel11021811473D
libRbt.so/2013.1/901 2013/11/27
 27 29  0  0  0  0  0  0  0  0999 V2000
   12.7330   -5.2350  -15.3156 N   0  0  0  0  0  0  0  0  0  0  0  0
   14.1884   -5.2326  -15.5246 C   0  0  2  0  0  0  0  0  0  0  0  0
   14.7774   -3.8897  -15.0822 C   0  0  0  0  0  0  0  0  0  0  0  0
   15.9810   -3.8827  -14.7433 O   0  0  0  0  0  0  0  0  0  0  0  0
   14.4734   -5.4421  -17.0128 C   0  0  0  0  0  0  0  0  0  0  0  0
   14.0732   -6.8431  -17.4826 C   0  0  0  0  0  0  0  0  0  0  0  0
   13.0346   -6.5479  -20.1103 C   0  0  0  0  0  0  0  0  0  0  0  0
   14.5667   -7.1173  -19.2535 Se  0  0  2  0  0  0  0  0  0  0  0  0
   14.5164   -8.9481  -19.5725 C   0  0  0  0  0  0  0  0  0  0  0  0
   13.0990   -9.5139  -19.6691 C   0  0  1  0  0  0  0  0  0  0  0  0
   12.5532   -9.1520  -20.9493 O   0  0  0  0  0  0  0  0  0  0  0  0
   13.2212  -11.0374  -19.7168 C   0  0  1  0  0  0  0  0  0  0  0  0
   11.9235  -11.6259  -19.6165 O   0  0  0  0  0  0  0  0  0  0  0  0
   13.7567  -11.1965  -21.1376 C   0  0  1  0  0  0  0  0  0  0  0  0
   13.4809  -12.5242  -21.5873 O   0  0  0  0  0  0  0  0  0  0  0  0
   12.8333  -10.2218  -21.8697 C   0  0  2  0  0  0  0  0  0  0  0  0
   14.0102   -2.9019  -15.0829 O   0  0  0  0  0  0  0  0  0  0  0  0
   16.3628   -7.1232  -24.0112 N   0  0  0  0  0  0  0  0  0  0  0  0
   16.1116   -7.3314  -22.7302 C   0  0  0  0  0  0  0  0  0  0  0  0
   15.1666   -8.1653  -22.3322 N   0  0  0  0  0  0  0  0  0  0  0  0
   14.4270   -8.8363  -23.2280 C   0  0  0  0  0  0  0  0  0  0  0  0
   14.6603   -8.6425  -24.5823 C   0  0  0  0  0  0  0  0  0  0  0  0
   15.6603   -7.7544  -24.9607 C   0  0  0  0  0  0  0  0  0  0  0  0
   15.8874   -7.5133  -26.2481 N   0  0  0  0  0  0  0  0  0  0  0  0
   13.8074   -9.4096  -25.2520 N   0  0  0  0  0  0  0  0  0  0  0  0
   13.0659  -10.0605  -24.3587 C   0  0  0  0  0  0  0  0  0  0  0  0
   13.4372   -9.7172  -23.1252 N   0  0  0  0  0  0  0  0  0  0  0  0
  2  1  1  6  0  0  0
  2  5  1  0  0  0  0
  2  3  1  0  0  0  0
  3 17  1  0  0  0  0
  3  4  1  0  0  0  0
  5  6  1  0  0  0  0
  7  8  1  0  0  0  0
  8  6  1  1  0  0  0
  8  9  1  0  0  0  0
 10  9  1  6  0  0  0
 10 11  1  0  0  0  0
 10 12  1  0  0  0  0
 11 16  1  0  0  0  0
 12 13  1  6  0  0  0
 12 14  1  0  0  0  0
 14 15  1  6  0  0  0
 14 16  1  0  0  0  0
 16 27  1  6  0  0  0
 18 23  2  0  0  0  0
 18 19  1  0  0  0  0
 19 20  2  0  0  0  0
 20 21  1  0  0  0  0
 21 22  2  0  0  0  0
 21 27  1  0  0  0  0
 22 23  1  0  0  0  0
 22 25  1  0  0  0  0
 23 24  1  0  0  0  0
 25 26  2  0  0  0  0
 26 27  1  0  0  0  0
M  END
>  <CHROM.1>
-67.36653701,155.04575064,-175.05691473,-90.87037049,73.23594330,75.96751472
46.19841808,14.17969292,-7.85195098,-20.25527686,1.53188848,1.05271734,1.05606232

>  <Name>
ligand

>  <RI>
0

>  <Rbt.Current_Directory>
/home/itssahil/PROJECTS/Mol_Feturizer/New_Systems/rnas/3E5F

>  <Rbt.Executable>
rbdock ($Id: //depot/dev/client3/rdock/2013.1/src/exe/rbdock.cxx#4 $)

>  <Rbt.Library>
libRbt.so (2013.1, Build901 2013/11/27)

>  <Rbt.Parameter_File>
/export/apps/rDock/src/rDock_2013.1_src/data/scripts/dock_solv.prm

>  <Rbt.Receptor>
prm/pocket_docking_4.prm

>  <SCORE>
-11.9916

>  <SCORE.INTER>
-13.8023

>  <SCORE.INTER.CONST>
1

>  <SCORE.INTER.POLAR>
0

>  <SCORE.INTER.ROT>
7

>  <SCORE.INTER.SOLV>
18.9609

>  <SCORE.INTER.VDW>
-23.7885

>  <SCORE.INTER.norm>
-0.511196

>  <SCORE.INTRA>
1.81073

>  <SCORE.INTRA.DIHEDRAL>
0.614787

>  <SCORE.INTRA.DIHEDRAL.0>
4.89803

>  <SCORE.INTRA.POLAR>
0

>  <SCORE.INTRA.POLAR.0>
0

>  <SCORE.INTRA.REPUL>
0

>  <SCORE.INTRA.REPUL.0>
0

>  <SCORE.INTRA.SOLV>
0.777971

>  <SCORE.INTRA.SOLV.lig_0>
-48.5832

>  <SCORE.INTRA.VDW>
1.11435

>  <SCORE.INTRA.VDW.0>
-2.39056

>  <SCORE.INTRA.norm>
0.0670642

>  <SCORE.RESTR>
0

>  <SCORE.RESTR.CAVITY>
0

>  <SCORE.RESTR.norm>
0

>  <SCORE.SYSTEM>
0

>  <SCORE.SYSTEM.CONST>
0

>  <SCORE.SYSTEM.DIHEDRAL>
0

>  <SCORE.SYSTEM.SOLV>
0

>  <SCORE.SYSTEM.norm>
0

>  <SCORE.heavy>
27

>  <SCORE.norm>
-0.444132

>  <RMSD>
1.966

$$$$
ligand
 OpenBabel11021811473D
libRbt.so/2013.1/901 2013/11/27
 27 29  0  0  0  0  0  0  0  0999 V2000
   17.0512   -6.1143  -19.1363 N   0  0  0  0  0  0  0  0  0  0  0  0
   16.2309   -6.5736  -18.0057 C   0  0  2  0  0  0  0  0  0  0  0  0
   16.9842   -7.6487  -17.2166 C   0  0  0  0  0  0  0  0  0  0  0  0
   17.9166   -8.2366  -17.8071 O   0  0  0  0  0  0  0  0  0  0  0  0
   14.9296   -7.1661  -18.5490 C   0  0  0  0  0  0  0  0  0  0  0  0
   13.9064   -7.4195  -17.4389 C   0  0  0  0  0  0  0  0  0  0  0  0
   11.2831   -8.1465  -16.6262 C   0  0  0  0  0  0  0  0  0  0  0  0
   12.3634   -8.1992  -18.1215 Se  0  0  2  0  0  0  0  0  0  0  0  0
   12.6835  -10.0229  -18.2889 C   0  0  0  0  0  0  0  0  0  0  0  0
   11.7639  -10.7159  -19.2951 C   0  0  1  0  0  0  0  0  0  0  0  0
   11.8773  -10.0345  -20.5563 O   0  0  0  0  0  0  0  0  0  0  0  0
   12.3417  -12.1079  -19.5535 C   0  0  1  0  0  0  0  0  0  0  0  0
   11.4234  -12.8699  -20.3387 O   0  0  0  0  0  0  0  0  0  0  0  0
   13.5517  -11.7185  -20.3990 C   0  0  1  0  0  0  0  0  0  0  0  0
   13.9586  -12.8510  -21.1691 O   0  0  0  0  0  0  0  0  0  0  0  0
   12.8963  -10.6954  -21.3277 C   0  0  2  0  0  0  0  0  0  0  0  0
   16.6062   -7.8665  -16.0444 O   0  0  0  0  0  0  0  0  0  0  0  0
   14.6147   -8.2037  -25.5089 N   0  0  0  0  0  0  0  0  0  0  0  0
   13.6103   -9.0572  -25.4079 C   0  0  0  0  0  0  0  0  0  0  0  0
   13.2862   -9.6184  -24.2561 N   0  0  0  0  0  0  0  0  0  0  0  0
   13.9738   -9.3321  -23.1402 C   0  0  0  0  0  0  0  0  0  0  0  0
   15.0362   -8.4417  -23.2071 C   0  0  0  0  0  0  0  0  0  0  0  0
   15.3481   -7.8756  -24.4376 C   0  0  0  0  0  0  0  0  0  0  0  0
   16.3827   -7.0483  -24.5492 N   0  0  0  0  0  0  0  0  0  0  0  0
   15.5463   -8.3304  -21.9857 N   0  0  0  0  0  0  0  0  0  0  0  0
   14.8365   -9.1176  -21.1807 C   0  0  0  0  0  0  0  0  0  0  0  0
   13.8778   -9.7301  -21.8757 N   0  0  0  0  0  0  0  0  0  0  0  0
  2  1  1  6  0  0  0
  2  5  1  0  0  0  0
  2  3  1  0  0  0  0
  3 17  1  0  0  0  0
  3  4  1  0  0  0  0
  5  6  1  0  0  0  0
  7  8  1  0  0  0  0
  8  6  1  1  0  0  0
  8  9  1  0  0  0  0
 10  9  1  1  0  0  0
 10 11  1  0  0  0  0
 10 12  1  0  0  0  0
 11 16  1  0  0  0  0
 12 13  1  6  0  0  0
 12 14  1  0  0  0  0
 14 15  1  6  0  0  0
 14 16  1  0  0  0  0
 16 27  1  1  0  0  0
 18 23  2  0  0  0  0
 18 19  1  0  0  0  0
 19 20  2  0  0  0  0
 20 21  1  0  0  0  0
 21 22  2  0  0  0  0
 21 27  1  0  0  0  0
 22 23  1  0  0  0  0
 22 25  1  0  0  0  0
 23 24  1  0  0  0  0
 25 26  2  0  0  0  0
 26 27  1  0  0  0  0
M  END
>  <CHROM.1>
-168.95194377,-20.09805113,-177.81318749,-172.37177016,-158.02479849,55.04611332
-105.89232263,13.94062466,-8.97496330,-20.12479808,-1.59610497,-0.69736241
-1.77945230

>  <Name>
ligand

>  <RI>
0

>  <Rbt.Current_Directory>
/home/itssahil/PROJECTS/Mol_Feturizer/New_Systems/rnas/3E5F

>  <Rbt.Executable>
rbdock ($Id: //depot/dev/client3/rdock/2013.1/src/exe/rbdock.cxx#4 $)

>  <Rbt.Library>
libRbt.so (2013.1, Build901 2013/11/27)

>  <Rbt.Parameter_File>
/export/apps/rDock/src/rDock_2013.1_src/data/scripts/dock_solv.prm

>  <Rbt.Receptor>
prm/pocket_docking_3.prm

>  <SCORE>
-14.968

>  <SCORE.INTER>
-14.4534

>  <SCORE.INTER.CONST>
1

>  <SCORE.INTER.POLAR>
0

>  <SCORE.INTER.ROT>
7

>  <SCORE.INTER.SOLV>
19.1829

>  <SCORE.INTER.VDW>
-24.2966

>  <SCORE.INTER.norm>
-0.535311

>  <SCORE.INTRA>
-0.514612

>  <SCORE.INTRA.DIHEDRAL>
0.0273148

>  <SCORE.INTRA.DIHEDRAL.0>
4.89803

>  <SCORE.INTRA.POLAR>
0

>  <SCORE.INTRA.POLAR.0>
0

>  <SCORE.INTRA.REPUL>
0

>  <SCORE.INTRA.REPUL.0>
0

>  <SCORE.INTRA.SOLV>
0.00183218

>  <SCORE.INTRA.SOLV.lig_0>
-48.5832

>  <SCORE.INTRA.VDW>
-0.529186

>  <SCORE.INTRA.VDW.0>
-2.39056

>  <SCORE.INTRA.norm>
-0.0190597

>  <SCORE.RESTR>
0

>  <SCORE.RESTR.CAVITY>
0

>  <SCORE.RESTR.norm>
0

>  <SCORE.SYSTEM>
0

>  <SCORE.SYSTEM.CONST>
0

>  <SCORE.SYSTEM.DIHEDRAL>
0

>  <SCORE.SYSTEM.SOLV>
0

>  <SCORE.SYSTEM.norm>
0

>  <SCORE.heavy>
27

>  <SCORE.norm>
-0.554371

>  <RMSD>
2.028

$$$$
ligand
 OpenBabel11021811473D
libRbt.so/2013.1/901 2013/11/27
 27 29  0  0  0  0  0  0  0  0999 V2000
   16.8505   -7.2007  -15.4477 N   0  0  0  0  0  0  0  0  0  0  0  0
   16.6895   -5.8224  -15.9338 C   0  0  2  0  0  0  0  0  0  0  0  0
   16.9354   -4.8332  -14.7904 C   0  0  0  0  0  0  0  0  0  0  0  0
   16.9446   -5.2990  -13.6300 O   0  0  0  0  0  0  0  0  0  0  0  0
   15.2618   -5.6464  -16.4541 C   0  0  0  0  0  0  0  0  0  0  0  0
   15.1001   -6.1804  -17.8797 C   0  0  0  0  0  0  0  0  0  0  0  0
   17.3796   -7.8233  -18.2980 C   0  0  0  0  0  0  0  0  0  0  0  0
   15.5692   -7.9764  -17.9747 Se  0  0  2  0  0  0  0  0  0  0  0  0
   14.9518   -8.6318  -19.6012 C   0  0  0  0  0  0  0  0  0  0  0  0
   13.4708   -9.0125  -19.5852 C   0  0  1  0  0  0  0  0  0  0  0  0
   12.9035   -8.6783  -20.8636 O   0  0  0  0  0  0  0  0  0  0  0  0
   13.3956  -10.5382  -19.5150 C   0  0  1  0  0  0  0  0  0  0  0  0
   12.0415  -10.9423  -19.3066 O   0  0  0  0  0  0  0  0  0  0  0  0
   13.8249  -10.8713  -20.9416 C   0  0  1  0  0  0  0  0  0  0  0  0
   13.3575  -12.1811  -21.2689 O   0  0  0  0  0  0  0  0  0  0  0  0
   12.9927   -9.8411  -21.7063 C   0  0  2  0  0  0  0  0  0  0  0  0
   17.0993   -3.6325  -15.0998 O   0  0  0  0  0  0  0  0  0  0  0  0
   16.4767   -7.0464  -24.2940 N   0  0  0  0  0  0  0  0  0  0  0  0
   16.2358   -7.0725  -22.9945 C   0  0  0  0  0  0  0  0  0  0  0  0
   15.3019   -7.8499  -22.4746 N   0  0  0  0  0  0  0  0  0  0  0  0
   14.5634   -8.6483  -23.2602 C   0  0  0  0  0  0  0  0  0  0  0  0
   14.7862   -8.6470  -24.6300 C   0  0  0  0  0  0  0  0  0  0  0  0
   15.7747   -7.8127  -25.1386 C   0  0  0  0  0  0  0  0  0  0  0  0
   15.9911   -7.7551  -26.4490 N   0  0  0  0  0  0  0  0  0  0  0  0
   13.9369   -9.5095  -25.1772 N   0  0  0  0  0  0  0  0  0  0  0  0
   13.2078  -10.0334  -24.1947 C   0  0  0  0  0  0  0  0  0  0  0  0
   13.5833   -9.5147  -23.0255 N   0  0  0  0  0  0  0  0  0  0  0  0
  2  1  1  1  0  0  0
  2  5  1  0  0  0  0
  2  3  1  0  0  0  0
  3 17  1  0  0  0  0
  3  4  1  0  0  0  0
  5  6  1  0  0  0  0
  7  8  1  0  0  0  0
  8  6  1  6  0  0  0
  8  9  1  0  0  0  0
 10  9  1  6  0  0  0
 10 11  1  0  0  0  0
 10 12  1  0  0  0  0
 11 16  1  0  0  0  0
 12 13  1  6  0  0  0
 12 14  1  0  0  0  0
 14 15  1  6  0  0  0
 14 16  1  0  0  0  0
 16 27  1  6  0  0  0
 18 23  2  0  0  0  0
 18 19  1  0  0  0  0
 19 20  2  0  0  0  0
 20 21  1  0  0  0  0
 21 22  2  0  0  0  0
 21 27  1  0  0  0  0
 22 23  1  0  0  0  0
 22 25  1  0  0  0  0
 23 24  1  0  0  0  0
 25 26  2  0  0  0  0
 26 27  1  0  0  0  0
M  END
>  <CHROM.1>
-81.57399437,-14.46604478,57.61024305,-87.97046884,-81.76621534,143.67889717
37.03212447,15.06967646,-8.08596536,-19.90505708,1.17593613,0.91043421,1.50391417

>  <Name>
ligand

>  <RI>
0

>  <Rbt.Current_Directory>
/home/itssahil/PROJECTS/Mol_Feturizer/New_Systems/rnas/3E5F

>  <Rbt.Executable>
rbdock ($Id: //depot/dev/client3/rdock/2013.1/src/exe/rbdock.cxx#4 $)

>  <Rbt.Library>
libRbt.so (2013.1, Build901 2013/11/27)

>  <Rbt.Parameter_File>
/export/apps/rDock/src/rDock_2013.1_src/data/scripts/dock_solv.prm

>  <Rbt.Receptor>
prm/pocket_docking_4.prm

>  <SCORE>
-10.9625

>  <SCORE.INTER>
-14.1179

>  <SCORE.INTER.CONST>
1

>  <SCORE.INTER.POLAR>
0

>  <SCORE.INTER.ROT>
7

>  <SCORE.INTER.SOLV>
21.3314

>  <SCORE.INTER.VDW>
-24.789

>  <SCORE.INTER.norm>
-0.522884

>  <SCORE.INTRA>
3.15536

>  <SCORE.INTRA.DIHEDRAL>
3.93934

>  <SCORE.INTRA.DIHEDRAL.0>
4.89803

>  <SCORE.INTRA.POLAR>
0

>  <SCORE.INTRA.POLAR.0>
0

>  <SCORE.INTRA.REPUL>
0

>  <SCORE.INTRA.REPUL.0>
0

>  <SCORE.INTRA.SOLV>
2.49031

>  <SCORE.INTRA.SOLV.lig_0>
-48.5832

>  <SCORE.INTRA.VDW>
-0.0594687

>  <SCORE.INTRA.VDW.0>
-2.39056

>  <SCORE.INTRA.norm>
0.116865

>  <SCORE.RESTR>
0

>  <SCORE.RESTR.CAVITY>
0

>  <SCORE.RESTR.norm>
0

>  <SCORE.SYSTEM>
0

>  <SCORE.SYSTEM.CONST>
0

>  <SCORE.SYSTEM.DIHEDRAL>
0

>  <SCORE.SYSTEM.SOLV>
0

>  <SCORE.SYSTEM.norm>
0

>  <SCORE.heavy>
27

>  <SCORE.norm>
-0.406019

>  <RMSD>
2.031

$$$$
ligand
 OpenBabel11021811473D
libRbt.so/2013.1/901 2013/11/27
 27 29  0  0  0  0  0  0  0  0999 V2000
   16.1683   -7.2656  -16.7281 N   0  0  0  0  0  0  0  0  0  0  0  0
   15.7917   -6.6121  -17.9902 C   0  0  2  0  0  0  0  0  0  0  0  0
   16.8755   -5.6121  -18.4044 C   0  0  0  0  0  0  0  0  0  0  0  0
   16.6827   -4.9725  -19.4614 O   0  0  0  0  0  0  0  0  0  0  0  0
   14.4710   -5.8678  -17.7854 C   0  0  0  0  0  0  0  0  0  0  0  0
   13.3249   -6.8185  -17.4305 C   0  0  0  0  0  0  0  0  0  0  0  0
   11.0233   -7.2929  -19.0267 C   0  0  0  0  0  0  0  0  0  0  0  0
   12.7933   -7.8031  -18.9146 Se  0  0  2  0  0  0  0  0  0  0  0  0
   12.6392   -9.5782  -18.3841 C   0  0  0  0  0  0  0  0  0  0  0  0
   11.7942  -10.4294  -19.3328 C   0  0  1  0  0  0  0  0  0  0  0  0
   11.9283   -9.8955  -20.6612 O   0  0  0  0  0  0  0  0  0  0  0  0
   12.4449  -11.8114  -19.4032 C   0  0  1  0  0  0  0  0  0  0  0  0
   11.5953  -12.7051  -20.1242 O   0  0  0  0  0  0  0  0  0  0  0  0
   13.6696  -11.4636  -20.2456 C   0  0  1  0  0  0  0  0  0  0  0  0
   14.1590  -12.6566  -20.8607 O   0  0  0  0  0  0  0  0  0  0  0  0
   13.0071  -10.5903  -21.3119 C   0  0  2  0  0  0  0  0  0  0  0  0
   17.8770   -5.5155  -17.6614 O   0  0  0  0  0  0  0  0  0  0  0  0
   14.5572   -8.2658  -25.6523 N   0  0  0  0  0  0  0  0  0  0  0  0
   13.5583   -9.1142  -25.4783 C   0  0  0  0  0  0  0  0  0  0  0  0
   13.2804   -9.6294  -24.2935 N   0  0  0  0  0  0  0  0  0  0  0  0
   14.0111   -9.2999  -23.2176 C   0  0  0  0  0  0  0  0  0  0  0  0
   15.0692   -8.4135  -23.3613 C   0  0  0  0  0  0  0  0  0  0  0  0
   15.3319   -7.8964  -24.6244 C   0  0  0  0  0  0  0  0  0  0  0  0
   16.3604   -7.0747  -24.8091 N   0  0  0  0  0  0  0  0  0  0  0  0
   15.6269   -8.2545  -22.1663 N   0  0  0  0  0  0  0  0  0  0  0  0
   14.9501   -9.0090  -21.3036 C   0  0  0  0  0  0  0  0  0  0  0  0
   13.9653   -9.6478  -21.9357 N   0  0  0  0  0  0  0  0  0  0  0  0
  2  1  1  1  0  0  0
  2  5  1  0  0  0  0
  2  3  1  0  0  0  0
  3 17  1  0  0  0  0
  3  4  1  0  0  0  0
  5  6  1  0  0  0  0
  7  8  1  0  0  0  0
  8  6  1  1  0  0  0
  8  9  1  0  0  0  0
 10  9  1  1  0  0  0
 10 11  1  0  0  0  0
 10 12  1  0  0  0  0
 11 16  1  0  0  0  0
 12 13  1  6  0  0  0
 12 14  1  0  0  0  0
 14 15  1  6  0  0  0
 14 16  1  0  0  0  0
 16 27  1  1  0  0  0
 18 23  2  0  0  0  0
 18 19  1  0  0  0  0
 19 20  2  0  0  0  0
 20 21  1  0  0  0  0
 21 22  2  0  0  0  0
 21 27  1  0  0  0  0
 22 23  1  0  0  0  0
 22 25  1  0  0  0  0
 23 24  1  0  0  0  0
 25 26  2  0  0  0  0
 26 27  1  0  0  0  0
M  END
>  <CHROM.1>
-62.56246322,-179.54075111,-73.07084450,-120.69387212,161.28622365,30.17536298
-98.97768316,13.96364618,-8.52482403,-20.41849791,-1.25735404,-0.84271383
-1.90947081

>  <Name>
ligand

>  <RI>
0

>  <Rbt.Current_Directory>
/home/itssahil/PROJECTS/Mol_Feturizer/New_Systems/rnas/3E5F

>  <Rbt.Executable>
rbdock ($Id: //depot/dev/client3/rdock/2013.1/src/exe/rbdock.cxx#4 $)

>  <Rbt.Library>
libRbt.so (2013.1, Build901 2013/11/27)

>  <Rbt.Parameter_File>
/export/apps/rDock/src/rDock_2013.1_src/data/scripts/dock_solv.prm

>  <Rbt.Receptor>
prm/pocket_docking_2.prm

>  <SCORE>
-13.3814

>  <SCORE.INTER>
-15.4251

>  <SCORE.INTER.CONST>
1

>  <SCORE.INTER.POLAR>
0

>  <SCORE.INTER.ROT>
7

>  <SCORE.INTER.SOLV>
20.2465

>  <SCORE.INTER.VDW>
-25.2989

>  <SCORE.INTER.norm>
-0.5713

>  <SCORE.INTRA>
2.03281

>  <SCORE.INTRA.DIHEDRAL>
3.51527

>  <SCORE.INTRA.DIHEDRAL.0>
4.89803

>  <SCORE.INTRA.POLAR>
0

>  <SCORE.INTRA.POLAR.0>
0

>  <SCORE.INTRA.REPUL>
0

>  <SCORE.INTRA.REPUL.0>
0

>  <SCORE.INTRA.SOLV>
0.908813

>  <SCORE.INTRA.SOLV.lig_0>
-48.5832

>  <SCORE.INTRA.VDW>
-0.179235

>  <SCORE.INTRA.VDW.0>
-2.39056

>  <SCORE.INTRA.norm>
0.0752892

>  <SCORE.RESTR>
0.0108537

>  <SCORE.RESTR.CAVITY>
0.0108537

>  <SCORE.RESTR.norm>
0.00040199

>  <SCORE.SYSTEM>
0

>  <SCORE.SYSTEM.CONST>
0

>  <SCORE.SYSTEM.DIHEDRAL>
0

>  <SCORE.SYSTEM.SOLV>
0

>  <SCORE.SYSTEM.norm>
0

>  <SCORE.heavy>
27

>  <SCORE.norm>
-0.495609

>  <RMSD>
2.072

$$$$
ligand
 OpenBabel11021811473D
libRbt.so/2013.1/901 2013/11/27
 27 29  0  0  0  0  0  0  0  0999 V2000
   16.5095   -7.4163  -15.8473 N   0  0  0  0  0  0  0  0  0  0  0  0
   16.5549   -7.0414  -17.2683 C   0  0  2  0  0  0  0  0  0  0  0  0
   16.4349   -5.5211  -17.4115 C   0  0  0  0  0  0  0  0  0  0  0  0
   16.6550   -5.0393  -18.5442 O   0  0  0  0  0  0  0  0  0  0  0  0
   15.3849   -7.7097  -17.9925 C   0  0  0  0  0  0  0  0  0  0  0  0
   14.0360   -7.3324  -17.3748 C   0  0  0  0  0  0  0  0  0  0  0  0
   11.2277   -7.7248  -17.2026 C   0  0  0  0  0  0  0  0  0  0  0  0
   12.6304   -8.0494  -18.3570 Se  0  0  2  0  0  0  0  0  0  0  0  0
   12.7701   -9.9010  -18.2662 C   0  0  0  0  0  0  0  0  0  0  0  0
   11.8408  -10.6332  -19.2353 C   0  0  1  0  0  0  0  0  0  0  0  0
   11.9409  -10.0015  -20.5232 O   0  0  0  0  0  0  0  0  0  0  0  0
   12.4170  -12.0340  -19.4449 C   0  0  1  0  0  0  0  0  0  0  0  0
   11.4914  -12.8264  -20.1904 O   0  0  0  0  0  0  0  0  0  0  0  0
   13.6180  -11.6775  -20.3173 C   0  0  1  0  0  0  0  0  0  0  0  0
   14.0179  -12.8390  -21.0467 O   0  0  0  0  0  0  0  0  0  0  0  0
   12.9525  -10.6917  -21.2785 C   0  0  2  0  0  0  0  0  0  0  0  0
   16.1354   -4.8729  -16.3846 O   0  0  0  0  0  0  0  0  0  0  0  0
   14.5760   -8.3035  -25.5569 N   0  0  0  0  0  0  0  0  0  0  0  0
   13.5664   -9.1440  -25.4100 C   0  0  0  0  0  0  0  0  0  0  0  0
   13.2696   -9.6783  -24.2382 N   0  0  0  0  0  0  0  0  0  0  0  0
   13.9915   -9.3768  -23.1483 C   0  0  0  0  0  0  0  0  0  0  0  0
   15.0605   -8.4993  -23.2636 C   0  0  0  0  0  0  0  0  0  0  0  0
   15.3429   -7.9616  -24.5137 C   0  0  0  0  0  0  0  0  0  0  0  0
   16.3821   -7.1477  -24.6715 N   0  0  0  0  0  0  0  0  0  0  0  0
   15.6062   -8.3687  -22.0596 N   0  0  0  0  0  0  0  0  0  0  0  0
   14.9118   -9.1319  -21.2189 C   0  0  0  0  0  0  0  0  0  0  0  0
   13.9276   -9.7481  -21.8738 N   0  0  0  0  0  0  0  0  0  0  0  0
  2  1  1  1  0  0  0
  2  5  1  0  0  0  0
  2  3  1  0  0  0  0
  3 17  1  0  0  0  0
  3  4  1  0  0  0  0
  5  6  1  0  0  0  0
  7  8  1  0  0  0  0
  8  6  1  1  0  0  0
  8  9  1  0  0  0  0
 10  9  1  1  0  0  0
 10 11  1  0  0  0  0
 10 12  1  0  0  0  0
 11 16  1  0  0  0  0
 12 13  1  6  0  0  0
 12 14  1  0  0  0  0
 14 15  1  6  0  0  0
 14 16  1  0  0  0  0
 16 27  1  1  0  0  0
 18 23  2  0  0  0  0
 18 19  1  0  0  0  0
 19 20  2  0  0  0  0
 20 21  1  0  0  0  0
 21 22  2  0  0  0  0
 21 27  1  0  0  0  0
 22 23  1  0  0  0  0
 22 25  1  0  0  0  0
 23 24  1  0  0  0  0
 25 26  2  0  0  0  0
 26 27  1  0  0  0  0
M  END
>  <CHROM.1>
57.19759078,169.74724112,175.48267931,169.06551831,-169.24598370,46.19725914
-104.27392365,13.94106951,-8.72362996,-20.07610233,-1.36962814,-0.85948518
-1.87459537

>  <Name>
ligand

>  <RI>
0

>  <Rbt.Current_Directory>
/home/itssahil/PROJECTS/Mol_Feturizer/New_Systems/rnas/3E5F

>  <Rbt.Executable>
rbdock ($Id: //depot/dev/client3/rdock/2013.1/src/exe/rbdock.cxx#4 $)

>  <Rbt.Library>
libRbt.so (2013.1, Build901 2013/11/27)

>  <Rbt.Parameter_File>
/export/apps/rDock/src/rDock_2013.1_src/data/scripts/dock_solv.prm

>  <Rbt.Receptor>
prm/pocket_docking_6.prm

>  <SCORE>
-15.3816

>  <SCORE.INTER>
-15.4943

>  <SCORE.INTER.CONST>
1

>  <SCORE.INTER.POLAR>
0

>  <SCORE.INTER.ROT>
7

>  <SCORE.INTER.SOLV>
20.081

>  <SCORE.INTER.VDW>
-25.2899

>  <SCORE.INTER.norm>
-0.573865

>  <SCORE.INTRA>
0.112704

>  <SCORE.INTRA.DIHEDRAL>
-0.71364

>  <SCORE.INTRA.DIHEDRAL.0>
4.89803

>  <SCORE.INTRA.POLAR>
0

>  <SCORE.INTRA.POLAR.0>
0

>  <SCORE.INTRA.REPUL>
0

>  <SCORE.INTRA.REPUL.0>
0

>  <SCORE.INTRA.SOLV>
0.69757

>  <SCORE.INTRA.SOLV.lig_0>
-48.5832

>  <SCORE.INTRA.VDW>
0.120739

>  <SCORE.INTRA.VDW.0>
-2.39056

>  <SCORE.INTRA.norm>
0.0041742

>  <SCORE.RESTR>
0

>  <SCORE.RESTR.CAVITY>
0

>  <SCORE.RESTR.norm>
0

>  <SCORE.SYSTEM>
0

>  <SCORE.SYSTEM.CONST>
0

>  <SCORE.SYSTEM.DIHEDRAL>
0

>  <SCORE.SYSTEM.SOLV>
0

>  <SCORE.SYSTEM.norm>
0

>  <SCORE.heavy>
27

>  <SCORE.norm>
-0.56969

>  <RMSD>
2.073

$$$$
ligand
 OpenBabel11021811473D
libRbt.so/2013.1/901 2013/11/27
 27 29  0  0  0  0  0  0  0  0999 V2000
   15.8237   -5.1427  -16.8877 N   0  0  0  0  0  0  0  0  0  0  0  0
   16.1733   -6.5121  -17.2930 C   0  0  2  0  0  0  0  0  0  0  0  0
   17.4984   -6.5072  -18.0613 C   0  0  0  0  0  0  0  0  0  0  0  0
   17.8109   -5.4469  -18.6458 O   0  0  0  0  0  0  0  0  0  0  0  0
   15.0673   -7.0559  -18.1992 C   0  0  0  0  0  0  0  0  0  0  0  0
   13.7050   -7.0644  -17.5010 C   0  0  0  0  0  0  0  0  0  0  0  0
   10.9108   -7.5754  -17.5429 C   0  0  0  0  0  0  0  0  0  0  0  0
   12.4171   -7.8791  -18.5650 Se  0  0  2  0  0  0  0  0  0  0  0  0
   12.6255   -9.7180  -18.3888 C   0  0  0  0  0  0  0  0  0  0  0  0
   11.7617  -10.5275  -19.3569 C   0  0  1  0  0  0  0  0  0  0  0  0
   11.8839   -9.9469  -20.6667 O   0  0  0  0  0  0  0  0  0  0  0  0
   12.3998  -11.9112  -19.4854 C   0  0  1  0  0  0  0  0  0  0  0  0
   11.5339  -12.7713  -20.2276 O   0  0  0  0  0  0  0  0  0  0  0  0
   13.6170  -11.5428  -20.3301 C   0  0  1  0  0  0  0  0  0  0  0  0
   14.0886  -12.7167  -20.9940 O   0  0  0  0  0  0  0  0  0  0  0  0
   12.9488  -10.6262  -21.3557 C   0  0  2  0  0  0  0  0  0  0  0  0
   18.1652   -7.5654  -18.0559 O   0  0  0  0  0  0  0  0  0  0  0  0
   14.5207   -8.2256  -25.6465 N   0  0  0  0  0  0  0  0  0  0  0  0
   13.5247   -9.0813  -25.4938 C   0  0  0  0  0  0  0  0  0  0  0  0
   13.2402   -9.6167  -24.3194 N   0  0  0  0  0  0  0  0  0  0  0  0
   13.9610   -9.3009  -23.2328 C   0  0  0  0  0  0  0  0  0  0  0  0
   15.0159   -8.4073  -23.3542 C   0  0  0  0  0  0  0  0  0  0  0  0
   15.2857   -7.8689  -24.6069 C   0  0  0  0  0  0  0  0  0  0  0  0
   16.3117   -7.0395  -24.7706 N   0  0  0  0  0  0  0  0  0  0  0  0
   15.5636   -8.2648  -22.1526 N   0  0  0  0  0  0  0  0  0  0  0  0
   14.8839   -9.0361  -21.3073 C   0  0  0  0  0  0  0  0  0  0  0  0
   13.9072   -9.6694  -21.9570 N   0  0  0  0  0  0  0  0  0  0  0  0
  2  1  1  6  0  0  0
  2  5  1  0  0  0  0
  2  3  1  0  0  0  0
  3 17  1  0  0  0  0
  3  4  1  0  0  0  0
  5  6  1  0  0  0  0
  7  8  1  0  0  0  0
  8  6  1  1  0  0  0
  8  9  1  0  0  0  0
 10  9  1  1  0  0  0
 10 11  1  0  0  0  0
 10 12  1  0  0  0  0
 11 16  1  0  0  0  0
 12 13  1  6  0  0  0
 12 14  1  0  0  0  0
 14 15  1  6  0  0  0
 14 16  1  0  0  0  0
 16 27  1  1  0  0  0
 18 23  2  0  0  0  0
 18 19  1  0  0  0  0
 19 20  2  0  0  0  0
 20 21  1  0  0  0  0
 21 22  2  0  0  0  0
 21 27  1  0  0  0  0
 22 23  1  0  0  0  0
 22 25  1  0  0  0  0
 23 24  1  0  0  0  0
 25 26  2  0  0  0  0
 26 27  1  0  0  0  0
M  END
>  <CHROM.1>
-58.90157670,-25.52986864,-174.55370598,-174.52631565,-171.93660427,46.17459780
-100.77836952,13.96516414,-8.65768720,-20.29533107,-1.33478842,-0.71692996
-1.89189979

>  <Name>
ligand

>  <RI>
0

>  <Rbt.Current_Directory>
/home/itssahil/PROJECTS/Mol_Feturizer/New_Systems/rnas/3E5F

>  <Rbt.Executable>
rbdock ($Id: //depot/dev/client3/rdock/2013.1/src/exe/rbdock.cxx#4 $)

>  <Rbt.Library>
libRbt.so (2013.1, Build901 2013/11/27)

>  <Rbt.Parameter_File>
/export/apps/rDock/src/rDock_2013.1_src/data/scripts/dock_solv.prm

>  <Rbt.Receptor>
prm/pocket_docking_2.prm

>  <SCORE>
-14.4215

>  <SCORE.INTER>
-14.164

>  <SCORE.INTER.CONST>
1

>  <SCORE.INTER.POLAR>
0

>  <SCORE.INTER.ROT>
7

>  <SCORE.INTER.SOLV>
21.1312

>  <SCORE.INTER.VDW>
-24.7531

>  <SCORE.INTER.norm>
-0.524592

>  <SCORE.INTRA>
-0.257546

>  <SCORE.INTRA.DIHEDRAL>
-0.637561

>  <SCORE.INTRA.DIHEDRAL.0>
4.89803

>  <SCORE.INTRA.POLAR>
0

>  <SCORE.INTRA.POLAR.0>
0

>  <SCORE.INTRA.REPUL>
0

>  <SCORE.INTRA.REPUL.0>
0

>  <SCORE.INTRA.SOLV>
0.694404

>  <SCORE.INTRA.SOLV.lig_0>
-48.5832

>  <SCORE.INTRA.VDW>
-0.285967

>  <SCORE.INTRA.VDW.0>
-2.39056

>  <SCORE.INTRA.norm>
-0.00953873

>  <SCORE.RESTR>
0

>  <SCORE.RESTR.CAVITY>
0

>  <SCORE.RESTR.norm>
0

>  <SCORE.SYSTEM>
0

>  <SCORE.SYSTEM.CONST>
0

>  <SCORE.SYSTEM.DIHEDRAL>
0

>  <SCORE.SYSTEM.SOLV>
0

>  <SCORE.SYSTEM.norm>
0

>  <SCORE.heavy>
27

>  <SCORE.norm>
-0.534131

>  <RMSD>
2.074

$$$$
ligand
 OpenBabel11021811473D
libRbt.so/2013.1/901 2013/11/27
 27 29  0  0  0  0  0  0  0  0999 V2000
   14.5816   -6.3237  -20.0783 N   0  0  0  0  0  0  0  0  0  0  0  0
   15.1404   -5.5829  -18.9378 C   0  0  2  0  0  0  0  0  0  0  0  0
   16.4194   -6.2676  -18.4464 C   0  0  0  0  0  0  0  0  0  0  0  0
   17.2999   -5.5330  -17.9476 O   0  0  0  0  0  0  0  0  0  0  0  0
   14.1104   -5.5678  -17.8070 C   0  0  0  0  0  0  0  0  0  0  0  0
   13.6852   -6.9805  -17.3984 C   0  0  0  0  0  0  0  0  0  0  0  0
   11.0447   -7.3279  -18.3871 C   0  0  0  0  0  0  0  0  0  0  0  0
   12.7769   -7.8281  -18.7808 Se  0  0  2  0  0  0  0  0  0  0  0  0
   12.7392   -9.6463  -18.3952 C   0  0  0  0  0  0  0  0  0  0  0  0
   11.8366  -10.4518  -19.3307 C   0  0  1  0  0  0  0  0  0  0  0  0
   11.9271   -9.8830  -20.6482 O   0  0  0  0  0  0  0  0  0  0  0  0
   12.4526  -11.8447  -19.4669 C   0  0  1  0  0  0  0  0  0  0  0  0
   11.5539  -12.6991  -20.1759 O   0  0  0  0  0  0  0  0  0  0  0  0
   13.6487  -11.4990  -20.3503 C   0  0  1  0  0  0  0  0  0  0  0  0
   14.0851  -12.6840  -21.0184 O   0  0  0  0  0  0  0  0  0  0  0  0
   12.9621  -10.5816  -21.3630 C   0  0  2  0  0  0  0  0  0  0  0  0
   16.4935   -7.5080  -18.5883 O   0  0  0  0  0  0  0  0  0  0  0  0
   14.4779   -8.2862  -25.7309 N   0  0  0  0  0  0  0  0  0  0  0  0
   13.4817   -9.1348  -25.5437 C   0  0  0  0  0  0  0  0  0  0  0  0
   13.2129   -9.6419  -24.3532 N   0  0  0  0  0  0  0  0  0  0  0  0
   13.9506   -9.3035  -23.2850 C   0  0  0  0  0  0  0  0  0  0  0  0
   15.0062   -8.4165  -23.4425 C   0  0  0  0  0  0  0  0  0  0  0  0
   15.2592   -7.9081  -24.7111 C   0  0  0  0  0  0  0  0  0  0  0  0
   16.2851   -7.0862  -24.9090 N   0  0  0  0  0  0  0  0  0  0  0  0
   15.5720   -8.2480  -22.2526 N   0  0  0  0  0  0  0  0  0  0  0  0
   14.9025   -8.9973  -21.3798 C   0  0  0  0  0  0  0  0  0  0  0  0
   13.9144   -9.6422  -22.0003 N   0  0  0  0  0  0  0  0  0  0  0  0
  2  1  1  6  0  0  0
  2  5  1  0  0  0  0
  2  3  1  0  0  0  0
  3 17  1  0  0  0  0
  3  4  1  0  0  0  0
  5  6  1  0  0  0  0
  7  8  1  0  0  0  0
  8  6  1  1  0  0  0
  8  9  1  0  0  0  0
 10  9  1  1  0  0  0
 10 11  1  0  0  0  0
 10 12  1  0  0  0  0
 11 16  1  0  0  0  0
 12 13  1  6  0  0  0
 12 14  1  0  0  0  0
 14 15  1  6  0  0  0
 14 16  1  0  0  0  0
 16 27  1  1  0  0  0
 18 23  2  0  0  0  0
 18 19  1  0  0  0  0
 19 20  2  0  0  0  0
 20 21  1  0  0  0  0
 21 22  2  0  0  0  0
 21 27  1  0  0  0  0
 22 23  1  0  0  0  0
 22 25  1  0  0  0  0
 23 24  1  0  0  0  0
 25 26  2  0  0  0  0
 26 27  1  0  0  0  0
M  END
>  <CHROM.1>
56.48193925,149.02003384,-65.44568539,-90.27331613,170.96664214,35.93142332
-102.13158942,13.82980179,-8.58346457,-20.52405984,-1.57483332,-0.90704855
-2.00480243

>  <Name>
ligand

>  <RI>
0

>  <Rbt.Current_Directory>
/home/itssahil/PROJECTS/Mol_Feturizer/New_Systems/rnas/3E5F

>  <Rbt.Executable>
rbdock ($Id: //depot/dev/client3/rdock/2013.1/src/exe/rbdock.cxx#4 $)

>  <Rbt.Library>
libRbt.so (2013.1, Build901 2013/11/27)

>  <Rbt.Parameter_File>
/export/apps/rDock/src/rDock_2013.1_src/data/scripts/dock_solv.prm

>  <Rbt.Receptor>
prm/pocket_docking_2.prm

>  <SCORE>
-13.373

>  <SCORE.INTER>
-14.321

>  <SCORE.INTER.CONST>
1

>  <SCORE.INTER.POLAR>
0

>  <SCORE.INTER.ROT>
7

>  <SCORE.INTER.SOLV>
19.6773

>  <SCORE.INTER.VDW>
-24.3731

>  <SCORE.INTER.norm>
-0.530407

>  <SCORE.INTRA>
0.947792

>  <SCORE.INTRA.DIHEDRAL>
0.681438

>  <SCORE.INTRA.DIHEDRAL.0>
4.89803

>  <SCORE.INTRA.POLAR>
0

>  <SCORE.INTRA.POLAR.0>
0

>  <SCORE.INTRA.REPUL>
0

>  <SCORE.INTRA.REPUL.0>
0

>  <SCORE.INTRA.SOLV>
3.4082

>  <SCORE.INTRA.SOLV.lig_0>
-48.5832

>  <SCORE.INTRA.VDW>
-1.09702

>  <SCORE.INTRA.VDW.0>
-2.39056

>  <SCORE.INTRA.norm>
0.0351034

>  <SCORE.RESTR>
0.000153379

>  <SCORE.RESTR.CAVITY>
0.000153379

>  <SCORE.RESTR.norm>
5.68072e-06

>  <SCORE.SYSTEM>
0

>  <SCORE.SYSTEM.CONST>
0

>  <SCORE.SYSTEM.DIHEDRAL>
0

>  <SCORE.SYSTEM.SOLV>
0

>  <SCORE.SYSTEM.norm>
0

>  <SCORE.heavy>
27

>  <SCORE.norm>
-0.495298

>  <RMSD>
2.085

$$$$
ligand
 OpenBabel11021811473D
libRbt.so/2013.1/901 2013/11/27
 27 29  0  0  0  0  0  0  0  0999 V2000
   15.5094   -7.7495  -16.4638 N   0  0  0  0  0  0  0  0  0  0  0  0
   15.3761   -7.1757  -17.8110 C   0  0  2  0  0  0  0  0  0  0  0  0
   16.7245   -6.6181  -18.2770 C   0  0  0  0  0  0  0  0  0  0  0  0
   17.3348   -5.8715  -17.4810 O   0  0  0  0  0  0  0  0  0  0  0  0
   14.3505   -6.0417  -17.7650 C   0  0  0  0  0  0  0  0  0  0  0  0
   12.9441   -6.5521  -17.4407 C   0  0  0  0  0  0  0  0  0  0  0  0
   10.4507   -7.3468  -18.5458 C   0  0  0  0  0  0  0  0  0  0  0  0
   12.2593   -7.5551  -18.8476 Se  0  0  2  0  0  0  0  0  0  0  0  0
   12.5053   -9.3496  -18.4288 C   0  0  0  0  0  0  0  0  0  0  0  0
   11.7344  -10.3027  -19.3431 C   0  0  1  0  0  0  0  0  0  0  0  0
   11.9052   -9.8641  -20.7018 O   0  0  0  0  0  0  0  0  0  0  0  0
   12.4391  -11.6585  -19.2821 C   0  0  1  0  0  0  0  0  0  0  0  0
   11.6555  -12.6372  -19.9665 O   0  0  0  0  0  0  0  0  0  0  0  0
   13.6849  -11.3247  -20.0989 C   0  0  1  0  0  0  0  0  0  0  0  0
   14.2448  -12.5393  -20.6015 O   0  0  0  0  0  0  0  0  0  0  0  0
   13.0364  -10.5609  -21.2542 C   0  0  2  0  0  0  0  0  0  0  0  0
   17.1113   -6.9420  -19.4215 O   0  0  0  0  0  0  0  0  0  0  0  0
   14.4910   -8.2788  -25.6497 N   0  0  0  0  0  0  0  0  0  0  0  0
   13.4917   -9.1195  -25.4443 C   0  0  0  0  0  0  0  0  0  0  0  0
   13.2405   -9.6241  -24.2489 N   0  0  0  0  0  0  0  0  0  0  0  0
   14.0000   -9.2912  -23.1943 C   0  0  0  0  0  0  0  0  0  0  0  0
   15.0595   -8.4125  -23.3712 C   0  0  0  0  0  0  0  0  0  0  0  0
   15.2935   -7.9065  -24.6444 C   0  0  0  0  0  0  0  0  0  0  0  0
   16.3222   -7.0927  -24.8611 N   0  0  0  0  0  0  0  0  0  0  0  0
   15.6481   -8.2481  -22.1918 N   0  0  0  0  0  0  0  0  0  0  0  0
   14.9886   -8.9919  -21.3067 C   0  0  0  0  0  0  0  0  0  0  0  0
   13.9844   -9.6292  -21.9090 N   0  0  0  0  0  0  0  0  0  0  0  0
  2  1  1  1  0  0  0
  2  5  1  0  0  0  0
  2  3  1  0  0  0  0
  3 17  1  0  0  0  0
  3  4  1  0  0  0  0
  5  6  1  0  0  0  0
  7  8  1  0  0  0  0
  8  6  1  1  0  0  0
  8  9  1  0  0  0  0
 10  9  1  1  0  0  0
 10 11  1  0  0  0  0
 10 12  1  0  0  0  0
 11 16  1  0  0  0  0
 12 13  1  6  0  0  0
 12 14  1  0  0  0  0
 14 15  1  6  0  0  0
 14 16  1  0  0  0  0
 16 27  1  1  0  0  0
 18 23  2  0  0  0  0
 18 19  1  0  0  0  0
 19 20  2  0  0  0  0
 20 21  1  0  0  0  0
 21 22  2  0  0  0  0
 21 27  1  0  0  0  0
 22 23  1  0  0  0  0
 22 25  1  0  0  0  0
 23 24  1  0  0  0  0
 25 26  2  0  0  0  0
 26 27  1  0  0  0  0
M  END
>  <CHROM.1>
-65.63870356,-49.05213116,-69.00372949,-155.18806027,167.77750525,44.75632349
-92.94183473,13.78351975,-8.59504673,-20.34191008,-1.67071868,-0.73524541
-1.94694026

>  <Name>
ligand

>  <RI>
0

>  <Rbt.Current_Directory>
/home/itssahil/PROJECTS/Mol_Feturizer/New_Systems/rnas/3E5F

>  <Rbt.Executable>
rbdock ($Id: //depot/dev/client3/rdock/2013.1/src/exe/rbdock.cxx#4 $)

>  <Rbt.Library>
libRbt.so (2013.1, Build901 2013/11/27)

>  <Rbt.Parameter_File>
/export/apps/rDock/src/rDock_2013.1_src/data/scripts/dock_solv.prm

>  <Rbt.Receptor>
prm/pocket_docking_2.prm

>  <SCORE>
-12.7599

>  <SCORE.INTER>
-12.8756

>  <SCORE.INTER.CONST>
1

>  <SCORE.INTER.POLAR>
0

>  <SCORE.INTER.ROT>
7

>  <SCORE.INTER.SOLV>
20.515

>  <SCORE.INTER.VDW>
-23.6887

>  <SCORE.INTER.norm>
-0.476873

>  <SCORE.INTRA>
0.1157

>  <SCORE.INTRA.DIHEDRAL>
0.486292

>  <SCORE.INTRA.DIHEDRAL.0>
4.89803

>  <SCORE.INTRA.POLAR>
0

>  <SCORE.INTRA.POLAR.0>
0

>  <SCORE.INTRA.REPUL>
0

>  <SCORE.INTRA.REPUL.0>
0

>  <SCORE.INTRA.SOLV>
1.27718

>  <SCORE.INTRA.SOLV.lig_0>
-48.5832

>  <SCORE.INTRA.VDW>
-0.766037

>  <SCORE.INTRA.VDW.0>
-2.39056

>  <SCORE.INTRA.norm>
0.00428518

>  <SCORE.RESTR>
0

>  <SCORE.RESTR.CAVITY>
0

>  <SCORE.RESTR.norm>
0

>  <SCORE.SYSTEM>
0

>  <SCORE.SYSTEM.CONST>
0

>  <SCORE.SYSTEM.DIHEDRAL>
0

>  <SCORE.SYSTEM.SOLV>
0

>  <SCORE.SYSTEM.norm>
0

>  <SCORE.heavy>
27

>  <SCORE.norm>
-0.472588

>  <RMSD>
2.107

$$$$
ligand
 OpenBabel11021811473D
libRbt.so/2013.1/901 2013/11/27
 27 29  0  0  0  0  0  0  0  0999 V2000
   16.2499   -7.3761  -15.7564 N   0  0  0  0  0  0  0  0  0  0  0  0
   16.5078   -6.8323  -17.0979 C   0  0  2  0  0  0  0  0  0  0  0  0
   15.9431   -5.4124  -17.2034 C   0  0  0  0  0  0  0  0  0  0  0  0
   15.5181   -4.8916  -16.1490 O   0  0  0  0  0  0  0  0  0  0  0  0
   15.8216   -7.7258  -18.1326 C   0  0  0  0  0  0  0  0  0  0  0  0
   14.3100   -7.8110  -17.9058 C   0  0  0  0  0  0  0  0  0  0  0  0
   12.7564   -7.0767  -20.1679 C   0  0  0  0  0  0  0  0  0  0  0  0
   13.4602   -8.5831  -19.3673 Se  0  0  2  0  0  0  0  0  0  0  0  0
   11.9262   -9.4273  -18.7426 C   0  0  0  0  0  0  0  0  0  0  0  0
   11.3676  -10.4742  -19.7073 C   0  0  1  0  0  0  0  0  0  0  0  0
   11.7178  -10.0877  -21.0473 O   0  0  0  0  0  0  0  0  0  0  0  0
   12.1390  -11.7720  -19.4643 C   0  0  1  0  0  0  0  0  0  0  0  0
   11.5340  -12.8346  -20.2026 O   0  0  0  0  0  0  0  0  0  0  0  0
   13.4722  -11.3883  -20.1014 C   0  0  1  0  0  0  0  0  0  0  0  0
   14.1787  -12.5817  -20.4444 O   0  0  0  0  0  0  0  0  0  0  0  0
   12.9625  -10.7268  -21.3826 C   0  0  2  0  0  0  0  0  0  0  0  0
   15.9396   -4.8822  -18.3361 O   0  0  0  0  0  0  0  0  0  0  0  0
   14.5922   -8.1699  -25.5600 N   0  0  0  0  0  0  0  0  0  0  0  0
   13.5816   -9.0146  -25.4479 C   0  0  0  0  0  0  0  0  0  0  0  0
   13.2833   -9.5953  -24.2988 N   0  0  0  0  0  0  0  0  0  0  0  0
   14.0046   -9.3388  -23.1971 C   0  0  0  0  0  0  0  0  0  0  0  0
   15.0746   -8.4585  -23.2760 C   0  0  0  0  0  0  0  0  0  0  0  0
   15.3586   -7.8712  -24.5032 C   0  0  0  0  0  0  0  0  0  0  0  0
   16.3989   -7.0528  -24.6272 N   0  0  0  0  0  0  0  0  0  0  0  0
   15.6195   -8.3772  -22.0673 N   0  0  0  0  0  0  0  0  0  0  0  0
   14.9235   -9.1728  -21.2586 C   0  0  0  0  0  0  0  0  0  0  0  0
   13.9392   -9.7611  -21.9386 N   0  0  0  0  0  0  0  0  0  0  0  0
  2  1  1  1  0  0  0
  2  5  1  0  0  0  0
  2  3  1  0  0  0  0
  3 17  1  0  0  0  0
  3  4  1  0  0  0  0
  5  6  1  0  0  0  0
  7  8  1  0  0  0  0
  8  6  1  1  0  0  0
  8  9  1  0  0  0  0
 10  9  1  1  0  0  0
 10 11  1  0  0  0  0
 10 12  1  0  0  0  0
 11 16  1  0  0  0  0
 12 13  1  6  0  0  0
 12 14  1  0  0  0  0
 14 15  1  6  0  0  0
 14 16  1  0  0  0  0
 16 27  1  1  0  0  0
 18 23  2  0  0  0  0
 18 19  1  0  0  0  0
 19 20  2  0  0  0  0
 20 21  1  0  0  0  0
 21 22  2  0  0  0  0
 21 27  1  0  0  0  0
 22 23  1  0  0  0  0
 22 25  1  0  0  0  0
 23 24  1  0  0  0  0
 25 26  2  0  0  0  0
 26 27  1  0  0  0  0
M  END
>  <CHROM.1>
59.14605712,8.11708310,167.61862727,-102.80562325,-161.12357764,-28.79263180
-82.55067382,14.04428447,-8.74039609,-20.38272815,1.13774554,0.94613458,1.42077019

>  <Name>
ligand

>  <RI>
0

>  <Rbt.Current_Directory>
/home/itssahil/PROJECTS/Mol_Feturizer/New_Systems/rnas/3E5F

>  <Rbt.Executable>
rbdock ($Id: //depot/dev/client3/rdock/2013.1/src/exe/rbdock.cxx#4 $)

>  <Rbt.Library>
libRbt.so (2013.1, Build901 2013/11/27)

>  <Rbt.Parameter_File>
/export/apps/rDock/src/rDock_2013.1_src/data/scripts/dock_solv.prm

>  <Rbt.Receptor>
prm/pocket_docking_3.prm

>  <SCORE>
-12.4806

>  <SCORE.INTER>
-14.3413

>  <SCORE.INTER.CONST>
1

>  <SCORE.INTER.POLAR>
0

>  <SCORE.INTER.ROT>
7

>  <SCORE.INTER.SOLV>
19.3964

>  <SCORE.INTER.VDW>
-24.293

>  <SCORE.INTER.norm>
-0.53116

>  <SCORE.INTRA>
1.82781

>  <SCORE.INTRA.DIHEDRAL>
3.70947

>  <SCORE.INTRA.DIHEDRAL.0>
4.89803

>  <SCORE.INTRA.POLAR>
0

>  <SCORE.INTRA.POLAR.0>
0

>  <SCORE.INTRA.REPUL>
0

>  <SCORE.INTRA.REPUL.0>
0

>  <SCORE.INTRA.SOLV>
0.829609

>  <SCORE.INTRA.SOLV.lig_0>
-48.5832

>  <SCORE.INTRA.VDW>
-0.441734

>  <SCORE.INTRA.VDW.0>
-2.39056

>  <SCORE.INTRA.norm>
0.0676965

>  <SCORE.RESTR>
0.0328881

>  <SCORE.RESTR.CAVITY>
0.0328881

>  <SCORE.RESTR.norm>
0.00121808

>  <SCORE.SYSTEM>
0

>  <SCORE.SYSTEM.CONST>
0

>  <SCORE.SYSTEM.DIHEDRAL>
0

>  <SCORE.SYSTEM.SOLV>
0

>  <SCORE.SYSTEM.norm>
0

>  <SCORE.heavy>
27

>  <SCORE.norm>
-0.462246

>  <RMSD>
2.109

$$$$
ligand
 OpenBabel11021811473D
libRbt.so/2013.1/901 2013/11/27
 27 29  0  0  0  0  0  0  0  0999 V2000
   15.0459   -6.4052  -16.2052 N   0  0  0  0  0  0  0  0  0  0  0  0
   15.7754   -7.3965  -17.0096 C   0  0  2  0  0  0  0  0  0  0  0  0
   17.1873   -6.8859  -17.3133 C   0  0  0  0  0  0  0  0  0  0  0  0
   18.1033   -7.7365  -17.3443 O   0  0  0  0  0  0  0  0  0  0  0  0
   15.0245   -7.6141  -18.3244 C   0  0  0  0  0  0  0  0  0  0  0  0
   13.6394   -8.2262  -18.1002 C   0  0  0  0  0  0  0  0  0  0  0  0
   12.1788   -6.7994  -20.0754 C   0  0  0  0  0  0  0  0  0  0  0  0
   12.7682   -8.5111  -19.7171 Se  0  0  2  0  0  0  0  0  0  0  0  0
   11.1712   -9.3879  -19.3468 C   0  0  0  0  0  0  0  0  0  0  0  0
   10.8773  -10.5510  -20.2952 C   0  0  1  0  0  0  0  0  0  0  0  0
   11.4522  -10.2461  -21.5774 O   0  0  0  0  0  0  0  0  0  0  0  0
   11.6704  -11.7577  -19.7920 C   0  0  1  0  0  0  0  0  0  0  0  0
   11.2886  -12.9221  -20.5261 O   0  0  0  0  0  0  0  0  0  0  0  0
   13.0732  -11.3189  -20.2043 C   0  0  1  0  0  0  0  0  0  0  0  0
   13.9084  -12.4744  -20.2962 O   0  0  0  0  0  0  0  0  0  0  0  0
   12.7770  -10.8063  -21.6143 C   0  0  2  0  0  0  0  0  0  0  0  0
   17.3220   -5.6563  -17.4982 O   0  0  0  0  0  0  0  0  0  0  0  0
   14.6657   -8.0980  -25.5820 N   0  0  0  0  0  0  0  0  0  0  0  0
   13.6615   -8.9577  -25.5693 C   0  0  0  0  0  0  0  0  0  0  0  0
   13.2898   -9.5783  -24.4633 N   0  0  0  0  0  0  0  0  0  0  0  0
   13.9267   -9.3488  -23.3050 C   0  0  0  0  0  0  0  0  0  0  0  0
   14.9872   -8.4540  -23.2792 C   0  0  0  0  0  0  0  0  0  0  0  0
   15.3502   -7.8243  -24.4640 C   0  0  0  0  0  0  0  0  0  0  0  0
   16.3851   -6.9903  -24.4873 N   0  0  0  0  0  0  0  0  0  0  0  0
   15.4430   -8.4050  -22.0325 N   0  0  0  0  0  0  0  0  0  0  0  0
   14.7021   -9.2343  -21.3012 C   0  0  0  0  0  0  0  0  0  0  0  0
   13.7773   -9.8119  -22.0683 N   0  0  0  0  0  0  0  0  0  0  0  0
  2  1  1  1  0  0  0
  2  5  1  0  0  0  0
  2  3  1  0  0  0  0
  3 17  1  0  0  0  0
  3  4  1  0  0  0  0
  5  6  1  0  0  0  0
  7  8  1  0  0  0  0
  8  6  1  1  0  0  0
  8  9  1  0  0  0  0
 10  9  1  1  0  0  0
 10 11  1  0  0  0  0
 10 12  1  0  0  0  0
 11 16  1  0  0  0  0
 12 13  1  6  0  0  0
 12 14  1  0  0  0  0
 14 15  1  6  0  0  0
 14 16  1  0  0  0  0
 16 27  1  1  0  0  0
 18 23  2  0  0  0  0
 18 19  1  0  0  0  0
 19 20  2  0  0  0  0
 20 21  1  0  0  0  0
 21 22  2  0  0  0  0
 21 27  1  0  0  0  0
 22 23  1  0  0  0  0
 22 25  1  0  0  0  0
 23 24  1  0  0  0  0
 25 26  2  0  0  0  0
 26 27  1  0  0  0  0
M  END
>  <CHROM.1>
-64.30345826,144.37320825,-178.79464103,-79.11826485,-135.71167228,-30.79634657
-72.29554049,13.85522767,-8.88881137,-20.57637307,1.00549892,0.70864575,1.48319064

>  <Name>
ligand

>  <RI>
0

>  <Rbt.Current_Directory>
/home/itssahil/PROJECTS/Mol_Feturizer/New_Systems/rnas/3E5F

>  <Rbt.Executable>
rbdock ($Id: //depot/dev/client3/rdock/2013.1/src/exe/rbdock.cxx#4 $)

>  <Rbt.Library>
libRbt.so (2013.1, Build901 2013/11/27)

>  <Rbt.Parameter_File>
/export/apps/rDock/src/rDock_2013.1_src/data/scripts/dock_solv.prm

>  <Rbt.Receptor>
prm/pocket_docking_3.prm

>  <SCORE>
-13.8868

>  <SCORE.INTER>
-13.9365

>  <SCORE.INTER.CONST>
1

>  <SCORE.INTER.POLAR>
0

>  <SCORE.INTER.ROT>
7

>  <SCORE.INTER.SOLV>
17.692

>  <SCORE.INTER.VDW>
-23.455

>  <SCORE.INTER.norm>
-0.516166

>  <SCORE.INTRA>
0.0497111

>  <SCORE.INTRA.DIHEDRAL>
2.94129

>  <SCORE.INTRA.DIHEDRAL.0>
4.89803

>  <SCORE.INTRA.POLAR>
0

>  <SCORE.INTRA.POLAR.0>
0

>  <SCORE.INTRA.REPUL>
0

>  <SCORE.INTRA.REPUL.0>
0

>  <SCORE.INTRA.SOLV>
0.794706

>  <SCORE.INTRA.SOLV.lig_0>
-48.5832

>  <SCORE.INTRA.VDW>
-1.81829

>  <SCORE.INTRA.VDW.0>
-2.39056

>  <SCORE.INTRA.norm>
0.00184115

>  <SCORE.RESTR>
0

>  <SCORE.RESTR.CAVITY>
0

>  <SCORE.RESTR.norm>
0

>  <SCORE.SYSTEM>
0

>  <SCORE.SYSTEM.CONST>
0

>  <SCORE.SYSTEM.DIHEDRAL>
0

>  <SCORE.SYSTEM.SOLV>
0

>  <SCORE.SYSTEM.norm>
0

>  <SCORE.heavy>
27

>  <SCORE.norm>
-0.514325

>  <RMSD>
2.165

$$$$
ligand
 OpenBabel11021811473D
libRbt.so/2013.1/901 2013/11/27
 27 29  0  0  0  0  0  0  0  0999 V2000
   16.4208   -4.6121  -21.5647 N   0  0  0  0  0  0  0  0  0  0  0  0
   15.1262   -4.9694  -20.9662 C   0  0  2  0  0  0  0  0  0  0  0  0
   14.3042   -3.7034  -20.7055 C   0  0  0  0  0  0  0  0  0  0  0  0
   14.9379   -2.6669  -20.4097 O   0  0  0  0  0  0  0  0  0  0  0  0
   15.3775   -5.6891  -19.6400 C   0  0  0  0  0  0  0  0  0  0  0  0
   14.0746   -6.1440  -18.9775 C   0  0  0  0  0  0  0  0  0  0  0  0
   11.4239   -7.0657  -19.4185 C   0  0  0  0  0  0  0  0  0  0  0  0
   13.1275   -7.2921  -20.0908 Se  0  0  2  0  0  0  0  0  0  0  0  0
   13.5121   -9.0318  -19.5602 C   0  0  0  0  0  0  0  0  0  0  0  0
   12.3823  -10.0224  -19.8447 C   0  0  1  0  0  0  0  0  0  0  0  0
   11.9588   -9.8471  -21.2076 O   0  0  0  0  0  0  0  0  0  0  0  0
   12.9890  -11.4255  -19.8050 C   0  0  1  0  0  0  0  0  0  0  0  0
   11.9473  -12.4003  -19.8758 O   0  0  0  0  0  0  0  0  0  0  0  0
   13.7641  -11.3952  -21.1198 C   0  0  1  0  0  0  0  0  0  0  0  0
   13.9998  -12.7383  -21.5461 O   0  0  0  0  0  0  0  0  0  0  0  0
   12.7062  -10.7644  -22.0261 C   0  0  2  0  0  0  0  0  0  0  0  0
   13.0607   -3.8012  -20.7981 O   0  0  0  0  0  0  0  0  0  0  0  0
   16.1457   -7.2971  -23.6971 N   0  0  0  0  0  0  0  0  0  0  0  0
   15.8847   -7.6736  -22.4571 C   0  0  0  0  0  0  0  0  0  0  0  0
   14.9664   -8.5840  -22.1842 N   0  0  0  0  0  0  0  0  0  0  0  0
   14.2652   -9.1631  -23.1706 C   0  0  0  0  0  0  0  0  0  0  0  0
   14.5099   -8.7924  -24.4854 C   0  0  0  0  0  0  0  0  0  0  0  0
   15.4809   -7.8287  -24.7310 C   0  0  0  0  0  0  0  0  0  0  0  0
   15.7167   -7.4196  -25.9737 N   0  0  0  0  0  0  0  0  0  0  0  0
   13.6961   -9.4992  -25.2615 N   0  0  0  0  0  0  0  0  0  0  0  0
   12.9673  -10.2833  -24.4706 C   0  0  0  0  0  0  0  0  0  0  0  0
   13.3080  -10.0847  -23.1972 N   0  0  0  0  0  0  0  0  0  0  0  0
  2  1  1  1  0  0  0
  2  5  1  0  0  0  0
  2  3  1  0  0  0  0
  3 17  1  0  0  0  0
  3  4  1  0  0  0  0
  5  6  1  0  0  0  0
  7  8  1  0  0  0  0
  8  6  1  1  0  0  0
  8  9  1  0  0  0  0
 10  9  1  6  0  0  0
 10 11  1  0  0  0  0
 10 12  1  0  0  0  0
 11 16  1  0  0  0  0
 12 13  1  6  0  0  0
 12 14  1  0  0  0  0
 14 15  1  6  0  0  0
 14 16  1  0  0  0  0
 16 27  1  6  0  0  0
 18 23  2  0  0  0  0
 18 19  1  0  0  0  0
 19 20  2  0  0  0  0
 20 21  1  0  0  0  0
 21 22  2  0  0  0  0
 21 27  1  0  0  0  0
 22 23  1  0  0  0  0
 22 25  1  0  0  0  0
 23 24  1  0  0  0  0
 25 26  2  0  0  0  0
 26 27  1  0  0  0  0
M  END
>  <CHROM.1>
-177.78844716,-32.59137709,58.92565486,-156.64758610,151.42231812,48.91078600
66.47081284,13.83869833,-8.01664197,-21.44107622,-1.11829433,-1.05844379
-2.56113814

>  <Name>
ligand

>  <RI>
0

>  <Rbt.Current_Directory>
/home/itssahil/PROJECTS/Mol_Feturizer/New_Systems/rnas/3E5F

>  <Rbt.Executable>
rbdock ($Id: //depot/dev/client3/rdock/2013.1/src/exe/rbdock.cxx#4 $)

>  <Rbt.Library>
libRbt.so (2013.1, Build901 2013/11/27)

>  <Rbt.Parameter_File>
/export/apps/rDock/src/rDock_2013.1_src/data/scripts/dock_solv.prm

>  <Rbt.Receptor>
prm/pocket_docking_6.prm

>  <SCORE>
-20.51

>  <SCORE.INTER>
-19.3606

>  <SCORE.INTER.CONST>
1

>  <SCORE.INTER.POLAR>
0

>  <SCORE.INTER.ROT>
7

>  <SCORE.INTER.SOLV>
21.0871

>  <SCORE.INTER.VDW>
-28.2028

>  <SCORE.INTER.norm>
-0.717061

>  <SCORE.INTRA>
-1.14937

>  <SCORE.INTRA.DIHEDRAL>
0.182515

>  <SCORE.INTRA.DIHEDRAL.0>
4.89803

>  <SCORE.INTRA.POLAR>
0

>  <SCORE.INTRA.POLAR.0>
0

>  <SCORE.INTRA.REPUL>
0

>  <SCORE.INTRA.REPUL.0>
0

>  <SCORE.INTRA.SOLV>
0.916401

>  <SCORE.INTRA.SOLV.lig_0>
-48.5832

>  <SCORE.INTRA.VDW>
-1.69882

>  <SCORE.INTRA.VDW.0>
-2.39056

>  <SCORE.INTRA.norm>
-0.0425691

>  <SCORE.RESTR>
0

>  <SCORE.RESTR.CAVITY>
0

>  <SCORE.RESTR.norm>
0

>  <SCORE.SYSTEM>
0

>  <SCORE.SYSTEM.CONST>
0

>  <SCORE.SYSTEM.DIHEDRAL>
0

>  <SCORE.SYSTEM.SOLV>
0

>  <SCORE.SYSTEM.norm>
0

>  <SCORE.heavy>
27

>  <SCORE.norm>
-0.75963

>  <RMSD>
2.182

$$$$
ligand
 OpenBabel11021811473D
libRbt.so/2013.1/901 2013/11/27
 27 29  0  0  0  0  0  0  0  0999 V2000
   14.4928   -3.9985  -15.7235 N   0  0  0  0  0  0  0  0  0  0  0  0
   14.7054   -5.4488  -15.8380 C   0  0  2  0  0  0  0  0  0  0  0  0
   16.1610   -5.7349  -16.2195 C   0  0  0  0  0  0  0  0  0  0  0  0
   16.7697   -6.5861  -15.5350 O   0  0  0  0  0  0  0  0  0  0  0  0
   13.7818   -5.9985  -16.9264 C   0  0  0  0  0  0  0  0  0  0  0  0
   13.8310   -7.5266  -17.0037 C   0  0  0  0  0  0  0  0  0  0  0  0
   11.0473   -7.8505  -17.4689 C   0  0  0  0  0  0  0  0  0  0  0  0
   12.6638   -8.1652  -18.3016 Se  0  0  2  0  0  0  0  0  0  0  0  0
   12.7484  -10.0220  -18.2671 C   0  0  0  0  0  0  0  0  0  0  0  0
   11.8058  -10.6963  -19.2648 C   0  0  1  0  0  0  0  0  0  0  0  0
   11.9039  -10.0027  -20.5205 O   0  0  0  0  0  0  0  0  0  0  0  0
   12.3667  -12.0905  -19.5474 C   0  0  1  0  0  0  0  0  0  0  0  0
   11.4285  -12.8361  -20.3247 O   0  0  0  0  0  0  0  0  0  0  0  0
   13.5656  -11.7028  -20.4093 C   0  0  1  0  0  0  0  0  0  0  0  0
   13.9493  -12.8306  -21.1980 O   0  0  0  0  0  0  0  0  0  0  0  0
   12.9037  -10.6642  -21.3160 C   0  0  2  0  0  0  0  0  0  0  0  0
   16.6366   -5.0902  -17.1800 O   0  0  0  0  0  0  0  0  0  0  0  0
   14.6242   -8.2044  -25.5152 N   0  0  0  0  0  0  0  0  0  0  0  0
   13.6212   -9.0589  -25.4086 C   0  0  0  0  0  0  0  0  0  0  0  0
   13.2963   -9.6110  -24.2526 N   0  0  0  0  0  0  0  0  0  0  0  0
   13.9816   -9.3142  -23.1381 C   0  0  0  0  0  0  0  0  0  0  0  0
   15.0425   -8.4225  -23.2109 C   0  0  0  0  0  0  0  0  0  0  0  0
   15.3554   -7.8661  -24.4455 C   0  0  0  0  0  0  0  0  0  0  0  0
   16.3886   -7.0379  -24.5625 N   0  0  0  0  0  0  0  0  0  0  0  0
   15.5505   -8.3000  -21.9896 N   0  0  0  0  0  0  0  0  0  0  0  0
   14.8409   -9.0817  -21.1792 C   0  0  0  0  0  0  0  0  0  0  0  0
   13.8844   -9.7017  -21.8706 N   0  0  0  0  0  0  0  0  0  0  0  0
  2  1  1  6  0  0  0
  2  5  1  0  0  0  0
  2  3  1  0  0  0  0
  3 17  1  0  0  0  0
  3  4  1  0  0  0  0
  5  6  1  0  0  0  0
  7  8  1  0  0  0  0
  8  6  1  1  0  0  0
  8  9  1  0  0  0  0
 10  9  1  1  0  0  0
 10 11  1  0  0  0  0
 10 12  1  0  0  0  0
 11 16  1  0  0  0  0
 12 13  1  6  0  0  0
 12 14  1  0  0  0  0
 14 15  1  6  0  0  0
 14 16  1  0  0  0  0
 16 27  1  1  0  0  0
 18 23  2  0  0  0  0
 18 19  1  0  0  0  0
 19 20  2  0  0  0  0
 20 21  1  0  0  0  0
 21 22  2  0  0  0  0
 21 27  1  0  0  0  0
 22 23  1  0  0  0  0
 22 25  1  0  0  0  0
 23 24  1  0  0  0  0
 25 26  2  0  0  0  0
 26 27  1  0  0  0  0
M  END
>  <CHROM.1>
-173.76981443,130.54897402,178.40968204,-71.97889695,178.46824988,44.44520455
-107.52458547,13.76440583,-8.59848343,-19.87558595,-1.43245890,-0.91417965
-1.96162722

>  <Name>
ligand

>  <RI>
0

>  <Rbt.Current_Directory>
/home/itssahil/PROJECTS/Mol_Feturizer/New_Systems/rnas/3E5F

>  <Rbt.Executable>
rbdock ($Id: //depot/dev/client3/rdock/2013.1/src/exe/rbdock.cxx#4 $)

>  <Rbt.Library>
libRbt.so (2013.1, Build901 2013/11/27)

>  <Rbt.Parameter_File>
/export/apps/rDock/src/rDock_2013.1_src/data/scripts/dock_solv.prm

>  <Rbt.Receptor>
prm/pocket_docking_3.prm

>  <SCORE>
-13.986

>  <SCORE.INTER>
-13.6177

>  <SCORE.INTER.CONST>
1

>  <SCORE.INTER.POLAR>
0

>  <SCORE.INTER.ROT>
7

>  <SCORE.INTER.SOLV>
19.6762

>  <SCORE.INTER.VDW>
-23.9039

>  <SCORE.INTER.norm>
-0.504361

>  <SCORE.INTRA>
-0.36827

>  <SCORE.INTRA.DIHEDRAL>
-0.908001

>  <SCORE.INTRA.DIHEDRAL.0>
4.89803

>  <SCORE.INTRA.POLAR>
0

>  <SCORE.INTRA.POLAR.0>
0

>  <SCORE.INTRA.REPUL>
0

>  <SCORE.INTRA.REPUL.0>
0

>  <SCORE.INTRA.SOLV>
-0.0274031

>  <SCORE.INTRA.SOLV.lig_0>
-48.5832

>  <SCORE.INTRA.VDW>
0.0994316

>  <SCORE.INTRA.VDW.0>
-2.39056

>  <SCORE.INTRA.norm>
-0.0136396

>  <SCORE.RESTR>
0

>  <SCORE.RESTR.CAVITY>
0

>  <SCORE.RESTR.norm>
0

>  <SCORE.SYSTEM>
0

>  <SCORE.SYSTEM.CONST>
0

>  <SCORE.SYSTEM.DIHEDRAL>
0

>  <SCORE.SYSTEM.SOLV>
0

>  <SCORE.SYSTEM.norm>
0

>  <SCORE.heavy>
27

>  <SCORE.norm>
-0.518001

>  <RMSD>
2.216

$$$$
ligand
 OpenBabel11021811473D
libRbt.so/2013.1/901 2013/11/27
 27 29  0  0  0  0  0  0  0  0999 V2000
   12.4354   -7.7196  -14.6117 N   0  0  0  0  0  0  0  0  0  0  0  0
   13.3505   -8.5200  -15.4385 C   0  0  2  0  0  0  0  0  0  0  0  0
   14.4400   -7.6214  -16.0315 C   0  0  0  0  0  0  0  0  0  0  0  0
   15.4352   -8.1908  -16.5303 O   0  0  0  0  0  0  0  0  0  0  0  0
   12.5538   -9.1632  -16.5749 C   0  0  0  0  0  0  0  0  0  0  0  0
   12.1225   -8.1375  -17.6262 C   0  0  0  0  0  0  0  0  0  0  0  0
   12.5254   -6.9820  -20.1900 C   0  0  0  0  0  0  0  0  0  0  0  0
   13.4772   -7.8435  -18.8642 Se  0  0  2  0  0  0  0  0  0  0  0  0
   13.8593   -9.4723  -19.6748 C   0  0  0  0  0  0  0  0  0  0  0  0
   12.6149  -10.2927  -20.0167 C   0  0  1  0  0  0  0  0  0  0  0  0
   12.1252   -9.8602  -21.2976 O   0  0  0  0  0  0  0  0  0  0  0  0
   13.0705  -11.7348  -20.2429 C   0  0  1  0  0  0  0  0  0  0  0  0
   11.9289  -12.5824  -20.3791 O   0  0  0  0  0  0  0  0  0  0  0  0
   13.7580  -11.5658  -21.5954 C   0  0  1  0  0  0  0  0  0  0  0  0
   13.8218  -12.8385  -22.2414 O   0  0  0  0  0  0  0  0  0  0  0  0
   12.7166  -10.6997  -22.3054 C   0  0  2  0  0  0  0  0  0  0  0  0
   14.2593   -6.3856  -15.9651 O   0  0  0  0  0  0  0  0  0  0  0  0
   16.1202   -7.0483  -23.6198 N   0  0  0  0  0  0  0  0  0  0  0  0
   15.8645   -7.5502  -22.4239 C   0  0  0  0  0  0  0  0  0  0  0  0
   14.9554   -8.4925  -22.2438 N   0  0  0  0  0  0  0  0  0  0  0  0
   14.2586   -8.9760  -23.2833 C   0  0  0  0  0  0  0  0  0  0  0  0
   14.4979   -8.4724  -24.5541 C   0  0  0  0  0  0  0  0  0  0  0  0
   15.4592   -7.4794  -24.7017 C   0  0  0  0  0  0  0  0  0  0  0  0
   15.6894   -6.9450  -25.8970 N   0  0  0  0  0  0  0  0  0  0  0  0
   13.6899   -9.1054  -25.3973 N   0  0  0  0  0  0  0  0  0  0  0  0
   12.9698   -9.9723  -24.6891 C   0  0  0  0  0  0  0  0  0  0  0  0
   13.3103   -9.8997  -23.4022 N   0  0  0  0  0  0  0  0  0  0  0  0
  2  1  1  1  0  0  0
  2  5  1  0  0  0  0
  2  3  1  0  0  0  0
  3 17  1  0  0  0  0
  3  4  1  0  0  0  0
  5  6  1  0  0  0  0
  7  8  1  0  0  0  0
  8  6  1  1  0  0  0
  8  9  1  0  0  0  0
 10  9  1  6  0  0  0
 10 11  1  0  0  0  0
 10 12  1  0  0  0  0
 11 16  1  0  0  0  0
 12 13  1  6  0  0  0
 12 14  1  0  0  0  0
 14 15  1  6  0  0  0
 14 16  1  0  0  0  0
 16 27  1  6  0  0  0
 18 23  2  0  0  0  0
 18 19  1  0  0  0  0
 19 20  2  0  0  0  0
 20 21  1  0  0  0  0
 21 22  2  0  0  0  0
 21 27  1  0  0  0  0
 22 23  1  0  0  0  0
 22 25  1  0  0  0  0
 23 24  1  0  0  0  0
 25 26  2  0  0  0  0
 26 27  1  0  0  0  0
M  END
>  <CHROM.1>
71.73281385,166.00508326,84.32530836,165.13340064,41.94908674,85.30559266
58.20029962,13.68756113,-8.86353187,-20.37860965,1.83095997,1.09220180,1.18901689

>  <Name>
ligand

>  <RI>
0

>  <Rbt.Current_Directory>
/home/itssahil/PROJECTS/Mol_Feturizer/New_Systems/rnas/3E5F

>  <Rbt.Executable>
rbdock ($Id: //depot/dev/client3/rdock/2013.1/src/exe/rbdock.cxx#4 $)

>  <Rbt.Library>
libRbt.so (2013.1, Build901 2013/11/27)

>  <Rbt.Parameter_File>
/export/apps/rDock/src/rDock_2013.1_src/data/scripts/dock_solv.prm

>  <Rbt.Receptor>
prm/pocket_docking_5.prm

>  <SCORE>
-14.7963

>  <SCORE.INTER>
-15.8075

>  <SCORE.INTER.CONST>
1

>  <SCORE.INTER.POLAR>
0

>  <SCORE.INTER.ROT>
7

>  <SCORE.INTER.SOLV>
19.1703

>  <SCORE.INTER.VDW>
-25.1951

>  <SCORE.INTER.norm>
-0.585462

>  <SCORE.INTRA>
1.01118

>  <SCORE.INTRA.DIHEDRAL>
2.7492

>  <SCORE.INTRA.DIHEDRAL.0>
4.89803

>  <SCORE.INTRA.POLAR>
0

>  <SCORE.INTRA.POLAR.0>
0

>  <SCORE.INTRA.REPUL>
0

>  <SCORE.INTRA.REPUL.0>
0

>  <SCORE.INTRA.SOLV>
0.751999

>  <SCORE.INTRA.SOLV.lig_0>
-48.5832

>  <SCORE.INTRA.VDW>
-0.739419

>  <SCORE.INTRA.VDW.0>
-2.39056

>  <SCORE.INTRA.norm>
0.0374512

>  <SCORE.RESTR>
0

>  <SCORE.RESTR.CAVITY>
0

>  <SCORE.RESTR.norm>
0

>  <SCORE.SYSTEM>
0

>  <SCORE.SYSTEM.CONST>
0

>  <SCORE.SYSTEM.DIHEDRAL>
0

>  <SCORE.SYSTEM.SOLV>
0

>  <SCORE.SYSTEM.norm>
0

>  <SCORE.heavy>
27

>  <SCORE.norm>
-0.548011

>  <RMSD>
2.218

$$$$
ligand
 OpenBabel11021811473D
libRbt.so/2013.1/901 2013/11/27
 27 29  0  0  0  0  0  0  0  0999 V2000
   13.7753   -3.4125  -21.1061 N   0  0  0  0  0  0  0  0  0  0  0  0
   13.3587   -4.5060  -20.2159 C   0  0  2  0  0  0  0  0  0  0  0  0
   12.7507   -3.9320  -18.9326 C   0  0  0  0  0  0  0  0  0  0  0  0
   11.8050   -4.5688  -18.4192 O   0  0  0  0  0  0  0  0  0  0  0  0
   14.5859   -5.3470  -19.8599 C   0  0  0  0  0  0  0  0  0  0  0  0
   14.2039   -6.6491  -19.1514 C   0  0  0  0  0  0  0  0  0  0  0  0
   11.4792   -7.3148  -19.6024 C   0  0  0  0  0  0  0  0  0  0  0  0
   13.1582   -7.7228  -20.2506 Se  0  0  2  0  0  0  0  0  0  0  0  0
   13.3643   -9.4797  -19.6787 C   0  0  0  0  0  0  0  0  0  0  0  0
   12.2217  -10.4011  -20.1077 C   0  0  1  0  0  0  0  0  0  0  0  0
   11.8134  -10.0284  -21.4352 O   0  0  0  0  0  0  0  0  0  0  0  0
   12.8056  -11.8059  -20.2622 C   0  0  1  0  0  0  0  0  0  0  0  0
   11.7493  -12.7432  -20.4768 O   0  0  0  0  0  0  0  0  0  0  0  0
   13.5932  -11.6038  -21.5542 C   0  0  1  0  0  0  0  0  0  0  0  0
   13.8114  -12.8773  -22.1641 O   0  0  0  0  0  0  0  0  0  0  0  0
   12.5537  -10.8338  -22.3697 C   0  0  2  0  0  0  0  0  0  0  0  0
   13.2375   -2.8650  -18.4979 O   0  0  0  0  0  0  0  0  0  0  0  0
   16.0095   -7.1699  -23.5004 N   0  0  0  0  0  0  0  0  0  0  0  0
   15.7239   -7.7049  -22.3258 C   0  0  0  0  0  0  0  0  0  0  0  0
   14.8048   -8.6455  -22.1937 N   0  0  0  0  0  0  0  0  0  0  0  0
   14.1282   -9.0933  -23.2621 C   0  0  0  0  0  0  0  0  0  0  0  0
   14.3992   -8.5544  -24.5119 C   0  0  0  0  0  0  0  0  0  0  0  0
   15.3700   -7.5644  -24.6089 C   0  0  0  0  0  0  0  0  0  0  0  0
   15.6302   -6.9968  -25.7825 N   0  0  0  0  0  0  0  0  0  0  0  0
   13.6060   -9.1565  -25.3910 N   0  0  0  0  0  0  0  0  0  0  0  0
   12.8647  -10.0386  -24.7248 C   0  0  0  0  0  0  0  0  0  0  0  0
   13.1769  -10.0062  -23.4291 N   0  0  0  0  0  0  0  0  0  0  0  0
  2  1  1  6  0  0  0
  2  5  1  0  0  0  0
  2  3  1  0  0  0  0
  3 17  1  0  0  0  0
  3  4  1  0  0  0  0
  5  6  1  0  0  0  0
  7  8  1  0  0  0  0
  8  6  1  1  0  0  0
  8  9  1  0  0  0  0
 10  9  1  6  0  0  0
 10 11  1  0  0  0  0
 10 12  1  0  0  0  0
 11 16  1  0  0  0  0
 12 13  1  6  0  0  0
 12 14  1  0  0  0  0
 14 15  1  6  0  0  0
 14 16  1  0  0  0  0
 16 27  1  6  0  0  0
 18 23  2  0  0  0  0
 18 19  1  0  0  0  0
 19 20  2  0  0  0  0
 20 21  1  0  0  0  0
 21 22  2  0  0  0  0
 21 27  1  0  0  0  0
 22 23  1  0  0  0  0
 22 25  1  0  0  0  0
 23 24  1  0  0  0  0
 25 26  2  0  0  0  0
 26 27  1  0  0  0  0
M  END
>  <CHROM.1>
-169.43823672,145.08204266,62.04729421,-98.65892755,158.62202571,37.88497036
64.91784534,13.45616435,-8.11641489,-21.35021747,-1.60571723,-1.08527256
-2.69788114

>  <Name>
ligand

>  <RI>
0

>  <Rbt.Current_Directory>
/home/itssahil/PROJECTS/Mol_Feturizer/New_Systems/rnas/3E5F

>  <Rbt.Executable>
rbdock ($Id: //depot/dev/client3/rdock/2013.1/src/exe/rbdock.cxx#4 $)

>  <Rbt.Library>
libRbt.so (2013.1, Build901 2013/11/27)

>  <Rbt.Parameter_File>
/export/apps/rDock/src/rDock_2013.1_src/data/scripts/dock_solv.prm

>  <Rbt.Receptor>
prm/pocket_docking_4.prm

>  <SCORE>
-18.2921

>  <SCORE.INTER>
-17.2009

>  <SCORE.INTER.CONST>
1

>  <SCORE.INTER.POLAR>
0

>  <SCORE.INTER.ROT>
7

>  <SCORE.INTER.SOLV>
23.784

>  <SCORE.INTER.VDW>
-27.662

>  <SCORE.INTER.norm>
-0.637072

>  <SCORE.INTRA>
-1.09117

>  <SCORE.INTRA.DIHEDRAL>
1.45898

>  <SCORE.INTRA.DIHEDRAL.0>
4.89803

>  <SCORE.INTRA.POLAR>
0

>  <SCORE.INTRA.POLAR.0>
0

>  <SCORE.INTRA.REPUL>
0

>  <SCORE.INTRA.REPUL.0>
0

>  <SCORE.INTRA.SOLV>
0.123309

>  <SCORE.INTRA.SOLV.lig_0>
-48.5832

>  <SCORE.INTRA.VDW>
-1.88232

>  <SCORE.INTRA.VDW.0>
-2.39056

>  <SCORE.INTRA.norm>
-0.0404138

>  <SCORE.RESTR>
0

>  <SCORE.RESTR.CAVITY>
0

>  <SCORE.RESTR.norm>
0

>  <SCORE.SYSTEM>
0

>  <SCORE.SYSTEM.CONST>
0

>  <SCORE.SYSTEM.DIHEDRAL>
0

>  <SCORE.SYSTEM.SOLV>
0

>  <SCORE.SYSTEM.norm>
0

>  <SCORE.heavy>
27

>  <SCORE.norm>
-0.677485

>  <RMSD>
2.268

$$$$
ligand
 OpenBabel11021811473D
libRbt.so/2013.1/901 2013/11/27
 27 29  0  0  0  0  0  0  0  0999 V2000
   14.9321   -4.9082  -16.3247 N   0  0  0  0  0  0  0  0  0  0  0  0
   14.2454   -5.4928  -17.4860 C   0  0  2  0  0  0  0  0  0  0  0  0
   13.2205   -4.4992  -18.0414 C   0  0  0  0  0  0  0  0  0  0  0  0
   13.1982   -4.3416  -19.2817 O   0  0  0  0  0  0  0  0  0  0  0  0
   13.5237   -6.7666  -17.0427 C   0  0  0  0  0  0  0  0  0  0  0  0
   14.5033   -7.8636  -16.6180 C   0  0  0  0  0  0  0  0  0  0  0  0
   16.8133   -7.2542  -18.1552 C   0  0  0  0  0  0  0  0  0  0  0  0
   15.4583   -8.5046  -18.0780 Se  0  0  2  0  0  0  0  0  0  0  0  0
   14.4842   -8.0970  -19.6081 C   0  0  0  0  0  0  0  0  0  0  0  0
   13.1029   -8.7521  -19.6468 C   0  0  1  0  0  0  0  0  0  0  0  0
   12.5782   -8.6241  -20.9795 O   0  0  0  0  0  0  0  0  0  0  0  0
   13.3083  -10.2551  -19.4540 C   0  0  1  0  0  0  0  0  0  0  0  0
   12.0416  -10.8951  -19.2921 O   0  0  0  0  0  0  0  0  0  0  0  0
   13.8952  -10.6000  -20.8204 C   0  0  1  0  0  0  0  0  0  0  0  0
   13.7052  -11.9950  -21.0640 O   0  0  0  0  0  0  0  0  0  0  0  0
   12.9438   -9.8051  -21.7157 C   0  0  2  0  0  0  0  0  0  0  0  0
   12.4884   -3.9122  -17.2145 O   0  0  0  0  0  0  0  0  0  0  0  0
   16.4866   -6.9999  -24.2105 N   0  0  0  0  0  0  0  0  0  0  0  0
   16.2240   -7.0406  -22.9156 C   0  0  0  0  0  0  0  0  0  0  0  0
   15.2771   -7.8186  -22.4209 N   0  0  0  0  0  0  0  0  0  0  0  0
   14.5471   -8.6028  -23.2285 C   0  0  0  0  0  0  0  0  0  0  0  0
   14.7925   -8.5859  -24.5943 C   0  0  0  0  0  0  0  0  0  0  0  0
   15.7941   -7.7514  -25.0760 C   0  0  0  0  0  0  0  0  0  0  0  0
   16.0326   -7.6789  -26.3819 N   0  0  0  0  0  0  0  0  0  0  0  0
   13.9473   -9.4363  -25.1661 N   0  0  0  0  0  0  0  0  0  0  0  0
   13.1990   -9.9679  -24.2024 C   0  0  0  0  0  0  0  0  0  0  0  0
   13.5581   -9.4660  -23.0207 N   0  0  0  0  0  0  0  0  0  0  0  0
  2  1  1  1  0  0  0
  2  5  1  0  0  0  0
  2  3  1  0  0  0  0
  3 17  1  0  0  0  0
  3  4  1  0  0  0  0
  5  6  1  0  0  0  0
  7  8  1  0  0  0  0
  8  6  1  1  0  0  0
  8  9  1  0  0  0  0
 10  9  1  6  0  0  0
 10 11  1  0  0  0  0
 10 12  1  0  0  0  0
 11 16  1  0  0  0  0
 12 13  1  6  0  0  0
 12 14  1  0  0  0  0
 14 15  1  6  0  0  0
 14 16  1  0  0  0  0
 16 27  1  6  0  0  0
 18 23  2  0  0  0  0
 18 19  1  0  0  0  0
 19 20  2  0  0  0  0
 20 21  1  0  0  0  0
 21 22  2  0  0  0  0
 21 27  1  0  0  0  0
 22 23  1  0  0  0  0
 22 25  1  0  0  0  0
 23 24  1  0  0  0  0
 25 26  2  0  0  0  0
 26 27  1  0  0  0  0
M  END
>  <CHROM.1>
-66.19896390,134.46946852,-68.50070837,84.34949629,-61.47735553,-166.98140067
49.73398214,14.38621458,-8.06535275,-20.32552057,-1.75947184,-1.29172368
-2.10232582

>  <Name>
ligand

>  <RI>
0

>  <Rbt.Current_Directory>
/home/itssahil/PROJECTS/Mol_Feturizer/New_Systems/rnas/3E5F

>  <Rbt.Executable>
rbdock ($Id: //depot/dev/client3/rdock/2013.1/src/exe/rbdock.cxx#4 $)

>  <Rbt.Library>
libRbt.so (2013.1, Build901 2013/11/27)

>  <Rbt.Parameter_File>
/export/apps/rDock/src/rDock_2013.1_src/data/scripts/dock_solv.prm

>  <Rbt.Receptor>
prm/pocket_docking_3.prm

>  <SCORE>
-11.4431

>  <SCORE.INTER>
-12.3506

>  <SCORE.INTER.CONST>
1

>  <SCORE.INTER.POLAR>
0

>  <SCORE.INTER.ROT>
7

>  <SCORE.INTER.SOLV>
21.1394

>  <SCORE.INTER.VDW>
-23.5469

>  <SCORE.INTER.norm>
-0.457428

>  <SCORE.INTRA>
0.90748

>  <SCORE.INTRA.DIHEDRAL>
0.354244

>  <SCORE.INTRA.DIHEDRAL.0>
4.89803

>  <SCORE.INTRA.POLAR>
0

>  <SCORE.INTRA.POLAR.0>
0

>  <SCORE.INTRA.REPUL>
0

>  <SCORE.INTRA.REPUL.0>
0

>  <SCORE.INTRA.SOLV>
1.77899

>  <SCORE.INTRA.SOLV.lig_0>
-48.5832

>  <SCORE.INTRA.VDW>
-0.159139

>  <SCORE.INTRA.VDW.0>
-2.39056

>  <SCORE.INTRA.norm>
0.0336104

>  <SCORE.RESTR>
0

>  <SCORE.RESTR.CAVITY>
0

>  <SCORE.RESTR.norm>
0

>  <SCORE.SYSTEM>
0

>  <SCORE.SYSTEM.CONST>
0

>  <SCORE.SYSTEM.DIHEDRAL>
0

>  <SCORE.SYSTEM.SOLV>
0

>  <SCORE.SYSTEM.norm>
0

>  <SCORE.heavy>
27

>  <SCORE.norm>
-0.423818

>  <RMSD>
2.332

$$$$
ligand
 OpenBabel11021811473D
libRbt.so/2013.1/901 2013/11/27
 27 29  0  0  0  0  0  0  0  0999 V2000
   13.5263   -2.3523  -19.7016 N   0  0  0  0  0  0  0  0  0  0  0  0
   14.1156   -3.6991  -19.7279 C   0  0  2  0  0  0  0  0  0  0  0  0
   15.2651   -3.7466  -20.7390 C   0  0  0  0  0  0  0  0  0  0  0  0
   16.3883   -4.0839  -20.3051 O   0  0  0  0  0  0  0  0  0  0  0  0
   13.0373   -4.7015  -20.1432 C   0  0  0  0  0  0  0  0  0  0  0  0
   13.4991   -6.1497  -19.9624 C   0  0  0  0  0  0  0  0  0  0  0  0
   10.9581   -6.9479  -18.9743 C   0  0  0  0  0  0  0  0  0  0  0  0
   12.1247   -7.3397  -20.3494 Se  0  0  2  0  0  0  0  0  0  0  0  0
   12.7057   -9.0408  -19.8753 C   0  0  0  0  0  0  0  0  0  0  0  0
   11.7794  -10.1595  -20.3540 C   0  0  1  0  0  0  0  0  0  0  0  0
   11.5429   -9.9806  -21.7610 O   0  0  0  0  0  0  0  0  0  0  0  0
   12.5624  -11.4693  -20.2562 C   0  0  1  0  0  0  0  0  0  0  0  0
   11.6884  -12.5703  -20.5100 O   0  0  0  0  0  0  0  0  0  0  0  0
   13.5126  -11.2761  -21.4354 C   0  0  1  0  0  0  0  0  0  0  0  0
   13.9932  -12.5550  -21.8535 O   0  0  0  0  0  0  0  0  0  0  0  0
   12.5237  -10.7517  -22.4775 C   0  0  2  0  0  0  0  0  0  0  0  0
   14.9989   -3.4358  -21.9209 O   0  0  0  0  0  0  0  0  0  0  0  0
   16.0773   -7.1611  -23.5380 N   0  0  0  0  0  0  0  0  0  0  0  0
   15.7477   -7.6800  -22.3676 C   0  0  0  0  0  0  0  0  0  0  0  0
   14.8083   -8.6027  -22.2544 N   0  0  0  0  0  0  0  0  0  0  0  0
   14.1551   -9.0481  -23.3383 C   0  0  0  0  0  0  0  0  0  0  0  0
   14.4723   -8.5257  -24.5843 C   0  0  0  0  0  0  0  0  0  0  0  0
   15.4634   -7.5543  -24.6613 C   0  0  0  0  0  0  0  0  0  0  0  0
   15.7681   -7.0023  -25.8317 N   0  0  0  0  0  0  0  0  0  0  0  0
   13.6943   -9.1216  -25.4810 N   0  0  0  0  0  0  0  0  0  0  0  0
   12.9179   -9.9840  -24.8293 C   0  0  0  0  0  0  0  0  0  0  0  0
   13.1926   -9.9453  -23.5253 N   0  0  0  0  0  0  0  0  0  0  0  0
  2  1  1  6  0  0  0
  2  5  1  0  0  0  0
  2  3  1  0  0  0  0
  3 17  1  0  0  0  0
  3  4  1  0  0  0  0
  5  6  1  0  0  0  0
  7  8  1  0  0  0  0
  8  6  1  1  0  0  0
  8  9  1  0  0  0  0
 10  9  1  6  0  0  0
 10 11  1  0  0  0  0
 10 12  1  0  0  0  0
 11 16  1  0  0  0  0
 12 13  1  6  0  0  0
 12 14  1  0  0  0  0
 14 15  1  6  0  0  0
 14 16  1  0  0  0  0
 16 27  1  6  0  0  0
 18 23  2  0  0  0  0
 18 19  1  0  0  0  0
 19 20  2  0  0  0  0
 20 21  1  0  0  0  0
 21 22  2  0  0  0  0
 21 27  1  0  0  0  0
 22 23  1  0  0  0  0
 22 25  1  0  0  0  0
 23 24  1  0  0  0  0
 25 26  2  0  0  0  0
 26 27  1  0  0  0  0
M  END
>  <CHROM.1>
-170.11268306,122.18344770,175.60823605,-66.48431011,-170.08191848,51.54989645
77.86290238,13.46228173,-7.86555396,-21.60104243,1.22284100,0.91569646,0.50723962

>  <Name>
ligand

>  <RI>
0

>  <Rbt.Current_Directory>
/home/itssahil/PROJECTS/Mol_Feturizer/New_Systems/rnas/3E5F

>  <Rbt.Executable>
rbdock ($Id: //depot/dev/client3/rdock/2013.1/src/exe/rbdock.cxx#4 $)

>  <Rbt.Library>
libRbt.so (2013.1, Build901 2013/11/27)

>  <Rbt.Parameter_File>
/export/apps/rDock/src/rDock_2013.1_src/data/scripts/dock_solv.prm

>  <Rbt.Receptor>
prm/pocket_docking_5.prm

>  <SCORE>
-20.9412

>  <SCORE.INTER>
-19.7307

>  <SCORE.INTER.CONST>
1

>  <SCORE.INTER.POLAR>
0

>  <SCORE.INTER.ROT>
7

>  <SCORE.INTER.SOLV>
23.8138

>  <SCORE.INTER.VDW>
-29.3584

>  <SCORE.INTER.norm>
-0.730767

>  <SCORE.INTRA>
-1.21049

>  <SCORE.INTRA.DIHEDRAL>
-0.848642

>  <SCORE.INTRA.DIHEDRAL.0>
4.89803

>  <SCORE.INTRA.POLAR>
0

>  <SCORE.INTRA.POLAR.0>
0

>  <SCORE.INTRA.REPUL>
0

>  <SCORE.INTRA.REPUL.0>
0

>  <SCORE.INTRA.SOLV>
-0.0193954

>  <SCORE.INTRA.SOLV.lig_0>
-48.5832

>  <SCORE.INTRA.VDW>
-0.776472

>  <SCORE.INTRA.VDW.0>
-2.39056

>  <SCORE.INTRA.norm>
-0.044833

>  <SCORE.RESTR>
0

>  <SCORE.RESTR.CAVITY>
0

>  <SCORE.RESTR.norm>
0

>  <SCORE.SYSTEM>
0

>  <SCORE.SYSTEM.CONST>
0

>  <SCORE.SYSTEM.DIHEDRAL>
0

>  <SCORE.SYSTEM.SOLV>
0

>  <SCORE.SYSTEM.norm>
0

>  <SCORE.heavy>
27

>  <SCORE.norm>
-0.7756

>  <RMSD>
2.400

$$$$
ligand
 OpenBabel11021811473D
libRbt.so/2013.1/901 2013/11/27
 27 29  0  0  0  0  0  0  0  0999 V2000
   13.8848   -6.7016  -15.9594 N   0  0  0  0  0  0  0  0  0  0  0  0
   15.1953   -6.0992  -15.6739 C   0  0  2  0  0  0  0  0  0  0  0  0
   15.0530   -4.5803  -15.5356 C   0  0  0  0  0  0  0  0  0  0  0  0
   14.0064   -4.0657  -15.9864 O   0  0  0  0  0  0  0  0  0  0  0  0
   16.1453   -6.4131  -16.8310 C   0  0  0  0  0  0  0  0  0  0  0  0
   16.1002   -7.8914  -17.2262 C   0  0  0  0  0  0  0  0  0  0  0  0
   17.4656   -7.0870  -19.5840 C   0  0  0  0  0  0  0  0  0  0  0  0
   15.9995   -8.0840  -19.0721 Se  0  0  2  0  0  0  0  0  0  0  0  0
   14.5960   -7.0219  -19.6709 C   0  0  0  0  0  0  0  0  0  0  0  0
   13.2307   -7.7051  -19.5830 C   0  0  1  0  0  0  0  0  0  0  0  0
   12.7309   -7.8918  -20.9183 O   0  0  0  0  0  0  0  0  0  0  0  0
   13.4654   -9.1211  -19.0556 C   0  0  1  0  0  0  0  0  0  0  0  0
   12.2101   -9.7418  -18.7737 O   0  0  0  0  0  0  0  0  0  0  0  0
   14.0879   -9.7470  -20.3011 C   0  0  1  0  0  0  0  0  0  0  0  0
   13.9339  -11.1656  -20.2291 O   0  0  0  0  0  0  0  0  0  0  0  0
   13.1377   -9.1973  -21.3658 C   0  0  2  0  0  0  0  0  0  0  0  0
   15.9968   -3.9658  -14.9916 O   0  0  0  0  0  0  0  0  0  0  0  0
   16.1509   -6.5314  -24.5998 N   0  0  0  0  0  0  0  0  0  0  0  0
   15.7911   -6.2295  -23.3641 C   0  0  0  0  0  0  0  0  0  0  0  0
   15.0074   -7.0216  -22.6535 N   0  0  0  0  0  0  0  0  0  0  0  0
   14.5506   -8.1722  -23.1706 C   0  0  0  0  0  0  0  0  0  0  0  0
   14.9055   -8.5224  -24.4658 C   0  0  0  0  0  0  0  0  0  0  0  0
   15.7282   -7.6609  -25.1820 C   0  0  0  0  0  0  0  0  0  0  0  0
   16.0583   -7.9431  -26.4384 N   0  0  0  0  0  0  0  0  0  0  0  0
   14.3315   -9.6886  -24.7396 N   0  0  0  0  0  0  0  0  0  0  0  0
   13.6424  -10.0596  -23.6630 C   0  0  0  0  0  0  0  0  0  0  0  0
   13.7711   -9.1423  -22.7042 N   0  0  0  0  0  0  0  0  0  0  0  0
  2  1  1  6  0  0  0
  2  5  1  0  0  0  0
  2  3  1  0  0  0  0
  3 17  1  0  0  0  0
  3  4  1  0  0  0  0
  5  6  1  0  0  0  0
  7  8  1  0  0  0  0
  8  6  1  1  0  0  0
  8  9  1  0  0  0  0
 10  9  1  6  0  0  0
 10 11  1  0  0  0  0
 10 12  1  0  0  0  0
 11 16  1  0  0  0  0
 12 13  1  6  0  0  0
 12 14  1  0  0  0  0
 14 15  1  1  0  0  0
 14 16  1  0  0  0  0
 16 27  1  6  0  0  0
 18 23  2  0  0  0  0
 18 19  1  0  0  0  0
 19 20  2  0  0  0  0
 20 21  1  0  0  0  0
 21 22  2  0  0  0  0
 21 27  1  0  0  0  0
 22 23  1  0  0  0  0
 22 25  1  0  0  0  0
 23 24  1  0  0  0  0
 25 26  2  0  0  0  0
 26 27  1  0  0  0  0
M  END
>  <CHROM.1>
-47.47691569,-16.83226205,134.30402080,54.27598999,-84.54030945,-114.53908978
35.77967482,14.89062957,-7.73036499,-20.13430637,1.49786255,0.91738002,1.30548455

>  <Name>
ligand

>  <RI>
0

>  <Rbt.Current_Directory>
/home/itssahil/PROJECTS/Mol_Feturizer/New_Systems/rnas/3E5F

>  <Rbt.Executable>
rbdock ($Id: //depot/dev/client3/rdock/2013.1/src/exe/rbdock.cxx#4 $)

>  <Rbt.Library>
libRbt.so (2013.1, Build901 2013/11/27)

>  <Rbt.Parameter_File>
/export/apps/rDock/src/rDock_2013.1_src/data/scripts/dock_solv.prm

>  <Rbt.Receptor>
prm/pocket_docking_2.prm

>  <SCORE>
-3.5748

>  <SCORE.INTER>
-10.7463

>  <SCORE.INTER.CONST>
1

>  <SCORE.INTER.POLAR>
0

>  <SCORE.INTER.ROT>
7

>  <SCORE.INTER.SOLV>
19.7803

>  <SCORE.INTER.VDW>
-22.0243

>  <SCORE.INTER.norm>
-0.39801

>  <SCORE.INTRA>
5.33408

>  <SCORE.INTRA.DIHEDRAL>
8.75791

>  <SCORE.INTRA.DIHEDRAL.0>
4.89803

>  <SCORE.INTRA.POLAR>
0

>  <SCORE.INTRA.POLAR.0>
0

>  <SCORE.INTRA.REPUL>
0

>  <SCORE.INTRA.REPUL.0>
0

>  <SCORE.INTRA.SOLV>
2.50425

>  <SCORE.INTRA.SOLV.lig_0>
-48.5832

>  <SCORE.INTRA.VDW>
-0.296994

>  <SCORE.INTRA.VDW.0>
-2.39056

>  <SCORE.INTRA.norm>
0.197559

>  <SCORE.RESTR>
1.83737

>  <SCORE.RESTR.CAVITY>
1.83737

>  <SCORE.RESTR.norm>
0.0680508

>  <SCORE.SYSTEM>
0

>  <SCORE.SYSTEM.CONST>
0

>  <SCORE.SYSTEM.DIHEDRAL>
0

>  <SCORE.SYSTEM.SOLV>
0

>  <SCORE.SYSTEM.norm>
0

>  <SCORE.heavy>
27

>  <SCORE.norm>
-0.1324

>  <RMSD>
2.421

$$$$
ligand
 OpenBabel11021811473D
libRbt.so/2013.1/901 2013/11/27
 27 29  0  0  0  0  0  0  0  0999 V2000
   13.7152   -7.1097  -17.7032 N   0  0  0  0  0  0  0  0  0  0  0  0
   13.8588   -6.6985  -19.1075 C   0  0  2  0  0  0  0  0  0  0  0  0
   15.2300   -6.0512  -19.3247 C   0  0  0  0  0  0  0  0  0  0  0  0
   15.7155   -6.1242  -20.4747 O   0  0  0  0  0  0  0  0  0  0  0  0
   12.7639   -5.6828  -19.4386 C   0  0  0  0  0  0  0  0  0  0  0  0
   11.6665   -6.2876  -20.3180 C   0  0  0  0  0  0  0  0  0  0  0  0
   10.6511   -6.6049  -17.6839 C   0  0  0  0  0  0  0  0  0  0  0  0
   10.5782   -7.4284  -19.3338 Se  0  0  2  0  0  0  0  0  0  0  0  0
   11.5405   -8.9873  -19.0177 C   0  0  0  0  0  0  0  0  0  0  0  0
   11.0953  -10.1674  -19.8826 C   0  0  1  0  0  0  0  0  0  0  0  0
   11.5376   -9.9332  -21.2306 O   0  0  0  0  0  0  0  0  0  0  0  0
   11.8877  -11.3914  -19.4220 C   0  0  1  0  0  0  0  0  0  0  0  0
   11.3789  -12.5614  -20.0643 O   0  0  0  0  0  0  0  0  0  0  0  0
   13.2537  -11.0318  -20.0010 C   0  0  1  0  0  0  0  0  0  0  0  0
   14.0246  -12.2269  -20.1380 O   0  0  0  0  0  0  0  0  0  0  0  0
   12.8256  -10.5545  -21.3893 C   0  0  2  0  0  0  0  0  0  0  0  0
   15.7671   -5.5063  -18.3353 O   0  0  0  0  0  0  0  0  0  0  0  0
   14.5357   -8.2732  -25.6923 N   0  0  0  0  0  0  0  0  0  0  0  0
   13.5258   -9.1135  -25.5456 C   0  0  0  0  0  0  0  0  0  0  0  0
   13.2049   -9.6180  -24.3670 N   0  0  0  0  0  0  0  0  0  0  0  0
   13.9015   -9.2852  -23.2698 C   0  0  0  0  0  0  0  0  0  0  0  0
   14.9699   -8.4070  -23.3844 C   0  0  0  0  0  0  0  0  0  0  0  0
   15.2782   -7.9011  -24.6418 C   0  0  0  0  0  0  0  0  0  0  0  0
   16.3180   -7.0877  -24.7980 N   0  0  0  0  0  0  0  0  0  0  0  0
   15.4884   -8.2427  -22.1726 N   0  0  0  0  0  0  0  0  0  0  0  0
   14.7780   -8.9862  -21.3276 C   0  0  0  0  0  0  0  0  0  0  0  0
   13.8106   -9.6232  -21.9876 N   0  0  0  0  0  0  0  0  0  0  0  0
  2  1  1  1  0  0  0
  2  5  1  0  0  0  0
  2  3  1  0  0  0  0
  3 17  1  0  0  0  0
  3  4  1  0  0  0  0
  5  6  1  0  0  0  0
  7  8  1  0  0  0  0
  8  6  1  6  0  0  0
  8  9  1  0  0  0  0
 10  9  1  1  0  0  0
 10 11  1  0  0  0  0
 10 12  1  0  0  0  0
 11 16  1  0  0  0  0
 12 13  1  6  0  0  0
 12 14  1  0  0  0  0
 14 15  1  6  0  0  0
 14 16  1  0  0  0  0
 16 27  1  1  0  0  0
 18 23  2  0  0  0  0
 18 19  1  0  0  0  0
 19 20  2  0  0  0  0
 20 21  1  0  0  0  0
 21 22  2  0  0  0  0
 21 27  1  0  0  0  0
 22 23  1  0  0  0  0
 22 25  1  0  0  0  0
 23 24  1  0  0  0  0
 25 26  2  0  0  0  0
 26 27  1  0  0  0  0
M  END
>  <CHROM.1>
-106.36217735,152.82556274,74.08040290,31.77200476,-104.84587183,72.41625211
-77.55026911,13.00474710,-8.38722732,-20.77986781,-2.44222369,-0.79290286
-2.46653129

>  <Name>
ligand

>  <RI>
0

>  <Rbt.Current_Directory>
/home/itssahil/PROJECTS/Mol_Feturizer/New_Systems/rnas/3E5F

>  <Rbt.Executable>
rbdock ($Id: //depot/dev/client3/rdock/2013.1/src/exe/rbdock.cxx#4 $)

>  <Rbt.Library>
libRbt.so (2013.1, Build901 2013/11/27)

>  <Rbt.Parameter_File>
/export/apps/rDock/src/rDock_2013.1_src/data/scripts/dock_solv.prm

>  <Rbt.Receptor>
prm/pocket_docking_2.prm

>  <SCORE>
-8.58288

>  <SCORE.INTER>
-14.4844

>  <SCORE.INTER.CONST>
1

>  <SCORE.INTER.POLAR>
0

>  <SCORE.INTER.ROT>
7

>  <SCORE.INTER.SOLV>
18.6908

>  <SCORE.INTER.VDW>
-24.1532

>  <SCORE.INTER.norm>
-0.536458

>  <SCORE.INTRA>
5.89183

>  <SCORE.INTRA.DIHEDRAL>
6.64179

>  <SCORE.INTRA.DIHEDRAL.0>
4.89803

>  <SCORE.INTRA.POLAR>
0

>  <SCORE.INTRA.POLAR.0>
0

>  <SCORE.INTRA.REPUL>
0

>  <SCORE.INTRA.REPUL.0>
0

>  <SCORE.INTRA.SOLV>
3.04091

>  <SCORE.INTRA.SOLV.lig_0>
-48.5832

>  <SCORE.INTRA.VDW>
1.05048

>  <SCORE.INTRA.VDW.0>
-2.39056

>  <SCORE.INTRA.norm>
0.218216

>  <SCORE.RESTR>
0.00965947

>  <SCORE.RESTR.CAVITY>
0.00965947

>  <SCORE.RESTR.norm>
0.000357758

>  <SCORE.SYSTEM>
0

>  <SCORE.SYSTEM.CONST>
0

>  <SCORE.SYSTEM.DIHEDRAL>
0

>  <SCORE.SYSTEM.SOLV>
0

>  <SCORE.SYSTEM.norm>
0

>  <SCORE.heavy>
27

>  <SCORE.norm>
-0.317885

>  <RMSD>
2.437

$$$$
ligand
 OpenBabel11021811473D
libRbt.so/2013.1/901 2013/11/27
 27 29  0  0  0  0  0  0  0  0999 V2000
   13.5045   -4.4370  -18.4644 N   0  0  0  0  0  0  0  0  0  0  0  0
   13.0293   -5.1489  -19.6599 C   0  0  2  0  0  0  0  0  0  0  0  0
   12.1783   -6.3536  -19.2466 C   0  0  0  0  0  0  0  0  0  0  0  0
   11.4404   -6.8538  -20.1234 O   0  0  0  0  0  0  0  0  0  0  0  0
   14.2401   -5.6369  -20.4573 C   0  0  0  0  0  0  0  0  0  0  0  0
   15.3561   -6.1559  -19.5470 C   0  0  0  0  0  0  0  0  0  0  0  0
   16.2857   -7.9255  -17.5284 C   0  0  0  0  0  0  0  0  0  0  0  0
   14.7484   -7.5493  -18.4775 Se  0  0  2  0  0  0  0  0  0  0  0  0
   14.5940   -9.0567  -19.5545 C   0  0  0  0  0  0  0  0  0  0  0  0
   13.1661   -9.5950  -19.6529 C   0  0  1  0  0  0  0  0  0  0  0  0
   12.6163   -9.1916  -20.9189 O   0  0  0  0  0  0  0  0  0  0  0  0
   13.2609  -11.1188  -19.7396 C   0  0  1  0  0  0  0  0  0  0  0  0
   11.9539  -11.6867  -19.6427 O   0  0  0  0  0  0  0  0  0  0  0  0
   13.7819  -11.2515  -21.1685 C   0  0  1  0  0  0  0  0  0  0  0  0
   13.4789  -12.5625  -21.6488 O   0  0  0  0  0  0  0  0  0  0  0  0
   12.8699  -10.2428  -21.8680 C   0  0  2  0  0  0  0  0  0  0  0  0
   12.2764   -6.7422  -18.0619 O   0  0  0  0  0  0  0  0  0  0  0  0
   16.4040   -7.1173  -23.9622 N   0  0  0  0  0  0  0  0  0  0  0  0
   16.1553   -7.3478  -22.6845 C   0  0  0  0  0  0  0  0  0  0  0  0
   15.2086   -8.1856  -22.2993 N   0  0  0  0  0  0  0  0  0  0  0  0
   14.4646   -8.8380  -23.2052 C   0  0  0  0  0  0  0  0  0  0  0  0
   14.6952   -8.6206  -24.5563 C   0  0  0  0  0  0  0  0  0  0  0  0
   15.6972   -7.7290  -24.9211 C   0  0  0  0  0  0  0  0  0  0  0  0
   15.9219   -7.4653  -26.2046 N   0  0  0  0  0  0  0  0  0  0  0  0
   13.8382   -9.3727  -25.2376 N   0  0  0  0  0  0  0  0  0  0  0  0
   13.0969  -10.0373  -24.3544 C   0  0  0  0  0  0  0  0  0  0  0  0
   13.4722   -9.7175  -23.1158 N   0  0  0  0  0  0  0  0  0  0  0  0
  2  1  1  1  0  0  0
  2  5  1  0  0  0  0
  2  3  1  0  0  0  0
  3 17  1  0  0  0  0
  3  4  1  0  0  0  0
  5  6  1  0  0  0  0
  7  8  1  0  0  0  0
  8  6  1  6  0  0  0
  8  9  1  0  0  0  0
 10  9  1  6  0  0  0
 10 11  1  0  0  0  0
 10 12  1  0  0  0  0
 11 16  1  0  0  0  0
 12 13  1  6  0  0  0
 12 14  1  0  0  0  0
 14 15  1  6  0  0  0
 14 16  1  0  0  0  0
 16 27  1  6  0  0  0
 18 23  2  0  0  0  0
 18 19  1  0  0  0  0
 19 20  2  0  0  0  0
 20 21  1  0  0  0  0
 21 22  2  0  0  0  0
 21 27  1  0  0  0  0
 22 23  1  0  0  0  0
 22 25  1  0  0  0  0
 23 24  1  0  0  0  0
 25 26  2  0  0  0  0
 26 27  1  0  0  0  0
M  END
>  <CHROM.1>
39.61542265,162.69143420,58.36700107,-179.74631071,-118.09058134,102.50165829
45.22170663,14.06898344,-8.26235207,-20.84132850,-1.78517396,-1.12945822
-2.15472443

>  <Name>
ligand

>  <RI>
0

>  <Rbt.Current_Directory>
/home/itssahil/PROJECTS/Mol_Feturizer/New_Systems/rnas/3E5F

>  <Rbt.Executable>
rbdock ($Id: //depot/dev/client3/rdock/2013.1/src/exe/rbdock.cxx#4 $)

>  <Rbt.Library>
libRbt.so (2013.1, Build901 2013/11/27)

>  <Rbt.Parameter_File>
/export/apps/rDock/src/rDock_2013.1_src/data/scripts/dock_solv.prm

>  <Rbt.Receptor>
prm/pocket_docking_2.prm

>  <SCORE>
-13.5307

>  <SCORE.INTER>
-14.9619

>  <SCORE.INTER.CONST>
1

>  <SCORE.INTER.POLAR>
0

>  <SCORE.INTER.ROT>
7

>  <SCORE.INTER.SOLV>
20.8822

>  <SCORE.INTER.VDW>
-25.202

>  <SCORE.INTER.norm>
-0.554144

>  <SCORE.INTRA>
1.29872

>  <SCORE.INTRA.DIHEDRAL>
5.84173

>  <SCORE.INTRA.DIHEDRAL.0>
4.89803

>  <SCORE.INTRA.POLAR>
0

>  <SCORE.INTRA.POLAR.0>
0

>  <SCORE.INTRA.REPUL>
0

>  <SCORE.INTRA.REPUL.0>
0

>  <SCORE.INTRA.SOLV>
1.62957

>  <SCORE.INTRA.SOLV.lig_0>
-48.5832

>  <SCORE.INTRA.VDW>
-2.43693

>  <SCORE.INTRA.VDW.0>
-2.39056

>  <SCORE.INTRA.norm>
0.0481008

>  <SCORE.RESTR>
0.132499

>  <SCORE.RESTR.CAVITY>
0.132499

>  <SCORE.RESTR.norm>
0.00490736

>  <SCORE.SYSTEM>
0

>  <SCORE.SYSTEM.CONST>
0

>  <SCORE.SYSTEM.DIHEDRAL>
0

>  <SCORE.SYSTEM.SOLV>
0

>  <SCORE.SYSTEM.norm>
0

>  <SCORE.heavy>
27

>  <SCORE.norm>
-0.501136

>  <RMSD>
2.467

$$$$
ligand
 OpenBabel11021811473D
libRbt.so/2013.1/901 2013/11/27
 27 29  0  0  0  0  0  0  0  0999 V2000
   11.9654   -2.9597  -18.5275 N   0  0  0  0  0  0  0  0  0  0  0  0
   12.8440   -4.1382  -18.4974 C   0  0  2  0  0  0  0  0  0  0  0  0
   13.8560   -4.0646  -19.6449 C   0  0  0  0  0  0  0  0  0  0  0  0
   13.5213   -3.4075  -20.6547 O   0  0  0  0  0  0  0  0  0  0  0  0
   11.9884   -5.3957  -18.6599 C   0  0  0  0  0  0  0  0  0  0  0  0
   12.6842   -6.6399  -18.1018 C   0  0  0  0  0  0  0  0  0  0  0  0
   12.5607   -9.3676  -17.3179 C   0  0  0  0  0  0  0  0  0  0  0  0
   11.6492   -8.1595  -18.3740 Se  0  0  2  0  0  0  0  0  0  0  0  0
   12.0242   -8.7952  -20.0803 C   0  0  0  0  0  0  0  0  0  0  0  0
   11.2728  -10.0792  -20.4340 C   0  0  1  0  0  0  0  0  0  0  0  0
   11.1629  -10.1599  -21.8655 O   0  0  0  0  0  0  0  0  0  0  0  0
   12.1738  -11.2528  -20.0479 C   0  0  1  0  0  0  0  0  0  0  0  0
   11.4493  -12.4769  -20.1796 O   0  0  0  0  0  0  0  0  0  0  0  0
   13.2134  -11.1407  -21.1602 C   0  0  1  0  0  0  0  0  0  0  0  0
   13.8643  -12.4036  -21.3107 O   0  0  0  0  0  0  0  0  0  0  0  0
   12.2862  -10.9139  -22.3550 C   0  0  2  0  0  0  0  0  0  0  0  0
   14.9375   -4.6740  -19.4922 O   0  0  0  0  0  0  0  0  0  0  0  0
   15.9263   -7.5165  -23.7159 N   0  0  0  0  0  0  0  0  0  0  0  0
   15.5895   -7.9294  -22.5061 C   0  0  0  0  0  0  0  0  0  0  0  0
   14.6270   -8.8147  -22.3151 N   0  0  0  0  0  0  0  0  0  0  0  0
   13.9569   -9.3297  -23.3570 C   0  0  0  0  0  0  0  0  0  0  0  0
   14.2810   -8.9191  -24.6424 C   0  0  0  0  0  0  0  0  0  0  0  0
   15.2966   -7.9837  -24.8016 C   0  0  0  0  0  0  0  0  0  0  0  0
   15.6095   -7.5371  -26.0140 N   0  0  0  0  0  0  0  0  0  0  0  0
   13.4832   -9.5655  -25.4852 N   0  0  0  0  0  0  0  0  0  0  0  0
   12.6880  -10.3511  -24.7628 C   0  0  0  0  0  0  0  0  0  0  0  0
   12.9704  -10.2135  -23.4672 N   0  0  0  0  0  0  0  0  0  0  0  0
  2  1  1  6  0  0  0
  2  5  1  0  0  0  0
  2  3  1  0  0  0  0
  3 17  1  0  0  0  0
  3  4  1  0  0  0  0
  5  6  1  0  0  0  0
  7  8  1  0  0  0  0
  8  6  1  6  0  0  0
  8  9  1  0  0  0  0
 10  9  1  6  0  0  0
 10 11  1  0  0  0  0
 10 12  1  0  0  0  0
 11 16  1  0  0  0  0
 12 13  1  6  0  0  0
 12 14  1  0  0  0  0
 14 15  1  6  0  0  0
 14 16  1  0  0  0  0
 16 27  1  6  0  0  0
 18 23  2  0  0  0  0
 18 19  1  0  0  0  0
 19 20  2  0  0  0  0
 20 21  1  0  0  0  0
 21 22  2  0  0  0  0
 21 27  1  0  0  0  0
 22 23  1  0  0  0  0
 22 25  1  0  0  0  0
 23 24  1  0  0  0  0
 25 26  2  0  0  0  0
 26 27  1  0  0  0  0
M  END
>  <CHROM.1>
-157.30577966,-26.12926500,-177.77464679,-168.93854996,178.19047332,155.49050768
88.76226108,12.99061290,-8.28367528,-20.88225281,-1.94710415,-1.05223996
-2.60716181

>  <Name>
ligand

>  <RI>
0

>  <Rbt.Current_Directory>
/home/itssahil/PROJECTS/Mol_Feturizer/New_Systems/rnas/3E5F

>  <Rbt.Executable>
rbdock ($Id: //depot/dev/client3/rdock/2013.1/src/exe/rbdock.cxx#4 $)

>  <Rbt.Library>
libRbt.so (2013.1, Build901 2013/11/27)

>  <Rbt.Parameter_File>
/export/apps/rDock/src/rDock_2013.1_src/data/scripts/dock_solv.prm

>  <Rbt.Receptor>
prm/pocket_docking_4.prm

>  <SCORE>
-14.2514

>  <SCORE.INTER>
-15.2354

>  <SCORE.INTER.CONST>
1

>  <SCORE.INTER.POLAR>
0

>  <SCORE.INTER.ROT>
7

>  <SCORE.INTER.SOLV>
21.9543

>  <SCORE.INTER.VDW>
-25.7417

>  <SCORE.INTER.norm>
-0.564276

>  <SCORE.INTRA>
0.984069

>  <SCORE.INTRA.DIHEDRAL>
2.14111

>  <SCORE.INTRA.DIHEDRAL.0>
4.89803

>  <SCORE.INTRA.POLAR>
0

>  <SCORE.INTRA.POLAR.0>
0

>  <SCORE.INTRA.REPUL>
0

>  <SCORE.INTRA.REPUL.0>
0

>  <SCORE.INTRA.SOLV>
0.0397792

>  <SCORE.INTRA.SOLV.lig_0>
-48.5832

>  <SCORE.INTRA.VDW>
-0.106377

>  <SCORE.INTRA.VDW.0>
-2.39056

>  <SCORE.INTRA.norm>
0.036447

>  <SCORE.RESTR>
0

>  <SCORE.RESTR.CAVITY>
0

>  <SCORE.RESTR.norm>
0

>  <SCORE.SYSTEM>
0

>  <SCORE.SYSTEM.CONST>
0

>  <SCORE.SYSTEM.DIHEDRAL>
0

>  <SCORE.SYSTEM.SOLV>
0

>  <SCORE.SYSTEM.norm>
0

>  <SCORE.heavy>
27

>  <SCORE.norm>
-0.527829

>  <RMSD>
2.487

$$$$
ligand
 OpenBabel11021811473D
libRbt.so/2013.1/901 2013/11/27
 27 29  0  0  0  0  0  0  0  0999 V2000
   12.2684   -2.9065  -18.3700 N   0  0  0  0  0  0  0  0  0  0  0  0
   12.9589   -4.1763  -18.6399 C   0  0  2  0  0  0  0  0  0  0  0  0
   13.9534   -3.9957  -19.7907 C   0  0  0  0  0  0  0  0  0  0  0  0
   13.5945   -3.2665  -20.7410 O   0  0  0  0  0  0  0  0  0  0  0  0
   11.9204   -5.2290  -19.0316 C   0  0  0  0  0  0  0  0  0  0  0  0
   12.5525   -6.6061  -19.2494 C   0  0  0  0  0  0  0  0  0  0  0  0
   10.3201   -8.1127  -18.3457 C   0  0  0  0  0  0  0  0  0  0  0  0
   11.2975   -7.8215  -19.8837 Se  0  0  2  0  0  0  0  0  0  0  0  0
   12.1576   -9.4559  -20.0968 C   0  0  0  0  0  0  0  0  0  0  0  0
   11.2754  -10.5341  -20.7275 C   0  0  1  0  0  0  0  0  0  0  0  0
   11.1713  -10.2669  -22.1366 O   0  0  0  0  0  0  0  0  0  0  0  0
   12.0408  -11.8550  -20.6391 C   0  0  1  0  0  0  0  0  0  0  0  0
   11.1898  -12.9298  -21.0404 O   0  0  0  0  0  0  0  0  0  0  0  0
   13.0971  -11.5989  -21.7111 C   0  0  1  0  0  0  0  0  0  0  0  0
   13.6095  -12.8543  -22.1614 O   0  0  0  0  0  0  0  0  0  0  0  0
   12.2115  -11.0021  -22.8057 C   0  0  2  0  0  0  0  0  0  0  0  0
   15.0461   -4.5975  -19.7005 O   0  0  0  0  0  0  0  0  0  0  0  0
   16.0105   -7.5478  -23.3347 N   0  0  0  0  0  0  0  0  0  0  0  0
   15.5921   -8.1575  -22.2389 C   0  0  0  0  0  0  0  0  0  0  0  0
   14.5979   -9.0280  -22.2625 N   0  0  0  0  0  0  0  0  0  0  0  0
   13.9781   -9.3250  -23.4146 C   0  0  0  0  0  0  0  0  0  0  0  0
   14.3883   -8.7036  -24.5858 C   0  0  0  0  0  0  0  0  0  0  0  0
   15.4348   -7.7914  -24.5190 C   0  0  0  0  0  0  0  0  0  0  0  0
   15.8304   -7.1473  -25.6126 N   0  0  0  0  0  0  0  0  0  0  0  0
   13.6259   -9.1607  -25.5729 N   0  0  0  0  0  0  0  0  0  0  0  0
   12.7697  -10.0339  -25.0477 C   0  0  0  0  0  0  0  0  0  0  0  0
   12.9779  -10.1394  -23.7351 N   0  0  0  0  0  0  0  0  0  0  0  0
  2  1  1  6  0  0  0
  2  5  1  0  0  0  0
  2  3  1  0  0  0  0
  3 17  1  0  0  0  0
  3  4  1  0  0  0  0
  5  6  1  0  0  0  0
  7  8  1  0  0  0  0
  8  6  1  1  0  0  0
  8  9  1  0  0  0  0
 10  9  1  1  0  0  0
 10 11  1  0  0  0  0
 10 12  1  0  0  0  0
 11 16  1  0  0  0  0
 12 13  1  6  0  0  0
 12 14  1  0  0  0  0
 14 15  1  6  0  0  0
 14 16  1  0  0  0  0
 16 27  1  6  0  0  0
 18 23  2  0  0  0  0
 18 19  1  0  0  0  0
 19 20  2  0  0  0  0
 20 21  1  0  0  0  0
 21 22  2  0  0  0  0
 21 27  1  0  0  0  0
 22 23  1  0  0  0  0
 22 25  1  0  0  0  0
 23 24  1  0  0  0  0
 25 26  2  0  0  0  0
 26 27  1  0  0  0  0
M  END
>  <CHROM.1>
-176.62225565,-38.74531812,-174.45458390,-73.66649773,-175.14830672,75.98998208
82.29544836,12.86563009,-8.23478154,-21.35953175,-1.64497417,-0.85902584
-2.64199406

>  <Name>
ligand

>  <RI>
0

>  <Rbt.Current_Directory>
/home/itssahil/PROJECTS/Mol_Feturizer/New_Systems/rnas/3E5F

>  <Rbt.Executable>
rbdock ($Id: //depot/dev/client3/rdock/2013.1/src/exe/rbdock.cxx#4 $)

>  <Rbt.Library>
libRbt.so (2013.1, Build901 2013/11/27)

>  <Rbt.Parameter_File>
/export/apps/rDock/src/rDock_2013.1_src/data/scripts/dock_solv.prm

>  <Rbt.Receptor>
prm/pocket_docking_4.prm

>  <SCORE>
-17.6577

>  <SCORE.INTER>
-17.4692

>  <SCORE.INTER.CONST>
1

>  <SCORE.INTER.POLAR>
0

>  <SCORE.INTER.ROT>
7

>  <SCORE.INTER.SOLV>
20.7368

>  <SCORE.INTER.VDW>
-26.8251

>  <SCORE.INTER.norm>
-0.647008

>  <SCORE.INTRA>
-0.188502

>  <SCORE.INTRA.DIHEDRAL>
-0.670137

>  <SCORE.INTRA.DIHEDRAL.0>
4.89803

>  <SCORE.INTRA.POLAR>
0

>  <SCORE.INTRA.POLAR.0>
0

>  <SCORE.INTRA.REPUL>
0

>  <SCORE.INTRA.REPUL.0>
0

>  <SCORE.INTRA.SOLV>
-0.0430859

>  <SCORE.INTRA.SOLV.lig_0>
-48.5832

>  <SCORE.INTRA.VDW>
0.16811

>  <SCORE.INTRA.VDW.0>
-2.39056

>  <SCORE.INTRA.norm>
-0.00698155

>  <SCORE.RESTR>
0

>  <SCORE.RESTR.CAVITY>
0

>  <SCORE.RESTR.norm>
0

>  <SCORE.SYSTEM>
0

>  <SCORE.SYSTEM.CONST>
0

>  <SCORE.SYSTEM.DIHEDRAL>
0

>  <SCORE.SYSTEM.SOLV>
0

>  <SCORE.SYSTEM.norm>
0

>  <SCORE.heavy>
27

>  <SCORE.norm>
-0.65399

>  <RMSD>
2.513

$$$$
ligand
 OpenBabel11021811473D
libRbt.so/2013.1/901 2013/11/27
 27 29  0  0  0  0  0  0  0  0999 V2000
   13.7580   -4.4438  -17.4663 N   0  0  0  0  0  0  0  0  0  0  0  0
   13.2068   -3.9012  -18.7167 C   0  0  2  0  0  0  0  0  0  0  0  0
   12.4957   -2.5728  -18.4410 C   0  0  0  0  0  0  0  0  0  0  0  0
   13.0610   -1.5329  -18.8442 O   0  0  0  0  0  0  0  0  0  0  0  0
   12.2010   -4.9022  -19.2879 C   0  0  0  0  0  0  0  0  0  0  0  0
   12.8332   -6.2744  -19.5345 C   0  0  0  0  0  0  0  0  0  0  0  0
   10.4587   -7.4956  -18.5646 C   0  0  0  0  0  0  0  0  0  0  0  0
   11.5498   -7.5149  -20.0528 Se  0  0  2  0  0  0  0  0  0  0  0  0
   12.3199   -9.2026  -19.9314 C   0  0  0  0  0  0  0  0  0  0  0  0
   11.4302  -10.3219  -20.4738 C   0  0  1  0  0  0  0  0  0  0  0  0
   11.2710  -10.1280  -21.8897 O   0  0  0  0  0  0  0  0  0  0  0  0
   12.2162  -11.6274  -20.3474 C   0  0  1  0  0  0  0  0  0  0  0  0
   11.3660  -12.7312  -20.6621 O   0  0  0  0  0  0  0  0  0  0  0  0
   13.2291  -11.4138  -21.4695 C   0  0  1  0  0  0  0  0  0  0  0  0
   13.7419  -12.6843  -21.8746 O   0  0  0  0  0  0  0  0  0  0  0  0
   12.2960  -10.8839  -22.5591 C   0  0  2  0  0  0  0  0  0  0  0  0
   11.4082   -2.6245  -17.8253 O   0  0  0  0  0  0  0  0  0  0  0  0
   15.9658   -7.3505  -23.3912 N   0  0  0  0  0  0  0  0  0  0  0  0
   15.5878   -7.8990  -22.2493 C   0  0  0  0  0  0  0  0  0  0  0  0
   14.6235   -8.8011  -22.1954 N   0  0  0  0  0  0  0  0  0  0  0  0
   13.9937   -9.1944  -23.3128 C   0  0  0  0  0  0  0  0  0  0  0  0
   14.3617   -8.6395  -24.5305 C   0  0  0  0  0  0  0  0  0  0  0  0
   15.3777   -7.6912  -24.5451 C   0  0  0  0  0  0  0  0  0  0  0  0
   15.7316   -7.1090  -25.6866 N   0  0  0  0  0  0  0  0  0  0  0  0
   13.5978   -9.1861  -25.4697 N   0  0  0  0  0  0  0  0  0  0  0  0
   12.7811  -10.0498  -24.8709 C   0  0  0  0  0  0  0  0  0  0  0  0
   13.0161  -10.0606  -23.5586 N   0  0  0  0  0  0  0  0  0  0  0  0
  2  1  1  1  0  0  0
  2  5  1  0  0  0  0
  2  3  1  0  0  0  0
  3 17  1  0  0  0  0
  3  4  1  0  0  0  0
  5  6  1  0  0  0  0
  7  8  1  0  0  0  0
  8  6  1  1  0  0  0
  8  9  1  0  0  0  0
 10  9  1  6  0  0  0
 10 11  1  0  0  0  0
 10 12  1  0  0  0  0
 11 16  1  0  0  0  0
 12 13  1  6  0  0  0
 12 14  1  0  0  0  0
 14 15  1  6  0  0  0
 14 16  1  0  0  0  0
 16 27  1  6  0  0  0
 18 23  2  0  0  0  0
 18 19  1  0  0  0  0
 19 20  2  0  0  0  0
 20 21  1  0  0  0  0
 21 22  2  0  0  0  0
 21 27  1  0  0  0  0
 22 23  1  0  0  0  0
 22 25  1  0  0  0  0
 23 24  1  0  0  0  0
 25 26  2  0  0  0  0
 26 27  1  0  0  0  0
M  END
>  <CHROM.1>
-57.63958605,107.87045797,173.88106421,-60.92345591,-173.67842404,65.65191934
80.48943803,12.82764875,-7.92330243,-21.12865812,-1.77328489,-0.91988490
-2.70934596

>  <Name>
ligand

>  <RI>
0

>  <Rbt.Current_Directory>
/home/itssahil/PROJECTS/Mol_Feturizer/New_Systems/rnas/3E5F

>  <Rbt.Executable>
rbdock ($Id: //depot/dev/client3/rdock/2013.1/src/exe/rbdock.cxx#4 $)

>  <Rbt.Library>
libRbt.so (2013.1, Build901 2013/11/27)

>  <Rbt.Parameter_File>
/export/apps/rDock/src/rDock_2013.1_src/data/scripts/dock_solv.prm

>  <Rbt.Receptor>
prm/pocket_docking_5.prm

>  <SCORE>
-18.3501

>  <SCORE.INTER>
-18.5896

>  <SCORE.INTER.CONST>
1

>  <SCORE.INTER.POLAR>
0

>  <SCORE.INTER.ROT>
7

>  <SCORE.INTER.SOLV>
18.6763

>  <SCORE.INTER.VDW>
-26.8852

>  <SCORE.INTER.norm>
-0.688505

>  <SCORE.INTRA>
0.239567

>  <SCORE.INTRA.DIHEDRAL>
-1.35297

>  <SCORE.INTRA.DIHEDRAL.0>
4.89803

>  <SCORE.INTRA.POLAR>
0

>  <SCORE.INTRA.POLAR.0>
0

>  <SCORE.INTRA.REPUL>
0

>  <SCORE.INTRA.REPUL.0>
0

>  <SCORE.INTRA.SOLV>
0.812374

>  <SCORE.INTRA.SOLV.lig_0>
-48.5832

>  <SCORE.INTRA.VDW>
0.509862

>  <SCORE.INTRA.VDW.0>
-2.39056

>  <SCORE.INTRA.norm>
0.00887285

>  <SCORE.RESTR>
0

>  <SCORE.RESTR.CAVITY>
0

>  <SCORE.RESTR.norm>
0

>  <SCORE.SYSTEM>
0

>  <SCORE.SYSTEM.CONST>
0

>  <SCORE.SYSTEM.DIHEDRAL>
0

>  <SCORE.SYSTEM.SOLV>
0

>  <SCORE.SYSTEM.norm>
0

>  <SCORE.heavy>
27

>  <SCORE.norm>
-0.679632

>  <RMSD>
2.531

$$$$
ligand
 OpenBabel11021811473D
libRbt.so/2013.1/901 2013/11/27
 27 29  0  0  0  0  0  0  0  0999 V2000
   13.1854   -3.8216  -19.2500 N   0  0  0  0  0  0  0  0  0  0  0  0
   12.8228   -4.8086  -20.2777 C   0  0  2  0  0  0  0  0  0  0  0  0
   11.6621   -5.6765  -19.7819 C   0  0  0  0  0  0  0  0  0  0  0  0
   11.3398   -5.5591  -18.5794 O   0  0  0  0  0  0  0  0  0  0  0  0
   14.0349   -5.6992  -20.5559 C   0  0  0  0  0  0  0  0  0  0  0  0
   14.4438   -6.5135  -19.3258 C   0  0  0  0  0  0  0  0  0  0  0  0
   13.4579   -7.9172  -17.0614 C   0  0  0  0  0  0  0  0  0  0  0  0
   13.1205   -7.7351  -18.8665 Se  0  0  2  0  0  0  0  0  0  0  0  0
   13.6422   -9.3974  -19.5152 C   0  0  0  0  0  0  0  0  0  0  0  0
   12.4689  -10.3130  -19.8667 C   0  0  1  0  0  0  0  0  0  0  0  0
   11.9974   -9.9615  -21.1789 O   0  0  0  0  0  0  0  0  0  0  0  0
   13.0284  -11.7276  -20.0221 C   0  0  1  0  0  0  0  0  0  0  0  0
   11.9521  -12.6560  -20.1637 O   0  0  0  0  0  0  0  0  0  0  0  0
   13.7511  -11.5606  -21.3565 C   0  0  1  0  0  0  0  0  0  0  0  0
   13.9236  -12.8484  -21.9507 O   0  0  0  0  0  0  0  0  0  0  0  0
   12.6799  -10.7941  -22.1334 C   0  0  2  0  0  0  0  0  0  0  0  0
   11.1286   -6.4448  -20.6122 O   0  0  0  0  0  0  0  0  0  0  0  0
   16.0936   -7.1745  -23.5080 N   0  0  0  0  0  0  0  0  0  0  0  0
   15.8597   -7.6797  -22.3090 C   0  0  0  0  0  0  0  0  0  0  0  0
   14.9444   -8.6126  -22.1126 N   0  0  0  0  0  0  0  0  0  0  0  0
   14.2184   -9.0829  -23.1381 C   0  0  0  0  0  0  0  0  0  0  0  0
   14.4343   -8.5755  -24.4117 C   0  0  0  0  0  0  0  0  0  0  0  0
   15.4032   -7.5927  -24.5765 C   0  0  0  0  0  0  0  0  0  0  0  0
   15.6119   -7.0547  -25.7741 N   0  0  0  0  0  0  0  0  0  0  0  0
   13.6001   -9.1951  -25.2391 N   0  0  0  0  0  0  0  0  0  0  0  0
   12.8866  -10.0574  -24.5188 C   0  0  0  0  0  0  0  0  0  0  0  0
   13.2573   -9.9952  -23.2397 N   0  0  0  0  0  0  0  0  0  0  0  0
  2  1  1  1  0  0  0
  2  5  1  0  0  0  0
  2  3  1  0  0  0  0
  3 17  1  0  0  0  0
  3  4  1  0  0  0  0
  5  6  1  0  0  0  0
  7  8  1  0  0  0  0
  8  6  1  6  0  0  0
  8  9  1  0  0  0  0
 10  9  1  6  0  0  0
 10 11  1  0  0  0  0
 10 12  1  0  0  0  0
 11 16  1  0  0  0  0
 12 13  1  6  0  0  0
 12 14  1  0  0  0  0
 14 15  1  6  0  0  0
 14 16  1  0  0  0  0
 16 27  1  6  0  0  0
 18 23  2  0  0  0  0
 18 19  1  0  0  0  0
 19 20  2  0  0  0  0
 20 21  1  0  0  0  0
 21 22  2  0  0  0  0
 21 27  1  0  0  0  0
 22 23  1  0  0  0  0
 22 25  1  0  0  0  0
 23 24  1  0  0  0  0
 25 26  2  0  0  0  0
 26 27  1  0  0  0  0
M  END
>  <CHROM.1>
63.50418862,-9.58500678,65.35997748,-153.73551045,-150.74335726,82.18853936
64.31730571,13.41575333,-8.36951123,-21.00192658,-2.16125262,-1.17920328
-2.80193862

>  <Name>
ligand

>  <RI>
0

>  <Rbt.Current_Directory>
/home/itssahil/PROJECTS/Mol_Feturizer/New_Systems/rnas/3E5F

>  <Rbt.Executable>
rbdock ($Id: //depot/dev/client3/rdock/2013.1/src/exe/rbdock.cxx#4 $)

>  <Rbt.Library>
libRbt.so (2013.1, Build901 2013/11/27)

>  <Rbt.Parameter_File>
/export/apps/rDock/src/rDock_2013.1_src/data/scripts/dock_solv.prm

>  <Rbt.Receptor>
prm/pocket_docking_4.prm

>  <SCORE>
-19.3151

>  <SCORE.INTER>
-19.1259

>  <SCORE.INTER.CONST>
1

>  <SCORE.INTER.POLAR>
0

>  <SCORE.INTER.ROT>
7

>  <SCORE.INTER.SOLV>
21.522

>  <SCORE.INTER.VDW>
-28.1913

>  <SCORE.INTER.norm>
-0.708368

>  <SCORE.INTRA>
-0.189194

>  <SCORE.INTRA.DIHEDRAL>
2.55809

>  <SCORE.INTRA.DIHEDRAL.0>
4.89803

>  <SCORE.INTRA.POLAR>
0

>  <SCORE.INTRA.POLAR.0>
0

>  <SCORE.INTRA.REPUL>
0

>  <SCORE.INTRA.REPUL.0>
0

>  <SCORE.INTRA.SOLV>
0.788344

>  <SCORE.INTRA.SOLV.lig_0>
-48.5832

>  <SCORE.INTRA.VDW>
-1.86241

>  <SCORE.INTRA.VDW.0>
-2.39056

>  <SCORE.INTRA.norm>
-0.00700718

>  <SCORE.RESTR>
0

>  <SCORE.RESTR.CAVITY>
0

>  <SCORE.RESTR.norm>
0

>  <SCORE.SYSTEM>
0

>  <SCORE.SYSTEM.CONST>
0

>  <SCORE.SYSTEM.DIHEDRAL>
0

>  <SCORE.SYSTEM.SOLV>
0

>  <SCORE.SYSTEM.norm>
0

>  <SCORE.heavy>
27

>  <SCORE.norm>
-0.715375

>  <RMSD>
2.540

$$$$
ligand
 OpenBabel11021811473D
libRbt.so/2013.1/901 2013/11/27
 27 29  0  0  0  0  0  0  0  0999 V2000
   12.7044   -2.8901  -18.6484 N   0  0  0  0  0  0  0  0  0  0  0  0
   13.3236   -4.1048  -19.1988 C   0  0  2  0  0  0  0  0  0  0  0  0
   14.0820   -3.7672  -20.4861 C   0  0  0  0  0  0  0  0  0  0  0  0
   13.3954   -3.5510  -21.5085 O   0  0  0  0  0  0  0  0  0  0  0  0
   12.2235   -5.1201  -19.5135 C   0  0  0  0  0  0  0  0  0  0  0  0
   12.7883   -6.5219  -19.7571 C   0  0  0  0  0  0  0  0  0  0  0  0
   10.4323   -7.6187  -18.6097 C   0  0  0  0  0  0  0  0  0  0  0  0
   11.4304   -7.7260  -20.1582 Se  0  0  2  0  0  0  0  0  0  0  0  0
   12.1426   -9.4383  -20.0274 C   0  0  0  0  0  0  0  0  0  0  0  0
   11.2739  -10.5140  -20.6807 C   0  0  1  0  0  0  0  0  0  0  0  0
   11.1721  -10.2227  -22.0851 O   0  0  0  0  0  0  0  0  0  0  0  0
   12.0526  -11.8283  -20.6132 C   0  0  1  0  0  0  0  0  0  0  0  0
   11.2143  -12.9045  -21.0368 O   0  0  0  0  0  0  0  0  0  0  0  0
   13.1101  -11.5422  -21.6764 C   0  0  1  0  0  0  0  0  0  0  0  0
   13.6370  -12.7840  -22.1472 O   0  0  0  0  0  0  0  0  0  0  0  0
   12.2222  -10.9350  -22.7634 C   0  0  2  0  0  0  0  0  0  0  0  0
   15.3309   -3.7418  -20.4228 O   0  0  0  0  0  0  0  0  0  0  0  0
   15.8044   -7.2423  -23.1832 N   0  0  0  0  0  0  0  0  0  0  0  0
   15.3633   -7.8483  -22.0943 C   0  0  0  0  0  0  0  0  0  0  0  0
   14.4333   -8.7858  -22.1472 N   0  0  0  0  0  0  0  0  0  0  0  0
   13.9050   -9.1574  -23.3231 C   0  0  0  0  0  0  0  0  0  0  0  0
   14.3417   -8.5425  -24.4880 C   0  0  0  0  0  0  0  0  0  0  0  0
   15.3184   -7.5585  -24.3903 C   0  0  0  0  0  0  0  0  0  0  0  0
   15.7343   -6.9197  -25.4795 N   0  0  0  0  0  0  0  0  0  0  0  0
   13.6723   -9.0790  -25.5022 N   0  0  0  0  0  0  0  0  0  0  0  0
   12.8470   -9.9941  -24.9995 C   0  0  0  0  0  0  0  0  0  0  0  0
   12.9830  -10.0479  -23.6743 N   0  0  0  0  0  0  0  0  0  0  0  0
  2  1  1  6  0  0  0
  2  5  1  0  0  0  0
  2  3  1  0  0  0  0
  3 17  1  0  0  0  0
  3  4  1  0  0  0  0
  5  6  1  0  0  0  0
  7  8  1  0  0  0  0
  8  6  1  1  0  0  0
  8  9  1  0  0  0  0
 10  9  1  1  0  0  0
 10 11  1  0  0  0  0
 10 12  1  0  0  0  0
 11 16  1  0  0  0  0
 12 13  1  6  0  0  0
 12 14  1  0  0  0  0
 14 15  1  6  0  0  0
 14 16  1  0  0  0  0
 16 27  1  1  0  0  0
 18 23  2  0  0  0  0
 18 19  1  0  0  0  0
 19 20  2  0  0  0  0
 20 21  1  0  0  0  0
 21 22  2  0  0  0  0
 21 27  1  0  0  0  0
 22 23  1  0  0  0  0
 22 25  1  0  0  0  0
 23 24  1  0  0  0  0
 25 26  2  0  0  0  0
 26 27  1  0  0  0  0
M  END
>  <CHROM.1>
-165.76184889,-74.59638820,-179.26247095,-60.71949570,-164.55452303,61.98991858
76.93396390,12.92077520,-8.09838438,-21.50881475,1.43808113,0.87546467,0.46462295

>  <Name>
ligand

>  <RI>
0

>  <Rbt.Current_Directory>
/home/itssahil/PROJECTS/Mol_Feturizer/New_Systems/rnas/3E5F

>  <Rbt.Executable>
rbdock ($Id: //depot/dev/client3/rdock/2013.1/src/exe/rbdock.cxx#4 $)

>  <Rbt.Library>
libRbt.so (2013.1, Build901 2013/11/27)

>  <Rbt.Parameter_File>
/export/apps/rDock/src/rDock_2013.1_src/data/scripts/dock_solv.prm

>  <Rbt.Receptor>
prm/pocket_docking_4.prm

>  <SCORE>
-19.4976

>  <SCORE.INTER>
-19.242

>  <SCORE.INTER.CONST>
1

>  <SCORE.INTER.POLAR>
0

>  <SCORE.INTER.ROT>
7

>  <SCORE.INTER.SOLV>
20.5462

>  <SCORE.INTER.VDW>
-27.9434

>  <SCORE.INTER.norm>
-0.712665

>  <SCORE.INTRA>
-0.265555

>  <SCORE.INTRA.DIHEDRAL>
-0.376405

>  <SCORE.INTRA.DIHEDRAL.0>
4.89803

>  <SCORE.INTRA.POLAR>
0

>  <SCORE.INTRA.POLAR.0>
0

>  <SCORE.INTRA.REPUL>
0

>  <SCORE.INTRA.REPUL.0>
0

>  <SCORE.INTRA.SOLV>
-0.0481944

>  <SCORE.INTRA.SOLV.lig_0>
-48.5832

>  <SCORE.INTRA.VDW>
-0.0532554

>  <SCORE.INTRA.VDW.0>
-2.39056

>  <SCORE.INTRA.norm>
-0.00983538

>  <SCORE.RESTR>
0.00989804

>  <SCORE.RESTR.CAVITY>
0.00989804

>  <SCORE.RESTR.norm>
0.000366594

>  <SCORE.SYSTEM>
0

>  <SCORE.SYSTEM.CONST>
0

>  <SCORE.SYSTEM.DIHEDRAL>
0

>  <SCORE.SYSTEM.SOLV>
0

>  <SCORE.SYSTEM.norm>
0

>  <SCORE.heavy>
27

>  <SCORE.norm>
-0.722134

>  <RMSD>
2.602

$$$$
ligand
 OpenBabel11021811473D
libRbt.so/2013.1/901 2013/11/27
 27 29  0  0  0  0  0  0  0  0999 V2000
   15.6666   -6.0727  -19.9452 N   0  0  0  0  0  0  0  0  0  0  0  0
   14.2841   -5.6230  -19.7252 C   0  0  2  0  0  0  0  0  0  0  0  0
   14.0956   -4.2148  -20.2974 C   0  0  0  0  0  0  0  0  0  0  0  0
   15.0963   -3.4649  -20.2993 O   0  0  0  0  0  0  0  0  0  0  0  0
   14.0073   -5.5970  -18.2210 C   0  0  0  0  0  0  0  0  0  0  0  0
   13.8615   -7.0055  -17.6393 C   0  0  0  0  0  0  0  0  0  0  0  0
   11.1861   -7.6692  -16.9523 C   0  0  0  0  0  0  0  0  0  0  0  0
   12.3758   -7.8680  -18.3489 Se  0  0  2  0  0  0  0  0  0  0  0  0
   12.7113   -9.6958  -18.2986 C   0  0  0  0  0  0  0  0  0  0  0  0
   11.8300  -10.5063  -19.2499 C   0  0  1  0  0  0  0  0  0  0  0  0
   11.9343   -9.9319  -20.5639 O   0  0  0  0  0  0  0  0  0  0  0  0
   12.4611  -11.8929  -19.3820 C   0  0  1  0  0  0  0  0  0  0  0  0
   11.5809  -12.7531  -20.1070 O   0  0  0  0  0  0  0  0  0  0  0  0
   13.6665  -11.5327  -20.2466 C   0  0  1  0  0  0  0  0  0  0  0  0
   14.1238  -12.7112  -20.9125 O   0  0  0  0  0  0  0  0  0  0  0  0
   12.9861  -10.6181  -21.2660 C   0  0  2  0  0  0  0  0  0  0  0  0
   12.9541   -3.9150  -20.7115 O   0  0  0  0  0  0  0  0  0  0  0  0
   14.5343   -8.2819  -25.6007 N   0  0  0  0  0  0  0  0  0  0  0  0
   13.5423   -9.1389  -25.4307 C   0  0  0  0  0  0  0  0  0  0  0  0
   13.2638   -9.6561  -24.2468 N   0  0  0  0  0  0  0  0  0  0  0  0
   13.9868   -9.3197  -23.1680 C   0  0  0  0  0  0  0  0  0  0  0  0
   15.0377   -8.4240  -23.3075 C   0  0  0  0  0  0  0  0  0  0  0  0
   15.3013   -7.9052  -24.5697 C   0  0  0  0  0  0  0  0  0  0  0  0
   16.3233   -7.0745  -24.7503 N   0  0  0  0  0  0  0  0  0  0  0  0
   15.5888   -8.2597  -22.1101 N   0  0  0  0  0  0  0  0  0  0  0  0
   14.9149   -9.0198  -21.2501 C   0  0  0  0  0  0  0  0  0  0  0  0
   13.9386   -9.6675  -21.8861 N   0  0  0  0  0  0  0  0  0  0  0  0
  2  1  1  1  0  0  0
  2  5  1  0  0  0  0
  2  3  1  0  0  0  0
  3 17  1  0  0  0  0
  3  4  1  0  0  0  0
  5  6  1  0  0  0  0
  7  8  1  0  0  0  0
  8  6  1  1  0  0  0
  8  9  1  0  0  0  0
 10  9  1  1  0  0  0
 10 11  1  0  0  0  0
 10 12  1  0  0  0  0
 11 16  1  0  0  0  0
 12 13  1  6  0  0  0
 12 14  1  0  0  0  0
 14 15  1  6  0  0  0
 14 16  1  0  0  0  0
 16 27  1  1  0  0  0
 18 23  2  0  0  0  0
 18 19  1  0  0  0  0
 19 20  2  0  0  0  0
 20 21  1  0  0  0  0
 21 22  2  0  0  0  0
 21 27  1  0  0  0  0
 22 23  1  0  0  0  0
 22 25  1  0  0  0  0
 23 24  1  0  0  0  0
 25 26  2  0  0  0  0
 26 27  1  0  0  0  0
M  END
>  <CHROM.1>
-73.03517743,-30.23978627,-64.47643817,-101.71847016,-160.44939501,52.41676602
-101.84215229,13.51393450,-8.34770392,-20.58965000,-2.20478841,-1.11533659
-2.55054273

>  <Name>
ligand

>  <RI>
0

>  <Rbt.Current_Directory>
/home/itssahil/PROJECTS/Mol_Feturizer/New_Systems/rnas/3E5F

>  <Rbt.Executable>
rbdock ($Id: //depot/dev/client3/rdock/2013.1/src/exe/rbdock.cxx#4 $)

>  <Rbt.Library>
libRbt.so (2013.1, Build901 2013/11/27)

>  <Rbt.Parameter_File>
/export/apps/rDock/src/rDock_2013.1_src/data/scripts/dock_solv.prm

>  <Rbt.Receptor>
prm/pocket_docking_5.prm

>  <SCORE>
-15.318

>  <SCORE.INTER>
-15.711

>  <SCORE.INTER.CONST>
1

>  <SCORE.INTER.POLAR>
0

>  <SCORE.INTER.ROT>
7

>  <SCORE.INTER.SOLV>
19.0226

>  <SCORE.INTER.VDW>
-25.0815

>  <SCORE.INTER.norm>
-0.581889

>  <SCORE.INTRA>
0.392997

>  <SCORE.INTRA.DIHEDRAL>
1.2991

>  <SCORE.INTRA.DIHEDRAL.0>
4.89803

>  <SCORE.INTRA.POLAR>
0

>  <SCORE.INTRA.POLAR.0>
0

>  <SCORE.INTRA.REPUL>
0

>  <SCORE.INTRA.REPUL.0>
0

>  <SCORE.INTRA.SOLV>
1.52417

>  <SCORE.INTRA.SOLV.lig_0>
-48.5832

>  <SCORE.INTRA.VDW>
-1.01864

>  <SCORE.INTRA.VDW.0>
-2.39056

>  <SCORE.INTRA.norm>
0.0145554

>  <SCORE.RESTR>
0

>  <SCORE.RESTR.CAVITY>
0

>  <SCORE.RESTR.norm>
0

>  <SCORE.SYSTEM>
0

>  <SCORE.SYSTEM.CONST>
0

>  <SCORE.SYSTEM.DIHEDRAL>
0

>  <SCORE.SYSTEM.SOLV>
0

>  <SCORE.SYSTEM.norm>
0

>  <SCORE.heavy>
27

>  <SCORE.norm>
-0.567334

>  <RMSD>
2.630

$$$$
ligand
 OpenBabel11021811473D
libRbt.so/2013.1/901 2013/11/27
 27 29  0  0  0  0  0  0  0  0999 V2000
   14.8917   -6.0927  -14.5704 N   0  0  0  0  0  0  0  0  0  0  0  0
   15.5429   -6.3226  -15.8684 C   0  0  2  0  0  0  0  0  0  0  0  0
   16.3835   -5.1018  -16.2546 C   0  0  0  0  0  0  0  0  0  0  0  0
   17.0359   -5.1764  -17.3188 O   0  0  0  0  0  0  0  0  0  0  0  0
   14.4636   -6.5473  -16.9289 C   0  0  0  0  0  0  0  0  0  0  0  0
   13.7744   -7.9048  -16.7684 C   0  0  0  0  0  0  0  0  0  0  0  0
   11.0149   -7.8978  -17.4432 C   0  0  0  0  0  0  0  0  0  0  0  0
   12.6548   -8.2571  -18.2095 Se  0  0  2  0  0  0  0  0  0  0  0  0
   12.5745  -10.1026  -18.4192 C   0  0  0  0  0  0  0  0  0  0  0  0
   11.7950  -10.5445  -19.6584 C   0  0  1  0  0  0  0  0  0  0  0  0
   12.1433   -9.6725  -20.7474 O   0  0  0  0  0  0  0  0  0  0  0  0
   12.3366  -11.9140  -20.0702 C   0  0  1  0  0  0  0  0  0  0  0  0
   11.5194  -12.4608  -21.1064 O   0  0  0  0  0  0  0  0  0  0  0  0
   13.6845  -11.4829  -20.6428 C   0  0  1  0  0  0  0  0  0  0  0  0
   14.1528  -12.4984  -21.5320 O   0  0  0  0  0  0  0  0  0  0  0  0
   13.2386  -10.2714  -21.4626 C   0  0  2  0  0  0  0  0  0  0  0  0
   16.3636   -4.1249  -15.4739 O   0  0  0  0  0  0  0  0  0  0  0  0
   17.0021   -7.4781  -19.2997 N   0  0  0  0  0  0  0  0  0  0  0  0
   16.1528   -8.3109  -18.7230 C   0  0  0  0  0  0  0  0  0  0  0  0
   15.2357   -8.9620  -19.4170 N   0  0  0  0  0  0  0  0  0  0  0  0
   15.1406   -8.7975  -20.7451 C   0  0  0  0  0  0  0  0  0  0  0  0
   16.0139   -7.9299  -21.3859 C   0  0  0  0  0  0  0  0  0  0  0  0
   16.9617   -7.2608  -20.6205 C   0  0  0  0  0  0  0  0  0  0  0  0
   17.7902   -6.3926  -21.1925 N   0  0  0  0  0  0  0  0  0  0  0  0
   15.7167   -7.9422  -22.6804 N   0  0  0  0  0  0  0  0  0  0  0  0
   14.6981   -8.7819  -22.8507 C   0  0  0  0  0  0  0  0  0  0  0  0
   14.3423   -9.3064  -21.6779 N   0  0  0  0  0  0  0  0  0  0  0  0
  2  1  1  1  0  0  0
  2  5  1  0  0  0  0
  2  3  1  0  0  0  0
  3 17  1  0  0  0  0
  3  4  1  0  0  0  0
  5  6  1  0  0  0  0
  7  8  1  0  0  0  0
  8  6  1  1  0  0  0
  8  9  1  0  0  0  0
 10  9  1  1  0  0  0
 10 11  1  0  0  0  0
 10 12  1  0  0  0  0
 11 16  1  0  0  0  0
 12 13  1  6  0  0  0
 12 14  1  0  0  0  0
 14 15  1  6  0  0  0
 14 16  1  0  0  0  0
 16 27  1  1  0  0  0
 18 23  2  0  0  0  0
 18 19  1  0  0  0  0
 19 20  2  0  0  0  0
 20 21  1  0  0  0  0
 21 22  2  0  0  0  0
 21 27  1  0  0  0  0
 22 23  1  0  0  0  0
 22 25  1  0  0  0  0
 23 24  1  0  0  0  0
 25 26  2  0  0  0  0
 26 27  1  0  0  0  0
M  END
>  <CHROM.1>
-71.78325026,177.50651820,-171.53463310,-103.06580746,-174.31718765,41.33047126
68.82131937,14.22296273,-8.40989526,-19.10637046,1.08202790,0.57756801,0.98100905

>  <Name>
ligand

>  <RI>
0

>  <Rbt.Current_Directory>
/home/itssahil/PROJECTS/Mol_Feturizer/New_Systems/rnas/3E5F

>  <Rbt.Executable>
rbdock ($Id: //depot/dev/client3/rdock/2013.1/src/exe/rbdock.cxx#4 $)

>  <Rbt.Library>
libRbt.so (2013.1, Build901 2013/11/27)

>  <Rbt.Parameter_File>
/export/apps/rDock/src/rDock_2013.1_src/data/scripts/dock_solv.prm

>  <Rbt.Receptor>
prm/pocket_docking_3.prm

>  <SCORE>
-11.7616

>  <SCORE.INTER>
-11.3053

>  <SCORE.INTER.CONST>
1

>  <SCORE.INTER.POLAR>
0

>  <SCORE.INTER.ROT>
7

>  <SCORE.INTER.SOLV>
9.56965

>  <SCORE.INTER.VDW>
-18.9934

>  <SCORE.INTER.norm>
-0.418714

>  <SCORE.INTRA>
-0.548795

>  <SCORE.INTRA.DIHEDRAL>
1.63843

>  <SCORE.INTRA.DIHEDRAL.0>
4.89803

>  <SCORE.INTRA.POLAR>
0

>  <SCORE.INTRA.POLAR.0>
0

>  <SCORE.INTRA.REPUL>
0

>  <SCORE.INTRA.REPUL.0>
0

>  <SCORE.INTRA.SOLV>
0.634489

>  <SCORE.INTRA.SOLV.lig_0>
-48.5832

>  <SCORE.INTRA.VDW>
-1.68526

>  <SCORE.INTRA.VDW.0>
-2.39056

>  <SCORE.INTRA.norm>
-0.0203257

>  <SCORE.RESTR>
0.0924607

>  <SCORE.RESTR.CAVITY>
0.0924607

>  <SCORE.RESTR.norm>
0.00342447

>  <SCORE.SYSTEM>
0

>  <SCORE.SYSTEM.CONST>
0

>  <SCORE.SYSTEM.DIHEDRAL>
0

>  <SCORE.SYSTEM.SOLV>
0

>  <SCORE.SYSTEM.norm>
0

>  <SCORE.heavy>
27

>  <SCORE.norm>
-0.435615

>  <RMSD>
2.657

$$$$
ligand
 OpenBabel11021811473D
libRbt.so/2013.1/901 2013/11/27
 27 29  0  0  0  0  0  0  0  0999 V2000
   13.3910   -4.2928  -19.0563 N   0  0  0  0  0  0  0  0  0  0  0  0
   13.3095   -5.7601  -19.1035 C   0  0  2  0  0  0  0  0  0  0  0  0
   12.5161   -6.1997  -20.3378 C   0  0  0  0  0  0  0  0  0  0  0  0
   13.0754   -7.0050  -21.1139 O   0  0  0  0  0  0  0  0  0  0  0  0
   12.5971   -6.2554  -17.8437 C   0  0  0  0  0  0  0  0  0  0  0  0
   12.4828   -7.7816  -17.8109 C   0  0  0  0  0  0  0  0  0  0  0  0
   10.0497   -9.1877  -18.2271 C   0  0  0  0  0  0  0  0  0  0  0  0
   11.4076   -8.3983  -19.1959 Se  0  0  2  0  0  0  0  0  0  0  0  0
   12.2475   -9.8801  -19.9408 C   0  0  0  0  0  0  0  0  0  0  0  0
   11.3125  -10.7610  -20.7704 C   0  0  1  0  0  0  0  0  0  0  0  0
   11.2588  -10.2319  -22.1064 O   0  0  0  0  0  0  0  0  0  0  0  0
   11.9886  -12.1243  -20.9205 C   0  0  1  0  0  0  0  0  0  0  0  0
   11.0795  -13.0464  -21.5237 O   0  0  0  0  0  0  0  0  0  0  0  0
   13.0840  -11.7471  -21.9147 C   0  0  1  0  0  0  0  0  0  0  0  0
   13.5245  -12.9296  -22.5846 O   0  0  0  0  0  0  0  0  0  0  0  0
   12.2646  -10.8998  -22.8890 C   0  0  2  0  0  0  0  0  0  0  0  0
   11.3726   -5.7146  -20.4839 O   0  0  0  0  0  0  0  0  0  0  0  0
   16.1387   -7.4959  -22.6672 N   0  0  0  0  0  0  0  0  0  0  0  0
   15.6355   -8.2422  -21.6990 C   0  0  0  0  0  0  0  0  0  0  0  0
   14.6336   -9.0772  -21.9124 N   0  0  0  0  0  0  0  0  0  0  0  0
   14.0928   -9.1963  -23.1344 C   0  0  0  0  0  0  0  0  0  0  0  0
   14.5934   -8.4278  -24.1759 C   0  0  0  0  0  0  0  0  0  0  0  0
   15.6450   -7.5586  -23.9104 C   0  0  0  0  0  0  0  0  0  0  0  0
   16.1258   -6.7781  -24.8732 N   0  0  0  0  0  0  0  0  0  0  0  0
   13.8966   -8.7250  -25.2671 N   0  0  0  0  0  0  0  0  0  0  0  0
   12.9934   -9.6423  -24.9294 C   0  0  0  0  0  0  0  0  0  0  0  0
   13.1067   -9.9344  -23.6335 N   0  0  0  0  0  0  0  0  0  0  0  0
  2  1  1  1  0  0  0
  2  5  1  0  0  0  0
  2  3  1  0  0  0  0
  3 17  1  0  0  0  0
  3  4  1  0  0  0  0
  5  6  1  0  0  0  0
  7  8  1  0  0  0  0
  8  6  1  1  0  0  0
  8  9  1  0  0  0  0
 10  9  1  1  0  0  0
 10 11  1  0  0  0  0
 10 12  1  0  0  0  0
 11 16  1  0  0  0  0
 12 13  1  6  0  0  0
 12 14  1  0  0  0  0
 14 15  1  6  0  0  0
 14 16  1  0  0  0  0
 16 27  1  1  0  0  0
 18 23  2  0  0  0  0
 18 19  1  0  0  0  0
 19 20  2  0  0  0  0
 20 21  1  0  0  0  0
 21 22  2  0  0  0  0
 21 27  1  0  0  0  0
 22 23  1  0  0  0  0
 22 25  1  0  0  0  0
 23 24  1  0  0  0  0
 25 26  2  0  0  0  0
 26 27  1  0  0  0  0
M  END
>  <CHROM.1>
-179.48640578,125.21464789,-64.60610962,-117.86158853,161.45902047,85.78322640
77.45022731,12.79827049,-8.75341404,-21.16231471,-2.18408062,-0.88124841
-2.56199795

>  <Name>
ligand

>  <RI>
0

>  <Rbt.Current_Directory>
/home/itssahil/PROJECTS/Mol_Feturizer/New_Systems/rnas/3E5F

>  <Rbt.Executable>
rbdock ($Id: //depot/dev/client3/rdock/2013.1/src/exe/rbdock.cxx#4 $)

>  <Rbt.Library>
libRbt.so (2013.1, Build901 2013/11/27)

>  <Rbt.Parameter_File>
/export/apps/rDock/src/rDock_2013.1_src/data/scripts/dock_solv.prm

>  <Rbt.Receptor>
prm/pocket_docking_3.prm

>  <SCORE>
-15.6315

>  <SCORE.INTER>
-14.8727

>  <SCORE.INTER.CONST>
1

>  <SCORE.INTER.POLAR>
0

>  <SCORE.INTER.ROT>
7

>  <SCORE.INTER.SOLV>
17.6579

>  <SCORE.INTER.VDW>
-24.0678

>  <SCORE.INTER.norm>
-0.550841

>  <SCORE.INTRA>
-0.758802

>  <SCORE.INTRA.DIHEDRAL>
2.40196

>  <SCORE.INTRA.DIHEDRAL.0>
4.89803

>  <SCORE.INTRA.POLAR>
0

>  <SCORE.INTRA.POLAR.0>
0

>  <SCORE.INTRA.REPUL>
0

>  <SCORE.INTRA.REPUL.0>
0

>  <SCORE.INTRA.SOLV>
0.00362792

>  <SCORE.INTRA.SOLV.lig_0>
-48.5832

>  <SCORE.INTRA.VDW>
-1.9616

>  <SCORE.INTRA.VDW.0>
-2.39056

>  <SCORE.INTRA.norm>
-0.0281038

>  <SCORE.RESTR>
0

>  <SCORE.RESTR.CAVITY>
0

>  <SCORE.RESTR.norm>
0

>  <SCORE.SYSTEM>
0

>  <SCORE.SYSTEM.CONST>
0

>  <SCORE.SYSTEM.DIHEDRAL>
0

>  <SCORE.SYSTEM.SOLV>
0

>  <SCORE.SYSTEM.norm>
0

>  <SCORE.heavy>
27

>  <SCORE.norm>
-0.578944

>  <RMSD>
2.680

$$$$
ligand
 OpenBabel11021811473D
libRbt.so/2013.1/901 2013/11/27
 27 29  0  0  0  0  0  0  0  0999 V2000
   13.4400   -8.5781  -12.8931 N   0  0  0  0  0  0  0  0  0  0  0  0
   13.2895   -8.9979  -14.2942 C   0  0  2  0  0  0  0  0  0  0  0  0
   14.5793   -9.6657  -14.7808 C   0  0  0  0  0  0  0  0  0  0  0  0
   15.5817   -8.9306  -14.9169 O   0  0  0  0  0  0  0  0  0  0  0  0
   13.0068   -7.7631  -15.1515 C   0  0  0  0  0  0  0  0  0  0  0  0
   12.5689   -8.1367  -16.5700 C   0  0  0  0  0  0  0  0  0  0  0  0
   15.0893   -7.3544  -17.6216 C   0  0  0  0  0  0  0  0  0  0  0  0
   13.9902   -8.8348  -17.5431 Se  0  0  2  0  0  0  0  0  0  0  0  0
   13.4382   -8.9863  -19.3119 C   0  0  0  0  0  0  0  0  0  0  0  0
   12.3970  -10.0837  -19.5362 C   0  0  1  0  0  0  0  0  0  0  0  0
   11.9159   -9.9820  -20.8875 O   0  0  0  0  0  0  0  0  0  0  0  0
   13.1325  -11.4234  -19.4866 C   0  0  1  0  0  0  0  0  0  0  0  0
   12.1842  -12.4916  -19.5009 O   0  0  0  0  0  0  0  0  0  0  0  0
   13.8593  -11.3543  -20.8273 C   0  0  1  0  0  0  0  0  0  0  0  0
   14.2052  -12.6801  -21.2321 O   0  0  0  0  0  0  0  0  0  0  0  0
   12.7190  -10.8465  -21.7107 C   0  0  2  0  0  0  0  0  0  0  0  0
   14.5332  -10.8934  -15.0151 O   0  0  0  0  0  0  0  0  0  0  0  0
   16.0314   -7.3736  -23.6112 N   0  0  0  0  0  0  0  0  0  0  0  0
   15.8825   -7.7789  -22.3618 C   0  0  0  0  0  0  0  0  0  0  0  0
   14.9822   -8.6864  -22.0264 N   0  0  0  0  0  0  0  0  0  0  0  0
   14.1847   -9.2327  -22.9567 C   0  0  0  0  0  0  0  0  0  0  0  0
   14.3103   -8.8312  -24.2791 C   0  0  0  0  0  0  0  0  0  0  0  0
   15.2664   -7.8717  -24.5910 C   0  0  0  0  0  0  0  0  0  0  0  0
   15.3903   -7.4335  -25.8399 N   0  0  0  0  0  0  0  0  0  0  0  0
   13.4186   -9.5094  -24.9927 N   0  0  0  0  0  0  0  0  0  0  0  0
   12.7569  -10.3059  -24.1565 C   0  0  0  0  0  0  0  0  0  0  0  0
   13.2176  -10.1434  -22.9160 N   0  0  0  0  0  0  0  0  0  0  0  0
  2  1  1  1  0  0  0
  2  5  1  0  0  0  0
  2  3  1  0  0  0  0
  3 17  1  0  0  0  0
  3  4  1  0  0  0  0
  5  6  1  0  0  0  0
  7  8  1  0  0  0  0
  8  6  1  1  0  0  0
  8  9  1  0  0  0  0
 10  9  1  6  0  0  0
 10 11  1  0  0  0  0
 10 12  1  0  0  0  0
 11 16  1  0  0  0  0
 12 13  1  6  0  0  0
 12 14  1  0  0  0  0
 14 15  1  6  0  0  0
 14 16  1  0  0  0  0
 16 27  1  6  0  0  0
 18 23  2  0  0  0  0
 18 19  1  0  0  0  0
 19 20  2  0  0  0  0
 20 21  1  0  0  0  0
 21 22  2  0  0  0  0
 21 27  1  0  0  0  0
 22 23  1  0  0  0  0
 22 25  1  0  0  0  0
 23 24  1  0  0  0  0
 25 26  2  0  0  0  0
 26 27  1  0  0  0  0
M  END
>  <CHROM.1>
-168.86881537,-68.96928760,-70.74547115,-64.89633701,-70.26290653,172.13411444
73.92190425,13.90635732,-9.35876358,-19.50832431,-1.65670892,-1.04304431
-1.66020065

>  <Name>
ligand

>  <RI>
0

>  <Rbt.Current_Directory>
/home/itssahil/PROJECTS/Mol_Feturizer/New_Systems/rnas/3E5F

>  <Rbt.Executable>
rbdock ($Id: //depot/dev/client3/rdock/2013.1/src/exe/rbdock.cxx#4 $)

>  <Rbt.Library>
libRbt.so (2013.1, Build901 2013/11/27)

>  <Rbt.Parameter_File>
/export/apps/rDock/src/rDock_2013.1_src/data/scripts/dock_solv.prm

>  <Rbt.Receptor>
prm/pocket_docking_7.prm

>  <SCORE>
-16.0118

>  <SCORE.INTER>
-14.7623

>  <SCORE.INTER.CONST>
1

>  <SCORE.INTER.POLAR>
0

>  <SCORE.INTER.ROT>
7

>  <SCORE.INTER.SOLV>
19.1031

>  <SCORE.INTER.VDW>
-24.4759

>  <SCORE.INTER.norm>
-0.546751

>  <SCORE.INTRA>
-1.24954

>  <SCORE.INTRA.DIHEDRAL>
-0.834565

>  <SCORE.INTRA.DIHEDRAL.0>
4.89803

>  <SCORE.INTRA.POLAR>
0

>  <SCORE.INTRA.POLAR.0>
0

>  <SCORE.INTRA.REPUL>
0

>  <SCORE.INTRA.REPUL.0>
0

>  <SCORE.INTRA.SOLV>
-0.0641972

>  <SCORE.INTRA.SOLV.lig_0>
-48.5832

>  <SCORE.INTRA.VDW>
-0.800158

>  <SCORE.INTRA.VDW.0>
-2.39056

>  <SCORE.INTRA.norm>
-0.0462792

>  <SCORE.RESTR>
0

>  <SCORE.RESTR.CAVITY>
0

>  <SCORE.RESTR.norm>
0

>  <SCORE.SYSTEM>
0

>  <SCORE.SYSTEM.CONST>
0

>  <SCORE.SYSTEM.DIHEDRAL>
0

>  <SCORE.SYSTEM.SOLV>
0

>  <SCORE.SYSTEM.norm>
0

>  <SCORE.heavy>
27

>  <SCORE.norm>
-0.59303

>  <RMSD>
2.793

$$$$
ligand
 OpenBabel11021811473D
libRbt.so/2013.1/901 2013/11/27
 27 29  0  0  0  0  0  0  0  0999 V2000
   11.4600   -7.2049  -17.5107 N   0  0  0  0  0  0  0  0  0  0  0  0
   12.1667   -6.1623  -18.2692 C   0  0  2  0  0  0  0  0  0  0  0  0
   11.7287   -4.7766  -17.7853 C   0  0  0  0  0  0  0  0  0  0  0  0
   10.5246   -4.6380  -17.4778 O   0  0  0  0  0  0  0  0  0  0  0  0
   11.8210   -6.3109  -19.7519 C   0  0  0  0  0  0  0  0  0  0  0  0
   12.6795   -7.3767  -20.4379 C   0  0  0  0  0  0  0  0  0  0  0  0
   15.1092   -7.9422  -19.0788 C   0  0  0  0  0  0  0  0  0  0  0  0
   13.3777   -8.5698  -19.1954 Se  0  0  2  0  0  0  0  0  0  0  0  0
   13.6260  -10.1973  -20.0589 C   0  0  0  0  0  0  0  0  0  0  0  0
   12.3290  -10.8182  -20.5794 C   0  0  1  0  0  0  0  0  0  0  0  0
   11.9295  -10.1065  -21.7633 O   0  0  0  0  0  0  0  0  0  0  0  0
   12.6655  -12.2271  -21.0694 C   0  0  1  0  0  0  0  0  0  0  0  0
   11.4604  -12.9233  -21.3911 O   0  0  0  0  0  0  0  0  0  0  0  0
   13.4176  -11.8691  -22.3487 C   0  0  1  0  0  0  0  0  0  0  0  0
   13.3952  -12.9963  -23.2264 O   0  0  0  0  0  0  0  0  0  0  0  0
   12.4844  -10.7907  -22.9009 C   0  0  2  0  0  0  0  0  0  0  0  0
   12.6038   -3.8841  -17.7421 O   0  0  0  0  0  0  0  0  0  0  0  0
   16.0636   -7.0992  -23.3557 N   0  0  0  0  0  0  0  0  0  0  0  0
   15.6937   -7.7656  -22.2756 C   0  0  0  0  0  0  0  0  0  0  0  0
   14.7534   -8.6934  -22.3175 N   0  0  0  0  0  0  0  0  0  0  0  0
   14.1408   -8.9925  -23.4730 C   0  0  0  0  0  0  0  0  0  0  0  0
   14.5010   -8.3126  -24.6280 C   0  0  0  0  0  0  0  0  0  0  0  0
   15.4915   -7.3413  -24.5420 C   0  0  0  0  0  0  0  0  0  0  0  0
   15.8364   -6.6420  -25.6187 N   0  0  0  0  0  0  0  0  0  0  0  0
   13.7574   -8.7850  -25.6221 N   0  0  0  0  0  0  0  0  0  0  0  0
   12.9605   -9.7236  -25.1167 C   0  0  0  0  0  0  0  0  0  0  0  0
   13.1881   -9.8557  -23.8098 N   0  0  0  0  0  0  0  0  0  0  0  0
  2  1  1  1  0  0  0
  2  5  1  0  0  0  0
  2  3  1  0  0  0  0
  3 17  1  0  0  0  0
  3  4  1  0  0  0  0
  5  6  1  0  0  0  0
  7  8  1  0  0  0  0
  8  6  1  6  0  0  0
  8  9  1  0  0  0  0
 10  9  1  6  0  0  0
 10 11  1  0  0  0  0
 10 12  1  0  0  0  0
 11 16  1  0  0  0  0
 12 13  1  6  0  0  0
 12 14  1  0  0  0  0
 14 15  1  6  0  0  0
 14 16  1  0  0  0  0
 16 27  1  6  0  0  0
 18 23  2  0  0  0  0
 18 19  1  0  0  0  0
 19 20  2  0  0  0  0
 20 21  1  0  0  0  0
 21 22  2  0  0  0  0
 21 27  1  0  0  0  0
 22 23  1  0  0  0  0
 22 25  1  0  0  0  0
 23 24  1  0  0  0  0
 25 26  2  0  0  0  0
 26 27  1  0  0  0  0
M  END
>  <CHROM.1>
-82.53853851,-37.39628982,21.58386794,-102.43750906,-62.29140216,75.75438696
52.80841713,13.27402110,-8.59603477,-21.11701909,2.06574221,1.07778983,0.49951044

>  <Name>
ligand

>  <RI>
0

>  <Rbt.Current_Directory>
/home/itssahil/PROJECTS/Mol_Feturizer/New_Systems/rnas/3E5F

>  <Rbt.Executable>
rbdock ($Id: //depot/dev/client3/rdock/2013.1/src/exe/rbdock.cxx#4 $)

>  <Rbt.Library>
libRbt.so (2013.1, Build901 2013/11/27)

>  <Rbt.Parameter_File>
/export/apps/rDock/src/rDock_2013.1_src/data/scripts/dock_solv.prm

>  <Rbt.Receptor>
prm/pocket_docking_3.prm

>  <SCORE>
-14.3403

>  <SCORE.INTER>
-16.3684

>  <SCORE.INTER.CONST>
1

>  <SCORE.INTER.POLAR>
0

>  <SCORE.INTER.ROT>
7

>  <SCORE.INTER.SOLV>
19.0389

>  <SCORE.INTER.VDW>
-25.5252

>  <SCORE.INTER.norm>
-0.606236

>  <SCORE.INTRA>
2.01216

>  <SCORE.INTRA.DIHEDRAL>
6.11247

>  <SCORE.INTRA.DIHEDRAL.0>
4.89803

>  <SCORE.INTRA.POLAR>
0

>  <SCORE.INTRA.POLAR.0>
0

>  <SCORE.INTRA.REPUL>
0

>  <SCORE.INTRA.REPUL.0>
0

>  <SCORE.INTRA.SOLV>
1.94564

>  <SCORE.INTRA.SOLV.lig_0>
-48.5832

>  <SCORE.INTRA.VDW>
-2.01689

>  <SCORE.INTRA.VDW.0>
-2.39056

>  <SCORE.INTRA.norm>
0.0745244

>  <SCORE.RESTR>
0.0158913

>  <SCORE.RESTR.CAVITY>
0.0158913

>  <SCORE.RESTR.norm>
0.000588565

>  <SCORE.SYSTEM>
0

>  <SCORE.SYSTEM.CONST>
0

>  <SCORE.SYSTEM.DIHEDRAL>
0

>  <SCORE.SYSTEM.SOLV>
0

>  <SCORE.SYSTEM.norm>
0

>  <SCORE.heavy>
27

>  <SCORE.norm>
-0.531123

>  <RMSD>
2.795

$$$$
ligand
 OpenBabel11021811473D
libRbt.so/2013.1/901 2013/11/27
 27 29  0  0  0  0  0  0  0  0999 V2000
   13.5422   -6.9109  -16.4615 N   0  0  0  0  0  0  0  0  0  0  0  0
   14.1584   -6.9719  -17.7950 C   0  0  2  0  0  0  0  0  0  0  0  0
   14.6857   -5.5893  -18.1906 C   0  0  0  0  0  0  0  0  0  0  0  0
   13.9461   -4.6103  -17.9496 O   0  0  0  0  0  0  0  0  0  0  0  0
   13.1011   -7.4166  -18.8072 C   0  0  0  0  0  0  0  0  0  0  0  0
   12.5467   -8.8067  -18.4854 C   0  0  0  0  0  0  0  0  0  0  0  0
    9.9557   -9.9413  -18.7495 C   0  0  0  0  0  0  0  0  0  0  0  0
   11.3611   -9.3712  -19.8008 Se  0  0  2  0  0  0  0  0  0  0  0  0
   11.9997  -10.9804  -20.4781 C   0  0  0  0  0  0  0  0  0  0  0  0
   11.4386  -11.3298  -21.8571 C   0  0  1  0  0  0  0  0  0  0  0  0
   11.7705  -10.2647  -22.7643 O   0  0  0  0  0  0  0  0  0  0  0  0
   12.2229  -12.5368  -22.3732 C   0  0  1  0  0  0  0  0  0  0  0  0
   11.6181  -13.0246  -23.5718 O   0  0  0  0  0  0  0  0  0  0  0  0
   13.5457  -11.8485  -22.7003 C   0  0  1  0  0  0  0  0  0  0  0  0
   14.2578  -12.6464  -23.6476 O   0  0  0  0  0  0  0  0  0  0  0  0
   13.0164  -10.5973  -23.4025 C   0  0  2  0  0  0  0  0  0  0  0  0
   15.8114   -5.5416  -18.7335 O   0  0  0  0  0  0  0  0  0  0  0  0
   16.2784   -7.8780  -20.4683 N   0  0  0  0  0  0  0  0  0  0  0  0
   15.5375   -8.9209  -20.1352 C   0  0  0  0  0  0  0  0  0  0  0  0
   14.7437   -9.5184  -21.0067 N   0  0  0  0  0  0  0  0  0  0  0  0
   14.6679   -9.0805  -22.2726 C   0  0  0  0  0  0  0  0  0  0  0  0
   15.4296   -7.9868  -22.6593 C   0  0  0  0  0  0  0  0  0  0  0  0
   16.2491   -7.3836  -21.7125 C   0  0  0  0  0  0  0  0  0  0  0  0
   16.9641   -6.3102  -22.0348 N   0  0  0  0  0  0  0  0  0  0  0  0
   15.1777   -7.7537  -23.9425 N   0  0  0  0  0  0  0  0  0  0  0  0
   14.2937   -8.6616  -24.3497 C   0  0  0  0  0  0  0  0  0  0  0  0
   13.9790   -9.4726  -23.3394 N   0  0  0  0  0  0  0  0  0  0  0  0
  2  1  1  1  0  0  0
  2  5  1  0  0  0  0
  2  3  1  0  0  0  0
  3 17  1  0  0  0  0
  3  4  1  0  0  0  0
  5  6  1  0  0  0  0
  7  8  1  0  0  0  0
  8  6  1  1  0  0  0
  8  9  1  0  0  0  0
 10  9  1  1  0  0  0
 10 11  1  0  0  0  0
 10 12  1  0  0  0  0
 11 16  1  0  0  0  0
 12 13  1  6  0  0  0
 12 14  1  0  0  0  0
 14 15  1  6  0  0  0
 14 16  1  0  0  0  0
 16 27  1  1  0  0  0
 18 23  2  0  0  0  0
 18 19  1  0  0  0  0
 19 20  2  0  0  0  0
 20 21  1  0  0  0  0
 21 22  2  0  0  0  0
 21 27  1  0  0  0  0
 22 23  1  0  0  0  0
 22 25  1  0  0  0  0
 23 24  1  0  0  0  0
 25 26  2  0  0  0  0
 26 27  1  0  0  0  0
M  END
>  <CHROM.1>
-60.97288524,-43.30095088,-175.73360830,-131.82951516,-159.98030221,58.21624570
74.92731516,13.38522755,-9.02000037,-20.82378950,1.19668202,0.61871076,0.89942590

>  <Name>
ligand

>  <RI>
0

>  <Rbt.Current_Directory>
/home/itssahil/PROJECTS/Mol_Feturizer/New_Systems/rnas/3E5F

>  <Rbt.Executable>
rbdock ($Id: //depot/dev/client3/rdock/2013.1/src/exe/rbdock.cxx#4 $)

>  <Rbt.Library>
libRbt.so (2013.1, Build901 2013/11/27)

>  <Rbt.Parameter_File>
/export/apps/rDock/src/rDock_2013.1_src/data/scripts/dock_solv.prm

>  <Rbt.Receptor>
prm/pocket_docking_4.prm

>  <SCORE>
-14.3128

>  <SCORE.INTER>
-13.3062

>  <SCORE.INTER.CONST>
1

>  <SCORE.INTER.POLAR>
0

>  <SCORE.INTER.ROT>
7

>  <SCORE.INTER.SOLV>
9.75802

>  <SCORE.INTER.VDW>
-20.3902

>  <SCORE.INTER.norm>
-0.492824

>  <SCORE.INTRA>
-1.00657

>  <SCORE.INTRA.DIHEDRAL>
1.2728

>  <SCORE.INTRA.DIHEDRAL.0>
4.89803

>  <SCORE.INTRA.POLAR>
0

>  <SCORE.INTRA.POLAR.0>
0

>  <SCORE.INTRA.REPUL>
0

>  <SCORE.INTRA.REPUL.0>
0

>  <SCORE.INTRA.SOLV>
1.07745

>  <SCORE.INTRA.SOLV.lig_0>
-48.5832

>  <SCORE.INTRA.VDW>
-2.18169

>  <SCORE.INTRA.VDW.0>
-2.39056

>  <SCORE.INTRA.norm>
-0.0372802

>  <SCORE.RESTR>
0

>  <SCORE.RESTR.CAVITY>
0

>  <SCORE.RESTR.norm>
0

>  <SCORE.SYSTEM>
0

>  <SCORE.SYSTEM.CONST>
0

>  <SCORE.SYSTEM.DIHEDRAL>
0

>  <SCORE.SYSTEM.SOLV>
0

>  <SCORE.SYSTEM.norm>
0

>  <SCORE.heavy>
27

>  <SCORE.norm>
-0.530104

>  <RMSD>
2.806

$$$$
ligand
 OpenBabel11021811473D
libRbt.so/2013.1/901 2013/11/27
 27 29  0  0  0  0  0  0  0  0999 V2000
   13.6092   -4.4788  -18.8656 N   0  0  0  0  0  0  0  0  0  0  0  0
   13.9062   -5.6820  -19.6567 C   0  0  2  0  0  0  0  0  0  0  0  0
   12.6120   -6.2540  -20.2433 C   0  0  0  0  0  0  0  0  0  0  0  0
   12.7106   -7.3007  -20.9203 O   0  0  0  0  0  0  0  0  0  0  0  0
   14.5504   -6.7264  -18.7434 C   0  0  0  0  0  0  0  0  0  0  0  0
   13.6480   -7.0909  -17.5618 C   0  0  0  0  0  0  0  0  0  0  0  0
   11.1586   -8.0414  -16.5771 C   0  0  0  0  0  0  0  0  0  0  0  0
   12.1497   -8.0303  -18.1337 Se  0  0  2  0  0  0  0  0  0  0  0  0
   12.6328   -9.8192  -18.2837 C   0  0  0  0  0  0  0  0  0  0  0  0
   11.7702  -10.6054  -19.2718 C   0  0  1  0  0  0  0  0  0  0  0  0
   11.8988   -9.9976  -20.5685 O   0  0  0  0  0  0  0  0  0  0  0  0
   12.4048  -11.9880  -19.4273 C   0  0  1  0  0  0  0  0  0  0  0  0
   11.5391  -12.8296  -20.1906 O   0  0  0  0  0  0  0  0  0  0  0  0
   13.6260  -11.6054  -20.2597 C   0  0  1  0  0  0  0  0  0  0  0  0
   14.0967  -12.7663  -20.9467 O   0  0  0  0  0  0  0  0  0  0  0  0
   12.9641  -10.6653  -21.2680 C   0  0  2  0  0  0  0  0  0  0  0  0
   11.5544   -5.6282  -20.0107 O   0  0  0  0  0  0  0  0  0  0  0  0
   14.5936   -8.2206  -25.5122 N   0  0  0  0  0  0  0  0  0  0  0  0
   13.5995   -9.0823  -25.3829 C   0  0  0  0  0  0  0  0  0  0  0  0
   13.2986   -9.6291  -24.2179 N   0  0  0  0  0  0  0  0  0  0  0  0
   14.0002   -9.3192  -23.1171 C   0  0  0  0  0  0  0  0  0  0  0  0
   15.0524   -8.4195  -23.2138 C   0  0  0  0  0  0  0  0  0  0  0  0
   15.3399   -7.8691  -24.4573 C   0  0  0  0  0  0  0  0  0  0  0  0
   16.3643   -7.0335  -24.5972 N   0  0  0  0  0  0  0  0  0  0  0  0
   15.5799   -8.2846  -22.0022 N   0  0  0  0  0  0  0  0  0  0  0  0
   14.8904   -9.0664  -21.1746 C   0  0  0  0  0  0  0  0  0  0  0  0
   13.9274   -9.6988  -21.8456 N   0  0  0  0  0  0  0  0  0  0  0  0
  2  1  1  1  0  0  0
  2  5  1  0  0  0  0
  2  3  1  0  0  0  0
  3 17  1  0  0  0  0
  3  4  1  0  0  0  0
  5  6  1  0  0  0  0
  7  8  1  0  0  0  0
  8  6  1  1  0  0  0
  8  9  1  0  0  0  0
 10  9  1  1  0  0  0
 10 11  1  0  0  0  0
 10 12  1  0  0  0  0
 11 16  1  0  0  0  0
 12 13  1  6  0  0  0
 12 14  1  0  0  0  0
 14 15  1  6  0  0  0
 14 16  1  0  0  0  0
 16 27  1  1  0  0  0
 18 23  2  0  0  0  0
 18 19  1  0  0  0  0
 19 20  2  0  0  0  0
 20 21  1  0  0  0  0
 21 22  2  0  0  0  0
 21 27  1  0  0  0  0
 22 23  1  0  0  0  0
 22 25  1  0  0  0  0
 23 24  1  0  0  0  0
 25 26  2  0  0  0  0
 26 27  1  0  0  0  0
M  END
>  <CHROM.1>
58.33787022,-178.54376647,68.83305964,-170.31190705,-155.12471655,59.84764332
-101.89821439,13.22108319,-8.65530210,-20.49373095,-2.59861019,-1.12533253
-2.72831267

>  <Name>
ligand

>  <RI>
0

>  <Rbt.Current_Directory>
/home/itssahil/PROJECTS/Mol_Feturizer/New_Systems/rnas/3E5F

>  <Rbt.Executable>
rbdock ($Id: //depot/dev/client3/rdock/2013.1/src/exe/rbdock.cxx#4 $)

>  <Rbt.Library>
libRbt.so (2013.1, Build901 2013/11/27)

>  <Rbt.Parameter_File>
/export/apps/rDock/src/rDock_2013.1_src/data/scripts/dock_solv.prm

>  <Rbt.Receptor>
prm/pocket_docking_3.prm

>  <SCORE>
-17.6873

>  <SCORE.INTER>
-15.7949

>  <SCORE.INTER.CONST>
1

>  <SCORE.INTER.POLAR>
0

>  <SCORE.INTER.ROT>
7

>  <SCORE.INTER.SOLV>
19.4338

>  <SCORE.INTER.VDW>
-25.2745

>  <SCORE.INTER.norm>
-0.584995

>  <SCORE.INTRA>
-1.89242

>  <SCORE.INTRA.DIHEDRAL>
0.0339789

>  <SCORE.INTRA.DIHEDRAL.0>
4.89803

>  <SCORE.INTRA.POLAR>
0

>  <SCORE.INTRA.POLAR.0>
0

>  <SCORE.INTRA.REPUL>
0

>  <SCORE.INTRA.REPUL.0>
0

>  <SCORE.INTRA.SOLV>
0.840697

>  <SCORE.INTRA.SOLV.lig_0>
-48.5832

>  <SCORE.INTRA.VDW>
-2.32976

>  <SCORE.INTRA.VDW.0>
-2.39056

>  <SCORE.INTRA.norm>
-0.0700896

>  <SCORE.RESTR>
0

>  <SCORE.RESTR.CAVITY>
0

>  <SCORE.RESTR.norm>
0

>  <SCORE.SYSTEM>
0

>  <SCORE.SYSTEM.CONST>
0

>  <SCORE.SYSTEM.DIHEDRAL>
0

>  <SCORE.SYSTEM.SOLV>
0

>  <SCORE.SYSTEM.norm>
0

>  <SCORE.heavy>
27

>  <SCORE.norm>
-0.655085

>  <RMSD>
2.831

$$$$
ligand
 OpenBabel11021811473D
libRbt.so/2013.1/901 2013/11/27
 27 29  0  0  0  0  0  0  0  0999 V2000
   13.4613   -4.4569  -18.7852 N   0  0  0  0  0  0  0  0  0  0  0  0
   13.8070   -5.6464  -19.5773 C   0  0  2  0  0  0  0  0  0  0  0  0
   12.5407   -6.2519  -20.1905 C   0  0  0  0  0  0  0  0  0  0  0  0
   11.4529   -5.7113  -19.8937 O   0  0  0  0  0  0  0  0  0  0  0  0
   14.4644   -6.6773  -18.6580 C   0  0  0  0  0  0  0  0  0  0  0  0
   13.5429   -7.0916  -17.5079 C   0  0  0  0  0  0  0  0  0  0  0  0
   11.0287   -8.0713  -16.6195 C   0  0  0  0  0  0  0  0  0  0  0  0
   12.0736   -8.0380  -18.1402 Se  0  0  2  0  0  0  0  0  0  0  0  0
   12.5770   -9.8215  -18.2886 C   0  0  0  0  0  0  0  0  0  0  0  0
   11.7307  -10.6156  -19.2845 C   0  0  1  0  0  0  0  0  0  0  0  0
   11.8695  -10.0095  -20.5811 O   0  0  0  0  0  0  0  0  0  0  0  0
   12.3762  -11.9941  -19.4302 C   0  0  1  0  0  0  0  0  0  0  0  0
   11.5248  -12.8431  -20.2012 O   0  0  0  0  0  0  0  0  0  0  0  0
   13.6040  -11.6050  -20.2497 C   0  0  1  0  0  0  0  0  0  0  0  0
   14.0901  -12.7641  -20.9291 O   0  0  0  0  0  0  0  0  0  0  0  0
   12.9470  -10.6714  -21.2673 C   0  0  2  0  0  0  0  0  0  0  0  0
   12.6861   -7.2468  -20.9343 O   0  0  0  0  0  0  0  0  0  0  0  0
   14.6014   -8.2181  -25.4968 N   0  0  0  0  0  0  0  0  0  0  0  0
   13.6110   -9.0853  -25.3765 C   0  0  0  0  0  0  0  0  0  0  0  0
   13.3026   -9.6336  -24.2142 N   0  0  0  0  0  0  0  0  0  0  0  0
   13.9923   -9.3197  -23.1071 C   0  0  0  0  0  0  0  0  0  0  0  0
   15.0404   -8.4142  -23.1943 C   0  0  0  0  0  0  0  0  0  0  0  0
   15.3361   -7.8623  -24.4352 C   0  0  0  0  0  0  0  0  0  0  0  0
   16.3571   -7.0210  -24.5659 N   0  0  0  0  0  0  0  0  0  0  0  0
   15.5561   -8.2763  -21.9780 N   0  0  0  0  0  0  0  0  0  0  0  0
   14.8634   -9.0618  -21.1566 C   0  0  0  0  0  0  0  0  0  0  0  0
   13.9102   -9.6996  -21.8362 N   0  0  0  0  0  0  0  0  0  0  0  0
  2  1  1  1  0  0  0
  2  5  1  0  0  0  0
  2  3  1  0  0  0  0
  3 17  1  0  0  0  0
  3  4  1  0  0  0  0
  5  6  1  0  0  0  0
  7  8  1  0  0  0  0
  8  6  1  1  0  0  0
  8  9  1  0  0  0  0
 10  9  1  1  0  0  0
 10 11  1  0  0  0  0
 10 12  1  0  0  0  0
 11 16  1  0  0  0  0
 12 13  1  6  0  0  0
 12 14  1  0  0  0  0
 14 15  1  6  0  0  0
 14 16  1  0  0  0  0
 16 27  1  1  0  0  0
 18 23  2  0  0  0  0
 18 19  1  0  0  0  0
 19 20  2  0  0  0  0
 20 21  1  0  0  0  0
 21 22  2  0  0  0  0
 21 27  1  0  0  0  0
 22 23  1  0  0  0  0
 22 25  1  0  0  0  0
 23 24  1  0  0  0  0
 25 26  2  0  0  0  0
 26 27  1  0  0  0  0
M  END
>  <CHROM.1>
59.26798959,-3.01488826,67.20497214,-168.82936740,-156.74443222,60.19502589
-101.72649515,13.17343614,-8.65607920,-20.47746268,-2.60824666,-1.11591385
-2.74942706

>  <Name>
ligand

>  <RI>
0

>  <Rbt.Current_Directory>
/home/itssahil/PROJECTS/Mol_Feturizer/New_Systems/rnas/3E5F

>  <Rbt.Executable>
rbdock ($Id: //depot/dev/client3/rdock/2013.1/src/exe/rbdock.cxx#4 $)

>  <Rbt.Library>
libRbt.so (2013.1, Build901 2013/11/27)

>  <Rbt.Parameter_File>
/export/apps/rDock/src/rDock_2013.1_src/data/scripts/dock_solv.prm

>  <Rbt.Receptor>
prm/pocket_docking_3.prm

>  <SCORE>
-17.7807

>  <SCORE.INTER>
-15.7533

>  <SCORE.INTER.CONST>
1

>  <SCORE.INTER.POLAR>
0

>  <SCORE.INTER.ROT>
7

>  <SCORE.INTER.SOLV>
19.2666

>  <SCORE.INTER.VDW>
-25.1911

>  <SCORE.INTER.norm>
-0.583456

>  <SCORE.INTRA>
-2.02735

>  <SCORE.INTRA.DIHEDRAL>
-0.0950727

>  <SCORE.INTRA.DIHEDRAL.0>
4.89803

>  <SCORE.INTRA.POLAR>
0

>  <SCORE.INTRA.POLAR.0>
0

>  <SCORE.INTRA.REPUL>
0

>  <SCORE.INTRA.REPUL.0>
0

>  <SCORE.INTRA.SOLV>
0.830349

>  <SCORE.INTRA.SOLV.lig_0>
-48.5832

>  <SCORE.INTRA.VDW>
-2.39499

>  <SCORE.INTRA.VDW.0>
-2.39056

>  <SCORE.INTRA.norm>
-0.0750872

>  <SCORE.RESTR>
0

>  <SCORE.RESTR.CAVITY>
0

>  <SCORE.RESTR.norm>
0

>  <SCORE.SYSTEM>
0

>  <SCORE.SYSTEM.CONST>
0

>  <SCORE.SYSTEM.DIHEDRAL>
0

>  <SCORE.SYSTEM.SOLV>
0

>  <SCORE.SYSTEM.norm>
0

>  <SCORE.heavy>
27

>  <SCORE.norm>
-0.658543

>  <RMSD>
2.848

$$$$
ligand
 OpenBabel11021811473D
libRbt.so/2013.1/901 2013/11/27
 27 29  0  0  0  0  0  0  0  0999 V2000
   11.7112   -5.9464  -15.8696 N   0  0  0  0  0  0  0  0  0  0  0  0
   11.6655   -5.5051  -17.2714 C   0  0  2  0  0  0  0  0  0  0  0  0
   11.0539   -4.1034  -17.3581 C   0  0  0  0  0  0  0  0  0  0  0  0
   11.5979   -3.2949  -18.1416 O   0  0  0  0  0  0  0  0  0  0  0  0
   10.8003   -6.4827  -18.0685 C   0  0  0  0  0  0  0  0  0  0  0  0
   11.4525   -7.8626  -18.1863 C   0  0  0  0  0  0  0  0  0  0  0  0
   12.7685   -6.9197  -20.5207 C   0  0  0  0  0  0  0  0  0  0  0  0
   13.1593   -7.7323  -18.9105 Se  0  0  2  0  0  0  0  0  0  0  0  0
   13.6658   -9.4339  -19.4622 C   0  0  0  0  0  0  0  0  0  0  0  0
   12.4854  -10.3381  -19.8195 C   0  0  1  0  0  0  0  0  0  0  0  0
   12.0074   -9.9649  -21.1233 O   0  0  0  0  0  0  0  0  0  0  0  0
   13.0366  -11.7531  -19.9994 C   0  0  1  0  0  0  0  0  0  0  0  0
   11.9545  -12.6738  -20.1476 O   0  0  0  0  0  0  0  0  0  0  0  0
   13.7515  -11.5702  -21.3358 C   0  0  1  0  0  0  0  0  0  0  0  0
   13.9133  -12.8499  -21.9500 O   0  0  0  0  0  0  0  0  0  0  0  0
   12.6793  -10.7868  -22.0944 C   0  0  2  0  0  0  0  0  0  0  0  0
   10.0625   -3.8674  -16.6330 O   0  0  0  0  0  0  0  0  0  0  0  0
   16.1285   -7.1916  -23.4442 N   0  0  0  0  0  0  0  0  0  0  0  0
   15.9031   -7.7170  -22.2523 C   0  0  0  0  0  0  0  0  0  0  0  0
   14.9765   -8.6399  -22.0618 N   0  0  0  0  0  0  0  0  0  0  0  0
   14.2298   -9.0790  -23.0862 C   0  0  0  0  0  0  0  0  0  0  0  0
   14.4361   -8.5495  -24.3524 C   0  0  0  0  0  0  0  0  0  0  0  0
   15.4174   -7.5781  -24.5111 C   0  0  0  0  0  0  0  0  0  0  0  0
   15.6181   -7.0195  -25.7007 N   0  0  0  0  0  0  0  0  0  0  0  0
   13.5815   -9.1400  -25.1803 N   0  0  0  0  0  0  0  0  0  0  0  0
   12.8649  -10.0059  -24.4674 C   0  0  0  0  0  0  0  0  0  0  0  0
   13.2537   -9.9747  -23.1926 N   0  0  0  0  0  0  0  0  0  0  0  0
  2  1  1  1  0  0  0
  2  5  1  0  0  0  0
  2  3  1  0  0  0  0
  3 17  1  0  0  0  0
  3  4  1  0  0  0  0
  5  6  1  0  0  0  0
  7  8  1  0  0  0  0
  8  6  1  1  0  0  0
  8  9  1  0  0  0  0
 10  9  1  6  0  0  0
 10 11  1  0  0  0  0
 10 12  1  0  0  0  0
 11 16  1  0  0  0  0
 12 13  1  6  0  0  0
 12 14  1  0  0  0  0
 14 15  1  6  0  0  0
 14 16  1  0  0  0  0
 16 27  1  6  0  0  0
 18 23  2  0  0  0  0
 18 19  1  0  0  0  0
 19 20  2  0  0  0  0
 20 21  1  0  0  0  0
 21 22  2  0  0  0  0
 21 27  1  0  0  0  0
 22 23  1  0  0  0  0
 22 25  1  0  0  0  0
 23 24  1  0  0  0  0
 25 26  2  0  0  0  0
 26 27  1  0  0  0  0
M  END
>  <CHROM.1>
-67.80335599,138.06829379,-55.07295132,-58.28311409,26.78987042,77.71017218
65.06998970,13.07594402,-8.27139719,-20.56104317,2.41795548,1.09428912,0.14946408

>  <Name>
ligand

>  <RI>
0

>  <Rbt.Current_Directory>
/home/itssahil/PROJECTS/Mol_Feturizer/New_Systems/rnas/3E5F

>  <Rbt.Executable>
rbdock ($Id: //depot/dev/client3/rdock/2013.1/src/exe/rbdock.cxx#4 $)

>  <Rbt.Library>
libRbt.so (2013.1, Build901 2013/11/27)

>  <Rbt.Parameter_File>
/export/apps/rDock/src/rDock_2013.1_src/data/scripts/dock_solv.prm

>  <Rbt.Receptor>
prm/pocket_docking_5.prm

>  <SCORE>
-16.4057

>  <SCORE.INTER>
-16.426

>  <SCORE.INTER.CONST>
1

>  <SCORE.INTER.POLAR>
0

>  <SCORE.INTER.ROT>
7

>  <SCORE.INTER.SOLV>
18.9025

>  <SCORE.INTER.VDW>
-25.5182

>  <SCORE.INTER.norm>
-0.608371

>  <SCORE.INTRA>
0.0203696

>  <SCORE.INTRA.DIHEDRAL>
0.404052

>  <SCORE.INTRA.DIHEDRAL.0>
4.89803

>  <SCORE.INTRA.POLAR>
0

>  <SCORE.INTRA.POLAR.0>
0

>  <SCORE.INTRA.REPUL>
0

>  <SCORE.INTRA.REPUL.0>
0

>  <SCORE.INTRA.SOLV>
0.898449

>  <SCORE.INTRA.SOLV.lig_0>
-48.5832

>  <SCORE.INTRA.VDW>
-0.630881

>  <SCORE.INTRA.VDW.0>
-2.39056

>  <SCORE.INTRA.norm>
0.000754431

>  <SCORE.RESTR>
0

>  <SCORE.RESTR.CAVITY>
0

>  <SCORE.RESTR.norm>
0

>  <SCORE.SYSTEM>
0

>  <SCORE.SYSTEM.CONST>
0

>  <SCORE.SYSTEM.DIHEDRAL>
0

>  <SCORE.SYSTEM.SOLV>
0

>  <SCORE.SYSTEM.norm>
0

>  <SCORE.heavy>
27

>  <SCORE.norm>
-0.607617

>  <RMSD>
2.884

$$$$
ligand
 OpenBabel11021811473D
libRbt.so/2013.1/901 2013/11/27
 27 29  0  0  0  0  0  0  0  0999 V2000
   14.1538   -6.7977  -17.3020 N   0  0  0  0  0  0  0  0  0  0  0  0
   13.3847   -6.8459  -18.5542 C   0  0  2  0  0  0  0  0  0  0  0  0
   12.7528   -5.4785  -18.8319 C   0  0  0  0  0  0  0  0  0  0  0  0
   13.4154   -4.4704  -18.5029 O   0  0  0  0  0  0  0  0  0  0  0  0
   12.2785   -7.8931  -18.4137 C   0  0  0  0  0  0  0  0  0  0  0  0
   12.8421   -9.2929  -18.1561 C   0  0  0  0  0  0  0  0  0  0  0  0
   13.1923  -11.9048  -19.2170 C   0  0  0  0  0  0  0  0  0  0  0  0
   11.9171  -10.5733  -19.1356 Se  0  0  2  0  0  0  0  0  0  0  0  0
   11.8633   -9.9970  -20.9023 C   0  0  0  0  0  0  0  0  0  0  0  0
   11.3197  -11.0468  -21.8723 C   0  0  1  0  0  0  0  0  0  0  0  0
   11.4132  -10.5212  -23.2074 O   0  0  0  0  0  0  0  0  0  0  0  0
   12.2903  -12.2283  -21.8522 C   0  0  1  0  0  0  0  0  0  0  0  0
   11.7365  -13.3162  -22.5940 O   0  0  0  0  0  0  0  0  0  0  0  0
   13.4499  -11.6068  -22.6265 C   0  0  1  0  0  0  0  0  0  0  0  0
   14.2568  -12.6548  -23.1666 O   0  0  0  0  0  0  0  0  0  0  0  0
   12.6718  -10.9425  -23.7631 C   0  0  2  0  0  0  0  0  0  0  0  0
   11.6180   -5.4703  -19.3579 O   0  0  0  0  0  0  0  0  0  0  0  0
   16.0146   -7.0911  -22.9653 N   0  0  0  0  0  0  0  0  0  0  0  0
   15.5642   -7.9883  -22.1053 C   0  0  0  0  0  0  0  0  0  0  0  0
   14.7025   -8.9246  -22.4626 N   0  0  0  0  0  0  0  0  0  0  0  0
   14.2563   -8.9951  -23.7258 C   0  0  0  0  0  0  0  0  0  0  0  0
   14.7053   -8.0691  -24.6570 C   0  0  0  0  0  0  0  0  0  0  0  0
   15.6082   -7.0977  -24.2413 C   0  0  0  0  0  0  0  0  0  0  0  0
   16.0313   -6.1702  -25.0945 N   0  0  0  0  0  0  0  0  0  0  0  0
   14.1218   -8.3488  -25.8171 N   0  0  0  0  0  0  0  0  0  0  0  0
   13.3368   -9.4067  -25.6271 C   0  0  0  0  0  0  0  0  0  0  0  0
   13.4135   -9.8058  -24.3574 N   0  0  0  0  0  0  0  0  0  0  0  0
  2  1  1  1  0  0  0
  2  5  1  0  0  0  0
  2  3  1  0  0  0  0
  3 17  1  0  0  0  0
  3  4  1  0  0  0  0
  5  6  1  0  0  0  0
  7  8  1  0  0  0  0
  8  6  1  1  0  0  0
  8  9  1  0  0  0  0
 10  9  1  1  0  0  0
 10 11  1  0  0  0  0
 10 12  1  0  0  0  0
 11 16  1  0  0  0  0
 12 13  1  6  0  0  0
 12 14  1  0  0  0  0
 14 15  1  6  0  0  0
 14 16  1  0  0  0  0
 16 27  1  1  0  0  0
 18 23  2  0  0  0  0
 18 19  1  0  0  0  0
 19 20  2  0  0  0  0
 20 21  1  0  0  0  0
 21 22  2  0  0  0  0
 21 27  1  0  0  0  0
 22 23  1  0  0  0  0
 22 25  1  0  0  0  0
 23 24  1  0  0  0  0
 25 26  2  0  0  0  0
 26 27  1  0  0  0  0
M  END
>  <CHROM.1>
-60.87785915,35.48003283,-138.55726652,156.61392710,171.18203564,-176.09377382
87.97215131,13.15688345,-9.25954309,-21.34743883,-2.08243539,-1.09444328
-2.32869630

>  <Name>
ligand

>  <RI>
0

>  <Rbt.Current_Directory>
/home/itssahil/PROJECTS/Mol_Feturizer/New_Systems/rnas/3E5F

>  <Rbt.Executable>
rbdock ($Id: //depot/dev/client3/rdock/2013.1/src/exe/rbdock.cxx#4 $)

>  <Rbt.Library>
libRbt.so (2013.1, Build901 2013/11/27)

>  <Rbt.Parameter_File>
/export/apps/rDock/src/rDock_2013.1_src/data/scripts/dock_solv.prm

>  <Rbt.Receptor>
prm/pocket_docking_2.prm

>  <SCORE>
-6.16308

>  <SCORE.INTER>
-13.3603

>  <SCORE.INTER.CONST>
1

>  <SCORE.INTER.POLAR>
0

>  <SCORE.INTER.ROT>
7

>  <SCORE.INTER.SOLV>
20.4463

>  <SCORE.INTER.VDW>
-23.989

>  <SCORE.INTER.norm>
-0.494826

>  <SCORE.INTRA>
5.54493

>  <SCORE.INTRA.DIHEDRAL>
2.81184

>  <SCORE.INTRA.DIHEDRAL.0>
4.89803

>  <SCORE.INTRA.POLAR>
0

>  <SCORE.INTRA.POLAR.0>
0

>  <SCORE.INTRA.REPUL>
0

>  <SCORE.INTRA.REPUL.0>
0

>  <SCORE.INTRA.SOLV>
0.889988

>  <SCORE.INTRA.SOLV.lig_0>
-48.5832

>  <SCORE.INTRA.VDW>
3.69402

>  <SCORE.INTRA.VDW.0>
-2.39056

>  <SCORE.INTRA.norm>
0.205368

>  <SCORE.RESTR>
1.65229

>  <SCORE.RESTR.CAVITY>
1.65229

>  <SCORE.RESTR.norm>
0.061196

>  <SCORE.SYSTEM>
0

>  <SCORE.SYSTEM.CONST>
0

>  <SCORE.SYSTEM.DIHEDRAL>
0

>  <SCORE.SYSTEM.SOLV>
0

>  <SCORE.SYSTEM.norm>
0

>  <SCORE.heavy>
27

>  <SCORE.norm>
-0.228262

>  <RMSD>
2.907

$$$$
ligand
 OpenBabel11021811473D
libRbt.so/2013.1/901 2013/11/27
 27 29  0  0  0  0  0  0  0  0999 V2000
   16.0502   -6.3293  -16.8244 N   0  0  0  0  0  0  0  0  0  0  0  0
   16.1360   -7.5976  -17.5632 C   0  0  2  0  0  0  0  0  0  0  0  0
   17.2000   -7.4922  -18.6601 C   0  0  0  0  0  0  0  0  0  0  0  0
   17.3089   -8.4639  -19.4395 O   0  0  0  0  0  0  0  0  0  0  0  0
   14.7780   -7.8879  -18.2046 C   0  0  0  0  0  0  0  0  0  0  0  0
   13.6841   -8.1113  -17.1572 C   0  0  0  0  0  0  0  0  0  0  0  0
   11.0430   -8.8930  -16.4616 C   0  0  0  0  0  0  0  0  0  0  0  0
   12.1008   -8.6668  -17.9567 Se  0  0  2  0  0  0  0  0  0  0  0  0
   12.3411  -10.4236  -18.5154 C   0  0  0  0  0  0  0  0  0  0  0  0
   11.5803  -10.7680  -19.7965 C   0  0  1  0  0  0  0  0  0  0  0  0
   11.7230   -9.6720  -20.7164 O   0  0  0  0  0  0  0  0  0  0  0  0
   12.3168  -11.9310  -20.4624 C   0  0  1  0  0  0  0  0  0  0  0  0
   11.5469  -12.4191  -21.5621 O   0  0  0  0  0  0  0  0  0  0  0  0
   13.5436  -11.1823  -20.9771 C   0  0  1  0  0  0  0  0  0  0  0  0
   14.1246  -11.9310  -22.0463 O   0  0  0  0  0  0  0  0  0  0  0  0
   12.8624   -9.9401  -21.5529 C   0  0  2  0  0  0  0  0  0  0  0  0
   17.8873   -6.4477  -18.6901 O   0  0  0  0  0  0  0  0  0  0  0  0
   13.5838   -4.9563  -20.4190 N   0  0  0  0  0  0  0  0  0  0  0  0
   12.5338   -5.7193  -20.1679 C   0  0  0  0  0  0  0  0  0  0  0  0
   12.4969   -6.9920  -20.5221 N   0  0  0  0  0  0  0  0  0  0  0  0
   13.5388   -7.5555  -21.1521 C   0  0  0  0  0  0  0  0  0  0  0  0
   14.6584   -6.7856  -21.4345 C   0  0  0  0  0  0  0  0  0  0  0  0
   14.6571   -5.4502  -21.0492 C   0  0  0  0  0  0  0  0  0  0  0  0
   15.6953   -4.6711  -21.3365 N   0  0  0  0  0  0  0  0  0  0  0  0
   15.5371   -7.5647  -22.0553 N   0  0  0  0  0  0  0  0  0  0  0  0
   14.9955   -8.7759  -22.1612 C   0  0  0  0  0  0  0  0  0  0  0  0
   13.7799   -8.7782  -21.6138 N   0  0  0  0  0  0  0  0  0  0  0  0
  2  1  1  6  0  0  0
  2  5  1  0  0  0  0
  2  3  1  0  0  0  0
  3 17  1  0  0  0  0
  3  4  1  0  0  0  0
  5  6  1  0  0  0  0
  7  8  1  0  0  0  0
  8  6  1  1  0  0  0
  8  9  1  0  0  0  0
 10  9  1  1  0  0  0
 10 11  1  0  0  0  0
 10 12  1  0  0  0  0
 11 16  1  0  0  0  0
 12 13  1  6  0  0  0
 12 14  1  0  0  0  0
 14 15  1  6  0  0  0
 14 16  1  0  0  0  0
 16 27  1  1  0  0  0
 18 23  2  0  0  0  0
 18 19  1  0  0  0  0
 19 20  2  0  0  0  0
 20 21  1  0  0  0  0
 21 22  2  0  0  0  0
 21 27  1  0  0  0  0
 22 23  1  0  0  0  0
 22 25  1  0  0  0  0
 23 24  1  0  0  0  0
 25 26  2  0  0  0  0
 26 27  1  0  0  0  0
M  END
>  <CHROM.1>
-64.28995159,-174.49532232,-172.97715611,178.24368654,-146.75061355,42.50038352
-9.98624189,13.70490093,-8.44586297,-19.62906382,0.46573245,0.73480684,1.04496966

>  <Name>
ligand

>  <RI>
0

>  <Rbt.Current_Directory>
/home/itssahil/PROJECTS/Mol_Feturizer/New_Systems/rnas/3E5F

>  <Rbt.Executable>
rbdock ($Id: //depot/dev/client3/rdock/2013.1/src/exe/rbdock.cxx#4 $)

>  <Rbt.Library>
libRbt.so (2013.1, Build901 2013/11/27)

>  <Rbt.Parameter_File>
/export/apps/rDock/src/rDock_2013.1_src/data/scripts/dock_solv.prm

>  <Rbt.Receptor>
prm/pocket_docking_4.prm

>  <SCORE>
-10.7796

>  <SCORE.INTER>
-8.90158

>  <SCORE.INTER.CONST>
1

>  <SCORE.INTER.POLAR>
0

>  <SCORE.INTER.ROT>
7

>  <SCORE.INTER.SOLV>
8.44246

>  <SCORE.INTER.VDW>
-17.0152

>  <SCORE.INTER.norm>
-0.329688

>  <SCORE.INTRA>
-1.87803

>  <SCORE.INTRA.DIHEDRAL>
0.984315

>  <SCORE.INTRA.DIHEDRAL.0>
4.89803

>  <SCORE.INTRA.POLAR>
0

>  <SCORE.INTRA.POLAR.0>
0

>  <SCORE.INTRA.REPUL>
0

>  <SCORE.INTRA.REPUL.0>
0

>  <SCORE.INTRA.SOLV>
1.03913

>  <SCORE.INTRA.SOLV.lig_0>
-48.5832

>  <SCORE.INTRA.VDW>
-2.88975

>  <SCORE.INTRA.VDW.0>
-2.39056

>  <SCORE.INTRA.norm>
-0.0695567

>  <SCORE.RESTR>
0

>  <SCORE.RESTR.CAVITY>
0

>  <SCORE.RESTR.norm>
0

>  <SCORE.SYSTEM>
0

>  <SCORE.SYSTEM.CONST>
0

>  <SCORE.SYSTEM.DIHEDRAL>
0

>  <SCORE.SYSTEM.SOLV>
0

>  <SCORE.SYSTEM.norm>
0

>  <SCORE.heavy>
27

>  <SCORE.norm>
-0.399245

>  <RMSD>
2.912

$$$$
ligand
 OpenBabel11021811473D
libRbt.so/2013.1/901 2013/11/27
 27 29  0  0  0  0  0  0  0  0999 V2000
   12.6542   -3.8088  -17.4900 N   0  0  0  0  0  0  0  0  0  0  0  0
   11.2218   -4.1211  -17.3778 C   0  0  2  0  0  0  0  0  0  0  0  0
   10.6516   -3.5045  -16.0968 C   0  0  0  0  0  0  0  0  0  0  0  0
   11.3785   -2.6897  -15.4875 O   0  0  0  0  0  0  0  0  0  0  0  0
   11.0508   -5.6402  -17.3254 C   0  0  0  0  0  0  0  0  0  0  0  0
   11.5452   -6.3184  -18.6057 C   0  0  0  0  0  0  0  0  0  0  0  0
   12.6145   -8.6764  -17.4365 C   0  0  0  0  0  0  0  0  0  0  0  0
   11.2391   -8.1508  -18.5490 Se  0  0  2  0  0  0  0  0  0  0  0  0
   11.7827   -8.8609  -20.1788 C   0  0  0  0  0  0  0  0  0  0  0  0
   11.1489  -10.2154  -20.4983 C   0  0  1  0  0  0  0  0  0  0  0  0
   11.1028  -10.3680  -21.9274 O   0  0  0  0  0  0  0  0  0  0  0  0
   12.1230  -11.2948  -20.0247 C   0  0  1  0  0  0  0  0  0  0  0  0
   11.5025  -12.5775  -20.1243 O   0  0  0  0  0  0  0  0  0  0  0  0
   13.1941  -11.1492  -21.1027 C   0  0  1  0  0  0  0  0  0  0  0  0
   13.9475  -12.3613  -21.1695 O   0  0  0  0  0  0  0  0  0  0  0  0
   12.3004  -11.0506  -22.3397 C   0  0  2  0  0  0  0  0  0  0  0  0
    9.5063   -3.8677  -15.7493 O   0  0  0  0  0  0  0  0  0  0  0  0
   15.8843   -7.6067  -23.7325 N   0  0  0  0  0  0  0  0  0  0  0  0
   15.5564   -8.0161  -22.5190 C   0  0  0  0  0  0  0  0  0  0  0  0
   14.6082   -8.9149  -22.3196 N   0  0  0  0  0  0  0  0  0  0  0  0
   13.9441   -9.4478  -23.3564 C   0  0  0  0  0  0  0  0  0  0  0  0
   14.2593   -9.0415  -24.6455 C   0  0  0  0  0  0  0  0  0  0  0  0
   15.2599   -8.0914  -24.8134 C   0  0  0  0  0  0  0  0  0  0  0  0
   15.5634   -7.6489  -26.0296 N   0  0  0  0  0  0  0  0  0  0  0  0
   13.4701   -9.7062  -25.4819 N   0  0  0  0  0  0  0  0  0  0  0  0
   12.6886  -10.4990  -24.7523 C   0  0  0  0  0  0  0  0  0  0  0  0
   12.9713  -10.3476  -23.4583 N   0  0  0  0  0  0  0  0  0  0  0  0
  2  1  1  1  0  0  0
  2  5  1  0  0  0  0
  2  3  1  0  0  0  0
  3 17  1  0  0  0  0
  3  4  1  0  0  0  0
  5  6  1  0  0  0  0
  7  8  1  0  0  0  0
  8  6  1  6  0  0  0
  8  9  1  0  0  0  0
 10  9  1  6  0  0  0
 10 11  1  0  0  0  0
 10 12  1  0  0  0  0
 11 16  1  0  0  0  0
 12 13  1  6  0  0  0
 12 14  1  0  0  0  0
 14 15  1  6  0  0  0
 14 16  1  0  0  0  0
 16 27  1  6  0  0  0
 18 23  2  0  0  0  0
 18 19  1  0  0  0  0
 19 20  2  0  0  0  0
 20 21  1  0  0  0  0
 21 22  2  0  0  0  0
 21 27  1  0  0  0  0
 22 23  1  0  0  0  0
 22 25  1  0  0  0  0
 23 24  1  0  0  0  0
 25 26  2  0  0  0  0
 26 27  1  0  0  0  0
M  END
>  <CHROM.1>
-62.48110309,11.12263813,-176.90882422,-77.40349624,-158.76391083,153.20833275
93.61419861,12.44343955,-8.26737465,-20.39976957,-2.19575141,-0.99402900
-2.74407989

>  <Name>
ligand

>  <RI>
0

>  <Rbt.Current_Directory>
/home/itssahil/PROJECTS/Mol_Feturizer/New_Systems/rnas/3E5F

>  <Rbt.Executable>
rbdock ($Id: //depot/dev/client3/rdock/2013.1/src/exe/rbdock.cxx#4 $)

>  <Rbt.Library>
libRbt.so (2013.1, Build901 2013/11/27)

>  <Rbt.Parameter_File>
/export/apps/rDock/src/rDock_2013.1_src/data/scripts/dock_solv.prm

>  <Rbt.Receptor>
prm/pocket_docking_5.prm

>  <SCORE>
-13.0019

>  <SCORE.INTER>
-14.8158

>  <SCORE.INTER.CONST>
1

>  <SCORE.INTER.POLAR>
0

>  <SCORE.INTER.ROT>
7

>  <SCORE.INTER.SOLV>
18.6855

>  <SCORE.INTER.VDW>
-24.3724

>  <SCORE.INTER.norm>
-0.548734

>  <SCORE.INTRA>
1.81395

>  <SCORE.INTRA.DIHEDRAL>
1.33853

>  <SCORE.INTRA.DIHEDRAL.0>
4.89803

>  <SCORE.INTRA.POLAR>
0

>  <SCORE.INTRA.POLAR.0>
0

>  <SCORE.INTRA.REPUL>
0

>  <SCORE.INTRA.REPUL.0>
0

>  <SCORE.INTRA.SOLV>
0.668081

>  <SCORE.INTRA.SOLV.lig_0>
-48.5832

>  <SCORE.INTRA.VDW>
0.81064

>  <SCORE.INTRA.VDW.0>
-2.39056

>  <SCORE.INTRA.norm>
0.0671832

>  <SCORE.RESTR>
0

>  <SCORE.RESTR.CAVITY>
0

>  <SCORE.RESTR.norm>
0

>  <SCORE.SYSTEM>
0

>  <SCORE.SYSTEM.CONST>
0

>  <SCORE.SYSTEM.DIHEDRAL>
0

>  <SCORE.SYSTEM.SOLV>
0

>  <SCORE.SYSTEM.norm>
0

>  <SCORE.heavy>
27

>  <SCORE.norm>
-0.481551

>  <RMSD>
2.983

$$$$
ligand
 OpenBabel11021811473D
libRbt.so/2013.1/901 2013/11/27
 27 29  0  0  0  0  0  0  0  0999 V2000
   12.4531   -9.0736  -14.9513 N   0  0  0  0  0  0  0  0  0  0  0  0
   13.8593   -9.4566  -15.1456 C   0  0  2  0  0  0  0  0  0  0  0  0
   14.3141  -10.3711  -14.0040 C   0  0  0  0  0  0  0  0  0  0  0  0
   13.7697  -10.2020  -12.8911 O   0  0  0  0  0  0  0  0  0  0  0  0
   14.7190   -8.1914  -15.1508 C   0  0  0  0  0  0  0  0  0  0  0  0
   14.5557   -7.3913  -16.4457 C   0  0  0  0  0  0  0  0  0  0  0  0
   16.7522   -7.3796  -18.2472 C   0  0  0  0  0  0  0  0  0  0  0  0
   15.2148   -8.3400  -17.9018 Se  0  0  2  0  0  0  0  0  0  0  0  0
   14.1645   -7.9089  -19.3739 C   0  0  0  0  0  0  0  0  0  0  0  0
   12.8029   -8.6051  -19.3793 C   0  0  1  0  0  0  0  0  0  0  0  0
   12.2889   -8.5840  -20.7221 O   0  0  0  0  0  0  0  0  0  0  0  0
   13.0491  -10.0847  -19.0819 C   0  0  1  0  0  0  0  0  0  0  0  0
   11.7995  -10.7489  -18.8872 O   0  0  0  0  0  0  0  0  0  0  0  0
   13.6599  -10.5051  -20.4164 C   0  0  1  0  0  0  0  0  0  0  0  0
   13.5124  -11.9184  -20.5651 O   0  0  0  0  0  0  0  0  0  0  0  0
   12.6957   -9.8014  -21.3722 C   0  0  2  0  0  0  0  0  0  0  0  0
   15.2020  -11.2122  -14.2656 O   0  0  0  0  0  0  0  0  0  0  0  0
   16.3346   -7.2384  -23.9864 N   0  0  0  0  0  0  0  0  0  0  0  0
   16.0805   -7.2226  -22.6892 C   0  0  0  0  0  0  0  0  0  0  0  0
   15.1054   -7.9418  -22.1615 N   0  0  0  0  0  0  0  0  0  0  0  0
   14.3367   -8.7220  -22.9364 C   0  0  0  0  0  0  0  0  0  0  0  0
   14.5721   -8.7634  -24.3034 C   0  0  0  0  0  0  0  0  0  0  0  0
   15.6044   -7.9896  -24.8205 C   0  0  0  0  0  0  0  0  0  0  0  0
   15.8357   -7.9731  -26.1295 N   0  0  0  0  0  0  0  0  0  0  0  0
   13.6874   -9.5966  -24.8397 N   0  0  0  0  0  0  0  0  0  0  0  0
   12.9247  -10.0619  -23.8532 C   0  0  0  0  0  0  0  0  0  0  0  0
   13.3138   -9.5346  -22.6922 N   0  0  0  0  0  0  0  0  0  0  0  0
  2  1  1  1  0  0  0
  2  5  1  0  0  0  0
  2  3  1  0  0  0  0
  3 17  1  0  0  0  0
  3  4  1  0  0  0  0
  5  6  1  0  0  0  0
  7  8  1  0  0  0  0
  8  6  1  1  0  0  0
  8  9  1  0  0  0  0
 10  9  1  6  0  0  0
 10 11  1  0  0  0  0
 10 12  1  0  0  0  0
 11 16  1  0  0  0  0
 12 13  1  6  0  0  0
 12 14  1  0  0  0  0
 14 15  1  6  0  0  0
 14 16  1  0  0  0  0
 16 27  1  6  0  0  0
 18 23  2  0  0  0  0
 18 19  1  0  0  0  0
 19 20  2  0  0  0  0
 20 21  1  0  0  0  0
 21 22  2  0  0  0  0
 21 27  1  0  0  0  0
 22 23  1  0  0  0  0
 22 25  1  0  0  0  0
 23 24  1  0  0  0  0
 25 26  2  0  0  0  0
 26 27  1  0  0  0  0
M  END
>  <CHROM.1>
-73.61705591,-30.25240179,-65.82255502,-107.62330001,-76.67939107,-160.27827784
54.34336478,14.31034776,-8.98734622,-19.48964080,1.62816252,0.74136945,1.62317352

>  <Name>
ligand

>  <RI>
0

>  <Rbt.Current_Directory>
/home/itssahil/PROJECTS/Mol_Feturizer/New_Systems/rnas/3E5F

>  <Rbt.Executable>
rbdock ($Id: //depot/dev/client3/rdock/2013.1/src/exe/rbdock.cxx#4 $)

>  <Rbt.Library>
libRbt.so (2013.1, Build901 2013/11/27)

>  <Rbt.Parameter_File>
/export/apps/rDock/src/rDock_2013.1_src/data/scripts/dock_solv.prm

>  <Rbt.Receptor>
prm/pocket_docking_7.prm

>  <SCORE>
-12.4592

>  <SCORE.INTER>
-12.6916

>  <SCORE.INTER.CONST>
1

>  <SCORE.INTER.POLAR>
0

>  <SCORE.INTER.ROT>
7

>  <SCORE.INTER.SOLV>
20.8636

>  <SCORE.INTER.VDW>
-23.6822

>  <SCORE.INTER.norm>
-0.470058

>  <SCORE.INTRA>
0.187524

>  <SCORE.INTRA.DIHEDRAL>
1.9715

>  <SCORE.INTRA.DIHEDRAL.0>
4.89803

>  <SCORE.INTRA.POLAR>
0

>  <SCORE.INTRA.POLAR.0>
0

>  <SCORE.INTRA.REPUL>
0

>  <SCORE.INTRA.REPUL.0>
0

>  <SCORE.INTRA.SOLV>
0.977995

>  <SCORE.INTRA.SOLV.lig_0>
-48.5832

>  <SCORE.INTRA.VDW>
-1.28722

>  <SCORE.INTRA.VDW.0>
-2.39056

>  <SCORE.INTRA.norm>
0.00694532

>  <SCORE.RESTR>
0.0448458

>  <SCORE.RESTR.CAVITY>
0.0448458

>  <SCORE.RESTR.norm>
0.00166095

>  <SCORE.SYSTEM>
0

>  <SCORE.SYSTEM.CONST>
0

>  <SCORE.SYSTEM.DIHEDRAL>
0

>  <SCORE.SYSTEM.SOLV>
0

>  <SCORE.SYSTEM.norm>
0

>  <SCORE.heavy>
27

>  <SCORE.norm>
-0.461451

>  <RMSD>
3.016

$$$$
ligand
 OpenBabel11021811473D
libRbt.so/2013.1/901 2013/11/27
 27 29  0  0  0  0  0  0  0  0999 V2000
   12.5746   -7.7338  -15.9448 N   0  0  0  0  0  0  0  0  0  0  0  0
   13.5291   -8.3825  -16.8559 C   0  0  2  0  0  0  0  0  0  0  0  0
   14.7655   -7.4962  -17.0346 C   0  0  0  0  0  0  0  0  0  0  0  0
   14.5687   -6.2682  -17.1642 O   0  0  0  0  0  0  0  0  0  0  0  0
   12.8546   -8.5865  -18.2136 C   0  0  0  0  0  0  0  0  0  0  0  0
   11.6093   -9.4707  -18.1092 C   0  0  0  0  0  0  0  0  0  0  0  0
    9.3181  -10.6614  -19.2937 C   0  0  0  0  0  0  0  0  0  0  0  0
   10.8357   -9.7302  -19.7792 Se  0  0  2  0  0  0  0  0  0  0  0  0
   11.8180  -11.0439  -20.6542 C   0  0  0  0  0  0  0  0  0  0  0  0
   11.2982  -11.3649  -22.0561 C   0  0  1  0  0  0  0  0  0  0  0  0
   11.6698  -10.2886  -22.9343 O   0  0  0  0  0  0  0  0  0  0  0  0
   12.0869  -12.5714  -22.5667 C   0  0  1  0  0  0  0  0  0  0  0  0
   11.5163  -13.0334  -23.7920 O   0  0  0  0  0  0  0  0  0  0  0  0
   13.4263  -11.8917  -22.8396 C   0  0  1  0  0  0  0  0  0  0  0  0
   14.1607  -12.6815  -23.7767 O   0  0  0  0  0  0  0  0  0  0  0  0
   12.9323  -10.6238  -23.5375 C   0  0  2  0  0  0  0  0  0  0  0  0
   15.8790   -8.0656  -17.0475 O   0  0  0  0  0  0  0  0  0  0  0  0
   16.0569   -7.9298  -20.4354 N   0  0  0  0  0  0  0  0  0  0  0  0
   15.2859   -8.9622  -20.1403 C   0  0  0  0  0  0  0  0  0  0  0  0
   14.5352   -9.5543  -21.0527 N   0  0  0  0  0  0  0  0  0  0  0  0
   14.5360   -9.1215  -22.3226 C   0  0  0  0  0  0  0  0  0  0  0  0
   15.3315   -8.0388  -22.6702 C   0  0  0  0  0  0  0  0  0  0  0  0
   16.1037   -7.4409  -21.6812 C   0  0  0  0  0  0  0  0  0  0  0  0
   16.8487   -6.3777  -21.9670 N   0  0  0  0  0  0  0  0  0  0  0  0
   15.1550   -7.8088  -23.9665 N   0  0  0  0  0  0  0  0  0  0  0  0
   14.2843   -8.7080  -24.4191 C   0  0  0  0  0  0  0  0  0  0  0  0
   13.9034   -9.5103  -23.4249 N   0  0  0  0  0  0  0  0  0  0  0  0
  2  1  1  1  0  0  0
  2  5  1  0  0  0  0
  2  3  1  0  0  0  0
  3 17  1  0  0  0  0
  3  4  1  0  0  0  0
  5  6  1  0  0  0  0
  7  8  1  0  0  0  0
  8  6  1  1  0  0  0
  8  9  1  0  0  0  0
 10  9  1  1  0  0  0
 10 11  1  0  0  0  0
 10 12  1  0  0  0  0
 11 16  1  0  0  0  0
 12 13  1  6  0  0  0
 12 14  1  0  0  0  0
 14 15  1  6  0  0  0
 14 16  1  0  0  0  0
 16 27  1  1  0  0  0
 18 23  2  0  0  0  0
 18 19  1  0  0  0  0
 19 20  2  0  0  0  0
 20 21  1  0  0  0  0
 21 22  2  0  0  0  0
 21 27  1  0  0  0  0
 22 23  1  0  0  0  0
 22 25  1  0  0  0  0
 23 24  1  0  0  0  0
 25 26  2  0  0  0  0
 26 27  1  0  0  0  0
M  END
>  <CHROM.1>
-60.16656079,-41.67591816,-178.72509797,-174.70355123,-179.79894686,74.60246557
73.10142711,13.13897735,-9.46532301,-20.68991452,1.32402633,0.55854940,1.13779581

>  <Name>
ligand

>  <RI>
0

>  <Rbt.Current_Directory>
/home/itssahil/PROJECTS/Mol_Feturizer/New_Systems/rnas/3E5F

>  <Rbt.Executable>
rbdock ($Id: //depot/dev/client3/rdock/2013.1/src/exe/rbdock.cxx#4 $)

>  <Rbt.Library>
libRbt.so (2013.1, Build901 2013/11/27)

>  <Rbt.Parameter_File>
/export/apps/rDock/src/rDock_2013.1_src/data/scripts/dock_solv.prm

>  <Rbt.Receptor>
prm/pocket_docking_4.prm

>  <SCORE>
-15.6243

>  <SCORE.INTER>
-14.3434

>  <SCORE.INTER.CONST>
1

>  <SCORE.INTER.POLAR>
0

>  <SCORE.INTER.ROT>
7

>  <SCORE.INTER.SOLV>
10.1375

>  <SCORE.INTER.VDW>
-21.2081

>  <SCORE.INTER.norm>
-0.531236

>  <SCORE.INTRA>
-1.28094

>  <SCORE.INTRA.DIHEDRAL>
-0.922483

>  <SCORE.INTRA.DIHEDRAL.0>
4.89803

>  <SCORE.INTRA.POLAR>
0

>  <SCORE.INTRA.POLAR.0>
0

>  <SCORE.INTRA.REPUL>
0

>  <SCORE.INTRA.REPUL.0>
0

>  <SCORE.INTRA.SOLV>
0.673964

>  <SCORE.INTRA.SOLV.lig_0>
-48.5832

>  <SCORE.INTRA.VDW>
-1.15668

>  <SCORE.INTRA.VDW.0>
-2.39056

>  <SCORE.INTRA.norm>
-0.0474423

>  <SCORE.RESTR>
0

>  <SCORE.RESTR.CAVITY>
0

>  <SCORE.RESTR.norm>
0

>  <SCORE.SYSTEM>
0

>  <SCORE.SYSTEM.CONST>
0

>  <SCORE.SYSTEM.DIHEDRAL>
0

>  <SCORE.SYSTEM.SOLV>
0

>  <SCORE.SYSTEM.norm>
0

>  <SCORE.heavy>
27

>  <SCORE.norm>
-0.578679

>  <RMSD>
3.096

$$$$
ligand
 OpenBabel11021811473D
libRbt.so/2013.1/901 2013/11/27
 27 29  0  0  0  0  0  0  0  0999 V2000
   13.4220   -5.9394  -17.9377 N   0  0  0  0  0  0  0  0  0  0  0  0
   12.6433   -6.5742  -19.0112 C   0  0  2  0  0  0  0  0  0  0  0  0
   13.1646   -6.1149  -20.3764 C   0  0  0  0  0  0  0  0  0  0  0  0
   13.4485   -4.9031  -20.4963 O   0  0  0  0  0  0  0  0  0  0  0  0
   11.1772   -6.1623  -18.8670 C   0  0  0  0  0  0  0  0  0  0  0  0
   10.4880   -6.8881  -17.7088 C   0  0  0  0  0  0  0  0  0  0  0  0
   10.0268   -9.4519  -16.5753 C   0  0  0  0  0  0  0  0  0  0  0  0
    9.9683   -8.6004  -18.2115 Se  0  0  2  0  0  0  0  0  0  0  0  0
   11.4037   -9.3855  -19.0945 C   0  0  0  0  0  0  0  0  0  0  0  0
   10.9934  -10.4953  -20.0633 C   0  0  1  0  0  0  0  0  0  0  0  0
   11.5106  -10.1734  -21.3658 O   0  0  0  0  0  0  0  0  0  0  0  0
   11.7466  -11.7600  -19.6491 C   0  0  1  0  0  0  0  0  0  0  0  0
   11.2609  -12.8744  -20.3990 O   0  0  0  0  0  0  0  0  0  0  0  0
   13.1458  -11.3803  -20.1275 C   0  0  1  0  0  0  0  0  0  0  0  0
   13.9101  -12.5739  -20.3077 O   0  0  0  0  0  0  0  0  0  0  0  0
   12.7986  -10.8006  -21.4994 C   0  0  2  0  0  0  0  0  0  0  0  0
   13.2590   -6.9822  -21.2726 O   0  0  0  0  0  0  0  0  0  0  0  0
   14.6773   -8.1414  -25.5048 N   0  0  0  0  0  0  0  0  0  0  0  0
   13.6401   -8.9602  -25.4675 C   0  0  0  0  0  0  0  0  0  0  0  0
   13.2764   -9.5735  -24.3548 N   0  0  0  0  0  0  0  0  0  0  0  0
   13.9559   -9.3781  -23.2146 C   0  0  0  0  0  0  0  0  0  0  0  0
   15.0519   -8.5268  -23.2149 C   0  0  0  0  0  0  0  0  0  0  0  0
   15.4049   -7.9036  -24.4060 C   0  0  0  0  0  0  0  0  0  0  0  0
   16.4714   -7.1116  -24.4549 N   0  0  0  0  0  0  0  0  0  0  0  0
   15.5458   -8.5053  -21.9820 N   0  0  0  0  0  0  0  0  0  0  0  0
   14.7939   -9.3094  -21.2340 C   0  0  0  0  0  0  0  0  0  0  0  0
   13.8244   -9.8439  -21.9768 N   0  0  0  0  0  0  0  0  0  0  0  0
  2  1  1  1  0  0  0
  2  5  1  0  0  0  0
  2  3  1  0  0  0  0
  3 17  1  0  0  0  0
  3  4  1  0  0  0  0
  5  6  1  0  0  0  0
  7  8  1  0  0  0  0
  8  6  1  1  0  0  0
  8  9  1  0  0  0  0
 10  9  1  1  0  0  0
 10 11  1  0  0  0  0
 10 12  1  0  0  0  0
 11 16  1  0  0  0  0
 12 13  1  6  0  0  0
 12 14  1  0  0  0  0
 14 15  1  6  0  0  0
 14 16  1  0  0  0  0
 16 27  1  1  0  0  0
 18 23  2  0  0  0  0
 18 19  1  0  0  0  0
 19 20  2  0  0  0  0
 20 21  1  0  0  0  0
 21 22  2  0  0  0  0
 21 27  1  0  0  0  0
 22 23  1  0  0  0  0
 22 25  1  0  0  0  0
 23 24  1  0  0  0  0
 25 26  2  0  0  0  0
 26 27  1  0  0  0  0
M  END
>  <CHROM.1>
-74.78350820,-41.94398094,-80.69728748,152.09157386,-155.36326119,124.07571147
-74.73860911,12.50710539,-8.80660118,-20.58270148,-2.91935019,-0.90553778
-2.84810760

>  <Name>
ligand

>  <RI>
0

>  <Rbt.Current_Directory>
/home/itssahil/PROJECTS/Mol_Feturizer/New_Systems/rnas/3E5F

>  <Rbt.Executable>
rbdock ($Id: //depot/dev/client3/rdock/2013.1/src/exe/rbdock.cxx#4 $)

>  <Rbt.Library>
libRbt.so (2013.1, Build901 2013/11/27)

>  <Rbt.Parameter_File>
/export/apps/rDock/src/rDock_2013.1_src/data/scripts/dock_solv.prm

>  <Rbt.Receptor>
prm/pocket_docking_3.prm

>  <SCORE>
-10.1097

>  <SCORE.INTER>
-14.1716

>  <SCORE.INTER.CONST>
1

>  <SCORE.INTER.POLAR>
0

>  <SCORE.INTER.ROT>
7

>  <SCORE.INTER.SOLV>
18.4942

>  <SCORE.INTER.VDW>
-23.8791

>  <SCORE.INTER.norm>
-0.524874

>  <SCORE.INTRA>
3.33994

>  <SCORE.INTRA.DIHEDRAL>
7.14052

>  <SCORE.INTRA.DIHEDRAL.0>
4.89803

>  <SCORE.INTRA.POLAR>
0

>  <SCORE.INTRA.POLAR.0>
0

>  <SCORE.INTRA.REPUL>
0

>  <SCORE.INTRA.REPUL.0>
0

>  <SCORE.INTRA.SOLV>
1.02305

>  <SCORE.INTRA.SOLV.lig_0>
-48.5832

>  <SCORE.INTRA.VDW>
-0.741849

>  <SCORE.INTRA.VDW.0>
-2.39056

>  <SCORE.INTRA.norm>
0.123701

>  <SCORE.RESTR>
0.721954

>  <SCORE.RESTR.CAVITY>
0.721954

>  <SCORE.RESTR.norm>
0.026739

>  <SCORE.SYSTEM>
0

>  <SCORE.SYSTEM.CONST>
0

>  <SCORE.SYSTEM.DIHEDRAL>
0

>  <SCORE.SYSTEM.SOLV>
0

>  <SCORE.SYSTEM.norm>
0

>  <SCORE.heavy>
27

>  <SCORE.norm>
-0.374434

>  <RMSD>
3.097

$$$$
ligand
 OpenBabel11021811473D
libRbt.so/2013.1/901 2013/11/27
 27 29  0  0  0  0  0  0  0  0999 V2000
   13.7606   -7.6153  -17.1032 N   0  0  0  0  0  0  0  0  0  0  0  0
   13.5660   -7.0221  -18.4344 C   0  0  2  0  0  0  0  0  0  0  0  0
   13.4962   -5.4961  -18.3211 C   0  0  0  0  0  0  0  0  0  0  0  0
   14.0920   -4.8346  -19.1992 O   0  0  0  0  0  0  0  0  0  0  0  0
   12.2531   -7.5445  -19.0202 C   0  0  0  0  0  0  0  0  0  0  0  0
   12.3181   -9.0423  -19.3299 C   0  0  0  0  0  0  0  0  0  0  0  0
    9.7083   -9.9473  -18.6665 C   0  0  0  0  0  0  0  0  0  0  0  0
   10.7542   -9.6205  -20.1513 Se  0  0  2  0  0  0  0  0  0  0  0  0
   11.0565  -11.3424  -20.7836 C   0  0  0  0  0  0  0  0  0  0  0  0
   10.8872  -11.4770  -22.2975 C   0  0  1  0  0  0  0  0  0  0  0  0
   11.5397  -10.3610  -22.9271 O   0  0  0  0  0  0  0  0  0  0  0  0
   11.6965  -12.6976  -22.7374 C   0  0  1  0  0  0  0  0  0  0  0  0
   11.4241  -12.9841  -24.1100 O   0  0  0  0  0  0  0  0  0  0  0  0
   13.1039  -12.1236  -22.5945 C   0  0  1  0  0  0  0  0  0  0  0  0
   13.9964  -12.8852  -23.4097 O   0  0  0  0  0  0  0  0  0  0  0  0
   12.8882  -10.7538  -23.2393 C   0  0  2  0  0  0  0  0  0  0  0  0
   12.8576   -5.0241  -17.3548 O   0  0  0  0  0  0  0  0  0  0  0  0
   16.0174   -6.8501  -24.5096 N   0  0  0  0  0  0  0  0  0  0  0  0
   15.2090   -7.5501  -25.2868 C   0  0  0  0  0  0  0  0  0  0  0  0
   14.4603   -8.5296  -24.8106 N   0  0  0  0  0  0  0  0  0  0  0  0
   14.4965   -8.8442  -23.5069 C   0  0  0  0  0  0  0  0  0  0  0  0
   15.3345   -8.1326  -22.6599 C   0  0  0  0  0  0  0  0  0  0  0  0
   16.1089   -7.1124  -23.1996 C   0  0  0  0  0  0  0  0  0  0  0  0
   16.9521   -6.4340  -22.4276 N   0  0  0  0  0  0  0  0  0  0  0  0
   15.1899   -8.6315  -21.4374 N   0  0  0  0  0  0  0  0  0  0  0  0
   14.2985   -9.6172  -21.5086 C   0  0  0  0  0  0  0  0  0  0  0  0
   13.8718   -9.7524  -22.7644 N   0  0  0  0  0  0  0  0  0  0  0  0
  2  1  1  1  0  0  0
  2  5  1  0  0  0  0
  2  3  1  0  0  0  0
  3 17  1  0  0  0  0
  3  4  1  0  0  0  0
  5  6  1  0  0  0  0
  7  8  1  0  0  0  0
  8  6  1  1  0  0  0
  8  9  1  0  0  0  0
 10  9  1  1  0  0  0
 10 11  1  0  0  0  0
 10 12  1  0  0  0  0
 11 16  1  0  0  0  0
 12 13  1  6  0  0  0
 12 14  1  0  0  0  0
 14 15  1  6  0  0  0
 14 16  1  0  0  0  0
 16 27  1  1  0  0  0
 18 23  2  0  0  0  0
 18 19  1  0  0  0  0
 19 20  2  0  0  0  0
 20 21  1  0  0  0  0
 21 22  2  0  0  0  0
 21 27  1  0  0  0  0
 22 23  1  0  0  0  0
 22 25  1  0  0  0  0
 23 24  1  0  0  0  0
 25 26  2  0  0  0  0
 26 27  1  0  0  0  0
M  END
>  <CHROM.1>
-67.32575140,138.91525115,-175.93678080,-85.21096849,-120.03069644,44.32867740
-102.06432211,12.94119721,-9.08717542,-21.30273363,1.36046790,0.71533391
0.83583528

>  <Name>
ligand

>  <RI>
0

>  <Rbt.Current_Directory>
/home/itssahil/PROJECTS/Mol_Feturizer/New_Systems/rnas/3E5F

>  <Rbt.Executable>
rbdock ($Id: //depot/dev/client3/rdock/2013.1/src/exe/rbdock.cxx#4 $)

>  <Rbt.Library>
libRbt.so (2013.1, Build901 2013/11/27)

>  <Rbt.Parameter_File>
/export/apps/rDock/src/rDock_2013.1_src/data/scripts/dock_solv.prm

>  <Rbt.Receptor>
prm/pocket_docking_4.prm

>  <SCORE>
-15.4535

>  <SCORE.INTER>
-15.9882

>  <SCORE.INTER.CONST>
1

>  <SCORE.INTER.POLAR>
0

>  <SCORE.INTER.ROT>
7

>  <SCORE.INTER.SOLV>
12.3386

>  <SCORE.INTER.VDW>
-23.0383

>  <SCORE.INTER.norm>
-0.592156

>  <SCORE.INTRA>
0.524744

>  <SCORE.INTRA.DIHEDRAL>
1.72251

>  <SCORE.INTRA.DIHEDRAL.0>
4.89803

>  <SCORE.INTRA.POLAR>
0

>  <SCORE.INTRA.POLAR.0>
0

>  <SCORE.INTRA.REPUL>
0

>  <SCORE.INTRA.REPUL.0>
0

>  <SCORE.INTRA.SOLV>
0.639698

>  <SCORE.INTRA.SOLV.lig_0>
-48.5832

>  <SCORE.INTRA.VDW>
-0.656358

>  <SCORE.INTRA.VDW.0>
-2.39056

>  <SCORE.INTRA.norm>
0.019435

>  <SCORE.RESTR>
0.0100029

>  <SCORE.RESTR.CAVITY>
0.0100029

>  <SCORE.RESTR.norm>
0.000370477

>  <SCORE.SYSTEM>
0

>  <SCORE.SYSTEM.CONST>
0

>  <SCORE.SYSTEM.DIHEDRAL>
0

>  <SCORE.SYSTEM.SOLV>
0

>  <SCORE.SYSTEM.norm>
0

>  <SCORE.heavy>
27

>  <SCORE.norm>
-0.57235

>  <RMSD>
3.149

$$$$
ligand
 OpenBabel11021811473D
libRbt.so/2013.1/901 2013/11/27
 27 29  0  0  0  0  0  0  0  0999 V2000
   13.7640   -5.1131  -18.8156 N   0  0  0  0  0  0  0  0  0  0  0  0
   13.4899   -6.5220  -19.1344 C   0  0  2  0  0  0  0  0  0  0  0  0
   12.5043   -6.6108  -20.3035 C   0  0  0  0  0  0  0  0  0  0  0  0
   11.6246   -5.7248  -20.3719 O   0  0  0  0  0  0  0  0  0  0  0  0
   12.8763   -7.1955  -17.9056 C   0  0  0  0  0  0  0  0  0  0  0  0
   12.7470   -8.7102  -18.0854 C   0  0  0  0  0  0  0  0  0  0  0  0
   10.0629   -9.5081  -18.5643 C   0  0  0  0  0  0  0  0  0  0  0  0
   11.6074   -9.1180  -19.4959 Se  0  0  2  0  0  0  0  0  0  0  0  0
   12.0901  -10.7937  -20.1404 C   0  0  0  0  0  0  0  0  0  0  0  0
   11.4733  -11.1278  -21.4993 C   0  0  1  0  0  0  0  0  0  0  0  0
   11.8382  -10.0932  -22.4289 O   0  0  0  0  0  0  0  0  0  0  0  0
   12.1761  -12.3821  -22.0201 C   0  0  1  0  0  0  0  0  0  0  0  0
   11.5131  -12.8499  -23.1956 O   0  0  0  0  0  0  0  0  0  0  0  0
   13.5252  -11.7715  -22.3911 C   0  0  1  0  0  0  0  0  0  0  0  0
   14.1665  -12.6185  -23.3464 O   0  0  0  0  0  0  0  0  0  0  0  0
   13.0462  -10.5014  -23.0954 C   0  0  2  0  0  0  0  0  0  0  0  0
   12.6452   -7.5668  -21.0975 O   0  0  0  0  0  0  0  0  0  0  0  0
   16.4041   -7.8113  -20.2437 N   0  0  0  0  0  0  0  0  0  0  0  0
   15.5988   -8.7910  -19.8705 C   0  0  0  0  0  0  0  0  0  0  0  0
   14.7883   -9.3903  -20.7252 N   0  0  0  0  0  0  0  0  0  0  0  0
   14.7608   -9.0195  -22.0143 C   0  0  0  0  0  0  0  0  0  0  0  0
   15.5908   -7.9933  -22.4432 C   0  0  0  0  0  0  0  0  0  0  0  0
   16.4259   -7.3856  -21.5132 C   0  0  0  0  0  0  0  0  0  0  0  0
   17.2070   -6.3735  -21.8777 N   0  0  0  0  0  0  0  0  0  0  0  0
   15.3762   -7.8178  -23.7423 N   0  0  0  0  0  0  0  0  0  0  0  0
   14.4493   -8.6958  -24.1185 C   0  0  0  0  0  0  0  0  0  0  0  0
   14.0702   -9.4307  -23.0728 N   0  0  0  0  0  0  0  0  0  0  0  0
  2  1  1  1  0  0  0
  2  5  1  0  0  0  0
  2  3  1  0  0  0  0
  3 17  1  0  0  0  0
  3  4  1  0  0  0  0
  5  6  1  0  0  0  0
  7  8  1  0  0  0  0
  8  6  1  1  0  0  0
  8  9  1  0  0  0  0
 10  9  1  1  0  0  0
 10 11  1  0  0  0  0
 10 12  1  0  0  0  0
 11 16  1  0  0  0  0
 12 13  1  6  0  0  0
 12 14  1  0  0  0  0
 14 15  1  6  0  0  0
 14 16  1  0  0  0  0
 16 27  1  1  0  0  0
 18 23  2  0  0  0  0
 18 19  1  0  0  0  0
 19 20  2  0  0  0  0
 20 21  1  0  0  0  0
 21 22  2  0  0  0  0
 21 27  1  0  0  0  0
 22 23  1  0  0  0  0
 22 25  1  0  0  0  0
 23 24  1  0  0  0  0
 25 26  2  0  0  0  0
 26 27  1  0  0  0  0
M  END
>  <CHROM.1>
-171.76660216,-34.49297842,-62.37181391,-99.86144487,-166.29224399,56.14357647
71.31179330,13.19750351,-8.97814625,-20.91333021,-1.36363585,-0.59716858
-2.46108668

>  <Name>
ligand

>  <RI>
0

>  <Rbt.Current_Directory>
/home/itssahil/PROJECTS/Mol_Feturizer/New_Systems/rnas/3E5F

>  <Rbt.Executable>
rbdock ($Id: //depot/dev/client3/rdock/2013.1/src/exe/rbdock.cxx#4 $)

>  <Rbt.Library>
libRbt.so (2013.1, Build901 2013/11/27)

>  <Rbt.Parameter_File>
/export/apps/rDock/src/rDock_2013.1_src/data/scripts/dock_solv.prm

>  <Rbt.Receptor>
prm/pocket_docking_5.prm

>  <SCORE>
-18.2873

>  <SCORE.INTER>
-14.3411

>  <SCORE.INTER.CONST>
1

>  <SCORE.INTER.POLAR>
0

>  <SCORE.INTER.ROT>
7

>  <SCORE.INTER.SOLV>
10.3285

>  <SCORE.INTER.VDW>
-21.2703

>  <SCORE.INTER.norm>
-0.531154

>  <SCORE.INTRA>
-3.94617

>  <SCORE.INTRA.DIHEDRAL>
0.253324

>  <SCORE.INTRA.DIHEDRAL.0>
4.89803

>  <SCORE.INTRA.POLAR>
0

>  <SCORE.INTRA.POLAR.0>
0

>  <SCORE.INTRA.REPUL>
0

>  <SCORE.INTRA.REPUL.0>
0

>  <SCORE.INTRA.SOLV>
0.130226

>  <SCORE.INTRA.SOLV.lig_0>
-48.5832

>  <SCORE.INTRA.VDW>
-4.13795

>  <SCORE.INTRA.VDW.0>
-2.39056

>  <SCORE.INTRA.norm>
-0.146155

>  <SCORE.RESTR>
0

>  <SCORE.RESTR.CAVITY>
0

>  <SCORE.RESTR.norm>
0

>  <SCORE.SYSTEM>
0

>  <SCORE.SYSTEM.CONST>
0

>  <SCORE.SYSTEM.DIHEDRAL>
0

>  <SCORE.SYSTEM.SOLV>
0

>  <SCORE.SYSTEM.norm>
0

>  <SCORE.heavy>
27

>  <SCORE.norm>
-0.677308

>  <RMSD>
3.233

$$$$
ligand
 OpenBabel11021811473D
libRbt.so/2013.1/901 2013/11/27
 27 29  0  0  0  0  0  0  0  0999 V2000
   13.9771   -6.2127  -18.7143 N   0  0  0  0  0  0  0  0  0  0  0  0
   13.0192   -5.6579  -19.6820 C   0  0  2  0  0  0  0  0  0  0  0  0
   12.4598   -4.3306  -19.1609 C   0  0  0  0  0  0  0  0  0  0  0  0
   11.6252   -4.3929  -18.2319 O   0  0  0  0  0  0  0  0  0  0  0  0
   11.8708   -6.6518  -19.8646 C   0  0  0  0  0  0  0  0  0  0  0  0
   12.3553   -7.9936  -20.4200 C   0  0  0  0  0  0  0  0  0  0  0  0
   11.0141   -9.5506  -18.4585 C   0  0  0  0  0  0  0  0  0  0  0  0
   11.0282   -9.2878  -20.2851 Se  0  0  2  0  0  0  0  0  0  0  0  0
   11.7464  -10.8926  -20.8894 C   0  0  0  0  0  0  0  0  0  0  0  0
   11.2941  -11.2729  -22.2998 C   0  0  1  0  0  0  0  0  0  0  0  0
   11.7073  -10.2337  -23.2036 O   0  0  0  0  0  0  0  0  0  0  0  0
   12.1059  -12.4983  -22.7213 C   0  0  1  0  0  0  0  0  0  0  0  0
   11.5944  -13.0122  -23.9519 O   0  0  0  0  0  0  0  0  0  0  0  0
   13.4570  -11.8281  -22.9582 C   0  0  1  0  0  0  0  0  0  0  0  0
   14.2351  -12.6551  -23.8253 O   0  0  0  0  0  0  0  0  0  0  0  0
   12.9970  -10.5915  -23.7314 C   0  0  2  0  0  0  0  0  0  0  0  0
   12.8708   -3.2838  -19.7083 O   0  0  0  0  0  0  0  0  0  0  0  0
   16.1918   -7.9493  -20.6562 N   0  0  0  0  0  0  0  0  0  0  0  0
   15.4386   -8.9958  -20.3647 C   0  0  0  0  0  0  0  0  0  0  0  0
   14.6655   -9.5712  -21.2692 N   0  0  0  0  0  0  0  0  0  0  0  0
   14.6243   -9.1062  -22.5269 C   0  0  0  0  0  0  0  0  0  0  0  0
   15.3998   -8.0078  -22.8703 C   0  0  0  0  0  0  0  0  0  0  0  0
   16.1967   -7.4284  -21.8899 C   0  0  0  0  0  0  0  0  0  0  0  0
   16.9239   -6.3515  -22.1704 N   0  0  0  0  0  0  0  0  0  0  0  0
   15.1823   -7.7464  -24.1543 N   0  0  0  0  0  0  0  0  0  0  0  0
   14.3058   -8.6416  -24.6036 C   0  0  0  0  0  0  0  0  0  0  0  0
   13.9619   -9.4725  -23.6194 N   0  0  0  0  0  0  0  0  0  0  0  0
  2  1  1  1  0  0  0
  2  5  1  0  0  0  0
  2  3  1  0  0  0  0
  3 17  1  0  0  0  0
  3  4  1  0  0  0  0
  5  6  1  0  0  0  0
  7  8  1  0  0  0  0
  8  6  1  1  0  0  0
  8  9  1  0  0  0  0
 10  9  1  1  0  0  0
 10 11  1  0  0  0  0
 10 12  1  0  0  0  0
 11 16  1  0  0  0  0
 12 13  1  6  0  0  0
 12 14  1  0  0  0  0
 14 15  1  6  0  0  0
 14 16  1  0  0  0  0
 16 27  1  1  0  0  0
 18 23  2  0  0  0  0
 18 19  1  0  0  0  0
 19 20  2  0  0  0  0
 20 21  1  0  0  0  0
 21 22  2  0  0  0  0
 21 27  1  0  0  0  0
 22 23  1  0  0  0  0
 22 25  1  0  0  0  0
 23 24  1  0  0  0  0
 25 26  2  0  0  0  0
 26 27  1  0  0  0  0
M  END
>  <CHROM.1>
-61.46436346,-74.24674810,167.65483418,-70.95707119,-103.01211992,60.02342556
79.02617088,13.00629461,-8.75564816,-21.35435066,-1.54179267,-0.54453951
-2.57517029

>  <Name>
ligand

>  <RI>
0

>  <Rbt.Current_Directory>
/home/itssahil/PROJECTS/Mol_Feturizer/New_Systems/rnas/3E5F

>  <Rbt.Executable>
rbdock ($Id: //depot/dev/client3/rdock/2013.1/src/exe/rbdock.cxx#4 $)

>  <Rbt.Library>
libRbt.so (2013.1, Build901 2013/11/27)

>  <Rbt.Parameter_File>
/export/apps/rDock/src/rDock_2013.1_src/data/scripts/dock_solv.prm

>  <Rbt.Receptor>
prm/pocket_docking_4.prm

>  <SCORE>
-17.4745

>  <SCORE.INTER>
-17.1398

>  <SCORE.INTER.CONST>
1

>  <SCORE.INTER.POLAR>
0

>  <SCORE.INTER.ROT>
7

>  <SCORE.INTER.SOLV>
11.8851

>  <SCORE.INTER.VDW>
-23.6549

>  <SCORE.INTER.norm>
-0.634807

>  <SCORE.INTRA>
-0.334741

>  <SCORE.INTRA.DIHEDRAL>
0.0457529

>  <SCORE.INTRA.DIHEDRAL.0>
4.89803

>  <SCORE.INTRA.POLAR>
0

>  <SCORE.INTRA.POLAR.0>
0

>  <SCORE.INTRA.REPUL>
0

>  <SCORE.INTRA.REPUL.0>
0

>  <SCORE.INTRA.SOLV>
1.51487

>  <SCORE.INTRA.SOLV.lig_0>
-48.5832

>  <SCORE.INTRA.VDW>
-1.11505

>  <SCORE.INTRA.VDW.0>
-2.39056

>  <SCORE.INTRA.norm>
-0.0123978

>  <SCORE.RESTR>
0

>  <SCORE.RESTR.CAVITY>
0

>  <SCORE.RESTR.norm>
0

>  <SCORE.SYSTEM>
0

>  <SCORE.SYSTEM.CONST>
0

>  <SCORE.SYSTEM.DIHEDRAL>
0

>  <SCORE.SYSTEM.SOLV>
0

>  <SCORE.SYSTEM.norm>
0

>  <SCORE.heavy>
27

>  <SCORE.norm>
-0.647205

>  <RMSD>
3.260

$$$$
ligand
 OpenBabel11021811473D
libRbt.so/2013.1/901 2013/11/27
 27 29  0  0  0  0  0  0  0  0999 V2000
   12.7183   -7.3383  -14.8186 N   0  0  0  0  0  0  0  0  0  0  0  0
   12.9069   -8.6476  -15.4606 C   0  0  2  0  0  0  0  0  0  0  0  0
   14.3818   -9.0552  -15.3921 C   0  0  0  0  0  0  0  0  0  0  0  0
   15.2160   -8.2440  -15.8499 O   0  0  0  0  0  0  0  0  0  0  0  0
   12.4799   -8.5446  -16.9258 C   0  0  0  0  0  0  0  0  0  0  0  0
   12.5254   -9.9010  -17.6340 C   0  0  0  0  0  0  0  0  0  0  0  0
    9.9981  -10.1466  -18.9079 C   0  0  0  0  0  0  0  0  0  0  0  0
   11.7610   -9.7949  -19.3249 Se  0  0  2  0  0  0  0  0  0  0  0  0
   12.2405  -11.3318  -20.2545 C   0  0  0  0  0  0  0  0  0  0  0  0
   11.5523  -11.4648  -21.6137 C   0  0  1  0  0  0  0  0  0  0  0  0
   11.8672  -10.3004  -22.3965 O   0  0  0  0  0  0  0  0  0  0  0  0
   12.2265  -12.6218  -22.3519 C   0  0  1  0  0  0  0  0  0  0  0  0
   11.5019  -12.9147  -23.5475 O   0  0  0  0  0  0  0  0  0  0  0  0
   13.5539  -11.9520  -22.6982 C   0  0  1  0  0  0  0  0  0  0  0  0
   14.1435  -12.6421  -23.8015 O   0  0  0  0  0  0  0  0  0  0  0  0
   13.0380  -10.5951  -23.1791 C   0  0  2  0  0  0  0  0  0  0  0  0
   14.6428  -10.1719  -14.8929 O   0  0  0  0  0  0  0  0  0  0  0  0
   16.0650   -7.8910  -19.9901 N   0  0  0  0  0  0  0  0  0  0  0  0
   15.2133   -8.8597  -19.7008 C   0  0  0  0  0  0  0  0  0  0  0  0
   14.5024   -9.4646  -20.6364 N   0  0  0  0  0  0  0  0  0  0  0  0
   14.6281   -9.1111  -21.9245 C   0  0  0  0  0  0  0  0  0  0  0  0
   15.5112   -8.0968  -22.2669 C   0  0  0  0  0  0  0  0  0  0  0  0
   16.2379   -7.4826  -21.2537 C   0  0  0  0  0  0  0  0  0  0  0  0
   17.0648   -6.4811  -21.5375 N   0  0  0  0  0  0  0  0  0  0  0  0
   15.4505   -7.9372  -23.5842 N   0  0  0  0  0  0  0  0  0  0  0  0
   14.5661   -8.8135  -24.0546 C   0  0  0  0  0  0  0  0  0  0  0  0
   14.0617   -9.5315  -23.0509 N   0  0  0  0  0  0  0  0  0  0  0  0
  2  1  1  6  0  0  0
  2  5  1  0  0  0  0
  2  3  1  0  0  0  0
  3 17  1  0  0  0  0
  3  4  1  0  0  0  0
  5  6  1  0  0  0  0
  7  8  1  0  0  0  0
  8  6  1  1  0  0  0
  8  9  1  0  0  0  0
 10  9  1  1  0  0  0
 10 11  1  0  0  0  0
 10 12  1  0  0  0  0
 11 16  1  0  0  0  0
 12 13  1  6  0  0  0
 12 14  1  0  0  0  0
 14 15  1  6  0  0  0
 14 16  1  0  0  0  0
 16 27  1  1  0  0  0
 18 23  2  0  0  0  0
 18 19  1  0  0  0  0
 19 20  2  0  0  0  0
 20 21  1  0  0  0  0
 21 22  2  0  0  0  0
 21 27  1  0  0  0  0
 22 23  1  0  0  0  0
 22 25  1  0  0  0  0
 23 24  1  0  0  0  0
 25 26  2  0  0  0  0
 26 27  1  0  0  0  0
M  END
>  <CHROM.1>
-174.78806303,-54.47961736,171.38273911,-88.30597980,173.39649355,57.54149682
57.82914294,13.37667339,-9.67499537,-20.09198378,-1.58088282,-0.64578852
-1.84608251

>  <Name>
ligand

>  <RI>
0

>  <Rbt.Current_Directory>
/home/itssahil/PROJECTS/Mol_Feturizer/New_Systems/rnas/3E5F

>  <Rbt.Executable>
rbdock ($Id: //depot/dev/client3/rdock/2013.1/src/exe/rbdock.cxx#4 $)

>  <Rbt.Library>
libRbt.so (2013.1, Build901 2013/11/27)

>  <Rbt.Parameter_File>
/export/apps/rDock/src/rDock_2013.1_src/data/scripts/dock_solv.prm

>  <Rbt.Receptor>
prm/pocket_docking_5.prm

>  <SCORE>
-15.3109

>  <SCORE.INTER>
-13.7904

>  <SCORE.INTER.CONST>
1

>  <SCORE.INTER.POLAR>
0

>  <SCORE.INTER.ROT>
7

>  <SCORE.INTER.SOLV>
10.1578

>  <SCORE.INTER.VDW>
-20.8462

>  <SCORE.INTER.norm>
-0.510757

>  <SCORE.INTRA>
-1.54603

>  <SCORE.INTRA.DIHEDRAL>
-0.925243

>  <SCORE.INTRA.DIHEDRAL.0>
4.89803

>  <SCORE.INTRA.POLAR>
0

>  <SCORE.INTRA.POLAR.0>
0

>  <SCORE.INTRA.REPUL>
0

>  <SCORE.INTRA.REPUL.0>
0

>  <SCORE.INTRA.SOLV>
-0.00861223

>  <SCORE.INTRA.SOLV.lig_0>
-48.5832

>  <SCORE.INTRA.VDW>
-1.07911

>  <SCORE.INTRA.VDW.0>
-2.39056

>  <SCORE.INTRA.norm>
-0.0572605

>  <SCORE.RESTR>
0.02556

>  <SCORE.RESTR.CAVITY>
0.02556

>  <SCORE.RESTR.norm>
0.000946667

>  <SCORE.SYSTEM>
0

>  <SCORE.SYSTEM.CONST>
0

>  <SCORE.SYSTEM.DIHEDRAL>
0

>  <SCORE.SYSTEM.SOLV>
0

>  <SCORE.SYSTEM.norm>
0

>  <SCORE.heavy>
27

>  <SCORE.norm>
-0.567071

>  <RMSD>
3.377

$$$$
ligand
 OpenBabel11021811473D
libRbt.so/2013.1/901 2013/11/27
 27 29  0  0  0  0  0  0  0  0999 V2000
   12.1952   -8.0229  -16.2249 N   0  0  0  0  0  0  0  0  0  0  0  0
   13.0648   -8.7077  -17.1927 C   0  0  2  0  0  0  0  0  0  0  0  0
   14.3110   -7.8602  -17.4663 C   0  0  0  0  0  0  0  0  0  0  0  0
   15.0619   -8.2385  -18.3919 O   0  0  0  0  0  0  0  0  0  0  0  0
   12.2920   -8.9036  -18.4981 C   0  0  0  0  0  0  0  0  0  0  0  0
   11.0169   -9.7256  -18.2930 C   0  0  0  0  0  0  0  0  0  0  0  0
    8.6103  -10.8358  -19.3157 C   0  0  0  0  0  0  0  0  0  0  0  0
   10.1770  -10.0670  -19.9155 Se  0  0  2  0  0  0  0  0  0  0  0  0
   11.0337  -11.5210  -20.6954 C   0  0  0  0  0  0  0  0  0  0  0  0
   10.7937  -11.6373  -22.2012 C   0  0  1  0  0  0  0  0  0  0  0  0
   11.3266  -10.4628  -22.8369 O   0  0  0  0  0  0  0  0  0  0  0  0
   11.6666  -12.7841  -22.7122 C   0  0  1  0  0  0  0  0  0  0  0  0
   11.3427  -13.0626  -24.0752 O   0  0  0  0  0  0  0  0  0  0  0  0
   13.0331  -12.1085  -22.6291 C   0  0  1  0  0  0  0  0  0  0  0  0
   13.9346  -12.7839  -23.5080 O   0  0  0  0  0  0  0  0  0  0  0  0
   12.6817  -10.7461  -23.2284 C   0  0  2  0  0  0  0  0  0  0  0  0
   14.4913   -6.8588  -16.7389 O   0  0  0  0  0  0  0  0  0  0  0  0
   16.1375   -7.1769  -24.6293 N   0  0  0  0  0  0  0  0  0  0  0  0
   15.4426   -8.0018  -25.3936 C   0  0  0  0  0  0  0  0  0  0  0  0
   14.5850   -8.8684  -24.8834 N   0  0  0  0  0  0  0  0  0  0  0  0
   14.3894   -8.9350  -23.5578 C   0  0  0  0  0  0  0  0  0  0  0  0
   15.1023   -8.0860  -22.7229 C   0  0  0  0  0  0  0  0  0  0  0  0
   15.9975   -7.1915  -23.2976 C   0  0  0  0  0  0  0  0  0  0  0  0
   16.7267   -6.3892  -22.5283 N   0  0  0  0  0  0  0  0  0  0  0  0
   14.7345   -8.3471  -21.4735 N   0  0  0  0  0  0  0  0  0  0  0  0
   13.8278   -9.3204  -21.5168 C   0  0  0  0  0  0  0  0  0  0  0  0
   13.6123   -9.6832  -22.7814 N   0  0  0  0  0  0  0  0  0  0  0  0
  2  1  1  1  0  0  0
  2  5  1  0  0  0  0
  2  3  1  0  0  0  0
  3 17  1  0  0  0  0
  3  4  1  0  0  0  0
  5  6  1  0  0  0  0
  7  8  1  0  0  0  0
  8  6  1  1  0  0  0
  8  9  1  0  0  0  0
 10  9  1  1  0  0  0
 10 11  1  0  0  0  0
 10 12  1  0  0  0  0
 11 16  1  0  0  0  0
 12 13  1  6  0  0  0
 12 14  1  0  0  0  0
 14 15  1  6  0  0  0
 14 16  1  0  0  0  0
 16 27  1  1  0  0  0
 18 23  2  0  0  0  0
 18 19  1  0  0  0  0
 19 20  2  0  0  0  0
 20 21  1  0  0  0  0
 21 22  2  0  0  0  0
 21 27  1  0  0  0  0
 22 23  1  0  0  0  0
 22 25  1  0  0  0  0
 23 24  1  0  0  0  0
 25 26  2  0  0  0  0
 26 27  1  0  0  0  0
M  END
>  <CHROM.1>
-59.01342457,-171.48344462,-175.23437067,-172.50703085,-160.53017192,61.97334169
-120.54372747,12.74443422,-9.61521175,-21.10517645,-2.42764660,-0.63912502
-1.99791862

>  <Name>
ligand

>  <RI>
0

>  <Rbt.Current_Directory>
/home/itssahil/PROJECTS/Mol_Feturizer/New_Systems/rnas/3E5F

>  <Rbt.Executable>
rbdock ($Id: //depot/dev/client3/rdock/2013.1/src/exe/rbdock.cxx#4 $)

>  <Rbt.Library>
libRbt.so (2013.1, Build901 2013/11/27)

>  <Rbt.Parameter_File>
/export/apps/rDock/src/rDock_2013.1_src/data/scripts/dock_solv.prm

>  <Rbt.Receptor>
prm/pocket_docking_4.prm

>  <SCORE>
-17.8948

>  <SCORE.INTER>
-17.7

>  <SCORE.INTER.CONST>
1

>  <SCORE.INTER.POLAR>
0

>  <SCORE.INTER.ROT>
7

>  <SCORE.INTER.SOLV>
12.6427

>  <SCORE.INTER.VDW>
-24.2809

>  <SCORE.INTER.norm>
-0.655556

>  <SCORE.INTRA>
-0.194759

>  <SCORE.INTRA.DIHEDRAL>
-0.594566

>  <SCORE.INTRA.DIHEDRAL.0>
4.89803

>  <SCORE.INTRA.POLAR>
0

>  <SCORE.INTRA.POLAR.0>
0

>  <SCORE.INTRA.REPUL>
0

>  <SCORE.INTRA.REPUL.0>
0

>  <SCORE.INTRA.SOLV>
0.648222

>  <SCORE.INTRA.SOLV.lig_0>
-48.5832

>  <SCORE.INTRA.VDW>
-0.221587

>  <SCORE.INTRA.VDW.0>
-2.39056

>  <SCORE.INTRA.norm>
-0.0072133

>  <SCORE.RESTR>
0

>  <SCORE.RESTR.CAVITY>
0

>  <SCORE.RESTR.norm>
0

>  <SCORE.SYSTEM>
0

>  <SCORE.SYSTEM.CONST>
0

>  <SCORE.SYSTEM.DIHEDRAL>
0

>  <SCORE.SYSTEM.SOLV>
0

>  <SCORE.SYSTEM.norm>
0

>  <SCORE.heavy>
27

>  <SCORE.norm>
-0.662769

>  <RMSD>
3.395

$$$$
ligand
 OpenBabel11021811473D
libRbt.so/2013.1/901 2013/11/27
 27 29  0  0  0  0  0  0  0  0999 V2000
   13.5381   -7.5517  -18.6693 N   0  0  0  0  0  0  0  0  0  0  0  0
   12.2583   -7.3447  -19.3629 C   0  0  2  0  0  0  0  0  0  0  0  0
   12.0563   -5.8543  -19.6525 C   0  0  0  0  0  0  0  0  0  0  0  0
   11.7832   -5.5377  -20.8309 O   0  0  0  0  0  0  0  0  0  0  0  0
   11.1243   -7.8419  -18.4647 C   0  0  0  0  0  0  0  0  0  0  0  0
   10.9788   -9.3650  -18.5133 C   0  0  0  0  0  0  0  0  0  0  0  0
    8.8787  -11.0154  -19.4807 C   0  0  0  0  0  0  0  0  0  0  0  0
   10.2122   -9.9095  -20.1165 Se  0  0  2  0  0  0  0  0  0  0  0  0
   11.3696  -11.1322  -20.9049 C   0  0  0  0  0  0  0  0  0  0  0  0
   10.9718  -11.5210  -22.3294 C   0  0  1  0  0  0  0  0  0  0  0  0
   11.4026  -10.4778  -23.2205 O   0  0  0  0  0  0  0  0  0  0  0  0
   11.8141  -12.7362  -22.7196 C   0  0  1  0  0  0  0  0  0  0  0  0
   11.3525  -13.2589  -23.9663 O   0  0  0  0  0  0  0  0  0  0  0  0
   13.1636  -12.0485  -22.9108 C   0  0  1  0  0  0  0  0  0  0  0  0
   13.9823  -12.8666  -23.7485 O   0  0  0  0  0  0  0  0  0  0  0  0
   12.7146  -10.8194  -23.7022 C   0  0  2  0  0  0  0  0  0  0  0  0
   12.1883   -5.0633  -18.6927 O   0  0  0  0  0  0  0  0  0  0  0  0
   15.8394   -8.1892  -20.5459 N   0  0  0  0  0  0  0  0  0  0  0  0
   15.1010   -9.2535  -20.2824 C   0  0  0  0  0  0  0  0  0  0  0  0
   14.3451   -9.8227  -21.2051 N   0  0  0  0  0  0  0  0  0  0  0  0
   14.3070   -9.3329  -22.4535 C   0  0  0  0  0  0  0  0  0  0  0  0
   15.0675   -8.2154  -22.7677 C   0  0  0  0  0  0  0  0  0  0  0  0
   15.8464   -7.6433  -21.7687 C   0  0  0  0  0  0  0  0  0  0  0  0
   16.5583   -6.5493  -22.0210 N   0  0  0  0  0  0  0  0  0  0  0  0
   14.8567   -7.9314  -24.0481 N   0  0  0  0  0  0  0  0  0  0  0  0
   13.9988   -8.8313  -24.5231 C   0  0  0  0  0  0  0  0  0  0  0  0
   13.6600   -9.6875  -23.5590 N   0  0  0  0  0  0  0  0  0  0  0  0
  2  1  1  1  0  0  0
  2  5  1  0  0  0  0
  2  3  1  0  0  0  0
  3 17  1  0  0  0  0
  3  4  1  0  0  0  0
  5  6  1  0  0  0  0
  7  8  1  0  0  0  0
  8  6  1  1  0  0  0
  8  9  1  0  0  0  0
 10  9  1  1  0  0  0
 10 11  1  0  0  0  0
 10 12  1  0  0  0  0
 11 16  1  0  0  0  0
 12 13  1  6  0  0  0
 12 14  1  0  0  0  0
 14 15  1  6  0  0  0
 14 16  1  0  0  0  0
 16 27  1  1  0  0  0
 18 23  2  0  0  0  0
 18 19  1  0  0  0  0
 19 20  2  0  0  0  0
 20 21  1  0  0  0  0
 21 22  2  0  0  0  0
 21 27  1  0  0  0  0
 22 23  1  0  0  0  0
 22 25  1  0  0  0  0
 23 24  1  0  0  0  0
 25 26  2  0  0  0  0
 26 27  1  0  0  0  0
M  END
>  <CHROM.1>
-79.26679571,127.98470187,-73.91246212,-130.00841295,-171.68496603,79.80682169
81.00123177,12.47516195,-9.36860493,-21.28252101,1.39620374,0.55408807,0.65584811

>  <Name>
ligand

>  <RI>
0

>  <Rbt.Current_Directory>
/home/itssahil/PROJECTS/Mol_Feturizer/New_Systems/rnas/3E5F

>  <Rbt.Executable>
rbdock ($Id: //depot/dev/client3/rdock/2013.1/src/exe/rbdock.cxx#4 $)

>  <Rbt.Library>
libRbt.so (2013.1, Build901 2013/11/27)

>  <Rbt.Parameter_File>
/export/apps/rDock/src/rDock_2013.1_src/data/scripts/dock_solv.prm

>  <Rbt.Receptor>
prm/pocket_docking_5.prm

>  <SCORE>
-15.5657

>  <SCORE.INTER>
-17.1884

>  <SCORE.INTER.CONST>
1

>  <SCORE.INTER.POLAR>
0

>  <SCORE.INTER.ROT>
7

>  <SCORE.INTER.SOLV>
10.693

>  <SCORE.INTER.VDW>
-23.29

>  <SCORE.INTER.norm>
-0.636609

>  <SCORE.INTRA>
1.62272

>  <SCORE.INTRA.DIHEDRAL>
3.96914

>  <SCORE.INTRA.DIHEDRAL.0>
4.89803

>  <SCORE.INTRA.POLAR>
0

>  <SCORE.INTRA.POLAR.0>
0

>  <SCORE.INTRA.REPUL>
0

>  <SCORE.INTRA.REPUL.0>
0

>  <SCORE.INTRA.SOLV>
2.11421

>  <SCORE.INTRA.SOLV.lig_0>
-48.5832

>  <SCORE.INTRA.VDW>
-1.41896

>  <SCORE.INTRA.VDW.0>
-2.39056

>  <SCORE.INTRA.norm>
0.0601006

>  <SCORE.RESTR>
0

>  <SCORE.RESTR.CAVITY>
0

>  <SCORE.RESTR.norm>
0

>  <SCORE.SYSTEM>
0

>  <SCORE.SYSTEM.CONST>
0

>  <SCORE.SYSTEM.DIHEDRAL>
0

>  <SCORE.SYSTEM.SOLV>
0

>  <SCORE.SYSTEM.norm>
0

>  <SCORE.heavy>
27

>  <SCORE.norm>
-0.576508

>  <RMSD>
3.648

$$$$
ligand
 OpenBabel11021811473D
libRbt.so/2013.1/901 2013/11/27
 27 29  0  0  0  0  0  0  0  0999 V2000
    9.3559   -7.5896  -16.0225 N   0  0  0  0  0  0  0  0  0  0  0  0
    9.2510   -8.1710  -17.3689 C   0  0  2  0  0  0  0  0  0  0  0  0
    9.8680   -9.5729  -17.3819 C   0  0  0  0  0  0  0  0  0  0  0  0
   10.7516   -9.8114  -16.5299 O   0  0  0  0  0  0  0  0  0  0  0  0
   10.0089   -7.2776  -18.3525 C   0  0  0  0  0  0  0  0  0  0  0  0
   11.4439   -7.0062  -17.8935 C   0  0  0  0  0  0  0  0  0  0  0  0
   14.1480   -7.8458  -17.6623 C   0  0  0  0  0  0  0  0  0  0  0  0
   12.4719   -8.5526  -17.9735 Se  0  0  2  0  0  0  0  0  0  0  0  0
   12.6000   -9.0490  -19.7605 C   0  0  0  0  0  0  0  0  0  0  0  0
   11.6751  -10.2054  -20.1424 C   0  0  1  0  0  0  0  0  0  0  0  0
   11.4166  -10.1311  -21.5549 O   0  0  0  0  0  0  0  0  0  0  0  0
   12.4691  -11.4997  -19.9614 C   0  0  1  0  0  0  0  0  0  0  0  0
   11.5996  -12.6217  -20.1210 O   0  0  0  0  0  0  0  0  0  0  0  0
   13.4003  -11.3869  -21.1659 C   0  0  1  0  0  0  0  0  0  0  0  0
   13.8842  -12.6898  -21.4970 O   0  0  0  0  0  0  0  0  0  0  0  0
   12.3924  -10.9462  -22.2282 C   0  0  2  0  0  0  0  0  0  0  0  0
    9.4504  -10.3723  -18.2485 O   0  0  0  0  0  0  0  0  0  0  0  0
   15.9892   -7.5119  -23.6116 N   0  0  0  0  0  0  0  0  0  0  0  0
   15.6926   -7.9595  -22.4037 C   0  0  0  0  0  0  0  0  0  0  0  0
   14.7359   -8.8497  -22.2061 N   0  0  0  0  0  0  0  0  0  0  0  0
   14.0306   -9.3342  -23.2394 C   0  0  0  0  0  0  0  0  0  0  0  0
   14.3120   -8.8867  -24.5226 C   0  0  0  0  0  0  0  0  0  0  0  0
   15.3228   -7.9472  -24.6886 C   0  0  0  0  0  0  0  0  0  0  0  0
   15.5954   -7.4659  -25.8974 N   0  0  0  0  0  0  0  0  0  0  0  0
   13.4855   -9.5081  -25.3564 N   0  0  0  0  0  0  0  0  0  0  0  0
   12.7140  -10.3141  -24.6308 C   0  0  0  0  0  0  0  0  0  0  0  0
   13.0398  -10.2141  -23.3420 N   0  0  0  0  0  0  0  0  0  0  0  0
  2  1  1  1  0  0  0
  2  5  1  0  0  0  0
  2  3  1  0  0  0  0
  3 17  1  0  0  0  0
  3  4  1  0  0  0  0
  5  6  1  0  0  0  0
  7  8  1  0  0  0  0
  8  6  1  6  0  0  0
  8  9  1  0  0  0  0
 10  9  1  6  0  0  0
 10 11  1  0  0  0  0
 10 12  1  0  0  0  0
 11 16  1  0  0  0  0
 12 13  1  6  0  0  0
 12 14  1  0  0  0  0
 14 15  1  6  0  0  0
 14 16  1  0  0  0  0
 16 27  1  6  0  0  0
 18 23  2  0  0  0  0
 18 19  1  0  0  0  0
 19 20  2  0  0  0  0
 20 21  1  0  0  0  0
 21 22  2  0  0  0  0
 21 27  1  0  0  0  0
 22 23  1  0  0  0  0
 22 25  1  0  0  0  0
 23 24  1  0  0  0  0
 25 26  2  0  0  0  0
 26 27  1  0  0  0  0
M  END
>  <CHROM.1>
52.63232936,-25.93487680,68.40674159,170.57191443,-102.20245110,155.58777007
80.40618724,12.56621199,-9.27411388,-20.36621716,-2.45380751,-0.90279014
-2.39112272

>  <Name>
ligand

>  <RI>
0

>  <Rbt.Current_Directory>
/home/itssahil/PROJECTS/Mol_Feturizer/New_Systems/rnas/3E5F

>  <Rbt.Executable>
rbdock ($Id: //depot/dev/client3/rdock/2013.1/src/exe/rbdock.cxx#4 $)

>  <Rbt.Library>
libRbt.so (2013.1, Build901 2013/11/27)

>  <Rbt.Parameter_File>
/export/apps/rDock/src/rDock_2013.1_src/data/scripts/dock_solv.prm

>  <Rbt.Receptor>
prm/pocket_docking_7.prm

>  <SCORE>
-15.7923

>  <SCORE.INTER>
-15.468

>  <SCORE.INTER.CONST>
1

>  <SCORE.INTER.POLAR>
0

>  <SCORE.INTER.ROT>
7

>  <SCORE.INTER.SOLV>
17.9697

>  <SCORE.INTER.VDW>
-24.5686

>  <SCORE.INTER.norm>
-0.57289

>  <SCORE.INTRA>
-0.3243

>  <SCORE.INTRA.DIHEDRAL>
1.60498

>  <SCORE.INTRA.DIHEDRAL.0>
4.89803

>  <SCORE.INTRA.POLAR>
0

>  <SCORE.INTRA.POLAR.0>
0

>  <SCORE.INTRA.REPUL>
0

>  <SCORE.INTRA.REPUL.0>
0

>  <SCORE.INTRA.SOLV>
0.965469

>  <SCORE.INTRA.SOLV.lig_0>
-48.5832

>  <SCORE.INTRA.VDW>
-1.60952

>  <SCORE.INTRA.VDW.0>
-2.39056

>  <SCORE.INTRA.norm>
-0.0120111

>  <SCORE.RESTR>
0

>  <SCORE.RESTR.CAVITY>
0

>  <SCORE.RESTR.norm>
0

>  <SCORE.SYSTEM>
0

>  <SCORE.SYSTEM.CONST>
0

>  <SCORE.SYSTEM.DIHEDRAL>
0

>  <SCORE.SYSTEM.SOLV>
0

>  <SCORE.SYSTEM.norm>
0

>  <SCORE.heavy>
27

>  <SCORE.norm>
-0.584901

>  <RMSD>
3.663

$$$$
ligand
 OpenBabel11021811473D
libRbt.so/2013.1/901 2013/11/27
 27 29  0  0  0  0  0  0  0  0999 V2000
   10.8310   -7.0016  -15.8724 N   0  0  0  0  0  0  0  0  0  0  0  0
   11.3104   -8.2817  -16.4138 C   0  0  2  0  0  0  0  0  0  0  0  0
   12.8295   -8.2322  -16.6042 C   0  0  0  0  0  0  0  0  0  0  0  0
   13.4811   -9.2299  -16.2252 O   0  0  0  0  0  0  0  0  0  0  0  0
   10.6406   -8.5270  -17.7670 C   0  0  0  0  0  0  0  0  0  0  0  0
   11.0997   -9.8404  -18.4055 C   0  0  0  0  0  0  0  0  0  0  0  0
    8.6453  -10.8922  -19.3751 C   0  0  0  0  0  0  0  0  0  0  0  0
   10.2105  -10.1475  -20.0085 Se  0  0  2  0  0  0  0  0  0  0  0  0
   11.0173  -11.6092  -20.8262 C   0  0  0  0  0  0  0  0  0  0  0  0
   10.7804  -11.6741  -22.3356 C   0  0  1  0  0  0  0  0  0  0  0  0
   11.3140  -10.4783  -22.9296 O   0  0  0  0  0  0  0  0  0  0  0  0
   11.6549  -12.8025  -22.8837 C   0  0  1  0  0  0  0  0  0  0  0  0
   11.3338  -13.0343  -24.2561 O   0  0  0  0  0  0  0  0  0  0  0  0
   13.0208  -12.1295  -22.7748 C   0  0  1  0  0  0  0  0  0  0  0  0
   13.9244  -12.7741  -23.6744 O   0  0  0  0  0  0  0  0  0  0  0  0
   12.6701  -10.7476  -23.3278 C   0  0  2  0  0  0  0  0  0  0  0  0
   13.3072   -7.1954  -17.1152 O   0  0  0  0  0  0  0  0  0  0  0  0
   16.1328   -7.1366  -24.5985 N   0  0  0  0  0  0  0  0  0  0  0  0
   15.4406   -7.9359  -25.3919 C   0  0  0  0  0  0  0  0  0  0  0  0
   14.5807   -8.8181  -24.9135 N   0  0  0  0  0  0  0  0  0  0  0  0
   14.3797   -8.9276  -23.5915 C   0  0  0  0  0  0  0  0  0  0  0  0
   15.0896   -8.1065  -22.7267 C   0  0  0  0  0  0  0  0  0  0  0  0
   15.9874   -7.1943  -23.2685 C   0  0  0  0  0  0  0  0  0  0  0  0
   16.7138   -6.4177  -22.4707 N   0  0  0  0  0  0  0  0  0  0  0  0
   14.7167   -8.4078  -21.4879 N   0  0  0  0  0  0  0  0  0  0  0  0
   13.8098   -9.3788  -21.5663 C   0  0  0  0  0  0  0  0  0  0  0  0
   13.5992   -9.7002  -22.8429 N   0  0  0  0  0  0  0  0  0  0  0  0
  2  1  1  6  0  0  0
  2  5  1  0  0  0  0
  2  3  1  0  0  0  0
  3 17  1  0  0  0  0
  3  4  1  0  0  0  0
  5  6  1  0  0  0  0
  7  8  1  0  0  0  0
  8  6  1  1  0  0  0
  8  9  1  0  0  0  0
 10  9  1  1  0  0  0
 10 11  1  0  0  0  0
 10 12  1  0  0  0  0
 11 16  1  0  0  0  0
 12 13  1  6  0  0  0
 12 14  1  0  0  0  0
 14 15  1  6  0  0  0
 14 16  1  0  0  0  0
 16 27  1  1  0  0  0
 18 23  2  0  0  0  0
 18 19  1  0  0  0  0
 19 20  2  0  0  0  0
 20 21  1  0  0  0  0
 21 22  2  0  0  0  0
 21 27  1  0  0  0  0
 22 23  1  0  0  0  0
 22 25  1  0  0  0  0
 23 24  1  0  0  0  0
 25 26  2  0  0  0  0
 26 27  1  0  0  0  0
M  END
>  <CHROM.1>
179.46197376,135.57511553,177.37507901,-82.84827844,-158.27750213,59.82583851
-120.70396913,12.45729871,-9.64174416,-21.01931176,-2.25720554,-0.67682980
-2.08958256

>  <Name>
ligand

>  <RI>
0

>  <Rbt.Current_Directory>
/home/itssahil/PROJECTS/Mol_Feturizer/New_Systems/rnas/3E5F

>  <Rbt.Executable>
rbdock ($Id: //depot/dev/client3/rdock/2013.1/src/exe/rbdock.cxx#4 $)

>  <Rbt.Library>
libRbt.so (2013.1, Build901 2013/11/27)

>  <Rbt.Parameter_File>
/export/apps/rDock/src/rDock_2013.1_src/data/scripts/dock_solv.prm

>  <Rbt.Receptor>
prm/pocket_docking_6.prm

>  <SCORE>
-17.572

>  <SCORE.INTER>
-17.3966

>  <SCORE.INTER.CONST>
1

>  <SCORE.INTER.POLAR>
0

>  <SCORE.INTER.ROT>
7

>  <SCORE.INTER.SOLV>
12.2487

>  <SCORE.INTER.VDW>
-23.9473

>  <SCORE.INTER.norm>
-0.644318

>  <SCORE.INTRA>
-0.175407

>  <SCORE.INTRA.DIHEDRAL>
-0.476579

>  <SCORE.INTRA.DIHEDRAL.0>
4.89803

>  <SCORE.INTRA.POLAR>
0

>  <SCORE.INTRA.POLAR.0>
0

>  <SCORE.INTRA.REPUL>
0

>  <SCORE.INTRA.REPUL.0>
0

>  <SCORE.INTRA.SOLV>
-0.0812813

>  <SCORE.INTRA.SOLV.lig_0>
-48.5832

>  <SCORE.INTRA.VDW>
0.103523

>  <SCORE.INTRA.VDW.0>
-2.39056

>  <SCORE.INTRA.norm>
-0.00649655

>  <SCORE.RESTR>
0

>  <SCORE.RESTR.CAVITY>
0

>  <SCORE.RESTR.norm>
0

>  <SCORE.SYSTEM>
0

>  <SCORE.SYSTEM.CONST>
0

>  <SCORE.SYSTEM.DIHEDRAL>
0

>  <SCORE.SYSTEM.SOLV>
0

>  <SCORE.SYSTEM.norm>
0

>  <SCORE.heavy>
27

>  <SCORE.norm>
-0.650814

>  <RMSD>
3.763

$$$$
ligand
 OpenBabel11021811473D
libRbt.so/2013.1/901 2013/11/27
 27 29  0  0  0  0  0  0  0  0999 V2000
   10.7896   -6.9421  -16.0638 N   0  0  0  0  0  0  0  0  0  0  0  0
   11.2457   -8.2478  -16.5627 C   0  0  2  0  0  0  0  0  0  0  0  0
   12.7685   -8.2409  -16.7280 C   0  0  0  0  0  0  0  0  0  0  0  0
   13.2733   -7.2441  -17.2894 O   0  0  0  0  0  0  0  0  0  0  0  0
   10.5926   -8.5127  -17.9204 C   0  0  0  0  0  0  0  0  0  0  0  0
   11.0142   -9.8624  -18.5069 C   0  0  0  0  0  0  0  0  0  0  0  0
    8.5826  -10.9646  -19.4779 C   0  0  0  0  0  0  0  0  0  0  0  0
   10.1356  -10.1945  -20.1108 Se  0  0  2  0  0  0  0  0  0  0  0  0
   10.9718  -11.6454  -20.9182 C   0  0  0  0  0  0  0  0  0  0  0  0
   10.7447  -11.7200  -22.4287 C   0  0  1  0  0  0  0  0  0  0  0  0
   11.2313  -10.5031  -23.0204 O   0  0  0  0  0  0  0  0  0  0  0  0
   11.6676  -12.8113  -22.9725 C   0  0  1  0  0  0  0  0  0  0  0  0
   11.3628  -13.0560  -24.3464 O   0  0  0  0  0  0  0  0  0  0  0  0
   13.0041  -12.0825  -22.8574 C   0  0  1  0  0  0  0  0  0  0  0  0
   13.9377  -12.6892  -23.7527 O   0  0  0  0  0  0  0  0  0  0  0  0
   12.5992  -10.7162  -23.4122 C   0  0  2  0  0  0  0  0  0  0  0  0
   13.3938   -9.2354  -16.2986 O   0  0  0  0  0  0  0  0  0  0  0  0
   16.0859   -7.1145  -24.6432 N   0  0  0  0  0  0  0  0  0  0  0  0
   15.4555   -7.9627  -25.4374 C   0  0  0  0  0  0  0  0  0  0  0  0
   14.5792   -8.8347  -24.9701 N   0  0  0  0  0  0  0  0  0  0  0  0
   14.2974   -8.8833  -23.6593 C   0  0  0  0  0  0  0  0  0  0  0  0
   14.9407   -8.0097  -22.7939 C   0  0  0  0  0  0  0  0  0  0  0  0
   15.8584   -7.1101  -23.3235 C   0  0  0  0  0  0  0  0  0  0  0  0
   16.5230   -6.2840  -22.5217 N   0  0  0  0  0  0  0  0  0  0  0  0
   14.4953   -8.2567  -21.5671 N   0  0  0  0  0  0  0  0  0  0  0  0
   13.6081   -9.2451  -21.6534 C   0  0  0  0  0  0  0  0  0  0  0  0
   13.4821   -9.6314  -22.9231 N   0  0  0  0  0  0  0  0  0  0  0  0
  2  1  1  6  0  0  0
  2  5  1  0  0  0  0
  2  3  1  0  0  0  0
  3 17  1  0  0  0  0
  3  4  1  0  0  0  0
  5  6  1  0  0  0  0
  7  8  1  0  0  0  0
  8  6  1  1  0  0  0
  8  9  1  0  0  0  0
 10  9  1  1  0  0  0
 10 11  1  0  0  0  0
 10 12  1  0  0  0  0
 11 16  1  0  0  0  0
 12 13  1  6  0  0  0
 12 14  1  0  0  0  0
 14 15  1  6  0  0  0
 14 16  1  0  0  0  0
 16 27  1  1  0  0  0
 18 23  2  0  0  0  0
 18 19  1  0  0  0  0
 19 20  2  0  0  0  0
 20 21  1  0  0  0  0
 21 22  2  0  0  0  0
 21 27  1  0  0  0  0
 22 23  1  0  0  0  0
 22 25  1  0  0  0  0
 23 24  1  0  0  0  0
 25 26  2  0  0  0  0
 26 27  1  0  0  0  0
M  END
>  <CHROM.1>
-179.75439740,-45.72872021,176.99105606,-86.35684342,-158.06817488,58.41107813
-125.28707623,12.38822118,-9.63069901,-21.11418924,-2.27814596,-0.69022193
-2.10045253

>  <Name>
ligand

>  <RI>
0

>  <Rbt.Current_Directory>
/home/itssahil/PROJECTS/Mol_Feturizer/New_Systems/rnas/3E5F

>  <Rbt.Executable>
rbdock ($Id: //depot/dev/client3/rdock/2013.1/src/exe/rbdock.cxx#4 $)

>  <Rbt.Library>
libRbt.so (2013.1, Build901 2013/11/27)

>  <Rbt.Parameter_File>
/export/apps/rDock/src/rDock_2013.1_src/data/scripts/dock_solv.prm

>  <Rbt.Receptor>
prm/pocket_docking_8.prm

>  <SCORE>
-17.5851

>  <SCORE.INTER>
-17.3357

>  <SCORE.INTER.CONST>
1

>  <SCORE.INTER.POLAR>
0

>  <SCORE.INTER.ROT>
7

>  <SCORE.INTER.SOLV>
11.9483

>  <SCORE.INTER.VDW>
-23.8066

>  <SCORE.INTER.norm>
-0.642064

>  <SCORE.INTRA>
-0.249344

>  <SCORE.INTRA.DIHEDRAL>
-0.322897

>  <SCORE.INTRA.DIHEDRAL.0>
4.89803

>  <SCORE.INTRA.POLAR>
0

>  <SCORE.INTRA.POLAR.0>
0

>  <SCORE.INTRA.REPUL>
0

>  <SCORE.INTRA.REPUL.0>
0

>  <SCORE.INTRA.SOLV>
-0.0758681

>  <SCORE.INTRA.SOLV.lig_0>
-48.5832

>  <SCORE.INTRA.VDW>
-0.0499614

>  <SCORE.INTRA.VDW.0>
-2.39056

>  <SCORE.INTRA.norm>
-0.00923496

>  <SCORE.RESTR>
0

>  <SCORE.RESTR.CAVITY>
0

>  <SCORE.RESTR.norm>
0

>  <SCORE.SYSTEM>
0

>  <SCORE.SYSTEM.CONST>
0

>  <SCORE.SYSTEM.DIHEDRAL>
0

>  <SCORE.SYSTEM.SOLV>
0

>  <SCORE.SYSTEM.norm>
0

>  <SCORE.heavy>
27

>  <SCORE.norm>
-0.651299

>  <RMSD>
3.798

$$$$
ligand
 OpenBabel11021811473D
libRbt.so/2013.1/901 2013/11/27
 27 29  0  0  0  0  0  0  0  0999 V2000
   14.3103   -6.9038  -15.6998 N   0  0  0  0  0  0  0  0  0  0  0  0
   15.1805   -6.6056  -16.8468 C   0  0  2  0  0  0  0  0  0  0  0  0
   16.6462   -6.5956  -16.4018 C   0  0  0  0  0  0  0  0  0  0  0  0
   16.8930   -6.1147  -15.2743 O   0  0  0  0  0  0  0  0  0  0  0  0
   14.8125   -5.2279  -17.4003 C   0  0  0  0  0  0  0  0  0  0  0  0
   13.4351   -5.2265  -18.0683 C   0  0  0  0  0  0  0  0  0  0  0  0
   11.7177   -6.4987  -19.9397 C   0  0  0  0  0  0  0  0  0  0  0  0
   13.4986   -6.0648  -19.7259 Se  0  0  2  0  0  0  0  0  0  0  0  0
   14.2656   -7.7400  -19.4780 C   0  0  0  0  0  0  0  0  0  0  0  0
   15.7057   -7.8348  -19.9838 C   0  0  1  0  0  0  0  0  0  0  0  0
   15.7765   -8.8945  -20.9531 O   0  0  0  0  0  0  0  0  0  0  0  0
   15.9911   -6.5612  -20.7806 C   0  0  1  0  0  0  0  0  0  0  0  0
   17.3783   -6.5070  -21.1170 O   0  0  0  0  0  0  0  0  0  0  0  0
   15.1640   -6.8615  -22.0281 C   0  0  1  0  0  0  0  0  0  0  0  0
   15.6593   -6.0707  -23.1100 O   0  0  0  0  0  0  0  0  0  0  0  0
   15.5634   -8.3201  -22.2549 C   0  0  2  0  0  0  0  0  0  0  0  0
   17.4886   -7.0597  -17.2013 O   0  0  0  0  0  0  0  0  0  0  0  0
   12.4443  -12.4304  -22.4020 N   0  0  0  0  0  0  0  0  0  0  0  0
   13.2859  -12.0629  -21.4511 C   0  0  0  0  0  0  0  0  0  0  0  0
   14.0241  -10.9719  -21.5576 N   0  0  0  0  0  0  0  0  0  0  0  0
   13.9377  -10.1931  -22.6467 C   0  0  0  0  0  0  0  0  0  0  0  0
   13.0664  -10.5475  -23.6671 C   0  0  0  0  0  0  0  0  0  0  0  0
   12.3101  -11.7042  -23.5191 C   0  0  0  0  0  0  0  0  0  0  0  0
   11.4931  -12.0970  -24.4915 N   0  0  0  0  0  0  0  0  0  0  0  0
   13.1669   -9.6279  -24.6203 N   0  0  0  0  0  0  0  0  0  0  0  0
   14.0642   -8.7303  -24.2195 C   0  0  0  0  0  0  0  0  0  0  0  0
   14.5374   -9.0672  -23.0196 N   0  0  0  0  0  0  0  0  0  0  0  0
  2  1  1  1  0  0  0
  2  5  1  0  0  0  0
  2  3  1  0  0  0  0
  3 17  1  0  0  0  0
  3  4  1  0  0  0  0
  5  6  1  0  0  0  0
  7  8  1  0  0  0  0
  8  6  1  1  0  0  0
  8  9  1  0  0  0  0
 10  9  1  6  0  0  0
 10 11  1  0  0  0  0
 10 12  1  0  0  0  0
 11 16  1  0  0  0  0
 12 13  1  6  0  0  0
 12 14  1  0  0  0  0
 14 15  1  6  0  0  0
 14 16  1  0  0  0  0
 16 27  1  1  0  0  0
 18 23  2  0  0  0  0
 18 19  1  0  0  0  0
 19 20  2  0  0  0  0
 20 21  1  0  0  0  0
 21 22  2  0  0  0  0
 21 27  1  0  0  0  0
 22 23  1  0  0  0  0
 22 25  1  0  0  0  0
 23 24  1  0  0  0  0
 25 26  2  0  0  0  0
 26 27  1  0  0  0  0
M  END
>  <CHROM.1>
-69.10318901,-37.67630358,-74.85539843,158.56468934,-105.55635107,-122.58931845
-5.27462399,14.40886903,-7.84779524,-20.46163939,1.01499394,1.00382825,1.39837688

>  <Name>
ligand

>  <RI>
0

>  <Rbt.Current_Directory>
/home/itssahil/PROJECTS/Mol_Feturizer/New_Systems/rnas/3E5F

>  <Rbt.Executable>
rbdock ($Id: //depot/dev/client3/rdock/2013.1/src/exe/rbdock.cxx#4 $)

>  <Rbt.Library>
libRbt.so (2013.1, Build901 2013/11/27)

>  <Rbt.Parameter_File>
/export/apps/rDock/src/rDock_2013.1_src/data/scripts/dock_solv.prm

>  <Rbt.Receptor>
prm/pocket_docking_3.prm

>  <SCORE>
-7.82915

>  <SCORE.INTER>
-10.3961

>  <SCORE.INTER.CONST>
1

>  <SCORE.INTER.POLAR>
0

>  <SCORE.INTER.ROT>
7

>  <SCORE.INTER.SOLV>
11.0271

>  <SCORE.INTER.VDW>
-18.8731

>  <SCORE.INTER.norm>
-0.38504

>  <SCORE.INTRA>
2.56389

>  <SCORE.INTRA.DIHEDRAL>
5.9922

>  <SCORE.INTRA.DIHEDRAL.0>
4.89803

>  <SCORE.INTRA.POLAR>
0

>  <SCORE.INTRA.POLAR.0>
0

>  <SCORE.INTRA.REPUL>
0

>  <SCORE.INTRA.REPUL.0>
0

>  <SCORE.INTRA.SOLV>
1.51092

>  <SCORE.INTRA.SOLV.lig_0>
-48.5832

>  <SCORE.INTRA.VDW>
-1.18767

>  <SCORE.INTRA.VDW.0>
-2.39056

>  <SCORE.INTRA.norm>
0.0949589

>  <SCORE.RESTR>
0.00302193

>  <SCORE.RESTR.CAVITY>
0.00302193

>  <SCORE.RESTR.norm>
0.000111923

>  <SCORE.SYSTEM>
0

>  <SCORE.SYSTEM.CONST>
0

>  <SCORE.SYSTEM.DIHEDRAL>
0

>  <SCORE.SYSTEM.SOLV>
0

>  <SCORE.SYSTEM.norm>
0

>  <SCORE.heavy>
27

>  <SCORE.norm>
-0.289969

>  <RMSD>
3.914

$$$$
ligand
 OpenBabel11021811473D
libRbt.so/2013.1/901 2013/11/27
 27 29  0  0  0  0  0  0  0  0999 V2000
   11.3766   -6.9930  -17.3477 N   0  0  0  0  0  0  0  0  0  0  0  0
   11.2627   -8.4541  -17.4661 C   0  0  2  0  0  0  0  0  0  0  0  0
   12.6571   -9.0807  -17.5621 C   0  0  0  0  0  0  0  0  0  0  0  0
   12.7401  -10.3123  -17.3624 O   0  0  0  0  0  0  0  0  0  0  0  0
   10.4726   -8.7863  -18.7331 C   0  0  0  0  0  0  0  0  0  0  0  0
   10.0598  -10.2596  -18.7829 C   0  0  0  0  0  0  0  0  0  0  0  0
    9.6922  -12.5933  -20.3605 C   0  0  0  0  0  0  0  0  0  0  0  0
    9.5766  -10.7574  -20.5072 Se  0  0  2  0  0  0  0  0  0  0  0  0
   11.0140  -10.3789  -21.6238 C   0  0  0  0  0  0  0  0  0  0  0  0
   10.9222  -11.0575  -22.9911 C   0  0  1  0  0  0  0  0  0  0  0  0
   11.6357  -10.2523  -23.9451 O   0  0  0  0  0  0  0  0  0  0  0  0
   11.7221  -12.3580  -22.9065 C   0  0  1  0  0  0  0  0  0  0  0  0
   11.5159  -13.1257  -24.0933 O   0  0  0  0  0  0  0  0  0  0  0  0
   13.1342  -11.7778  -22.9004 C   0  0  1  0  0  0  0  0  0  0  0  0
   14.0490  -12.7888  -23.3271 O   0  0  0  0  0  0  0  0  0  0  0  0
   12.9884  -10.7380  -24.0123 C   0  0  2  0  0  0  0  0  0  0  0  0
   13.6105   -8.3144  -17.8232 O   0  0  0  0  0  0  0  0  0  0  0  0
   15.7986   -7.8379  -20.7972 N   0  0  0  0  0  0  0  0  0  0  0  0
   14.9688   -8.8262  -20.5102 C   0  0  0  0  0  0  0  0  0  0  0  0
   14.3150   -9.4827  -21.4526 N   0  0  0  0  0  0  0  0  0  0  0  0
   14.4788   -9.1638  -22.7454 C   0  0  0  0  0  0  0  0  0  0  0  0
   15.3405   -8.1305  -23.0857 C   0  0  0  0  0  0  0  0  0  0  0  0
   16.0067   -7.4618  -22.0654 C   0  0  0  0  0  0  0  0  0  0  0  0
   16.8105   -6.4416  -22.3490 N   0  0  0  0  0  0  0  0  0  0  0  0
   15.3258   -8.0126  -24.4087 N   0  0  0  0  0  0  0  0  0  0  0  0
   14.4896   -8.9323  -24.8846 C   0  0  0  0  0  0  0  0  0  0  0  0
   13.9707   -9.6368  -23.8787 N   0  0  0  0  0  0  0  0  0  0  0  0
  2  1  1  6  0  0  0
  2  5  1  0  0  0  0
  2  3  1  0  0  0  0
  3 17  1  0  0  0  0
  3  4  1  0  0  0  0
  5  6  1  0  0  0  0
  7  8  1  0  0  0  0
  8  6  1  1  0  0  0
  8  9  1  0  0  0  0
 10  9  1  1  0  0  0
 10 11  1  0  0  0  0
 10 12  1  0  0  0  0
 11 16  1  0  0  0  0
 12 13  1  6  0  0  0
 12 14  1  0  0  0  0
 14 15  1  6  0  0  0
 14 16  1  0  0  0  0
 16 27  1  1  0  0  0
 18 23  2  0  0  0  0
 18 19  1  0  0  0  0
 19 20  2  0  0  0  0
 20 21  1  0  0  0  0
 21 22  2  0  0  0  0
 21 27  1  0  0  0  0
 22 23  1  0  0  0  0
 22 25  1  0  0  0  0
 23 24  1  0  0  0  0
 25 26  2  0  0  0  0
 26 27  1  0  0  0  0
M  END
>  <CHROM.1>
-168.20752561,164.17950814,-162.74489995,162.14991599,164.82053048,152.30178250
88.50784240,12.40848953,-9.91114632,-21.24797614,-2.70490172,-0.57631975
-2.06045187

>  <Name>
ligand

>  <RI>
0

>  <Rbt.Current_Directory>
/home/itssahil/PROJECTS/Mol_Feturizer/New_Systems/rnas/3E5F

>  <Rbt.Executable>
rbdock ($Id: //depot/dev/client3/rdock/2013.1/src/exe/rbdock.cxx#4 $)

>  <Rbt.Library>
libRbt.so (2013.1, Build901 2013/11/27)

>  <Rbt.Parameter_File>
/export/apps/rDock/src/rDock_2013.1_src/data/scripts/dock_solv.prm

>  <Rbt.Receptor>
prm/pocket_docking_4.prm

>  <SCORE>
-15.9376

>  <SCORE.INTER>
-16.9479

>  <SCORE.INTER.CONST>
1

>  <SCORE.INTER.POLAR>
0

>  <SCORE.INTER.ROT>
7

>  <SCORE.INTER.SOLV>
12.4605

>  <SCORE.INTER.VDW>
-23.7187

>  <SCORE.INTER.norm>
-0.627699

>  <SCORE.INTRA>
1.01028

>  <SCORE.INTRA.DIHEDRAL>
2.05026

>  <SCORE.INTRA.DIHEDRAL.0>
4.89803

>  <SCORE.INTRA.POLAR>
0

>  <SCORE.INTRA.POLAR.0>
0

>  <SCORE.INTRA.REPUL>
0

>  <SCORE.INTRA.REPUL.0>
0

>  <SCORE.INTRA.SOLV>
0.0498867

>  <SCORE.INTRA.SOLV.lig_0>
-48.5832

>  <SCORE.INTRA.VDW>
-0.0397927

>  <SCORE.INTRA.VDW.0>
-2.39056

>  <SCORE.INTRA.norm>
0.0374177

>  <SCORE.RESTR>
0

>  <SCORE.RESTR.CAVITY>
0

>  <SCORE.RESTR.norm>
0

>  <SCORE.SYSTEM>
0

>  <SCORE.SYSTEM.CONST>
0

>  <SCORE.SYSTEM.DIHEDRAL>
0

>  <SCORE.SYSTEM.SOLV>
0

>  <SCORE.SYSTEM.norm>
0

>  <SCORE.heavy>
27

>  <SCORE.norm>
-0.590281

>  <RMSD>
3.931

$$$$
ligand
 OpenBabel11021811473D
libRbt.so/2013.1/901 2013/11/27
 27 29  0  0  0  0  0  0  0  0999 V2000
   12.6606   -6.5867  -19.9009 N   0  0  0  0  0  0  0  0  0  0  0  0
   11.5358   -7.4644  -19.5455 C   0  0  2  0  0  0  0  0  0  0  0  0
   10.5819   -6.7327  -18.5963 C   0  0  0  0  0  0  0  0  0  0  0  0
    9.4425   -7.2256  -18.4466 O   0  0  0  0  0  0  0  0  0  0  0  0
   12.0837   -8.7105  -18.8476 C   0  0  0  0  0  0  0  0  0  0  0  0
   10.9813   -9.7260  -18.5363 C   0  0  0  0  0  0  0  0  0  0  0  0
    8.6396  -11.1199  -19.3387 C   0  0  0  0  0  0  0  0  0  0  0  0
   10.0577  -10.1992  -20.0782 Se  0  0  2  0  0  0  0  0  0  0  0  0
   11.0062  -11.5697  -20.9017 C   0  0  0  0  0  0  0  0  0  0  0  0
   10.7980  -11.6346  -22.4153 C   0  0  1  0  0  0  0  0  0  0  0  0
   11.3771  -10.4568  -23.0030 O   0  0  0  0  0  0  0  0  0  0  0  0
   11.6513  -12.7894  -22.9412 C   0  0  1  0  0  0  0  0  0  0  0  0
   11.3516  -13.0181  -24.3190 O   0  0  0  0  0  0  0  0  0  0  0  0
   13.0332  -12.1547  -22.8072 C   0  0  1  0  0  0  0  0  0  0  0  0
   13.9362  -12.8284  -23.6858 O   0  0  0  0  0  0  0  0  0  0  0  0
   12.7328  -10.7659  -23.3725 C   0  0  2  0  0  0  0  0  0  0  0  0
   11.0083   -5.6922  -18.0488 O   0  0  0  0  0  0  0  0  0  0  0  0
   16.1334   -7.0805  -24.5965 N   0  0  0  0  0  0  0  0  0  0  0  0
   15.4082   -7.8384  -25.4009 C   0  0  0  0  0  0  0  0  0  0  0  0
   14.5707   -8.7479  -24.9337 N   0  0  0  0  0  0  0  0  0  0  0  0
   14.4276   -8.9288  -23.6120 C   0  0  0  0  0  0  0  0  0  0  0  0
   15.1736   -8.1529  -22.7360 C   0  0  0  0  0  0  0  0  0  0  0  0
   16.0461   -7.2099  -23.2665 C   0  0  0  0  0  0  0  0  0  0  0  0
   16.8058   -6.4748  -22.4604 N   0  0  0  0  0  0  0  0  0  0  0  0
   14.8553   -8.5214  -21.5002 N   0  0  0  0  0  0  0  0  0  0  0  0
   13.9468   -9.4897  -21.5912 C   0  0  0  0  0  0  0  0  0  0  0  0
   13.6812   -9.7429  -22.8729 N   0  0  0  0  0  0  0  0  0  0  0  0
  2  1  1  1  0  0  0
  2  5  1  0  0  0  0
  2  3  1  0  0  0  0
  3 17  1  0  0  0  0
  3  4  1  0  0  0  0
  5  6  1  0  0  0  0
  7  8  1  0  0  0  0
  8  6  1  1  0  0  0
  8  9  1  0  0  0  0
 10  9  1  1  0  0  0
 10 11  1  0  0  0  0
 10 12  1  0  0  0  0
 11 16  1  0  0  0  0
 12 13  1  6  0  0  0
 12 14  1  0  0  0  0
 14 15  1  6  0  0  0
 14 16  1  0  0  0  0
 16 27  1  1  0  0  0
 18 23  2  0  0  0  0
 18 19  1  0  0  0  0
 19 20  2  0  0  0  0
 20 21  1  0  0  0  0
 21 22  2  0  0  0  0
 21 27  1  0  0  0  0
 22 23  1  0  0  0  0
 22 25  1  0  0  0  0
 23 24  1  0  0  0  0
 25 26  2  0  0  0  0
 26 27  1  0  0  0  0
M  END
>  <CHROM.1>
-175.79222384,164.31866104,56.04379490,-169.16226334,-153.05117622,66.74706457
-115.47515628,12.26721306,-9.45793274,-21.47944127,-2.79142280,-0.66762918
-2.51360184

>  <Name>
ligand

>  <RI>
0

>  <Rbt.Current_Directory>
/home/itssahil/PROJECTS/Mol_Feturizer/New_Systems/rnas/3E5F

>  <Rbt.Executable>
rbdock ($Id: //depot/dev/client3/rdock/2013.1/src/exe/rbdock.cxx#4 $)

>  <Rbt.Library>
libRbt.so (2013.1, Build901 2013/11/27)

>  <Rbt.Parameter_File>
/export/apps/rDock/src/rDock_2013.1_src/data/scripts/dock_solv.prm

>  <Rbt.Receptor>
prm/pocket_docking_5.prm

>  <SCORE>
-20.4767

>  <SCORE.INTER>
-19.8347

>  <SCORE.INTER.CONST>
1

>  <SCORE.INTER.POLAR>
0

>  <SCORE.INTER.ROT>
7

>  <SCORE.INTER.SOLV>
14.342

>  <SCORE.INTER.VDW>
-26.2705

>  <SCORE.INTER.norm>
-0.73462

>  <SCORE.INTRA>
-0.641967

>  <SCORE.INTRA.DIHEDRAL>
0.204296

>  <SCORE.INTRA.DIHEDRAL.0>
4.89803

>  <SCORE.INTRA.POLAR>
0

>  <SCORE.INTRA.POLAR.0>
0

>  <SCORE.INTRA.REPUL>
0

>  <SCORE.INTRA.REPUL.0>
0

>  <SCORE.INTRA.SOLV>
0.616152

>  <SCORE.INTRA.SOLV.lig_0>
-48.5832

>  <SCORE.INTRA.VDW>
-1.05219

>  <SCORE.INTRA.VDW.0>
-2.39056

>  <SCORE.INTRA.norm>
-0.0237766

>  <SCORE.RESTR>
0

>  <SCORE.RESTR.CAVITY>
0

>  <SCORE.RESTR.norm>
0

>  <SCORE.SYSTEM>
0

>  <SCORE.SYSTEM.CONST>
0

>  <SCORE.SYSTEM.DIHEDRAL>
0

>  <SCORE.SYSTEM.SOLV>
0

>  <SCORE.SYSTEM.norm>
0

>  <SCORE.heavy>
27

>  <SCORE.norm>
-0.758396

>  <RMSD>
3.942

$$$$
ligand
 OpenBabel11021811473D
libRbt.so/2013.1/901 2013/11/27
 27 29  0  0  0  0  0  0  0  0999 V2000
   16.1651   -7.3305  -15.8055 N   0  0  0  0  0  0  0  0  0  0  0  0
   16.7530   -6.0343  -16.1743 C   0  0  2  0  0  0  0  0  0  0  0  0
   16.3663   -4.9723  -15.1404 C   0  0  0  0  0  0  0  0  0  0  0  0
   15.4059   -5.2392  -14.3855 O   0  0  0  0  0  0  0  0  0  0  0  0
   16.2161   -5.6214  -17.5459 C   0  0  0  0  0  0  0  0  0  0  0  0
   14.7018   -5.3982  -17.5265 C   0  0  0  0  0  0  0  0  0  0  0  0
   12.2436   -4.9647  -18.8829 C   0  0  0  0  0  0  0  0  0  0  0  0
   14.0406   -5.1713  -19.2487 Se  0  0  2  0  0  0  0  0  0  0  0  0
   14.0650   -6.8329  -20.0822 C   0  0  0  0  0  0  0  0  0  0  0  0
   15.4727   -7.3946  -20.2864 C   0  0  1  0  0  0  0  0  0  0  0  0
   15.3573   -8.7087  -20.8588 O   0  0  0  0  0  0  0  0  0  0  0  0
   16.1423   -6.5552  -21.3751 C   0  0  1  0  0  0  0  0  0  0  0  0
   17.5218   -6.9120  -21.4750 O   0  0  0  0  0  0  0  0  0  0  0  0
   15.3801   -7.0766  -22.5908 C   0  0  1  0  0  0  0  0  0  0  0  0
   16.1544   -6.8206  -23.7639 O   0  0  0  0  0  0  0  0  0  0  0  0
   15.4138   -8.5757  -22.2903 C   0  0  2  0  0  0  0  0  0  0  0  0
   17.0322   -3.9136  -15.1332 O   0  0  0  0  0  0  0  0  0  0  0  0
   12.0359  -12.4677  -21.9958 N   0  0  0  0  0  0  0  0  0  0  0  0
   12.9479  -12.0941  -21.1147 C   0  0  0  0  0  0  0  0  0  0  0  0
   13.7475  -11.0648  -21.3337 N   0  0  0  0  0  0  0  0  0  0  0  0
   13.6538  -10.3574  -22.4698 C   0  0  0  0  0  0  0  0  0  0  0  0
   12.7093  -10.7206  -23.4195 C   0  0  0  0  0  0  0  0  0  0  0  0
   11.8897  -11.8113  -23.1538 C   0  0  0  0  0  0  0  0  0  0  0  0
   10.9995  -12.2132  -24.0556 N   0  0  0  0  0  0  0  0  0  0  0  0
   12.8180   -9.8765  -24.4393 N   0  0  0  0  0  0  0  0  0  0  0  0
   13.7905   -9.0162  -24.1467 C   0  0  0  0  0  0  0  0  0  0  0  0
   14.3036   -9.3022  -22.9499 N   0  0  0  0  0  0  0  0  0  0  0  0
  2  1  1  1  0  0  0
  2  5  1  0  0  0  0
  2  3  1  0  0  0  0
  3 17  1  0  0  0  0
  3  4  1  0  0  0  0
  5  6  1  0  0  0  0
  7  8  1  0  0  0  0
  8  6  1  1  0  0  0
  8  9  1  0  0  0  0
 10  9  1  6  0  0  0
 10 11  1  0  0  0  0
 10 12  1  0  0  0  0
 11 16  1  0  0  0  0
 12 13  1  6  0  0  0
 12 14  1  0  0  0  0
 14 15  1  6  0  0  0
 14 16  1  0  0  0  0
 16 27  1  6  0  0  0
 18 23  2  0  0  0  0
 18 19  1  0  0  0  0
 19 20  2  0  0  0  0
 20 21  1  0  0  0  0
 21 22  2  0  0  0  0
 21 27  1  0  0  0  0
 22 23  1  0  0  0  0
 22 25  1  0  0  0  0
 23 24  1  0  0  0  0
 25 26  2  0  0  0  0
 26 27  1  0  0  0  0
M  END
>  <CHROM.1>
63.52525301,-16.98757121,-170.76512745,178.98434283,-64.99434326,176.46805810
-26.12961183,14.53665294,-7.50815951,-20.18931217,0.98982664,1.01607751,1.36912408

>  <Name>
ligand

>  <RI>
0

>  <Rbt.Current_Directory>
/home/itssahil/PROJECTS/Mol_Feturizer/New_Systems/rnas/3E5F

>  <Rbt.Executable>
rbdock ($Id: //depot/dev/client3/rdock/2013.1/src/exe/rbdock.cxx#4 $)

>  <Rbt.Library>
libRbt.so (2013.1, Build901 2013/11/27)

>  <Rbt.Parameter_File>
/export/apps/rDock/src/rDock_2013.1_src/data/scripts/dock_solv.prm

>  <Rbt.Receptor>
prm/pocket_docking_3.prm

>  <SCORE>
-11.2562

>  <SCORE.INTER>
-11.692

>  <SCORE.INTER.CONST>
1

>  <SCORE.INTER.POLAR>
0

>  <SCORE.INTER.ROT>
7

>  <SCORE.INTER.SOLV>
10.8489

>  <SCORE.INTER.VDW>
-19.6776

>  <SCORE.INTER.norm>
-0.433036

>  <SCORE.INTRA>
0.264486

>  <SCORE.INTRA.DIHEDRAL>
-1.51684

>  <SCORE.INTRA.DIHEDRAL.0>
4.89803

>  <SCORE.INTRA.POLAR>
0

>  <SCORE.INTRA.POLAR.0>
0

>  <SCORE.INTRA.REPUL>
0

>  <SCORE.INTRA.REPUL.0>
0

>  <SCORE.INTRA.SOLV>
0.837053

>  <SCORE.INTRA.SOLV.lig_0>
-48.5832

>  <SCORE.INTRA.VDW>
0.604379

>  <SCORE.INTRA.VDW.0>
-2.39056

>  <SCORE.INTRA.norm>
0.00979579

>  <SCORE.RESTR>
0.171322

>  <SCORE.RESTR.CAVITY>
0.171322

>  <SCORE.RESTR.norm>
0.00634525

>  <SCORE.SYSTEM>
0

>  <SCORE.SYSTEM.CONST>
0

>  <SCORE.SYSTEM.DIHEDRAL>
0

>  <SCORE.SYSTEM.SOLV>
0

>  <SCORE.SYSTEM.norm>
0

>  <SCORE.heavy>
27

>  <SCORE.norm>
-0.416894

>  <RMSD>
4.033

$$$$
ligand
 OpenBabel11021811473D
libRbt.so/2013.1/901 2013/11/27
 27 29  0  0  0  0  0  0  0  0999 V2000
   15.7681   -5.3984  -15.6716 N   0  0  0  0  0  0  0  0  0  0  0  0
   15.9732   -6.6490  -16.4172 C   0  0  2  0  0  0  0  0  0  0  0  0
   16.7417   -6.3655  -17.7115 C   0  0  0  0  0  0  0  0  0  0  0  0
   17.2898   -7.3405  -18.2705 O   0  0  0  0  0  0  0  0  0  0  0  0
   14.6083   -7.2472  -16.7622 C   0  0  0  0  0  0  0  0  0  0  0  0
   13.7020   -6.2383  -17.4724 C   0  0  0  0  0  0  0  0  0  0  0  0
   13.0055   -4.7843  -19.8114 C   0  0  0  0  0  0  0  0  0  0  0  0
   14.4254   -5.7295  -19.1072 Se  0  0  2  0  0  0  0  0  0  0  0  0
   14.4541   -7.2332  -20.2001 C   0  0  0  0  0  0  0  0  0  0  0  0
   15.8341   -7.5399  -20.7831 C   0  0  1  0  0  0  0  0  0  0  0  0
   15.7491   -8.7682  -21.5258 O   0  0  0  0  0  0  0  0  0  0  0  0
   16.1296   -6.4705  -21.8354 C   0  0  1  0  0  0  0  0  0  0  0  0
   17.4819   -6.5947  -22.2785 O   0  0  0  0  0  0  0  0  0  0  0  0
   15.1769   -6.9365  -22.9334 C   0  0  1  0  0  0  0  0  0  0  0  0
   15.6242   -6.4111  -24.1844 O   0  0  0  0  0  0  0  0  0  0  0  0
   15.4588   -8.4391  -22.8960 C   0  0  2  0  0  0  0  0  0  0  0  0
   16.7730   -5.1799  -18.1087 O   0  0  0  0  0  0  0  0  0  0  0  0
   12.2777  -12.4309  -22.1273 N   0  0  0  0  0  0  0  0  0  0  0  0
   13.2510  -11.9861  -21.3512 C   0  0  0  0  0  0  0  0  0  0  0  0
   13.9861  -10.9401  -21.6861 N   0  0  0  0  0  0  0  0  0  0  0  0
   13.7611  -10.2882  -22.8369 C   0  0  0  0  0  0  0  0  0  0  0  0
   12.7487  -10.7268  -23.6787 C   0  0  0  0  0  0  0  0  0  0  0  0
   12.0004  -11.8327  -23.2929 C   0  0  0  0  0  0  0  0  0  0  0  0
   11.0479  -12.3059  -24.0904 N   0  0  0  0  0  0  0  0  0  0  0  0
   12.7304   -9.9260  -24.7383 N   0  0  0  0  0  0  0  0  0  0  0  0
   13.6910   -9.0196  -24.5734 C   0  0  0  0  0  0  0  0  0  0  0  0
   14.3222   -9.2332  -23.4188 N   0  0  0  0  0  0  0  0  0  0  0  0
  2  1  1  6  0  0  0
  2  5  1  0  0  0  0
  2  3  1  0  0  0  0
  3 17  1  0  0  0  0
  3  4  1  0  0  0  0
  5  6  1  0  0  0  0
  7  8  1  0  0  0  0
  8  6  1  1  0  0  0
  8  9  1  0  0  0  0
 10  9  1  6  0  0  0
 10 11  1  0  0  0  0
 10 12  1  0  0  0  0
 11 16  1  0  0  0  0
 12 13  1  6  0  0  0
 12 14  1  0  0  0  0
 14 15  1  6  0  0  0
 14 16  1  0  0  0  0
 16 27  1  1  0  0  0
 18 23  2  0  0  0  0
 18 19  1  0  0  0  0
 19 20  2  0  0  0  0
 20 21  1  0  0  0  0
 21 22  2  0  0  0  0
 21 27  1  0  0  0  0
 22 23  1  0  0  0  0
 22 25  1  0  0  0  0
 23 24  1  0  0  0  0
 25 26  2  0  0  0  0
 26 27  1  0  0  0  0
M  END
>  <CHROM.1>
52.93359207,161.90244802,63.19704142,170.68246413,-125.78643964,175.94683245
-11.54219326,14.62155052,-7.77489556,-20.70355351,1.01475211,0.94354023,1.31329467

>  <Name>
ligand

>  <RI>
0

>  <Rbt.Current_Directory>
/home/itssahil/PROJECTS/Mol_Feturizer/New_Systems/rnas/3E5F

>  <Rbt.Executable>
rbdock ($Id: //depot/dev/client3/rdock/2013.1/src/exe/rbdock.cxx#4 $)

>  <Rbt.Library>
libRbt.so (2013.1, Build901 2013/11/27)

>  <Rbt.Parameter_File>
/export/apps/rDock/src/rDock_2013.1_src/data/scripts/dock_solv.prm

>  <Rbt.Receptor>
prm/pocket_docking_4.prm

>  <SCORE>
-13.0404

>  <SCORE.INTER>
-12.5108

>  <SCORE.INTER.CONST>
1

>  <SCORE.INTER.POLAR>
0

>  <SCORE.INTER.ROT>
7

>  <SCORE.INTER.SOLV>
11.2415

>  <SCORE.INTER.VDW>
-20.3543

>  <SCORE.INTER.norm>
-0.463362

>  <SCORE.INTRA>
-0.529629

>  <SCORE.INTRA.DIHEDRAL>
0.553303

>  <SCORE.INTRA.DIHEDRAL.0>
4.89803

>  <SCORE.INTRA.POLAR>
0

>  <SCORE.INTRA.POLAR.0>
0

>  <SCORE.INTRA.REPUL>
0

>  <SCORE.INTRA.REPUL.0>
0

>  <SCORE.INTRA.SOLV>
1.0753

>  <SCORE.INTRA.SOLV.lig_0>
-48.5832

>  <SCORE.INTRA.VDW>
-1.34393

>  <SCORE.INTRA.VDW.0>
-2.39056

>  <SCORE.INTRA.norm>
-0.0196159

>  <SCORE.RESTR>
0

>  <SCORE.RESTR.CAVITY>
0

>  <SCORE.RESTR.norm>
0

>  <SCORE.SYSTEM>
0

>  <SCORE.SYSTEM.CONST>
0

>  <SCORE.SYSTEM.DIHEDRAL>
0

>  <SCORE.SYSTEM.SOLV>
0

>  <SCORE.SYSTEM.norm>
0

>  <SCORE.heavy>
27

>  <SCORE.norm>
-0.482978

>  <RMSD>
4.118

$$$$
ligand
 OpenBabel11021811473D
libRbt.so/2013.1/901 2013/11/27
 27 29  0  0  0  0  0  0  0  0999 V2000
   15.6703   -7.4684  -15.7581 N   0  0  0  0  0  0  0  0  0  0  0  0
   15.8870   -6.2625  -16.5709 C   0  0  2  0  0  0  0  0  0  0  0  0
   15.6472   -5.0103  -15.7219 C   0  0  0  0  0  0  0  0  0  0  0  0
   14.5192   -4.8893  -15.1962 O   0  0  0  0  0  0  0  0  0  0  0  0
   14.9029   -6.2735  -17.7419 C   0  0  0  0  0  0  0  0  0  0  0  0
   15.0789   -5.0548  -18.6515 C   0  0  0  0  0  0  0  0  0  0  0  0
   12.3172   -5.1702  -19.3076 C   0  0  0  0  0  0  0  0  0  0  0  0
   13.9662   -5.1663  -20.1361 Se  0  0  2  0  0  0  0  0  0  0  0  0
   14.0655   -6.9068  -20.7819 C   0  0  0  0  0  0  0  0  0  0  0  0
   15.4861   -7.3477  -21.1371 C   0  0  1  0  0  0  0  0  0  0  0  0
   15.4301   -8.6938  -21.6397 O   0  0  0  0  0  0  0  0  0  0  0  0
   15.9364   -6.5065  -22.3321 C   0  0  1  0  0  0  0  0  0  0  0  0
   17.3220   -6.7410  -22.5884 O   0  0  0  0  0  0  0  0  0  0  0  0
   15.0880   -7.1553  -23.4229 C   0  0  1  0  0  0  0  0  0  0  0  0
   15.6879   -6.8891  -24.6919 O   0  0  0  0  0  0  0  0  0  0  0  0
   15.3017   -8.6282  -23.0712 C   0  0  2  0  0  0  0  0  0  0  0  0
   16.5925   -4.1971  -15.6246 O   0  0  0  0  0  0  0  0  0  0  0  0
   12.2603  -12.6910  -22.1286 N   0  0  0  0  0  0  0  0  0  0  0  0
   13.2148  -12.1776  -21.3717 C   0  0  0  0  0  0  0  0  0  0  0  0
   13.9138  -11.1225  -21.7522 N   0  0  0  0  0  0  0  0  0  0  0  0
   13.6699  -10.5315  -22.9317 C   0  0  0  0  0  0  0  0  0  0  0  0
   12.6765  -11.0431  -23.7547 C   0  0  0  0  0  0  0  0  0  0  0  0
   11.9662  -12.1561  -23.3206 C   0  0  0  0  0  0  0  0  0  0  0  0
   11.0337  -12.6982  -24.0977 N   0  0  0  0  0  0  0  0  0  0  0  0
   12.6337  -10.2920  -24.8494 N   0  0  0  0  0  0  0  0  0  0  0  0
   13.5612   -9.3457  -24.7238 C   0  0  0  0  0  0  0  0  0  0  0  0
   14.1956   -9.4847  -23.5596 N   0  0  0  0  0  0  0  0  0  0  0  0
  2  1  1  1  0  0  0
  2  5  1  0  0  0  0
  2  3  1  0  0  0  0
  3 17  1  0  0  0  0
  3  4  1  0  0  0  0
  5  6  1  0  0  0  0
  7  8  1  0  0  0  0
  8  6  1  1  0  0  0
  8  9  1  0  0  0  0
 10  9  1  6  0  0  0
 10 11  1  0  0  0  0
 10 12  1  0  0  0  0
 11 16  1  0  0  0  0
 12 13  1  6  0  0  0
 12 14  1  0  0  0  0
 14 15  1  6  0  0  0
 14 16  1  0  0  0  0
 16 27  1  1  0  0  0
 18 23  2  0  0  0  0
 18 19  1  0  0  0  0
 19 20  2  0  0  0  0
 20 21  1  0  0  0  0
 21 22  2  0  0  0  0
 21 27  1  0  0  0  0
 22 23  1  0  0  0  0
 22 25  1  0  0  0  0
 23 24  1  0  0  0  0
 25 26  2  0  0  0  0
 26 27  1  0  0  0  0
M  END
>  <CHROM.1>
-179.17901865,-58.27374371,175.41210821,61.79963776,-57.14471941,-179.16657303
-22.65620593,14.35326897,-7.61133454,-20.80905275,0.99372905,1.13998248,1.37153303

>  <Name>
ligand

>  <RI>
0

>  <Rbt.Current_Directory>
/home/itssahil/PROJECTS/Mol_Feturizer/New_Systems/rnas/3E5F

>  <Rbt.Executable>
rbdock ($Id: //depot/dev/client3/rdock/2013.1/src/exe/rbdock.cxx#4 $)

>  <Rbt.Library>
libRbt.so (2013.1, Build901 2013/11/27)

>  <Rbt.Parameter_File>
/export/apps/rDock/src/rDock_2013.1_src/data/scripts/dock_solv.prm

>  <Rbt.Receptor>
prm/pocket_docking_4.prm

>  <SCORE>
-12.6791

>  <SCORE.INTER>
-12.8227

>  <SCORE.INTER.CONST>
1

>  <SCORE.INTER.POLAR>
0

>  <SCORE.INTER.ROT>
7

>  <SCORE.INTER.SOLV>
12.1485

>  <SCORE.INTER.VDW>
-20.8646

>  <SCORE.INTER.norm>
-0.474914

>  <SCORE.INTRA>
0.143527

>  <SCORE.INTRA.DIHEDRAL>
-1.60198

>  <SCORE.INTRA.DIHEDRAL.0>
4.89803

>  <SCORE.INTRA.POLAR>
0

>  <SCORE.INTRA.POLAR.0>
0

>  <SCORE.INTRA.REPUL>
0

>  <SCORE.INTRA.REPUL.0>
0

>  <SCORE.INTRA.SOLV>
0.0367028

>  <SCORE.INTRA.SOLV.lig_0>
-48.5832

>  <SCORE.INTRA.VDW>
0.926164

>  <SCORE.INTRA.VDW.0>
-2.39056

>  <SCORE.INTRA.norm>
0.00531581

>  <SCORE.RESTR>
0

>  <SCORE.RESTR.CAVITY>
0

>  <SCORE.RESTR.norm>
0

>  <SCORE.SYSTEM>
0

>  <SCORE.SYSTEM.CONST>
0

>  <SCORE.SYSTEM.DIHEDRAL>
0

>  <SCORE.SYSTEM.SOLV>
0

>  <SCORE.SYSTEM.norm>
0

>  <SCORE.heavy>
27

>  <SCORE.norm>
-0.469598

>  <RMSD>
4.121

$$$$
ligand
 OpenBabel11021811473D
libRbt.so/2013.1/901 2013/11/27
 27 29  0  0  0  0  0  0  0  0999 V2000
   16.1891   -5.7611  -15.4049 N   0  0  0  0  0  0  0  0  0  0  0  0
   14.7801   -5.3452  -15.3480 C   0  0  2  0  0  0  0  0  0  0  0  0
   13.9063   -6.5200  -14.8981 C   0  0  0  0  0  0  0  0  0  0  0  0
   14.3209   -7.6693  -15.1641 O   0  0  0  0  0  0  0  0  0  0  0  0
   14.3415   -4.8962  -16.7430 C   0  0  0  0  0  0  0  0  0  0  0  0
   14.4988   -6.0105  -17.7809 C   0  0  0  0  0  0  0  0  0  0  0  0
   12.1877   -5.2340  -19.2390 C   0  0  0  0  0  0  0  0  0  0  0  0
   14.0089   -5.4177  -19.4730 Se  0  0  2  0  0  0  0  0  0  0  0  0
   14.0941   -6.8751  -20.6241 C   0  0  0  0  0  0  0  0  0  0  0  0
   15.5220   -7.2973  -20.9725 C   0  0  1  0  0  0  0  0  0  0  0  0
   15.4827   -8.6336  -21.5021 O   0  0  0  0  0  0  0  0  0  0  0  0
   15.9782   -6.4289  -22.1455 C   0  0  1  0  0  0  0  0  0  0  0  0
   17.3683   -6.6470  -22.3913 O   0  0  0  0  0  0  0  0  0  0  0  0
   15.1469   -7.0628  -23.2581 C   0  0  1  0  0  0  0  0  0  0  0  0
   15.7582   -6.7665  -24.5150 O   0  0  0  0  0  0  0  0  0  0  0  0
   15.3692   -8.5405  -22.9333 C   0  0  2  0  0  0  0  0  0  0  0  0
   12.8392   -6.2442  -14.3068 O   0  0  0  0  0  0  0  0  0  0  0  0
   12.3628  -12.6553  -22.1119 N   0  0  0  0  0  0  0  0  0  0  0  0
   13.3063  -12.1507  -21.3356 C   0  0  0  0  0  0  0  0  0  0  0  0
   13.9972  -11.0798  -21.6853 N   0  0  0  0  0  0  0  0  0  0  0  0
   13.7560  -10.4630  -22.8520 C   0  0  0  0  0  0  0  0  0  0  0  0
   12.7740  -10.9646  -23.6947 C   0  0  0  0  0  0  0  0  0  0  0  0
   12.0720  -12.0950  -23.2929 C   0  0  0  0  0  0  0  0  0  0  0  0
   11.1509  -12.6275  -24.0899 N   0  0  0  0  0  0  0  0  0  0  0  0
   12.7316  -10.1879  -24.7713 N   0  0  0  0  0  0  0  0  0  0  0  0
   13.6484   -9.2356  -24.6160 C   0  0  0  0  0  0  0  0  0  0  0  0
   14.2756   -9.3962  -23.4506 N   0  0  0  0  0  0  0  0  0  0  0  0
  2  1  1  6  0  0  0
  2  5  1  0  0  0  0
  2  3  1  0  0  0  0
  3 17  1  0  0  0  0
  3  4  1  0  0  0  0
  5  6  1  0  0  0  0
  7  8  1  0  0  0  0
  8  6  1  1  0  0  0
  8  9  1  0  0  0  0
 10  9  1  6  0  0  0
 10 11  1  0  0  0  0
 10 12  1  0  0  0  0
 11 16  1  0  0  0  0
 12 13  1  6  0  0  0
 12 14  1  0  0  0  0
 14 15  1  6  0  0  0
 14 16  1  0  0  0  0
 16 27  1  1  0  0  0
 18 23  2  0  0  0  0
 18 19  1  0  0  0  0
 19 20  2  0  0  0  0
 20 21  1  0  0  0  0
 21 22  2  0  0  0  0
 21 27  1  0  0  0  0
 22 23  1  0  0  0  0
 22 25  1  0  0  0  0
 23 24  1  0  0  0  0
 25 26  2  0  0  0  0
 26 27  1  0  0  0  0
M  END
>  <CHROM.1>
59.02066106,-27.88435104,-178.21283213,-69.42492015,-73.54429047,162.43838017
-22.98325036,14.15262364,-7.74075524,-20.44652164,1.37247610,1.04113612,1.13971894

>  <Name>
ligand

>  <RI>
0

>  <Rbt.Current_Directory>
/home/itssahil/PROJECTS/Mol_Feturizer/New_Systems/rnas/3E5F

>  <Rbt.Executable>
rbdock ($Id: //depot/dev/client3/rdock/2013.1/src/exe/rbdock.cxx#4 $)

>  <Rbt.Library>
libRbt.so (2013.1, Build901 2013/11/27)

>  <Rbt.Parameter_File>
/export/apps/rDock/src/rDock_2013.1_src/data/scripts/dock_solv.prm

>  <Rbt.Receptor>
prm/pocket_docking_4.prm

>  <SCORE>
-10.0752

>  <SCORE.INTER>
-10.9974

>  <SCORE.INTER.CONST>
1

>  <SCORE.INTER.POLAR>
0

>  <SCORE.INTER.ROT>
7

>  <SCORE.INTER.SOLV>
11.3794

>  <SCORE.INTER.VDW>
-19.3914

>  <SCORE.INTER.norm>
-0.407312

>  <SCORE.INTRA>
0.922217

>  <SCORE.INTRA.DIHEDRAL>
-0.961936

>  <SCORE.INTRA.DIHEDRAL.0>
4.89803

>  <SCORE.INTRA.POLAR>
0

>  <SCORE.INTRA.POLAR.0>
0

>  <SCORE.INTRA.REPUL>
0

>  <SCORE.INTRA.REPUL.0>
0

>  <SCORE.INTRA.SOLV>
0.72828

>  <SCORE.INTRA.SOLV.lig_0>
-48.5832

>  <SCORE.INTRA.VDW>
1.03905

>  <SCORE.INTRA.VDW.0>
-2.39056

>  <SCORE.INTRA.norm>
0.0341562

>  <SCORE.RESTR>
0

>  <SCORE.RESTR.CAVITY>
0

>  <SCORE.RESTR.norm>
0

>  <SCORE.SYSTEM>
0

>  <SCORE.SYSTEM.CONST>
0

>  <SCORE.SYSTEM.DIHEDRAL>
0

>  <SCORE.SYSTEM.SOLV>
0

>  <SCORE.SYSTEM.norm>
0

>  <SCORE.heavy>
27

>  <SCORE.norm>
-0.373155

>  <RMSD>
4.205

$$$$
ligand
 OpenBabel11021811473D
libRbt.so/2013.1/901 2013/11/27
 27 29  0  0  0  0  0  0  0  0999 V2000
   16.6701   -5.8447  -15.2958 N   0  0  0  0  0  0  0  0  0  0  0  0
   15.8210   -6.9198  -15.8296 C   0  0  2  0  0  0  0  0  0  0  0  0
   16.6933   -8.0779  -16.3234 C   0  0  0  0  0  0  0  0  0  0  0  0
   16.6646   -9.1343  -15.6550 O   0  0  0  0  0  0  0  0  0  0  0  0
   15.0050   -6.3687  -17.0003 C   0  0  0  0  0  0  0  0  0  0  0  0
   13.9987   -7.3928  -17.5315 C   0  0  0  0  0  0  0  0  0  0  0  0
   12.0494   -8.1468  -19.4555 C   0  0  0  0  0  0  0  0  0  0  0  0
   12.8953   -6.6345  -18.8207 Se  0  0  2  0  0  0  0  0  0  0  0  0
   13.9637   -6.1667  -20.2684 C   0  0  0  0  0  0  0  0  0  0  0  0
   15.3375   -6.8384  -20.2577 C   0  0  1  0  0  0  0  0  0  0  0  0
   15.1465   -8.2611  -20.3417 O   0  0  0  0  0  0  0  0  0  0  0  0
   16.0357   -6.4634  -21.5654 C   0  0  1  0  0  0  0  0  0  0  0  0
   17.3934   -6.9056  -21.5278 O   0  0  0  0  0  0  0  0  0  0  0  0
   15.2319   -7.3310  -22.5306 C   0  0  1  0  0  0  0  0  0  0  0  0
   16.0033   -7.5373  -23.7154 O   0  0  0  0  0  0  0  0  0  0  0  0
   15.1915   -8.6337  -21.7306 C   0  0  2  0  0  0  0  0  0  0  0  0
   17.3767   -7.8796  -17.3520 O   0  0  0  0  0  0  0  0  0  0  0  0
   12.0048  -12.4403  -20.3165 N   0  0  0  0  0  0  0  0  0  0  0  0
   13.0009  -11.8986  -19.6369 C   0  0  0  0  0  0  0  0  0  0  0  0
   13.7341  -10.9193  -20.1371 N   0  0  0  0  0  0  0  0  0  0  0  0
   13.4837  -10.4374  -21.3638 C   0  0  0  0  0  0  0  0  0  0  0  0
   12.4469  -10.9821  -22.1085 C   0  0  0  0  0  0  0  0  0  0  0  0
   11.7015  -12.0132  -21.5489 C   0  0  0  0  0  0  0  0  0  0  0  0
   10.7255  -12.5864  -22.2462 N   0  0  0  0  0  0  0  0  0  0  0  0
   12.4065  -10.3419  -23.2716 N   0  0  0  0  0  0  0  0  0  0  0  0
   13.3770   -9.4312  -23.2627 C   0  0  0  0  0  0  0  0  0  0  0  0
   14.0366   -9.4830  -22.1053 N   0  0  0  0  0  0  0  0  0  0  0  0
  2  1  1  6  0  0  0
  2  5  1  0  0  0  0
  2  3  1  0  0  0  0
  3 17  1  0  0  0  0
  3  4  1  0  0  0  0
  5  6  1  0  0  0  0
  7  8  1  0  0  0  0
  8  6  1  1  0  0  0
  8  9  1  0  0  0  0
 10  9  1  6  0  0  0
 10 11  1  0  0  0  0
 10 12  1  0  0  0  0
 11 16  1  0  0  0  0
 12 13  1  1  0  0  0
 12 14  1  0  0  0  0
 14 15  1  6  0  0  0
 14 16  1  0  0  0  0
 16 27  1  6  0  0  0
 18 23  2  0  0  0  0
 18 19  1  0  0  0  0
 19 20  2  0  0  0  0
 20 21  1  0  0  0  0
 21 22  2  0  0  0  0
 21 27  1  0  0  0  0
 22 23  1  0  0  0  0
 22 25  1  0  0  0  0
 23 24  1  0  0  0  0
 25 26  2  0  0  0  0
 26 27  1  0  0  0  0
M  END
>  <CHROM.1>
-174.75965245,109.68546117,173.62817444,170.22078079,16.41625501,62.18284513
-38.54007715,14.21954124,-8.34777338,-19.83159827,0.83685460,0.86225142,1.50281661

>  <Name>
ligand

>  <RI>
0

>  <Rbt.Current_Directory>
/home/itssahil/PROJECTS/Mol_Feturizer/New_Systems/rnas/3E5F

>  <Rbt.Executable>
rbdock ($Id: //depot/dev/client3/rdock/2013.1/src/exe/rbdock.cxx#4 $)

>  <Rbt.Library>
libRbt.so (2013.1, Build901 2013/11/27)

>  <Rbt.Parameter_File>
/export/apps/rDock/src/rDock_2013.1_src/data/scripts/dock_solv.prm

>  <Rbt.Receptor>
prm/pocket_docking_3.prm

>  <SCORE>
-10.0207

>  <SCORE.INTER>
-9.5914

>  <SCORE.INTER.CONST>
1

>  <SCORE.INTER.POLAR>
0

>  <SCORE.INTER.ROT>
7

>  <SCORE.INTER.SOLV>
8.50467

>  <SCORE.INTER.VDW>
-17.4958

>  <SCORE.INTER.norm>
-0.355237

>  <SCORE.INTRA>
-0.429283

>  <SCORE.INTRA.DIHEDRAL>
-0.239565

>  <SCORE.INTRA.DIHEDRAL.0>
4.89803

>  <SCORE.INTRA.POLAR>
0

>  <SCORE.INTRA.POLAR.0>
0

>  <SCORE.INTRA.REPUL>
0

>  <SCORE.INTRA.REPUL.0>
0

>  <SCORE.INTRA.SOLV>
0.285918

>  <SCORE.INTRA.SOLV.lig_0>
-48.5832

>  <SCORE.INTRA.VDW>
-0.45246

>  <SCORE.INTRA.VDW.0>
-2.39056

>  <SCORE.INTRA.norm>
-0.0158994

>  <SCORE.RESTR>
0

>  <SCORE.RESTR.CAVITY>
0

>  <SCORE.RESTR.norm>
0

>  <SCORE.SYSTEM>
0

>  <SCORE.SYSTEM.CONST>
0

>  <SCORE.SYSTEM.DIHEDRAL>
0

>  <SCORE.SYSTEM.SOLV>
0

>  <SCORE.SYSTEM.norm>
0

>  <SCORE.heavy>
27

>  <SCORE.norm>
-0.371136

>  <RMSD>
4.260

$$$$
ligand
 OpenBabel11021811473D
libRbt.so/2013.1/901 2013/11/27
 27 29  0  0  0  0  0  0  0  0999 V2000
   17.5093   -6.7973  -15.0520 N   0  0  0  0  0  0  0  0  0  0  0  0
   16.7187   -6.4527  -16.2428 C   0  0  2  0  0  0  0  0  0  0  0  0
   17.6486   -6.2167  -17.4369 C   0  0  0  0  0  0  0  0  0  0  0  0
   17.3502   -5.2817  -18.2117 O   0  0  0  0  0  0  0  0  0  0  0  0
   15.9296   -5.1736  -15.9580 C   0  0  0  0  0  0  0  0  0  0  0  0
   14.5600   -5.1794  -16.6417 C   0  0  0  0  0  0  0  0  0  0  0  0
   13.1001   -4.4946  -18.9806 C   0  0  0  0  0  0  0  0  0  0  0  0
   14.7397   -5.1861  -18.4916 Se  0  0  2  0  0  0  0  0  0  0  0  0
   14.5890   -6.9487  -19.0633 C   0  0  0  0  0  0  0  0  0  0  0  0
   15.9217   -7.5739  -19.4774 C   0  0  1  0  0  0  0  0  0  0  0  0
   15.6636   -8.8926  -19.9894 O   0  0  0  0  0  0  0  0  0  0  0  0
   16.4379   -6.7850  -20.6814 C   0  0  1  0  0  0  0  0  0  0  0  0
   17.7679   -7.2024  -20.9934 O   0  0  0  0  0  0  0  0  0  0  0  0
   15.4687   -7.2966  -21.7441 C   0  0  1  0  0  0  0  0  0  0  0  0
   16.0516   -7.0966  -23.0330 O   0  0  0  0  0  0  0  0  0  0  0  0
   15.4921   -8.7897  -21.4142 C   0  0  2  0  0  0  0  0  0  0  0  0
   18.6315   -6.9811  -17.5547 O   0  0  0  0  0  0  0  0  0  0  0  0
   11.9493  -12.3986  -20.3803 N   0  0  0  0  0  0  0  0  0  0  0  0
   12.9908  -12.0287  -19.6552 C   0  0  0  0  0  0  0  0  0  0  0  0
   13.8164  -11.0777  -20.0562 N   0  0  0  0  0  0  0  0  0  0  0  0
   13.6173  -10.4492  -21.2246 C   0  0  0  0  0  0  0  0  0  0  0  0
   12.5353  -10.8115  -22.0145 C   0  0  0  0  0  0  0  0  0  0  0  0
   11.6923  -11.8186  -21.5597 C   0  0  0  0  0  0  0  0  0  0  0  0
   10.6678  -12.2198  -22.3059 N   0  0  0  0  0  0  0  0  0  0  0  0
   12.5603  -10.0530  -23.1046 N   0  0  0  0  0  0  0  0  0  0  0  0
   13.6140   -9.2456  -23.0081 C   0  0  0  0  0  0  0  0  0  0  0  0
   14.2619   -9.4805  -21.8669 N   0  0  0  0  0  0  0  0  0  0  0  0
  2  1  1  1  0  0  0
  2  5  1  0  0  0  0
  2  3  1  0  0  0  0
  3 17  1  0  0  0  0
  3  4  1  0  0  0  0
  5  6  1  0  0  0  0
  7  8  1  0  0  0  0
  8  6  1  1  0  0  0
  8  9  1  0  0  0  0
 10  9  1  6  0  0  0
 10 11  1  0  0  0  0
 10 12  1  0  0  0  0
 11 16  1  0  0  0  0
 12 13  1  6  0  0  0
 12 14  1  0  0  0  0
 14 15  1  6  0  0  0
 14 16  1  0  0  0  0
 16 27  1  1  0  0  0
 18 23  2  0  0  0  0
 18 19  1  0  0  0  0
 19 20  2  0  0  0  0
 20 21  1  0  0  0  0
 21 22  2  0  0  0  0
 21 27  1  0  0  0  0
 22 23  1  0  0  0  0
 22 25  1  0  0  0  0
 23 24  1  0  0  0  0
 25 26  2  0  0  0  0
 26 27  1  0  0  0  0
M  END
>  <CHROM.1>
-145.25020877,-140.96423509,-64.50106511,-157.43214109,-105.57423870,-175.80109877
-22.22086607,14.91027442,-7.69240836,-19.62724056,0.86167497,0.79834108,1.21881867

>  <Name>
ligand

>  <RI>
0

>  <Rbt.Current_Directory>
/home/itssahil/PROJECTS/Mol_Feturizer/New_Systems/rnas/3E5F

>  <Rbt.Executable>
rbdock ($Id: //depot/dev/client3/rdock/2013.1/src/exe/rbdock.cxx#4 $)

>  <Rbt.Library>
libRbt.so (2013.1, Build901 2013/11/27)

>  <Rbt.Parameter_File>
/export/apps/rDock/src/rDock_2013.1_src/data/scripts/dock_solv.prm

>  <Rbt.Receptor>
prm/pocket_docking_3.prm

>  <SCORE>
-9.72878

>  <SCORE.INTER>
-11.4025

>  <SCORE.INTER.CONST>
1

>  <SCORE.INTER.POLAR>
0

>  <SCORE.INTER.ROT>
7

>  <SCORE.INTER.SOLV>
7.63425

>  <SCORE.INTER.VDW>
-18.4131

>  <SCORE.INTER.norm>
-0.422315

>  <SCORE.INTRA>
1.67373

>  <SCORE.INTRA.DIHEDRAL>
4.47558

>  <SCORE.INTRA.DIHEDRAL.0>
4.89803

>  <SCORE.INTRA.POLAR>
0

>  <SCORE.INTRA.POLAR.0>
0

>  <SCORE.INTRA.REPUL>
0

>  <SCORE.INTRA.REPUL.0>
0

>  <SCORE.INTRA.SOLV>
0.41743

>  <SCORE.INTRA.SOLV.lig_0>
-48.5832

>  <SCORE.INTRA.VDW>
-0.772777

>  <SCORE.INTRA.VDW.0>
-2.39056

>  <SCORE.INTRA.norm>
0.0619899

>  <SCORE.RESTR>
0

>  <SCORE.RESTR.CAVITY>
0

>  <SCORE.RESTR.norm>
0

>  <SCORE.SYSTEM>
0

>  <SCORE.SYSTEM.CONST>
0

>  <SCORE.SYSTEM.DIHEDRAL>
0

>  <SCORE.SYSTEM.SOLV>
0

>  <SCORE.SYSTEM.norm>
0

>  <SCORE.heavy>
27

>  <SCORE.norm>
-0.360325

>  <RMSD>
4.307

$$$$
ligand
 OpenBabel11021811473D
libRbt.so/2013.1/901 2013/11/27
 27 29  0  0  0  0  0  0  0  0999 V2000
   16.9268   -7.1957  -15.5137 N   0  0  0  0  0  0  0  0  0  0  0  0
   16.3027   -7.7539  -16.7223 C   0  0  2  0  0  0  0  0  0  0  0  0
   17.1917   -7.4860  -17.9405 C   0  0  0  0  0  0  0  0  0  0  0  0
   17.2844   -8.4017  -18.7870 O   0  0  0  0  0  0  0  0  0  0  0  0
   14.9447   -7.0815  -16.9317 C   0  0  0  0  0  0  0  0  0  0  0  0
   14.0557   -7.8708  -17.8960 C   0  0  0  0  0  0  0  0  0  0  0  0
   11.7034   -7.9682  -19.4860 C   0  0  0  0  0  0  0  0  0  0  0  0
   12.9083   -6.7386  -18.8214 Se  0  0  2  0  0  0  0  0  0  0  0  0
   13.7835   -6.1964  -20.3694 C   0  0  0  0  0  0  0  0  0  0  0  0
   15.2057   -6.7448  -20.4926 C   0  0  1  0  0  0  0  0  0  0  0  0
   15.1383   -8.1812  -20.4980 O   0  0  0  0  0  0  0  0  0  0  0  0
   15.7149   -6.3756  -21.8863 C   0  0  1  0  0  0  0  0  0  0  0  0
   17.1031   -6.6957  -21.9899 O   0  0  0  0  0  0  0  0  0  0  0  0
   14.8908   -7.3564  -22.7167 C   0  0  1  0  0  0  0  0  0  0  0  0
   15.5397   -7.5532  -23.9743 O   0  0  0  0  0  0  0  0  0  0  0  0
   15.0608   -8.6166  -21.8672 C   0  0  2  0  0  0  0  0  0  0  0  0
   17.7665   -6.3765  -17.9948 O   0  0  0  0  0  0  0  0  0  0  0  0
   12.1489  -12.3363  -19.7864 N   0  0  0  0  0  0  0  0  0  0  0  0
   13.1226  -11.6373  -19.2289 C   0  0  0  0  0  0  0  0  0  0  0  0
   13.7824  -10.7068  -19.8962 N   0  0  0  0  0  0  0  0  0  0  0  0
   13.4774  -10.4382  -21.1748 C   0  0  0  0  0  0  0  0  0  0  0  0
   12.4621  -11.1528  -21.7949 C   0  0  0  0  0  0  0  0  0  0  0  0
   11.7944  -12.1258  -21.0605 C   0  0  0  0  0  0  0  0  0  0  0  0
   10.8424  -12.8574  -21.6312 N   0  0  0  0  0  0  0  0  0  0  0  0
   12.3579  -10.7058  -23.0414 N   0  0  0  0  0  0  0  0  0  0  0  0
   13.2693   -9.7493  -23.2025 C   0  0  0  0  0  0  0  0  0  0  0  0
   13.9541   -9.5806  -22.0712 N   0  0  0  0  0  0  0  0  0  0  0  0
  2  1  1  1  0  0  0
  2  5  1  0  0  0  0
  2  3  1  0  0  0  0
  3 17  1  0  0  0  0
  3  4  1  0  0  0  0
  5  6  1  0  0  0  0
  7  8  1  0  0  0  0
  8  6  1  1  0  0  0
  8  9  1  0  0  0  0
 10  9  1  6  0  0  0
 10 11  1  0  0  0  0
 10 12  1  0  0  0  0
 11 16  1  0  0  0  0
 12 13  1  1  0  0  0
 12 14  1  0  0  0  0
 14 15  1  6  0  0  0
 14 16  1  0  0  0  0
 16 27  1  1  0  0  0
 18 23  2  0  0  0  0
 18 19  1  0  0  0  0
 19 20  2  0  0  0  0
 20 21  1  0  0  0  0
 21 22  2  0  0  0  0
 21 27  1  0  0  0  0
 22 23  1  0  0  0  0
 22 25  1  0  0  0  0
 23 24  1  0  0  0  0
 25 26  2  0  0  0  0
 26 27  1  0  0  0  0
M  END
>  <CHROM.1>
-163.00276208,140.69266596,-150.00191115,-164.69699667,-2.01961674,59.89750424
-30.16360396,14.23079096,-8.37712285,-20.02689983,0.70602966,0.78395874,1.39011168

>  <Name>
ligand

>  <RI>
0

>  <Rbt.Current_Directory>
/home/itssahil/PROJECTS/Mol_Feturizer/New_Systems/rnas/3E5F

>  <Rbt.Executable>
rbdock ($Id: //depot/dev/client3/rdock/2013.1/src/exe/rbdock.cxx#4 $)

>  <Rbt.Library>
libRbt.so (2013.1, Build901 2013/11/27)

>  <Rbt.Parameter_File>
/export/apps/rDock/src/rDock_2013.1_src/data/scripts/dock_solv.prm

>  <Rbt.Receptor>
prm/pocket_docking_3.prm

>  <SCORE>
-9.00679

>  <SCORE.INTER>
-9.82918

>  <SCORE.INTER.CONST>
1

>  <SCORE.INTER.POLAR>
0

>  <SCORE.INTER.ROT>
7

>  <SCORE.INTER.SOLV>
9.92973

>  <SCORE.INTER.VDW>
-18.1294

>  <SCORE.INTER.norm>
-0.364044

>  <SCORE.INTRA>
0.820116

>  <SCORE.INTRA.DIHEDRAL>
4.74324

>  <SCORE.INTRA.DIHEDRAL.0>
4.89803

>  <SCORE.INTRA.POLAR>
0

>  <SCORE.INTRA.POLAR.0>
0

>  <SCORE.INTRA.REPUL>
0

>  <SCORE.INTRA.REPUL.0>
0

>  <SCORE.INTRA.SOLV>
0.524599

>  <SCORE.INTRA.SOLV.lig_0>
-48.5832

>  <SCORE.INTRA.VDW>
-1.8138

>  <SCORE.INTRA.VDW.0>
-2.39056

>  <SCORE.INTRA.norm>
0.0303747

>  <SCORE.RESTR>
0.00227069

>  <SCORE.RESTR.CAVITY>
0.00227069

>  <SCORE.RESTR.norm>
8.40997e-05

>  <SCORE.SYSTEM>
0

>  <SCORE.SYSTEM.CONST>
0

>  <SCORE.SYSTEM.DIHEDRAL>
0

>  <SCORE.SYSTEM.SOLV>
0

>  <SCORE.SYSTEM.norm>
0

>  <SCORE.heavy>
27

>  <SCORE.norm>
-0.333585

>  <RMSD>
4.332

$$$$
ligand
 OpenBabel11021811473D
libRbt.so/2013.1/901 2013/11/27
 27 29  0  0  0  0  0  0  0  0999 V2000
   15.4113   -7.7235  -15.7106 N   0  0  0  0  0  0  0  0  0  0  0  0
   13.9710   -7.6055  -15.9819 C   0  0  2  0  0  0  0  0  0  0  0  0
   13.2686   -8.9278  -15.6589 C   0  0  0  0  0  0  0  0  0  0  0  0
   13.9914   -9.8772  -15.2852 O   0  0  0  0  0  0  0  0  0  0  0  0
   13.7733   -7.2784  -17.4631 C   0  0  0  0  0  0  0  0  0  0  0  0
   14.3696   -5.9186  -17.8356 C   0  0  0  0  0  0  0  0  0  0  0  0
   12.1464   -5.2460  -19.4713 C   0  0  0  0  0  0  0  0  0  0  0  0
   13.9728   -5.4781  -19.5972 Se  0  0  2  0  0  0  0  0  0  0  0  0
   14.0843   -7.0371  -20.6038 C   0  0  0  0  0  0  0  0  0  0  0  0
   15.5169   -7.4297  -20.9675 C   0  0  1  0  0  0  0  0  0  0  0  0
   15.4862   -8.7220  -21.5974 O   0  0  0  0  0  0  0  0  0  0  0  0
   15.9838   -6.4742  -22.0662 C   0  0  1  0  0  0  0  0  0  0  0  0
   17.3770   -6.6711  -22.3124 O   0  0  0  0  0  0  0  0  0  0  0  0
   15.1661   -7.0228  -23.2328 C   0  0  1  0  0  0  0  0  0  0  0  0
   15.7904   -6.6312  -24.4567 O   0  0  0  0  0  0  0  0  0  0  0  0
   15.3880   -8.5207  -23.0186 C   0  0  2  0  0  0  0  0  0  0  0  0
   12.0265   -8.9640  -15.8015 O   0  0  0  0  0  0  0  0  0  0  0  0
   12.2789  -12.6049  -22.4736 N   0  0  0  0  0  0  0  0  0  0  0  0
   13.1982  -12.1469  -21.6413 C   0  0  0  0  0  0  0  0  0  0  0  0
   13.9215  -11.0772  -21.9226 N   0  0  0  0  0  0  0  0  0  0  0  0
   13.7396  -10.4139  -23.0745 C   0  0  0  0  0  0  0  0  0  0  0  0
   12.7847  -10.8658  -23.9744 C   0  0  0  0  0  0  0  0  0  0  0  0
   12.0470  -11.9965  -23.6438 C   0  0  0  0  0  0  0  0  0  0  0  0
   11.1505  -12.4821  -24.4968 N   0  0  0  0  0  0  0  0  0  0  0  0
   12.8003  -10.0497  -25.0223 N   0  0  0  0  0  0  0  0  0  0  0  0
   13.7264   -9.1213  -24.7946 C   0  0  0  0  0  0  0  0  0  0  0  0
   14.3020   -9.3360  -23.6114 N   0  0  0  0  0  0  0  0  0  0  0  0
  2  1  1  6  0  0  0
  2  5  1  0  0  0  0
  2  3  1  0  0  0  0
  3 17  1  0  0  0  0
  3  4  1  0  0  0  0
  5  6  1  0  0  0  0
  7  8  1  0  0  0  0
  8  6  1  1  0  0  0
  8  9  1  0  0  0  0
 10  9  1  6  0  0  0
 10 11  1  0  0  0  0
 10 12  1  0  0  0  0
 11 16  1  0  0  0  0
 12 13  1  6  0  0  0
 12 14  1  0  0  0  0
 14 15  1  6  0  0  0
 14 16  1  0  0  0  0
 16 27  1  1  0  0  0
 18 23  2  0  0  0  0
 18 19  1  0  0  0  0
 19 20  2  0  0  0  0
 20 21  1  0  0  0  0
 21 22  2  0  0  0  0
 21 27  1  0  0  0  0
 22 23  1  0  0  0  0
 22 25  1  0  0  0  0
 23 24  1  0  0  0  0
 25 26  2  0  0  0  0
 26 27  1  0  0  0  0
M  END
>  <CHROM.1>
-63.87452774,-2.71776612,-174.59220032,67.37435602,-79.70219746,173.10894999
-19.93057037,14.01269964,-8.18726448,-20.68971432,1.42016668,1.12863985,1.23511142

>  <Name>
ligand

>  <RI>
0

>  <Rbt.Current_Directory>
/home/itssahil/PROJECTS/Mol_Feturizer/New_Systems/rnas/3E5F

>  <Rbt.Executable>
rbdock ($Id: //depot/dev/client3/rdock/2013.1/src/exe/rbdock.cxx#4 $)

>  <Rbt.Library>
libRbt.so (2013.1, Build901 2013/11/27)

>  <Rbt.Parameter_File>
/export/apps/rDock/src/rDock_2013.1_src/data/scripts/dock_solv.prm

>  <Rbt.Receptor>
prm/pocket_docking_7.prm

>  <SCORE>
-12.1755

>  <SCORE.INTER>
-13.0432

>  <SCORE.INTER.CONST>
1

>  <SCORE.INTER.POLAR>
0

>  <SCORE.INTER.ROT>
7

>  <SCORE.INTER.SOLV>
12.7871

>  <SCORE.INTER.VDW>
-21.2245

>  <SCORE.INTER.norm>
-0.483082

>  <SCORE.INTRA>
0.867718

>  <SCORE.INTRA.DIHEDRAL>
-1.13417

>  <SCORE.INTRA.DIHEDRAL.0>
4.89803

>  <SCORE.INTRA.POLAR>
0

>  <SCORE.INTRA.POLAR.0>
0

>  <SCORE.INTRA.REPUL>
0

>  <SCORE.INTRA.REPUL.0>
0

>  <SCORE.INTRA.SOLV>
0.721051

>  <SCORE.INTRA.SOLV.lig_0>
-48.5832

>  <SCORE.INTRA.VDW>
1.07428

>  <SCORE.INTRA.VDW.0>
-2.39056

>  <SCORE.INTRA.norm>
0.0321377

>  <SCORE.RESTR>
0

>  <SCORE.RESTR.CAVITY>
0

>  <SCORE.RESTR.norm>
0

>  <SCORE.SYSTEM>
0

>  <SCORE.SYSTEM.CONST>
0

>  <SCORE.SYSTEM.DIHEDRAL>
0

>  <SCORE.SYSTEM.SOLV>
0

>  <SCORE.SYSTEM.norm>
0

>  <SCORE.heavy>
27

>  <SCORE.norm>
-0.450944

>  <RMSD>
4.343

$$$$
ligand
 OpenBabel11021811473D
libRbt.so/2013.1/901 2013/11/27
 27 29  0  0  0  0  0  0  0  0999 V2000
   17.5343   -5.8169  -15.5068 N   0  0  0  0  0  0  0  0  0  0  0  0
   16.6759   -4.6293  -15.6273 C   0  0  2  0  0  0  0  0  0  0  0  0
   17.1514   -3.5409  -14.6601 C   0  0  0  0  0  0  0  0  0  0  0  0
   18.0413   -3.8593  -13.8414 O   0  0  0  0  0  0  0  0  0  0  0  0
   15.2393   -5.0215  -15.2779 C   0  0  0  0  0  0  0  0  0  0  0  0
   14.6976   -6.1080  -16.2103 C   0  0  0  0  0  0  0  0  0  0  0  0
   12.9080   -4.8600  -18.0297 C   0  0  0  0  0  0  0  0  0  0  0  0
   14.6354   -5.5064  -17.9678 Se  0  0  2  0  0  0  0  0  0  0  0  0
   14.5166   -7.0003  -19.0680 C   0  0  0  0  0  0  0  0  0  0  0  0
   15.8672   -7.6570  -19.3563 C   0  0  1  0  0  0  0  0  0  0  0  0
   15.6270   -8.9531  -19.9310 O   0  0  0  0  0  0  0  0  0  0  0  0
   16.5320   -6.8543  -20.4752 C   0  0  1  0  0  0  0  0  0  0  0  0
   17.8750   -7.3059  -20.6563 O   0  0  0  0  0  0  0  0  0  0  0  0
   15.6675   -7.3069  -21.6493 C   0  0  1  0  0  0  0  0  0  0  0  0
   16.3906   -7.0924  -22.8627 O   0  0  0  0  0  0  0  0  0  0  0  0
   15.6120   -8.8080  -21.3624 C   0  0  2  0  0  0  0  0  0  0  0  0
   16.6089   -2.4178  -14.7533 O   0  0  0  0  0  0  0  0  0  0  0  0
   12.0050  -12.4736  -20.9179 N   0  0  0  0  0  0  0  0  0  0  0  0
   12.9917  -12.1777  -20.0893 C   0  0  0  0  0  0  0  0  0  0  0  0
   13.8437  -11.1994  -20.3419 N   0  0  0  0  0  0  0  0  0  0  0  0
   13.7289  -10.4661  -21.4594 C   0  0  0  0  0  0  0  0  0  0  0  0
   12.7065  -10.7482  -22.3544 C   0  0  0  0  0  0  0  0  0  0  0  0
   11.8333  -11.7872  -22.0549 C   0  0  0  0  0  0  0  0  0  0  0  0
   10.8651  -12.1125  -22.9059 N   0  0  0  0  0  0  0  0  0  0  0  0
   12.8095   -9.8939  -23.3663 N   0  0  0  0  0  0  0  0  0  0  0  0
   13.8534   -9.1053  -23.1215 C   0  0  0  0  0  0  0  0  0  0  0  0
   14.4177   -9.4471  -21.9630 N   0  0  0  0  0  0  0  0  0  0  0  0
  2  1  1  1  0  0  0
  2  5  1  0  0  0  0
  2  3  1  0  0  0  0
  3 17  1  0  0  0  0
  3  4  1  0  0  0  0
  5  6  1  0  0  0  0
  7  8  1  0  0  0  0
  8  6  1  1  0  0  0
  8  9  1  0  0  0  0
 10  9  1  6  0  0  0
 10 11  1  0  0  0  0
 10 12  1  0  0  0  0
 11 16  1  0  0  0  0
 12 13  1  6  0  0  0
 12 14  1  0  0  0  0
 14 15  1  6  0  0  0
 14 16  1  0  0  0  0
 16 27  1  1  0  0  0
 18 23  2  0  0  0  0
 18 19  1  0  0  0  0
 19 20  2  0  0  0  0
 20 21  1  0  0  0  0
 21 22  2  0  0  0  0
 21 27  1  0  0  0  0
 22 23  1  0  0  0  0
 22 25  1  0  0  0  0
 23 24  1  0  0  0  0
 25 26  2  0  0  0  0
 26 27  1  0  0  0  0
M  END
>  <CHROM.1>
-60.06414879,-8.14594058,-62.33401584,-92.48866889,-82.70074642,166.40165092
-26.67414982,14.86776747,-7.41718795,-19.18867167,-1.13960593,-0.64492079
-2.09186730

>  <Name>
ligand

>  <RI>
0

>  <Rbt.Current_Directory>
/home/itssahil/PROJECTS/Mol_Feturizer/New_Systems/rnas/3E5F

>  <Rbt.Executable>
rbdock ($Id: //depot/dev/client3/rdock/2013.1/src/exe/rbdock.cxx#4 $)

>  <Rbt.Library>
libRbt.so (2013.1, Build901 2013/11/27)

>  <Rbt.Parameter_File>
/export/apps/rDock/src/rDock_2013.1_src/data/scripts/dock_solv.prm

>  <Rbt.Receptor>
prm/pocket_docking_5.prm

>  <SCORE>
-10.3156

>  <SCORE.INTER>
-11.0234

>  <SCORE.INTER.CONST>
1

>  <SCORE.INTER.POLAR>
0

>  <SCORE.INTER.ROT>
7

>  <SCORE.INTER.SOLV>
9.74395

>  <SCORE.INTER.VDW>
-18.8636

>  <SCORE.INTER.norm>
-0.408274

>  <SCORE.INTRA>
0.707833

>  <SCORE.INTRA.DIHEDRAL>
-0.203568

>  <SCORE.INTRA.DIHEDRAL.0>
4.89803

>  <SCORE.INTRA.POLAR>
0

>  <SCORE.INTRA.POLAR.0>
0

>  <SCORE.INTRA.REPUL>
0

>  <SCORE.INTRA.REPUL.0>
0

>  <SCORE.INTRA.SOLV>
0.89028

>  <SCORE.INTRA.SOLV.lig_0>
-48.5832

>  <SCORE.INTRA.VDW>
0.364476

>  <SCORE.INTRA.VDW.0>
-2.39056

>  <SCORE.INTRA.norm>
0.026216

>  <SCORE.RESTR>
0

>  <SCORE.RESTR.CAVITY>
0

>  <SCORE.RESTR.norm>
0

>  <SCORE.SYSTEM>
0

>  <SCORE.SYSTEM.CONST>
0

>  <SCORE.SYSTEM.DIHEDRAL>
0

>  <SCORE.SYSTEM.SOLV>
0

>  <SCORE.SYSTEM.norm>
0

>  <SCORE.heavy>
27

>  <SCORE.norm>
-0.382058

>  <RMSD>
4.346

$$$$
ligand
 OpenBabel11021811473D
libRbt.so/2013.1/901 2013/11/27
 27 29  0  0  0  0  0  0  0  0999 V2000
   18.1203   -7.7718  -19.8533 N   0  0  0  0  0  0  0  0  0  0  0  0
   17.2312   -6.6763  -19.4393 C   0  0  2  0  0  0  0  0  0  0  0  0
   17.9798   -5.7206  -18.5054 C   0  0  0  0  0  0  0  0  0  0  0  0
   19.1913   -5.5257  -18.7461 O   0  0  0  0  0  0  0  0  0  0  0  0
   16.0310   -7.2682  -18.6983 C   0  0  0  0  0  0  0  0  0  0  0  0
   14.8753   -6.2705  -18.5877 C   0  0  0  0  0  0  0  0  0  0  0  0
   12.6531   -5.0837  -19.9006 C   0  0  0  0  0  0  0  0  0  0  0  0
   14.3728   -5.6456  -20.2645 Se  0  0  2  0  0  0  0  0  0  0  0  0
   14.0628   -7.1264  -21.3449 C   0  0  0  0  0  0  0  0  0  0  0  0
   15.3303   -7.6913  -21.9876 C   0  0  1  0  0  0  0  0  0  0  0  0
   15.1605   -9.1095  -22.1535 O   0  0  0  0  0  0  0  0  0  0  0  0
   15.4004   -7.1402  -23.4123 C   0  0  1  0  0  0  0  0  0  0  0  0
   16.6584   -7.4811  -23.9967 O   0  0  0  0  0  0  0  0  0  0  0  0
   14.2881   -7.9682  -24.0509 C   0  0  1  0  0  0  0  0  0  0  0  0
   14.4922   -8.0005  -25.4646 O   0  0  0  0  0  0  0  0  0  0  0  0
   14.6247   -9.3415  -23.4685 C   0  0  2  0  0  0  0  0  0  0  0  0
   17.3282   -5.2133  -17.5660 O   0  0  0  0  0  0  0  0  0  0  0  0
   11.7749  -12.5853  -20.6399 N   0  0  0  0  0  0  0  0  0  0  0  0
   12.8533  -11.9070  -20.2870 C   0  0  0  0  0  0  0  0  0  0  0  0
   13.4796  -11.1059  -21.1312 N   0  0  0  0  0  0  0  0  0  0  0  0
   13.0318  -10.9530  -22.3866 C   0  0  0  0  0  0  0  0  0  0  0  0
   11.9033  -11.6502  -22.7944 C   0  0  0  0  0  0  0  0  0  0  0  0
   11.2751  -12.4856  -21.8783 C   0  0  0  0  0  0  0  0  0  0  0  0
   10.2146  -13.1994  -22.2431 N   0  0  0  0  0  0  0  0  0  0  0  0
   11.6696  -11.3322  -24.0627 N   0  0  0  0  0  0  0  0  0  0  0  0
   12.6109  -10.4705  -24.4408 C   0  0  0  0  0  0  0  0  0  0  0  0
   13.4432  -10.2347  -23.4264 N   0  0  0  0  0  0  0  0  0  0  0  0
  2  1  1  1  0  0  0
  2  5  1  0  0  0  0
  2  3  1  0  0  0  0
  3 17  1  0  0  0  0
  3  4  1  0  0  0  0
  5  6  1  0  0  0  0
  7  8  1  0  0  0  0
  8  6  1  1  0  0  0
  8  9  1  0  0  0  0
 10  9  1  6  0  0  0
 10 11  1  0  0  0  0
 10 12  1  0  0  0  0
 11 16  1  0  0  0  0
 12 13  1  6  0  0  0
 12 14  1  0  0  0  0
 14 15  1  6  0  0  0
 14 16  1  0  0  0  0
 16 27  1  1  0  0  0
 18 23  2  0  0  0  0
 18 19  1  0  0  0  0
 19 20  2  0  0  0  0
 20 21  1  0  0  0  0
 21 22  2  0  0  0  0
 21 27  1  0  0  0  0
 22 23  1  0  0  0  0
 22 25  1  0  0  0  0
 23 24  1  0  0  0  0
 25 26  2  0  0  0  0
 26 27  1  0  0  0  0
M  END
>  <CHROM.1>
-163.53819173,35.92873150,55.57090820,158.16104510,-84.09928884,149.09296411
-11.78514261,14.50132748,-8.16261307,-21.30490184,0.53075761,0.89221523,1.47392618

>  <Name>
ligand

>  <RI>
0

>  <Rbt.Current_Directory>
/home/itssahil/PROJECTS/Mol_Feturizer/New_Systems/rnas/3E5F

>  <Rbt.Executable>
rbdock ($Id: //depot/dev/client3/rdock/2013.1/src/exe/rbdock.cxx#4 $)

>  <Rbt.Library>
libRbt.so (2013.1, Build901 2013/11/27)

>  <Rbt.Parameter_File>
/export/apps/rDock/src/rDock_2013.1_src/data/scripts/dock_solv.prm

>  <Rbt.Receptor>
prm/blind_docking_80.prm

>  <SCORE>
-6.25033

>  <SCORE.INTER>
-9.09525

>  <SCORE.INTER.CONST>
1

>  <SCORE.INTER.POLAR>
0

>  <SCORE.INTER.ROT>
7

>  <SCORE.INTER.SOLV>
13.9957

>  <SCORE.INTER.VDW>
-18.9954

>  <SCORE.INTER.norm>
-0.336861

>  <SCORE.INTRA>
2.77163

>  <SCORE.INTRA.DIHEDRAL>
2.43577

>  <SCORE.INTRA.DIHEDRAL.0>
4.89803

>  <SCORE.INTRA.POLAR>
0

>  <SCORE.INTRA.POLAR.0>
0

>  <SCORE.INTRA.REPUL>
0

>  <SCORE.INTRA.REPUL.0>
0

>  <SCORE.INTRA.SOLV>
1.57188

>  <SCORE.INTRA.SOLV.lig_0>
-48.5832

>  <SCORE.INTRA.VDW>
0.767807

>  <SCORE.INTRA.VDW.0>
-2.39056

>  <SCORE.INTRA.norm>
0.102653

>  <SCORE.RESTR>
0.0732836

>  <SCORE.RESTR.CAVITY>
0.0732836

>  <SCORE.RESTR.norm>
0.00271421

>  <SCORE.SYSTEM>
0

>  <SCORE.SYSTEM.CONST>
0

>  <SCORE.SYSTEM.DIHEDRAL>
0

>  <SCORE.SYSTEM.SOLV>
0

>  <SCORE.SYSTEM.norm>
0

>  <SCORE.heavy>
27

>  <SCORE.norm>
-0.231494

>  <RMSD>
4.364

$$$$
ligand
 OpenBabel11021811473D
libRbt.so/2013.1/901 2013/11/27
 27 29  0  0  0  0  0  0  0  0999 V2000
   12.4715   -7.6706  -16.4125 N   0  0  0  0  0  0  0  0  0  0  0  0
   12.8752   -6.9938  -17.6539 C   0  0  2  0  0  0  0  0  0  0  0  0
   14.3907   -6.7714  -17.6585 C   0  0  0  0  0  0  0  0  0  0  0  0
   14.8100   -5.7140  -17.1392 O   0  0  0  0  0  0  0  0  0  0  0  0
   12.1668   -5.6402  -17.7306 C   0  0  0  0  0  0  0  0  0  0  0  0
   12.2953   -5.0025  -19.1163 C   0  0  0  0  0  0  0  0  0  0  0  0
   14.0270   -3.8134  -21.0288 C   0  0  0  0  0  0  0  0  0  0  0  0
   14.0324   -5.1533  -19.7598 Se  0  0  2  0  0  0  0  0  0  0  0  0
   14.1064   -6.6766  -20.8230 C   0  0  0  0  0  0  0  0  0  0  0  0
   15.5293   -7.1720  -21.0844 C   0  0  1  0  0  0  0  0  0  0  0  0
   15.4557   -8.5201  -21.5793 O   0  0  0  0  0  0  0  0  0  0  0  0
   16.0844   -6.3595  -22.2549 C   0  0  1  0  0  0  0  0  0  0  0  0
   17.4738   -6.6464  -22.4214 O   0  0  0  0  0  0  0  0  0  0  0  0
   15.2830   -6.9879  -23.3921 C   0  0  1  0  0  0  0  0  0  0  0  0
   15.9708   -6.7560  -24.6227 O   0  0  0  0  0  0  0  0  0  0  0  0
   15.4200   -8.4639  -23.0165 C   0  0  2  0  0  0  0  0  0  0  0  0
   15.0961   -7.6576  -18.1889 O   0  0  0  0  0  0  0  0  0  0  0  0
   12.3112  -12.5258  -22.3229 N   0  0  0  0  0  0  0  0  0  0  0  0
   13.2533  -12.0577  -21.5224 C   0  0  0  0  0  0  0  0  0  0  0  0
   13.9730  -10.9957  -21.8402 N   0  0  0  0  0  0  0  0  0  0  0  0
   13.7639  -10.3512  -22.9981 C   0  0  0  0  0  0  0  0  0  0  0  0
   12.7844  -10.8142  -23.8654 C   0  0  0  0  0  0  0  0  0  0  0  0
   12.0515  -11.9362  -23.4969 C   0  0  0  0  0  0  0  0  0  0  0  0
   11.1315  -12.4324  -24.3182 N   0  0  0  0  0  0  0  0  0  0  0  0
   12.7760  -10.0158  -24.9269 N   0  0  0  0  0  0  0  0  0  0  0  0
   13.7110   -9.0875  -24.7388 C   0  0  0  0  0  0  0  0  0  0  0  0
   14.3161   -9.2847  -23.5673 N   0  0  0  0  0  0  0  0  0  0  0  0
  2  1  1  1  0  0  0
  2  5  1  0  0  0  0
  2  3  1  0  0  0  0
  3 17  1  0  0  0  0
  3  4  1  0  0  0  0
  5  6  1  0  0  0  0
  7  8  1  0  0  0  0
  8  6  1  6  0  0  0
  8  9  1  0  0  0  0
 10  9  1  6  0  0  0
 10 11  1  0  0  0  0
 10 12  1  0  0  0  0
 11 16  1  0  0  0  0
 12 13  1  6  0  0  0
 12 14  1  0  0  0  0
 14 15  1  6  0  0  0
 14 16  1  0  0  0  0
 16 27  1  1  0  0  0
 18 23  2  0  0  0  0
 18 19  1  0  0  0  0
 19 20  2  0  0  0  0
 20 21  1  0  0  0  0
 21 22  2  0  0  0  0
 21 27  1  0  0  0  0
 22 23  1  0  0  0  0
 22 25  1  0  0  0  0
 23 24  1  0  0  0  0
 25 26  2  0  0  0  0
 26 27  1  0  0  0  0
M  END
>  <CHROM.1>
-167.92803402,-88.36430553,-44.09973754,-159.61688806,-162.74755429,164.19803881
-26.66980880,14.03751272,-7.67140722,-21.10331374,1.39941852,0.95296753,0.89037083

>  <Name>
ligand

>  <RI>
0

>  <Rbt.Current_Directory>
/home/itssahil/PROJECTS/Mol_Feturizer/New_Systems/rnas/3E5F

>  <Rbt.Executable>
rbdock ($Id: //depot/dev/client3/rdock/2013.1/src/exe/rbdock.cxx#4 $)

>  <Rbt.Library>
libRbt.so (2013.1, Build901 2013/11/27)

>  <Rbt.Parameter_File>
/export/apps/rDock/src/rDock_2013.1_src/data/scripts/dock_solv.prm

>  <Rbt.Receptor>
prm/blind_docking_100.prm

>  <SCORE>
-12.663

>  <SCORE.INTER>
-13.3941

>  <SCORE.INTER.CONST>
1

>  <SCORE.INTER.POLAR>
0

>  <SCORE.INTER.ROT>
7

>  <SCORE.INTER.SOLV>
12.1559

>  <SCORE.INTER.VDW>
-21.2481

>  <SCORE.INTER.norm>
-0.496079

>  <SCORE.INTRA>
0.718148

>  <SCORE.INTRA.DIHEDRAL>
2.07861

>  <SCORE.INTRA.DIHEDRAL.0>
4.89803

>  <SCORE.INTRA.POLAR>
0

>  <SCORE.INTRA.POLAR.0>
0

>  <SCORE.INTRA.REPUL>
0

>  <SCORE.INTRA.REPUL.0>
0

>  <SCORE.INTRA.SOLV>
0.142944

>  <SCORE.INTRA.SOLV.lig_0>
-48.5832

>  <SCORE.INTRA.VDW>
-0.392627

>  <SCORE.INTRA.VDW.0>
-2.39056

>  <SCORE.INTRA.norm>
0.0265981

>  <SCORE.RESTR>
0.0129964

>  <SCORE.RESTR.CAVITY>
0.0129964

>  <SCORE.RESTR.norm>
0.000481349

>  <SCORE.SYSTEM>
0

>  <SCORE.SYSTEM.CONST>
0

>  <SCORE.SYSTEM.DIHEDRAL>
0

>  <SCORE.SYSTEM.SOLV>
0

>  <SCORE.SYSTEM.norm>
0

>  <SCORE.heavy>
27

>  <SCORE.norm>
-0.468999

>  <RMSD>
4.396

$$$$
ligand
 OpenBabel11021811473D
libRbt.so/2013.1/901 2013/11/27
 27 29  0  0  0  0  0  0  0  0999 V2000
   17.7726   -6.4589  -16.7359 N   0  0  0  0  0  0  0  0  0  0  0  0
   16.6182   -7.1022  -17.3804 C   0  0  2  0  0  0  0  0  0  0  0  0
   16.0219   -8.1606  -16.4474 C   0  0  0  0  0  0  0  0  0  0  0  0
   14.7750   -8.2066  -16.3658 O   0  0  0  0  0  0  0  0  0  0  0  0
   17.0859   -7.7750  -18.6721 C   0  0  0  0  0  0  0  0  0  0  0  0
   15.9209   -8.3828  -19.4575 C   0  0  0  0  0  0  0  0  0  0  0  0
   13.0964   -8.1833  -19.6868 C   0  0  0  0  0  0  0  0  0  0  0  0
   14.5988   -7.1154  -19.7743 Se  0  0  2  0  0  0  0  0  0  0  0  0
   14.6518   -6.6898  -21.5832 C   0  0  0  0  0  0  0  0  0  0  0  0
   15.8047   -7.3560  -22.3352 C   0  0  1  0  0  0  0  0  0  0  0  0
   15.5801   -8.7763  -22.3424 O   0  0  0  0  0  0  0  0  0  0  0  0
   15.6909   -6.9383  -23.8018 C   0  0  1  0  0  0  0  0  0  0  0  0
   16.8478   -7.3760  -24.5161 O   0  0  0  0  0  0  0  0  0  0  0  0
   14.4817   -7.7793  -24.2035 C   0  0  1  0  0  0  0  0  0  0  0  0
   14.4881   -7.9461  -25.6224 O   0  0  0  0  0  0  0  0  0  0  0  0
   14.8627   -9.1060  -23.5452 C   0  0  2  0  0  0  0  0  0  0  0  0
   16.8246   -8.8939  -15.8291 O   0  0  0  0  0  0  0  0  0  0  0  0
   12.5405  -12.2877  -20.2093 N   0  0  0  0  0  0  0  0  0  0  0  0
   13.7002  -11.6647  -20.0893 C   0  0  0  0  0  0  0  0  0  0  0  0
   14.1668  -10.8724  -21.0386 N   0  0  0  0  0  0  0  0  0  0  0  0
   13.4666  -10.6716  -22.1652 C   0  0  0  0  0  0  0  0  0  0  0  0
   12.2452  -11.3100  -22.3282 C   0  0  0  0  0  0  0  0  0  0  0  0
   11.7906  -12.1383  -21.3087 C   0  0  0  0  0  0  0  0  0  0  0  0
   10.6440  -12.7971  -21.4446 N   0  0  0  0  0  0  0  0  0  0  0  0
   11.7587  -10.9533  -23.5116 N   0  0  0  0  0  0  0  0  0  0  0  0
   12.6358  -10.1246  -24.0732 C   0  0  0  0  0  0  0  0  0  0  0  0
   13.6774   -9.9481  -23.2600 N   0  0  0  0  0  0  0  0  0  0  0  0
  2  1  1  1  0  0  0
  2  5  1  0  0  0  0
  2  3  1  0  0  0  0
  3 17  1  0  0  0  0
  3  4  1  0  0  0  0
  5  6  1  0  0  0  0
  7  8  1  0  0  0  0
  8  6  1  6  0  0  0
  8  9  1  0  0  0  0
 10  9  1  1  0  0  0
 10 11  1  0  0  0  0
 10 12  1  0  0  0  0
 11 16  1  0  0  0  0
 12 13  1  6  0  0  0
 12 14  1  0  0  0  0
 14 15  1  6  0  0  0
 14 16  1  0  0  0  0
 16 27  1  1  0  0  0
 18 23  2  0  0  0  0
 18 19  1  0  0  0  0
 19 20  2  0  0  0  0
 20 21  1  0  0  0  0
 21 22  2  0  0  0  0
 21 27  1  0  0  0  0
 22 23  1  0  0  0  0
 22 25  1  0  0  0  0
 23 24  1  0  0  0  0
 25 26  2  0  0  0  0
 26 27  1  0  0  0  0
M  END
>  <CHROM.1>
-175.82697215,137.30439656,54.07617020,-145.99332401,-5.09369313,66.14761028
-19.66624728,14.56830927,-8.73435891,-20.82048970,-0.84854488,-0.88389183
-1.40170695

>  <Name>
ligand

>  <RI>
0

>  <Rbt.Current_Directory>
/home/itssahil/PROJECTS/Mol_Feturizer/New_Systems/rnas/3E5F

>  <Rbt.Executable>
rbdock ($Id: //depot/dev/client3/rdock/2013.1/src/exe/rbdock.cxx#4 $)

>  <Rbt.Library>
libRbt.so (2013.1, Build901 2013/11/27)

>  <Rbt.Parameter_File>
/export/apps/rDock/src/rDock_2013.1_src/data/scripts/dock_solv.prm

>  <Rbt.Receptor>
prm/pocket_docking_3.prm

>  <SCORE>
-8.61419

>  <SCORE.INTER>
-9.29055

>  <SCORE.INTER.CONST>
1

>  <SCORE.INTER.POLAR>
0

>  <SCORE.INTER.ROT>
7

>  <SCORE.INTER.SOLV>
15.0501

>  <SCORE.INTER.VDW>
-19.4771

>  <SCORE.INTER.norm>
-0.344094

>  <SCORE.INTRA>
0.203377

>  <SCORE.INTRA.DIHEDRAL>
2.32608

>  <SCORE.INTRA.DIHEDRAL.0>
4.89803

>  <SCORE.INTRA.POLAR>
0

>  <SCORE.INTRA.POLAR.0>
0

>  <SCORE.INTRA.REPUL>
0

>  <SCORE.INTRA.REPUL.0>
0

>  <SCORE.INTRA.SOLV>
0.276658

>  <SCORE.INTRA.SOLV.lig_0>
-48.5832

>  <SCORE.INTRA.VDW>
-1.09799

>  <SCORE.INTRA.VDW.0>
-2.39056

>  <SCORE.INTRA.norm>
0.00753247

>  <SCORE.RESTR>
0.472976

>  <SCORE.RESTR.CAVITY>
0.472976

>  <SCORE.RESTR.norm>
0.0175176

>  <SCORE.SYSTEM>
0

>  <SCORE.SYSTEM.CONST>
0

>  <SCORE.SYSTEM.DIHEDRAL>
0

>  <SCORE.SYSTEM.SOLV>
0

>  <SCORE.SYSTEM.norm>
0

>  <SCORE.heavy>
27

>  <SCORE.norm>
-0.319044

>  <RMSD>
4.399

$$$$
ligand
 OpenBabel11021811473D
libRbt.so/2013.1/901 2013/11/27
 27 29  0  0  0  0  0  0  0  0999 V2000
   15.3805   -6.6574  -15.6941 N   0  0  0  0  0  0  0  0  0  0  0  0
   15.6917   -6.8993  -17.1106 C   0  0  2  0  0  0  0  0  0  0  0  0
   17.0517   -7.5929  -17.2355 C   0  0  0  0  0  0  0  0  0  0  0  0
   17.5315   -8.0916  -16.1940 O   0  0  0  0  0  0  0  0  0  0  0  0
   15.7419   -5.5562  -17.8410 C   0  0  0  0  0  0  0  0  0  0  0  0
   14.3583   -4.9107  -17.9520 C   0  0  0  0  0  0  0  0  0  0  0  0
   11.7602   -5.3528  -19.0126 C   0  0  0  0  0  0  0  0  0  0  0  0
   13.5270   -5.3883  -19.5444 Se  0  0  2  0  0  0  0  0  0  0  0  0
   13.8058   -7.2087  -19.7985 C   0  0  0  0  0  0  0  0  0  0  0  0
   15.1504   -7.5371  -20.4488 C   0  0  1  0  0  0  0  0  0  0  0  0
   15.2826   -8.9673  -20.5180 O   0  0  0  0  0  0  0  0  0  0  0  0
   15.0713   -7.0843  -21.9072 C   0  0  1  0  0  0  0  0  0  0  0  0
   16.3603   -7.1922  -22.5132 O   0  0  0  0  0  0  0  0  0  0  0  0
   14.1471   -8.1705  -22.4518 C   0  0  1  0  0  0  0  0  0  0  0  0
   14.3232   -8.2575  -23.8670 O   0  0  0  0  0  0  0  0  0  0  0  0
   14.7805   -9.3980  -21.7957 C   0  0  2  0  0  0  0  0  0  0  0  0
   17.5865   -7.6013  -18.3661 O   0  0  0  0  0  0  0  0  0  0  0  0
   10.4867  -11.1210  -19.5068 N   0  0  0  0  0  0  0  0  0  0  0  0
   11.0849   -9.9501  -19.3709 C   0  0  0  0  0  0  0  0  0  0  0  0
   12.1894   -9.6511  -20.0323 N   0  0  0  0  0  0  0  0  0  0  0  0
   12.7413  -10.5374  -20.8748 C   0  0  0  0  0  0  0  0  0  0  0  0
   12.1427  -11.7782  -21.0425 C   0  0  0  0  0  0  0  0  0  0  0  0
   10.9845  -12.0560  -20.3262 C   0  0  0  0  0  0  0  0  0  0  0  0
   10.4039  -13.2473  -20.4308 N   0  0  0  0  0  0  0  0  0  0  0  0
   12.8731  -12.4633  -21.9152 N   0  0  0  0  0  0  0  0  0  0  0  0
   13.8907  -11.6884  -22.2833 C   0  0  0  0  0  0  0  0  0  0  0  0
   13.8171  -10.5150  -21.6548 N   0  0  0  0  0  0  0  0  0  0  0  0
  2  1  1  1  0  0  0
  2  5  1  0  0  0  0
  2  3  1  0  0  0  0
  3 17  1  0  0  0  0
  3  4  1  0  0  0  0
  5  6  1  0  0  0  0
  7  8  1  0  0  0  0
  8  6  1  1  0  0  0
  8  9  1  0  0  0  0
 10  9  1  1  0  0  0
 10 11  1  0  0  0  0
 10 12  1  0  0  0  0
 11 16  1  0  0  0  0
 12 13  1  6  0  0  0
 12 14  1  0  0  0  0
 14 15  1  6  0  0  0
 14 16  1  0  0  0  0
 16 27  1  1  0  0  0
 18 23  2  0  0  0  0
 18 19  1  0  0  0  0
 19 20  2  0  0  0  0
 20 21  1  0  0  0  0
 21 22  2  0  0  0  0
 21 27  1  0  0  0  0
 22 23  1  0  0  0  0
 22 25  1  0  0  0  0
 23 24  1  0  0  0  0
 25 26  2  0  0  0  0
 26 27  1  0  0  0  0
M  END
>  <CHROM.1>
-69.17906578,14.79086894,-92.28456168,149.19227100,-83.78995380,176.58583052
52.73038406,13.99729786,-8.14145386,-19.91288358,0.73308652,0.92347998,1.23449782

>  <Name>
ligand

>  <RI>
0

>  <Rbt.Current_Directory>
/home/itssahil/PROJECTS/Mol_Feturizer/New_Systems/rnas/3E5F

>  <Rbt.Executable>
rbdock ($Id: //depot/dev/client3/rdock/2013.1/src/exe/rbdock.cxx#4 $)

>  <Rbt.Library>
libRbt.so (2013.1, Build901 2013/11/27)

>  <Rbt.Parameter_File>
/export/apps/rDock/src/rDock_2013.1_src/data/scripts/dock_solv.prm

>  <Rbt.Receptor>
prm/pocket_docking_2.prm

>  <SCORE>
-2.9923

>  <SCORE.INTER>
-4.60203

>  <SCORE.INTER.CONST>
1

>  <SCORE.INTER.POLAR>
0

>  <SCORE.INTER.ROT>
7

>  <SCORE.INTER.SOLV>
9.93198

>  <SCORE.INTER.VDW>
-14.6453

>  <SCORE.INTER.norm>
-0.170445

>  <SCORE.INTRA>
1.32179

>  <SCORE.INTRA.DIHEDRAL>
2.66096

>  <SCORE.INTRA.DIHEDRAL.0>
4.89803

>  <SCORE.INTRA.POLAR>
0

>  <SCORE.INTRA.POLAR.0>
0

>  <SCORE.INTRA.REPUL>
0

>  <SCORE.INTRA.REPUL.0>
0

>  <SCORE.INTRA.SOLV>
1.03433

>  <SCORE.INTRA.SOLV.lig_0>
-48.5832

>  <SCORE.INTRA.VDW>
-0.525854

>  <SCORE.INTRA.VDW.0>
-2.39056

>  <SCORE.INTRA.norm>
0.0489553

>  <SCORE.RESTR>
0.287934

>  <SCORE.RESTR.CAVITY>
0.287934

>  <SCORE.RESTR.norm>
0.0106642

>  <SCORE.SYSTEM>
0

>  <SCORE.SYSTEM.CONST>
0

>  <SCORE.SYSTEM.DIHEDRAL>
0

>  <SCORE.SYSTEM.SOLV>
0

>  <SCORE.SYSTEM.norm>
0

>  <SCORE.heavy>
27

>  <SCORE.norm>
-0.110826

>  <RMSD>
4.410

$$$$
ligand
 OpenBabel11021811473D
libRbt.so/2013.1/901 2013/11/27
 27 29  0  0  0  0  0  0  0  0999 V2000
   16.0529   -7.8221  -15.8331 N   0  0  0  0  0  0  0  0  0  0  0  0
   16.0276   -6.5167  -16.5092 C   0  0  2  0  0  0  0  0  0  0  0  0
   15.0766   -5.5666  -15.7750 C   0  0  0  0  0  0  0  0  0  0  0  0
   13.9284   -5.9945  -15.5258 O   0  0  0  0  0  0  0  0  0  0  0  0
   15.5349   -6.7137  -17.9439 C   0  0  0  0  0  0  0  0  0  0  0  0
   15.6052   -5.4193  -18.7582 C   0  0  0  0  0  0  0  0  0  0  0  0
   12.8190   -5.1810  -19.2587 C   0  0  0  0  0  0  0  0  0  0  0  0
   14.3990   -5.4560  -20.1717 Se  0  0  2  0  0  0  0  0  0  0  0  0
   14.2185   -7.2265  -20.7091 C   0  0  0  0  0  0  0  0  0  0  0  0
   15.3551   -7.7117  -21.6098 C   0  0  1  0  0  0  0  0  0  0  0  0
   15.3943   -9.1481  -21.5553 O   0  0  0  0  0  0  0  0  0  0  0  0
   14.9602   -7.3894  -23.0515 C   0  0  1  0  0  0  0  0  0  0  0  0
   16.0644   -7.6475  -23.9201 O   0  0  0  0  0  0  0  0  0  0  0  0
   13.8801   -8.4493  -23.2531 C   0  0  1  0  0  0  0  0  0  0  0  0
   13.7156   -8.6780  -24.6538 O   0  0  0  0  0  0  0  0  0  0  0  0
   14.5860   -9.6553  -22.6321 C   0  0  2  0  0  0  0  0  0  0  0  0
   15.5141   -4.4308  -15.4873 O   0  0  0  0  0  0  0  0  0  0  0  0
   10.6812  -10.7518  -19.4390 N   0  0  0  0  0  0  0  0  0  0  0  0
   11.3281   -9.6095  -19.5947 C   0  0  0  0  0  0  0  0  0  0  0  0
   12.3161   -9.4811  -20.4630 N   0  0  0  0  0  0  0  0  0  0  0  0
   12.6946  -10.5189  -21.2244 C   0  0  0  0  0  0  0  0  0  0  0  0
   12.0401  -11.7350  -21.0881 C   0  0  0  0  0  0  0  0  0  0  0  0
   11.0087  -11.8308  -20.1613 C   0  0  0  0  0  0  0  0  0  0  0  0
   10.3839  -12.9893  -19.9747 N   0  0  0  0  0  0  0  0  0  0  0  0
   12.5954  -12.5892  -21.9404 N   0  0  0  0  0  0  0  0  0  0  0  0
   13.5604  -11.9405  -22.5879 C   0  0  0  0  0  0  0  0  0  0  0  0
   13.6266  -10.6803  -22.1580 N   0  0  0  0  0  0  0  0  0  0  0  0
  2  1  1  1  0  0  0
  2  5  1  0  0  0  0
  2  3  1  0  0  0  0
  3 17  1  0  0  0  0
  3  4  1  0  0  0  0
  5  6  1  0  0  0  0
  7  8  1  0  0  0  0
  8  6  1  1  0  0  0
  8  9  1  0  0  0  0
 10  9  1  1  0  0  0
 10 11  1  0  0  0  0
 10 12  1  0  0  0  0
 11 16  1  0  0  0  0
 12 13  1  6  0  0  0
 12 14  1  0  0  0  0
 14 15  1  6  0  0  0
 14 16  1  0  0  0  0
 16 27  1  1  0  0  0
 18 23  2  0  0  0  0
 18 19  1  0  0  0  0
 19 20  2  0  0  0  0
 20 21  1  0  0  0  0
 21 22  2  0  0  0  0
 21 27  1  0  0  0  0
 22 23  1  0  0  0  0
 22 25  1  0  0  0  0
 23 24  1  0  0  0  0
 25 26  2  0  0  0  0
 26 27  1  0  0  0  0
M  END
>  <CHROM.1>
-174.58954033,-50.39016687,-155.98069598,74.88117029,-80.18779526,158.94109984
58.23632755,13.95625803,-8.02169472,-20.18005424,0.93013973,1.00658008,1.25095368

>  <Name>
ligand

>  <RI>
0

>  <Rbt.Current_Directory>
/home/itssahil/PROJECTS/Mol_Feturizer/New_Systems/rnas/3E5F

>  <Rbt.Executable>
rbdock ($Id: //depot/dev/client3/rdock/2013.1/src/exe/rbdock.cxx#4 $)

>  <Rbt.Library>
libRbt.so (2013.1, Build901 2013/11/27)

>  <Rbt.Parameter_File>
/export/apps/rDock/src/rDock_2013.1_src/data/scripts/dock_solv.prm

>  <Rbt.Receptor>
prm/pocket_docking_2.prm

>  <SCORE>
-0.236244

>  <SCORE.INTER>
-1.44351

>  <SCORE.INTER.CONST>
1

>  <SCORE.INTER.POLAR>
0

>  <SCORE.INTER.ROT>
7

>  <SCORE.INTER.SOLV>
11.8273

>  <SCORE.INTER.VDW>
-13.1714

>  <SCORE.INTER.norm>
-0.0534633

>  <SCORE.INTRA>
1.17681

>  <SCORE.INTRA.DIHEDRAL>
2.30125

>  <SCORE.INTRA.DIHEDRAL.0>
4.89803

>  <SCORE.INTRA.POLAR>
0

>  <SCORE.INTRA.POLAR.0>
0

>  <SCORE.INTRA.REPUL>
0

>  <SCORE.INTRA.REPUL.0>
0

>  <SCORE.INTRA.SOLV>
-0.0473311

>  <SCORE.INTRA.SOLV.lig_0>
-48.5832

>  <SCORE.INTRA.VDW>
0.0498503

>  <SCORE.INTRA.VDW.0>
-2.39056

>  <SCORE.INTRA.norm>
0.0435855

>  <SCORE.RESTR>
0.0304561

>  <SCORE.RESTR.CAVITY>
0.0304561

>  <SCORE.RESTR.norm>
0.00112801

>  <SCORE.SYSTEM>
0

>  <SCORE.SYSTEM.CONST>
0

>  <SCORE.SYSTEM.DIHEDRAL>
0

>  <SCORE.SYSTEM.SOLV>
0

>  <SCORE.SYSTEM.norm>
0

>  <SCORE.heavy>
27

>  <SCORE.norm>
-0.00874979

>  <RMSD>
4.422

$$$$
ligand
 OpenBabel11021811473D
libRbt.so/2013.1/901 2013/11/27
 27 29  0  0  0  0  0  0  0  0999 V2000
   16.3887   -6.0183  -15.0118 N   0  0  0  0  0  0  0  0  0  0  0  0
   16.3414   -4.6140  -15.4448 C   0  0  2  0  0  0  0  0  0  0  0  0
   17.2131   -3.7541  -14.5246 C   0  0  0  0  0  0  0  0  0  0  0  0
   17.0546   -2.5154  -14.5885 O   0  0  0  0  0  0  0  0  0  0  0  0
   14.8944   -4.1236  -15.3715 C   0  0  0  0  0  0  0  0  0  0  0  0
   13.9945   -4.8355  -16.3848 C   0  0  0  0  0  0  0  0  0  0  0  0
   13.0452   -4.3637  -19.0204 C   0  0  0  0  0  0  0  0  0  0  0  0
   14.6343   -4.6117  -18.1155 Se  0  0  2  0  0  0  0  0  0  0  0  0
   15.1638   -6.2815  -18.7379 C   0  0  0  0  0  0  0  0  0  0  0  0
   16.5332   -6.2750  -19.4186 C   0  0  1  0  0  0  0  0  0  0  0  0
   16.7154   -7.5379  -20.0816 O   0  0  0  0  0  0  0  0  0  0  0  0
   16.4720   -5.2486  -20.5504 C   0  0  1  0  0  0  0  0  0  0  0  0
   17.7773   -5.0623  -21.0997 O   0  0  0  0  0  0  0  0  0  0  0  0
   15.5978   -6.0208  -21.5353 C   0  0  1  0  0  0  0  0  0  0  0  0
   15.8089   -5.4962  -22.8473 O   0  0  0  0  0  0  0  0  0  0  0  0
   16.2574   -7.3971  -21.4382 C   0  0  2  0  0  0  0  0  0  0  0  0
   18.0250   -4.3521  -13.7846 O   0  0  0  0  0  0  0  0  0  0  0  0
   13.5300   -9.6165  -25.2171 N   0  0  0  0  0  0  0  0  0  0  0  0
   14.3257   -8.5626  -25.2790 C   0  0  0  0  0  0  0  0  0  0  0  0
   14.9642   -8.1085  -24.2148 N   0  0  0  0  0  0  0  0  0  0  0  0
   14.8247   -8.7134  -23.0254 C   0  0  0  0  0  0  0  0  0  0  0  0
   13.9962   -9.8219  -22.9208 C   0  0  0  0  0  0  0  0  0  0  0  0
   13.3391  -10.2665  -24.0620 C   0  0  0  0  0  0  0  0  0  0  0  0
   12.5073  -11.3013  -23.9935 N   0  0  0  0  0  0  0  0  0  0  0  0
   14.0268  -10.2300  -21.6571 N   0  0  0  0  0  0  0  0  0  0  0  0
   14.8400   -9.4137  -20.9910 C   0  0  0  0  0  0  0  0  0  0  0  0
   15.3295   -8.4886  -21.8167 N   0  0  0  0  0  0  0  0  0  0  0  0
  2  1  1  1  0  0  0
  2  5  1  0  0  0  0
  2  3  1  0  0  0  0
  3 17  1  0  0  0  0
  3  4  1  0  0  0  0
  5  6  1  0  0  0  0
  7  8  1  0  0  0  0
  8  6  1  1  0  0  0
  8  9  1  0  0  0  0
 10  9  1  6  0  0  0
 10 11  1  0  0  0  0
 10 12  1  0  0  0  0
 11 16  1  0  0  0  0
 12 13  1  6  0  0  0
 12 14  1  0  0  0  0
 14 15  1  6  0  0  0
 14 16  1  0  0  0  0
 16 27  1  1  0  0  0
 18 23  2  0  0  0  0
 18 19  1  0  0  0  0
 19 20  2  0  0  0  0
 20 21  1  0  0  0  0
 21 22  2  0  0  0  0
 21 27  1  0  0  0  0
 22 23  1  0  0  0  0
 22 25  1  0  0  0  0
 23 24  1  0  0  0  0
 25 26  2  0  0  0  0
 26 27  1  0  0  0  0
M  END
>  <CHROM.1>
-66.39275378,-165.35517719,-57.42422357,-140.10385405,-133.59347141,-168.82487379
-173.71550619,15.25649168,-6.37519057,-19.67332894,1.27917918,0.82875095
1.21827509

>  <Name>
ligand

>  <RI>
0

>  <Rbt.Current_Directory>
/home/itssahil/PROJECTS/Mol_Feturizer/New_Systems/rnas/3E5F

>  <Rbt.Executable>
rbdock ($Id: //depot/dev/client3/rdock/2013.1/src/exe/rbdock.cxx#4 $)

>  <Rbt.Library>
libRbt.so (2013.1, Build901 2013/11/27)

>  <Rbt.Parameter_File>
/export/apps/rDock/src/rDock_2013.1_src/data/scripts/dock_solv.prm

>  <Rbt.Receptor>
prm/pocket_docking_5.prm

>  <SCORE>
-12.0766

>  <SCORE.INTER>
-14.0723

>  <SCORE.INTER.CONST>
1

>  <SCORE.INTER.POLAR>
0

>  <SCORE.INTER.ROT>
7

>  <SCORE.INTER.SOLV>
9.72492

>  <SCORE.INTER.VDW>
-20.8899

>  <SCORE.INTER.norm>
-0.521198

>  <SCORE.INTRA>
1.99578

>  <SCORE.INTRA.DIHEDRAL>
2.80781

>  <SCORE.INTRA.DIHEDRAL.0>
4.89803

>  <SCORE.INTRA.POLAR>
0

>  <SCORE.INTRA.POLAR.0>
0

>  <SCORE.INTRA.REPUL>
0

>  <SCORE.INTRA.REPUL.0>
0

>  <SCORE.INTRA.SOLV>
1.5737

>  <SCORE.INTRA.SOLV.lig_0>
-48.5832

>  <SCORE.INTRA.VDW>
-0.19498

>  <SCORE.INTRA.VDW.0>
-2.39056

>  <SCORE.INTRA.norm>
0.0739176

>  <SCORE.RESTR>
0

>  <SCORE.RESTR.CAVITY>
0

>  <SCORE.RESTR.norm>
0

>  <SCORE.SYSTEM>
0

>  <SCORE.SYSTEM.CONST>
0

>  <SCORE.SYSTEM.DIHEDRAL>
0

>  <SCORE.SYSTEM.SOLV>
0

>  <SCORE.SYSTEM.norm>
0

>  <SCORE.heavy>
27

>  <SCORE.norm>
-0.44728

>  <RMSD>
4.422

$$$$
ligand
 OpenBabel11021811473D
libRbt.so/2013.1/901 2013/11/27
 27 29  0  0  0  0  0  0  0  0999 V2000
   14.6307   -8.7181  -15.7888 N   0  0  0  0  0  0  0  0  0  0  0  0
   15.4988   -7.7669  -16.4983 C   0  0  2  0  0  0  0  0  0  0  0  0
   16.6067   -7.2729  -15.5630 C   0  0  0  0  0  0  0  0  0  0  0  0
   16.8408   -7.9636  -14.5472 O   0  0  0  0  0  0  0  0  0  0  0  0
   14.6555   -6.5749  -16.9544 C   0  0  0  0  0  0  0  0  0  0  0  0
   13.6544   -6.9634  -18.0454 C   0  0  0  0  0  0  0  0  0  0  0  0
   11.4718   -6.3023  -19.7394 C   0  0  0  0  0  0  0  0  0  0  0  0
   12.6901   -5.4827  -18.6216 Se  0  0  2  0  0  0  0  0  0  0  0  0
   13.7523   -4.5599  -19.8367 C   0  0  0  0  0  0  0  0  0  0  0  0
   15.2470   -4.6318  -19.5212 C   0  0  1  0  0  0  0  0  0  0  0  0
   15.6855   -5.9877  -19.7129 O   0  0  0  0  0  0  0  0  0  0  0  0
   15.9772   -3.8321  -20.6008 C   0  0  1  0  0  0  0  0  0  0  0  0
   17.3568   -3.7056  -20.2529 O   0  0  0  0  0  0  0  0  0  0  0  0
   15.8218   -4.8003  -21.7709 C   0  0  1  0  0  0  0  0  0  0  0  0
   16.8331   -4.5174  -22.7396 O   0  0  0  0  0  0  0  0  0  0  0  0
   16.1636   -6.1127  -21.0642 C   0  0  2  0  0  0  0  0  0  0  0  0
   17.1886   -6.2116  -15.8781 O   0  0  0  0  0  0  0  0  0  0  0  0
   14.9076   -8.2952  -25.5702 N   0  0  0  0  0  0  0  0  0  0  0  0
   15.4935   -7.1311  -25.3485 C   0  0  0  0  0  0  0  0  0  0  0  0
   15.7543   -6.7042  -24.1253 N   0  0  0  0  0  0  0  0  0  0  0  0
   15.4308   -7.4508  -23.0585 C   0  0  0  0  0  0  0  0  0  0  0  0
   14.8127   -8.6783  -23.2513 C   0  0  0  0  0  0  0  0  0  0  0  0
   14.5519   -9.0902  -24.5529 C   0  0  0  0  0  0  0  0  0  0  0  0
   13.9266  -10.2418  -24.7764 N   0  0  0  0  0  0  0  0  0  0  0  0
   14.5977   -9.2136  -22.0548 N   0  0  0  0  0  0  0  0  0  0  0  0
   15.0601   -8.3602  -21.1441 C   0  0  0  0  0  0  0  0  0  0  0  0
   15.5687   -7.2855  -21.7470 N   0  0  0  0  0  0  0  0  0  0  0  0
  2  1  1  1  0  0  0
  2  5  1  0  0  0  0
  2  3  1  0  0  0  0
  3 17  1  0  0  0  0
  3  4  1  0  0  0  0
  5  6  1  0  0  0  0
  7  8  1  0  0  0  0
  8  6  1  6  0  0  0
  8  9  1  0  0  0  0
 10  9  1  6  0  0  0
 10 11  1  0  0  0  0
 10 12  1  0  0  0  0
 11 16  1  0  0  0  0
 12 13  1  1  0  0  0
 12 14  1  0  0  0  0
 14 15  1  6  0  0  0
 14 16  1  0  0  0  0
 16 27  1  6  0  0  0
 18 23  2  0  0  0  0
 18 19  1  0  0  0  0
 19 20  2  0  0  0  0
 20 21  1  0  0  0  0
 21 22  2  0  0  0  0
 21 27  1  0  0  0  0
 22 23  1  0  0  0  0
 22 25  1  0  0  0  0
 23 24  1  0  0  0  0
 25 26  2  0  0  0  0
 26 27  1  0  0  0  0
M  END
>  <CHROM.1>
-68.08920083,18.76401140,-177.90354770,-173.40049089,-33.42510719,67.51168655
156.25411021,14.83762946,-6.56832999,-20.11422829,1.60522977,1.14174088,1.38151179

>  <Name>
ligand

>  <RI>
0

>  <Rbt.Current_Directory>
/home/itssahil/PROJECTS/Mol_Feturizer/New_Systems/rnas/3E5F

>  <Rbt.Executable>
rbdock ($Id: //depot/dev/client3/rdock/2013.1/src/exe/rbdock.cxx#4 $)

>  <Rbt.Library>
libRbt.so (2013.1, Build901 2013/11/27)

>  <Rbt.Parameter_File>
/export/apps/rDock/src/rDock_2013.1_src/data/scripts/dock_solv.prm

>  <Rbt.Receptor>
prm/pocket_docking_5.prm

>  <SCORE>
-10.5516

>  <SCORE.INTER>
-11.8927

>  <SCORE.INTER.CONST>
1

>  <SCORE.INTER.POLAR>
0

>  <SCORE.INTER.ROT>
7

>  <SCORE.INTER.SOLV>
15.9363

>  <SCORE.INTER.VDW>
-21.5073

>  <SCORE.INTER.norm>
-0.440472

>  <SCORE.INTRA>
1.34115

>  <SCORE.INTRA.DIHEDRAL>
0.206469

>  <SCORE.INTRA.DIHEDRAL.0>
4.89803

>  <SCORE.INTRA.POLAR>
0

>  <SCORE.INTRA.POLAR.0>
0

>  <SCORE.INTRA.REPUL>
0

>  <SCORE.INTRA.REPUL.0>
0

>  <SCORE.INTRA.SOLV>
1.14579

>  <SCORE.INTRA.SOLV.lig_0>
-48.5832

>  <SCORE.INTRA.VDW>
0.665015

>  <SCORE.INTRA.VDW.0>
-2.39056

>  <SCORE.INTRA.norm>
0.0496721

>  <SCORE.RESTR>
0

>  <SCORE.RESTR.CAVITY>
0

>  <SCORE.RESTR.norm>
0

>  <SCORE.SYSTEM>
0

>  <SCORE.SYSTEM.CONST>
0

>  <SCORE.SYSTEM.DIHEDRAL>
0

>  <SCORE.SYSTEM.SOLV>
0

>  <SCORE.SYSTEM.norm>
0

>  <SCORE.heavy>
27

>  <SCORE.norm>
-0.3908

>  <RMSD>
4.441

$$$$
ligand
 OpenBabel11021811473D
libRbt.so/2013.1/901 2013/11/27
 27 29  0  0  0  0  0  0  0  0999 V2000
   17.5757   -8.0413  -14.5772 N   0  0  0  0  0  0  0  0  0  0  0  0
   16.6543   -7.4352  -15.5496 C   0  0  2  0  0  0  0  0  0  0  0  0
   16.3596   -5.9845  -15.1560 C   0  0  0  0  0  0  0  0  0  0  0  0
   16.8713   -5.0899  -15.8641 O   0  0  0  0  0  0  0  0  0  0  0  0
   15.3482   -8.2314  -15.5542 C   0  0  0  0  0  0  0  0  0  0  0  0
   14.4487   -7.8526  -16.7335 C   0  0  0  0  0  0  0  0  0  0  0  0
   12.3295   -5.9865  -17.0449 C   0  0  0  0  0  0  0  0  0  0  0  0
   14.1562   -6.0179  -16.7849 Se  0  0  2  0  0  0  0  0  0  0  0  0
   14.7790   -5.3964  -18.4226 C   0  0  0  0  0  0  0  0  0  0  0  0
   16.2644   -5.6735  -18.6578 C   0  0  1  0  0  0  0  0  0  0  0  0
   16.4219   -7.0702  -18.9614 O   0  0  0  0  0  0  0  0  0  0  0  0
   16.6624   -4.9500  -19.9447 C   0  0  1  0  0  0  0  0  0  0  0  0
   18.0793   -5.0161  -20.1133 O   0  0  0  0  0  0  0  0  0  0  0  0
   15.9741   -5.8586  -20.9603 C   0  0  1  0  0  0  0  0  0  0  0  0
   16.6029   -5.6871  -22.2316 O   0  0  0  0  0  0  0  0  0  0  0  0
   16.3673   -7.2224  -20.3911 C   0  0  2  0  0  0  0  0  0  0  0  0
   15.6378   -5.8011  -14.1512 O   0  0  0  0  0  0  0  0  0  0  0  0
   13.9200   -9.5772  -24.2783 N   0  0  0  0  0  0  0  0  0  0  0  0
   14.7816   -8.5758  -24.3276 C   0  0  0  0  0  0  0  0  0  0  0  0
   15.3317   -8.0758  -23.2348 N   0  0  0  0  0  0  0  0  0  0  0  0
   15.0306   -8.5784  -22.0279 C   0  0  0  0  0  0  0  0  0  0  0  0
   14.1286   -9.6291  -21.9360 C   0  0  0  0  0  0  0  0  0  0  0  0
   13.5689  -10.1247  -23.1077 C   0  0  0  0  0  0  0  0  0  0  0  0
   12.6720  -11.1046  -23.0572 N   0  0  0  0  0  0  0  0  0  0  0  0
   14.0008   -9.9392  -20.6507 N   0  0  0  0  0  0  0  0  0  0  0  0
   14.7884   -9.1188  -19.9593 C   0  0  0  0  0  0  0  0  0  0  0  0
   15.4184   -8.2882  -20.7903 N   0  0  0  0  0  0  0  0  0  0  0  0
  2  1  1  1  0  0  0
  2  5  1  0  0  0  0
  2  3  1  0  0  0  0
  3 17  1  0  0  0  0
  3  4  1  0  0  0  0
  5  6  1  0  0  0  0
  7  8  1  0  0  0  0
  8  6  1  6  0  0  0
  8  9  1  0  0  0  0
 10  9  1  6  0  0  0
 10 11  1  0  0  0  0
 10 12  1  0  0  0  0
 11 16  1  0  0  0  0
 12 13  1  6  0  0  0
 12 14  1  0  0  0  0
 14 15  1  6  0  0  0
 14 16  1  0  0  0  0
 16 27  1  1  0  0  0
 18 23  2  0  0  0  0
 18 19  1  0  0  0  0
 19 20  2  0  0  0  0
 20 21  1  0  0  0  0
 21 22  2  0  0  0  0
 21 27  1  0  0  0  0
 22 23  1  0  0  0  0
 22 25  1  0  0  0  0
 23 24  1  0  0  0  0
 25 26  2  0  0  0  0
 26 27  1  0  0  0  0
M  END
>  <CHROM.1>
-168.14905251,107.96005364,-53.58979636,-133.37905007,-59.13545040,74.80270781
172.21676082,15.19195131,-7.14872261,-18.95840983,1.37733914,0.81195734,1.33600648

>  <Name>
ligand

>  <RI>
0

>  <Rbt.Current_Directory>
/home/itssahil/PROJECTS/Mol_Feturizer/New_Systems/rnas/3E5F

>  <Rbt.Executable>
rbdock ($Id: //depot/dev/client3/rdock/2013.1/src/exe/rbdock.cxx#4 $)

>  <Rbt.Library>
libRbt.so (2013.1, Build901 2013/11/27)

>  <Rbt.Parameter_File>
/export/apps/rDock/src/rDock_2013.1_src/data/scripts/dock_solv.prm

>  <Rbt.Receptor>
prm/pocket_docking_3.prm

>  <SCORE>
-9.74677

>  <SCORE.INTER>
-8.8066

>  <SCORE.INTER.CONST>
1

>  <SCORE.INTER.POLAR>
0

>  <SCORE.INTER.ROT>
7

>  <SCORE.INTER.SOLV>
6.08228

>  <SCORE.INTER.VDW>
-16.1652

>  <SCORE.INTER.norm>
-0.32617

>  <SCORE.INTRA>
-0.956432

>  <SCORE.INTRA.DIHEDRAL>
1.78841

>  <SCORE.INTRA.DIHEDRAL.0>
4.89803

>  <SCORE.INTRA.POLAR>
0

>  <SCORE.INTRA.POLAR.0>
0

>  <SCORE.INTRA.REPUL>
0

>  <SCORE.INTRA.REPUL.0>
0

>  <SCORE.INTRA.SOLV>
0.486622

>  <SCORE.INTRA.SOLV.lig_0>
-48.5832

>  <SCORE.INTRA.VDW>
-2.09395

>  <SCORE.INTRA.VDW.0>
-2.39056

>  <SCORE.INTRA.norm>
-0.0354234

>  <SCORE.RESTR>
0.016264

>  <SCORE.RESTR.CAVITY>
0.016264

>  <SCORE.RESTR.norm>
0.00060237

>  <SCORE.SYSTEM>
0

>  <SCORE.SYSTEM.CONST>
0

>  <SCORE.SYSTEM.DIHEDRAL>
0

>  <SCORE.SYSTEM.SOLV>
0

>  <SCORE.SYSTEM.norm>
0

>  <SCORE.heavy>
27

>  <SCORE.norm>
-0.360991

>  <RMSD>
4.450

$$$$
ligand
 OpenBabel11021811473D
libRbt.so/2013.1/901 2013/11/27
 27 29  0  0  0  0  0  0  0  0999 V2000
   15.7947   -6.8224  -15.2405 N   0  0  0  0  0  0  0  0  0  0  0  0
   16.1360   -7.4060  -16.5461 C   0  0  2  0  0  0  0  0  0  0  0  0
   17.5991   -7.8591  -16.5494 C   0  0  0  0  0  0  0  0  0  0  0  0
   18.0117   -8.4506  -15.5278 O   0  0  0  0  0  0  0  0  0  0  0  0
   15.9348   -6.3443  -17.6288 C   0  0  0  0  0  0  0  0  0  0  0  0
   15.7854   -6.9642  -19.0205 C   0  0  0  0  0  0  0  0  0  0  0  0
   13.7882   -5.0274  -19.5950 C   0  0  0  0  0  0  0  0  0  0  0  0
   15.3752   -5.6667  -20.2865 Se  0  0  2  0  0  0  0  0  0  0  0  0
   14.7909   -6.5428  -21.8185 C   0  0  0  0  0  0  0  0  0  0  0  0
   15.9051   -7.2751  -22.5674 C   0  0  1  0  0  0  0  0  0  0  0  0
   15.6591   -8.6888  -22.4760 O   0  0  0  0  0  0  0  0  0  0  0  0
   15.7434   -6.9489  -24.0526 C   0  0  1  0  0  0  0  0  0  0  0  0
   16.8665   -7.4508  -24.7787 O   0  0  0  0  0  0  0  0  0  0  0  0
   14.5077   -7.7925  -24.3562 C   0  0  1  0  0  0  0  0  0  0  0  0
   14.4592   -8.0488  -25.7609 O   0  0  0  0  0  0  0  0  0  0  0  0
   14.8929   -9.0814  -23.6288 C   0  0  2  0  0  0  0  0  0  0  0  0
   18.2758   -7.5964  -17.5679 O   0  0  0  0  0  0  0  0  0  0  0  0
   12.5288  -11.7836  -19.9202 N   0  0  0  0  0  0  0  0  0  0  0  0
   13.6839  -11.1428  -19.8697 C   0  0  0  0  0  0  0  0  0  0  0  0
   14.1629  -10.4870  -20.9124 N   0  0  0  0  0  0  0  0  0  0  0  0
   13.4805  -10.4489  -22.0668 C   0  0  0  0  0  0  0  0  0  0  0  0
   12.2645  -11.1114  -22.1587 C   0  0  0  0  0  0  0  0  0  0  0  0
   11.7966  -11.7930  -21.0414 C   0  0  0  0  0  0  0  0  0  0  0  0
   10.6551  -12.4715  -21.1024 N   0  0  0  0  0  0  0  0  0  0  0  0
   11.7961  -10.9255  -23.3877 N   0  0  0  0  0  0  0  0  0  0  0  0
   12.6791  -10.1774  -24.0451 C   0  0  0  0  0  0  0  0  0  0  0  0
   13.7064   -9.8832  -23.2480 N   0  0  0  0  0  0  0  0  0  0  0  0
  2  1  1  1  0  0  0
  2  5  1  0  0  0  0
  2  3  1  0  0  0  0
  3 17  1  0  0  0  0
  3  4  1  0  0  0  0
  5  6  1  0  0  0  0
  7  8  1  0  0  0  0
  8  6  1  1  0  0  0
  8  9  1  0  0  0  0
 10  9  1  1  0  0  0
 10 11  1  0  0  0  0
 10 12  1  0  0  0  0
 11 16  1  0  0  0  0
 12 13  1  6  0  0  0
 12 14  1  0  0  0  0
 14 15  1  6  0  0  0
 14 16  1  0  0  0  0
 16 27  1  1  0  0  0
 18 23  2  0  0  0  0
 18 19  1  0  0  0  0
 19 20  2  0  0  0  0
 20 21  1  0  0  0  0
 21 22  2  0  0  0  0
 21 27  1  0  0  0  0
 22 23  1  0  0  0  0
 22 25  1  0  0  0  0
 23 24  1  0  0  0  0
 25 26  2  0  0  0  0
 26 27  1  0  0  0  0
M  END
>  <CHROM.1>
-159.97869562,42.70399535,174.37488861,-59.95442068,-71.15548300,112.91799571
-14.23880760,14.84516571,-8.16703433,-20.82376126,0.67114948,0.96807068,1.85583558

>  <Name>
ligand

>  <RI>
0

>  <Rbt.Current_Directory>
/home/itssahil/PROJECTS/Mol_Feturizer/New_Systems/rnas/3E5F

>  <Rbt.Executable>
rbdock ($Id: //depot/dev/client3/rdock/2013.1/src/exe/rbdock.cxx#4 $)

>  <Rbt.Library>
libRbt.so (2013.1, Build901 2013/11/27)

>  <Rbt.Parameter_File>
/export/apps/rDock/src/rDock_2013.1_src/data/scripts/dock_solv.prm

>  <Rbt.Receptor>
prm/pocket_docking_2.prm

>  <SCORE>
-2.59791

>  <SCORE.INTER>
-7.89092

>  <SCORE.INTER.CONST>
1

>  <SCORE.INTER.POLAR>
0

>  <SCORE.INTER.ROT>
7

>  <SCORE.INTER.SOLV>
11.8735

>  <SCORE.INTER.VDW>
-17.4851

>  <SCORE.INTER.norm>
-0.292256

>  <SCORE.INTRA>
4.3813

>  <SCORE.INTRA.DIHEDRAL>
4.59246

>  <SCORE.INTRA.DIHEDRAL.0>
4.89803

>  <SCORE.INTRA.POLAR>
0

>  <SCORE.INTRA.POLAR.0>
0

>  <SCORE.INTRA.REPUL>
0

>  <SCORE.INTRA.REPUL.0>
0

>  <SCORE.INTRA.SOLV>
0.0820485

>  <SCORE.INTRA.SOLV.lig_0>
-48.5832

>  <SCORE.INTRA.VDW>
2.04405

>  <SCORE.INTRA.VDW.0>
-2.39056

>  <SCORE.INTRA.norm>
0.16227

>  <SCORE.RESTR>
0.911703

>  <SCORE.RESTR.CAVITY>
0.911703

>  <SCORE.RESTR.norm>
0.0337668

>  <SCORE.SYSTEM>
0

>  <SCORE.SYSTEM.CONST>
0

>  <SCORE.SYSTEM.DIHEDRAL>
0

>  <SCORE.SYSTEM.SOLV>
0

>  <SCORE.SYSTEM.norm>
0

>  <SCORE.heavy>
27

>  <SCORE.norm>
-0.096219

>  <RMSD>
4.500

$$$$
ligand
 OpenBabel11021811473D
libRbt.so/2013.1/901 2013/11/27
 27 29  0  0  0  0  0  0  0  0999 V2000
   17.4753   -5.8841  -15.5628 N   0  0  0  0  0  0  0  0  0  0  0  0
   16.6452   -4.6746  -15.6615 C   0  0  2  0  0  0  0  0  0  0  0  0
   17.1149   -3.6339  -14.6404 C   0  0  0  0  0  0  0  0  0  0  0  0
   17.9305   -4.0178  -13.7739 O   0  0  0  0  0  0  0  0  0  0  0  0
   15.1914   -5.0487  -15.3676 C   0  0  0  0  0  0  0  0  0  0  0  0
   14.6129   -5.9849  -16.4317 C   0  0  0  0  0  0  0  0  0  0  0  0
   12.7226   -5.1601  -18.3854 C   0  0  0  0  0  0  0  0  0  0  0  0
   14.5441   -5.1467  -18.0892 Se  0  0  2  0  0  0  0  0  0  0  0  0
   15.1397   -6.3664  -19.3595 C   0  0  0  0  0  0  0  0  0  0  0  0
   16.6508   -6.3214  -19.5900 C   0  0  1  0  0  0  0  0  0  0  0  0
   16.9776   -7.2541  -20.6345 O   0  0  0  0  0  0  0  0  0  0  0  0
   16.9787   -4.9491  -20.1796 C   0  0  1  0  0  0  0  0  0  0  0  0
   18.3957   -4.7791  -20.2392 O   0  0  0  0  0  0  0  0  0  0  0  0
   16.4181   -5.1456  -21.5859 C   0  0  1  0  0  0  0  0  0  0  0  0
   17.0406   -4.2069  -22.4648 O   0  0  0  0  0  0  0  0  0  0  0  0
   16.9622   -6.5431  -21.8852 C   0  0  2  0  0  0  0  0  0  0  0  0
   16.6417   -2.4806  -14.7420 O   0  0  0  0  0  0  0  0  0  0  0  0
   13.4725  -10.2308  -22.8167 N   0  0  0  0  0  0  0  0  0  0  0  0
   13.9879   -9.8514  -21.6600 C   0  0  0  0  0  0  0  0  0  0  0  0
   14.8805   -8.8800  -21.5802 N   0  0  0  0  0  0  0  0  0  0  0  0
   15.2926   -8.2396  -22.6847 C   0  0  0  0  0  0  0  0  0  0  0  0
   14.7752   -8.6112  -23.9177 C   0  0  0  0  0  0  0  0  0  0  0  0
   13.8415   -9.6399  -23.9603 C   0  0  0  0  0  0  0  0  0  0  0  0
   13.3522  -10.0500  -25.1263 N   0  0  0  0  0  0  0  0  0  0  0  0
   15.3369   -7.8377  -24.8401 N   0  0  0  0  0  0  0  0  0  0  0  0
   16.1743   -7.0123  -24.2164 C   0  0  0  0  0  0  0  0  0  0  0  0
   16.1526   -7.2506  -22.9049 N   0  0  0  0  0  0  0  0  0  0  0  0
  2  1  1  1  0  0  0
  2  5  1  0  0  0  0
  2  3  1  0  0  0  0
  3 17  1  0  0  0  0
  3  4  1  0  0  0  0
  5  6  1  0  0  0  0
  7  8  1  0  0  0  0
  8  6  1  1  0  0  0
  8  9  1  0  0  0  0
 10  9  1  6  0  0  0
 10 11  1  0  0  0  0
 10 12  1  0  0  0  0
 11 16  1  0  0  0  0
 12 13  1  6  0  0  0
 12 14  1  0  0  0  0
 14 15  1  6  0  0  0
 14 16  1  0  0  0  0
 16 27  1  6  0  0  0
 18 23  2  0  0  0  0
 18 19  1  0  0  0  0
 19 20  2  0  0  0  0
 20 21  1  0  0  0  0
 21 22  2  0  0  0  0
 21 27  1  0  0  0  0
 22 23  1  0  0  0  0
 22 25  1  0  0  0  0
 23 24  1  0  0  0  0
 25 26  2  0  0  0  0
 26 27  1  0  0  0  0
M  END
>  <CHROM.1>
-65.48474998,-11.17443859,-63.89989786,-117.60476899,-89.37244210,-177.09826117
14.42631578,15.58787534,-6.21620472,-19.70044072,-1.37533556,-0.61941262
-1.95104822

>  <Name>
ligand

>  <RI>
0

>  <Rbt.Current_Directory>
/home/itssahil/PROJECTS/Mol_Feturizer/New_Systems/rnas/3E5F

>  <Rbt.Executable>
rbdock ($Id: //depot/dev/client3/rdock/2013.1/src/exe/rbdock.cxx#4 $)

>  <Rbt.Library>
libRbt.so (2013.1, Build901 2013/11/27)

>  <Rbt.Parameter_File>
/export/apps/rDock/src/rDock_2013.1_src/data/scripts/dock_solv.prm

>  <Rbt.Receptor>
prm/pocket_docking_5.prm

>  <SCORE>
-11.6099

>  <SCORE.INTER>
-12.156

>  <SCORE.INTER.CONST>
1

>  <SCORE.INTER.POLAR>
0

>  <SCORE.INTER.ROT>
7

>  <SCORE.INTER.SOLV>
17.7897

>  <SCORE.INTER.VDW>
-22.3006

>  <SCORE.INTER.norm>
-0.450223

>  <SCORE.INTRA>
0.546158

>  <SCORE.INTRA.DIHEDRAL>
1.02035

>  <SCORE.INTRA.DIHEDRAL.0>
4.89803

>  <SCORE.INTRA.POLAR>
0

>  <SCORE.INTRA.POLAR.0>
0

>  <SCORE.INTRA.REPUL>
0

>  <SCORE.INTRA.REPUL.0>
0

>  <SCORE.INTRA.SOLV>
1.28395

>  <SCORE.INTRA.SOLV.lig_0>
-48.5832

>  <SCORE.INTRA.VDW>
-0.605994

>  <SCORE.INTRA.VDW.0>
-2.39056

>  <SCORE.INTRA.norm>
0.0202281

>  <SCORE.RESTR>
0

>  <SCORE.RESTR.CAVITY>
0

>  <SCORE.RESTR.norm>
0

>  <SCORE.SYSTEM>
0

>  <SCORE.SYSTEM.CONST>
0

>  <SCORE.SYSTEM.DIHEDRAL>
0

>  <SCORE.SYSTEM.SOLV>
0

>  <SCORE.SYSTEM.norm>
0

>  <SCORE.heavy>
27

>  <SCORE.norm>
-0.429995

>  <RMSD>
4.541

$$$$
ligand
 OpenBabel11021811473D
libRbt.so/2013.1/901 2013/11/27
 27 29  0  0  0  0  0  0  0  0999 V2000
   18.5363   -6.8327  -16.7072 N   0  0  0  0  0  0  0  0  0  0  0  0
   17.0752   -6.8164  -16.8706 C   0  0  2  0  0  0  0  0  0  0  0  0
   16.6382   -7.9700  -17.7785 C   0  0  0  0  0  0  0  0  0  0  0  0
   17.5045   -8.4501  -18.5419 O   0  0  0  0  0  0  0  0  0  0  0  0
   16.6651   -5.4887  -17.5100 C   0  0  0  0  0  0  0  0  0  0  0  0
   15.1514   -5.3949  -17.7185 C   0  0  0  0  0  0  0  0  0  0  0  0
   13.0031   -3.9617  -18.9021 C   0  0  0  0  0  0  0  0  0  0  0  0
   14.7501   -4.4369  -19.2598 Se  0  0  2  0  0  0  0  0  0  0  0  0
   14.5303   -5.6623  -20.6404 C   0  0  0  0  0  0  0  0  0  0  0  0
   15.8360   -6.3203  -21.0885 C   0  0  1  0  0  0  0  0  0  0  0  0
   15.8622   -7.6658  -20.5820 O   0  0  0  0  0  0  0  0  0  0  0  0
   15.7654   -6.4795  -22.6077 C   0  0  1  0  0  0  0  0  0  0  0  0
   17.0326   -6.9141  -23.1035 O   0  0  0  0  0  0  0  0  0  0  0  0
   14.7552   -7.6212  -22.6883 C   0  0  1  0  0  0  0  0  0  0  0  0
   14.9004   -8.2759  -23.9498 O   0  0  0  0  0  0  0  0  0  0  0  0
   15.3083   -8.5303  -21.5899 C   0  0  2  0  0  0  0  0  0  0  0  0
   15.4464   -8.3406  -17.6970 O   0  0  0  0  0  0  0  0  0  0  0  0
   12.3314  -12.6788  -22.3465 N   0  0  0  0  0  0  0  0  0  0  0  0
   13.2321  -12.1472  -23.1550 C   0  0  0  0  0  0  0  0  0  0  0  0
   13.9238  -11.0730  -22.8169 N   0  0  0  0  0  0  0  0  0  0  0  0
   13.7323  -10.4847  -21.6265 C   0  0  0  0  0  0  0  0  0  0  0  0
   12.7938  -11.0131  -20.7513 C   0  0  0  0  0  0  0  0  0  0  0  0
   12.0839  -12.1414  -21.1451 C   0  0  0  0  0  0  0  0  0  0  0  0
   11.1495  -12.6537  -20.3504 N   0  0  0  0  0  0  0  0  0  0  0  0
   12.7927  -10.2589  -19.6580 N   0  0  0  0  0  0  0  0  0  0  0  0
   13.6923   -9.2941  -19.8347 C   0  0  0  0  0  0  0  0  0  0  0  0
   14.2684   -9.4250  -21.0298 N   0  0  0  0  0  0  0  0  0  0  0  0
  2  1  1  6  0  0  0
  2  5  1  0  0  0  0
  2  3  1  0  0  0  0
  3 17  1  0  0  0  0
  3  4  1  0  0  0  0
  5  6  1  0  0  0  0
  7  8  1  0  0  0  0
  8  6  1  1  0  0  0
  8  9  1  0  0  0  0
 10  9  1  1  0  0  0
 10 11  1  0  0  0  0
 10 12  1  0  0  0  0
 11 16  1  0  0  0  0
 12 13  1  1  0  0  0
 12 14  1  0  0  0  0
 14 15  1  6  0  0  0
 14 16  1  0  0  0  0
 16 27  1  1  0  0  0
 18 23  2  0  0  0  0
 18 19  1  0  0  0  0
 19 20  2  0  0  0  0
 20 21  1  0  0  0  0
 21 22  2  0  0  0  0
 21 27  1  0  0  0  0
 22 23  1  0  0  0  0
 22 25  1  0  0  0  0
 23 24  1  0  0  0  0
 25 26  2  0  0  0  0
 26 27  1  0  0  0  0
M  END
>  <CHROM.1>
179.82562441,-21.52434519,-146.00632893,-159.74612513,-71.03804511,105.12866729
-167.56788281,14.81186000,-7.73108755,-20.19312465,-0.16981029,1.19824085
2.24086300

>  <Name>
ligand

>  <RI>
0

>  <Rbt.Current_Directory>
/home/itssahil/PROJECTS/Mol_Feturizer/New_Systems/rnas/3E5F

>  <Rbt.Executable>
rbdock ($Id: //depot/dev/client3/rdock/2013.1/src/exe/rbdock.cxx#4 $)

>  <Rbt.Library>
libRbt.so (2013.1, Build901 2013/11/27)

>  <Rbt.Parameter_File>
/export/apps/rDock/src/rDock_2013.1_src/data/scripts/dock_solv.prm

>  <Rbt.Receptor>
prm/blind_docking_80.prm

>  <SCORE>
-5.5753

>  <SCORE.INTER>
-7.97977

>  <SCORE.INTER.CONST>
1

>  <SCORE.INTER.POLAR>
0

>  <SCORE.INTER.ROT>
7

>  <SCORE.INTER.SOLV>
13.3746

>  <SCORE.INTER.VDW>
-18.0447

>  <SCORE.INTER.norm>
-0.295547

>  <SCORE.INTRA>
2.30543

>  <SCORE.INTRA.DIHEDRAL>
6.65381

>  <SCORE.INTRA.DIHEDRAL.0>
4.89803

>  <SCORE.INTRA.POLAR>
0

>  <SCORE.INTRA.POLAR.0>
0

>  <SCORE.INTRA.REPUL>
0

>  <SCORE.INTRA.REPUL.0>
0

>  <SCORE.INTRA.SOLV>
0.404251

>  <SCORE.INTRA.SOLV.lig_0>
-48.5832

>  <SCORE.INTRA.VDW>
-1.2236

>  <SCORE.INTRA.VDW.0>
-2.39056

>  <SCORE.INTRA.norm>
0.0853862

>  <SCORE.RESTR>
0.0990344

>  <SCORE.RESTR.CAVITY>
0.0990344

>  <SCORE.RESTR.norm>
0.00366794

>  <SCORE.SYSTEM>
0

>  <SCORE.SYSTEM.CONST>
0

>  <SCORE.SYSTEM.DIHEDRAL>
0

>  <SCORE.SYSTEM.SOLV>
0

>  <SCORE.SYSTEM.norm>
0

>  <SCORE.heavy>
27

>  <SCORE.norm>
-0.206493

>  <RMSD>
4.569

$$$$
ligand
 OpenBabel11021811473D
libRbt.so/2013.1/901 2013/11/27
 27 29  0  0  0  0  0  0  0  0999 V2000
   17.9920   -4.2434  -21.3488 N   0  0  0  0  0  0  0  0  0  0  0  0
   16.5302   -4.0854  -21.3475 C   0  0  2  0  0  0  0  0  0  0  0  0
   15.9616   -4.4973  -19.9862 C   0  0  0  0  0  0  0  0  0  0  0  0
   16.7560   -5.0211  -19.1749 O   0  0  0  0  0  0  0  0  0  0  0  0
   15.9361   -4.9830  -22.4344 C   0  0  0  0  0  0  0  0  0  0  0  0
   16.2776   -6.4584  -22.2110 C   0  0  0  0  0  0  0  0  0  0  0  0
   16.5636   -8.4513  -20.2068 C   0  0  0  0  0  0  0  0  0  0  0  0
   15.3838   -7.1310  -20.7266 Se  0  0  2  0  0  0  0  0  0  0  0  0
   13.9462   -8.1346  -21.3448 C   0  0  0  0  0  0  0  0  0  0  0  0
   12.9498   -8.5162  -20.2492 C   0  0  1  0  0  0  0  0  0  0  0  0
   11.7818   -9.0754  -20.8741 O   0  0  0  0  0  0  0  0  0  0  0  0
   13.5621   -9.6765  -19.4637 C   0  0  1  0  0  0  0  0  0  0  0  0
   12.7629   -9.9502  -18.3118 O   0  0  0  0  0  0  0  0  0  0  0  0
   13.3887  -10.7893  -20.4943 C   0  0  1  0  0  0  0  0  0  0  0  0
   13.4213  -12.0491  -19.8211 O   0  0  0  0  0  0  0  0  0  0  0  0
   11.9550  -10.5021  -20.9422 C   0  0  2  0  0  0  0  0  0  0  0  0
   14.7442   -4.2887  -19.7894 O   0  0  0  0  0  0  0  0  0  0  0  0
    9.1628  -13.7357  -23.8391 N   0  0  0  0  0  0  0  0  0  0  0  0
    9.1020  -13.5297  -22.5348 C   0  0  0  0  0  0  0  0  0  0  0  0
    9.8898  -12.6579  -21.9298 N   0  0  0  0  0  0  0  0  0  0  0  0
   10.7838  -11.9445  -22.6311 C   0  0  0  0  0  0  0  0  0  0  0  0
   10.8782  -12.1346  -24.0026 C   0  0  0  0  0  0  0  0  0  0  0  0
   10.0349  -13.0633  -24.6011 C   0  0  0  0  0  0  0  0  0  0  0  0
   10.1222  -13.3011  -25.9062 N   0  0  0  0  0  0  0  0  0  0  0  0
   11.8257  -11.3224  -24.4577 N   0  0  0  0  0  0  0  0  0  0  0  0
   12.3101  -10.6478  -23.4177 C   0  0  0  0  0  0  0  0  0  0  0  0
   11.6810  -11.0206  -22.3029 N   0  0  0  0  0  0  0  0  0  0  0  0
  2  1  1  1  0  0  0
  2  5  1  0  0  0  0
  2  3  1  0  0  0  0
  3 17  1  0  0  0  0
  3  4  1  0  0  0  0
  5  6  1  0  0  0  0
  7  8  1  0  0  0  0
  8  6  1  6  0  0  0
  8  9  1  0  0  0  0
 10  9  1  6  0  0  0
 10 11  1  0  0  0  0
 10 12  1  0  0  0  0
 11 16  1  0  0  0  0
 12 13  1  1  0  0  0
 12 14  1  0  0  0  0
 14 15  1  1  0  0  0
 14 16  1  0  0  0  0
 16 27  1  6  0  0  0
 18 23  2  0  0  0  0
 18 19  1  0  0  0  0
 19 20  2  0  0  0  0
 20 21  1  0  0  0  0
 21 22  2  0  0  0  0
 21 27  1  0  0  0  0
 22 23  1  0  0  0  0
 22 25  1  0  0  0  0
 23 24  1  0  0  0  0
 25 26  2  0  0  0  0
 26 27  1  0  0  0  0
M  END
>  <CHROM.1>
59.43373688,-7.53750215,69.52997022,-151.82335013,-168.12542650,170.01148621
-122.43206002,13.56690234,-8.91200516,-21.43602112,-0.14308340,-0.91520035
-1.39240738

>  <Name>
ligand

>  <RI>
0

>  <Rbt.Current_Directory>
/home/itssahil/PROJECTS/Mol_Feturizer/New_Systems/rnas/3E5F

>  <Rbt.Executable>
rbdock ($Id: //depot/dev/client3/rdock/2013.1/src/exe/rbdock.cxx#4 $)

>  <Rbt.Library>
libRbt.so (2013.1, Build901 2013/11/27)

>  <Rbt.Parameter_File>
/export/apps/rDock/src/rDock_2013.1_src/data/scripts/dock_solv.prm

>  <Rbt.Receptor>
prm/blind_docking_40.prm

>  <SCORE>
-11.1239

>  <SCORE.INTER>
-11.2735

>  <SCORE.INTER.CONST>
1

>  <SCORE.INTER.POLAR>
0

>  <SCORE.INTER.ROT>
7

>  <SCORE.INTER.SOLV>
17.5898

>  <SCORE.INTER.VDW>
-21.6456

>  <SCORE.INTER.norm>
-0.417537

>  <SCORE.INTRA>
0.149588

>  <SCORE.INTRA.DIHEDRAL>
0.648113

>  <SCORE.INTRA.DIHEDRAL.0>
4.89803

>  <SCORE.INTRA.POLAR>
0

>  <SCORE.INTRA.POLAR.0>
0

>  <SCORE.INTRA.REPUL>
0

>  <SCORE.INTRA.REPUL.0>
0

>  <SCORE.INTRA.SOLV>
0.862978

>  <SCORE.INTRA.SOLV.lig_0>
-48.5832

>  <SCORE.INTRA.VDW>
-0.605958

>  <SCORE.INTRA.VDW.0>
-2.39056

>  <SCORE.INTRA.norm>
0.00554029

>  <SCORE.RESTR>
0

>  <SCORE.RESTR.CAVITY>
0

>  <SCORE.RESTR.norm>
0

>  <SCORE.SYSTEM>
0

>  <SCORE.SYSTEM.CONST>
0

>  <SCORE.SYSTEM.DIHEDRAL>
0

>  <SCORE.SYSTEM.SOLV>
0

>  <SCORE.SYSTEM.norm>
0

>  <SCORE.heavy>
27

>  <SCORE.norm>
-0.411997

>  <RMSD>
4.578

$$$$
ligand
 OpenBabel11021811473D
libRbt.so/2013.1/901 2013/11/27
 27 29  0  0  0  0  0  0  0  0999 V2000
   11.7352   -5.1607  -17.0660 N   0  0  0  0  0  0  0  0  0  0  0  0
   11.7864   -6.2999  -17.9941 C   0  0  2  0  0  0  0  0  0  0  0  0
   13.1776   -6.9400  -17.9591 C   0  0  0  0  0  0  0  0  0  0  0  0
   14.1316   -6.2049  -17.6230 O   0  0  0  0  0  0  0  0  0  0  0  0
   11.4989   -5.7963  -19.4096 C   0  0  0  0  0  0  0  0  0  0  0  0
   12.3764   -4.5987  -19.7826 C   0  0  0  0  0  0  0  0  0  0  0  0
   14.7133   -3.9105  -21.2439 C   0  0  0  0  0  0  0  0  0  0  0  0
   14.1566   -5.1054  -19.9525 Se  0  0  2  0  0  0  0  0  0  0  0  0
   14.1954   -6.7124  -20.8865 C   0  0  0  0  0  0  0  0  0  0  0  0
   15.6092   -7.2234  -21.1667 C   0  0  1  0  0  0  0  0  0  0  0  0
   15.5142   -8.5704  -21.6611 O   0  0  0  0  0  0  0  0  0  0  0  0
   16.1580   -6.4164  -22.3440 C   0  0  1  0  0  0  0  0  0  0  0  0
   17.5418   -6.7186  -22.5287 O   0  0  0  0  0  0  0  0  0  0  0  0
   15.3348   -7.0353  -23.4709 C   0  0  1  0  0  0  0  0  0  0  0  0
   16.0090   -6.8104  -24.7103 O   0  0  0  0  0  0  0  0  0  0  0  0
   15.4604   -8.5130  -23.0978 C   0  0  2  0  0  0  0  0  0  0  0  0
   13.2588   -8.1467  -18.2780 O   0  0  0  0  0  0  0  0  0  0  0  0
   12.3049  -12.5303  -22.3573 N   0  0  0  0  0  0  0  0  0  0  0  0
   13.2609  -12.0716  -21.5679 C   0  0  0  0  0  0  0  0  0  0  0  0
   13.9915  -11.0206  -21.8970 N   0  0  0  0  0  0  0  0  0  0  0  0
   13.7796  -10.3779  -23.0554 C   0  0  0  0  0  0  0  0  0  0  0  0
   12.7857  -10.8313  -23.9113 C   0  0  0  0  0  0  0  0  0  0  0  0
   12.0415  -11.9420  -23.5310 C   0  0  0  0  0  0  0  0  0  0  0  0
   11.1070  -12.4292  -24.3414 N   0  0  0  0  0  0  0  0  0  0  0  0
   12.7775  -10.0371  -24.9760 N   0  0  0  0  0  0  0  0  0  0  0  0
   13.7265   -9.1206  -24.8007 C   0  0  0  0  0  0  0  0  0  0  0  0
   14.3404   -9.3212  -23.6344 N   0  0  0  0  0  0  0  0  0  0  0  0
  2  1  1  1  0  0  0
  2  5  1  0  0  0  0
  2  3  1  0  0  0  0
  3 17  1  0  0  0  0
  3  4  1  0  0  0  0
  5  6  1  0  0  0  0
  7  8  1  0  0  0  0
  8  6  1  6  0  0  0
  8  9  1  0  0  0  0
 10  9  1  6  0  0  0
 10 11  1  0  0  0  0
 10 12  1  0  0  0  0
 11 16  1  0  0  0  0
 12 13  1  6  0  0  0
 12 14  1  0  0  0  0
 14 15  1  6  0  0  0
 14 16  1  0  0  0  0
 16 27  1  1  0  0  0
 18 23  2  0  0  0  0
 18 19  1  0  0  0  0
 19 20  2  0  0  0  0
 20 21  1  0  0  0  0
 21 22  2  0  0  0  0
 21 27  1  0  0  0  0
 22 23  1  0  0  0  0
 22 25  1  0  0  0  0
 23 24  1  0  0  0  0
 25 26  2  0  0  0  0
 26 27  1  0  0  0  0
M  END
>  <CHROM.1>
50.89807051,-25.98495834,68.33302634,148.88279703,177.10950905,169.41536642
-26.32469255,13.90078500,-7.61665605,-21.31714762,1.50385357,0.79647404,0.72620505

>  <Name>
ligand

>  <RI>
0

>  <Rbt.Current_Directory>
/home/itssahil/PROJECTS/Mol_Feturizer/New_Systems/rnas/3E5F

>  <Rbt.Executable>
rbdock ($Id: //depot/dev/client3/rdock/2013.1/src/exe/rbdock.cxx#4 $)

>  <Rbt.Library>
libRbt.so (2013.1, Build901 2013/11/27)

>  <Rbt.Parameter_File>
/export/apps/rDock/src/rDock_2013.1_src/data/scripts/dock_solv.prm

>  <Rbt.Receptor>
prm/blind_docking_100.prm

>  <SCORE>
-12.7483

>  <SCORE.INTER>
-13.7884

>  <SCORE.INTER.CONST>
1

>  <SCORE.INTER.POLAR>
0

>  <SCORE.INTER.ROT>
7

>  <SCORE.INTER.SOLV>
13.6261

>  <SCORE.INTER.VDW>
-22.001

>  <SCORE.INTER.norm>
-0.510682

>  <SCORE.INTRA>
0.664289

>  <SCORE.INTRA.DIHEDRAL>
-0.245503

>  <SCORE.INTRA.DIHEDRAL.0>
4.89803

>  <SCORE.INTRA.POLAR>
0

>  <SCORE.INTRA.POLAR.0>
0

>  <SCORE.INTRA.REPUL>
0

>  <SCORE.INTRA.REPUL.0>
0

>  <SCORE.INTRA.SOLV>
1.07047

>  <SCORE.INTRA.SOLV.lig_0>
-48.5832

>  <SCORE.INTRA.VDW>
0.251804

>  <SCORE.INTRA.VDW.0>
-2.39056

>  <SCORE.INTRA.norm>
0.0246033

>  <SCORE.RESTR>
0.375861

>  <SCORE.RESTR.CAVITY>
0.375861

>  <SCORE.RESTR.norm>
0.0139208

>  <SCORE.SYSTEM>
0

>  <SCORE.SYSTEM.CONST>
0

>  <SCORE.SYSTEM.DIHEDRAL>
0

>  <SCORE.SYSTEM.SOLV>
0

>  <SCORE.SYSTEM.norm>
0

>  <SCORE.heavy>
27

>  <SCORE.norm>
-0.472158

>  <RMSD>
4.589

$$$$
ligand
 OpenBabel11021811473D
libRbt.so/2013.1/901 2013/11/27
 27 29  0  0  0  0  0  0  0  0999 V2000
   17.9109   -7.4584  -18.4056 N   0  0  0  0  0  0  0  0  0  0  0  0
   16.9958   -6.8803  -19.4007 C   0  0  2  0  0  0  0  0  0  0  0  0
   15.6763   -6.4861  -18.7301 C   0  0  0  0  0  0  0  0  0  0  0  0
   15.3968   -5.2676  -18.7016 O   0  0  0  0  0  0  0  0  0  0  0  0
   16.7188   -7.9260  -20.4823 C   0  0  0  0  0  0  0  0  0  0  0  0
   15.9027   -7.3501  -21.6424 C   0  0  0  0  0  0  0  0  0  0  0  0
   15.4490   -7.5825  -24.4371 C   0  0  0  0  0  0  0  0  0  0  0  0
   15.5764   -8.6459  -22.9342 Se  0  0  2  0  0  0  0  0  0  0  0  0
   13.8186   -9.2145  -22.7268 C   0  0  0  0  0  0  0  0  0  0  0  0
   13.6961  -10.6454  -22.2014 C   0  0  1  0  0  0  0  0  0  0  0  0
   13.4057  -10.5878  -20.7943 O   0  0  0  0  0  0  0  0  0  0  0  0
   12.4424  -11.2537  -22.8311 C   0  0  1  0  0  0  0  0  0  0  0  0
   12.3810  -12.6479  -22.5261 O   0  0  0  0  0  0  0  0  0  0  0  0
   11.3783  -10.4996  -22.0377 C   0  0  1  0  0  0  0  0  0  0  0  0
   10.1578  -11.2409  -22.0846 O   0  0  0  0  0  0  0  0  0  0  0  0
   11.9760  -10.6144  -20.6347 C   0  0  2  0  0  0  0  0  0  0  0  0
   14.9807   -7.4092  -18.2523 O   0  0  0  0  0  0  0  0  0  0  0  0
   11.9706   -5.5514  -19.6298 N   0  0  0  0  0  0  0  0  0  0  0  0
   12.5497   -6.1971  -20.6274 C   0  0  0  0  0  0  0  0  0  0  0  0
   12.4595   -7.5096  -20.7532 N   0  0  0  0  0  0  0  0  0  0  0  0
   11.7657   -8.2345  -19.8626 C   0  0  0  0  0  0  0  0  0  0  0  0
   11.1452   -7.5918  -18.8005 C   0  0  0  0  0  0  0  0  0  0  0  0
   11.2667   -6.2108  -18.7009 C   0  0  0  0  0  0  0  0  0  0  0  0
   10.7191   -5.5643  -17.6766 N   0  0  0  0  0  0  0  0  0  0  0  0
   10.5336   -8.5181  -18.0709 N   0  0  0  0  0  0  0  0  0  0  0  0
   10.7583   -9.6965  -18.6472 C   0  0  0  0  0  0  0  0  0  0  0  0
   11.5069   -9.5321  -19.7380 N   0  0  0  0  0  0  0  0  0  0  0  0
  2  1  1  1  0  0  0
  2  5  1  0  0  0  0
  2  3  1  0  0  0  0
  3 17  1  0  0  0  0
  3  4  1  0  0  0  0
  5  6  1  0  0  0  0
  7  8  1  0  0  0  0
  8  6  1  1  0  0  0
  8  9  1  0  0  0  0
 10  9  1  6  0  0  0
 10 11  1  0  0  0  0
 10 12  1  0  0  0  0
 11 16  1  0  0  0  0
 12 13  1  1  0  0  0
 12 14  1  0  0  0  0
 14 15  1  1  0  0  0
 14 16  1  0  0  0  0
 16 27  1  1  0  0  0
 18 23  2  0  0  0  0
 18 19  1  0  0  0  0
 19 20  2  0  0  0  0
 20 21  1  0  0  0  0
 21 22  2  0  0  0  0
 21 27  1  0  0  0  0
 22 23  1  0  0  0  0
 22 25  1  0  0  0  0
 23 24  1  0  0  0  0
 25 26  2  0  0  0  0
 26 27  1  0  0  0  0
M  END
>  <CHROM.1>
-173.38963837,114.85487225,-179.73139541,-151.48505591,-110.56339700,100.72346104
53.84630786,13.65502491,-8.45205542,-20.82526916,0.36797986,0.38308882,0.81733537

>  <Name>
ligand

>  <RI>
0

>  <Rbt.Current_Directory>
/home/itssahil/PROJECTS/Mol_Feturizer/New_Systems/rnas/3E5F

>  <Rbt.Executable>
rbdock ($Id: //depot/dev/client3/rdock/2013.1/src/exe/rbdock.cxx#4 $)

>  <Rbt.Library>
libRbt.so (2013.1, Build901 2013/11/27)

>  <Rbt.Parameter_File>
/export/apps/rDock/src/rDock_2013.1_src/data/scripts/dock_solv.prm

>  <Rbt.Receptor>
prm/pocket_docking_3.prm

>  <SCORE>
-12.2638

>  <SCORE.INTER>
-13.2552

>  <SCORE.INTER.CONST>
1

>  <SCORE.INTER.POLAR>
0

>  <SCORE.INTER.ROT>
7

>  <SCORE.INTER.SOLV>
9.46865

>  <SCORE.INTER.VDW>
-20.2597

>  <SCORE.INTER.norm>
-0.490934

>  <SCORE.INTRA>
0.991448

>  <SCORE.INTRA.DIHEDRAL>
5.34826

>  <SCORE.INTRA.DIHEDRAL.0>
4.89803

>  <SCORE.INTRA.POLAR>
0

>  <SCORE.INTRA.POLAR.0>
0

>  <SCORE.INTRA.REPUL>
0

>  <SCORE.INTRA.REPUL.0>
0

>  <SCORE.INTRA.SOLV>
-0.0185443

>  <SCORE.INTRA.SOLV.lig_0>
-48.5832

>  <SCORE.INTRA.VDW>
-1.67341

>  <SCORE.INTRA.VDW.0>
-2.39056

>  <SCORE.INTRA.norm>
0.0367203

>  <SCORE.RESTR>
0

>  <SCORE.RESTR.CAVITY>
0

>  <SCORE.RESTR.norm>
0

>  <SCORE.SYSTEM>
0

>  <SCORE.SYSTEM.CONST>
0

>  <SCORE.SYSTEM.DIHEDRAL>
0

>  <SCORE.SYSTEM.SOLV>
0

>  <SCORE.SYSTEM.norm>
0

>  <SCORE.heavy>
27

>  <SCORE.norm>
-0.454214

>  <RMSD>
4.616

$$$$
ligand
 OpenBabel11021811473D
libRbt.so/2013.1/901 2013/11/27
 27 29  0  0  0  0  0  0  0  0999 V2000
   10.5325   -8.2481  -17.1336 N   0  0  0  0  0  0  0  0  0  0  0  0
   11.4026   -7.5554  -18.0953 C   0  0  2  0  0  0  0  0  0  0  0  0
   12.8579   -7.9855  -17.8871 C   0  0  0  0  0  0  0  0  0  0  0  0
   13.2719   -8.9393  -18.5816 O   0  0  0  0  0  0  0  0  0  0  0  0
   11.2856   -6.0471  -17.8689 C   0  0  0  0  0  0  0  0  0  0  0  0
   11.8826   -5.2444  -19.0277 C   0  0  0  0  0  0  0  0  0  0  0  0
   14.2372   -4.0676  -20.0960 C   0  0  0  0  0  0  0  0  0  0  0  0
   13.6977   -5.5973  -19.2161 Se  0  0  2  0  0  0  0  0  0  0  0  0
   13.8840   -6.8814  -20.5475 C   0  0  0  0  0  0  0  0  0  0  0  0
   15.3297   -7.3281  -20.7690 C   0  0  1  0  0  0  0  0  0  0  0  0
   15.3132   -8.6413  -21.3547 O   0  0  0  0  0  0  0  0  0  0  0  0
   15.9214   -6.4275  -21.8539 C   0  0  1  0  0  0  0  0  0  0  0  0
   17.3238   -6.6732  -21.9687 O   0  0  0  0  0  0  0  0  0  0  0  0
   15.1920   -6.9949  -23.0690 C   0  0  1  0  0  0  0  0  0  0  0  0
   15.9333   -6.6667  -24.2454 O   0  0  0  0  0  0  0  0  0  0  0  0
   15.3464   -8.4897  -22.7851 C   0  0  2  0  0  0  0  0  0  0  0  0
   13.5217   -7.3586  -17.0323 O   0  0  0  0  0  0  0  0  0  0  0  0
   12.2731  -12.6268  -22.4960 N   0  0  0  0  0  0  0  0  0  0  0  0
   13.1584  -12.1896  -21.6170 C   0  0  0  0  0  0  0  0  0  0  0  0
   13.8770  -11.1019  -21.8341 N   0  0  0  0  0  0  0  0  0  0  0  0
   13.7249  -10.3983  -22.9662 C   0  0  0  0  0  0  0  0  0  0  0  0
   12.8062  -10.8272  -23.9137 C   0  0  0  0  0  0  0  0  0  0  0  0
   12.0724  -11.9778  -23.6501 C   0  0  0  0  0  0  0  0  0  0  0  0
   11.2109  -12.4415  -24.5501 N   0  0  0  0  0  0  0  0  0  0  0  0
   12.8462   -9.9724  -24.9297 N   0  0  0  0  0  0  0  0  0  0  0  0
   13.7524   -9.0426  -24.6368 C   0  0  0  0  0  0  0  0  0  0  0  0
   14.2911   -9.2947  -23.4437 N   0  0  0  0  0  0  0  0  0  0  0  0
  2  1  1  1  0  0  0
  2  5  1  0  0  0  0
  2  3  1  0  0  0  0
  3 17  1  0  0  0  0
  3  4  1  0  0  0  0
  5  6  1  0  0  0  0
  7  8  1  0  0  0  0
  8  6  1  6  0  0  0
  8  9  1  0  0  0  0
 10  9  1  6  0  0  0
 10 11  1  0  0  0  0
 10 12  1  0  0  0  0
 11 16  1  0  0  0  0
 12 13  1  6  0  0  0
 12 14  1  0  0  0  0
 14 15  1  6  0  0  0
 14 16  1  0  0  0  0
 16 27  1  6  0  0  0
 18 23  2  0  0  0  0
 18 19  1  0  0  0  0
 19 20  2  0  0  0  0
 20 21  1  0  0  0  0
 21 22  2  0  0  0  0
 21 27  1  0  0  0  0
 22 23  1  0  0  0  0
 22 25  1  0  0  0  0
 23 24  1  0  0  0  0
 25 26  2  0  0  0  0
 26 27  1  0  0  0  0
M  END
>  <CHROM.1>
-166.16048544,93.09653739,-61.62774385,-157.07033301,-177.11096115,156.11030011
-25.68840029,13.64426129,-7.98419577,-20.95571259,1.58324925,0.81136221,0.79183516

>  <Name>
ligand

>  <RI>
0

>  <Rbt.Current_Directory>
/home/itssahil/PROJECTS/Mol_Feturizer/New_Systems/rnas/3E5F

>  <Rbt.Executable>
rbdock ($Id: //depot/dev/client3/rdock/2013.1/src/exe/rbdock.cxx#4 $)

>  <Rbt.Library>
libRbt.so (2013.1, Build901 2013/11/27)

>  <Rbt.Parameter_File>
/export/apps/rDock/src/rDock_2013.1_src/data/scripts/dock_solv.prm

>  <Rbt.Receptor>
prm/pocket_docking_3.prm

>  <SCORE>
-12.4385

>  <SCORE.INTER>
-13.7511

>  <SCORE.INTER.CONST>
1

>  <SCORE.INTER.POLAR>
0

>  <SCORE.INTER.ROT>
7

>  <SCORE.INTER.SOLV>
12.2381

>  <SCORE.INTER.VDW>
-21.5135

>  <SCORE.INTER.norm>
-0.509301

>  <SCORE.INTRA>
0.595081

>  <SCORE.INTRA.DIHEDRAL>
1.71606

>  <SCORE.INTRA.DIHEDRAL.0>
4.89803

>  <SCORE.INTRA.POLAR>
0

>  <SCORE.INTRA.POLAR.0>
0

>  <SCORE.INTRA.REPUL>
0

>  <SCORE.INTRA.REPUL.0>
0

>  <SCORE.INTRA.SOLV>
0.144152

>  <SCORE.INTRA.SOLV.lig_0>
-48.5832

>  <SCORE.INTRA.VDW>
-0.335023

>  <SCORE.INTRA.VDW.0>
-2.39056

>  <SCORE.INTRA.norm>
0.02204

>  <SCORE.RESTR>
0.717554

>  <SCORE.RESTR.CAVITY>
0.717554

>  <SCORE.RESTR.norm>
0.0265761

>  <SCORE.SYSTEM>
0

>  <SCORE.SYSTEM.CONST>
0

>  <SCORE.SYSTEM.DIHEDRAL>
0

>  <SCORE.SYSTEM.SOLV>
0

>  <SCORE.SYSTEM.norm>
0

>  <SCORE.heavy>
27

>  <SCORE.norm>
-0.460685

>  <RMSD>
4.621

$$$$
ligand
 OpenBabel11021811473D
libRbt.so/2013.1/901 2013/11/27
 27 29  0  0  0  0  0  0  0  0999 V2000
   14.9804   -4.4468  -13.4281 N   0  0  0  0  0  0  0  0  0  0  0  0
   15.8162   -5.2872  -14.2981 C   0  0  2  0  0  0  0  0  0  0  0  0
   16.5955   -4.4083  -15.2811 C   0  0  0  0  0  0  0  0  0  0  0  0
   17.2315   -4.9944  -16.1843 O   0  0  0  0  0  0  0  0  0  0  0  0
   14.9110   -6.2393  -15.0817 C   0  0  0  0  0  0  0  0  0  0  0  0
   13.9391   -5.4870  -15.9944 C   0  0  0  0  0  0  0  0  0  0  0  0
   13.3843   -4.1944  -18.4625 C   0  0  0  0  0  0  0  0  0  0  0  0
   14.8247   -4.7710  -17.4633 Se  0  0  2  0  0  0  0  0  0  0  0  0
   15.4484   -6.1907  -18.4889 C   0  0  0  0  0  0  0  0  0  0  0  0
   16.8403   -5.9559  -19.0771 C   0  0  1  0  0  0  0  0  0  0  0  0
   17.1268   -7.0197  -20.0012 O   0  0  0  0  0  0  0  0  0  0  0  0
   16.7594   -4.6998  -19.9454 C   0  0  1  0  0  0  0  0  0  0  0  0
   18.0711   -4.3240  -20.3683 O   0  0  0  0  0  0  0  0  0  0  0  0
   15.9743   -5.2670  -21.1255 C   0  0  1  0  0  0  0  0  0  0  0  0
   16.2034   -4.4425  -22.2696 O   0  0  0  0  0  0  0  0  0  0  0  0
   16.7143   -6.5923  -21.3117 C   0  0  2  0  0  0  0  0  0  0  0  0
   16.5467   -3.1713  -15.1033 O   0  0  0  0  0  0  0  0  0  0  0  0
   14.5778   -8.1998  -25.7271 N   0  0  0  0  0  0  0  0  0  0  0  0
   15.3500   -7.1479  -25.5155 C   0  0  0  0  0  0  0  0  0  0  0  0
   15.8274   -6.8642  -24.3162 N   0  0  0  0  0  0  0  0  0  0  0  0
   15.5414   -7.6474  -23.2651 C   0  0  0  0  0  0  0  0  0  0  0  0
   14.7322   -8.7599  -23.4478 C   0  0  0  0  0  0  0  0  0  0  0  0
   14.2467   -9.0223  -24.7235 C   0  0  0  0  0  0  0  0  0  0  0  0
   13.4375  -10.0564  -24.9307 N   0  0  0  0  0  0  0  0  0  0  0  0
   14.6001   -9.3600  -22.2702 N   0  0  0  0  0  0  0  0  0  0  0  0
   15.2961   -8.6562  -21.3804 C   0  0  0  0  0  0  0  0  0  0  0  0
   15.8719   -7.6129  -21.9782 N   0  0  0  0  0  0  0  0  0  0  0  0
  2  1  1  1  0  0  0
  2  5  1  0  0  0  0
  2  3  1  0  0  0  0
  3 17  1  0  0  0  0
  3  4  1  0  0  0  0
  5  6  1  0  0  0  0
  7  8  1  0  0  0  0
  8  6  1  1  0  0  0
  8  9  1  0  0  0  0
 10  9  1  6  0  0  0
 10 11  1  0  0  0  0
 10 12  1  0  0  0  0
 11 16  1  0  0  0  0
 12 13  1  6  0  0  0
 12 14  1  0  0  0  0
 14 15  1  6  0  0  0
 14 16  1  0  0  0  0
 16 27  1  1  0  0  0
 18 23  2  0  0  0  0
 18 19  1  0  0  0  0
 19 20  2  0  0  0  0
 20 21  1  0  0  0  0
 21 22  2  0  0  0  0
 21 27  1  0  0  0  0
 22 23  1  0  0  0  0
 22 25  1  0  0  0  0
 23 24  1  0  0  0  0
 25 26  2  0  0  0  0
 26 27  1  0  0  0  0
M  END
>  <CHROM.1>
62.14295124,-172.02766022,73.12861252,171.39255639,-140.69972815,-171.51133919
-166.41394427,15.50009111,-6.02907686,-19.58497372,1.49627190,0.79623202
1.22927864

>  <Name>
ligand

>  <RI>
0

>  <Rbt.Current_Directory>
/home/itssahil/PROJECTS/Mol_Feturizer/New_Systems/rnas/3E5F

>  <Rbt.Executable>
rbdock ($Id: //depot/dev/client3/rdock/2013.1/src/exe/rbdock.cxx#4 $)

>  <Rbt.Library>
libRbt.so (2013.1, Build901 2013/11/27)

>  <Rbt.Parameter_File>
/export/apps/rDock/src/rDock_2013.1_src/data/scripts/dock_solv.prm

>  <Rbt.Receptor>
prm/pocket_docking_4.prm

>  <SCORE>
-13.5564

>  <SCORE.INTER>
-13.5311

>  <SCORE.INTER.CONST>
1

>  <SCORE.INTER.POLAR>
0

>  <SCORE.INTER.ROT>
7

>  <SCORE.INTER.SOLV>
15.049

>  <SCORE.INTER.VDW>
-22.3037

>  <SCORE.INTER.norm>
-0.50115

>  <SCORE.INTRA>
-0.0253534

>  <SCORE.INTRA.DIHEDRAL>
0.903877

>  <SCORE.INTRA.DIHEDRAL.0>
4.89803

>  <SCORE.INTRA.POLAR>
0

>  <SCORE.INTRA.POLAR.0>
0

>  <SCORE.INTRA.REPUL>
0

>  <SCORE.INTRA.REPUL.0>
0

>  <SCORE.INTRA.SOLV>
0.803653

>  <SCORE.INTRA.SOLV.lig_0>
-48.5832

>  <SCORE.INTRA.VDW>
-0.879119

>  <SCORE.INTRA.VDW.0>
-2.39056

>  <SCORE.INTRA.norm>
-0.000939016

>  <SCORE.RESTR>
0

>  <SCORE.RESTR.CAVITY>
0

>  <SCORE.RESTR.norm>
0

>  <SCORE.SYSTEM>
0

>  <SCORE.SYSTEM.CONST>
0

>  <SCORE.SYSTEM.DIHEDRAL>
0

>  <SCORE.SYSTEM.SOLV>
0

>  <SCORE.SYSTEM.norm>
0

>  <SCORE.heavy>
27

>  <SCORE.norm>
-0.502089

>  <RMSD>
4.634

$$$$
ligand
 OpenBabel11021811473D
libRbt.so/2013.1/901 2013/11/27
 27 29  0  0  0  0  0  0  0  0999 V2000
   10.8832   -7.6752  -17.4791 N   0  0  0  0  0  0  0  0  0  0  0  0
   12.3048   -7.8311  -17.8204 C   0  0  2  0  0  0  0  0  0  0  0  0
   12.8751   -9.0727  -17.1281 C   0  0  0  0  0  0  0  0  0  0  0  0
   13.4259   -8.9005  -16.0188 O   0  0  0  0  0  0  0  0  0  0  0  0
   13.0656   -6.5932  -17.3421 C   0  0  0  0  0  0  0  0  0  0  0  0
   12.8713   -5.4008  -18.2823 C   0  0  0  0  0  0  0  0  0  0  0  0
   13.5385   -4.0956  -20.7157 C   0  0  0  0  0  0  0  0  0  0  0  0
   14.2659   -5.2836  -19.5054 Se  0  0  2  0  0  0  0  0  0  0  0  0
   14.2817   -6.8602  -20.4905 C   0  0  0  0  0  0  0  0  0  0  0  0
   15.6840   -7.3110  -20.9016 C   0  0  1  0  0  0  0  0  0  0  0  0
   15.5853   -8.6210  -21.4863 O   0  0  0  0  0  0  0  0  0  0  0  0
   16.1323   -6.4068  -22.0504 C   0  0  1  0  0  0  0  0  0  0  0  0
   17.5065   -6.6570  -22.3491 O   0  0  0  0  0  0  0  0  0  0  0  0
   15.2476   -6.9653  -23.1621 C   0  0  1  0  0  0  0  0  0  0  0  0
   15.8297   -6.6335  -24.4240 O   0  0  0  0  0  0  0  0  0  0  0  0
   15.4315   -8.4620  -22.9080 C   0  0  2  0  0  0  0  0  0  0  0  0
   12.7569  -10.1647  -17.7263 O   0  0  0  0  0  0  0  0  0  0  0  0
   12.3305  -12.5233  -22.1770 N   0  0  0  0  0  0  0  0  0  0  0  0
   13.3146  -12.0843  -21.4113 C   0  0  0  0  0  0  0  0  0  0  0  0
   14.0257  -11.0180  -21.7340 N   0  0  0  0  0  0  0  0  0  0  0  0
   13.7642  -10.3389  -22.8611 C   0  0  0  0  0  0  0  0  0  0  0  0
   12.7395  -10.7707  -23.6915 C   0  0  0  0  0  0  0  0  0  0  0  0
   12.0173  -11.8984  -23.3193 C   0  0  0  0  0  0  0  0  0  0  0  0
   11.0541  -12.3650  -24.1077 N   0  0  0  0  0  0  0  0  0  0  0  0
   12.6845   -9.9419  -24.7281 N   0  0  0  0  0  0  0  0  0  0  0  0
   13.6346   -9.0251  -24.5602 C   0  0  0  0  0  0  0  0  0  0  0  0
   14.2955   -9.2598  -23.4264 N   0  0  0  0  0  0  0  0  0  0  0  0
  2  1  1  1  0  0  0
  2  5  1  0  0  0  0
  2  3  1  0  0  0  0
  3 17  1  0  0  0  0
  3  4  1  0  0  0  0
  5  6  1  0  0  0  0
  7  8  1  0  0  0  0
  8  6  1  1  0  0  0
  8  9  1  0  0  0  0
 10  9  1  6  0  0  0
 10 11  1  0  0  0  0
 10 12  1  0  0  0  0
 11 16  1  0  0  0  0
 12 13  1  6  0  0  0
 12 14  1  0  0  0  0
 14 15  1  6  0  0  0
 14 16  1  0  0  0  0
 16 27  1  1  0  0  0
 18 23  2  0  0  0  0
 18 19  1  0  0  0  0
 19 20  2  0  0  0  0
 20 21  1  0  0  0  0
 21 22  2  0  0  0  0
 21 27  1  0  0  0  0
 22 23  1  0  0  0  0
 22 25  1  0  0  0  0
 23 24  1  0  0  0  0
 25 26  2  0  0  0  0
 26 27  1  0  0  0  0
M  END
>  <CHROM.1>
-77.91176264,-93.47457925,-95.57504470,165.83289659,-146.14957041,172.03982922
-23.33504242,13.86982294,-8.04667155,-20.88133832,1.42971717,0.99893561,0.91734552

>  <Name>
ligand

>  <RI>
0

>  <Rbt.Current_Directory>
/home/itssahil/PROJECTS/Mol_Feturizer/New_Systems/rnas/3E5F

>  <Rbt.Executable>
rbdock ($Id: //depot/dev/client3/rdock/2013.1/src/exe/rbdock.cxx#4 $)

>  <Rbt.Library>
libRbt.so (2013.1, Build901 2013/11/27)

>  <Rbt.Parameter_File>
/export/apps/rDock/src/rDock_2013.1_src/data/scripts/dock_solv.prm

>  <Rbt.Receptor>
prm/pocket_docking_4.prm

>  <SCORE>
-9.79137

>  <SCORE.INTER>
-13.1882

>  <SCORE.INTER.CONST>
1

>  <SCORE.INTER.POLAR>
0

>  <SCORE.INTER.ROT>
7

>  <SCORE.INTER.SOLV>
11.1765

>  <SCORE.INTER.VDW>
-20.7843

>  <SCORE.INTER.norm>
-0.488452

>  <SCORE.INTRA>
3.39683

>  <SCORE.INTRA.DIHEDRAL>
4.80669

>  <SCORE.INTRA.DIHEDRAL.0>
4.89803

>  <SCORE.INTRA.POLAR>
0

>  <SCORE.INTRA.POLAR.0>
0

>  <SCORE.INTRA.REPUL>
0

>  <SCORE.INTRA.REPUL.0>
0

>  <SCORE.INTRA.SOLV>
0.686806

>  <SCORE.INTRA.SOLV.lig_0>
-48.5832

>  <SCORE.INTRA.VDW>
0.650078

>  <SCORE.INTRA.VDW.0>
-2.39056

>  <SCORE.INTRA.norm>
0.125808

>  <SCORE.RESTR>
0

>  <SCORE.RESTR.CAVITY>
0

>  <SCORE.RESTR.norm>
0

>  <SCORE.SYSTEM>
0

>  <SCORE.SYSTEM.CONST>
0

>  <SCORE.SYSTEM.DIHEDRAL>
0

>  <SCORE.SYSTEM.SOLV>
0

>  <SCORE.SYSTEM.norm>
0

>  <SCORE.heavy>
27

>  <SCORE.norm>
-0.362644

>  <RMSD>
4.644

$$$$
ligand
 OpenBabel11021811473D
libRbt.so/2013.1/901 2013/11/27
 27 29  0  0  0  0  0  0  0  0999 V2000
   16.2336   -5.1157  -17.5616 N   0  0  0  0  0  0  0  0  0  0  0  0
   16.0591   -6.4655  -17.0053 C   0  0  2  0  0  0  0  0  0  0  0  0
   17.4058   -7.1946  -16.9717 C   0  0  0  0  0  0  0  0  0  0  0  0
   17.5743   -8.0322  -16.0587 O   0  0  0  0  0  0  0  0  0  0  0  0
   15.0868   -7.2435  -17.8938 C   0  0  0  0  0  0  0  0  0  0  0  0
   15.5141   -7.2282  -19.3637 C   0  0  0  0  0  0  0  0  0  0  0  0
   13.8631   -4.9229  -19.5366 C   0  0  0  0  0  0  0  0  0  0  0  0
   15.5478   -5.4930  -20.0290 Se  0  0  2  0  0  0  0  0  0  0  0  0
   15.3828   -5.5980  -21.8777 C   0  0  0  0  0  0  0  0  0  0  0  0
   16.3433   -6.5984  -22.5221 C   0  0  1  0  0  0  0  0  0  0  0  0
   16.1101   -7.8912  -21.9373 O   0  0  0  0  0  0  0  0  0  0  0  0
   15.9231   -6.7531  -23.9842 C   0  0  1  0  0  0  0  0  0  0  0  0
   16.8974   -7.5290  -24.6835 O   0  0  0  0  0  0  0  0  0  0  0  0
   14.6489   -7.5710  -23.7884 C   0  0  1  0  0  0  0  0  0  0  0  0
   14.3514   -8.2578  -25.0053 O   0  0  0  0  0  0  0  0  0  0  0  0
   15.1501   -8.5822  -22.7565 C   0  0  2  0  0  0  0  0  0  0  0  0
   18.2406   -6.8926  -17.8527 O   0  0  0  0  0  0  0  0  0  0  0  0
   12.3592  -12.7656  -21.5925 N   0  0  0  0  0  0  0  0  0  0  0  0
   13.3668  -12.6519  -22.4406 C   0  0  0  0  0  0  0  0  0  0  0  0
   13.9898  -11.5021  -22.6320 N   0  0  0  0  0  0  0  0  0  0  0  0
   13.6154  -10.4030  -21.9600 C   0  0  0  0  0  0  0  0  0  0  0  0
   12.5602  -10.4828  -21.0622 C   0  0  0  0  0  0  0  0  0  0  0  0
   11.9282  -11.7089  -20.8917 C   0  0  0  0  0  0  0  0  0  0  0  0
   10.8891  -11.8162  -20.0696 N   0  0  0  0  0  0  0  0  0  0  0  0
   12.3872   -9.2758  -20.5353 N   0  0  0  0  0  0  0  0  0  0  0  0
   13.2945   -8.4670  -21.0776 C   0  0  0  0  0  0  0  0  0  0  0  0
   14.0456   -9.1456  -21.9451 N   0  0  0  0  0  0  0  0  0  0  0  0
  2  1  1  6  0  0  0
  2  5  1  0  0  0  0
  2  3  1  0  0  0  0
  3 17  1  0  0  0  0
  3  4  1  0  0  0  0
  5  6  1  0  0  0  0
  7  8  1  0  0  0  0
  8  6  1  1  0  0  0
  8  9  1  0  0  0  0
 10  9  1  1  0  0  0
 10 11  1  0  0  0  0
 10 12  1  0  0  0  0
 11 16  1  0  0  0  0
 12 13  1  6  0  0  0
 12 14  1  0  0  0  0
 14 15  1  6  0  0  0
 14 16  1  0  0  0  0
 16 27  1  1  0  0  0
 18 23  2  0  0  0  0
 18 19  1  0  0  0  0
 19 20  2  0  0  0  0
 20 21  1  0  0  0  0
 21 22  2  0  0  0  0
 21 27  1  0  0  0  0
 22 23  1  0  0  0  0
 22 25  1  0  0  0  0
 23 24  1  0  0  0  0
 25 26  2  0  0  0  0
 26 27  1  0  0  0  0
M  END
>  <CHROM.1>
53.12031686,149.31754036,-61.51898636,-51.58351224,-49.33996146,57.65509712
-127.76784149,14.94505656,-7.87114668,-20.72344092,0.49816525,1.00406968
1.66154704

>  <Name>
ligand

>  <RI>
0

>  <Rbt.Current_Directory>
/home/itssahil/PROJECTS/Mol_Feturizer/New_Systems/rnas/3E5F

>  <Rbt.Executable>
rbdock ($Id: //depot/dev/client3/rdock/2013.1/src/exe/rbdock.cxx#4 $)

>  <Rbt.Library>
libRbt.so (2013.1, Build901 2013/11/27)

>  <Rbt.Parameter_File>
/export/apps/rDock/src/rDock_2013.1_src/data/scripts/dock_solv.prm

>  <Rbt.Receptor>
prm/pocket_docking_2.prm

>  <SCORE>
-2.82647

>  <SCORE.INTER>
-5.52882

>  <SCORE.INTER.CONST>
1

>  <SCORE.INTER.POLAR>
0

>  <SCORE.INTER.ROT>
7

>  <SCORE.INTER.SOLV>
13.7488

>  <SCORE.INTER.VDW>
-16.5355

>  <SCORE.INTER.norm>
-0.204771

>  <SCORE.INTRA>
2.00958

>  <SCORE.INTRA.DIHEDRAL>
-0.904822

>  <SCORE.INTRA.DIHEDRAL.0>
4.89803

>  <SCORE.INTRA.POLAR>
0

>  <SCORE.INTRA.POLAR.0>
0

>  <SCORE.INTRA.REPUL>
0

>  <SCORE.INTRA.REPUL.0>
0

>  <SCORE.INTRA.SOLV>
3.04189

>  <SCORE.INTRA.SOLV.lig_0>
-48.5832

>  <SCORE.INTRA.VDW>
0.941046

>  <SCORE.INTRA.VDW.0>
-2.39056

>  <SCORE.INTRA.norm>
0.0744289

>  <SCORE.RESTR>
0.692776

>  <SCORE.RESTR.CAVITY>
0.692776

>  <SCORE.RESTR.norm>
0.0256584

>  <SCORE.SYSTEM>
0

>  <SCORE.SYSTEM.CONST>
0

>  <SCORE.SYSTEM.DIHEDRAL>
0

>  <SCORE.SYSTEM.SOLV>
0

>  <SCORE.SYSTEM.norm>
0

>  <SCORE.heavy>
27

>  <SCORE.norm>
-0.104684

>  <RMSD>
4.653

$$$$
ligand
 OpenBabel11021811473D
libRbt.so/2013.1/901 2013/11/27
 27 29  0  0  0  0  0  0  0  0999 V2000
   17.8543   -4.9365  -19.6083 N   0  0  0  0  0  0  0  0  0  0  0  0
   17.3060   -4.5248  -20.9090 C   0  0  2  0  0  0  0  0  0  0  0  0
   18.3546   -3.7254  -21.6885 C   0  0  0  0  0  0  0  0  0  0  0  0
   19.3759   -4.3428  -22.0617 O   0  0  0  0  0  0  0  0  0  0  0  0
   16.0770   -3.6459  -20.6705 C   0  0  0  0  0  0  0  0  0  0  0  0
   14.9997   -4.3723  -19.8611 C   0  0  0  0  0  0  0  0  0  0  0  0
   12.2591   -5.0995  -20.0362 C   0  0  0  0  0  0  0  0  0  0  0  0
   13.8336   -5.2911  -20.9794 Se  0  0  2  0  0  0  0  0  0  0  0  0
   14.1746   -7.1072  -20.7750 C   0  0  0  0  0  0  0  0  0  0  0  0
   15.5530   -7.5321  -21.2830 C   0  0  1  0  0  0  0  0  0  0  0  0
   15.4379   -8.8433  -21.8619 O   0  0  0  0  0  0  0  0  0  0  0  0
   15.9042   -6.6192  -22.4584 C   0  0  1  0  0  0  0  0  0  0  0  0
   17.2588   -6.8441  -22.8520 O   0  0  0  0  0  0  0  0  0  0  0  0
   14.9550   -7.1930  -23.5073 C   0  0  1  0  0  0  0  0  0  0  0  0
   15.4423   -6.8500  -24.8057 O   0  0  0  0  0  0  0  0  0  0  0  0
   15.1832   -8.6863  -23.2692 C   0  0  2  0  0  0  0  0  0  0  0  0
   18.1175   -2.5134  -21.8860 O   0  0  0  0  0  0  0  0  0  0  0  0
   10.5627  -10.6311  -22.0389 N   0  0  0  0  0  0  0  0  0  0  0  0
   11.3574   -9.8623  -21.3143 C   0  0  0  0  0  0  0  0  0  0  0  0
   12.5225   -9.4380  -21.7714 N   0  0  0  0  0  0  0  0  0  0  0  0
   12.9371   -9.7764  -23.0016 C   0  0  0  0  0  0  0  0  0  0  0  0
   12.1308  -10.5838  -23.7915 C   0  0  0  0  0  0  0  0  0  0  0  0
   10.9144  -11.0127  -23.2734 C   0  0  0  0  0  0  0  0  0  0  0  0
   10.1323  -11.8186  -23.9848 N   0  0  0  0  0  0  0  0  0  0  0  0
   12.7584  -10.7731  -24.9468 N   0  0  0  0  0  0  0  0  0  0  0  0
   13.9129  -10.1135  -24.8895 C   0  0  0  0  0  0  0  0  0  0  0  0
   14.0287   -9.5044  -23.7093 N   0  0  0  0  0  0  0  0  0  0  0  0
  2  1  1  1  0  0  0
  2  5  1  0  0  0  0
  2  3  1  0  0  0  0
  3 17  1  0  0  0  0
  3  4  1  0  0  0  0
  5  6  1  0  0  0  0
  7  8  1  0  0  0  0
  8  6  1  1  0  0  0
  8  9  1  0  0  0  0
 10  9  1  6  0  0  0
 10 11  1  0  0  0  0
 10 12  1  0  0  0  0
 11 16  1  0  0  0  0
 12 13  1  6  0  0  0
 12 14  1  0  0  0  0
 14 15  1  6  0  0  0
 14 16  1  0  0  0  0
 16 27  1  1  0  0  0
 18 23  2  0  0  0  0
 18 19  1  0  0  0  0
 19 20  2  0  0  0  0
 20 21  1  0  0  0  0
 21 22  2  0  0  0  0
 21 27  1  0  0  0  0
 22 23  1  0  0  0  0
 22 25  1  0  0  0  0
 23 24  1  0  0  0  0
 25 26  2  0  0  0  0
 26 27  1  0  0  0  0
M  END
>  <CHROM.1>
-58.44701687,66.55574561,-89.46060206,-145.59006777,-66.45690701,-144.23547765
34.39634117,14.53401855,-7.06212000,-22.06069467,0.84512882,0.41146137,0.67492721

>  <Name>
ligand

>  <RI>
0

>  <Rbt.Current_Directory>
/home/itssahil/PROJECTS/Mol_Feturizer/New_Systems/rnas/3E5F

>  <Rbt.Executable>
rbdock ($Id: //depot/dev/client3/rdock/2013.1/src/exe/rbdock.cxx#4 $)

>  <Rbt.Library>
libRbt.so (2013.1, Build901 2013/11/27)

>  <Rbt.Parameter_File>
/export/apps/rDock/src/rDock_2013.1_src/data/scripts/dock_solv.prm

>  <Rbt.Receptor>
prm/blind_docking_80.prm

>  <SCORE>
-12.2447

>  <SCORE.INTER>
-16.5091

>  <SCORE.INTER.CONST>
1

>  <SCORE.INTER.POLAR>
0

>  <SCORE.INTER.ROT>
7

>  <SCORE.INTER.SOLV>
20.2289

>  <SCORE.INTER.VDW>
-26.0157

>  <SCORE.INTER.norm>
-0.611448

>  <SCORE.INTRA>
4.26439

>  <SCORE.INTRA.DIHEDRAL>
5.81262

>  <SCORE.INTRA.DIHEDRAL.0>
4.89803

>  <SCORE.INTRA.POLAR>
0

>  <SCORE.INTRA.POLAR.0>
0

>  <SCORE.INTRA.REPUL>
0

>  <SCORE.INTRA.REPUL.0>
0

>  <SCORE.INTRA.SOLV>
2.93755

>  <SCORE.INTRA.SOLV.lig_0>
-48.5832

>  <SCORE.INTRA.VDW>
-0.110694

>  <SCORE.INTRA.VDW.0>
-2.39056

>  <SCORE.INTRA.norm>
0.15794

>  <SCORE.RESTR>
0

>  <SCORE.RESTR.CAVITY>
0

>  <SCORE.RESTR.norm>
0

>  <SCORE.SYSTEM>
0

>  <SCORE.SYSTEM.CONST>
0

>  <SCORE.SYSTEM.DIHEDRAL>
0

>  <SCORE.SYSTEM.SOLV>
0

>  <SCORE.SYSTEM.norm>
0

>  <SCORE.heavy>
27

>  <SCORE.norm>
-0.453507

>  <RMSD>
4.658

$$$$
ligand
 OpenBabel11021811473D
libRbt.so/2013.1/901 2013/11/27
 27 29  0  0  0  0  0  0  0  0999 V2000
   11.7364   -9.0756  -18.6083 N   0  0  0  0  0  0  0  0  0  0  0  0
   13.0377   -9.0669  -17.9238 C   0  0  2  0  0  0  0  0  0  0  0  0
   12.8310   -8.9574  -16.4101 C   0  0  0  0  0  0  0  0  0  0  0  0
   11.6622   -8.7634  -16.0101 O   0  0  0  0  0  0  0  0  0  0  0  0
   13.8434   -7.8613  -18.4110 C   0  0  0  0  0  0  0  0  0  0  0  0
   13.0576   -6.5542  -18.2792 C   0  0  0  0  0  0  0  0  0  0  0  0
   12.7997   -3.8335  -19.0547 C   0  0  0  0  0  0  0  0  0  0  0  0
   14.1105   -5.0950  -18.7450 Se  0  0  2  0  0  0  0  0  0  0  0  0
   14.7559   -5.3948  -20.4625 C   0  0  0  0  0  0  0  0  0  0  0  0
   16.1802   -5.9506  -20.4928 C   0  0  1  0  0  0  0  0  0  0  0  0
   16.1126   -7.3783  -20.3358 O   0  0  0  0  0  0  0  0  0  0  0  0
   16.7184   -5.7417  -21.9088 C   0  0  1  0  0  0  0  0  0  0  0  0
   18.1084   -6.0685  -21.9464 O   0  0  0  0  0  0  0  0  0  0  0  0
   15.9116   -6.8126  -22.6387 C   0  0  1  0  0  0  0  0  0  0  0  0
   16.5865   -7.1501  -23.8519 O   0  0  0  0  0  0  0  0  0  0  0  0
   16.0635   -7.9673  -21.6476 C   0  0  2  0  0  0  0  0  0  0  0  0
   13.8459   -9.0601  -15.6864 O   0  0  0  0  0  0  0  0  0  0  0  0
   12.6107  -10.2232  -24.7513 N   0  0  0  0  0  0  0  0  0  0  0  0
   13.5219   -9.3130  -25.0492 C   0  0  0  0  0  0  0  0  0  0  0  0
   14.3448   -8.8265  -24.1366 N   0  0  0  0  0  0  0  0  0  0  0  0
   14.2811   -9.2499  -22.8652 C   0  0  0  0  0  0  0  0  0  0  0  0
   13.3360  -10.2035  -22.5139 C   0  0  0  0  0  0  0  0  0  0  0  0
   12.4863  -10.6877  -23.5015 C   0  0  0  0  0  0  0  0  0  0  0  0
   11.5430  -11.5731  -23.1958 N   0  0  0  0  0  0  0  0  0  0  0  0
   13.4747  -10.4492  -21.2159 N   0  0  0  0  0  0  0  0  0  0  0  0
   14.4653   -9.6829  -20.7656 C   0  0  0  0  0  0  0  0  0  0  0  0
   14.9611   -8.9506  -21.7632 N   0  0  0  0  0  0  0  0  0  0  0  0
  2  1  1  6  0  0  0
  2  5  1  0  0  0  0
  2  3  1  0  0  0  0
  3 17  1  0  0  0  0
  3  4  1  0  0  0  0
  5  6  1  0  0  0  0
  7  8  1  0  0  0  0
  8  6  1  6  0  0  0
  8  9  1  0  0  0  0
 10  9  1  6  0  0  0
 10 11  1  0  0  0  0
 10 12  1  0  0  0  0
 11 16  1  0  0  0  0
 12 13  1  1  0  0  0
 12 14  1  0  0  0  0
 14 15  1  6  0  0  0
 14 16  1  0  0  0  0
 16 27  1  1  0  0  0
 18 23  2  0  0  0  0
 18 19  1  0  0  0  0
 19 20  2  0  0  0  0
 20 21  1  0  0  0  0
 21 22  2  0  0  0  0
 21 27  1  0  0  0  0
 22 23  1  0  0  0  0
 22 25  1  0  0  0  0
 23 24  1  0  0  0  0
 25 26  2  0  0  0  0
 26 27  1  0  0  0  0
M  END
>  <CHROM.1>
52.82940476,-6.80243498,175.28671350,161.32665977,-98.32294569,84.51215336
149.90032999,14.17904243,-7.63995340,-20.45043592,1.70990849,0.89939281,0.99746922

>  <Name>
ligand

>  <RI>
0

>  <Rbt.Current_Directory>
/home/itssahil/PROJECTS/Mol_Feturizer/New_Systems/rnas/3E5F

>  <Rbt.Executable>
rbdock ($Id: //depot/dev/client3/rdock/2013.1/src/exe/rbdock.cxx#4 $)

>  <Rbt.Library>
libRbt.so (2013.1, Build901 2013/11/27)

>  <Rbt.Parameter_File>
/export/apps/rDock/src/rDock_2013.1_src/data/scripts/dock_solv.prm

>  <Rbt.Receptor>
prm/pocket_docking_4.prm

>  <SCORE>
-10.6025

>  <SCORE.INTER>
-12.4318

>  <SCORE.INTER.CONST>
1

>  <SCORE.INTER.POLAR>
0

>  <SCORE.INTER.ROT>
7

>  <SCORE.INTER.SOLV>
8.46143

>  <SCORE.INTER.VDW>
-19.375

>  <SCORE.INTER.norm>
-0.460437

>  <SCORE.INTRA>
1.82571

>  <SCORE.INTRA.DIHEDRAL>
1.5468

>  <SCORE.INTRA.DIHEDRAL.0>
4.89803

>  <SCORE.INTRA.POLAR>
0

>  <SCORE.INTRA.POLAR.0>
0

>  <SCORE.INTRA.REPUL>
0

>  <SCORE.INTRA.REPUL.0>
0

>  <SCORE.INTRA.SOLV>
1.71552

>  <SCORE.INTRA.SOLV.lig_0>
-48.5832

>  <SCORE.INTRA.VDW>
0.194543

>  <SCORE.INTRA.VDW.0>
-2.39056

>  <SCORE.INTRA.norm>
0.0676187

>  <SCORE.RESTR>
0.00356071

>  <SCORE.RESTR.CAVITY>
0.00356071

>  <SCORE.RESTR.norm>
0.000131878

>  <SCORE.SYSTEM>
0

>  <SCORE.SYSTEM.CONST>
0

>  <SCORE.SYSTEM.DIHEDRAL>
0

>  <SCORE.SYSTEM.SOLV>
0

>  <SCORE.SYSTEM.norm>
0

>  <SCORE.heavy>
27

>  <SCORE.norm>
-0.392687

>  <RMSD>
4.658

$$$$
ligand
 OpenBabel11021811473D
libRbt.so/2013.1/901 2013/11/27
 27 29  0  0  0  0  0  0  0  0999 V2000
   16.8803   -7.9377  -16.8950 N   0  0  0  0  0  0  0  0  0  0  0  0
   17.4052   -6.5645  -16.8687 C   0  0  2  0  0  0  0  0  0  0  0  0
   16.5365   -5.6907  -15.9587 C   0  0  0  0  0  0  0  0  0  0  0  0
   15.3639   -6.0744  -15.7554 O   0  0  0  0  0  0  0  0  0  0  0  0
   17.3759   -5.9978  -18.2892 C   0  0  0  0  0  0  0  0  0  0  0  0
   15.9871   -6.1090  -18.9234 C   0  0  0  0  0  0  0  0  0  0  0  0
   14.3768   -3.9004  -19.6977 C   0  0  0  0  0  0  0  0  0  0  0  0
   15.7959   -4.9009  -20.3229 Se  0  0  2  0  0  0  0  0  0  0  0  0
   15.0165   -5.8092  -21.7454 C   0  0  0  0  0  0  0  0  0  0  0  0
   15.8615   -6.9731  -22.2650 C   0  0  1  0  0  0  0  0  0  0  0  0
   15.8014   -8.0409  -21.3039 O   0  0  0  0  0  0  0  0  0  0  0  0
   15.1570   -7.5271  -23.5041 C   0  0  1  0  0  0  0  0  0  0  0  0
   15.9959   -8.4916  -24.1414 O   0  0  0  0  0  0  0  0  0  0  0  0
   13.9814   -8.2263  -22.8261 C   0  0  1  0  0  0  0  0  0  0  0  0
   13.4670   -9.2235  -23.7105 O   0  0  0  0  0  0  0  0  0  0  0  0
   14.7206   -8.9140  -21.6775 C   0  0  2  0  0  0  0  0  0  0  0  0
   17.0596   -4.6540  -15.4940 O   0  0  0  0  0  0  0  0  0  0  0  0
   10.8537   -7.2229  -18.7056 N   0  0  0  0  0  0  0  0  0  0  0  0
   11.4224   -6.6303  -19.7415 C   0  0  0  0  0  0  0  0  0  0  0  0
   12.4120   -7.1956  -20.4106 N   0  0  0  0  0  0  0  0  0  0  0  0
   12.8725   -8.4048  -20.0558 C   0  0  0  0  0  0  0  0  0  0  0  0
   12.3016   -9.0574  -18.9722 C   0  0  0  0  0  0  0  0  0  0  0  0
   11.2656   -8.4281  -18.2920 C   0  0  0  0  0  0  0  0  0  0  0  0
   10.7196   -9.0044  -17.2257 N   0  0  0  0  0  0  0  0  0  0  0  0
   12.9272  -10.2201  -18.8268 N   0  0  0  0  0  0  0  0  0  0  0  0
   13.8547  -10.2989  -19.7781 C   0  0  0  0  0  0  0  0  0  0  0  0
   13.8273   -9.1984  -20.5300 N   0  0  0  0  0  0  0  0  0  0  0  0
  2  1  1  6  0  0  0
  2  5  1  0  0  0  0
  2  3  1  0  0  0  0
  3 17  1  0  0  0  0
  3  4  1  0  0  0  0
  5  6  1  0  0  0  0
  7  8  1  0  0  0  0
  8  6  1  1  0  0  0
  8  9  1  0  0  0  0
 10  9  1  1  0  0  0
 10 11  1  0  0  0  0
 10 12  1  0  0  0  0
 11 16  1  0  0  0  0
 12 13  1  1  0  0  0
 12 14  1  0  0  0  0
 14 15  1  6  0  0  0
 14 16  1  0  0  0  0
 16 27  1  1  0  0  0
 18 23  2  0  0  0  0
 18 19  1  0  0  0  0
 19 20  2  0  0  0  0
 20 21  1  0  0  0  0
 21 22  2  0  0  0  0
 21 27  1  0  0  0  0
 22 23  1  0  0  0  0
 22 25  1  0  0  0  0
 23 24  1  0  0  0  0
 25 26  2  0  0  0  0
 26 27  1  0  0  0  0
M  END
>  <CHROM.1>
53.64113097,-22.69781920,158.93491185,-119.65213402,-61.53397330,72.80165973
79.64540456,14.67312579,-7.02522021,-19.80686457,0.95435884,0.67655007,1.37882349

>  <Name>
ligand

>  <RI>
0

>  <Rbt.Current_Directory>
/home/itssahil/PROJECTS/Mol_Feturizer/New_Systems/rnas/3E5F

>  <Rbt.Executable>
rbdock ($Id: //depot/dev/client3/rdock/2013.1/src/exe/rbdock.cxx#4 $)

>  <Rbt.Library>
libRbt.so (2013.1, Build901 2013/11/27)

>  <Rbt.Parameter_File>
/export/apps/rDock/src/rDock_2013.1_src/data/scripts/dock_solv.prm

>  <Rbt.Receptor>
prm/pocket_docking_3.prm

>  <SCORE>
-3.97842

>  <SCORE.INTER>
-5.05531

>  <SCORE.INTER.CONST>
1

>  <SCORE.INTER.POLAR>
0

>  <SCORE.INTER.ROT>
7

>  <SCORE.INTER.SOLV>
10.7889

>  <SCORE.INTER.VDW>
-15.2332

>  <SCORE.INTER.norm>
-0.187234

>  <SCORE.INTRA>
1.03896

>  <SCORE.INTRA.DIHEDRAL>
2.46944

>  <SCORE.INTRA.DIHEDRAL.0>
4.89803

>  <SCORE.INTRA.POLAR>
0

>  <SCORE.INTRA.POLAR.0>
0

>  <SCORE.INTRA.REPUL>
0

>  <SCORE.INTRA.REPUL.0>
0

>  <SCORE.INTRA.SOLV>
0.865423

>  <SCORE.INTRA.SOLV.lig_0>
-48.5832

>  <SCORE.INTRA.VDW>
-0.628475

>  <SCORE.INTRA.VDW.0>
-2.39056

>  <SCORE.INTRA.norm>
0.0384799

>  <SCORE.RESTR>
0.037935

>  <SCORE.RESTR.CAVITY>
0.037935

>  <SCORE.RESTR.norm>
0.001405

>  <SCORE.SYSTEM>
0

>  <SCORE.SYSTEM.CONST>
0

>  <SCORE.SYSTEM.DIHEDRAL>
0

>  <SCORE.SYSTEM.SOLV>
0

>  <SCORE.SYSTEM.norm>
0

>  <SCORE.heavy>
27

>  <SCORE.norm>
-0.147349

>  <RMSD>
4.720

$$$$
ligand
 OpenBabel11021811473D
libRbt.so/2013.1/901 2013/11/27
 27 29  0  0  0  0  0  0  0  0999 V2000
   10.6825   -8.7511  -17.4034 N   0  0  0  0  0  0  0  0  0  0  0  0
   11.6291   -8.1230  -18.3368 C   0  0  2  0  0  0  0  0  0  0  0  0
   12.8218   -7.5506  -17.5648 C   0  0  0  0  0  0  0  0  0  0  0  0
   13.9606   -7.7886  -18.0230 O   0  0  0  0  0  0  0  0  0  0  0  0
   10.9153   -6.9891  -19.0748 C   0  0  0  0  0  0  0  0  0  0  0  0
   11.8091   -6.3423  -20.1360 C   0  0  0  0  0  0  0  0  0  0  0  0
   12.5446   -3.9175  -18.8516 C   0  0  0  0  0  0  0  0  0  0  0  0
   13.2875   -5.5298  -19.3556 Se  0  0  2  0  0  0  0  0  0  0  0  0
   14.4279   -5.0052  -20.7268 C   0  0  0  0  0  0  0  0  0  0  0  0
   15.8469   -5.5583  -20.5882 C   0  0  1  0  0  0  0  0  0  0  0  0
   15.7590   -6.9676  -20.3161 O   0  0  0  0  0  0  0  0  0  0  0  0
   16.5045   -5.4701  -21.9659 C   0  0  1  0  0  0  0  0  0  0  0  0
   17.8910   -5.7958  -21.8570 O   0  0  0  0  0  0  0  0  0  0  0  0
   15.7573   -6.6013  -22.6676 C   0  0  1  0  0  0  0  0  0  0  0  0
   16.5311   -7.0399  -23.7857 O   0  0  0  0  0  0  0  0  0  0  0  0
   15.8186   -7.6666  -21.5722 C   0  0  2  0  0  0  0  0  0  0  0  0
   12.5703   -6.8962  -16.5290 O   0  0  0  0  0  0  0  0  0  0  0  0
   12.6640  -10.2238  -24.7588 N   0  0  0  0  0  0  0  0  0  0  0  0
   13.6066   -9.3456  -25.0550 C   0  0  0  0  0  0  0  0  0  0  0  0
   14.3413   -8.7700  -24.1193 N   0  0  0  0  0  0  0  0  0  0  0  0
   14.1521   -9.0663  -22.8246 C   0  0  0  0  0  0  0  0  0  0  0  0
   13.1704   -9.9826  -22.4745 C   0  0  0  0  0  0  0  0  0  0  0  0
   12.4163  -10.5633  -23.4873 C   0  0  0  0  0  0  0  0  0  0  0  0
   11.4411  -11.4162  -23.1889 N   0  0  0  0  0  0  0  0  0  0  0  0
   13.1814  -10.0992  -21.1513 N   0  0  0  0  0  0  0  0  0  0  0  0
   14.1298   -9.2903  -20.6848 C   0  0  0  0  0  0  0  0  0  0  0  0
   14.7250   -8.6587  -21.6968 N   0  0  0  0  0  0  0  0  0  0  0  0
  2  1  1  1  0  0  0
  2  5  1  0  0  0  0
  2  3  1  0  0  0  0
  3 17  1  0  0  0  0
  3  4  1  0  0  0  0
  5  6  1  0  0  0  0
  7  8  1  0  0  0  0
  8  6  1  6  0  0  0
  8  9  1  0  0  0  0
 10  9  1  6  0  0  0
 10 11  1  0  0  0  0
 10 12  1  0  0  0  0
 11 16  1  0  0  0  0
 12 13  1  1  0  0  0
 12 14  1  0  0  0  0
 14 15  1  6  0  0  0
 14 16  1  0  0  0  0
 16 27  1  6  0  0  0
 18 23  2  0  0  0  0
 18 19  1  0  0  0  0
 19 20  2  0  0  0  0
 20 21  1  0  0  0  0
 21 22  2  0  0  0  0
 21 27  1  0  0  0  0
 22 23  1  0  0  0  0
 22 25  1  0  0  0  0
 23 24  1  0  0  0  0
 25 26  2  0  0  0  0
 26 27  1  0  0  0  0
M  END
>  <CHROM.1>
-176.19392982,134.09788162,-63.66081078,-82.60140687,-124.68680870,48.20075654
150.89690827,13.75200837,-7.36625304,-20.74029913,1.85386021,0.66841467,0.85641024

>  <Name>
ligand

>  <RI>
0

>  <Rbt.Current_Directory>
/home/itssahil/PROJECTS/Mol_Feturizer/New_Systems/rnas/3E5F

>  <Rbt.Executable>
rbdock ($Id: //depot/dev/client3/rdock/2013.1/src/exe/rbdock.cxx#4 $)

>  <Rbt.Library>
libRbt.so (2013.1, Build901 2013/11/27)

>  <Rbt.Parameter_File>
/export/apps/rDock/src/rDock_2013.1_src/data/scripts/dock_solv.prm

>  <Rbt.Receptor>
prm/pocket_docking_5.prm

>  <SCORE>
-15.7329

>  <SCORE.INTER>
-13.8781

>  <SCORE.INTER.CONST>
1

>  <SCORE.INTER.POLAR>
0

>  <SCORE.INTER.ROT>
7

>  <SCORE.INTER.SOLV>
8.2519

>  <SCORE.INTER.VDW>
-20.2693

>  <SCORE.INTER.norm>
-0.514003

>  <SCORE.INTRA>
-1.85484

>  <SCORE.INTRA.DIHEDRAL>
1.18625

>  <SCORE.INTRA.DIHEDRAL.0>
4.89803

>  <SCORE.INTRA.POLAR>
0

>  <SCORE.INTRA.POLAR.0>
0

>  <SCORE.INTRA.REPUL>
0

>  <SCORE.INTRA.REPUL.0>
0

>  <SCORE.INTRA.SOLV>
0.261144

>  <SCORE.INTRA.SOLV.lig_0>
-48.5832

>  <SCORE.INTRA.VDW>
-2.57854

>  <SCORE.INTRA.VDW.0>
-2.39056

>  <SCORE.INTRA.norm>
-0.0686977

>  <SCORE.RESTR>
0

>  <SCORE.RESTR.CAVITY>
0

>  <SCORE.RESTR.norm>
0

>  <SCORE.SYSTEM>
0

>  <SCORE.SYSTEM.CONST>
0

>  <SCORE.SYSTEM.DIHEDRAL>
0

>  <SCORE.SYSTEM.SOLV>
0

>  <SCORE.SYSTEM.norm>
0

>  <SCORE.heavy>
27

>  <SCORE.norm>
-0.5827

>  <RMSD>
4.729

$$$$
ligand
 OpenBabel11021811473D
libRbt.so/2013.1/901 2013/11/27
 27 29  0  0  0  0  0  0  0  0999 V2000
   10.8404   -6.8421  -19.7999 N   0  0  0  0  0  0  0  0  0  0  0  0
   11.6109   -6.7517  -18.5510 C   0  0  2  0  0  0  0  0  0  0  0  0
   12.5912   -5.5772  -18.6258 C   0  0  0  0  0  0  0  0  0  0  0  0
   13.1381   -5.3647  -19.7300 O   0  0  0  0  0  0  0  0  0  0  0  0
   12.3949   -8.0512  -18.3598 C   0  0  0  0  0  0  0  0  0  0  0  0
   13.1158   -8.0938  -17.0100 C   0  0  0  0  0  0  0  0  0  0  0  0
   15.5257   -7.9534  -15.5124 C   0  0  0  0  0  0  0  0  0  0  0  0
   14.9534   -8.2498  -17.2416 Se  0  0  2  0  0  0  0  0  0  0  0  0
   15.5429   -6.7103  -18.1009 C   0  0  0  0  0  0  0  0  0  0  0  0
   16.9368   -6.8476  -18.7148 C   0  0  1  0  0  0  0  0  0  0  0  0
   16.9542   -8.0250  -19.5401 O   0  0  0  0  0  0  0  0  0  0  0  0
   17.1178   -5.6862  -19.6929 C   0  0  1  0  0  0  0  0  0  0  0  0
   18.4693   -5.6543  -20.1544 O   0  0  0  0  0  0  0  0  0  0  0  0
   16.1961   -6.1623  -20.8129 C   0  0  1  0  0  0  0  0  0  0  0  0
   16.5754   -5.5137  -22.0280 O   0  0  0  0  0  0  0  0  0  0  0  0
   16.6152   -7.6315  -20.8819 C   0  0  2  0  0  0  0  0  0  0  0  0
   12.7800   -4.9235  -17.5763 O   0  0  0  0  0  0  0  0  0  0  0  0
   14.0442   -9.0743  -25.1190 N   0  0  0  0  0  0  0  0  0  0  0  0
   15.0351   -8.2065  -25.0067 C   0  0  0  0  0  0  0  0  0  0  0  0
   15.5994   -7.9404  -23.8416 N   0  0  0  0  0  0  0  0  0  0  0  0
   15.1800   -8.5534  -22.7244 C   0  0  0  0  0  0  0  0  0  0  0  0
   14.1406   -9.4697  -22.8022 C   0  0  0  0  0  0  0  0  0  0  0  0
   13.5708   -9.7194  -24.0452 C   0  0  0  0  0  0  0  0  0  0  0  0
   12.5478  -10.5613  -24.1540 N   0  0  0  0  0  0  0  0  0  0  0  0
   13.9154   -9.9288  -21.5763 N   0  0  0  0  0  0  0  0  0  0  0  0
   14.7760   -9.3278  -20.7580 C   0  0  0  0  0  0  0  0  0  0  0  0
   15.5489   -8.4898  -21.4492 N   0  0  0  0  0  0  0  0  0  0  0  0
  2  1  1  6  0  0  0
  2  5  1  0  0  0  0
  2  3  1  0  0  0  0
  3 17  1  0  0  0  0
  3  4  1  0  0  0  0
  5  6  1  0  0  0  0
  7  8  1  0  0  0  0
  8  6  1  1  0  0  0
  8  9  1  0  0  0  0
 10  9  1  6  0  0  0
 10 11  1  0  0  0  0
 10 12  1  0  0  0  0
 11 16  1  0  0  0  0
 12 13  1  6  0  0  0
 12 14  1  0  0  0  0
 14 15  1  6  0  0  0
 14 16  1  0  0  0  0
 16 27  1  1  0  0  0
 18 23  2  0  0  0  0
 18 19  1  0  0  0  0
 19 20  2  0  0  0  0
 20 21  1  0  0  0  0
 21 22  2  0  0  0  0
 21 27  1  0  0  0  0
 22 23  1  0  0  0  0
 22 25  1  0  0  0  0
 23 24  1  0  0  0  0
 25 26  2  0  0  0  0
 26 27  1  0  0  0  0
M  END
>  <CHROM.1>
-174.29817416,-37.45710701,-119.64763727,169.83462338,-163.54947070,52.04116411
-166.96320216,14.72366330,-7.64916787,-19.95664241,1.57751458,0.29531294
1.32504755

>  <Name>
ligand

>  <RI>
0

>  <Rbt.Current_Directory>
/home/itssahil/PROJECTS/Mol_Feturizer/New_Systems/rnas/3E5F

>  <Rbt.Executable>
rbdock ($Id: //depot/dev/client3/rdock/2013.1/src/exe/rbdock.cxx#4 $)

>  <Rbt.Library>
libRbt.so (2013.1, Build901 2013/11/27)

>  <Rbt.Parameter_File>
/export/apps/rDock/src/rDock_2013.1_src/data/scripts/dock_solv.prm

>  <Rbt.Receptor>
prm/pocket_docking_3.prm

>  <SCORE>
-10.0137

>  <SCORE.INTER>
-10.4702

>  <SCORE.INTER.CONST>
1

>  <SCORE.INTER.POLAR>
0

>  <SCORE.INTER.ROT>
7

>  <SCORE.INTER.SOLV>
16.2871

>  <SCORE.INTER.VDW>
-20.6759

>  <SCORE.INTER.norm>
-0.387786

>  <SCORE.INTRA>
0.449839

>  <SCORE.INTRA.DIHEDRAL>
4.64926

>  <SCORE.INTRA.DIHEDRAL.0>
4.89803

>  <SCORE.INTRA.POLAR>
0

>  <SCORE.INTRA.POLAR.0>
0

>  <SCORE.INTRA.REPUL>
0

>  <SCORE.INTRA.REPUL.0>
0

>  <SCORE.INTRA.SOLV>
0.119766

>  <SCORE.INTRA.SOLV.lig_0>
-48.5832

>  <SCORE.INTRA.VDW>
-1.93467

>  <SCORE.INTRA.VDW.0>
-2.39056

>  <SCORE.INTRA.norm>
0.0166607

>  <SCORE.RESTR>
0.00673392

>  <SCORE.RESTR.CAVITY>
0.00673392

>  <SCORE.RESTR.norm>
0.000249405

>  <SCORE.SYSTEM>
0

>  <SCORE.SYSTEM.CONST>
0

>  <SCORE.SYSTEM.DIHEDRAL>
0

>  <SCORE.SYSTEM.SOLV>
0

>  <SCORE.SYSTEM.norm>
0

>  <SCORE.heavy>
27

>  <SCORE.norm>
-0.370876

>  <RMSD>
4.751

$$$$
ligand
 OpenBabel11021811473D
libRbt.so/2013.1/901 2013/11/27
 27 29  0  0  0  0  0  0  0  0999 V2000
   13.6202   -3.6957  -16.1971 N   0  0  0  0  0  0  0  0  0  0  0  0
   12.2847   -3.2721  -16.6430 C   0  0  2  0  0  0  0  0  0  0  0  0
   11.2864   -3.3896  -15.4873 C   0  0  0  0  0  0  0  0  0  0  0  0
   10.4082   -2.5034  -15.4044 O   0  0  0  0  0  0  0  0  0  0  0  0
   11.8367   -4.1795  -17.7901 C   0  0  0  0  0  0  0  0  0  0  0  0
   12.4991   -3.7980  -19.1165 C   0  0  0  0  0  0  0  0  0  0  0  0
   14.8544   -3.3610  -20.6436 C   0  0  0  0  0  0  0  0  0  0  0  0
   14.3111   -4.2115  -19.0986 Se  0  0  2  0  0  0  0  0  0  0  0  0
   14.4828   -6.0003  -19.5749 C   0  0  0  0  0  0  0  0  0  0  0  0
   15.9346   -6.4707  -19.6738 C   0  0  1  0  0  0  0  0  0  0  0  0
   15.9369   -7.8967  -19.8589 O   0  0  0  0  0  0  0  0  0  0  0  0
   16.5050   -5.9099  -20.9771 C   0  0  1  0  0  0  0  0  0  0  0  0
   17.9107   -6.1579  -21.0309 O   0  0  0  0  0  0  0  0  0  0  0  0
   15.7785   -6.8122  -21.9714 C   0  0  1  0  0  0  0  0  0  0  0  0
   16.5077   -6.8239  -23.2000 O   0  0  0  0  0  0  0  0  0  0  0  0
   15.9597   -8.1606  -21.2731 C   0  0  2  0  0  0  0  0  0  0  0  0
   11.4283   -4.3564  -14.7065 O   0  0  0  0  0  0  0  0  0  0  0  0
   12.9715   -9.9880  -25.0647 N   0  0  0  0  0  0  0  0  0  0  0  0
   13.8773   -9.0264  -25.1144 C   0  0  0  0  0  0  0  0  0  0  0  0
   14.5714   -8.6674  -24.0485 N   0  0  0  0  0  0  0  0  0  0  0  0
   14.3771   -9.2785  -22.8701 C   0  0  0  0  0  0  0  0  0  0  0  0
   13.4332  -10.2917  -22.7784 C   0  0  0  0  0  0  0  0  0  0  0  0
   12.7211  -10.6376  -23.9207 C   0  0  0  0  0  0  0  0  0  0  0  0
   11.7816  -11.5764  -23.8635 N   0  0  0  0  0  0  0  0  0  0  0  0
   13.4304  -10.7274  -21.5235 N   0  0  0  0  0  0  0  0  0  0  0  0
   14.3340  -10.0191  -20.8504 C   0  0  0  0  0  0  0  0  0  0  0  0
   14.9144   -9.1358  -21.6629 N   0  0  0  0  0  0  0  0  0  0  0  0
  2  1  1  1  0  0  0
  2  5  1  0  0  0  0
  2  3  1  0  0  0  0
  3 17  1  0  0  0  0
  3  4  1  0  0  0  0
  5  6  1  0  0  0  0
  7  8  1  0  0  0  0
  8  6  1  6  0  0  0
  8  9  1  0  0  0  0
 10  9  1  6  0  0  0
 10 11  1  0  0  0  0
 10 12  1  0  0  0  0
 11 16  1  0  0  0  0
 12 13  1  1  0  0  0
 12 14  1  0  0  0  0
 14 15  1  6  0  0  0
 14 16  1  0  0  0  0
 16 27  1  1  0  0  0
 18 23  2  0  0  0  0
 18 19  1  0  0  0  0
 19 20  2  0  0  0  0
 20 21  1  0  0  0  0
 21 22  2  0  0  0  0
 21 27  1  0  0  0  0
 22 23  1  0  0  0  0
 22 25  1  0  0  0  0
 23 24  1  0  0  0  0
 25 26  2  0  0  0  0
 26 27  1  0  0  0  0
M  END
>  <CHROM.1>
-78.19878425,142.80567224,70.06316305,-169.76568521,177.03543278,171.98244921
156.82436824,14.06020603,-6.42015443,-20.24898247,-1.77039467,-0.44263914
-2.41275165

>  <Name>
ligand

>  <RI>
0

>  <Rbt.Current_Directory>
/home/itssahil/PROJECTS/Mol_Feturizer/New_Systems/rnas/3E5F

>  <Rbt.Executable>
rbdock ($Id: //depot/dev/client3/rdock/2013.1/src/exe/rbdock.cxx#4 $)

>  <Rbt.Library>
libRbt.so (2013.1, Build901 2013/11/27)

>  <Rbt.Parameter_File>
/export/apps/rDock/src/rDock_2013.1_src/data/scripts/dock_solv.prm

>  <Rbt.Receptor>
prm/pocket_docking_6.prm

>  <SCORE>
-12.0077

>  <SCORE.INTER>
-13.4054

>  <SCORE.INTER.CONST>
1

>  <SCORE.INTER.POLAR>
0

>  <SCORE.INTER.ROT>
7

>  <SCORE.INTER.SOLV>
10.7515

>  <SCORE.INTER.VDW>
-20.7874

>  <SCORE.INTER.norm>
-0.496495

>  <SCORE.INTRA>
1.39771

>  <SCORE.INTRA.DIHEDRAL>
0.372686

>  <SCORE.INTRA.DIHEDRAL.0>
4.89803

>  <SCORE.INTRA.POLAR>
0

>  <SCORE.INTRA.POLAR.0>
0

>  <SCORE.INTRA.REPUL>
0

>  <SCORE.INTRA.REPUL.0>
0

>  <SCORE.INTRA.SOLV>
1.81914

>  <SCORE.INTRA.SOLV.lig_0>
-48.5832

>  <SCORE.INTRA.VDW>
0.301793

>  <SCORE.INTRA.VDW.0>
-2.39056

>  <SCORE.INTRA.norm>
0.0517669

>  <SCORE.RESTR>
0

>  <SCORE.RESTR.CAVITY>
0

>  <SCORE.RESTR.norm>
0

>  <SCORE.SYSTEM>
0

>  <SCORE.SYSTEM.CONST>
0

>  <SCORE.SYSTEM.DIHEDRAL>
0

>  <SCORE.SYSTEM.SOLV>
0

>  <SCORE.SYSTEM.norm>
0

>  <SCORE.heavy>
27

>  <SCORE.norm>
-0.444728

>  <RMSD>
4.751

$$$$
ligand
 OpenBabel11021811473D
libRbt.so/2013.1/901 2013/11/27
 27 29  0  0  0  0  0  0  0  0999 V2000
   17.0019   -4.8719  -20.6130 N   0  0  0  0  0  0  0  0  0  0  0  0
   15.7999   -5.6603  -20.3041 C   0  0  2  0  0  0  0  0  0  0  0  0
   15.6425   -5.8000  -18.7869 C   0  0  0  0  0  0  0  0  0  0  0  0
   16.5609   -5.3358  -18.0765 O   0  0  0  0  0  0  0  0  0  0  0  0
   15.9483   -7.0502  -20.9255 C   0  0  0  0  0  0  0  0  0  0  0  0
   15.9171   -7.0018  -22.4552 C   0  0  0  0  0  0  0  0  0  0  0  0
   15.1779   -8.2077  -24.9188 C   0  0  0  0  0  0  0  0  0  0  0  0
   15.5195   -8.6725  -23.1659 Se  0  0  2  0  0  0  0  0  0  0  0  0
   13.8251   -9.1480  -22.5668 C   0  0  0  0  0  0  0  0  0  0  0  0
   13.7261  -10.6010  -22.1003 C   0  0  1  0  0  0  0  0  0  0  0  0
   13.3775  -10.6060  -20.7053 O   0  0  0  0  0  0  0  0  0  0  0  0
   12.5186  -11.2217  -22.8037 C   0  0  1  0  0  0  0  0  0  0  0  0
   12.4885  -12.6277  -22.5533 O   0  0  0  0  0  0  0  0  0  0  0  0
   11.4002  -10.5305  -22.0277 C   0  0  1  0  0  0  0  0  0  0  0  0
   10.2064  -11.3053  -22.1528 O   0  0  0  0  0  0  0  0  0  0  0  0
   11.9441  -10.6812  -20.6064 C   0  0  2  0  0  0  0  0  0  0  0  0
   14.6132   -6.3757  -18.3704 O   0  0  0  0  0  0  0  0  0  0  0  0
   11.5714   -5.6458  -19.5338 N   0  0  0  0  0  0  0  0  0  0  0  0
   12.1859   -6.2338  -20.5459 C   0  0  0  0  0  0  0  0  0  0  0  0
   12.1926   -7.5477  -20.6883 N   0  0  0  0  0  0  0  0  0  0  0  0
   11.5651   -8.3336  -19.8004 C   0  0  0  0  0  0  0  0  0  0  0  0
   10.9104   -7.7527  -18.7234 C   0  0  0  0  0  0  0  0  0  0  0  0
   10.9294   -6.3678  -18.6065 C   0  0  0  0  0  0  0  0  0  0  0  0
   10.3467   -5.7770  -17.5680 N   0  0  0  0  0  0  0  0  0  0  0  0
   10.3781   -8.7312  -17.9998 N   0  0  0  0  0  0  0  0  0  0  0  0
   10.6838   -9.8822  -18.5942 C   0  0  0  0  0  0  0  0  0  0  0  0
   11.4055   -9.6484  -19.6905 N   0  0  0  0  0  0  0  0  0  0  0  0
  2  1  1  1  0  0  0
  2  5  1  0  0  0  0
  2  3  1  0  0  0  0
  3 17  1  0  0  0  0
  3  4  1  0  0  0  0
  5  6  1  0  0  0  0
  7  8  1  0  0  0  0
  8  6  1  1  0  0  0
  8  9  1  0  0  0  0
 10  9  1  6  0  0  0
 10 11  1  0  0  0  0
 10 12  1  0  0  0  0
 11 16  1  0  0  0  0
 12 13  1  1  0  0  0
 12 14  1  0  0  0  0
 14 15  1  1  0  0  0
 14 16  1  0  0  0  0
 16 27  1  1  0  0  0
 18 23  2  0  0  0  0
 18 19  1  0  0  0  0
 19 20  2  0  0  0  0
 20 21  1  0  0  0  0
 21 22  2  0  0  0  0
 21 27  1  0  0  0  0
 22 23  1  0  0  0  0
 22 25  1  0  0  0  0
 23 24  1  0  0  0  0
 25 26  2  0  0  0  0
 26 27  1  0  0  0  0
M  END
>  <CHROM.1>
-67.81826667,-4.95593700,-160.72818662,167.64980437,-136.19463023,118.01114884
58.00812296,13.50765512,-8.30569919,-20.97215167,0.35979614,0.53158924,0.75602272

>  <Name>
ligand

>  <RI>
0

>  <Rbt.Current_Directory>
/home/itssahil/PROJECTS/Mol_Feturizer/New_Systems/rnas/3E5F

>  <Rbt.Executable>
rbdock ($Id: //depot/dev/client3/rdock/2013.1/src/exe/rbdock.cxx#4 $)

>  <Rbt.Library>
libRbt.so (2013.1, Build901 2013/11/27)

>  <Rbt.Parameter_File>
/export/apps/rDock/src/rDock_2013.1_src/data/scripts/dock_solv.prm

>  <Rbt.Receptor>
prm/pocket_docking_3.prm

>  <SCORE>
-11.3603

>  <SCORE.INTER>
-13.8539

>  <SCORE.INTER.CONST>
1

>  <SCORE.INTER.POLAR>
0

>  <SCORE.INTER.ROT>
7

>  <SCORE.INTER.SOLV>
10.0108

>  <SCORE.INTER.VDW>
-20.8395

>  <SCORE.INTER.norm>
-0.513107

>  <SCORE.INTRA>
2.47897

>  <SCORE.INTRA.DIHEDRAL>
6.72675

>  <SCORE.INTRA.DIHEDRAL.0>
4.89803

>  <SCORE.INTRA.POLAR>
0

>  <SCORE.INTRA.POLAR.0>
0

>  <SCORE.INTRA.REPUL>
0

>  <SCORE.INTRA.REPUL.0>
0

>  <SCORE.INTRA.SOLV>
0.62733

>  <SCORE.INTRA.SOLV.lig_0>
-48.5832

>  <SCORE.INTRA.VDW>
-1.19807

>  <SCORE.INTRA.VDW.0>
-2.39056

>  <SCORE.INTRA.norm>
0.0918137

>  <SCORE.RESTR>
0.0145925

>  <SCORE.RESTR.CAVITY>
0.0145925

>  <SCORE.RESTR.norm>
0.000540461

>  <SCORE.SYSTEM>
0

>  <SCORE.SYSTEM.CONST>
0

>  <SCORE.SYSTEM.DIHEDRAL>
0

>  <SCORE.SYSTEM.SOLV>
0

>  <SCORE.SYSTEM.norm>
0

>  <SCORE.heavy>
27

>  <SCORE.norm>
-0.420753

>  <RMSD>
4.757

$$$$
ligand
 OpenBabel11021811473D
libRbt.so/2013.1/901 2013/11/27
 27 29  0  0  0  0  0  0  0  0999 V2000
   15.5353   -6.2657  -19.5284 N   0  0  0  0  0  0  0  0  0  0  0  0
   16.2954   -7.5233  -19.4789 C   0  0  2  0  0  0  0  0  0  0  0  0
   17.6943   -7.2662  -18.9103 C   0  0  0  0  0  0  0  0  0  0  0  0
   18.3153   -6.2776  -19.3582 O   0  0  0  0  0  0  0  0  0  0  0  0
   16.4227   -8.0790  -20.8984 C   0  0  0  0  0  0  0  0  0  0  0  0
   15.0597   -8.4210  -21.5056 C   0  0  0  0  0  0  0  0  0  0  0  0
   15.5100   -7.4413  -24.1339 C   0  0  0  0  0  0  0  0  0  0  0  0
   15.2440   -9.0387  -23.2489 Se  0  0  2  0  0  0  0  0  0  0  0  0
   13.5544   -9.5253  -23.8530 C   0  0  0  0  0  0  0  0  0  0  0  0
   13.3589  -11.0373  -23.9717 C   0  0  1  0  0  0  0  0  0  0  0  0
   13.6487  -11.6331  -22.6955 O   0  0  0  0  0  0  0  0  0  0  0  0
   11.8652  -11.2859  -24.1850 C   0  0  1  0  0  0  0  0  0  0  0  0
   11.6476  -12.6640  -24.4914 O   0  0  0  0  0  0  0  0  0  0  0  0
   11.3617  -10.9797  -22.7767 C   0  0  1  0  0  0  0  0  0  0  0  0
   10.0950  -11.6144  -22.5928 O   0  0  0  0  0  0  0  0  0  0  0  0
   12.4159  -11.7279  -21.9598 C   0  0  2  0  0  0  0  0  0  0  0  0
   18.1163   -8.0680  -18.0481 O   0  0  0  0  0  0  0  0  0  0  0  0
   12.1044   -7.5524  -18.9411 N   0  0  0  0  0  0  0  0  0  0  0  0
   11.8713   -7.6559  -20.2382 C   0  0  0  0  0  0  0  0  0  0  0  0
   11.9930   -8.8058  -20.8782 N   0  0  0  0  0  0  0  0  0  0  0  0
   12.3582   -9.9171  -20.2213 C   0  0  0  0  0  0  0  0  0  0  0  0
   12.6132   -9.8474  -18.8589 C   0  0  0  0  0  0  0  0  0  0  0  0
   12.4779   -8.6191  -18.2228 C   0  0  0  0  0  0  0  0  0  0  0  0
   12.7508   -8.5044  -16.9268 N   0  0  0  0  0  0  0  0  0  0  0  0
   12.9537  -11.0644  -18.4499 N   0  0  0  0  0  0  0  0  0  0  0  0
   12.9160  -11.8694  -19.5092 C   0  0  0  0  0  0  0  0  0  0  0  0
   12.5542  -11.1787  -20.5905 N   0  0  0  0  0  0  0  0  0  0  0  0
  2  1  1  6  0  0  0
  2  5  1  0  0  0  0
  2  3  1  0  0  0  0
  3 17  1  0  0  0  0
  3  4  1  0  0  0  0
  5  6  1  0  0  0  0
  7  8  1  0  0  0  0
  8  6  1  1  0  0  0
  8  9  1  0  0  0  0
 10  9  1  1  0  0  0
 10 11  1  0  0  0  0
 10 12  1  0  0  0  0
 11 16  1  0  0  0  0
 12 13  1  1  0  0  0
 12 14  1  0  0  0  0
 14 15  1  6  0  0  0
 14 16  1  0  0  0  0
 16 27  1  1  0  0  0
 18 23  2  0  0  0  0
 18 19  1  0  0  0  0
 19 20  2  0  0  0  0
 20 21  1  0  0  0  0
 21 22  2  0  0  0  0
 21 27  1  0  0  0  0
 22 23  1  0  0  0  0
 22 25  1  0  0  0  0
 23 24  1  0  0  0  0
 25 26  2  0  0  0  0
 26 27  1  0  0  0  0
M  END
>  <CHROM.1>
-62.61398226,-45.61018012,178.08101566,-77.77444599,-107.86517245,55.77610525
88.99150908,13.99319500,-9.35153491,-21.29977814,0.72972091,0.55816647,1.29508670

>  <Name>
ligand

>  <RI>
0

>  <Rbt.Current_Directory>
/home/itssahil/PROJECTS/Mol_Feturizer/New_Systems/rnas/3E5F

>  <Rbt.Executable>
rbdock ($Id: //depot/dev/client3/rdock/2013.1/src/exe/rbdock.cxx#4 $)

>  <Rbt.Library>
libRbt.so (2013.1, Build901 2013/11/27)

>  <Rbt.Parameter_File>
/export/apps/rDock/src/rDock_2013.1_src/data/scripts/dock_solv.prm

>  <Rbt.Receptor>
prm/pocket_docking_6.prm

>  <SCORE>
-18.9386

>  <SCORE.INTER>
-17.804

>  <SCORE.INTER.CONST>
1

>  <SCORE.INTER.POLAR>
0

>  <SCORE.INTER.ROT>
7

>  <SCORE.INTER.SOLV>
8.47606

>  <SCORE.INTER.VDW>
-22.9613

>  <SCORE.INTER.norm>
-0.659406

>  <SCORE.INTRA>
-1.13461

>  <SCORE.INTRA.DIHEDRAL>
-0.0529269

>  <SCORE.INTRA.DIHEDRAL.0>
4.89803

>  <SCORE.INTRA.POLAR>
0

>  <SCORE.INTRA.POLAR.0>
0

>  <SCORE.INTRA.REPUL>
0

>  <SCORE.INTRA.REPUL.0>
0

>  <SCORE.INTRA.SOLV>
1.06227

>  <SCORE.INTRA.SOLV.lig_0>
-48.5832

>  <SCORE.INTRA.VDW>
-1.63928

>  <SCORE.INTRA.VDW.0>
-2.39056

>  <SCORE.INTRA.norm>
-0.0420226

>  <SCORE.RESTR>
0

>  <SCORE.RESTR.CAVITY>
0

>  <SCORE.RESTR.norm>
0

>  <SCORE.SYSTEM>
0

>  <SCORE.SYSTEM.CONST>
0

>  <SCORE.SYSTEM.DIHEDRAL>
0

>  <SCORE.SYSTEM.SOLV>
0

>  <SCORE.SYSTEM.norm>
0

>  <SCORE.heavy>
27

>  <SCORE.norm>
-0.701429

>  <RMSD>
4.762

$$$$
ligand
 OpenBabel11021811473D
libRbt.so/2013.1/901 2013/11/27
 27 29  0  0  0  0  0  0  0  0999 V2000
    7.8687   -9.0868  -18.2316 N   0  0  0  0  0  0  0  0  0  0  0  0
    8.7803   -8.6105  -17.1809 C   0  0  2  0  0  0  0  0  0  0  0  0
    8.2824   -7.2731  -16.6243 C   0  0  0  0  0  0  0  0  0  0  0  0
    7.8686   -6.4330  -17.4529 O   0  0  0  0  0  0  0  0  0  0  0  0
   10.1722   -8.4179  -17.7853 C   0  0  0  0  0  0  0  0  0  0  0  0
   10.7551   -9.7307  -18.3147 C   0  0  0  0  0  0  0  0  0  0  0  0
    8.9261  -11.4843  -19.5993 C   0  0  0  0  0  0  0  0  0  0  0  0
   10.0952  -10.1165  -20.0089 Se  0  0  2  0  0  0  0  0  0  0  0  0
   11.4260  -11.0254  -20.9356 C   0  0  0  0  0  0  0  0  0  0  0  0
   11.0206  -11.4236  -22.3554 C   0  0  1  0  0  0  0  0  0  0  0  0
   11.4563  -10.3916  -23.2569 O   0  0  0  0  0  0  0  0  0  0  0  0
   11.8522  -12.6485  -22.7377 C   0  0  1  0  0  0  0  0  0  0  0  0
   11.3826  -13.1786  -23.9782 O   0  0  0  0  0  0  0  0  0  0  0  0
   13.2063  -11.9729  -22.9392 C   0  0  1  0  0  0  0  0  0  0  0  0
   14.0160  -12.8045  -23.7723 O   0  0  0  0  0  0  0  0  0  0  0  0
   12.7641  -10.7474  -23.7399 C   0  0  2  0  0  0  0  0  0  0  0  0
    8.3349   -7.1157  -15.3846 O   0  0  0  0  0  0  0  0  0  0  0  0
   15.8594   -8.0650  -20.5985 N   0  0  0  0  0  0  0  0  0  0  0  0
   15.1053   -9.1144  -20.3203 C   0  0  0  0  0  0  0  0  0  0  0  0
   14.3601   -9.7006  -21.2410 N   0  0  0  0  0  0  0  0  0  0  0  0
   14.3495   -9.2440  -22.5025 C   0  0  0  0  0  0  0  0  0  0  0  0
   15.1270   -8.1428  -22.8324 C   0  0  0  0  0  0  0  0  0  0  0  0
   15.8939   -7.5520  -21.8351 C   0  0  0  0  0  0  0  0  0  0  0  0
   16.6216   -6.4724  -22.1033 N   0  0  0  0  0  0  0  0  0  0  0  0
   14.9421   -7.8912  -24.1235 N   0  0  0  0  0  0  0  0  0  0  0  0
   14.0835   -8.7948  -24.5899 C   0  0  0  0  0  0  0  0  0  0  0  0
   13.7186   -9.6215  -23.6097 N   0  0  0  0  0  0  0  0  0  0  0  0
  2  1  1  6  0  0  0
  2  5  1  0  0  0  0
  2  3  1  0  0  0  0
  3 17  1  0  0  0  0
  3  4  1  0  0  0  0
  5  6  1  0  0  0  0
  7  8  1  0  0  0  0
  8  6  1  1  0  0  0
  8  9  1  0  0  0  0
 10  9  1  1  0  0  0
 10 11  1  0  0  0  0
 10 12  1  0  0  0  0
 11 16  1  0  0  0  0
 12 13  1  6  0  0  0
 12 14  1  0  0  0  0
 14 15  1  6  0  0  0
 14 16  1  0  0  0  0
 16 27  1  1  0  0  0
 18 23  2  0  0  0  0
 18 19  1  0  0  0  0
 19 20  2  0  0  0  0
 20 21  1  0  0  0  0
 21 22  2  0  0  0  0
 21 27  1  0  0  0  0
 22 23  1  0  0  0  0
 22 25  1  0  0  0  0
 23 24  1  0  0  0  0
 25 26  2  0  0  0  0
 26 27  1  0  0  0  0
M  END
>  <CHROM.1>
-62.14641579,-42.71289534,81.80563398,-106.07445243,179.50325439,93.46136803
79.40128322,11.77064674,-9.63877820,-20.85644737,2.51771894,0.52731973,0.72546698

>  <Name>
ligand

>  <RI>
0

>  <Rbt.Current_Directory>
/home/itssahil/PROJECTS/Mol_Feturizer/New_Systems/rnas/3E5F

>  <Rbt.Executable>
rbdock ($Id: //depot/dev/client3/rdock/2013.1/src/exe/rbdock.cxx#4 $)

>  <Rbt.Library>
libRbt.so (2013.1, Build901 2013/11/27)

>  <Rbt.Parameter_File>
/export/apps/rDock/src/rDock_2013.1_src/data/scripts/dock_solv.prm

>  <Rbt.Receptor>
prm/pocket_docking_8.prm

>  <SCORE>
-12.4541

>  <SCORE.INTER>
-15.8126

>  <SCORE.INTER.CONST>
1

>  <SCORE.INTER.POLAR>
0

>  <SCORE.INTER.ROT>
7

>  <SCORE.INTER.SOLV>
13.8252

>  <SCORE.INTER.VDW>
-23.4168

>  <SCORE.INTER.norm>
-0.585651

>  <SCORE.INTRA>
3.3585

>  <SCORE.INTRA.DIHEDRAL>
4.34647

>  <SCORE.INTRA.DIHEDRAL.0>
4.89803

>  <SCORE.INTRA.POLAR>
0

>  <SCORE.INTRA.POLAR.0>
0

>  <SCORE.INTRA.REPUL>
0

>  <SCORE.INTRA.REPUL.0>
0

>  <SCORE.INTRA.SOLV>
2.54512

>  <SCORE.INTRA.SOLV.lig_0>
-48.5832

>  <SCORE.INTRA.VDW>
-0.087292

>  <SCORE.INTRA.VDW.0>
-2.39056

>  <SCORE.INTRA.norm>
0.124389

>  <SCORE.RESTR>
0

>  <SCORE.RESTR.CAVITY>
0

>  <SCORE.RESTR.norm>
0

>  <SCORE.SYSTEM>
0

>  <SCORE.SYSTEM.CONST>
0

>  <SCORE.SYSTEM.DIHEDRAL>
0

>  <SCORE.SYSTEM.SOLV>
0

>  <SCORE.SYSTEM.norm>
0

>  <SCORE.heavy>
27

>  <SCORE.norm>
-0.461262

>  <RMSD>
4.777

$$$$
ligand
 OpenBabel11021811473D
libRbt.so/2013.1/901 2013/11/27
 27 29  0  0  0  0  0  0  0  0999 V2000
   16.9838   -6.4962  -18.3146 N   0  0  0  0  0  0  0  0  0  0  0  0
   16.2496   -7.0723  -19.4508 C   0  0  2  0  0  0  0  0  0  0  0  0
   17.2236   -7.7820  -20.3963 C   0  0  0  0  0  0  0  0  0  0  0  0
   18.1475   -7.0924  -20.8806 O   0  0  0  0  0  0  0  0  0  0  0  0
   15.5456   -5.9439  -20.2065 C   0  0  0  0  0  0  0  0  0  0  0  0
   14.1500   -5.6600  -19.6451 C   0  0  0  0  0  0  0  0  0  0  0  0
   11.3481   -6.1277  -19.6765 C   0  0  0  0  0  0  0  0  0  0  0  0
   12.8325   -6.3734  -20.7450 Se  0  0  2  0  0  0  0  0  0  0  0  0
   13.0160   -8.2231  -20.7128 C   0  0  0  0  0  0  0  0  0  0  0  0
   14.3235   -8.7193  -21.3314 C   0  0  1  0  0  0  0  0  0  0  0  0
   14.2955  -10.1568  -21.3569 O   0  0  0  0  0  0  0  0  0  0  0  0
   14.3144   -8.3055  -22.8035 C   0  0  1  0  0  0  0  0  0  0  0  0
   15.5908   -8.5752  -23.3852 O   0  0  0  0  0  0  0  0  0  0  0  0
   13.2813   -9.2980  -23.3312 C   0  0  1  0  0  0  0  0  0  0  0  0
   13.4647   -9.4475  -24.7402 O   0  0  0  0  0  0  0  0  0  0  0  0
   13.7647  -10.5678  -22.6295 C   0  0  2  0  0  0  0  0  0  0  0  0
   17.0184   -8.9949  -20.6220 O   0  0  0  0  0  0  0  0  0  0  0  0
    9.5550  -11.9750  -19.9947 N   0  0  0  0  0  0  0  0  0  0  0  0
   10.3173  -10.9078  -19.8292 C   0  0  0  0  0  0  0  0  0  0  0  0
   11.3726  -10.6806  -20.5916 N   0  0  0  0  0  0  0  0  0  0  0  0
   11.7038  -11.5357  -21.5710 C   0  0  0  0  0  0  0  0  0  0  0  0
   10.9282  -12.6685  -21.7740 C   0  0  0  0  0  0  0  0  0  0  0  0
    9.8288  -12.8739  -20.9488 C   0  0  0  0  0  0  0  0  0  0  0  0
    9.0845  -13.9666  -21.0874 N   0  0  0  0  0  0  0  0  0  0  0  0
   11.4589  -13.3440  -22.7872 N   0  0  0  0  0  0  0  0  0  0  0  0
   12.5253  -12.6669  -23.2066 C   0  0  0  0  0  0  0  0  0  0  0  0
   12.6805  -11.5654  -22.4718 N   0  0  0  0  0  0  0  0  0  0  0  0
  2  1  1  1  0  0  0
  2  5  1  0  0  0  0
  2  3  1  0  0  0  0
  3 17  1  0  0  0  0
  3  4  1  0  0  0  0
  5  6  1  0  0  0  0
  7  8  1  0  0  0  0
  8  6  1  1  0  0  0
  8  9  1  0  0  0  0
 10  9  1  1  0  0  0
 10 11  1  0  0  0  0
 10 12  1  0  0  0  0
 11 16  1  0  0  0  0
 12 13  1  6  0  0  0
 12 14  1  0  0  0  0
 14 15  1  6  0  0  0
 14 16  1  0  0  0  0
 16 27  1  1  0  0  0
 18 23  2  0  0  0  0
 18 19  1  0  0  0  0
 19 20  2  0  0  0  0
 20 21  1  0  0  0  0
 21 22  2  0  0  0  0
 21 27  1  0  0  0  0
 22 23  1  0  0  0  0
 22 25  1  0  0  0  0
 23 24  1  0  0  0  0
 25 26  2  0  0  0  0
 26 27  1  0  0  0  0
M  END
>  <CHROM.1>
-88.57217178,-58.29677678,-103.43973921,170.77158387,-65.45936716,-174.90936956
42.19683015,13.36280116,-8.98498218,-21.20796652,-0.86068496,-0.29714736
-2.66849875

>  <Name>
ligand

>  <RI>
0

>  <Rbt.Current_Directory>
/home/itssahil/PROJECTS/Mol_Feturizer/New_Systems/rnas/3E5F

>  <Rbt.Executable>
rbdock ($Id: //depot/dev/client3/rdock/2013.1/src/exe/rbdock.cxx#4 $)

>  <Rbt.Library>
libRbt.so (2013.1, Build901 2013/11/27)

>  <Rbt.Parameter_File>
/export/apps/rDock/src/rDock_2013.1_src/data/scripts/dock_solv.prm

>  <Rbt.Receptor>
prm/pocket_docking_4.prm

>  <SCORE>
-8.65549

>  <SCORE.INTER>
-10.1684

>  <SCORE.INTER.CONST>
1

>  <SCORE.INTER.POLAR>
0

>  <SCORE.INTER.ROT>
7

>  <SCORE.INTER.SOLV>
9.41668

>  <SCORE.INTER.VDW>
-18.1845

>  <SCORE.INTER.norm>
-0.376608

>  <SCORE.INTRA>
1.51292

>  <SCORE.INTRA.DIHEDRAL>
5.45711

>  <SCORE.INTRA.DIHEDRAL.0>
4.89803

>  <SCORE.INTRA.POLAR>
0

>  <SCORE.INTRA.POLAR.0>
0

>  <SCORE.INTRA.REPUL>
0

>  <SCORE.INTRA.REPUL.0>
0

>  <SCORE.INTRA.SOLV>
0.974653

>  <SCORE.INTRA.SOLV.lig_0>
-48.5832

>  <SCORE.INTRA.VDW>
-1.70296

>  <SCORE.INTRA.VDW.0>
-2.39056

>  <SCORE.INTRA.norm>
0.0560342

>  <SCORE.RESTR>
0

>  <SCORE.RESTR.CAVITY>
0

>  <SCORE.RESTR.norm>
0

>  <SCORE.SYSTEM>
0

>  <SCORE.SYSTEM.CONST>
0

>  <SCORE.SYSTEM.DIHEDRAL>
0

>  <SCORE.SYSTEM.SOLV>
0

>  <SCORE.SYSTEM.norm>
0

>  <SCORE.heavy>
27

>  <SCORE.norm>
-0.320574

>  <RMSD>
4.783

$$$$
ligand
 OpenBabel11021811473D
libRbt.so/2013.1/901 2013/11/27
 27 29  0  0  0  0  0  0  0  0999 V2000
   12.2775   -4.5236  -16.3853 N   0  0  0  0  0  0  0  0  0  0  0  0
   12.7991   -3.4625  -17.2592 C   0  0  2  0  0  0  0  0  0  0  0  0
   12.5544   -2.0921  -16.6202 C   0  0  0  0  0  0  0  0  0  0  0  0
   13.4709   -1.2476  -16.7214 O   0  0  0  0  0  0  0  0  0  0  0  0
   12.0721   -3.5288  -18.6035 C   0  0  0  0  0  0  0  0  0  0  0  0
   12.2403   -4.8913  -19.2809 C   0  0  0  0  0  0  0  0  0  0  0  0
   14.3284   -3.9528  -20.9631 C   0  0  0  0  0  0  0  0  0  0  0  0
   14.0277   -5.2280  -19.6635 Se  0  0  2  0  0  0  0  0  0  0  0  0
   14.1027   -6.7989  -20.6549 C   0  0  0  0  0  0  0  0  0  0  0  0
   15.5276   -7.2690  -20.9501 C   0  0  1  0  0  0  0  0  0  0  0  0
   15.4616   -8.5945  -21.5038 O   0  0  0  0  0  0  0  0  0  0  0  0
   16.0652   -6.4002  -22.0878 C   0  0  1  0  0  0  0  0  0  0  0  0
   17.4555   -6.6665  -22.2785 O   0  0  0  0  0  0  0  0  0  0  0  0
   15.2594   -6.9849  -23.2451 C   0  0  1  0  0  0  0  0  0  0  0  0
   15.9343   -6.6923  -24.4699 O   0  0  0  0  0  0  0  0  0  0  0  0
   15.4128   -8.4749  -22.9367 C   0  0  2  0  0  0  0  0  0  0  0  0
   11.4614   -1.9215  -16.0365 O   0  0  0  0  0  0  0  0  0  0  0  0
   12.2982  -12.5511  -22.3638 N   0  0  0  0  0  0  0  0  0  0  0  0
   13.2363  -12.1042  -21.5466 C   0  0  0  0  0  0  0  0  0  0  0  0
   13.9583  -11.0350  -21.8333 N   0  0  0  0  0  0  0  0  0  0  0  0
   13.7556  -10.3608  -22.9754 C   0  0  0  0  0  0  0  0  0  0  0  0
   12.7806  -10.8009  -23.8595 C   0  0  0  0  0  0  0  0  0  0  0  0
   12.0451  -11.9315  -23.5237 C   0  0  0  0  0  0  0  0  0  0  0  0
   11.1293  -12.4060  -24.3624 N   0  0  0  0  0  0  0  0  0  0  0  0
   12.7783   -9.9757  -24.9003 N   0  0  0  0  0  0  0  0  0  0  0  0
   13.7128   -9.0531  -24.6835 C   0  0  0  0  0  0  0  0  0  0  0  0
   14.3115   -9.2806  -23.5142 N   0  0  0  0  0  0  0  0  0  0  0  0
  2  1  1  1  0  0  0
  2  5  1  0  0  0  0
  2  3  1  0  0  0  0
  3 17  1  0  0  0  0
  3  4  1  0  0  0  0
  5  6  1  0  0  0  0
  7  8  1  0  0  0  0
  8  6  1  6  0  0  0
  8  9  1  0  0  0  0
 10  9  1  6  0  0  0
 10 11  1  0  0  0  0
 10 12  1  0  0  0  0
 11 16  1  0  0  0  0
 12 13  1  6  0  0  0
 12 14  1  0  0  0  0
 14 15  1  6  0  0  0
 14 16  1  0  0  0  0
 16 27  1  1  0  0  0
 18 23  2  0  0  0  0
 18 19  1  0  0  0  0
 19 20  2  0  0  0  0
 20 21  1  0  0  0  0
 21 22  2  0  0  0  0
 21 27  1  0  0  0  0
 22 23  1  0  0  0  0
 22 25  1  0  0  0  0
 23 24  1  0  0  0  0
 25 26  2  0  0  0  0
 26 27  1  0  0  0  0
M  END
>  <CHROM.1>
-58.27886416,139.90402265,-62.28000806,-67.70497618,-175.28951257,169.90143907
-25.21598162,13.79590543,-6.91992033,-20.94609697,1.63600232,0.63586712,0.62305251

>  <Name>
ligand

>  <RI>
0

>  <Rbt.Current_Directory>
/home/itssahil/PROJECTS/Mol_Feturizer/New_Systems/rnas/3E5F

>  <Rbt.Executable>
rbdock ($Id: //depot/dev/client3/rdock/2013.1/src/exe/rbdock.cxx#4 $)

>  <Rbt.Library>
libRbt.so (2013.1, Build901 2013/11/27)

>  <Rbt.Parameter_File>
/export/apps/rDock/src/rDock_2013.1_src/data/scripts/dock_solv.prm

>  <Rbt.Receptor>
prm/pocket_docking_6.prm

>  <SCORE>
-15.8298

>  <SCORE.INTER>
-16.187

>  <SCORE.INTER.CONST>
1

>  <SCORE.INTER.POLAR>
0

>  <SCORE.INTER.ROT>
7

>  <SCORE.INTER.SOLV>
12.6132

>  <SCORE.INTER.VDW>
-23.2624

>  <SCORE.INTER.norm>
-0.599519

>  <SCORE.INTRA>
0.357246

>  <SCORE.INTRA.DIHEDRAL>
-1.37968

>  <SCORE.INTRA.DIHEDRAL.0>
4.89803

>  <SCORE.INTRA.POLAR>
0

>  <SCORE.INTRA.POLAR.0>
0

>  <SCORE.INTRA.REPUL>
0

>  <SCORE.INTRA.REPUL.0>
0

>  <SCORE.INTRA.SOLV>
0.971092

>  <SCORE.INTRA.SOLV.lig_0>
-48.5832

>  <SCORE.INTRA.VDW>
0.561541

>  <SCORE.INTRA.VDW.0>
-2.39056

>  <SCORE.INTRA.norm>
0.0132313

>  <SCORE.RESTR>
0

>  <SCORE.RESTR.CAVITY>
0

>  <SCORE.RESTR.norm>
0

>  <SCORE.SYSTEM>
0

>  <SCORE.SYSTEM.CONST>
0

>  <SCORE.SYSTEM.DIHEDRAL>
0

>  <SCORE.SYSTEM.SOLV>
0

>  <SCORE.SYSTEM.norm>
0

>  <SCORE.heavy>
27

>  <SCORE.norm>
-0.586287

>  <RMSD>
4.783

$$$$
ligand
 OpenBabel11021811473D
libRbt.so/2013.1/901 2013/11/27
 27 29  0  0  0  0  0  0  0  0999 V2000
   11.4938   -6.2203  -18.4283 N   0  0  0  0  0  0  0  0  0  0  0  0
   12.9030   -5.8408  -18.6068 C   0  0  2  0  0  0  0  0  0  0  0  0
   13.5232   -5.4832  -17.2526 C   0  0  0  0  0  0  0  0  0  0  0  0
   14.7129   -5.8204  -17.0672 O   0  0  0  0  0  0  0  0  0  0  0  0
   12.9729   -4.6234  -19.5304 C   0  0  0  0  0  0  0  0  0  0  0  0
   14.4092   -4.1295  -19.7219 C   0  0  0  0  0  0  0  0  0  0  0  0
   17.1110   -4.5981  -20.4640 C   0  0  0  0  0  0  0  0  0  0  0  0
   15.5243   -5.5171  -20.2564 Se  0  0  2  0  0  0  0  0  0  0  0  0
   15.0981   -5.9323  -22.0177 C   0  0  0  0  0  0  0  0  0  0  0  0
   16.1499   -6.7963  -22.7147 C   0  0  1  0  0  0  0  0  0  0  0  0
   15.9221   -8.1687  -22.3508 O   0  0  0  0  0  0  0  0  0  0  0  0
   15.8608   -6.7403  -24.2152 C   0  0  1  0  0  0  0  0  0  0  0  0
   16.9218   -7.3737  -24.9318 O   0  0  0  0  0  0  0  0  0  0  0  0
   14.6097   -7.6142  -24.2571 C   0  0  1  0  0  0  0  0  0  0  0  0
   14.4443   -8.1176  -25.5839 O   0  0  0  0  0  0  0  0  0  0  0  0
   15.0639   -8.7550  -23.3456 C   0  0  2  0  0  0  0  0  0  0  0  0
   12.7926   -4.8896  -16.4291 O   0  0  0  0  0  0  0  0  0  0  0  0
   12.6365  -10.0307  -18.9724 N   0  0  0  0  0  0  0  0  0  0  0  0
   13.7282   -9.3025  -19.1316 C   0  0  0  0  0  0  0  0  0  0  0  0
   14.2346   -9.0586  -20.3277 N   0  0  0  0  0  0  0  0  0  0  0  0
   13.6460   -9.5463  -21.4303 C   0  0  0  0  0  0  0  0  0  0  0  0
   12.4988  -10.3168  -21.3030 C   0  0  0  0  0  0  0  0  0  0  0  0
   11.9996  -10.5540  -20.0278 C   0  0  0  0  0  0  0  0  0  0  0  0
   10.9251  -11.3192  -19.8628 N   0  0  0  0  0  0  0  0  0  0  0  0
   12.1169  -10.6756  -22.5236 N   0  0  0  0  0  0  0  0  0  0  0  0
   12.9863  -10.1542  -23.3860 C   0  0  0  0  0  0  0  0  0  0  0  0
   13.9194   -9.4655  -22.7284 N   0  0  0  0  0  0  0  0  0  0  0  0
  2  1  1  1  0  0  0
  2  5  1  0  0  0  0
  2  3  1  0  0  0  0
  3 17  1  0  0  0  0
  3  4  1  0  0  0  0
  5  6  1  0  0  0  0
  7  8  1  0  0  0  0
  8  6  1  6  0  0  0
  8  9  1  0  0  0  0
 10  9  1  1  0  0  0
 10 11  1  0  0  0  0
 10 12  1  0  0  0  0
 11 16  1  0  0  0  0
 12 13  1  6  0  0  0
 12 14  1  0  0  0  0
 14 15  1  6  0  0  0
 14 16  1  0  0  0  0
 16 27  1  1  0  0  0
 18 23  2  0  0  0  0
 18 19  1  0  0  0  0
 19 20  2  0  0  0  0
 20 21  1  0  0  0  0
 21 22  2  0  0  0  0
 21 27  1  0  0  0  0
 22 23  1  0  0  0  0
 22 25  1  0  0  0  0
 23 24  1  0  0  0  0
 25 26  2  0  0  0  0
 26 27  1  0  0  0  0
M  END
>  <CHROM.1>
177.69216626,143.06177327,52.45553524,177.66524546,165.21302336,82.31263957
2.10623522,14.27744286,-7.28626541,-20.88761195,1.61154895,0.85639374,0.88959844

>  <Name>
ligand

>  <RI>
0

>  <Rbt.Current_Directory>
/home/itssahil/PROJECTS/Mol_Feturizer/New_Systems/rnas/3E5F

>  <Rbt.Executable>
rbdock ($Id: //depot/dev/client3/rdock/2013.1/src/exe/rbdock.cxx#4 $)

>  <Rbt.Library>
libRbt.so (2013.1, Build901 2013/11/27)

>  <Rbt.Parameter_File>
/export/apps/rDock/src/rDock_2013.1_src/data/scripts/dock_solv.prm

>  <Rbt.Receptor>
prm/pocket_docking_3.prm

>  <SCORE>
-6.37804

>  <SCORE.INTER>
-6.07227

>  <SCORE.INTER.CONST>
1

>  <SCORE.INTER.POLAR>
0

>  <SCORE.INTER.ROT>
7

>  <SCORE.INTER.SOLV>
13.0546

>  <SCORE.INTER.VDW>
-16.6664

>  <SCORE.INTER.norm>
-0.224899

>  <SCORE.INTRA>
-0.882826

>  <SCORE.INTRA.DIHEDRAL>
-0.0122983

>  <SCORE.INTRA.DIHEDRAL.0>
4.89803

>  <SCORE.INTRA.POLAR>
0

>  <SCORE.INTRA.POLAR.0>
0

>  <SCORE.INTRA.REPUL>
0

>  <SCORE.INTRA.REPUL.0>
0

>  <SCORE.INTRA.SOLV>
0.205635

>  <SCORE.INTRA.SOLV.lig_0>
-48.5832

>  <SCORE.INTRA.VDW>
-0.979495

>  <SCORE.INTRA.VDW.0>
-2.39056

>  <SCORE.INTRA.norm>
-0.0326973

>  <SCORE.RESTR>
0.57706

>  <SCORE.RESTR.CAVITY>
0.57706

>  <SCORE.RESTR.norm>
0.0213726

>  <SCORE.SYSTEM>
0

>  <SCORE.SYSTEM.CONST>
0

>  <SCORE.SYSTEM.DIHEDRAL>
0

>  <SCORE.SYSTEM.SOLV>
0

>  <SCORE.SYSTEM.norm>
0

>  <SCORE.heavy>
27

>  <SCORE.norm>
-0.236224

>  <RMSD>
4.792

$$$$
ligand
 OpenBabel11021811473D
libRbt.so/2013.1/901 2013/11/27
 27 29  0  0  0  0  0  0  0  0999 V2000
   11.1537   -5.1143  -17.7660 N   0  0  0  0  0  0  0  0  0  0  0  0
   11.5958   -5.5451  -19.1005 C   0  0  2  0  0  0  0  0  0  0  0  0
   11.8812   -7.0500  -19.0955 C   0  0  0  0  0  0  0  0  0  0  0  0
   12.0246   -7.5962  -17.9798 O   0  0  0  0  0  0  0  0  0  0  0  0
   12.8758   -4.7905  -19.4637 C   0  0  0  0  0  0  0  0  0  0  0  0
   13.9148   -4.8481  -18.3408 C   0  0  0  0  0  0  0  0  0  0  0  0
   15.8826   -6.3169  -16.9124 C   0  0  0  0  0  0  0  0  0  0  0  0
   14.3993   -6.6042  -17.9720 Se  0  0  2  0  0  0  0  0  0  0  0  0
   15.1683   -7.3088  -19.5109 C   0  0  0  0  0  0  0  0  0  0  0  0
   16.4844   -6.6348  -19.9012 C   0  0  1  0  0  0  0  0  0  0  0  0
   16.9515   -7.2281  -21.1250 O   0  0  0  0  0  0  0  0  0  0  0  0
   16.1600   -5.1871  -20.2716 C   0  0  1  0  0  0  0  0  0  0  0  0
   17.3733   -4.4577  -20.4620 O   0  0  0  0  0  0  0  0  0  0  0  0
   15.4786   -5.4246  -21.6169 C   0  0  1  0  0  0  0  0  0  0  0  0
   15.5353   -4.2186  -22.3808 O   0  0  0  0  0  0  0  0  0  0  0  0
   16.4495   -6.4409  -22.2197 C   0  0  2  0  0  0  0  0  0  0  0  0
   11.9595   -7.6199  -20.2061 O   0  0  0  0  0  0  0  0  0  0  0  0
   12.8882  -10.0406  -23.2216 N   0  0  0  0  0  0  0  0  0  0  0  0
   13.1888   -9.4718  -22.0667 C   0  0  0  0  0  0  0  0  0  0  0  0
   14.1350   -8.5544  -21.9675 N   0  0  0  0  0  0  0  0  0  0  0  0
   14.8249   -8.1658  -23.0505 C   0  0  0  0  0  0  0  0  0  0  0  0
   14.5389   -8.7417  -24.2803 C   0  0  0  0  0  0  0  0  0  0  0  0
   13.5395   -9.7057  -24.3427 C   0  0  0  0  0  0  0  0  0  0  0  0
   13.2633  -10.3078  -25.4953 N   0  0  0  0  0  0  0  0  0  0  0  0
   15.3498   -8.1955  -25.1795 N   0  0  0  0  0  0  0  0  0  0  0  0
   16.1164   -7.3119  -24.5447 C   0  0  0  0  0  0  0  0  0  0  0  0
   15.8028   -7.2879  -23.2492 N   0  0  0  0  0  0  0  0  0  0  0  0
  2  1  1  1  0  0  0
  2  5  1  0  0  0  0
  2  3  1  0  0  0  0
  3 17  1  0  0  0  0
  3  4  1  0  0  0  0
  5  6  1  0  0  0  0
  7  8  1  0  0  0  0
  8  6  1  6  0  0  0
  8  9  1  0  0  0  0
 10  9  1  6  0  0  0
 10 11  1  0  0  0  0
 10 12  1  0  0  0  0
 11 16  1  0  0  0  0
 12 13  1  6  0  0  0
 12 14  1  0  0  0  0
 14 15  1  6  0  0  0
 14 16  1  0  0  0  0
 16 27  1  6  0  0  0
 18 23  2  0  0  0  0
 18 19  1  0  0  0  0
 19 20  2  0  0  0  0
 20 21  1  0  0  0  0
 21 22  2  0  0  0  0
 21 27  1  0  0  0  0
 22 23  1  0  0  0  0
 22 25  1  0  0  0  0
 23 24  1  0  0  0  0
 25 26  2  0  0  0  0
 26 27  1  0  0  0  0
M  END
>  <CHROM.1>
49.34525256,-16.84802461,60.25561472,167.60355094,65.42148944,-177.86115763
54.17310080,14.41719055,-6.93364791,-20.63098246,1.71060344,0.50761909,1.08884586

>  <Name>
ligand

>  <RI>
0

>  <Rbt.Current_Directory>
/home/itssahil/PROJECTS/Mol_Feturizer/New_Systems/rnas/3E5F

>  <Rbt.Executable>
rbdock ($Id: //depot/dev/client3/rdock/2013.1/src/exe/rbdock.cxx#4 $)

>  <Rbt.Library>
libRbt.so (2013.1, Build901 2013/11/27)

>  <Rbt.Parameter_File>
/export/apps/rDock/src/rDock_2013.1_src/data/scripts/dock_solv.prm

>  <Rbt.Receptor>
prm/pocket_docking_6.prm

>  <SCORE>
-12.6363

>  <SCORE.INTER>
-11.7103

>  <SCORE.INTER.CONST>
1

>  <SCORE.INTER.POLAR>
0

>  <SCORE.INTER.ROT>
7

>  <SCORE.INTER.SOLV>
18.4796

>  <SCORE.INTER.VDW>
-22.2334

>  <SCORE.INTER.norm>
-0.433716

>  <SCORE.INTRA>
-0.925934

>  <SCORE.INTRA.DIHEDRAL>
-1.19216

>  <SCORE.INTRA.DIHEDRAL.0>
4.89803

>  <SCORE.INTRA.POLAR>
0

>  <SCORE.INTRA.POLAR.0>
0

>  <SCORE.INTRA.REPUL>
0

>  <SCORE.INTRA.REPUL.0>
0

>  <SCORE.INTRA.SOLV>
1.41095

>  <SCORE.INTRA.SOLV.lig_0>
-48.5832

>  <SCORE.INTRA.VDW>
-1.03533

>  <SCORE.INTRA.VDW.0>
-2.39056

>  <SCORE.INTRA.norm>
-0.0342938

>  <SCORE.RESTR>
0

>  <SCORE.RESTR.CAVITY>
0

>  <SCORE.RESTR.norm>
0

>  <SCORE.SYSTEM>
0

>  <SCORE.SYSTEM.CONST>
0

>  <SCORE.SYSTEM.DIHEDRAL>
0

>  <SCORE.SYSTEM.SOLV>
0

>  <SCORE.SYSTEM.norm>
0

>  <SCORE.heavy>
27

>  <SCORE.norm>
-0.46801

>  <RMSD>
4.797

$$$$
ligand
 OpenBabel11021811473D
libRbt.so/2013.1/901 2013/11/27
 27 29  0  0  0  0  0  0  0  0999 V2000
   17.4223   -5.9987  -20.3080 N   0  0  0  0  0  0  0  0  0  0  0  0
   16.2714   -6.9105  -20.3840 C   0  0  2  0  0  0  0  0  0  0  0  0
   16.4379   -8.0474  -19.3711 C   0  0  0  0  0  0  0  0  0  0  0  0
   15.5028   -8.2257  -18.5602 O   0  0  0  0  0  0  0  0  0  0  0  0
   16.2000   -7.4985  -21.7943 C   0  0  0  0  0  0  0  0  0  0  0  0
   14.9137   -8.2974  -22.0192 C   0  0  0  0  0  0  0  0  0  0  0  0
   15.1924   -7.8136  -24.8046 C   0  0  0  0  0  0  0  0  0  0  0  0
   14.9772   -9.2212  -23.6307 Se  0  0  2  0  0  0  0  0  0  0  0  0
   13.2483   -9.7785  -24.0262 C   0  0  0  0  0  0  0  0  0  0  0  0
   13.1028  -11.2974  -24.1271 C   0  0  1  0  0  0  0  0  0  0  0  0
   13.5100  -11.8756  -22.8751 O   0  0  0  0  0  0  0  0  0  0  0  0
   11.6081  -11.6041  -24.2275 C   0  0  1  0  0  0  0  0  0  0  0  0
   11.4214  -12.9909  -24.5142 O   0  0  0  0  0  0  0  0  0  0  0  0
   11.1998  -11.3107  -22.7860 C   0  0  1  0  0  0  0  0  0  0  0  0
    9.9759  -11.9926  -22.5065 O   0  0  0  0  0  0  0  0  0  0  0  0
   12.3403  -12.0141  -22.0489 C   0  0  2  0  0  0  0  0  0  0  0  0
   17.4993   -8.7070  -19.4227 O   0  0  0  0  0  0  0  0  0  0  0  0
   12.3085   -7.7941  -19.0765 N   0  0  0  0  0  0  0  0  0  0  0  0
   12.0133   -7.9052  -20.3602 C   0  0  0  0  0  0  0  0  0  0  0  0
   12.0666   -9.0662  -20.9894 N   0  0  0  0  0  0  0  0  0  0  0  0
   12.4232  -10.1815  -20.3345 C   0  0  0  0  0  0  0  0  0  0  0  0
   12.7421  -10.1042  -18.9860 C   0  0  0  0  0  0  0  0  0  0  0  0
   12.6777   -8.8643  -18.3612 C   0  0  0  0  0  0  0  0  0  0  0  0
   13.0130   -8.7435  -17.0805 N   0  0  0  0  0  0  0  0  0  0  0  0
   13.0593  -11.3272  -18.5762 N   0  0  0  0  0  0  0  0  0  0  0  0
   12.9461  -12.1432  -19.6216 C   0  0  0  0  0  0  0  0  0  0  0  0
   12.5592  -11.4535  -20.6949 N   0  0  0  0  0  0  0  0  0  0  0  0
  2  1  1  6  0  0  0
  2  5  1  0  0  0  0
  2  3  1  0  0  0  0
  3 17  1  0  0  0  0
  3  4  1  0  0  0  0
  5  6  1  0  0  0  0
  7  8  1  0  0  0  0
  8  6  1  1  0  0  0
  8  9  1  0  0  0  0
 10  9  1  1  0  0  0
 10 11  1  0  0  0  0
 10 12  1  0  0  0  0
 11 16  1  0  0  0  0
 12 13  1  1  0  0  0
 12 14  1  0  0  0  0
 14 15  1  1  0  0  0
 14 16  1  0  0  0  0
 16 27  1  1  0  0  0
 18 23  2  0  0  0  0
 18 19  1  0  0  0  0
 19 20  2  0  0  0  0
 20 21  1  0  0  0  0
 21 22  2  0  0  0  0
 21 27  1  0  0  0  0
 22 23  1  0  0  0  0
 22 25  1  0  0  0  0
 23 24  1  0  0  0  0
 25 26  2  0  0  0  0
 26 27  1  0  0  0  0
M  END
>  <CHROM.1>
-171.59153486,125.42302059,-170.87601780,-59.55099550,-119.25209373,58.52776744
84.45491182,13.80851641,-9.61879081,-21.57833916,-0.72618755,-0.67998011
-1.78613770

>  <Name>
ligand

>  <RI>
0

>  <Rbt.Current_Directory>
/home/itssahil/PROJECTS/Mol_Feturizer/New_Systems/rnas/3E5F

>  <Rbt.Executable>
rbdock ($Id: //depot/dev/client3/rdock/2013.1/src/exe/rbdock.cxx#4 $)

>  <Rbt.Library>
libRbt.so (2013.1, Build901 2013/11/27)

>  <Rbt.Parameter_File>
/export/apps/rDock/src/rDock_2013.1_src/data/scripts/dock_solv.prm

>  <Rbt.Receptor>
prm/blind_docking_100.prm

>  <SCORE>
-19.6561

>  <SCORE.INTER>
-19.0085

>  <SCORE.INTER.CONST>
1

>  <SCORE.INTER.POLAR>
0

>  <SCORE.INTER.ROT>
7

>  <SCORE.INTER.SOLV>
9.70093

>  <SCORE.INTER.VDW>
-24.1726

>  <SCORE.INTER.norm>
-0.704017

>  <SCORE.INTRA>
-0.647616

>  <SCORE.INTRA.DIHEDRAL>
0.821025

>  <SCORE.INTRA.DIHEDRAL.0>
4.89803

>  <SCORE.INTRA.POLAR>
0

>  <SCORE.INTRA.POLAR.0>
0

>  <SCORE.INTRA.REPUL>
0

>  <SCORE.INTRA.REPUL.0>
0

>  <SCORE.INTRA.SOLV>
0.930257

>  <SCORE.INTRA.SOLV.lig_0>
-48.5832

>  <SCORE.INTRA.VDW>
-1.52326

>  <SCORE.INTRA.VDW.0>
-2.39056

>  <SCORE.INTRA.norm>
-0.0239858

>  <SCORE.RESTR>
0

>  <SCORE.RESTR.CAVITY>
0

>  <SCORE.RESTR.norm>
0

>  <SCORE.SYSTEM>
0

>  <SCORE.SYSTEM.CONST>
0

>  <SCORE.SYSTEM.DIHEDRAL>
0

>  <SCORE.SYSTEM.SOLV>
0

>  <SCORE.SYSTEM.norm>
0

>  <SCORE.heavy>
27

>  <SCORE.norm>
-0.728003

>  <RMSD>
4.808

$$$$
ligand
 OpenBabel11021811473D
libRbt.so/2013.1/901 2013/11/27
 27 29  0  0  0  0  0  0  0  0999 V2000
   10.9112   -7.5204  -17.1895 N   0  0  0  0  0  0  0  0  0  0  0  0
   11.6178   -6.2746  -17.5217 C   0  0  2  0  0  0  0  0  0  0  0  0
   11.1056   -5.1323  -16.6390 C   0  0  0  0  0  0  0  0  0  0  0  0
    9.8672   -5.0412  -16.4917 O   0  0  0  0  0  0  0  0  0  0  0  0
   11.3544   -5.9342  -18.9896 C   0  0  0  0  0  0  0  0  0  0  0  0
   12.2074   -4.7566  -19.4681 C   0  0  0  0  0  0  0  0  0  0  0  0
   14.6033   -3.9215  -20.7458 C   0  0  0  0  0  0  0  0  0  0  0  0
   13.9948   -5.2451  -19.6129 Se  0  0  2  0  0  0  0  0  0  0  0  0
   14.0794   -6.7447  -20.7085 C   0  0  0  0  0  0  0  0  0  0  0  0
   15.5067   -7.2090  -21.0015 C   0  0  1  0  0  0  0  0  0  0  0  0
   15.4522   -8.5612  -21.4876 O   0  0  0  0  0  0  0  0  0  0  0  0
   16.0149   -6.3905  -22.1889 C   0  0  1  0  0  0  0  0  0  0  0  0
   17.4061   -6.6466  -22.3872 O   0  0  0  0  0  0  0  0  0  0  0  0
   15.2012   -7.0434  -23.3035 C   0  0  1  0  0  0  0  0  0  0  0  0
   15.8540   -6.8028  -24.5513 O   0  0  0  0  0  0  0  0  0  0  0  0
   15.3810   -8.5139  -22.9238 C   0  0  2  0  0  0  0  0  0  0  0  0
   11.9615   -4.3697  -16.1387 O   0  0  0  0  0  0  0  0  0  0  0  0
   12.3773  -12.6362  -22.1309 N   0  0  0  0  0  0  0  0  0  0  0  0
   13.3263  -12.1414  -21.3550 C   0  0  0  0  0  0  0  0  0  0  0  0
   14.0156  -11.0668  -21.6967 N   0  0  0  0  0  0  0  0  0  0  0  0
   13.7671  -10.4362  -22.8545 C   0  0  0  0  0  0  0  0  0  0  0  0
   12.7791  -10.9272  -23.6964 C   0  0  0  0  0  0  0  0  0  0  0  0
   12.0790  -12.0618  -23.3033 C   0  0  0  0  0  0  0  0  0  0  0  0
   11.1523  -12.5843  -24.1003 N   0  0  0  0  0  0  0  0  0  0  0  0
   12.7301  -10.1378  -24.7635 N   0  0  0  0  0  0  0  0  0  0  0  0
   13.6486   -9.1880  -24.6031 C   0  0  0  0  0  0  0  0  0  0  0  0
   14.2834   -9.3627  -23.4438 N   0  0  0  0  0  0  0  0  0  0  0  0
  2  1  1  1  0  0  0
  2  5  1  0  0  0  0
  2  3  1  0  0  0  0
  3 17  1  0  0  0  0
  3  4  1  0  0  0  0
  5  6  1  0  0  0  0
  7  8  1  0  0  0  0
  8  6  1  6  0  0  0
  8  9  1  0  0  0  0
 10  9  1  6  0  0  0
 10 11  1  0  0  0  0
 10 12  1  0  0  0  0
 11 16  1  0  0  0  0
 12 13  1  6  0  0  0
 12 14  1  0  0  0  0
 14 15  1  6  0  0  0
 14 16  1  0  0  0  0
 16 27  1  1  0  0  0
 18 23  2  0  0  0  0
 18 19  1  0  0  0  0
 19 20  2  0  0  0  0
 20 21  1  0  0  0  0
 21 22  2  0  0  0  0
 21 27  1  0  0  0  0
 22 23  1  0  0  0  0
 22 25  1  0  0  0  0
 23 24  1  0  0  0  0
 25 26  2  0  0  0  0
 26 27  1  0  0  0  0
M  END
>  <CHROM.1>
-172.18065651,-44.71217501,70.87022125,160.10629868,175.98231406,162.60123183
-26.47934453,13.53698143,-7.51867703,-20.94309596,1.78242935,0.69438062,0.64307697

>  <Name>
ligand

>  <RI>
0

>  <Rbt.Current_Directory>
/home/itssahil/PROJECTS/Mol_Feturizer/New_Systems/rnas/3E5F

>  <Rbt.Executable>
rbdock ($Id: //depot/dev/client3/rdock/2013.1/src/exe/rbdock.cxx#4 $)

>  <Rbt.Library>
libRbt.so (2013.1, Build901 2013/11/27)

>  <Rbt.Parameter_File>
/export/apps/rDock/src/rDock_2013.1_src/data/scripts/dock_solv.prm

>  <Rbt.Receptor>
prm/pocket_docking_4.prm

>  <SCORE>
-14.415

>  <SCORE.INTER>
-14.7761

>  <SCORE.INTER.CONST>
1

>  <SCORE.INTER.POLAR>
0

>  <SCORE.INTER.ROT>
7

>  <SCORE.INTER.SOLV>
12.0749

>  <SCORE.INTER.VDW>
-22.1424

>  <SCORE.INTER.norm>
-0.547264

>  <SCORE.INTRA>
0.360761

>  <SCORE.INTRA.DIHEDRAL>
-0.113

>  <SCORE.INTRA.DIHEDRAL.0>
4.89803

>  <SCORE.INTRA.POLAR>
0

>  <SCORE.INTRA.POLAR.0>
0

>  <SCORE.INTRA.REPUL>
0

>  <SCORE.INTRA.REPUL.0>
0

>  <SCORE.INTRA.SOLV>
0.126952

>  <SCORE.INTRA.SOLV.lig_0>
-48.5832

>  <SCORE.INTRA.VDW>
0.353785

>  <SCORE.INTRA.VDW.0>
-2.39056

>  <SCORE.INTRA.norm>
0.0133615

>  <SCORE.RESTR>
0.000328492

>  <SCORE.RESTR.CAVITY>
0.000328492

>  <SCORE.RESTR.norm>
1.21664e-05

>  <SCORE.SYSTEM>
0

>  <SCORE.SYSTEM.CONST>
0

>  <SCORE.SYSTEM.DIHEDRAL>
0

>  <SCORE.SYSTEM.SOLV>
0

>  <SCORE.SYSTEM.norm>
0

>  <SCORE.heavy>
27

>  <SCORE.norm>
-0.53389

>  <RMSD>
4.819

$$$$
ligand
 OpenBabel11021811473D
libRbt.so/2013.1/901 2013/11/27
 27 29  0  0  0  0  0  0  0  0999 V2000
   10.5611   -6.8153  -18.0323 N   0  0  0  0  0  0  0  0  0  0  0  0
   11.9424   -7.2602  -17.7962 C   0  0  2  0  0  0  0  0  0  0  0  0
   11.9424   -8.6747  -17.2085 C   0  0  0  0  0  0  0  0  0  0  0  0
   12.8528   -9.4449  -17.5848 O   0  0  0  0  0  0  0  0  0  0  0  0
   12.6065   -6.3027  -16.8052 C   0  0  0  0  0  0  0  0  0  0  0  0
   13.0081   -4.9809  -17.4647 C   0  0  0  0  0  0  0  0  0  0  0  0
   14.0968   -4.1602  -19.9571 C   0  0  0  0  0  0  0  0  0  0  0  0
   14.5433   -5.1891  -18.4916 Se  0  0  2  0  0  0  0  0  0  0  0  0
   14.5082   -6.9027  -19.2117 C   0  0  0  0  0  0  0  0  0  0  0  0
   15.8824   -7.4109  -19.6497 C   0  0  1  0  0  0  0  0  0  0  0  0
   15.7288   -8.7444  -20.1655 O   0  0  0  0  0  0  0  0  0  0  0  0
   16.3111   -6.5757  -20.8567 C   0  0  1  0  0  0  0  0  0  0  0  0
   17.6666   -6.8775  -21.1913 O   0  0  0  0  0  0  0  0  0  0  0  0
   15.3722   -7.1627  -21.9076 C   0  0  1  0  0  0  0  0  0  0  0  0
   15.9159   -6.9082  -23.2040 O   0  0  0  0  0  0  0  0  0  0  0  0
   15.5270   -8.6499  -21.5869 C   0  0  2  0  0  0  0  0  0  0  0  0
   11.0278   -8.9585  -16.4040 O   0  0  0  0  0  0  0  0  0  0  0  0
   12.0844  -12.2937  -20.3556 N   0  0  0  0  0  0  0  0  0  0  0  0
   13.0687  -11.8027  -19.6225 C   0  0  0  0  0  0  0  0  0  0  0  0
   13.8752  -10.8609  -20.0800 N   0  0  0  0  0  0  0  0  0  0  0  0
   13.7145  -10.3665  -21.3168 C   0  0  0  0  0  0  0  0  0  0  0  0
   12.6929  -10.8584  -22.1170 C   0  0  0  0  0  0  0  0  0  0  0  0
   11.8685  -11.8514  -21.6010 C   0  0  0  0  0  0  0  0  0  0  0  0
   10.9036  -12.3749  -22.3508 N   0  0  0  0  0  0  0  0  0  0  0  0
   12.7461  -10.2164  -23.2786 N   0  0  0  0  0  0  0  0  0  0  0  0
   13.7590   -9.3552  -23.2154 C   0  0  0  0  0  0  0  0  0  0  0  0
   14.3527   -9.4404  -22.0249 N   0  0  0  0  0  0  0  0  0  0  0  0
  2  1  1  1  0  0  0
  2  5  1  0  0  0  0
  2  3  1  0  0  0  0
  3 17  1  0  0  0  0
  3  4  1  0  0  0  0
  5  6  1  0  0  0  0
  7  8  1  0  0  0  0
  8  6  1  1  0  0  0
  8  9  1  0  0  0  0
 10  9  1  6  0  0  0
 10 11  1  0  0  0  0
 10 12  1  0  0  0  0
 11 16  1  0  0  0  0
 12 13  1  6  0  0  0
 12 14  1  0  0  0  0
 14 15  1  6  0  0  0
 14 16  1  0  0  0  0
 16 27  1  1  0  0  0
 18 23  2  0  0  0  0
 18 19  1  0  0  0  0
 19 20  2  0  0  0  0
 20 21  1  0  0  0  0
 21 22  2  0  0  0  0
 21 27  1  0  0  0  0
 22 23  1  0  0  0  0
 22 25  1  0  0  0  0
 23 24  1  0  0  0  0
 25 26  2  0  0  0  0
 26 27  1  0  0  0  0
M  END
>  <CHROM.1>
-76.49057226,142.80584095,-76.38093628,139.31489505,-159.23302845,179.07740816
-14.45915233,13.81334236,-7.97854010,-19.85316651,1.24979418,0.75383469,0.71213343

>  <Name>
ligand

>  <RI>
0

>  <Rbt.Current_Directory>
/home/itssahil/PROJECTS/Mol_Feturizer/New_Systems/rnas/3E5F

>  <Rbt.Executable>
rbdock ($Id: //depot/dev/client3/rdock/2013.1/src/exe/rbdock.cxx#4 $)

>  <Rbt.Library>
libRbt.so (2013.1, Build901 2013/11/27)

>  <Rbt.Parameter_File>
/export/apps/rDock/src/rDock_2013.1_src/data/scripts/dock_solv.prm

>  <Rbt.Receptor>
prm/pocket_docking_3.prm

>  <SCORE>
-8.1038

>  <SCORE.INTER>
-9.66067

>  <SCORE.INTER.CONST>
1

>  <SCORE.INTER.POLAR>
0

>  <SCORE.INTER.ROT>
7

>  <SCORE.INTER.SOLV>
9.0262

>  <SCORE.INTER.VDW>
-17.7158

>  <SCORE.INTER.norm>
-0.357803

>  <SCORE.INTRA>
1.55687

>  <SCORE.INTRA.DIHEDRAL>
2.37903

>  <SCORE.INTRA.DIHEDRAL.0>
4.89803

>  <SCORE.INTRA.POLAR>
0

>  <SCORE.INTRA.POLAR.0>
0

>  <SCORE.INTRA.REPUL>
0

>  <SCORE.INTRA.REPUL.0>
0

>  <SCORE.INTRA.SOLV>
1.13695

>  <SCORE.INTRA.SOLV.lig_0>
-48.5832

>  <SCORE.INTRA.VDW>
-0.201118

>  <SCORE.INTRA.VDW.0>
-2.39056

>  <SCORE.INTRA.norm>
0.0576619

>  <SCORE.RESTR>
0

>  <SCORE.RESTR.CAVITY>
0

>  <SCORE.RESTR.norm>
0

>  <SCORE.SYSTEM>
0

>  <SCORE.SYSTEM.CONST>
0

>  <SCORE.SYSTEM.DIHEDRAL>
0

>  <SCORE.SYSTEM.SOLV>
0

>  <SCORE.SYSTEM.norm>
0

>  <SCORE.heavy>
27

>  <SCORE.norm>
-0.300141

>  <RMSD>
4.826

$$$$
ligand
 OpenBabel11021811473D
libRbt.so/2013.1/901 2013/11/27
 27 29  0  0  0  0  0  0  0  0999 V2000
   17.6024   -3.9017  -21.9860 N   0  0  0  0  0  0  0  0  0  0  0  0
   16.7474   -4.2306  -20.8360 C   0  0  2  0  0  0  0  0  0  0  0  0
   17.5129   -5.1228  -19.8542 C   0  0  0  0  0  0  0  0  0  0  0  0
   17.0978   -5.1546  -18.6751 O   0  0  0  0  0  0  0  0  0  0  0  0
   15.5113   -4.9787  -21.3383 C   0  0  0  0  0  0  0  0  0  0  0  0
   14.4980   -5.2305  -20.2188 C   0  0  0  0  0  0  0  0  0  0  0  0
   11.7642   -5.6545  -19.5730 C   0  0  0  0  0  0  0  0  0  0  0  0
   12.9973   -6.1155  -20.8663 Se  0  0  2  0  0  0  0  0  0  0  0  0
   13.2292   -7.9298  -20.5336 C   0  0  0  0  0  0  0  0  0  0  0  0
   14.4850   -8.5152  -21.1809 C   0  0  1  0  0  0  0  0  0  0  0  0
   14.4276   -9.9475  -21.0668 O   0  0  0  0  0  0  0  0  0  0  0  0
   14.3904   -8.2421  -22.6825 C   0  0  1  0  0  0  0  0  0  0  0  0
   15.6218   -8.5977  -23.3129 O   0  0  0  0  0  0  0  0  0  0  0  0
   13.3069   -9.2534  -23.0483 C   0  0  1  0  0  0  0  0  0  0  0  0
   13.3975   -9.5399  -24.4451 O   0  0  0  0  0  0  0  0  0  0  0  0
   13.8092  -10.4632  -22.2592 C   0  0  2  0  0  0  0  0  0  0  0  0
   18.5013   -5.7458  -20.3005 O   0  0  0  0  0  0  0  0  0  0  0  0
    9.9905  -13.4114  -24.0951 N   0  0  0  0  0  0  0  0  0  0  0  0
   10.8352  -12.6415  -24.7595 C   0  0  0  0  0  0  0  0  0  0  0  0
   11.7705  -11.9399  -24.1435 N   0  0  0  0  0  0  0  0  0  0  0  0
   11.8942  -11.9915  -22.8086 C   0  0  0  0  0  0  0  0  0  0  0  0
   11.0244  -12.7874  -22.0766 C   0  0  0  0  0  0  0  0  0  0  0  0
   10.0518  -13.5070  -22.7608 C   0  0  0  0  0  0  0  0  0  0  0  0
    9.1760  -14.2501  -22.0914 N   0  0  0  0  0  0  0  0  0  0  0  0
   11.3492  -12.6657  -20.7943 N   0  0  0  0  0  0  0  0  0  0  0  0
   12.3806  -11.8279  -20.7190 C   0  0  0  0  0  0  0  0  0  0  0  0
   12.7181  -11.4137  -21.9404 N   0  0  0  0  0  0  0  0  0  0  0  0
  2  1  1  6  0  0  0
  2  5  1  0  0  0  0
  2  3  1  0  0  0  0
  3 17  1  0  0  0  0
  3  4  1  0  0  0  0
  5  6  1  0  0  0  0
  7  8  1  0  0  0  0
  8  6  1  1  0  0  0
  8  9  1  0  0  0  0
 10  9  1  1  0  0  0
 10 11  1  0  0  0  0
 10 12  1  0  0  0  0
 11 16  1  0  0  0  0
 12 13  1  6  0  0  0
 12 14  1  0  0  0  0
 14 15  1  6  0  0  0
 14 16  1  0  0  0  0
 16 27  1  1  0  0  0
 18 23  2  0  0  0  0
 18 19  1  0  0  0  0
 19 20  2  0  0  0  0
 20 21  1  0  0  0  0
 21 22  2  0  0  0  0
 21 27  1  0  0  0  0
 22 23  1  0  0  0  0
 22 25  1  0  0  0  0
 23 24  1  0  0  0  0
 25 26  2  0  0  0  0
 26 27  1  0  0  0  0
M  END
>  <CHROM.1>
-174.07212399,158.88987093,179.07473864,-157.73003277,-58.69007601,-169.50864258
175.07356417,13.54643195,-8.54818830,-21.63074569,-0.97405662,-0.34230335
-2.61574494

>  <Name>
ligand

>  <RI>
0

>  <Rbt.Current_Directory>
/home/itssahil/PROJECTS/Mol_Feturizer/New_Systems/rnas/3E5F

>  <Rbt.Executable>
rbdock ($Id: //depot/dev/client3/rdock/2013.1/src/exe/rbdock.cxx#4 $)

>  <Rbt.Library>
libRbt.so (2013.1, Build901 2013/11/27)

>  <Rbt.Parameter_File>
/export/apps/rDock/src/rDock_2013.1_src/data/scripts/dock_solv.prm

>  <Rbt.Receptor>
prm/blind_docking_40.prm

>  <SCORE>
-13.5721

>  <SCORE.INTER>
-13.3201

>  <SCORE.INTER.CONST>
1

>  <SCORE.INTER.POLAR>
0

>  <SCORE.INTER.ROT>
7

>  <SCORE.INTER.SOLV>
14.4444

>  <SCORE.INTER.VDW>
-21.9615

>  <SCORE.INTER.norm>
-0.493336

>  <SCORE.INTRA>
-0.25204

>  <SCORE.INTRA.DIHEDRAL>
-0.183791

>  <SCORE.INTRA.DIHEDRAL.0>
4.89803

>  <SCORE.INTRA.POLAR>
0

>  <SCORE.INTRA.POLAR.0>
0

>  <SCORE.INTRA.REPUL>
0

>  <SCORE.INTRA.REPUL.0>
0

>  <SCORE.INTRA.SOLV>
0.201437

>  <SCORE.INTRA.SOLV.lig_0>
-48.5832

>  <SCORE.INTRA.VDW>
-0.260863

>  <SCORE.INTRA.VDW.0>
-2.39056

>  <SCORE.INTRA.norm>
-0.00933481

>  <SCORE.RESTR>
0

>  <SCORE.RESTR.CAVITY>
0

>  <SCORE.RESTR.norm>
0

>  <SCORE.SYSTEM>
0

>  <SCORE.SYSTEM.CONST>
0

>  <SCORE.SYSTEM.DIHEDRAL>
0

>  <SCORE.SYSTEM.SOLV>
0

>  <SCORE.SYSTEM.norm>
0

>  <SCORE.heavy>
27

>  <SCORE.norm>
-0.50267

>  <RMSD>
4.838

$$$$
ligand
 OpenBabel11021811473D
libRbt.so/2013.1/901 2013/11/27
 27 29  0  0  0  0  0  0  0  0999 V2000
   12.4959   -3.4537  -15.8392 N   0  0  0  0  0  0  0  0  0  0  0  0
   12.7241   -3.5163  -17.2903 C   0  0  2  0  0  0  0  0  0  0  0  0
   12.3054   -2.1950  -17.9424 C   0  0  0  0  0  0  0  0  0  0  0  0
   11.2112   -1.7075  -17.5837 O   0  0  0  0  0  0  0  0  0  0  0  0
   11.8843   -4.6542  -17.8731 C   0  0  0  0  0  0  0  0  0  0  0  0
   12.1626   -4.8687  -19.3631 C   0  0  0  0  0  0  0  0  0  0  0  0
   14.3643   -3.9418  -20.9005 C   0  0  0  0  0  0  0  0  0  0  0  0
   13.9591   -5.2439  -19.6572 Se  0  0  2  0  0  0  0  0  0  0  0  0
   14.0479   -6.7881  -20.6885 C   0  0  0  0  0  0  0  0  0  0  0  0
   15.4765   -7.2611  -20.9606 C   0  0  1  0  0  0  0  0  0  0  0  0
   15.4169   -8.5875  -21.5126 O   0  0  0  0  0  0  0  0  0  0  0  0
   16.0331   -6.3955  -22.0915 C   0  0  1  0  0  0  0  0  0  0  0  0
   17.4258   -6.6644  -22.2601 O   0  0  0  0  0  0  0  0  0  0  0  0
   15.2444   -6.9812  -23.2601 C   0  0  1  0  0  0  0  0  0  0  0  0
   15.9387   -6.6921  -24.4748 O   0  0  0  0  0  0  0  0  0  0  0  0
   15.3906   -8.4707  -22.9464 C   0  0  2  0  0  0  0  0  0  0  0  0
   13.0828   -1.7060  -18.7914 O   0  0  0  0  0  0  0  0  0  0  0  0
   12.3211  -12.5917  -22.4560 N   0  0  0  0  0  0  0  0  0  0  0  0
   13.2556  -12.1522  -21.6308 C   0  0  0  0  0  0  0  0  0  0  0  0
   13.9655  -11.0694  -21.8957 N   0  0  0  0  0  0  0  0  0  0  0  0
   13.7537  -10.3733  -23.0228 C   0  0  0  0  0  0  0  0  0  0  0  0
   12.7820  -10.8049  -23.9147 C   0  0  0  0  0  0  0  0  0  0  0  0
   12.0593  -11.9503  -23.6020 C   0  0  0  0  0  0  0  0  0  0  0  0
   11.1472  -12.4166  -24.4493 N   0  0  0  0  0  0  0  0  0  0  0  0
   12.7690   -9.9578  -24.9377 N   0  0  0  0  0  0  0  0  0  0  0  0
   13.6939   -9.0299  -24.7026 C   0  0  0  0  0  0  0  0  0  0  0  0
   14.2970   -9.2758  -23.5393 N   0  0  0  0  0  0  0  0  0  0  0  0
  2  1  1  1  0  0  0
  2  5  1  0  0  0  0
  2  3  1  0  0  0  0
  3 17  1  0  0  0  0
  3  4  1  0  0  0  0
  5  6  1  0  0  0  0
  7  8  1  0  0  0  0
  8  6  1  6  0  0  0
  8  9  1  0  0  0  0
 10  9  1  6  0  0  0
 10 11  1  0  0  0  0
 10 12  1  0  0  0  0
 11 16  1  0  0  0  0
 12 13  1  6  0  0  0
 12 14  1  0  0  0  0
 14 15  1  6  0  0  0
 14 16  1  0  0  0  0
 16 27  1  1  0  0  0
 18 23  2  0  0  0  0
 18 19  1  0  0  0  0
 19 20  2  0  0  0  0
 20 21  1  0  0  0  0
 21 22  2  0  0  0  0
 21 27  1  0  0  0  0
 22 23  1  0  0  0  0
 22 25  1  0  0  0  0
 23 24  1  0  0  0  0
 25 26  2  0  0  0  0
 26 27  1  0  0  0  0
M  END
>  <CHROM.1>
-174.79382543,-45.23487012,58.32335577,-125.50183393,-177.33745976,168.12403066
-27.01965370,13.74405922,-6.93924747,-21.09372178,1.64665184,0.60911119,0.57646960

>  <Name>
ligand

>  <RI>
0

>  <Rbt.Current_Directory>
/home/itssahil/PROJECTS/Mol_Feturizer/New_Systems/rnas/3E5F

>  <Rbt.Executable>
rbdock ($Id: //depot/dev/client3/rdock/2013.1/src/exe/rbdock.cxx#4 $)

>  <Rbt.Library>
libRbt.so (2013.1, Build901 2013/11/27)

>  <Rbt.Parameter_File>
/export/apps/rDock/src/rDock_2013.1_src/data/scripts/dock_solv.prm

>  <Rbt.Receptor>
prm/pocket_docking_6.prm

>  <SCORE>
-16.2438

>  <SCORE.INTER>
-16.7462

>  <SCORE.INTER.CONST>
1

>  <SCORE.INTER.POLAR>
0

>  <SCORE.INTER.ROT>
7

>  <SCORE.INTER.SOLV>
13.0187

>  <SCORE.INTER.VDW>
-23.7703

>  <SCORE.INTER.norm>
-0.620229

>  <SCORE.INTRA>
0.502426

>  <SCORE.INTRA.DIHEDRAL>
0.96523

>  <SCORE.INTRA.DIHEDRAL.0>
4.89803

>  <SCORE.INTRA.POLAR>
0

>  <SCORE.INTRA.POLAR.0>
0

>  <SCORE.INTRA.REPUL>
0

>  <SCORE.INTRA.REPUL.0>
0

>  <SCORE.INTRA.SOLV>
0.110307

>  <SCORE.INTRA.SOLV.lig_0>
-48.5832

>  <SCORE.INTRA.VDW>
-0.035342

>  <SCORE.INTRA.VDW.0>
-2.39056

>  <SCORE.INTRA.norm>
0.0186084

>  <SCORE.RESTR>
0

>  <SCORE.RESTR.CAVITY>
0

>  <SCORE.RESTR.norm>
0

>  <SCORE.SYSTEM>
0

>  <SCORE.SYSTEM.CONST>
0

>  <SCORE.SYSTEM.DIHEDRAL>
0

>  <SCORE.SYSTEM.SOLV>
0

>  <SCORE.SYSTEM.norm>
0

>  <SCORE.heavy>
27

>  <SCORE.norm>
-0.601621

>  <RMSD>
4.840

$$$$
ligand
 OpenBabel11021811473D
libRbt.so/2013.1/901 2013/11/27
 27 29  0  0  0  0  0  0  0  0999 V2000
   12.6770   -3.1482  -15.9760 N   0  0  0  0  0  0  0  0  0  0  0  0
   12.8280   -3.3525  -17.4242 C   0  0  2  0  0  0  0  0  0  0  0  0
   12.3780   -2.0975  -18.1785 C   0  0  0  0  0  0  0  0  0  0  0  0
   13.1891   -1.6038  -18.9921 O   0  0  0  0  0  0  0  0  0  0  0  0
   11.9564   -4.5356  -17.8492 C   0  0  0  0  0  0  0  0  0  0  0  0
   12.1635   -4.9021  -19.3210 C   0  0  0  0  0  0  0  0  0  0  0  0
   14.2829   -3.9193  -20.9374 C   0  0  0  0  0  0  0  0  0  0  0  0
   13.9577   -5.2295  -19.6792 Se  0  0  2  0  0  0  0  0  0  0  0  0
   14.0508   -6.7726  -20.7118 C   0  0  0  0  0  0  0  0  0  0  0  0
   15.4806   -7.2433  -20.9814 C   0  0  1  0  0  0  0  0  0  0  0  0
   15.4246   -8.5737  -21.5243 O   0  0  0  0  0  0  0  0  0  0  0  0
   16.0339   -6.3838  -22.1187 C   0  0  1  0  0  0  0  0  0  0  0  0
   17.4273   -6.6498  -22.2863 O   0  0  0  0  0  0  0  0  0  0  0  0
   15.2463   -6.9799  -23.2827 C   0  0  1  0  0  0  0  0  0  0  0  0
   15.9390   -6.6972  -24.4998 O   0  0  0  0  0  0  0  0  0  0  0  0
   15.3971   -8.4669  -22.9588 C   0  0  2  0  0  0  0  0  0  0  0  0
   11.2380   -1.6536  -17.9188 O   0  0  0  0  0  0  0  0  0  0  0  0
   12.3287  -12.5839  -22.4299 N   0  0  0  0  0  0  0  0  0  0  0  0
   13.2608  -12.1345  -21.6073 C   0  0  0  0  0  0  0  0  0  0  0  0
   13.9708  -11.0543  -21.8825 N   0  0  0  0  0  0  0  0  0  0  0  0
   13.7616  -10.3711  -23.0180 C   0  0  0  0  0  0  0  0  0  0  0  0
   12.7925  -10.8135  -23.9075 C   0  0  0  0  0  0  0  0  0  0  0  0
   12.0696  -11.9556  -23.5838 C   0  0  0  0  0  0  0  0  0  0  0  0
   11.1600  -12.4321  -24.4282 N   0  0  0  0  0  0  0  0  0  0  0  0
   12.7817   -9.9779  -24.9400 N   0  0  0  0  0  0  0  0  0  0  0  0
   13.7054   -9.0469  -24.7130 C   0  0  0  0  0  0  0  0  0  0  0  0
   14.3055   -9.2793  -23.5455 N   0  0  0  0  0  0  0  0  0  0  0  0
  2  1  1  1  0  0  0
  2  5  1  0  0  0  0
  2  3  1  0  0  0  0
  3 17  1  0  0  0  0
  3  4  1  0  0  0  0
  5  6  1  0  0  0  0
  7  8  1  0  0  0  0
  8  6  1  6  0  0  0
  8  9  1  0  0  0  0
 10  9  1  6  0  0  0
 10 11  1  0  0  0  0
 10 12  1  0  0  0  0
 11 16  1  0  0  0  0
 12 13  1  6  0  0  0
 12 14  1  0  0  0  0
 14 15  1  6  0  0  0
 14 16  1  0  0  0  0
 16 27  1  1  0  0  0
 18 23  2  0  0  0  0
 18 19  1  0  0  0  0
 19 20  2  0  0  0  0
 20 21  1  0  0  0  0
 21 22  2  0  0  0  0
 21 27  1  0  0  0  0
 22 23  1  0  0  0  0
 22 25  1  0  0  0  0
 23 24  1  0  0  0  0
 25 26  2  0  0  0  0
 26 27  1  0  0  0  0
M  END
>  <CHROM.1>
-174.34125112,126.47512000,55.15212543,-119.04589368,-174.72100966,167.64375414
-26.67728650,13.76268758,-6.90854390,-21.13396060,1.63712741,0.60666183,0.56284797

>  <Name>
ligand

>  <RI>
0

>  <Rbt.Current_Directory>
/home/itssahil/PROJECTS/Mol_Feturizer/New_Systems/rnas/3E5F

>  <Rbt.Executable>
rbdock ($Id: //depot/dev/client3/rdock/2013.1/src/exe/rbdock.cxx#4 $)

>  <Rbt.Library>
libRbt.so (2013.1, Build901 2013/11/27)

>  <Rbt.Parameter_File>
/export/apps/rDock/src/rDock_2013.1_src/data/scripts/dock_solv.prm

>  <Rbt.Receptor>
prm/pocket_docking_8.prm

>  <SCORE>
-16.3344

>  <SCORE.INTER>
-16.8186

>  <SCORE.INTER.CONST>
1

>  <SCORE.INTER.POLAR>
0

>  <SCORE.INTER.ROT>
7

>  <SCORE.INTER.SOLV>
13.2327

>  <SCORE.INTER.VDW>
-23.89

>  <SCORE.INTER.norm>
-0.622912

>  <SCORE.INTRA>
0.484206

>  <SCORE.INTRA.DIHEDRAL>
1.11103

>  <SCORE.INTRA.DIHEDRAL.0>
4.89803

>  <SCORE.INTRA.POLAR>
0

>  <SCORE.INTRA.POLAR.0>
0

>  <SCORE.INTRA.REPUL>
0

>  <SCORE.INTRA.REPUL.0>
0

>  <SCORE.INTRA.SOLV>
0.101977

>  <SCORE.INTRA.SOLV.lig_0>
-48.5832

>  <SCORE.INTRA.VDW>
-0.122296

>  <SCORE.INTRA.VDW.0>
-2.39056

>  <SCORE.INTRA.norm>
0.0179336

>  <SCORE.RESTR>
0

>  <SCORE.RESTR.CAVITY>
0

>  <SCORE.RESTR.norm>
0

>  <SCORE.SYSTEM>
0

>  <SCORE.SYSTEM.CONST>
0

>  <SCORE.SYSTEM.DIHEDRAL>
0

>  <SCORE.SYSTEM.SOLV>
0

>  <SCORE.SYSTEM.norm>
0

>  <SCORE.heavy>
27

>  <SCORE.norm>
-0.604979

>  <RMSD>
4.852

$$$$
ligand
 OpenBabel11021811473D
libRbt.so/2013.1/901 2013/11/27
 27 29  0  0  0  0  0  0  0  0999 V2000
   10.2207   -8.4341  -17.2102 N   0  0  0  0  0  0  0  0  0  0  0  0
   11.1735   -7.3670  -16.8710 C   0  0  2  0  0  0  0  0  0  0  0  0
   10.4162   -6.1159  -16.4154 C   0  0  0  0  0  0  0  0  0  0  0  0
   10.8590   -5.5202  -15.4091 O   0  0  0  0  0  0  0  0  0  0  0  0
   12.0007   -7.0309  -18.1131 C   0  0  0  0  0  0  0  0  0  0  0  0
   13.1517   -6.0732  -17.7949 C   0  0  0  0  0  0  0  0  0  0  0  0
   12.9183   -4.7437  -20.2945 C   0  0  0  0  0  0  0  0  0  0  0  0
   14.1527   -5.7066  -19.3175 Se  0  0  2  0  0  0  0  0  0  0  0  0
   14.2685   -7.2780  -20.3041 C   0  0  0  0  0  0  0  0  0  0  0  0
   15.6778   -7.5756  -20.8181 C   0  0  1  0  0  0  0  0  0  0  0  0
   15.6391   -8.8078  -21.5582 O   0  0  0  0  0  0  0  0  0  0  0  0
   16.0151   -6.5084  -21.8600 C   0  0  1  0  0  0  0  0  0  0  0  0
   17.3882   -6.6230  -22.2364 O   0  0  0  0  0  0  0  0  0  0  0  0
   15.1206   -6.9873  -23.0006 C   0  0  1  0  0  0  0  0  0  0  0  0
   15.6237   -6.4636  -24.2310 O   0  0  0  0  0  0  0  0  0  0  0  0
   15.4128   -8.4873  -22.9424 C   0  0  2  0  0  0  0  0  0  0  0  0
    9.4064   -5.7877  -17.0763 O   0  0  0  0  0  0  0  0  0  0  0  0
   12.2938  -12.5576  -22.3521 N   0  0  0  0  0  0  0  0  0  0  0  0
   13.2335  -12.1093  -21.5376 C   0  0  0  0  0  0  0  0  0  0  0  0
   13.9565  -11.0419  -21.8287 N   0  0  0  0  0  0  0  0  0  0  0  0
   13.7531  -10.3712  -22.9727 C   0  0  0  0  0  0  0  0  0  0  0  0
   12.7763  -10.8129  -23.8540 C   0  0  0  0  0  0  0  0  0  0  0  0
   12.0398  -11.9414  -23.5136 C   0  0  0  0  0  0  0  0  0  0  0  0
   11.1222  -12.4173  -24.3495 N   0  0  0  0  0  0  0  0  0  0  0  0
   12.7736   -9.9909  -24.8975 N   0  0  0  0  0  0  0  0  0  0  0  0
   13.7095   -9.0688  -24.6849 C   0  0  0  0  0  0  0  0  0  0  0  0
   14.3096   -9.2934  -23.5157 N   0  0  0  0  0  0  0  0  0  0  0  0
  2  1  1  6  0  0  0
  2  5  1  0  0  0  0
  2  3  1  0  0  0  0
  3 17  1  0  0  0  0
  3  4  1  0  0  0  0
  5  6  1  0  0  0  0
  7  8  1  0  0  0  0
  8  6  1  1  0  0  0
  8  9  1  0  0  0  0
 10  9  1  6  0  0  0
 10 11  1  0  0  0  0
 10 12  1  0  0  0  0
 11 16  1  0  0  0  0
 12 13  1  6  0  0  0
 12 14  1  0  0  0  0
 14 15  1  6  0  0  0
 14 16  1  0  0  0  0
 16 27  1  1  0  0  0
 18 23  2  0  0  0  0
 18 19  1  0  0  0  0
 19 20  2  0  0  0  0
 20 21  1  0  0  0  0
 21 22  2  0  0  0  0
 21 27  1  0  0  0  0
 22 23  1  0  0  0  0
 22 25  1  0  0  0  0
 23 24  1  0  0  0  0
 25 26  2  0  0  0  0
 26 27  1  0  0  0  0
M  END
>  <CHROM.1>
-171.74564388,136.35513680,179.08700792,67.63898300,-134.50969248,179.89164890
-13.42685489,13.44884845,-7.86277677,-20.75743161,1.87912057,0.66287772,0.76487946

>  <Name>
ligand

>  <RI>
0

>  <Rbt.Current_Directory>
/home/itssahil/PROJECTS/Mol_Feturizer/New_Systems/rnas/3E5F

>  <Rbt.Executable>
rbdock ($Id: //depot/dev/client3/rdock/2013.1/src/exe/rbdock.cxx#4 $)

>  <Rbt.Library>
libRbt.so (2013.1, Build901 2013/11/27)

>  <Rbt.Parameter_File>
/export/apps/rDock/src/rDock_2013.1_src/data/scripts/dock_solv.prm

>  <Rbt.Receptor>
prm/pocket_docking_8.prm

>  <SCORE>
-10.7088

>  <SCORE.INTER>
-11.6676

>  <SCORE.INTER.CONST>
1

>  <SCORE.INTER.POLAR>
0

>  <SCORE.INTER.ROT>
7

>  <SCORE.INTER.SOLV>
11.5944

>  <SCORE.INTER.VDW>
-19.9099

>  <SCORE.INTER.norm>
-0.432133

>  <SCORE.INTRA>
0.958773

>  <SCORE.INTRA.DIHEDRAL>
0.78393

>  <SCORE.INTRA.DIHEDRAL.0>
4.89803

>  <SCORE.INTRA.POLAR>
0

>  <SCORE.INTRA.POLAR.0>
0

>  <SCORE.INTRA.REPUL>
0

>  <SCORE.INTRA.REPUL.0>
0

>  <SCORE.INTRA.SOLV>
0.0330067

>  <SCORE.INTRA.SOLV.lig_0>
-48.5832

>  <SCORE.INTRA.VDW>
0.550305

>  <SCORE.INTRA.VDW.0>
-2.39056

>  <SCORE.INTRA.norm>
0.0355101

>  <SCORE.RESTR>
0

>  <SCORE.RESTR.CAVITY>
0

>  <SCORE.RESTR.norm>
0

>  <SCORE.SYSTEM>
0

>  <SCORE.SYSTEM.CONST>
0

>  <SCORE.SYSTEM.DIHEDRAL>
0

>  <SCORE.SYSTEM.SOLV>
0

>  <SCORE.SYSTEM.norm>
0

>  <SCORE.heavy>
27

>  <SCORE.norm>
-0.396623

>  <RMSD>
4.860

$$$$
ligand
 OpenBabel11021811473D
libRbt.so/2013.1/901 2013/11/27
 27 29  0  0  0  0  0  0  0  0999 V2000
   12.1383  -10.5458  -19.2949 N   0  0  0  0  0  0  0  0  0  0  0  0
   12.5920   -9.1527  -19.4177 C   0  0  2  0  0  0  0  0  0  0  0  0
   13.4103   -8.7591  -18.1842 C   0  0  0  0  0  0  0  0  0  0  0  0
   14.4512   -8.0952  -18.3826 O   0  0  0  0  0  0  0  0  0  0  0  0
   11.3671   -8.2423  -19.5214 C   0  0  0  0  0  0  0  0  0  0  0  0
   11.7371   -6.8326  -19.9896 C   0  0  0  0  0  0  0  0  0  0  0  0
   11.6437   -4.9901  -17.8293 C   0  0  0  0  0  0  0  0  0  0  0  0
   12.8673   -6.0017  -18.7701 Se  0  0  2  0  0  0  0  0  0  0  0  0
   13.8134   -4.6895  -19.6863 C   0  0  0  0  0  0  0  0  0  0  0  0
   15.3227   -4.7431  -19.4464 C   0  0  1  0  0  0  0  0  0  0  0  0
   15.7775   -6.0796  -19.7194 O   0  0  0  0  0  0  0  0  0  0  0  0
   15.9838   -3.8815  -20.5229 C   0  0  1  0  0  0  0  0  0  0  0  0
   17.3760   -3.7407  -20.2362 O   0  0  0  0  0  0  0  0  0  0  0  0
   15.7901   -4.8006  -21.7263 C   0  0  1  0  0  0  0  0  0  0  0  0
   16.7473   -4.4540  -22.7288 O   0  0  0  0  0  0  0  0  0  0  0  0
   16.1913   -6.1350  -21.0963 C   0  0  2  0  0  0  0  0  0  0  0  0
   12.9835   -9.1381  -17.0713 O   0  0  0  0  0  0  0  0  0  0  0  0
   14.8679   -8.1954  -25.6403 N   0  0  0  0  0  0  0  0  0  0  0  0
   15.4568   -7.0374  -25.3960 C   0  0  0  0  0  0  0  0  0  0  0  0
   15.7359   -6.6436  -24.1657 N   0  0  0  0  0  0  0  0  0  0  0  0
   15.4289   -7.4191  -23.1148 C   0  0  0  0  0  0  0  0  0  0  0  0
   14.8083   -8.6413  -23.3315 C   0  0  0  0  0  0  0  0  0  0  0  0
   14.5280   -9.0180  -24.6397 C   0  0  0  0  0  0  0  0  0  0  0  0
   13.8997  -10.1636  -24.8849 N   0  0  0  0  0  0  0  0  0  0  0  0
   14.6116   -9.2091  -22.1469 N   0  0  0  0  0  0  0  0  0  0  0  0
   15.0875   -8.3804  -21.2204 C   0  0  0  0  0  0  0  0  0  0  0  0
   15.5866   -7.2893  -21.8016 N   0  0  0  0  0  0  0  0  0  0  0  0
  2  1  1  1  0  0  0
  2  5  1  0  0  0  0
  2  3  1  0  0  0  0
  3 17  1  0  0  0  0
  3  4  1  0  0  0  0
  5  6  1  0  0  0  0
  7  8  1  0  0  0  0
  8  6  1  6  0  0  0
  8  9  1  0  0  0  0
 10  9  1  6  0  0  0
 10 11  1  0  0  0  0
 10 12  1  0  0  0  0
 11 16  1  0  0  0  0
 12 13  1  1  0  0  0
 12 14  1  0  0  0  0
 14 15  1  6  0  0  0
 14 16  1  0  0  0  0
 16 27  1  6  0  0  0
 18 23  2  0  0  0  0
 18 19  1  0  0  0  0
 19 20  2  0  0  0  0
 20 21  1  0  0  0  0
 21 22  2  0  0  0  0
 21 27  1  0  0  0  0
 22 23  1  0  0  0  0
 22 25  1  0  0  0  0
 23 24  1  0  0  0  0
 25 26  2  0  0  0  0
 26 27  1  0  0  0  0
M  END
>  <CHROM.1>
-166.09618303,137.58284155,-62.50130285,-97.84414656,-130.43341404,52.66064292
158.68319767,14.21549392,-6.91711657,-20.68604653,2.31668554,0.89270344,0.84161849

>  <Name>
ligand

>  <RI>
0

>  <Rbt.Current_Directory>
/home/itssahil/PROJECTS/Mol_Feturizer/New_Systems/rnas/3E5F

>  <Rbt.Executable>
rbdock ($Id: //depot/dev/client3/rdock/2013.1/src/exe/rbdock.cxx#4 $)

>  <Rbt.Library>
libRbt.so (2013.1, Build901 2013/11/27)

>  <Rbt.Parameter_File>
/export/apps/rDock/src/rDock_2013.1_src/data/scripts/dock_solv.prm

>  <Rbt.Receptor>
prm/blind_docking_100.prm

>  <SCORE>
-15.5793

>  <SCORE.INTER>
-14.1388

>  <SCORE.INTER.CONST>
1

>  <SCORE.INTER.POLAR>
0

>  <SCORE.INTER.ROT>
7

>  <SCORE.INTER.SOLV>
16.4671

>  <SCORE.INTER.VDW>
-23.1815

>  <SCORE.INTER.norm>
-0.523658

>  <SCORE.INTRA>
-1.44054

>  <SCORE.INTRA.DIHEDRAL>
2.38879

>  <SCORE.INTRA.DIHEDRAL.0>
4.89803

>  <SCORE.INTRA.POLAR>
0

>  <SCORE.INTRA.POLAR.0>
0

>  <SCORE.INTRA.REPUL>
0

>  <SCORE.INTRA.REPUL.0>
0

>  <SCORE.INTRA.SOLV>
0.317362

>  <SCORE.INTRA.SOLV.lig_0>
-48.5832

>  <SCORE.INTRA.VDW>
-2.79362

>  <SCORE.INTRA.VDW.0>
-2.39056

>  <SCORE.INTRA.norm>
-0.0533535

>  <SCORE.RESTR>
0

>  <SCORE.RESTR.CAVITY>
0

>  <SCORE.RESTR.norm>
0

>  <SCORE.SYSTEM>
0

>  <SCORE.SYSTEM.CONST>
0

>  <SCORE.SYSTEM.DIHEDRAL>
0

>  <SCORE.SYSTEM.SOLV>
0

>  <SCORE.SYSTEM.norm>
0

>  <SCORE.heavy>
27

>  <SCORE.norm>
-0.577011

>  <RMSD>
4.864

$$$$
ligand
 OpenBabel11021811473D
libRbt.so/2013.1/901 2013/11/27
 27 29  0  0  0  0  0  0  0  0999 V2000
    9.9885   -8.6541  -15.9671 N   0  0  0  0  0  0  0  0  0  0  0  0
    9.3592   -7.8882  -17.0530 C   0  0  2  0  0  0  0  0  0  0  0  0
    8.2087   -7.0431  -16.4974 C   0  0  0  0  0  0  0  0  0  0  0  0
    7.5103   -7.5583  -15.5972 O   0  0  0  0  0  0  0  0  0  0  0  0
    8.8096   -8.8665  -18.0925 C   0  0  0  0  0  0  0  0  0  0  0  0
    9.9231   -9.6659  -18.7741 C   0  0  0  0  0  0  0  0  0  0  0  0
    8.3858  -11.9751  -19.3862 C   0  0  0  0  0  0  0  0  0  0  0  0
    9.2691  -10.5994  -20.2422 Se  0  0  2  0  0  0  0  0  0  0  0  0
   10.6998  -11.4977  -21.0182 C   0  0  0  0  0  0  0  0  0  0  0  0
   10.5756  -11.6524  -22.5346 C   0  0  1  0  0  0  0  0  0  0  0  0
   11.1128  -10.4721  -23.1557 O   0  0  0  0  0  0  0  0  0  0  0  0
   11.5232  -12.7767  -22.9547 C   0  0  1  0  0  0  0  0  0  0  0  0
   11.3105  -13.0935  -24.3312 O   0  0  0  0  0  0  0  0  0  0  0  0
   12.8555  -12.0504  -22.7872 C   0  0  1  0  0  0  0  0  0  0  0  0
   13.8422  -12.7098  -23.5827 O   0  0  0  0  0  0  0  0  0  0  0  0
   12.5022  -10.7138  -23.4408 C   0  0  2  0  0  0  0  0  0  0  0  0
    8.0464   -5.9053  -16.9906 O   0  0  0  0  0  0  0  0  0  0  0  0
   16.0824   -7.1891  -24.6255 N   0  0  0  0  0  0  0  0  0  0  0  0
   15.4974   -8.0732  -25.4152 C   0  0  0  0  0  0  0  0  0  0  0  0
   14.5879   -8.9181  -24.9616 N   0  0  0  0  0  0  0  0  0  0  0  0
   14.2244   -8.9011  -23.6703 C   0  0  0  0  0  0  0  0  0  0  0  0
   14.8180   -7.9880  -22.8101 C   0  0  0  0  0  0  0  0  0  0  0  0
   15.7728   -7.1188  -23.3245 C   0  0  0  0  0  0  0  0  0  0  0  0
   16.3914   -6.2564  -22.5240 N   0  0  0  0  0  0  0  0  0  0  0  0
   14.2951   -8.1727  -21.6031 N   0  0  0  0  0  0  0  0  0  0  0  0
   13.4086   -9.1611  -21.6963 C   0  0  0  0  0  0  0  0  0  0  0  0
   13.3598   -9.6091  -22.9510 N   0  0  0  0  0  0  0  0  0  0  0  0
  2  1  1  1  0  0  0
  2  5  1  0  0  0  0
  2  3  1  0  0  0  0
  3 17  1  0  0  0  0
  3  4  1  0  0  0  0
  5  6  1  0  0  0  0
  7  8  1  0  0  0  0
  8  6  1  1  0  0  0
  8  9  1  0  0  0  0
 10  9  1  1  0  0  0
 10 11  1  0  0  0  0
 10 12  1  0  0  0  0
 11 16  1  0  0  0  0
 12 13  1  6  0  0  0
 12 14  1  0  0  0  0
 14 15  1  6  0  0  0
 14 16  1  0  0  0  0
 16 27  1  1  0  0  0
 18 23  2  0  0  0  0
 18 19  1  0  0  0  0
 19 20  2  0  0  0  0
 20 21  1  0  0  0  0
 21 22  2  0  0  0  0
 21 27  1  0  0  0  0
 22 23  1  0  0  0  0
 22 25  1  0  0  0  0
 23 24  1  0  0  0  0
 25 26  2  0  0  0  0
 26 27  1  0  0  0  0
M  END
>  <CHROM.1>
-64.65419972,-37.83130072,-169.18690057,-75.59937648,-148.11520601,86.38052831
-124.84137018,11.45763093,-9.63829000,-21.12280945,-2.63405538,-0.66818216
-2.49183055

>  <Name>
ligand

>  <RI>
0

>  <Rbt.Current_Directory>
/home/itssahil/PROJECTS/Mol_Feturizer/New_Systems/rnas/3E5F

>  <Rbt.Executable>
rbdock ($Id: //depot/dev/client3/rdock/2013.1/src/exe/rbdock.cxx#4 $)

>  <Rbt.Library>
libRbt.so (2013.1, Build901 2013/11/27)

>  <Rbt.Parameter_File>
/export/apps/rDock/src/rDock_2013.1_src/data/scripts/dock_solv.prm

>  <Rbt.Receptor>
prm/pocket_docking_7.prm

>  <SCORE>
-18.2916

>  <SCORE.INTER>
-20.0917

>  <SCORE.INTER.CONST>
1

>  <SCORE.INTER.POLAR>
0

>  <SCORE.INTER.ROT>
7

>  <SCORE.INTER.SOLV>
11.5523

>  <SCORE.INTER.VDW>
-25.5119

>  <SCORE.INTER.norm>
-0.744138

>  <SCORE.INTRA>
1.80012

>  <SCORE.INTRA.DIHEDRAL>
2.36916

>  <SCORE.INTRA.DIHEDRAL.0>
4.89803

>  <SCORE.INTRA.POLAR>
0

>  <SCORE.INTRA.POLAR.0>
0

>  <SCORE.INTRA.REPUL>
0

>  <SCORE.INTRA.REPUL.0>
0

>  <SCORE.INTRA.SOLV>
0.5674

>  <SCORE.INTRA.SOLV.lig_0>
-48.5832

>  <SCORE.INTRA.VDW>
0.331839

>  <SCORE.INTRA.VDW.0>
-2.39056

>  <SCORE.INTRA.norm>
0.0666711

>  <SCORE.RESTR>
0

>  <SCORE.RESTR.CAVITY>
0

>  <SCORE.RESTR.norm>
0

>  <SCORE.SYSTEM>
0

>  <SCORE.SYSTEM.CONST>
0

>  <SCORE.SYSTEM.DIHEDRAL>
0

>  <SCORE.SYSTEM.SOLV>
0

>  <SCORE.SYSTEM.norm>
0

>  <SCORE.heavy>
27

>  <SCORE.norm>
-0.677466

>  <RMSD>
4.869

$$$$
ligand
 OpenBabel11021811473D
libRbt.so/2013.1/901 2013/11/27
 27 29  0  0  0  0  0  0  0  0999 V2000
    9.5945   -7.5402  -17.1117 N   0  0  0  0  0  0  0  0  0  0  0  0
    8.7547   -8.7046  -16.7945 C   0  0  2  0  0  0  0  0  0  0  0  0
    9.5359   -9.6890  -15.9188 C   0  0  0  0  0  0  0  0  0  0  0  0
   10.7809   -9.5732  -15.9077 O   0  0  0  0  0  0  0  0  0  0  0  0
    8.3574   -9.3966  -18.0995 C   0  0  0  0  0  0  0  0  0  0  0  0
    9.5754   -9.9137  -18.8693 C   0  0  0  0  0  0  0  0  0  0  0  0
    8.2776  -12.3143  -19.6588 C   0  0  0  0  0  0  0  0  0  0  0  0
    9.0556  -10.8179  -20.4078 Se  0  0  2  0  0  0  0  0  0  0  0  0
   10.5862  -11.5374  -21.1796 C   0  0  0  0  0  0  0  0  0  0  0  0
   10.4999  -11.6711  -22.7005 C   0  0  1  0  0  0  0  0  0  0  0  0
   11.0503  -10.4814  -23.2916 O   0  0  0  0  0  0  0  0  0  0  0  0
   11.4595  -12.7880  -23.1126 C   0  0  1  0  0  0  0  0  0  0  0  0
   11.2816  -13.0859  -24.4983 O   0  0  0  0  0  0  0  0  0  0  0  0
   12.7860  -12.0623  -22.9021 C   0  0  1  0  0  0  0  0  0  0  0  0
   13.7933  -12.7092  -23.6819 O   0  0  0  0  0  0  0  0  0  0  0  0
   12.4467  -10.7172  -23.5456 C   0  0  2  0  0  0  0  0  0  0  0  0
    8.8733  -10.5414  -15.2874 O   0  0  0  0  0  0  0  0  0  0  0  0
   16.0929   -7.2120  -24.5771 N   0  0  0  0  0  0  0  0  0  0  0  0
   15.5355   -8.0915  -25.3915 C   0  0  0  0  0  0  0  0  0  0  0  0
   14.6033   -8.9317  -24.9768 N   0  0  0  0  0  0  0  0  0  0  0  0
   14.1874   -8.9143  -23.7014 C   0  0  0  0  0  0  0  0  0  0  0  0
   14.7507   -8.0060  -22.8162 C   0  0  0  0  0  0  0  0  0  0  0  0
   15.7308   -7.1417  -23.2897 C   0  0  0  0  0  0  0  0  0  0  0  0
   16.3211   -6.2841  -22.4631 N   0  0  0  0  0  0  0  0  0  0  0  0
   14.1778   -8.1893  -21.6319 N   0  0  0  0  0  0  0  0  0  0  0  0
   13.2901   -9.1724  -21.7629 C   0  0  0  0  0  0  0  0  0  0  0  0
   13.2900   -9.6183  -23.0193 N   0  0  0  0  0  0  0  0  0  0  0  0
  2  1  1  6  0  0  0
  2  5  1  0  0  0  0
  2  3  1  0  0  0  0
  3 17  1  0  0  0  0
  3  4  1  0  0  0  0
  5  6  1  0  0  0  0
  7  8  1  0  0  0  0
  8  6  1  1  0  0  0
  8  9  1  0  0  0  0
 10  9  1  1  0  0  0
 10 11  1  0  0  0  0
 10 12  1  0  0  0  0
 11 16  1  0  0  0  0
 12 13  1  6  0  0  0
 12 14  1  0  0  0  0
 14 15  1  6  0  0  0
 14 16  1  0  0  0  0
 16 27  1  1  0  0  0
 18 23  2  0  0  0  0
 18 19  1  0  0  0  0
 19 20  2  0  0  0  0
 20 21  1  0  0  0  0
 21 22  2  0  0  0  0
 21 27  1  0  0  0  0
 22 23  1  0  0  0  0
 22 25  1  0  0  0  0
 23 24  1  0  0  0  0
 25 26  2  0  0  0  0
 26 27  1  0  0  0  0
M  END
>  <CHROM.1>
61.66648565,-18.47069089,177.33997647,-69.04050097,-150.54983412,92.60528387
-126.08070671,11.51517329,-10.02687420,-21.16488379,-2.61691498,-0.68825525
-2.20852350

>  <Name>
ligand

>  <RI>
0

>  <Rbt.Current_Directory>
/home/itssahil/PROJECTS/Mol_Feturizer/New_Systems/rnas/3E5F

>  <Rbt.Executable>
rbdock ($Id: //depot/dev/client3/rdock/2013.1/src/exe/rbdock.cxx#4 $)

>  <Rbt.Library>
libRbt.so (2013.1, Build901 2013/11/27)

>  <Rbt.Parameter_File>
/export/apps/rDock/src/rDock_2013.1_src/data/scripts/dock_solv.prm

>  <Rbt.Receptor>
prm/pocket_docking_6.prm

>  <SCORE>
-17.4961

>  <SCORE.INTER>
-20.0419

>  <SCORE.INTER.CONST>
1

>  <SCORE.INTER.POLAR>
0

>  <SCORE.INTER.ROT>
7

>  <SCORE.INTER.SOLV>
12.4606

>  <SCORE.INTER.VDW>
-25.7815

>  <SCORE.INTER.norm>
-0.742293

>  <SCORE.INTRA>
2.54582

>  <SCORE.INTRA.DIHEDRAL>
2.47153

>  <SCORE.INTRA.DIHEDRAL.0>
4.89803

>  <SCORE.INTRA.POLAR>
0

>  <SCORE.INTRA.POLAR.0>
0

>  <SCORE.INTRA.REPUL>
0

>  <SCORE.INTRA.REPUL.0>
0

>  <SCORE.INTRA.SOLV>
0.593698

>  <SCORE.INTRA.SOLV.lig_0>
-48.5832

>  <SCORE.INTRA.VDW>
1.0132

>  <SCORE.INTRA.VDW.0>
-2.39056

>  <SCORE.INTRA.norm>
0.0942896

>  <SCORE.RESTR>
0

>  <SCORE.RESTR.CAVITY>
0

>  <SCORE.RESTR.norm>
0

>  <SCORE.SYSTEM>
0

>  <SCORE.SYSTEM.CONST>
0

>  <SCORE.SYSTEM.DIHEDRAL>
0

>  <SCORE.SYSTEM.SOLV>
0

>  <SCORE.SYSTEM.norm>
0

>  <SCORE.heavy>
27

>  <SCORE.norm>
-0.648003

>  <RMSD>
4.879

$$$$
ligand
 OpenBabel11021811473D
libRbt.so/2013.1/901 2013/11/27
 27 29  0  0  0  0  0  0  0  0999 V2000
   13.0268   -2.1281  -18.3308 N   0  0  0  0  0  0  0  0  0  0  0  0
   12.0430   -3.2185  -18.4018 C   0  0  2  0  0  0  0  0  0  0  0  0
   11.8160   -3.8090  -17.0069 C   0  0  0  0  0  0  0  0  0  0  0  0
   10.7261   -4.3885  -16.8070 O   0  0  0  0  0  0  0  0  0  0  0  0
   12.5814   -4.3092  -19.3294 C   0  0  0  0  0  0  0  0  0  0  0  0
   13.9143   -4.8770  -18.8351 C   0  0  0  0  0  0  0  0  0  0  0  0
   13.1844   -7.5886  -19.2650 C   0  0  0  0  0  0  0  0  0  0  0  0
   14.4249   -6.3515  -19.8449 Se  0  0  2  0  0  0  0  0  0  0  0  0
   15.9948   -7.0202  -19.1070 C   0  0  0  0  0  0  0  0  0  0  0  0
   17.2619   -6.4113  -19.7089 C   0  0  1  0  0  0  0  0  0  0  0  0
   17.5205   -7.0565  -20.9677 O   0  0  0  0  0  0  0  0  0  0  0  0
   16.9387   -4.9623  -20.0755 C   0  0  1  0  0  0  0  0  0  0  0  0
   18.1358   -4.2883  -20.4665 O   0  0  0  0  0  0  0  0  0  0  0  0
   16.0571   -5.2089  -21.2972 C   0  0  1  0  0  0  0  0  0  0  0  0
   16.0435   -4.0277  -22.1008 O   0  0  0  0  0  0  0  0  0  0  0  0
   16.8905   -6.2800  -22.0021 C   0  0  2  0  0  0  0  0  0  0  0  0
   12.7319   -3.6603  -16.1682 O   0  0  0  0  0  0  0  0  0  0  0  0
   13.7318  -10.3450  -22.3805 N   0  0  0  0  0  0  0  0  0  0  0  0
   14.3098   -9.8427  -21.3029 C   0  0  0  0  0  0  0  0  0  0  0  0
   15.1001   -8.7852  -21.3652 N   0  0  0  0  0  0  0  0  0  0  0  0
   15.3395   -8.1804  -22.5385 C   0  0  0  0  0  0  0  0  0  0  0  0
   14.7518   -8.6800  -23.6922 C   0  0  0  0  0  0  0  0  0  0  0  0
   13.9302   -9.7960  -23.5858 C   0  0  0  0  0  0  0  0  0  0  0  0
   13.3804  -10.3268  -24.6735 N   0  0  0  0  0  0  0  0  0  0  0  0
   15.1423   -7.9166  -24.7066 N   0  0  0  0  0  0  0  0  0  0  0  0
   15.9435   -6.9743  -24.2150 C   0  0  0  0  0  0  0  0  0  0  0  0
   16.0681   -7.1280  -22.8966 N   0  0  0  0  0  0  0  0  0  0  0  0
  2  1  1  1  0  0  0
  2  5  1  0  0  0  0
  2  3  1  0  0  0  0
  3 17  1  0  0  0  0
  3  4  1  0  0  0  0
  5  6  1  0  0  0  0
  7  8  1  0  0  0  0
  8  6  1  1  0  0  0
  8  9  1  0  0  0  0
 10  9  1  6  0  0  0
 10 11  1  0  0  0  0
 10 12  1  0  0  0  0
 11 16  1  0  0  0  0
 12 13  1  6  0  0  0
 12 14  1  0  0  0  0
 14 15  1  6  0  0  0
 14 16  1  0  0  0  0
 16 27  1  1  0  0  0
 18 23  2  0  0  0  0
 18 19  1  0  0  0  0
 19 20  2  0  0  0  0
 20 21  1  0  0  0  0
 21 22  2  0  0  0  0
 21 27  1  0  0  0  0
 22 23  1  0  0  0  0
 22 25  1  0  0  0  0
 23 24  1  0  0  0  0
 25 26  2  0  0  0  0
 26 27  1  0  0  0  0
M  END
>  <CHROM.1>
59.58777159,155.84904038,172.19083364,-71.06210399,-90.32007736,-79.38333055
36.60357921,14.66267848,-6.35355540,-20.57448029,-1.92095790,-0.43423915
-2.43901562

>  <Name>
ligand

>  <RI>
0

>  <Rbt.Current_Directory>
/home/itssahil/PROJECTS/Mol_Feturizer/New_Systems/rnas/3E5F

>  <Rbt.Executable>
rbdock ($Id: //depot/dev/client3/rdock/2013.1/src/exe/rbdock.cxx#4 $)

>  <Rbt.Library>
libRbt.so (2013.1, Build901 2013/11/27)

>  <Rbt.Parameter_File>
/export/apps/rDock/src/rDock_2013.1_src/data/scripts/dock_solv.prm

>  <Rbt.Receptor>
prm/pocket_docking_5.prm

>  <SCORE>
-11.7934

>  <SCORE.INTER>
-12.2677

>  <SCORE.INTER.CONST>
1

>  <SCORE.INTER.POLAR>
0

>  <SCORE.INTER.ROT>
7

>  <SCORE.INTER.SOLV>
15.9129

>  <SCORE.INTER.VDW>
-21.7494

>  <SCORE.INTER.norm>
-0.454358

>  <SCORE.INTRA>
0.474296

>  <SCORE.INTRA.DIHEDRAL>
0.186594

>  <SCORE.INTRA.DIHEDRAL.0>
4.89803

>  <SCORE.INTRA.POLAR>
0

>  <SCORE.INTRA.POLAR.0>
0

>  <SCORE.INTRA.REPUL>
0

>  <SCORE.INTRA.REPUL.0>
0

>  <SCORE.INTRA.SOLV>
0.962534

>  <SCORE.INTRA.SOLV.lig_0>
-48.5832

>  <SCORE.INTRA.VDW>
-0.100269

>  <SCORE.INTRA.VDW.0>
-2.39056

>  <SCORE.INTRA.norm>
0.0175665

>  <SCORE.RESTR>
0

>  <SCORE.RESTR.CAVITY>
0

>  <SCORE.RESTR.norm>
0

>  <SCORE.SYSTEM>
0

>  <SCORE.SYSTEM.CONST>
0

>  <SCORE.SYSTEM.DIHEDRAL>
0

>  <SCORE.SYSTEM.SOLV>
0

>  <SCORE.SYSTEM.norm>
0

>  <SCORE.heavy>
27

>  <SCORE.norm>
-0.436791

>  <RMSD>
4.887

$$$$
ligand
 OpenBabel11021811473D
libRbt.so/2013.1/901 2013/11/27
 27 29  0  0  0  0  0  0  0  0999 V2000
   17.0724   -7.4018  -18.9621 N   0  0  0  0  0  0  0  0  0  0  0  0
   17.0434   -7.2468  -20.4239 C   0  0  2  0  0  0  0  0  0  0  0  0
   18.0163   -6.1438  -20.8517 C   0  0  0  0  0  0  0  0  0  0  0  0
   18.7312   -6.3747  -21.8512 O   0  0  0  0  0  0  0  0  0  0  0  0
   15.6259   -6.8621  -20.8512 C   0  0  0  0  0  0  0  0  0  0  0  0
   15.4726   -6.8342  -22.3741 C   0  0  0  0  0  0  0  0  0  0  0  0
   15.0902   -8.1793  -24.8469 C   0  0  0  0  0  0  0  0  0  0  0  0
   15.3979   -8.5573  -23.0670 Se  0  0  2  0  0  0  0  0  0  0  0  0
   13.7716   -9.2978  -22.5542 C   0  0  0  0  0  0  0  0  0  0  0  0
   13.9148  -10.5256  -21.6539 C   0  0  1  0  0  0  0  0  0  0  0  0
   14.3888  -10.0913  -20.3677 O   0  0  0  0  0  0  0  0  0  0  0  0
   12.5068  -11.0595  -21.3879 C   0  0  1  0  0  0  0  0  0  0  0  0
   12.5900  -12.3139  -20.7098 O   0  0  0  0  0  0  0  0  0  0  0  0
   12.0122   -9.9803  -20.4281 C   0  0  1  0  0  0  0  0  0  0  0  0
   10.9299  -10.5088  -19.6597 O   0  0  0  0  0  0  0  0  0  0  0  0
   13.2435   -9.8528  -19.5301 C   0  0  2  0  0  0  0  0  0  0  0  0
   18.0314   -5.0983  -20.1654 O   0  0  0  0  0  0  0  0  0  0  0  0
   12.0269   -4.8423  -19.7735 N   0  0  0  0  0  0  0  0  0  0  0  0
   11.7481   -5.8051  -20.6354 C   0  0  0  0  0  0  0  0  0  0  0  0
   12.1298   -7.0540  -20.4321 N   0  0  0  0  0  0  0  0  0  0  0  0
   12.8175   -7.3865  -19.3292 C   0  0  0  0  0  0  0  0  0  0  0  0
   13.1304   -6.4024  -18.4021 C   0  0  0  0  0  0  0  0  0  0  0  0
   12.7146   -5.1003  -18.6538 C   0  0  0  0  0  0  0  0  0  0  0  0
   13.0287   -4.1236  -17.8084 N   0  0  0  0  0  0  0  0  0  0  0  0
   13.8068   -6.9792  -17.4150 N   0  0  0  0  0  0  0  0  0  0  0  0
   13.9171   -8.2732  -17.7062 C   0  0  0  0  0  0  0  0  0  0  0  0
   13.3174   -8.5287  -18.8691 N   0  0  0  0  0  0  0  0  0  0  0  0
  2  1  1  1  0  0  0
  2  5  1  0  0  0  0
  2  3  1  0  0  0  0
  3 17  1  0  0  0  0
  3  4  1  0  0  0  0
  5  6  1  0  0  0  0
  7  8  1  0  0  0  0
  8  6  1  1  0  0  0
  8  9  1  0  0  0  0
 10  9  1  6  0  0  0
 10 11  1  0  0  0  0
 10 12  1  0  0  0  0
 11 16  1  0  0  0  0
 12 13  1  1  0  0  0
 12 14  1  0  0  0  0
 14 15  1  1  0  0  0
 14 16  1  0  0  0  0
 16 27  1  6  0  0  0
 18 23  2  0  0  0  0
 18 19  1  0  0  0  0
 19 20  2  0  0  0  0
 20 21  1  0  0  0  0
 21 22  2  0  0  0  0
 21 27  1  0  0  0  0
 22 23  1  0  0  0  0
 22 25  1  0  0  0  0
 23 24  1  0  0  0  0
 25 26  2  0  0  0  0
 26 27  1  0  0  0  0
M  END
>  <CHROM.1>
-173.60894990,136.66041143,74.85723143,175.93079986,-117.27322447,70.66423632
91.63543381,14.38545905,-7.95832122,-20.77120952,0.08855473,0.58271209,0.69931912

>  <Name>
ligand

>  <RI>
0

>  <Rbt.Current_Directory>
/home/itssahil/PROJECTS/Mol_Feturizer/New_Systems/rnas/3E5F

>  <Rbt.Executable>
rbdock ($Id: //depot/dev/client3/rdock/2013.1/src/exe/rbdock.cxx#4 $)

>  <Rbt.Library>
libRbt.so (2013.1, Build901 2013/11/27)

>  <Rbt.Parameter_File>
/export/apps/rDock/src/rDock_2013.1_src/data/scripts/dock_solv.prm

>  <Rbt.Receptor>
prm/blind_docking_100.prm

>  <SCORE>
-14.1862

>  <SCORE.INTER>
-13.0391

>  <SCORE.INTER.CONST>
1

>  <SCORE.INTER.POLAR>
0

>  <SCORE.INTER.ROT>
7

>  <SCORE.INTER.SOLV>
7.27358

>  <SCORE.INTER.VDW>
-19.3839

>  <SCORE.INTER.norm>
-0.48293

>  <SCORE.INTRA>
-1.14709

>  <SCORE.INTRA.DIHEDRAL>
1.47103

>  <SCORE.INTRA.DIHEDRAL.0>
4.89803

>  <SCORE.INTRA.POLAR>
0

>  <SCORE.INTRA.POLAR.0>
0

>  <SCORE.INTRA.REPUL>
0

>  <SCORE.INTRA.REPUL.0>
0

>  <SCORE.INTRA.SOLV>
0.954006

>  <SCORE.INTRA.SOLV.lig_0>
-48.5832

>  <SCORE.INTRA.VDW>
-2.35961

>  <SCORE.INTRA.VDW.0>
-2.39056

>  <SCORE.INTRA.norm>
-0.0424849

>  <SCORE.RESTR>
0

>  <SCORE.RESTR.CAVITY>
0

>  <SCORE.RESTR.norm>
0

>  <SCORE.SYSTEM>
0

>  <SCORE.SYSTEM.CONST>
0

>  <SCORE.SYSTEM.DIHEDRAL>
0

>  <SCORE.SYSTEM.SOLV>
0

>  <SCORE.SYSTEM.norm>
0

>  <SCORE.heavy>
27

>  <SCORE.norm>
-0.525415

>  <RMSD>
4.890

$$$$
ligand
 OpenBabel11021811473D
libRbt.so/2013.1/901 2013/11/27
 27 29  0  0  0  0  0  0  0  0999 V2000
   17.8451   -4.0499  -14.0430 N   0  0  0  0  0  0  0  0  0  0  0  0
   16.7410   -3.3651  -14.7314 C   0  0  2  0  0  0  0  0  0  0  0  0
   16.4216   -2.0456  -14.0221 C   0  0  0  0  0  0  0  0  0  0  0  0
   15.8192   -1.1754  -14.6880 O   0  0  0  0  0  0  0  0  0  0  0  0
   15.5054   -4.2663  -14.6999 C   0  0  0  0  0  0  0  0  0  0  0  0
   15.6430   -5.4630  -15.6445 C   0  0  0  0  0  0  0  0  0  0  0  0
   13.6454   -4.8274  -17.5618 C   0  0  0  0  0  0  0  0  0  0  0  0
   15.4822   -4.9324  -17.4186 Se  0  0  2  0  0  0  0  0  0  0  0  0
   15.8576   -6.4102  -18.4821 C   0  0  0  0  0  0  0  0  0  0  0  0
   17.2554   -6.3794  -19.1016 C   0  0  1  0  0  0  0  0  0  0  0  0
   17.3540   -7.4553  -20.0505 O   0  0  0  0  0  0  0  0  0  0  0  0
   17.3490   -5.1082  -19.9463 C   0  0  1  0  0  0  0  0  0  0  0  0
   18.6930   -4.9293  -20.3959 O   0  0  0  0  0  0  0  0  0  0  0  0
   16.4597   -5.5240  -21.1153 C   0  0  1  0  0  0  0  0  0  0  0  0
   16.7869   -4.7210  -22.2508 O   0  0  0  0  0  0  0  0  0  0  0  0
   16.9827   -6.9429  -21.3426 C   0  0  2  0  0  0  0  0  0  0  0  0
   16.7944   -1.9316  -12.8337 O   0  0  0  0  0  0  0  0  0  0  0  0
   14.5570   -8.1419  -25.7384 N   0  0  0  0  0  0  0  0  0  0  0  0
   15.4908   -7.2297  -25.5300 C   0  0  0  0  0  0  0  0  0  0  0  0
   16.0235   -7.0385  -24.3357 N   0  0  0  0  0  0  0  0  0  0  0  0
   15.6296   -7.7763  -23.2867 C   0  0  0  0  0  0  0  0  0  0  0  0
   14.6500   -8.7428  -23.4662 C   0  0  0  0  0  0  0  0  0  0  0  0
   14.1117   -8.9109  -24.7366 C   0  0  0  0  0  0  0  0  0  0  0  0
   13.1443   -9.7997  -24.9399 N   0  0  0  0  0  0  0  0  0  0  0  0
   14.4391   -9.3259  -22.2915 N   0  0  0  0  0  0  0  0  0  0  0  0
   15.2509   -8.7519  -21.4067 C   0  0  0  0  0  0  0  0  0  0  0  0
   15.9786   -7.8084  -22.0047 N   0  0  0  0  0  0  0  0  0  0  0  0
  2  1  1  1  0  0  0
  2  5  1  0  0  0  0
  2  3  1  0  0  0  0
  3 17  1  0  0  0  0
  3  4  1  0  0  0  0
  5  6  1  0  0  0  0
  7  8  1  0  0  0  0
  8  6  1  1  0  0  0
  8  9  1  0  0  0  0
 10  9  1  6  0  0  0
 10 11  1  0  0  0  0
 10 12  1  0  0  0  0
 11 16  1  0  0  0  0
 12 13  1  6  0  0  0
 12 14  1  0  0  0  0
 14 15  1  6  0  0  0
 14 16  1  0  0  0  0
 16 27  1  1  0  0  0
 18 23  2  0  0  0  0
 18 19  1  0  0  0  0
 19 20  2  0  0  0  0
 20 21  1  0  0  0  0
 21 22  2  0  0  0  0
 21 27  1  0  0  0  0
 22 23  1  0  0  0  0
 22 25  1  0  0  0  0
 23 24  1  0  0  0  0
 25 26  2  0  0  0  0
 26 27  1  0  0  0  0
M  END
>  <CHROM.1>
-72.50829758,158.69056737,-73.05262563,-80.65474282,-102.73345805,-171.45705338
-165.52643232,15.88490163,-5.79971746,-19.39134810,-1.43434319,-0.61751496
-1.98517855

>  <Name>
ligand

>  <RI>
0

>  <Rbt.Current_Directory>
/home/itssahil/PROJECTS/Mol_Feturizer/New_Systems/rnas/3E5F

>  <Rbt.Executable>
rbdock ($Id: //depot/dev/client3/rdock/2013.1/src/exe/rbdock.cxx#4 $)

>  <Rbt.Library>
libRbt.so (2013.1, Build901 2013/11/27)

>  <Rbt.Parameter_File>
/export/apps/rDock/src/rDock_2013.1_src/data/scripts/dock_solv.prm

>  <Rbt.Receptor>
prm/pocket_docking_8.prm

>  <SCORE>
-13.2549

>  <SCORE.INTER>
-13.9628

>  <SCORE.INTER.CONST>
1

>  <SCORE.INTER.POLAR>
0

>  <SCORE.INTER.ROT>
7

>  <SCORE.INTER.SOLV>
18.7061

>  <SCORE.INTER.VDW>
-23.8106

>  <SCORE.INTER.norm>
-0.51714

>  <SCORE.INTRA>
0.707884

>  <SCORE.INTRA.DIHEDRAL>
1.21415

>  <SCORE.INTRA.DIHEDRAL.0>
4.89803

>  <SCORE.INTRA.POLAR>
0

>  <SCORE.INTRA.POLAR.0>
0

>  <SCORE.INTRA.REPUL>
0

>  <SCORE.INTRA.REPUL.0>
0

>  <SCORE.INTRA.SOLV>
0.676858

>  <SCORE.INTRA.SOLV.lig_0>
-48.5832

>  <SCORE.INTRA.VDW>
-0.23762

>  <SCORE.INTRA.VDW.0>
-2.39056

>  <SCORE.INTRA.norm>
0.0262179

>  <SCORE.RESTR>
0

>  <SCORE.RESTR.CAVITY>
0

>  <SCORE.RESTR.norm>
0

>  <SCORE.SYSTEM>
0

>  <SCORE.SYSTEM.CONST>
0

>  <SCORE.SYSTEM.DIHEDRAL>
0

>  <SCORE.SYSTEM.SOLV>
0

>  <SCORE.SYSTEM.norm>
0

>  <SCORE.heavy>
27

>  <SCORE.norm>
-0.490922

>  <RMSD>
4.894

$$$$
ligand
 OpenBabel11021811473D
libRbt.so/2013.1/901 2013/11/27
 27 29  0  0  0  0  0  0  0  0999 V2000
   16.4048   -4.4926  -21.5201 N   0  0  0  0  0  0  0  0  0  0  0  0
   15.3845   -5.2010  -20.7333 C   0  0  2  0  0  0  0  0  0  0  0  0
   15.9673   -5.6226  -19.3810 C   0  0  0  0  0  0  0  0  0  0  0  0
   15.1536   -5.8518  -18.4596 O   0  0  0  0  0  0  0  0  0  0  0  0
   14.9451   -6.4475  -21.5035 C   0  0  0  0  0  0  0  0  0  0  0  0
   16.1048   -7.4205  -21.7312 C   0  0  0  0  0  0  0  0  0  0  0  0
   15.5056   -7.5911  -24.5028 C   0  0  0  0  0  0  0  0  0  0  0  0
   15.6702   -8.6829  -23.0242 Se  0  0  2  0  0  0  0  0  0  0  0  0
   13.9060   -9.1946  -22.7376 C   0  0  0  0  0  0  0  0  0  0  0  0
   13.7411  -10.6869  -22.4467 C   0  0  1  0  0  0  0  0  0  0  0  0
   13.7551  -10.8746  -21.0211 O   0  0  0  0  0  0  0  0  0  0  0  0
   12.3264  -11.0786  -22.8751 C   0  0  1  0  0  0  0  0  0  0  0  0
   12.1795  -12.4977  -22.8032 O   0  0  0  0  0  0  0  0  0  0  0  0
   11.5365  -10.4156  -21.7495 C   0  0  1  0  0  0  0  0  0  0  0  0
   10.2600  -11.0492  -21.6480 O   0  0  0  0  0  0  0  0  0  0  0  0
   12.3948  -10.8324  -20.5545 C   0  0  2  0  0  0  0  0  0  0  0  0
   17.2128   -5.6975  -19.2946 O   0  0  0  0  0  0  0  0  0  0  0  0
   11.3310   -6.0236  -19.0090 N   0  0  0  0  0  0  0  0  0  0  0  0
   11.3607   -6.5113  -20.2373 C   0  0  0  0  0  0  0  0  0  0  0  0
   11.6514   -7.7781  -20.4770 N   0  0  0  0  0  0  0  0  0  0  0  0
   11.9252   -8.6182  -19.4675 C   0  0  0  0  0  0  0  0  0  0  0  0
   11.9055   -8.1423  -18.1640 C   0  0  0  0  0  0  0  0  0  0  0  0
   11.5991   -6.8030  -17.9535 C   0  0  0  0  0  0  0  0  0  0  0  0
   11.6082   -6.3012  -16.7225 N   0  0  0  0  0  0  0  0  0  0  0  0
   12.2080   -9.1557  -17.3604 N   0  0  0  0  0  0  0  0  0  0  0  0
   12.4107  -10.2270  -18.1237 C   0  0  0  0  0  0  0  0  0  0  0  0
   12.2401   -9.9080  -19.4068 N   0  0  0  0  0  0  0  0  0  0  0  0
  2  1  1  6  0  0  0
  2  5  1  0  0  0  0
  2  3  1  0  0  0  0
  3 17  1  0  0  0  0
  3  4  1  0  0  0  0
  5  6  1  0  0  0  0
  7  8  1  0  0  0  0
  8  6  1  1  0  0  0
  8  9  1  0  0  0  0
 10  9  1  1  0  0  0
 10 11  1  0  0  0  0
 10 12  1  0  0  0  0
 11 16  1  0  0  0  0
 12 13  1  1  0  0  0
 12 14  1  0  0  0  0
 14 15  1  1  0  0  0
 14 16  1  0  0  0  0
 16 27  1  1  0  0  0
 18 23  2  0  0  0  0
 18 19  1  0  0  0  0
 19 20  2  0  0  0  0
 20 21  1  0  0  0  0
 21 22  2  0  0  0  0
 21 27  1  0  0  0  0
 22 23  1  0  0  0  0
 22 25  1  0  0  0  0
 23 24  1  0  0  0  0
 25 26  2  0  0  0  0
 26 27  1  0  0  0  0
M  END
>  <CHROM.1>
61.39559713,158.49167110,-165.14586785,65.05928381,-119.85538794,93.52270166
91.43508061,13.74140052,-8.34616864,-20.89980042,0.43635516,0.66151346,0.78901820

>  <Name>
ligand

>  <RI>
0

>  <Rbt.Current_Directory>
/home/itssahil/PROJECTS/Mol_Feturizer/New_Systems/rnas/3E5F

>  <Rbt.Executable>
rbdock ($Id: //depot/dev/client3/rdock/2013.1/src/exe/rbdock.cxx#4 $)

>  <Rbt.Library>
libRbt.so (2013.1, Build901 2013/11/27)

>  <Rbt.Parameter_File>
/export/apps/rDock/src/rDock_2013.1_src/data/scripts/dock_solv.prm

>  <Rbt.Receptor>
prm/pocket_docking_8.prm

>  <SCORE>
-11.1868

>  <SCORE.INTER>
-13.8888

>  <SCORE.INTER.CONST>
1

>  <SCORE.INTER.POLAR>
0

>  <SCORE.INTER.ROT>
7

>  <SCORE.INTER.SOLV>
6.81931

>  <SCORE.INTER.VDW>
-19.799

>  <SCORE.INTER.norm>
-0.5144

>  <SCORE.INTRA>
2.70201

>  <SCORE.INTRA.DIHEDRAL>
4.1937

>  <SCORE.INTRA.DIHEDRAL.0>
4.89803

>  <SCORE.INTRA.POLAR>
0

>  <SCORE.INTRA.POLAR.0>
0

>  <SCORE.INTRA.REPUL>
0

>  <SCORE.INTRA.REPUL.0>
0

>  <SCORE.INTRA.SOLV>
0.988998

>  <SCORE.INTRA.SOLV.lig_0>
-48.5832

>  <SCORE.INTRA.VDW>
0.110657

>  <SCORE.INTRA.VDW.0>
-2.39056

>  <SCORE.INTRA.norm>
0.100074

>  <SCORE.RESTR>
0

>  <SCORE.RESTR.CAVITY>
0

>  <SCORE.RESTR.norm>
0

>  <SCORE.SYSTEM>
0

>  <SCORE.SYSTEM.CONST>
0

>  <SCORE.SYSTEM.DIHEDRAL>
0

>  <SCORE.SYSTEM.SOLV>
0

>  <SCORE.SYSTEM.norm>
0

>  <SCORE.heavy>
27

>  <SCORE.norm>
-0.414326

>  <RMSD>
4.896

$$$$
ligand
 OpenBabel11021811473D
libRbt.so/2013.1/901 2013/11/27
 27 29  0  0  0  0  0  0  0  0999 V2000
   16.0708   -5.3160  -14.8747 N   0  0  0  0  0  0  0  0  0  0  0  0
   15.6392   -5.1509  -16.2705 C   0  0  2  0  0  0  0  0  0  0  0  0
   14.1098   -5.1087  -16.3428 C   0  0  0  0  0  0  0  0  0  0  0  0
   13.6042   -4.4081  -17.2468 O   0  0  0  0  0  0  0  0  0  0  0  0
   16.1499   -6.3383  -17.0885 C   0  0  0  0  0  0  0  0  0  0  0  0
   17.6742   -6.3255  -17.2296 C   0  0  0  0  0  0  0  0  0  0  0  0
   20.0604   -7.4153  -18.3198 C   0  0  0  0  0  0  0  0  0  0  0  0
   18.2702   -7.8284  -18.1465 Se  0  0  2  0  0  0  0  0  0  0  0  0
   17.6801   -7.6840  -19.9036 C   0  0  0  0  0  0  0  0  0  0  0  0
   18.0290   -6.3468  -20.5585 C   0  0  1  0  0  0  0  0  0  0  0  0
   17.8310   -6.4721  -21.9772 O   0  0  0  0  0  0  0  0  0  0  0  0
   16.9763   -5.3332  -20.1084 C   0  0  1  0  0  0  0  0  0  0  0  0
   17.3574   -4.0245  -20.5357 O   0  0  0  0  0  0  0  0  0  0  0  0
   15.7913   -5.8264  -20.9349 C   0  0  1  0  0  0  0  0  0  0  0  0
   14.8496   -4.7606  -21.0708 O   0  0  0  0  0  0  0  0  0  0  0  0
   16.4897   -6.0469  -22.2774 C   0  0  2  0  0  0  0  0  0  0  0  0
   13.4795   -5.7692  -15.4881 O   0  0  0  0  0  0  0  0  0  0  0  0
   13.7799  -10.4383  -22.4075 N   0  0  0  0  0  0  0  0  0  0  0  0
   14.2794   -9.8040  -21.3607 C   0  0  0  0  0  0  0  0  0  0  0  0
   14.9565   -8.6761  -21.4875 N   0  0  0  0  0  0  0  0  0  0  0  0
   15.1567   -8.1328  -22.6978 C   0  0  0  0  0  0  0  0  0  0  0  0
   14.6489   -8.7709  -23.8207 C   0  0  0  0  0  0  0  0  0  0  0  0
   13.9457   -9.9570  -23.6461 C   0  0  0  0  0  0  0  0  0  0  0  0
   13.4774  -10.6173  -24.7006 N   0  0  0  0  0  0  0  0  0  0  0  0
   14.9793   -8.0432  -24.8817 N   0  0  0  0  0  0  0  0  0  0  0  0
   15.6675   -6.9898  -24.4477 C   0  0  0  0  0  0  0  0  0  0  0  0
   15.7792   -7.0371  -23.1201 N   0  0  0  0  0  0  0  0  0  0  0  0
  2  1  1  1  0  0  0
  2  5  1  0  0  0  0
  2  3  1  0  0  0  0
  3 17  1  0  0  0  0
  3  4  1  0  0  0  0
  5  6  1  0  0  0  0
  7  8  1  0  0  0  0
  8  6  1  1  0  0  0
  8  9  1  0  0  0  0
 10  9  1  1  0  0  0
 10 11  1  0  0  0  0
 10 12  1  0  0  0  0
 11 16  1  0  0  0  0
 12 13  1  6  0  0  0
 12 14  1  0  0  0  0
 14 15  1  6  0  0  0
 14 16  1  0  0  0  0
 16 27  1  6  0  0  0
 18 23  2  0  0  0  0
 18 19  1  0  0  0  0
 19 20  2  0  0  0  0
 20 21  1  0  0  0  0
 21 22  2  0  0  0  0
 21 27  1  0  0  0  0
 22 23  1  0  0  0  0
 22 25  1  0  0  0  0
 23 24  1  0  0  0  0
 25 26  2  0  0  0  0
 26 27  1  0  0  0  0
M  END
>  <CHROM.1>
-68.27229426,148.34770385,176.86337518,173.57265505,51.55124842,165.84152640
82.90935389,16.19587391,-7.05162786,-19.99770067,1.32727442,-0.18226125,1.14766500

>  <Name>
ligand

>  <RI>
0

>  <Rbt.Current_Directory>
/home/itssahil/PROJECTS/Mol_Feturizer/New_Systems/rnas/3E5F

>  <Rbt.Executable>
rbdock ($Id: //depot/dev/client3/rdock/2013.1/src/exe/rbdock.cxx#4 $)

>  <Rbt.Library>
libRbt.so (2013.1, Build901 2013/11/27)

>  <Rbt.Parameter_File>
/export/apps/rDock/src/rDock_2013.1_src/data/scripts/dock_solv.prm

>  <Rbt.Receptor>
prm/pocket_docking_4.prm

>  <SCORE>
-12.5945

>  <SCORE.INTER>
-12.1771

>  <SCORE.INTER.CONST>
1

>  <SCORE.INTER.POLAR>
0

>  <SCORE.INTER.ROT>
7

>  <SCORE.INTER.SOLV>
13.6274

>  <SCORE.INTER.VDW>
-20.9272

>  <SCORE.INTER.norm>
-0.451002

>  <SCORE.INTRA>
-0.417441

>  <SCORE.INTRA.DIHEDRAL>
-1.01433

>  <SCORE.INTRA.DIHEDRAL.0>
4.89803

>  <SCORE.INTRA.POLAR>
0

>  <SCORE.INTRA.POLAR.0>
0

>  <SCORE.INTRA.REPUL>
0

>  <SCORE.INTRA.REPUL.0>
0

>  <SCORE.INTRA.SOLV>
0.859367

>  <SCORE.INTRA.SOLV.lig_0>
-48.5832

>  <SCORE.INTRA.VDW>
-0.33996

>  <SCORE.INTRA.VDW.0>
-2.39056

>  <SCORE.INTRA.norm>
-0.0154608

>  <SCORE.RESTR>
0

>  <SCORE.RESTR.CAVITY>
0

>  <SCORE.RESTR.norm>
0

>  <SCORE.SYSTEM>
0

>  <SCORE.SYSTEM.CONST>
0

>  <SCORE.SYSTEM.DIHEDRAL>
0

>  <SCORE.SYSTEM.SOLV>
0

>  <SCORE.SYSTEM.norm>
0

>  <SCORE.heavy>
27

>  <SCORE.norm>
-0.466463

>  <RMSD>
4.906

$$$$
ligand
 OpenBabel11021811473D
libRbt.so/2013.1/901 2013/11/27
 27 29  0  0  0  0  0  0  0  0999 V2000
   13.9725   -5.1570  -19.8115 N   0  0  0  0  0  0  0  0  0  0  0  0
   15.0732   -6.1065  -20.0321 C   0  0  2  0  0  0  0  0  0  0  0  0
   16.4099   -5.3591  -20.0608 C   0  0  0  0  0  0  0  0  0  0  0  0
   16.4043   -4.2058  -20.5441 O   0  0  0  0  0  0  0  0  0  0  0  0
   14.8586   -6.8072  -21.3749 C   0  0  0  0  0  0  0  0  0  0  0  0
   15.8252   -7.9776  -21.5729 C   0  0  0  0  0  0  0  0  0  0  0  0
   15.8962   -7.1202  -24.2804 C   0  0  0  0  0  0  0  0  0  0  0  0
   15.6922   -8.6665  -23.2941 Se  0  0  2  0  0  0  0  0  0  0  0  0
   13.9038   -9.0727  -23.5989 C   0  0  0  0  0  0  0  0  0  0  0  0
   13.6421  -10.5647  -23.8084 C   0  0  1  0  0  0  0  0  0  0  0  0
   13.8206  -11.2369  -22.5498 O   0  0  0  0  0  0  0  0  0  0  0  0
   12.1547  -10.7240  -24.1252 C   0  0  1  0  0  0  0  0  0  0  0  0
   11.8895  -12.0721  -24.5161 O   0  0  0  0  0  0  0  0  0  0  0  0
   11.5783  -10.4616  -22.7361 C   0  0  1  0  0  0  0  0  0  0  0  0
   10.2728  -11.0374  -22.6633 O   0  0  0  0  0  0  0  0  0  0  0  0
   12.5403  -11.3033  -21.8967 C   0  0  2  0  0  0  0  0  0  0  0  0
   17.4094   -5.9595  -19.6083 O   0  0  0  0  0  0  0  0  0  0  0  0
   11.9559   -7.3318  -18.6516 N   0  0  0  0  0  0  0  0  0  0  0  0
   11.7606   -7.3692  -19.9585 C   0  0  0  0  0  0  0  0  0  0  0  0
   11.9526   -8.4725  -20.6602 N   0  0  0  0  0  0  0  0  0  0  0  0
   12.3533   -9.6028  -20.0588 C   0  0  0  0  0  0  0  0  0  0  0  0
   12.5705   -9.6020  -18.6880 C   0  0  0  0  0  0  0  0  0  0  0  0
   12.3613   -8.4209  -17.9859 C   0  0  0  0  0  0  0  0  0  0  0  0
   12.5958   -8.3706  -16.6784 N   0  0  0  0  0  0  0  0  0  0  0  0
   12.9578  -10.8242  -18.3407 N   0  0  0  0  0  0  0  0  0  0  0  0
   12.9848  -11.5661  -19.4454 C   0  0  0  0  0  0  0  0  0  0  0  0
   12.6180  -10.8301  -20.4947 N   0  0  0  0  0  0  0  0  0  0  0  0
  2  1  1  6  0  0  0
  2  5  1  0  0  0  0
  2  3  1  0  0  0  0
  3 17  1  0  0  0  0
  3  4  1  0  0  0  0
  5  6  1  0  0  0  0
  7  8  1  0  0  0  0
  8  6  1  1  0  0  0
  8  9  1  0  0  0  0
 10  9  1  1  0  0  0
 10 11  1  0  0  0  0
 10 12  1  0  0  0  0
 11 16  1  0  0  0  0
 12 13  1  1  0  0  0
 12 14  1  0  0  0  0
 14 15  1  6  0  0  0
 14 16  1  0  0  0  0
 16 27  1  1  0  0  0
 18 23  2  0  0  0  0
 18 19  1  0  0  0  0
 19 20  2  0  0  0  0
 20 21  1  0  0  0  0
 21 22  2  0  0  0  0
 21 27  1  0  0  0  0
 22 23  1  0  0  0  0
 22 25  1  0  0  0  0
 23 24  1  0  0  0  0
 25 26  2  0  0  0  0
 26 27  1  0  0  0  0
M  END
>  <CHROM.1>
-170.29286046,-33.89373100,-172.61914977,52.07419614,-115.78232315,70.74705113
94.95337419,13.88983996,-8.72665718,-21.41242210,0.75290657,0.75091743,1.03703618

>  <Name>
ligand

>  <RI>
0

>  <Rbt.Current_Directory>
/home/itssahil/PROJECTS/Mol_Feturizer/New_Systems/rnas/3E5F

>  <Rbt.Executable>
rbdock ($Id: //depot/dev/client3/rdock/2013.1/src/exe/rbdock.cxx#4 $)

>  <Rbt.Library>
libRbt.so (2013.1, Build901 2013/11/27)

>  <Rbt.Parameter_File>
/export/apps/rDock/src/rDock_2013.1_src/data/scripts/dock_solv.prm

>  <Rbt.Receptor>
prm/pocket_docking_3.prm

>  <SCORE>
-16.0645

>  <SCORE.INTER>
-16.4865

>  <SCORE.INTER.CONST>
1

>  <SCORE.INTER.POLAR>
0

>  <SCORE.INTER.ROT>
7

>  <SCORE.INTER.SOLV>
8.35522

>  <SCORE.INTER.VDW>
-22.0427

>  <SCORE.INTER.norm>
-0.610611

>  <SCORE.INTRA>
0.294769

>  <SCORE.INTRA.DIHEDRAL>
1.00251

>  <SCORE.INTRA.DIHEDRAL.0>
4.89803

>  <SCORE.INTRA.POLAR>
0

>  <SCORE.INTRA.POLAR.0>
0

>  <SCORE.INTRA.REPUL>
0

>  <SCORE.INTRA.REPUL.0>
0

>  <SCORE.INTRA.SOLV>
1.06471

>  <SCORE.INTRA.SOLV.lig_0>
-48.5832

>  <SCORE.INTRA.VDW>
-0.73884

>  <SCORE.INTRA.VDW.0>
-2.39056

>  <SCORE.INTRA.norm>
0.0109174

>  <SCORE.RESTR>
0.127219

>  <SCORE.RESTR.CAVITY>
0.127219

>  <SCORE.RESTR.norm>
0.00471182

>  <SCORE.SYSTEM>
0

>  <SCORE.SYSTEM.CONST>
0

>  <SCORE.SYSTEM.DIHEDRAL>
0

>  <SCORE.SYSTEM.SOLV>
0

>  <SCORE.SYSTEM.norm>
0

>  <SCORE.heavy>
27

>  <SCORE.norm>
-0.594982

>  <RMSD>
4.907

$$$$
ligand
 OpenBabel11021811473D
libRbt.so/2013.1/901 2013/11/27
 27 29  0  0  0  0  0  0  0  0999 V2000
   12.4412   -7.6335  -17.1310 N   0  0  0  0  0  0  0  0  0  0  0  0
   11.1500   -8.1291  -17.6299 C   0  0  2  0  0  0  0  0  0  0  0  0
   11.3649   -9.3888  -18.4744 C   0  0  0  0  0  0  0  0  0  0  0  0
   10.3421  -10.0126  -18.8324 O   0  0  0  0  0  0  0  0  0  0  0  0
   10.5070   -7.0450  -18.4966 C   0  0  0  0  0  0  0  0  0  0  0  0
   11.3906   -6.6616  -19.6864 C   0  0  0  0  0  0  0  0  0  0  0  0
   12.4263   -4.2930  -18.5087 C   0  0  0  0  0  0  0  0  0  0  0  0
   13.0036   -5.9387  -19.1118 Se  0  0  2  0  0  0  0  0  0  0  0  0
   13.9758   -5.4643  -20.6237 C   0  0  0  0  0  0  0  0  0  0  0  0
   15.4660   -5.7915  -20.5208 C   0  0  1  0  0  0  0  0  0  0  0  0
   15.6077   -7.2140  -20.3653 O   0  0  0  0  0  0  0  0  0  0  0  0
   16.0923   -5.4864  -21.8820 C   0  0  1  0  0  0  0  0  0  0  0  0
   17.5138   -5.5927  -21.7904 O   0  0  0  0  0  0  0  0  0  0  0  0
   15.5324   -6.6619  -22.6790 C   0  0  1  0  0  0  0  0  0  0  0  0
   16.3597   -6.8775  -23.8237 O   0  0  0  0  0  0  0  0  0  0  0  0
   15.7711   -7.7894  -21.6738 C   0  0  2  0  0  0  0  0  0  0  0  0
   12.5462   -9.7062  -18.7357 O   0  0  0  0  0  0  0  0  0  0  0  0
   12.7822  -10.3487  -25.0147 N   0  0  0  0  0  0  0  0  0  0  0  0
   13.5313   -9.2798  -25.2240 C   0  0  0  0  0  0  0  0  0  0  0  0
   14.2502   -8.7331  -24.2591 N   0  0  0  0  0  0  0  0  0  0  0  0
   14.2434   -9.2555  -23.0234 C   0  0  0  0  0  0  0  0  0  0  0  0
   13.4677  -10.3768  -22.7647 C   0  0  0  0  0  0  0  0  0  0  0  0
   12.7229  -10.9200  -23.8049 C   0  0  0  0  0  0  0  0  0  0  0  0
   11.9378  -11.9704  -23.5868 N   0  0  0  0  0  0  0  0  0  0  0  0
   13.6303  -10.6928  -21.4849 N   0  0  0  0  0  0  0  0  0  0  0  0
   14.4730   -9.8084  -20.9567 C   0  0  0  0  0  0  0  0  0  0  0  0
   14.8507   -8.9309  -21.8866 N   0  0  0  0  0  0  0  0  0  0  0  0
  2  1  1  6  0  0  0
  2  5  1  0  0  0  0
  2  3  1  0  0  0  0
  3 17  1  0  0  0  0
  3  4  1  0  0  0  0
  5  6  1  0  0  0  0
  7  8  1  0  0  0  0
  8  6  1  6  0  0  0
  8  9  1  0  0  0  0
 10  9  1  6  0  0  0
 10 11  1  0  0  0  0
 10 12  1  0  0  0  0
 11 16  1  0  0  0  0
 12 13  1  1  0  0  0
 12 14  1  0  0  0  0
 14 15  1  6  0  0  0
 14 16  1  0  0  0  0
 16 27  1  6  0  0  0
 18 23  2  0  0  0  0
 18 19  1  0  0  0  0
 19 20  2  0  0  0  0
 20 21  1  0  0  0  0
 21 22  2  0  0  0  0
 21 27  1  0  0  0  0
 22 23  1  0  0  0  0
 22 25  1  0  0  0  0
 23 24  1  0  0  0  0
 25 26  2  0  0  0  0
 26 27  1  0  0  0  0
M  END
>  <CHROM.1>
59.24929072,171.68049672,-62.57352637,-72.62852149,-139.31954038,61.50487065
144.00375300,13.52873249,-7.77390513,-20.82984338,1.99434623,0.72500669,0.77282784

>  <Name>
ligand

>  <RI>
0

>  <Rbt.Current_Directory>
/home/itssahil/PROJECTS/Mol_Feturizer/New_Systems/rnas/3E5F

>  <Rbt.Executable>
rbdock ($Id: //depot/dev/client3/rdock/2013.1/src/exe/rbdock.cxx#4 $)

>  <Rbt.Library>
libRbt.so (2013.1, Build901 2013/11/27)

>  <Rbt.Parameter_File>
/export/apps/rDock/src/rDock_2013.1_src/data/scripts/dock_solv.prm

>  <Rbt.Receptor>
prm/pocket_docking_5.prm

>  <SCORE>
-13.425

>  <SCORE.INTER>
-14.5065

>  <SCORE.INTER.CONST>
1

>  <SCORE.INTER.POLAR>
0

>  <SCORE.INTER.ROT>
7

>  <SCORE.INTER.SOLV>
9.26731

>  <SCORE.INTER.VDW>
-21.0267

>  <SCORE.INTER.norm>
-0.537276

>  <SCORE.INTRA>
1.08145

>  <SCORE.INTRA.DIHEDRAL>
0.185384

>  <SCORE.INTRA.DIHEDRAL.0>
4.89803

>  <SCORE.INTRA.POLAR>
0

>  <SCORE.INTRA.POLAR.0>
0

>  <SCORE.INTRA.REPUL>
0

>  <SCORE.INTRA.REPUL.0>
0

>  <SCORE.INTRA.SOLV>
2.62858

>  <SCORE.INTRA.SOLV.lig_0>
-48.5832

>  <SCORE.INTRA.VDW>
-0.325538

>  <SCORE.INTRA.VDW.0>
-2.39056

>  <SCORE.INTRA.norm>
0.0400536

>  <SCORE.RESTR>
0

>  <SCORE.RESTR.CAVITY>
0

>  <SCORE.RESTR.norm>
0

>  <SCORE.SYSTEM>
0

>  <SCORE.SYSTEM.CONST>
0

>  <SCORE.SYSTEM.DIHEDRAL>
0

>  <SCORE.SYSTEM.SOLV>
0

>  <SCORE.SYSTEM.norm>
0

>  <SCORE.heavy>
27

>  <SCORE.norm>
-0.497223

>  <RMSD>
4.907

$$$$
ligand
 OpenBabel11021811473D
libRbt.so/2013.1/901 2013/11/27
 27 29  0  0  0  0  0  0  0  0999 V2000
   16.5317   -6.9038  -14.5592 N   0  0  0  0  0  0  0  0  0  0  0  0
   17.1729   -6.0799  -15.5945 C   0  0  2  0  0  0  0  0  0  0  0  0
   16.5179   -4.6960  -15.6408 C   0  0  0  0  0  0  0  0  0  0  0  0
   17.2375   -3.7179  -15.3425 O   0  0  0  0  0  0  0  0  0  0  0  0
   16.9973   -6.7662  -16.9502 C   0  0  0  0  0  0  0  0  0  0  0  0
   17.7901   -6.0648  -18.0561 C   0  0  0  0  0  0  0  0  0  0  0  0
   18.6375   -8.1845  -19.7470 C   0  0  0  0  0  0  0  0  0  0  0  0
   17.4116   -6.8054  -19.7183 Se  0  0  2  0  0  0  0  0  0  0  0  0
   18.1024   -5.6626  -21.0117 C   0  0  0  0  0  0  0  0  0  0  0  0
   17.1210   -4.5777  -21.4571 C   0  0  1  0  0  0  0  0  0  0  0  0
   16.1269   -5.1848  -22.3003 O   0  0  0  0  0  0  0  0  0  0  0  0
   16.3517   -4.1248  -20.2156 C   0  0  1  0  0  0  0  0  0  0  0  0
   15.5559   -2.9824  -20.5349 O   0  0  0  0  0  0  0  0  0  0  0  0
   15.4561   -5.3460  -20.0225 C   0  0  1  0  0  0  0  0  0  0  0  0
   14.3183   -4.9642  -19.2474 O   0  0  0  0  0  0  0  0  0  0  0  0
   15.0179   -5.5733  -21.4699 C   0  0  2  0  0  0  0  0  0  0  0  0
   15.3106   -4.6465  -15.9637 O   0  0  0  0  0  0  0  0  0  0  0  0
   14.5503   -9.3739  -24.9313 N   0  0  0  0  0  0  0  0  0  0  0  0
   15.0041   -8.1448  -25.1071 C   0  0  0  0  0  0  0  0  0  0  0  0
   15.0654   -7.2761  -24.1130 N   0  0  0  0  0  0  0  0  0  0  0  0
   14.6669   -7.6214  -22.8794 C   0  0  0  0  0  0  0  0  0  0  0  0
   14.1828   -8.9028  -22.6563 C   0  0  0  0  0  0  0  0  0  0  0  0
   14.1305   -9.7859  -23.7283 C   0  0  0  0  0  0  0  0  0  0  0  0
   13.6370  -11.0092  -23.5625 N   0  0  0  0  0  0  0  0  0  0  0  0
   13.8569   -8.9925  -21.3717 N   0  0  0  0  0  0  0  0  0  0  0  0
   14.1235   -7.8173  -20.8067 C   0  0  0  0  0  0  0  0  0  0  0  0
   14.6168   -6.9780  -21.7175 N   0  0  0  0  0  0  0  0  0  0  0  0
  2  1  1  1  0  0  0
  2  5  1  0  0  0  0
  2  3  1  0  0  0  0
  3 17  1  0  0  0  0
  3  4  1  0  0  0  0
  5  6  1  0  0  0  0
  7  8  1  0  0  0  0
  8  6  1  1  0  0  0
  8  9  1  0  0  0  0
 10  9  1  1  0  0  0
 10 11  1  0  0  0  0
 10 12  1  0  0  0  0
 11 16  1  0  0  0  0
 12 13  1  6  0  0  0
 12 14  1  0  0  0  0
 14 15  1  1  0  0  0
 14 16  1  0  0  0  0
 16 27  1  1  0  0  0
 18 23  2  0  0  0  0
 18 19  1  0  0  0  0
 19 20  2  0  0  0  0
 20 21  1  0  0  0  0
 21 22  2  0  0  0  0
 21 27  1  0  0  0  0
 22 23  1  0  0  0  0
 22 25  1  0  0  0  0
 23 24  1  0  0  0  0
 25 26  2  0  0  0  0
 26 27  1  0  0  0  0
M  END
>  <CHROM.1>
-172.67987771,115.96048807,-173.79603673,-86.86119955,-89.19765863,-74.35830111
-33.69446613,16.03215178,-6.56405084,-20.15950905,0.11714328,1.28116874,2.57215834

>  <Name>
ligand

>  <RI>
0

>  <Rbt.Current_Directory>
/home/itssahil/PROJECTS/Mol_Feturizer/New_Systems/rnas/3E5F

>  <Rbt.Executable>
rbdock ($Id: //depot/dev/client3/rdock/2013.1/src/exe/rbdock.cxx#4 $)

>  <Rbt.Library>
libRbt.so (2013.1, Build901 2013/11/27)

>  <Rbt.Parameter_File>
/export/apps/rDock/src/rDock_2013.1_src/data/scripts/dock_solv.prm

>  <Rbt.Receptor>
prm/pocket_docking_4.prm

>  <SCORE>
-13.0778

>  <SCORE.INTER>
-13.4878

>  <SCORE.INTER.CONST>
1

>  <SCORE.INTER.POLAR>
0

>  <SCORE.INTER.ROT>
7

>  <SCORE.INTER.SOLV>
11.7982

>  <SCORE.INTER.VDW>
-21.1913

>  <SCORE.INTER.norm>
-0.49955

>  <SCORE.INTRA>
0.40571

>  <SCORE.INTRA.DIHEDRAL>
0.204979

>  <SCORE.INTRA.DIHEDRAL.0>
4.89803

>  <SCORE.INTRA.POLAR>
0

>  <SCORE.INTRA.POLAR.0>
0

>  <SCORE.INTRA.REPUL>
0

>  <SCORE.INTRA.REPUL.0>
0

>  <SCORE.INTRA.SOLV>
0.432048

>  <SCORE.INTRA.SOLV.lig_0>
-48.5832

>  <SCORE.INTRA.VDW>
0.0871974

>  <SCORE.INTRA.VDW.0>
-2.39056

>  <SCORE.INTRA.norm>
0.0150263

>  <SCORE.RESTR>
0.0043089

>  <SCORE.RESTR.CAVITY>
0.0043089

>  <SCORE.RESTR.norm>
0.000159589

>  <SCORE.SYSTEM>
0

>  <SCORE.SYSTEM.CONST>
0

>  <SCORE.SYSTEM.DIHEDRAL>
0

>  <SCORE.SYSTEM.SOLV>
0

>  <SCORE.SYSTEM.norm>
0

>  <SCORE.heavy>
27

>  <SCORE.norm>
-0.484364

>  <RMSD>
4.909

$$$$
ligand
 OpenBabel11021811473D
libRbt.so/2013.1/901 2013/11/27
 27 29  0  0  0  0  0  0  0  0999 V2000
   13.4116   -2.0731  -16.0165 N   0  0  0  0  0  0  0  0  0  0  0  0
   12.5156   -3.2348  -16.1144 C   0  0  2  0  0  0  0  0  0  0  0  0
   13.3168   -4.5285  -15.9402 C   0  0  0  0  0  0  0  0  0  0  0  0
   12.7946   -5.4300  -15.2487 O   0  0  0  0  0  0  0  0  0  0  0  0
   11.8546   -3.2331  -17.4939 C   0  0  0  0  0  0  0  0  0  0  0  0
   12.8796   -3.3742  -18.6221 C   0  0  0  0  0  0  0  0  0  0  0  0
   14.8060   -5.0031  -19.9282 C   0  0  0  0  0  0  0  0  0  0  0  0
   13.2284   -5.1636  -18.9844 Se  0  0  2  0  0  0  0  0  0  0  0  0
   12.0489   -5.7066  -20.3148 C   0  0  0  0  0  0  0  0  0  0  0  0
   11.4040   -7.0664  -20.0434 C   0  0  1  0  0  0  0  0  0  0  0  0
   12.4499   -8.0251  -19.8098 O   0  0  0  0  0  0  0  0  0  0  0  0
   10.6694   -6.9609  -18.7063 C   0  0  1  0  0  0  0  0  0  0  0  0
    9.8917   -8.1398  -18.4924 O   0  0  0  0  0  0  0  0  0  0  0  0
   11.8717   -6.9523  -17.7656 C   0  0  1  0  0  0  0  0  0  0  0  0
   11.4419   -7.3609  -16.4658 O   0  0  0  0  0  0  0  0  0  0  0  0
   12.6957   -8.0774  -18.3932 C   0  0  2  0  0  0  0  0  0  0  0  0
   14.4371   -4.5850  -16.4934 O   0  0  0  0  0  0  0  0  0  0  0  0
   17.5287   -8.4514  -20.1670 N   0  0  0  0  0  0  0  0  0  0  0  0
   16.3920   -8.6503  -20.8120 C   0  0  0  0  0  0  0  0  0  0  0  0
   15.2201   -8.5133  -20.2166 N   0  0  0  0  0  0  0  0  0  0  0  0
   15.1484   -8.1603  -18.9242 C   0  0  0  0  0  0  0  0  0  0  0  0
   16.3207   -7.9445  -18.2135 C   0  0  0  0  0  0  0  0  0  0  0  0
   17.5333   -8.1024  -18.8742 C   0  0  0  0  0  0  0  0  0  0  0  0
   18.6778   -7.9422  -18.2171 N   0  0  0  0  0  0  0  0  0  0  0  0
   15.9840   -7.6123  -16.9722 N   0  0  0  0  0  0  0  0  0  0  0  0
   14.6550   -7.6183  -16.9012 C   0  0  0  0  0  0  0  0  0  0  0  0
   14.1395   -7.9505  -18.0850 N   0  0  0  0  0  0  0  0  0  0  0  0
  2  1  1  6  0  0  0
  2  5  1  0  0  0  0
  2  3  1  0  0  0  0
  3 17  1  0  0  0  0
  3  4  1  0  0  0  0
  5  6  1  0  0  0  0
  7  8  1  0  0  0  0
  8  6  1  6  0  0  0
  8  9  1  0  0  0  0
 10  9  1  1  0  0  0
 10 11  1  0  0  0  0
 10 12  1  0  0  0  0
 11 16  1  0  0  0  0
 12 13  1  1  0  0  0
 12 14  1  0  0  0  0
 14 15  1  1  0  0  0
 14 16  1  0  0  0  0
 16 27  1  6  0  0  0
 18 23  2  0  0  0  0
 18 19  1  0  0  0  0
 19 20  2  0  0  0  0
 20 21  1  0  0  0  0
 21 22  2  0  0  0  0
 21 27  1  0  0  0  0
 22 23  1  0  0  0  0
 22 25  1  0  0  0  0
 23 24  1  0  0  0  0
 25 26  2  0  0  0  0
 26 27  1  0  0  0  0
M  END
>  <CHROM.1>
62.35093022,139.03288942,87.30784176,-162.84813732,-135.34730169,-54.18012598
-19.31880969,13.67782959,-6.28698889,-18.32415280,-2.39071182,0.09330123
-2.57330389

>  <Name>
ligand

>  <RI>
0

>  <Rbt.Current_Directory>
/home/itssahil/PROJECTS/Mol_Feturizer/New_Systems/rnas/3E5F

>  <Rbt.Executable>
rbdock ($Id: //depot/dev/client3/rdock/2013.1/src/exe/rbdock.cxx#4 $)

>  <Rbt.Library>
libRbt.so (2013.1, Build901 2013/11/27)

>  <Rbt.Parameter_File>
/export/apps/rDock/src/rDock_2013.1_src/data/scripts/dock_solv.prm

>  <Rbt.Receptor>
prm/pocket_docking_5.prm

>  <SCORE>
-8.11244

>  <SCORE.INTER>
-6.8831

>  <SCORE.INTER.CONST>
1

>  <SCORE.INTER.POLAR>
0

>  <SCORE.INTER.ROT>
7

>  <SCORE.INTER.SOLV>
7.16105

>  <SCORE.INTER.VDW>
-15.2424

>  <SCORE.INTER.norm>
-0.25493

>  <SCORE.INTRA>
-1.22933

>  <SCORE.INTRA.DIHEDRAL>
3.48212

>  <SCORE.INTRA.DIHEDRAL.0>
4.89803

>  <SCORE.INTRA.POLAR>
0

>  <SCORE.INTRA.POLAR.0>
0

>  <SCORE.INTRA.REPUL>
0

>  <SCORE.INTRA.REPUL.0>
0

>  <SCORE.INTRA.SOLV>
1.22218

>  <SCORE.INTRA.SOLV.lig_0>
-48.5832

>  <SCORE.INTRA.VDW>
-3.58148

>  <SCORE.INTRA.VDW.0>
-2.39056

>  <SCORE.INTRA.norm>
-0.0455308

>  <SCORE.RESTR>
0

>  <SCORE.RESTR.CAVITY>
0

>  <SCORE.RESTR.norm>
0

>  <SCORE.SYSTEM>
0

>  <SCORE.SYSTEM.CONST>
0

>  <SCORE.SYSTEM.DIHEDRAL>
0

>  <SCORE.SYSTEM.SOLV>
0

>  <SCORE.SYSTEM.norm>
0

>  <SCORE.heavy>
27

>  <SCORE.norm>
-0.300461

>  <RMSD>
4.910

$$$$
ligand
 OpenBabel11021811473D
libRbt.so/2013.1/901 2013/11/27
 27 29  0  0  0  0  0  0  0  0999 V2000
   18.2416   -4.7756  -14.0177 N   0  0  0  0  0  0  0  0  0  0  0  0
   17.0826   -4.4675  -14.8682 C   0  0  2  0  0  0  0  0  0  0  0  0
   16.2316   -3.3739  -14.2155 C   0  0  0  0  0  0  0  0  0  0  0  0
   15.8914   -2.4127  -14.9393 O   0  0  0  0  0  0  0  0  0  0  0  0
   16.2390   -5.7333  -15.0300 C   0  0  0  0  0  0  0  0  0  0  0  0
   14.9871   -5.4851  -15.8753 C   0  0  0  0  0  0  0  0  0  0  0  0
   13.7747   -4.7797  -18.3457 C   0  0  0  0  0  0  0  0  0  0  0  0
   15.4355   -4.7934  -17.5412 Se  0  0  2  0  0  0  0  0  0  0  0  0
   16.3015   -6.1362  -18.4914 C   0  0  0  0  0  0  0  0  0  0  0  0
   17.4336   -5.6231  -19.3823 C   0  0  1  0  0  0  0  0  0  0  0  0
   17.6395   -6.5710  -20.4438 O   0  0  0  0  0  0  0  0  0  0  0  0
   16.9240   -4.3626  -20.0820 C   0  0  1  0  0  0  0  0  0  0  0  0
   17.9997   -3.7337  -20.7803 O   0  0  0  0  0  0  0  0  0  0  0  0
   15.9622   -5.0061  -21.0778 C   0  0  1  0  0  0  0  0  0  0  0  0
   15.7463   -4.0996  -22.1607 O   0  0  0  0  0  0  0  0  0  0  0  0
   16.8350   -6.1635  -21.5649 C   0  0  2  0  0  0  0  0  0  0  0  0
   15.9478   -3.5173  -13.0059 O   0  0  0  0  0  0  0  0  0  0  0  0
   14.5908   -8.2836  -25.7017 N   0  0  0  0  0  0  0  0  0  0  0  0
   15.3045   -7.1736  -25.6243 C   0  0  0  0  0  0  0  0  0  0  0  0
   15.8211   -6.7558  -24.4819 N   0  0  0  0  0  0  0  0  0  0  0  0
   15.6369   -7.4568  -23.3529 C   0  0  0  0  0  0  0  0  0  0  0  0
   14.8916   -8.6267  -23.3942 C   0  0  0  0  0  0  0  0  0  0  0  0
   14.3619   -9.0306  -24.6141 C   0  0  0  0  0  0  0  0  0  0  0  0
   13.6104  -10.1248  -24.6865 N   0  0  0  0  0  0  0  0  0  0  0  0
   14.8555   -9.1253  -22.1636 N   0  0  0  0  0  0  0  0  0  0  0  0
   15.5484   -8.3048  -21.3773 C   0  0  0  0  0  0  0  0  0  0  0  0
   16.0272   -7.2875  -22.0937 N   0  0  0  0  0  0  0  0  0  0  0  0
  2  1  1  1  0  0  0
  2  5  1  0  0  0  0
  2  3  1  0  0  0  0
  3 17  1  0  0  0  0
  3  4  1  0  0  0  0
  5  6  1  0  0  0  0
  7  8  1  0  0  0  0
  8  6  1  1  0  0  0
  8  9  1  0  0  0  0
 10  9  1  1  0  0  0
 10 11  1  0  0  0  0
 10 12  1  0  0  0  0
 11 16  1  0  0  0  0
 12 13  1  6  0  0  0
 12 14  1  0  0  0  0
 14 15  1  6  0  0  0
 14 16  1  0  0  0  0
 16 27  1  1  0  0  0
 18 23  2  0  0  0  0
 18 19  1  0  0  0  0
 19 20  2  0  0  0  0
 20 21  1  0  0  0  0
 21 22  2  0  0  0  0
 21 27  1  0  0  0  0
 22 23  1  0  0  0  0
 22 25  1  0  0  0  0
 23 24  1  0  0  0  0
 25 26  2  0  0  0  0
 26 27  1  0  0  0  0
M  END
>  <CHROM.1>
178.44820089,131.55289216,56.27286620,174.43443436,-143.78104047,-155.92635491
-150.01089476,15.84858603,-5.78589984,-19.51826824,1.36619669,0.99467519
1.33438348

>  <Name>
ligand

>  <RI>
0

>  <Rbt.Current_Directory>
/home/itssahil/PROJECTS/Mol_Feturizer/New_Systems/rnas/3E5F

>  <Rbt.Executable>
rbdock ($Id: //depot/dev/client3/rdock/2013.1/src/exe/rbdock.cxx#4 $)

>  <Rbt.Library>
libRbt.so (2013.1, Build901 2013/11/27)

>  <Rbt.Parameter_File>
/export/apps/rDock/src/rDock_2013.1_src/data/scripts/dock_solv.prm

>  <Rbt.Receptor>
prm/pocket_docking_5.prm

>  <SCORE>
-13.7264

>  <SCORE.INTER>
-13.7557

>  <SCORE.INTER.CONST>
1

>  <SCORE.INTER.POLAR>
0

>  <SCORE.INTER.ROT>
7

>  <SCORE.INTER.SOLV>
16.8773

>  <SCORE.INTER.VDW>
-23.0629

>  <SCORE.INTER.norm>
-0.509472

>  <SCORE.INTRA>
0.0293427

>  <SCORE.INTRA.DIHEDRAL>
1.72685

>  <SCORE.INTRA.DIHEDRAL.0>
4.89803

>  <SCORE.INTRA.POLAR>
0

>  <SCORE.INTRA.POLAR.0>
0

>  <SCORE.INTRA.REPUL>
0

>  <SCORE.INTRA.REPUL.0>
0

>  <SCORE.INTRA.SOLV>
0.109214

>  <SCORE.INTRA.SOLV.lig_0>
-48.5832

>  <SCORE.INTRA.VDW>
-0.888688

>  <SCORE.INTRA.VDW.0>
-2.39056

>  <SCORE.INTRA.norm>
0.00108677

>  <SCORE.RESTR>
0

>  <SCORE.RESTR.CAVITY>
0

>  <SCORE.RESTR.norm>
0

>  <SCORE.SYSTEM>
0

>  <SCORE.SYSTEM.CONST>
0

>  <SCORE.SYSTEM.DIHEDRAL>
0

>  <SCORE.SYSTEM.SOLV>
0

>  <SCORE.SYSTEM.norm>
0

>  <SCORE.heavy>
27

>  <SCORE.norm>
-0.508385

>  <RMSD>
4.915

$$$$
ligand
 OpenBabel11021811473D
libRbt.so/2013.1/901 2013/11/27
 27 29  0  0  0  0  0  0  0  0999 V2000
   16.7510   -6.2734  -18.2884 N   0  0  0  0  0  0  0  0  0  0  0  0
   16.7288   -6.0581  -19.7427 C   0  0  2  0  0  0  0  0  0  0  0  0
   18.1606   -5.9727  -20.2801 C   0  0  0  0  0  0  0  0  0  0  0  0
   18.3485   -6.3540  -21.4560 O   0  0  0  0  0  0  0  0  0  0  0  0
   16.0012   -4.7449  -20.0360 C   0  0  0  0  0  0  0  0  0  0  0  0
   14.5566   -4.7632  -19.5297 C   0  0  0  0  0  0  0  0  0  0  0  0
   11.8548   -5.6046  -19.7800 C   0  0  0  0  0  0  0  0  0  0  0  0
   13.4926   -5.8549  -20.5929 Se  0  0  2  0  0  0  0  0  0  0  0  0
   13.8702   -7.6181  -20.1407 C   0  0  0  0  0  0  0  0  0  0  0  0
   14.9550   -8.2543  -21.0109 C   0  0  1  0  0  0  0  0  0  0  0  0
   14.9443   -9.6739  -20.7822 O   0  0  0  0  0  0  0  0  0  0  0  0
   14.5197   -8.0934  -22.4679 C   0  0  1  0  0  0  0  0  0  0  0  0
   15.5815   -8.4991  -23.3330 O   0  0  0  0  0  0  0  0  0  0  0  0
   13.3954   -9.1254  -22.5038 C   0  0  1  0  0  0  0  0  0  0  0  0
   13.1718   -9.5153  -23.8600 O   0  0  0  0  0  0  0  0  0  0  0  0
   14.0794  -10.2749  -21.7624 C   0  0  2  0  0  0  0  0  0  0  0  0
   19.0374   -5.5374  -19.5015 O   0  0  0  0  0  0  0  0  0  0  0  0
    9.6264  -12.8332  -22.2822 N   0  0  0  0  0  0  0  0  0  0  0  0
   10.2359  -12.0463  -23.1522 C   0  0  0  0  0  0  0  0  0  0  0  0
   11.3848  -11.4562  -22.8720 N   0  0  0  0  0  0  0  0  0  0  0  0
   11.9758  -11.6434  -21.6822 C   0  0  0  0  0  0  0  0  0  0  0  0
   11.3650  -12.4616  -20.7422 C   0  0  0  0  0  0  0  0  0  0  0  0
   10.1555  -13.0610  -21.0734 C   0  0  0  0  0  0  0  0  0  0  0  0
    9.5211  -13.8202  -20.1854 N   0  0  0  0  0  0  0  0  0  0  0  0
   12.1382  -12.4817  -19.6623 N   0  0  0  0  0  0  0  0  0  0  0  0
   13.1931  -11.7085  -19.9092 C   0  0  0  0  0  0  0  0  0  0  0  0
   13.1015  -11.1953  -21.1362 N   0  0  0  0  0  0  0  0  0  0  0  0
  2  1  1  1  0  0  0
  2  5  1  0  0  0  0
  2  3  1  0  0  0  0
  3 17  1  0  0  0  0
  3  4  1  0  0  0  0
  5  6  1  0  0  0  0
  7  8  1  0  0  0  0
  8  6  1  1  0  0  0
  8  9  1  0  0  0  0
 10  9  1  1  0  0  0
 10 11  1  0  0  0  0
 10 12  1  0  0  0  0
 11 16  1  0  0  0  0
 12 13  1  6  0  0  0
 12 14  1  0  0  0  0
 14 15  1  6  0  0  0
 14 16  1  0  0  0  0
 16 27  1  1  0  0  0
 18 23  2  0  0  0  0
 18 19  1  0  0  0  0
 19 20  2  0  0  0  0
 20 21  1  0  0  0  0
 21 22  2  0  0  0  0
 21 27  1  0  0  0  0
 22 23  1  0  0  0  0
 22 25  1  0  0  0  0
 23 24  1  0  0  0  0
 25 26  2  0  0  0  0
 26 27  1  0  0  0  0
M  END
>  <CHROM.1>
-60.23082531,150.41522731,-72.75504702,-177.74197510,-92.82359140,-166.99861974
162.03262436,13.81508301,-8.50972004,-20.96950238,-0.91564250,-0.08204044
-2.87395307

>  <Name>
ligand

>  <RI>
0

>  <Rbt.Current_Directory>
/home/itssahil/PROJECTS/Mol_Feturizer/New_Systems/rnas/3E5F

>  <Rbt.Executable>
rbdock ($Id: //depot/dev/client3/rdock/2013.1/src/exe/rbdock.cxx#4 $)

>  <Rbt.Library>
libRbt.so (2013.1, Build901 2013/11/27)

>  <Rbt.Parameter_File>
/export/apps/rDock/src/rDock_2013.1_src/data/scripts/dock_solv.prm

>  <Rbt.Receptor>
prm/blind_docking_100.prm

>  <SCORE>
-12.4396

>  <SCORE.INTER>
-12.9682

>  <SCORE.INTER.CONST>
1

>  <SCORE.INTER.POLAR>
0

>  <SCORE.INTER.ROT>
7

>  <SCORE.INTER.SOLV>
11.5802

>  <SCORE.INTER.VDW>
-20.7722

>  <SCORE.INTER.norm>
-0.480305

>  <SCORE.INTRA>
0.528582

>  <SCORE.INTRA.DIHEDRAL>
0.238352

>  <SCORE.INTRA.DIHEDRAL.0>
4.89803

>  <SCORE.INTRA.POLAR>
0

>  <SCORE.INTRA.POLAR.0>
0

>  <SCORE.INTRA.REPUL>
0

>  <SCORE.INTRA.REPUL.0>
0

>  <SCORE.INTRA.SOLV>
2.30376

>  <SCORE.INTRA.SOLV.lig_0>
-48.5832

>  <SCORE.INTRA.VDW>
-0.742474

>  <SCORE.INTRA.VDW.0>
-2.39056

>  <SCORE.INTRA.norm>
0.0195771

>  <SCORE.RESTR>
0

>  <SCORE.RESTR.CAVITY>
0

>  <SCORE.RESTR.norm>
0

>  <SCORE.SYSTEM>
0

>  <SCORE.SYSTEM.CONST>
0

>  <SCORE.SYSTEM.DIHEDRAL>
0

>  <SCORE.SYSTEM.SOLV>
0

>  <SCORE.SYSTEM.norm>
0

>  <SCORE.heavy>
27

>  <SCORE.norm>
-0.460728

>  <RMSD>
4.918

$$$$
ligand
 OpenBabel11021811473D
libRbt.so/2013.1/901 2013/11/27
 27 29  0  0  0  0  0  0  0  0999 V2000
   10.8668   -7.2743  -17.5880 N   0  0  0  0  0  0  0  0  0  0  0  0
   11.9006   -8.1303  -18.1882 C   0  0  2  0  0  0  0  0  0  0  0  0
   11.2453   -9.3043  -18.9221 C   0  0  0  0  0  0  0  0  0  0  0  0
   10.3896   -9.9614  -18.2900 O   0  0  0  0  0  0  0  0  0  0  0  0
   12.8008   -8.6705  -17.0757 C   0  0  0  0  0  0  0  0  0  0  0  0
   13.6395   -7.5657  -16.4281 C   0  0  0  0  0  0  0  0  0  0  0  0
   14.0324   -5.5497  -18.3907 C   0  0  0  0  0  0  0  0  0  0  0  0
   14.9428   -6.9464  -17.5996 Se  0  0  2  0  0  0  0  0  0  0  0  0
   15.0589   -8.1610  -19.0023 C   0  0  0  0  0  0  0  0  0  0  0  0
   16.3512   -8.0405  -19.8109 C   0  0  1  0  0  0  0  0  0  0  0  0
   16.2861   -8.9662  -20.9093 O   0  0  0  0  0  0  0  0  0  0  0  0
   16.3482   -6.6595  -20.4675 C   0  0  1  0  0  0  0  0  0  0  0  0
   17.6154   -6.4174  -21.0806 O   0  0  0  0  0  0  0  0  0  0  0  0
   15.2882   -6.8996  -21.5396 C   0  0  1  0  0  0  0  0  0  0  0  0
   15.4633   -5.9394  -22.5829 O   0  0  0  0  0  0  0  0  0  0  0  0
   15.7409   -8.2703  -22.0445 C   0  0  2  0  0  0  0  0  0  0  0  0
   11.6204   -9.5255  -20.0945 O   0  0  0  0  0  0  0  0  0  0  0  0
   12.4385  -12.2135  -21.6088 N   0  0  0  0  0  0  0  0  0  0  0  0
   13.3597  -11.8063  -20.7527 C   0  0  0  0  0  0  0  0  0  0  0  0
   14.1368  -10.7680  -21.0071 N   0  0  0  0  0  0  0  0  0  0  0  0
   14.0097  -10.0857  -22.1553 C   0  0  0  0  0  0  0  0  0  0  0  0
   13.0546  -10.4845  -23.0797 C   0  0  0  0  0  0  0  0  0  0  0  0
   12.2595  -11.5836  -22.7769 C   0  0  0  0  0  0  0  0  0  0  0  0
   11.3602  -12.0192  -23.6536 N   0  0  0  0  0  0  0  0  0  0  0  0
   13.1296   -9.6596  -24.1181 N   0  0  0  0  0  0  0  0  0  0  0  0
   14.0919   -8.7767  -23.8610 C   0  0  0  0  0  0  0  0  0  0  0  0
   14.6318   -9.0293  -22.6685 N   0  0  0  0  0  0  0  0  0  0  0  0
  2  1  1  1  0  0  0
  2  5  1  0  0  0  0
  2  3  1  0  0  0  0
  3 17  1  0  0  0  0
  3  4  1  0  0  0  0
  5  6  1  0  0  0  0
  7  8  1  0  0  0  0
  8  6  1  1  0  0  0
  8  9  1  0  0  0  0
 10  9  1  1  0  0  0
 10 11  1  0  0  0  0
 10 12  1  0  0  0  0
 11 16  1  0  0  0  0
 12 13  1  6  0  0  0
 12 14  1  0  0  0  0
 14 15  1  6  0  0  0
 14 16  1  0  0  0  0
 16 27  1  1  0  0  0
 18 23  2  0  0  0  0
 18 19  1  0  0  0  0
 19 20  2  0  0  0  0
 20 21  1  0  0  0  0
 21 22  2  0  0  0  0
 21 27  1  0  0  0  0
 22 23  1  0  0  0  0
 22 25  1  0  0  0  0
 23 24  1  0  0  0  0
 25 26  2  0  0  0  0
 26 27  1  0  0  0  0
M  END
>  <CHROM.1>
-68.00189382,-50.21048778,-69.87925723,91.95763506,-162.09383341,-176.40233184
12.10569789,13.97075497,-8.50927385,-20.09823694,1.22781323,0.62427422,1.09744326

>  <Name>
ligand

>  <RI>
0

>  <Rbt.Current_Directory>
/home/itssahil/PROJECTS/Mol_Feturizer/New_Systems/rnas/3E5F

>  <Rbt.Executable>
rbdock ($Id: //depot/dev/client3/rdock/2013.1/src/exe/rbdock.cxx#4 $)

>  <Rbt.Library>
libRbt.so (2013.1, Build901 2013/11/27)

>  <Rbt.Parameter_File>
/export/apps/rDock/src/rDock_2013.1_src/data/scripts/dock_solv.prm

>  <Rbt.Receptor>
prm/pocket_docking_3.prm

>  <SCORE>
-8.93403

>  <SCORE.INTER>
-9.29028

>  <SCORE.INTER.CONST>
1

>  <SCORE.INTER.POLAR>
0

>  <SCORE.INTER.ROT>
7

>  <SCORE.INTER.SOLV>
8.73565

>  <SCORE.INTER.VDW>
-17.3721

>  <SCORE.INTER.norm>
-0.344085

>  <SCORE.INTRA>
0.35625

>  <SCORE.INTRA.DIHEDRAL>
1.21085

>  <SCORE.INTRA.DIHEDRAL.0>
4.89803

>  <SCORE.INTRA.POLAR>
0

>  <SCORE.INTRA.POLAR.0>
0

>  <SCORE.INTRA.REPUL>
0

>  <SCORE.INTRA.REPUL.0>
0

>  <SCORE.INTRA.SOLV>
1.73805

>  <SCORE.INTRA.SOLV.lig_0>
-48.5832

>  <SCORE.INTRA.VDW>
-1.1182

>  <SCORE.INTRA.VDW.0>
-2.39056

>  <SCORE.INTRA.norm>
0.0131944

>  <SCORE.RESTR>
0

>  <SCORE.RESTR.CAVITY>
0

>  <SCORE.RESTR.norm>
0

>  <SCORE.SYSTEM>
0

>  <SCORE.SYSTEM.CONST>
0

>  <SCORE.SYSTEM.DIHEDRAL>
0

>  <SCORE.SYSTEM.SOLV>
0

>  <SCORE.SYSTEM.norm>
0

>  <SCORE.heavy>
27

>  <SCORE.norm>
-0.33089

>  <RMSD>
4.922

$$$$
ligand
 OpenBabel11021811473D
libRbt.so/2013.1/901 2013/11/27
 27 29  0  0  0  0  0  0  0  0999 V2000
   16.0150   -4.6072  -22.3440 N   0  0  0  0  0  0  0  0  0  0  0  0
   16.8971   -4.3205  -21.2033 C   0  0  2  0  0  0  0  0  0  0  0  0
   18.1042   -3.5009  -21.6694 C   0  0  0  0  0  0  0  0  0  0  0  0
   18.0288   -2.2590  -21.5439 O   0  0  0  0  0  0  0  0  0  0  0  0
   17.3849   -5.6443  -20.6119 C   0  0  0  0  0  0  0  0  0  0  0  0
   18.1832   -5.4377  -19.3221 C   0  0  0  0  0  0  0  0  0  0  0  0
   19.1712   -8.0789  -19.6659 C   0  0  0  0  0  0  0  0  0  0  0  0
   18.3553   -7.0325  -18.3833 Se  0  0  2  0  0  0  0  0  0  0  0  0
   16.6691   -7.8089  -18.2829 C   0  0  0  0  0  0  0  0  0  0  0  0
   15.5312   -6.7913  -18.1917 C   0  0  1  0  0  0  0  0  0  0  0  0
   14.8341   -6.7775  -19.4493 O   0  0  0  0  0  0  0  0  0  0  0  0
   14.5130   -7.3383  -17.1904 C   0  0  1  0  0  0  0  0  0  0  0  0
   13.5228   -6.3443  -16.9223 O   0  0  0  0  0  0  0  0  0  0  0  0
   13.9120   -8.4570  -18.0377 C   0  0  1  0  0  0  0  0  0  0  0  0
   12.6204   -8.7825  -17.5208 O   0  0  0  0  0  0  0  0  0  0  0  0
   13.7439   -7.7123  -19.3627 C   0  0  2  0  0  0  0  0  0  0  0  0
   19.0715   -4.1318  -22.1496 O   0  0  0  0  0  0  0  0  0  0  0  0
   13.4373  -12.6086  -20.9682 N   0  0  0  0  0  0  0  0  0  0  0  0
   13.4056  -12.1384  -19.7331 C   0  0  0  0  0  0  0  0  0  0  0  0
   13.4945  -10.8448  -19.4777 N   0  0  0  0  0  0  0  0  0  0  0  0
   13.6176   -9.9587  -20.4775 C   0  0  0  0  0  0  0  0  0  0  0  0
   13.6564  -10.4147  -21.7877 C   0  0  0  0  0  0  0  0  0  0  0  0
   13.5639  -11.7828  -22.0148 C   0  0  0  0  0  0  0  0  0  0  0  0
   13.6361  -12.2607  -23.2532 N   0  0  0  0  0  0  0  0  0  0  0  0
   13.7830   -9.3556  -22.5794 N   0  0  0  0  0  0  0  0  0  0  0  0
   13.8231   -8.2758  -21.8024 C   0  0  0  0  0  0  0  0  0  0  0  0
   13.7227   -8.6346  -20.5223 N   0  0  0  0  0  0  0  0  0  0  0  0
  2  1  1  6  0  0  0
  2  5  1  0  0  0  0
  2  3  1  0  0  0  0
  3 17  1  0  0  0  0
  3  4  1  0  0  0  0
  5  6  1  0  0  0  0
  7  8  1  0  0  0  0
  8  6  1  6  0  0  0
  8  9  1  0  0  0  0
 10  9  1  6  0  0  0
 10 11  1  0  0  0  0
 10 12  1  0  0  0  0
 11 16  1  0  0  0  0
 12 13  1  6  0  0  0
 12 14  1  0  0  0  0
 14 15  1  1  0  0  0
 14 16  1  0  0  0  0
 16 27  1  6  0  0  0
 18 23  2  0  0  0  0
 18 19  1  0  0  0  0
 19 20  2  0  0  0  0
 20 21  1  0  0  0  0
 21 22  2  0  0  0  0
 21 27  1  0  0  0  0
 22 23  1  0  0  0  0
 22 25  1  0  0  0  0
 23 24  1  0  0  0  0
 25 26  2  0  0  0  0
 26 27  1  0  0  0  0
M  END
>  <CHROM.1>
-173.57033221,95.53075808,164.25430018,57.43625367,-33.27477187,107.55637572
130.99756544,15.78752626,-7.62764168,-19.87052294,-0.01612965,-0.88785561
-1.51567167

>  <Name>
ligand

>  <RI>
0

>  <Rbt.Current_Directory>
/home/itssahil/PROJECTS/Mol_Feturizer/New_Systems/rnas/3E5F

>  <Rbt.Executable>
rbdock ($Id: //depot/dev/client3/rdock/2013.1/src/exe/rbdock.cxx#4 $)

>  <Rbt.Library>
libRbt.so (2013.1, Build901 2013/11/27)

>  <Rbt.Parameter_File>
/export/apps/rDock/src/rDock_2013.1_src/data/scripts/dock_solv.prm

>  <Rbt.Receptor>
prm/pocket_docking_6.prm

>  <SCORE>
-7.82583

>  <SCORE.INTER>
-12.4596

>  <SCORE.INTER.CONST>
1

>  <SCORE.INTER.POLAR>
0

>  <SCORE.INTER.ROT>
7

>  <SCORE.INTER.SOLV>
16.9436

>  <SCORE.INTER.VDW>
-22.2209

>  <SCORE.INTER.norm>
-0.461466

>  <SCORE.INTRA>
4.63376

>  <SCORE.INTRA.DIHEDRAL>
5.01274

>  <SCORE.INTRA.DIHEDRAL.0>
4.89803

>  <SCORE.INTRA.POLAR>
0

>  <SCORE.INTRA.POLAR.0>
0

>  <SCORE.INTRA.REPUL>
0

>  <SCORE.INTRA.REPUL.0>
0

>  <SCORE.INTRA.SOLV>
0.741326

>  <SCORE.INTRA.SOLV.lig_0>
-48.5832

>  <SCORE.INTRA.VDW>
1.75673

>  <SCORE.INTRA.VDW.0>
-2.39056

>  <SCORE.INTRA.norm>
0.171621

>  <SCORE.RESTR>
0

>  <SCORE.RESTR.CAVITY>
0

>  <SCORE.RESTR.norm>
0

>  <SCORE.SYSTEM>
0

>  <SCORE.SYSTEM.CONST>
0

>  <SCORE.SYSTEM.DIHEDRAL>
0

>  <SCORE.SYSTEM.SOLV>
0

>  <SCORE.SYSTEM.norm>
0

>  <SCORE.heavy>
27

>  <SCORE.norm>
-0.289846

>  <RMSD>
4.929

$$$$
ligand
 OpenBabel11021811473D
libRbt.so/2013.1/901 2013/11/27
 27 29  0  0  0  0  0  0  0  0999 V2000
   17.8980   -5.3662  -19.9696 N   0  0  0  0  0  0  0  0  0  0  0  0
   17.0387   -5.2142  -21.1529 C   0  0  2  0  0  0  0  0  0  0  0  0
   15.7810   -4.4203  -20.7865 C   0  0  0  0  0  0  0  0  0  0  0  0
   15.4088   -3.5428  -21.5959 O   0  0  0  0  0  0  0  0  0  0  0  0
   16.6315   -6.6029  -21.6486 C   0  0  0  0  0  0  0  0  0  0  0  0
   15.9170   -6.5432  -23.0011 C   0  0  0  0  0  0  0  0  0  0  0  0
   15.4774   -7.8269  -25.4970 C   0  0  0  0  0  0  0  0  0  0  0  0
   15.6973   -8.2459  -23.7133 Se  0  0  2  0  0  0  0  0  0  0  0  0
   13.9938   -8.8308  -23.2526 C   0  0  0  0  0  0  0  0  0  0  0  0
   13.8093  -10.3432  -23.3846 C   0  0  1  0  0  0  0  0  0  0  0  0
   13.9315  -10.9300  -22.0775 O   0  0  0  0  0  0  0  0  0  0  0  0
   12.3543  -10.5892  -23.7853 C   0  0  1  0  0  0  0  0  0  0  0  0
   12.1725  -11.9690  -24.1071 O   0  0  0  0  0  0  0  0  0  0  0  0
   11.6761  -10.2710  -22.4551 C   0  0  1  0  0  0  0  0  0  0  0  0
   10.3939  -10.9007  -22.4301 O   0  0  0  0  0  0  0  0  0  0  0  0
   12.6144  -11.0159  -21.5048 C   0  0  2  0  0  0  0  0  0  0  0  0
   15.2247   -4.7007  -19.7020 O   0  0  0  0  0  0  0  0  0  0  0  0
   14.9160   -7.9657  -18.0343 N   0  0  0  0  0  0  0  0  0  0  0  0
   15.2800   -8.2270  -19.2780 C   0  0  0  0  0  0  0  0  0  0  0  0
   14.5798   -9.0364  -20.0534 N   0  0  0  0  0  0  0  0  0  0  0  0
   13.4625   -9.6218  -19.5964 C   0  0  0  0  0  0  0  0  0  0  0  0
   13.0494   -9.3730  -18.2950 C   0  0  0  0  0  0  0  0  0  0  0  0
   13.8150   -8.5190  -17.5100 C   0  0  0  0  0  0  0  0  0  0  0  0
   13.4729   -8.2867  -16.2465 N   0  0  0  0  0  0  0  0  0  0  0  0
   11.9333  -10.0628  -18.0877 N   0  0  0  0  0  0  0  0  0  0  0  0
   11.6529  -10.7201  -19.2105 C   0  0  0  0  0  0  0  0  0  0  0  0
   12.5785  -10.4566  -20.1331 N   0  0  0  0  0  0  0  0  0  0  0  0
  2  1  1  1  0  0  0
  2  5  1  0  0  0  0
  2  3  1  0  0  0  0
  3 17  1  0  0  0  0
  3  4  1  0  0  0  0
  5  6  1  0  0  0  0
  7  8  1  0  0  0  0
  8  6  1  1  0  0  0
  8  9  1  0  0  0  0
 10  9  1  1  0  0  0
 10 11  1  0  0  0  0
 10 12  1  0  0  0  0
 11 16  1  0  0  0  0
 12 13  1  1  0  0  0
 12 14  1  0  0  0  0
 14 15  1  6  0  0  0
 14 16  1  0  0  0  0
 16 27  1  1  0  0  0
 18 23  2  0  0  0  0
 18 19  1  0  0  0  0
 19 20  2  0  0  0  0
 20 21  1  0  0  0  0
 21 22  2  0  0  0  0
 21 27  1  0  0  0  0
 22 23  1  0  0  0  0
 22 25  1  0  0  0  0
 23 24  1  0  0  0  0
 25 26  2  0  0  0  0
 26 27  1  0  0  0  0
M  END
>  <CHROM.1>
-171.11474528,137.00488458,170.22998685,-158.52822676,-162.34007317,99.91234289
19.49922116,14.34118256,-8.45046540,-21.45570528,0.23759670,0.88142895,1.28886600

>  <Name>
ligand

>  <RI>
0

>  <Rbt.Current_Directory>
/home/itssahil/PROJECTS/Mol_Feturizer/New_Systems/rnas/3E5F

>  <Rbt.Executable>
rbdock ($Id: //depot/dev/client3/rdock/2013.1/src/exe/rbdock.cxx#4 $)

>  <Rbt.Library>
libRbt.so (2013.1, Build901 2013/11/27)

>  <Rbt.Parameter_File>
/export/apps/rDock/src/rDock_2013.1_src/data/scripts/dock_solv.prm

>  <Rbt.Receptor>
prm/pocket_docking_6.prm

>  <SCORE>
-15.6819

>  <SCORE.INTER>
-16.8501

>  <SCORE.INTER.CONST>
1

>  <SCORE.INTER.POLAR>
0

>  <SCORE.INTER.ROT>
7

>  <SCORE.INTER.SOLV>
10.4182

>  <SCORE.INTER.VDW>
-22.9728

>  <SCORE.INTER.norm>
-0.624079

>  <SCORE.INTRA>
1.16818

>  <SCORE.INTRA.DIHEDRAL>
4.41556

>  <SCORE.INTRA.DIHEDRAL.0>
4.89803

>  <SCORE.INTRA.POLAR>
0

>  <SCORE.INTRA.POLAR.0>
0

>  <SCORE.INTRA.REPUL>
0

>  <SCORE.INTRA.REPUL.0>
0

>  <SCORE.INTRA.SOLV>
0.0404145

>  <SCORE.INTRA.SOLV.lig_0>
-48.5832

>  <SCORE.INTRA.VDW>
-1.0598

>  <SCORE.INTRA.VDW.0>
-2.39056

>  <SCORE.INTRA.norm>
0.043266

>  <SCORE.RESTR>
0

>  <SCORE.RESTR.CAVITY>
0

>  <SCORE.RESTR.norm>
0

>  <SCORE.SYSTEM>
0

>  <SCORE.SYSTEM.CONST>
0

>  <SCORE.SYSTEM.DIHEDRAL>
0

>  <SCORE.SYSTEM.SOLV>
0

>  <SCORE.SYSTEM.norm>
0

>  <SCORE.heavy>
27

>  <SCORE.norm>
-0.580813

>  <RMSD>
4.937

$$$$
ligand
 OpenBabel11021811473D
libRbt.so/2013.1/901 2013/11/27
 27 29  0  0  0  0  0  0  0  0999 V2000
    9.9206   -8.7260  -15.9825 N   0  0  0  0  0  0  0  0  0  0  0  0
    9.2672   -7.9594  -17.0536 C   0  0  2  0  0  0  0  0  0  0  0  0
    8.1295   -7.1148  -16.4720 C   0  0  0  0  0  0  0  0  0  0  0  0
    7.4907   -7.6056  -15.5156 O   0  0  0  0  0  0  0  0  0  0  0  0
    8.6946   -8.9372  -18.0812 C   0  0  0  0  0  0  0  0  0  0  0  0
    9.7945   -9.7080  -18.8157 C   0  0  0  0  0  0  0  0  0  0  0  0
    8.1843  -11.9761  -19.3932 C   0  0  0  0  0  0  0  0  0  0  0  0
    9.1002  -10.6349  -20.2695 Se  0  0  2  0  0  0  0  0  0  0  0  0
   10.4969  -11.5821  -21.0495 C   0  0  0  0  0  0  0  0  0  0  0  0
   10.3732  -11.7154  -22.5679 C   0  0  1  0  0  0  0  0  0  0  0  0
   10.9049  -10.5237  -23.1719 O   0  0  0  0  0  0  0  0  0  0  0  0
   11.3259  -12.8291  -23.0042 C   0  0  1  0  0  0  0  0  0  0  0  0
   11.1146  -13.1269  -24.3852 O   0  0  0  0  0  0  0  0  0  0  0  0
   12.6549  -12.0992  -22.8263 C   0  0  1  0  0  0  0  0  0  0  0  0
   13.6446  -12.7425  -23.6312 O   0  0  0  0  0  0  0  0  0  0  0  0
   12.2954  -10.7549  -23.4605 C   0  0  2  0  0  0  0  0  0  0  0  0
    7.9166   -6.0018  -17.0015 O   0  0  0  0  0  0  0  0  0  0  0  0
   15.9482   -7.2790  -24.5652 N   0  0  0  0  0  0  0  0  0  0  0  0
   15.3800   -8.1659  -25.3641 C   0  0  0  0  0  0  0  0  0  0  0  0
   14.4477   -8.9967  -24.9315 N   0  0  0  0  0  0  0  0  0  0  0  0
   14.0427   -8.9619  -23.6530 C   0  0  0  0  0  0  0  0  0  0  0  0
   14.6173   -8.0454  -22.7836 C   0  0  0  0  0  0  0  0  0  0  0  0
   15.5972   -7.1914  -23.2759 C   0  0  0  0  0  0  0  0  0  0  0  0
   16.1982   -6.3265  -22.4648 N   0  0  0  0  0  0  0  0  0  0  0  0
   14.0536   -8.2117  -21.5924 N   0  0  0  0  0  0  0  0  0  0  0  0
   13.1605   -9.1922  -21.7040 C   0  0  0  0  0  0  0  0  0  0  0  0
   13.1479   -9.6535  -22.9548 N   0  0  0  0  0  0  0  0  0  0  0  0
  2  1  1  1  0  0  0
  2  5  1  0  0  0  0
  2  3  1  0  0  0  0
  3 17  1  0  0  0  0
  3  4  1  0  0  0  0
  5  6  1  0  0  0  0
  7  8  1  0  0  0  0
  8  6  1  1  0  0  0
  8  9  1  0  0  0  0
 10  9  1  1  0  0  0
 10 11  1  0  0  0  0
 10 12  1  0  0  0  0
 11 16  1  0  0  0  0
 12 13  1  6  0  0  0
 12 14  1  0  0  0  0
 14 15  1  6  0  0  0
 14 16  1  0  0  0  0
 16 27  1  1  0  0  0
 18 23  2  0  0  0  0
 18 19  1  0  0  0  0
 19 20  2  0  0  0  0
 20 21  1  0  0  0  0
 21 22  2  0  0  0  0
 21 27  1  0  0  0  0
 22 23  1  0  0  0  0
 22 25  1  0  0  0  0
 23 24  1  0  0  0  0
 25 26  2  0  0  0  0
 26 27  1  0  0  0  0
M  END
>  <CHROM.1>
-66.25708079,-34.63480278,-169.03964946,-72.15275354,-146.61558893,83.77458285
-127.35025934,11.29243751,-9.69209231,-21.12698730,-2.61247287,-0.66224222
-2.46819014

>  <Name>
ligand

>  <RI>
0

>  <Rbt.Current_Directory>
/home/itssahil/PROJECTS/Mol_Feturizer/New_Systems/rnas/3E5F

>  <Rbt.Executable>
rbdock ($Id: //depot/dev/client3/rdock/2013.1/src/exe/rbdock.cxx#4 $)

>  <Rbt.Library>
libRbt.so (2013.1, Build901 2013/11/27)

>  <Rbt.Parameter_File>
/export/apps/rDock/src/rDock_2013.1_src/data/scripts/dock_solv.prm

>  <Rbt.Receptor>
prm/pocket_docking_7.prm

>  <SCORE>
-18.455

>  <SCORE.INTER>
-20.1476

>  <SCORE.INTER.CONST>
1

>  <SCORE.INTER.POLAR>
0

>  <SCORE.INTER.ROT>
7

>  <SCORE.INTER.SOLV>
11.1629

>  <SCORE.INTER.VDW>
-25.4194

>  <SCORE.INTER.norm>
-0.746207

>  <SCORE.INTRA>
1.6926

>  <SCORE.INTRA.DIHEDRAL>
2.11896

>  <SCORE.INTRA.DIHEDRAL.0>
4.89803

>  <SCORE.INTRA.POLAR>
0

>  <SCORE.INTRA.POLAR.0>
0

>  <SCORE.INTRA.REPUL>
0

>  <SCORE.INTRA.REPUL.0>
0

>  <SCORE.INTRA.SOLV>
0.562765

>  <SCORE.INTRA.SOLV.lig_0>
-48.5832

>  <SCORE.INTRA.VDW>
0.351735

>  <SCORE.INTRA.VDW.0>
-2.39056

>  <SCORE.INTRA.norm>
0.0626889

>  <SCORE.RESTR>
0

>  <SCORE.RESTR.CAVITY>
0

>  <SCORE.RESTR.norm>
0

>  <SCORE.SYSTEM>
0

>  <SCORE.SYSTEM.CONST>
0

>  <SCORE.SYSTEM.DIHEDRAL>
0

>  <SCORE.SYSTEM.SOLV>
0

>  <SCORE.SYSTEM.norm>
0

>  <SCORE.heavy>
27

>  <SCORE.norm>
-0.683518

>  <RMSD>
4.938

$$$$
ligand
 OpenBabel11021811473D
libRbt.so/2013.1/901 2013/11/27
 27 29  0  0  0  0  0  0  0  0999 V2000
   11.7727   -7.3711  -17.7666 N   0  0  0  0  0  0  0  0  0  0  0  0
   13.0203   -6.8226  -18.3184 C   0  0  2  0  0  0  0  0  0  0  0  0
   13.9665   -6.4292  -17.1799 C   0  0  0  0  0  0  0  0  0  0  0  0
   15.0416   -7.0616  -17.0922 O   0  0  0  0  0  0  0  0  0  0  0  0
   12.6887   -5.5821  -19.1497 C   0  0  0  0  0  0  0  0  0  0  0  0
   13.9488   -4.8363  -19.5962 C   0  0  0  0  0  0  0  0  0  0  0  0
   16.7377   -5.3690  -19.5041 C   0  0  0  0  0  0  0  0  0  0  0  0
   15.2031   -6.0123  -20.3021 Se  0  0  2  0  0  0  0  0  0  0  0  0
   15.4777   -5.5392  -22.0789 C   0  0  0  0  0  0  0  0  0  0  0  0
   16.4177   -6.4860  -22.8262 C   0  0  1  0  0  0  0  0  0  0  0  0
   16.3839   -7.7666  -22.1730 O   0  0  0  0  0  0  0  0  0  0  0  0
   15.8056   -6.7380  -24.2047 C   0  0  1  0  0  0  0  0  0  0  0  0
   16.7321   -7.4625  -25.0154 O   0  0  0  0  0  0  0  0  0  0  0  0
   14.6485   -7.6467  -23.7973 C   0  0  1  0  0  0  0  0  0  0  0  0
   14.2388   -8.4080  -24.9347 O   0  0  0  0  0  0  0  0  0  0  0  0
   15.3789   -8.5681  -22.8193 C   0  0  2  0  0  0  0  0  0  0  0  0
   13.5910   -5.5122  -16.4168 O   0  0  0  0  0  0  0  0  0  0  0  0
   12.4627  -12.6543  -21.6182 N   0  0  0  0  0  0  0  0  0  0  0  0
   13.2253  -12.4648  -22.6812 C   0  0  0  0  0  0  0  0  0  0  0  0
   13.9217  -11.3543  -22.8499 N   0  0  0  0  0  0  0  0  0  0  0  0
   13.8774  -10.3753  -21.9337 C   0  0  0  0  0  0  0  0  0  0  0  0
   13.0864  -10.5372  -20.8050 C   0  0  0  0  0  0  0  0  0  0  0  0
   12.3661  -11.7177  -20.6660 C   0  0  0  0  0  0  0  0  0  0  0  0
   11.5674  -11.8934  -19.6179 N   0  0  0  0  0  0  0  0  0  0  0  0
   13.2117   -9.4416  -20.0645 N   0  0  0  0  0  0  0  0  0  0  0  0
   14.0465   -8.6215  -20.6986 C   0  0  0  0  0  0  0  0  0  0  0  0
   14.4560   -9.1827  -21.8365 N   0  0  0  0  0  0  0  0  0  0  0  0
  2  1  1  1  0  0  0
  2  5  1  0  0  0  0
  2  3  1  0  0  0  0
  3 17  1  0  0  0  0
  3  4  1  0  0  0  0
  5  6  1  0  0  0  0
  7  8  1  0  0  0  0
  8  6  1  1  0  0  0
  8  9  1  0  0  0  0
 10  9  1  1  0  0  0
 10 11  1  0  0  0  0
 10 12  1  0  0  0  0
 11 16  1  0  0  0  0
 12 13  1  6  0  0  0
 12 14  1  0  0  0  0
 14 15  1  6  0  0  0
 14 16  1  0  0  0  0
 16 27  1  1  0  0  0
 18 23  2  0  0  0  0
 18 19  1  0  0  0  0
 19 20  2  0  0  0  0
 20 21  1  0  0  0  0
 21 22  2  0  0  0  0
 21 27  1  0  0  0  0
 22 23  1  0  0  0  0
 22 25  1  0  0  0  0
 23 24  1  0  0  0  0
 25 26  2  0  0  0  0
 26 27  1  0  0  0  0
M  END
>  <CHROM.1>
171.89798060,115.44529396,47.26241126,-136.35129325,-175.86139932,24.68184410
-145.74735929,14.38516878,-7.82144923,-20.85542238,1.36567875,0.96595760
0.85409781

>  <Name>
ligand

>  <RI>
0

>  <Rbt.Current_Directory>
/home/itssahil/PROJECTS/Mol_Feturizer/New_Systems/rnas/3E5F

>  <Rbt.Executable>
rbdock ($Id: //depot/dev/client3/rdock/2013.1/src/exe/rbdock.cxx#4 $)

>  <Rbt.Library>
libRbt.so (2013.1, Build901 2013/11/27)

>  <Rbt.Parameter_File>
/export/apps/rDock/src/rDock_2013.1_src/data/scripts/dock_solv.prm

>  <Rbt.Receptor>
prm/pocket_docking_2.prm

>  <SCORE>
-5.96125

>  <SCORE.INTER>
-7.25725

>  <SCORE.INTER.CONST>
1

>  <SCORE.INTER.POLAR>
0

>  <SCORE.INTER.ROT>
7

>  <SCORE.INTER.SOLV>
13.5448

>  <SCORE.INTER.VDW>
-17.6198

>  <SCORE.INTER.norm>
-0.268787

>  <SCORE.INTRA>
0.423597

>  <SCORE.INTRA.DIHEDRAL>
4.33506

>  <SCORE.INTRA.DIHEDRAL.0>
4.89803

>  <SCORE.INTRA.POLAR>
0

>  <SCORE.INTRA.POLAR.0>
0

>  <SCORE.INTRA.REPUL>
0

>  <SCORE.INTRA.REPUL.0>
0

>  <SCORE.INTRA.SOLV>
0.555642

>  <SCORE.INTRA.SOLV.lig_0>
-48.5832

>  <SCORE.INTRA.VDW>
-2.02176

>  <SCORE.INTRA.VDW.0>
-2.39056

>  <SCORE.INTRA.norm>
0.0156888

>  <SCORE.RESTR>
0.872406

>  <SCORE.RESTR.CAVITY>
0.872406

>  <SCORE.RESTR.norm>
0.0323113

>  <SCORE.SYSTEM>
0

>  <SCORE.SYSTEM.CONST>
0

>  <SCORE.SYSTEM.DIHEDRAL>
0

>  <SCORE.SYSTEM.SOLV>
0

>  <SCORE.SYSTEM.norm>
0

>  <SCORE.heavy>
27

>  <SCORE.norm>
-0.220787

>  <RMSD>
4.940

$$$$
ligand
 OpenBabel11021811473D
libRbt.so/2013.1/901 2013/11/27
 27 29  0  0  0  0  0  0  0  0999 V2000
   15.1616   -8.0272  -19.4208 N   0  0  0  0  0  0  0  0  0  0  0  0
   16.4286   -8.2031  -20.1458 C   0  0  2  0  0  0  0  0  0  0  0  0
   17.6050   -8.1254  -19.1679 C   0  0  0  0  0  0  0  0  0  0  0  0
   17.3673   -7.6631  -18.0307 O   0  0  0  0  0  0  0  0  0  0  0  0
   16.5618   -7.0877  -21.1841 C   0  0  0  0  0  0  0  0  0  0  0  0
   15.3843   -7.0698  -22.1622 C   0  0  0  0  0  0  0  0  0  0  0  0
   15.4764   -7.7713  -24.9135 C   0  0  0  0  0  0  0  0  0  0  0  0
   15.4030   -8.5742  -23.2536 Se  0  0  2  0  0  0  0  0  0  0  0  0
   13.6855   -9.2860  -23.2568 C   0  0  0  0  0  0  0  0  0  0  0  0
   13.6551  -10.8118  -23.1597 C   0  0  1  0  0  0  0  0  0  0  0  0
   13.8347  -11.1816  -21.7818 O   0  0  0  0  0  0  0  0  0  0  0  0
   12.2328  -11.2595  -23.4987 C   0  0  1  0  0  0  0  0  0  0  0  0
   12.1918  -12.6830  -23.6091 O   0  0  0  0  0  0  0  0  0  0  0  0
   11.5246  -10.8156  -22.2212 C   0  0  1  0  0  0  0  0  0  0  0  0
   10.3127  -11.5597  -22.0846 O   0  0  0  0  0  0  0  0  0  0  0  0
   12.5326  -11.3124  -21.1840 C   0  0  2  0  0  0  0  0  0  0  0  0
   18.7175   -8.5206  -19.5809 O   0  0  0  0  0  0  0  0  0  0  0  0
   11.3744   -6.8296  -18.9019 N   0  0  0  0  0  0  0  0  0  0  0  0
   11.3139   -7.1463  -20.1839 C   0  0  0  0  0  0  0  0  0  0  0  0
   11.6450   -8.3488  -20.6208 N   0  0  0  0  0  0  0  0  0  0  0  0
   12.0545   -9.2971  -19.7646 C   0  0  0  0  0  0  0  0  0  0  0  0
   12.1326   -9.0014  -18.4109 C   0  0  0  0  0  0  0  0  0  0  0  0
   11.7793   -7.7243  -17.9914 C   0  0  0  0  0  0  0  0  0  0  0  0
   11.8779   -7.3916  -16.7081 N   0  0  0  0  0  0  0  0  0  0  0  0
   12.5600  -10.0919  -17.7843 N   0  0  0  0  0  0  0  0  0  0  0  0
   12.7448  -11.0368  -18.7032 C   0  0  0  0  0  0  0  0  0  0  0  0
   12.4390  -10.5609  -19.9104 N   0  0  0  0  0  0  0  0  0  0  0  0
  2  1  1  1  0  0  0
  2  5  1  0  0  0  0
  2  3  1  0  0  0  0
  3 17  1  0  0  0  0
  3  4  1  0  0  0  0
  5  6  1  0  0  0  0
  7  8  1  0  0  0  0
  8  6  1  1  0  0  0
  8  9  1  0  0  0  0
 10  9  1  1  0  0  0
 10 11  1  0  0  0  0
 10 12  1  0  0  0  0
 11 16  1  0  0  0  0
 12 13  1  1  0  0  0
 12 14  1  0  0  0  0
 14 15  1  1  0  0  0
 14 16  1  0  0  0  0
 16 27  1  1  0  0  0
 18 23  2  0  0  0  0
 18 19  1  0  0  0  0
 19 20  2  0  0  0  0
 20 21  1  0  0  0  0
 21 22  2  0  0  0  0
 21 27  1  0  0  0  0
 22 23  1  0  0  0  0
 22 25  1  0  0  0  0
 23 24  1  0  0  0  0
 25 26  2  0  0  0  0
 26 27  1  0  0  0  0
M  END
>  <CHROM.1>
-57.59580000,-14.54253945,-67.93884584,-121.92682273,-138.00887461,80.42679408
90.15433989,13.93992589,-9.09504085,-21.08650394,0.01958498,0.43921790,1.20701768

>  <Name>
ligand

>  <RI>
0

>  <Rbt.Current_Directory>
/home/itssahil/PROJECTS/Mol_Feturizer/New_Systems/rnas/3E5F

>  <Rbt.Executable>
rbdock ($Id: //depot/dev/client3/rdock/2013.1/src/exe/rbdock.cxx#4 $)

>  <Rbt.Library>
libRbt.so (2013.1, Build901 2013/11/27)

>  <Rbt.Parameter_File>
/export/apps/rDock/src/rDock_2013.1_src/data/scripts/dock_solv.prm

>  <Rbt.Receptor>
prm/pocket_docking_3.prm

>  <SCORE>
-15.3041

>  <SCORE.INTER>
-17.4691

>  <SCORE.INTER.CONST>
1

>  <SCORE.INTER.POLAR>
0

>  <SCORE.INTER.ROT>
7

>  <SCORE.INTER.SOLV>
8.32724

>  <SCORE.INTER.VDW>
-22.6885

>  <SCORE.INTER.norm>
-0.647005

>  <SCORE.INTRA>
2.15593

>  <SCORE.INTRA.DIHEDRAL>
3.86095

>  <SCORE.INTRA.DIHEDRAL.0>
4.89803

>  <SCORE.INTRA.POLAR>
0

>  <SCORE.INTRA.POLAR.0>
0

>  <SCORE.INTRA.REPUL>
0

>  <SCORE.INTRA.REPUL.0>
0

>  <SCORE.INTRA.SOLV>
2.76352

>  <SCORE.INTRA.SOLV.lig_0>
-48.5832

>  <SCORE.INTRA.VDW>
-1.1563

>  <SCORE.INTRA.VDW.0>
-2.39056

>  <SCORE.INTRA.norm>
0.0798494

>  <SCORE.RESTR>
0.00913195

>  <SCORE.RESTR.CAVITY>
0.00913195

>  <SCORE.RESTR.norm>
0.00033822

>  <SCORE.SYSTEM>
0

>  <SCORE.SYSTEM.CONST>
0

>  <SCORE.SYSTEM.DIHEDRAL>
0

>  <SCORE.SYSTEM.SOLV>
0

>  <SCORE.SYSTEM.norm>
0

>  <SCORE.heavy>
27

>  <SCORE.norm>
-0.566817

>  <RMSD>
4.940

$$$$
ligand
 OpenBabel11021811473D
libRbt.so/2013.1/901 2013/11/27
 27 29  0  0  0  0  0  0  0  0999 V2000
   16.7196   -6.7627  -16.5861 N   0  0  0  0  0  0  0  0  0  0  0  0
   16.2945   -6.5952  -17.9836 C   0  0  2  0  0  0  0  0  0  0  0  0
   17.5205   -6.5502  -18.9007 C   0  0  0  0  0  0  0  0  0  0  0  0
   18.4252   -5.7417  -18.5985 O   0  0  0  0  0  0  0  0  0  0  0  0
   15.5219   -5.2811  -18.1101 C   0  0  0  0  0  0  0  0  0  0  0  0
   14.9085   -5.1071  -19.5018 C   0  0  0  0  0  0  0  0  0  0  0  0
   16.4805   -3.3153  -21.0473 C   0  0  0  0  0  0  0  0  0  0  0  0
   16.2229   -5.1279  -20.8157 Se  0  0  2  0  0  0  0  0  0  0  0  0
   15.4064   -5.5985  -22.4183 C   0  0  0  0  0  0  0  0  0  0  0  0
   16.2677   -6.5018  -23.3019 C   0  0  1  0  0  0  0  0  0  0  0  0
   16.4567   -7.7542  -22.6211 O   0  0  0  0  0  0  0  0  0  0  0  0
   15.4370   -6.8536  -24.5366 C   0  0  1  0  0  0  0  0  0  0  0  0
   16.2555   -7.5390  -25.4857 O   0  0  0  0  0  0  0  0  0  0  0  0
   14.4505   -7.8290  -23.8992 C   0  0  1  0  0  0  0  0  0  0  0  0
   13.9030   -8.6635  -24.9214 O   0  0  0  0  0  0  0  0  0  0  0  0
   15.4187   -8.6535  -23.0498 C   0  0  2  0  0  0  0  0  0  0  0  0
   17.5228   -7.3173  -19.8886 O   0  0  0  0  0  0  0  0  0  0  0  0
   12.5580  -12.6191  -21.3960 N   0  0  0  0  0  0  0  0  0  0  0  0
   13.0173  -12.3796  -22.6122 C   0  0  0  0  0  0  0  0  0  0  0  0
   13.7457  -11.3108  -22.8838 N   0  0  0  0  0  0  0  0  0  0  0  0
   14.0472  -10.4275  -21.9200 C   0  0  0  0  0  0  0  0  0  0  0  0
   13.5811  -10.6442  -20.6309 C   0  0  0  0  0  0  0  0  0  0  0  0
   12.8151  -11.7778  -20.3863 C   0  0  0  0  0  0  0  0  0  0  0  0
   12.3185  -11.9995  -19.1733 N   0  0  0  0  0  0  0  0  0  0  0  0
   14.0086   -9.6399  -19.8737 N   0  0  0  0  0  0  0  0  0  0  0  0
   14.7146   -8.8227  -20.6516 C   0  0  0  0  0  0  0  0  0  0  0  0
   14.7429   -9.2954  -21.8979 N   0  0  0  0  0  0  0  0  0  0  0  0
  2  1  1  1  0  0  0
  2  5  1  0  0  0  0
  2  3  1  0  0  0  0
  3 17  1  0  0  0  0
  3  4  1  0  0  0  0
  5  6  1  0  0  0  0
  7  8  1  0  0  0  0
  8  6  1  1  0  0  0
  8  9  1  0  0  0  0
 10  9  1  1  0  0  0
 10 11  1  0  0  0  0
 10 12  1  0  0  0  0
 11 16  1  0  0  0  0
 12 13  1  6  0  0  0
 12 14  1  0  0  0  0
 14 15  1  6  0  0  0
 14 16  1  0  0  0  0
 16 27  1  1  0  0  0
 18 23  2  0  0  0  0
 18 19  1  0  0  0  0
 19 20  2  0  0  0  0
 20 21  1  0  0  0  0
 21 22  2  0  0  0  0
 21 27  1  0  0  0  0
 22 23  1  0  0  0  0
 22 25  1  0  0  0  0
 23 24  1  0  0  0  0
 25 26  2  0  0  0  0
 26 27  1  0  0  0  0
M  END
>  <CHROM.1>
-173.58088398,-51.64915506,-59.24028137,-96.65976614,-142.44433455,64.71715766
-158.65017112,15.35326427,-7.63054040,-21.18398237,0.20125024,1.08317530
1.69096541

>  <Name>
ligand

>  <RI>
0

>  <Rbt.Current_Directory>
/home/itssahil/PROJECTS/Mol_Feturizer/New_Systems/rnas/3E5F

>  <Rbt.Executable>
rbdock ($Id: //depot/dev/client3/rdock/2013.1/src/exe/rbdock.cxx#4 $)

>  <Rbt.Library>
libRbt.so (2013.1, Build901 2013/11/27)

>  <Rbt.Parameter_File>
/export/apps/rDock/src/rDock_2013.1_src/data/scripts/dock_solv.prm

>  <Rbt.Receptor>
prm/blind_docking_80.prm

>  <SCORE>
-9.14855

>  <SCORE.INTER>
-7.63636

>  <SCORE.INTER.CONST>
1

>  <SCORE.INTER.POLAR>
0

>  <SCORE.INTER.ROT>
7

>  <SCORE.INTER.SOLV>
18.8073

>  <SCORE.INTER.VDW>
-19.6267

>  <SCORE.INTER.norm>
-0.282828

>  <SCORE.INTRA>
-1.66764

>  <SCORE.INTRA.DIHEDRAL>
1.26279

>  <SCORE.INTRA.DIHEDRAL.0>
4.89803

>  <SCORE.INTRA.POLAR>
0

>  <SCORE.INTRA.POLAR.0>
0

>  <SCORE.INTRA.REPUL>
0

>  <SCORE.INTRA.REPUL.0>
0

>  <SCORE.INTRA.SOLV>
0.121914

>  <SCORE.INTRA.SOLV.lig_0>
-48.5832

>  <SCORE.INTRA.VDW>
-2.35999

>  <SCORE.INTRA.VDW.0>
-2.39056

>  <SCORE.INTRA.norm>
-0.0617644

>  <SCORE.RESTR>
0.155451

>  <SCORE.RESTR.CAVITY>
0.155451

>  <SCORE.RESTR.norm>
0.00575743

>  <SCORE.SYSTEM>
0

>  <SCORE.SYSTEM.CONST>
0

>  <SCORE.SYSTEM.DIHEDRAL>
0

>  <SCORE.SYSTEM.SOLV>
0

>  <SCORE.SYSTEM.norm>
0

>  <SCORE.heavy>
27

>  <SCORE.norm>
-0.338835

>  <RMSD>
4.954

$$$$
ligand
 OpenBabel11021811473D
libRbt.so/2013.1/901 2013/11/27
 27 29  0  0  0  0  0  0  0  0999 V2000
   15.0516   -5.9417  -19.6114 N   0  0  0  0  0  0  0  0  0  0  0  0
   16.3609   -6.6054  -19.6954 C   0  0  2  0  0  0  0  0  0  0  0  0
   17.4455   -5.5795  -20.0380 C   0  0  0  0  0  0  0  0  0  0  0  0
   18.6336   -5.9384  -19.8857 O   0  0  0  0  0  0  0  0  0  0  0  0
   16.3061   -7.6673  -20.7950 C   0  0  0  0  0  0  0  0  0  0  0  0
   16.0135   -7.0575  -22.1683 C   0  0  0  0  0  0  0  0  0  0  0  0
   15.8128   -7.3620  -24.9856 C   0  0  0  0  0  0  0  0  0  0  0  0
   15.7802   -8.3838  -23.4493 Se  0  0  2  0  0  0  0  0  0  0  0  0
   13.9995   -8.9144  -23.3894 C   0  0  0  0  0  0  0  0  0  0  0  0
   13.7963  -10.4071  -23.6525 C   0  0  1  0  0  0  0  0  0  0  0  0
   13.9287  -11.1090  -22.4045 O   0  0  0  0  0  0  0  0  0  0  0  0
   12.3336  -10.6018  -24.0533 C   0  0  1  0  0  0  0  0  0  0  0  0
   12.1321  -11.9456  -24.4938 O   0  0  0  0  0  0  0  0  0  0  0  0
   11.6761  -10.3963  -22.6909 C   0  0  1  0  0  0  0  0  0  0  0  0
   10.3874  -11.0128  -22.7041 O   0  0  0  0  0  0  0  0  0  0  0  0
   12.6182  -11.2322  -21.8235 C   0  0  2  0  0  0  0  0  0  0  0  0
   17.0641   -4.4566  -20.4353 O   0  0  0  0  0  0  0  0  0  0  0  0
   11.7019   -7.3846  -18.5067 N   0  0  0  0  0  0  0  0  0  0  0  0
   11.5727   -7.3924  -19.8223 C   0  0  0  0  0  0  0  0  0  0  0  0
   11.8470   -8.4658  -20.5428 N   0  0  0  0  0  0  0  0  0  0  0  0
   12.2670   -9.5950  -19.9524 C   0  0  0  0  0  0  0  0  0  0  0  0
   12.4166   -9.6246  -18.5730 C   0  0  0  0  0  0  0  0  0  0  0  0
   12.1216   -8.4741  -17.8510 C   0  0  0  0  0  0  0  0  0  0  0  0
   12.2894   -8.4517  -16.5324 N   0  0  0  0  0  0  0  0  0  0  0  0
   12.8397  -10.8387  -18.2395 N   0  0  0  0  0  0  0  0  0  0  0  0
   12.9532  -11.5466  -19.3609 C   0  0  0  0  0  0  0  0  0  0  0  0
   12.6063  -10.7968  -20.4072 N   0  0  0  0  0  0  0  0  0  0  0  0
  2  1  1  6  0  0  0
  2  5  1  0  0  0  0
  2  3  1  0  0  0  0
  3 17  1  0  0  0  0
  3  4  1  0  0  0  0
  5  6  1  0  0  0  0
  7  8  1  0  0  0  0
  8  6  1  1  0  0  0
  8  9  1  0  0  0  0
 10  9  1  1  0  0  0
 10 11  1  0  0  0  0
 10 12  1  0  0  0  0
 11 16  1  0  0  0  0
 12 13  1  1  0  0  0
 12 14  1  0  0  0  0
 14 15  1  6  0  0  0
 14 16  1  0  0  0  0
 16 27  1  1  0  0  0
 18 23  2  0  0  0  0
 18 19  1  0  0  0  0
 19 20  2  0  0  0  0
 20 21  1  0  0  0  0
 21 22  2  0  0  0  0
 21 27  1  0  0  0  0
 22 23  1  0  0  0  0
 22 25  1  0  0  0  0
 23 24  1  0  0  0  0
 25 26  2  0  0  0  0
 26 27  1  0  0  0  0
M  END
>  <CHROM.1>
61.41178108,166.31009267,-174.16889363,-168.58180305,-144.47244451,86.90837622
95.70521527,14.11617304,-8.71421828,-21.39767537,0.29505381,0.67087247,1.16062735

>  <Name>
ligand

>  <RI>
0

>  <Rbt.Current_Directory>
/home/itssahil/PROJECTS/Mol_Feturizer/New_Systems/rnas/3E5F

>  <Rbt.Executable>
rbdock ($Id: //depot/dev/client3/rdock/2013.1/src/exe/rbdock.cxx#4 $)

>  <Rbt.Library>
libRbt.so (2013.1, Build901 2013/11/27)

>  <Rbt.Parameter_File>
/export/apps/rDock/src/rDock_2013.1_src/data/scripts/dock_solv.prm

>  <Rbt.Receptor>
prm/pocket_docking_3.prm

>  <SCORE>
-15.7085

>  <SCORE.INTER>
-17.5744

>  <SCORE.INTER.CONST>
1

>  <SCORE.INTER.POLAR>
0

>  <SCORE.INTER.ROT>
7

>  <SCORE.INTER.SOLV>
8.14189

>  <SCORE.INTER.VDW>
-22.6969

>  <SCORE.INTER.norm>
-0.650903

>  <SCORE.INTRA>
1.85327

>  <SCORE.INTRA.DIHEDRAL>
2.6175

>  <SCORE.INTRA.DIHEDRAL.0>
4.89803

>  <SCORE.INTRA.POLAR>
0

>  <SCORE.INTRA.POLAR.0>
0

>  <SCORE.INTRA.REPUL>
0

>  <SCORE.INTRA.REPUL.0>
0

>  <SCORE.INTRA.SOLV>
0.929827

>  <SCORE.INTRA.SOLV.lig_0>
-48.5832

>  <SCORE.INTRA.VDW>
0.0796009

>  <SCORE.INTRA.VDW.0>
-2.39056

>  <SCORE.INTRA.norm>
0.0686395

>  <SCORE.RESTR>
0.0126121

>  <SCORE.RESTR.CAVITY>
0.0126121

>  <SCORE.RESTR.norm>
0.000467114

>  <SCORE.SYSTEM>
0

>  <SCORE.SYSTEM.CONST>
0

>  <SCORE.SYSTEM.DIHEDRAL>
0

>  <SCORE.SYSTEM.SOLV>
0

>  <SCORE.SYSTEM.norm>
0

>  <SCORE.heavy>
27

>  <SCORE.norm>
-0.581796

>  <RMSD>
4.987

$$$$
ligand
 OpenBabel11021811473D
libRbt.so/2013.1/901 2013/11/27
 27 29  0  0  0  0  0  0  0  0999 V2000
   12.8531   -3.3313  -18.2952 N   0  0  0  0  0  0  0  0  0  0  0  0
   13.3715   -4.5055  -19.0124 C   0  0  2  0  0  0  0  0  0  0  0  0
   14.4676   -4.0768  -19.9927 C   0  0  0  0  0  0  0  0  0  0  0  0
   15.4526   -4.8381  -20.1100 O   0  0  0  0  0  0  0  0  0  0  0  0
   12.2252   -5.1542  -19.7903 C   0  0  0  0  0  0  0  0  0  0  0  0
   12.6055   -6.5361  -20.3278 C   0  0  0  0  0  0  0  0  0  0  0  0
   14.3330   -7.5743  -18.3258 C   0  0  0  0  0  0  0  0  0  0  0  0
   12.6167   -7.8001  -18.9651 Se  0  0  2  0  0  0  0  0  0  0  0  0
   12.7293   -9.4781  -19.7576 C   0  0  0  0  0  0  0  0  0  0  0  0
   14.0814   -9.7543  -20.4165 C   0  0  1  0  0  0  0  0  0  0  0  0
   14.0121  -11.0310  -21.0744 O   0  0  0  0  0  0  0  0  0  0  0  0
   14.2480   -8.7425  -21.5509 C   0  0  1  0  0  0  0  0  0  0  0  0
   15.5721   -8.8291  -22.0798 O   0  0  0  0  0  0  0  0  0  0  0  0
   13.2497   -9.3249  -22.5482 C   0  0  1  0  0  0  0  0  0  0  0  0
   13.5832   -8.8608  -23.8576 O   0  0  0  0  0  0  0  0  0  0  0  0
   13.6131  -10.8063  -22.4384 C   0  0  2  0  0  0  0  0  0  0  0  0
   14.3021   -2.9938  -20.5961 O   0  0  0  0  0  0  0  0  0  0  0  0
    9.6790  -13.7391  -20.8362 N   0  0  0  0  0  0  0  0  0  0  0  0
   10.5318  -13.0315  -20.1154 C   0  0  0  0  0  0  0  0  0  0  0  0
   11.4960  -12.3218  -20.6752 N   0  0  0  0  0  0  0  0  0  0  0  0
   11.6375  -12.2955  -22.0091 C   0  0  0  0  0  0  0  0  0  0  0  0
   10.7622  -13.0274  -22.7991 C   0  0  0  0  0  0  0  0  0  0  0  0
    9.7639  -13.7640  -22.1724 C   0  0  0  0  0  0  0  0  0  0  0  0
    8.9307  -14.5081  -22.8930 N   0  0  0  0  0  0  0  0  0  0  0  0
   11.1101  -12.8388  -24.0671 N   0  0  0  0  0  0  0  0  0  0  0  0
   12.1612  -12.0225  -24.0781 C   0  0  0  0  0  0  0  0  0  0  0  0
   12.4878  -11.6874  -22.8297 N   0  0  0  0  0  0  0  0  0  0  0  0
  2  1  1  6  0  0  0
  2  5  1  0  0  0  0
  2  3  1  0  0  0  0
  3 17  1  0  0  0  0
  3  4  1  0  0  0  0
  5  6  1  0  0  0  0
  7  8  1  0  0  0  0
  8  6  1  6  0  0  0
  8  9  1  0  0  0  0
 10  9  1  6  0  0  0
 10 11  1  0  0  0  0
 10 12  1  0  0  0  0
 11 16  1  0  0  0  0
 12 13  1  6  0  0  0
 12 14  1  0  0  0  0
 14 15  1  6  0  0  0
 14 16  1  0  0  0  0
 16 27  1  1  0  0  0
 18 23  2  0  0  0  0
 18 19  1  0  0  0  0
 19 20  2  0  0  0  0
 20 21  1  0  0  0  0
 21 22  2  0  0  0  0
 21 27  1  0  0  0  0
 22 23  1  0  0  0  0
 22 25  1  0  0  0  0
 23 24  1  0  0  0  0
 25 26  2  0  0  0  0
 26 27  1  0  0  0  0
M  END
>  <CHROM.1>
-168.17765364,141.42779022,75.04912174,-85.99516874,69.32572138,-175.80149743
20.86621232,12.72154358,-9.03523138,-20.82572861,1.07712296,0.83876875,0.72911954

>  <Name>
ligand

>  <RI>
0

>  <Rbt.Current_Directory>
/home/itssahil/PROJECTS/Mol_Feturizer/New_Systems/rnas/3E5F

>  <Rbt.Executable>
rbdock ($Id: //depot/dev/client3/rdock/2013.1/src/exe/rbdock.cxx#4 $)

>  <Rbt.Library>
libRbt.so (2013.1, Build901 2013/11/27)

>  <Rbt.Parameter_File>
/export/apps/rDock/src/rDock_2013.1_src/data/scripts/dock_solv.prm

>  <Rbt.Receptor>
prm/blind_docking_40.prm

>  <SCORE>
-12.1463

>  <SCORE.INTER>
-12.8998

>  <SCORE.INTER.CONST>
1

>  <SCORE.INTER.POLAR>
0

>  <SCORE.INTER.ROT>
7

>  <SCORE.INTER.SOLV>
9.63454

>  <SCORE.INTER.VDW>
-20.0781

>  <SCORE.INTER.norm>
-0.477772

>  <SCORE.INTRA>
0.753538

>  <SCORE.INTRA.DIHEDRAL>
0.438207

>  <SCORE.INTRA.DIHEDRAL.0>
4.89803

>  <SCORE.INTRA.POLAR>
0

>  <SCORE.INTRA.POLAR.0>
0

>  <SCORE.INTRA.REPUL>
0

>  <SCORE.INTRA.REPUL.0>
0

>  <SCORE.INTRA.SOLV>
0.539075

>  <SCORE.INTRA.SOLV.lig_0>
-48.5832

>  <SCORE.INTRA.VDW>
0.264896

>  <SCORE.INTRA.VDW.0>
-2.39056

>  <SCORE.INTRA.norm>
0.0279088

>  <SCORE.RESTR>
0

>  <SCORE.RESTR.CAVITY>
0

>  <SCORE.RESTR.norm>
0

>  <SCORE.SYSTEM>
0

>  <SCORE.SYSTEM.CONST>
0

>  <SCORE.SYSTEM.DIHEDRAL>
0

>  <SCORE.SYSTEM.SOLV>
0

>  <SCORE.SYSTEM.norm>
0

>  <SCORE.heavy>
27

>  <SCORE.norm>
-0.449863

>  <RMSD>
4.998

$$$$
ligand
 OpenBabel11021811473D
libRbt.so/2013.1/901 2013/11/27
 27 29  0  0  0  0  0  0  0  0999 V2000
   11.7346   -8.9602  -18.8816 N   0  0  0  0  0  0  0  0  0  0  0  0
   11.8098   -7.4929  -18.8262 C   0  0  2  0  0  0  0  0  0  0  0  0
   10.4735   -6.9191  -18.3454 C   0  0  0  0  0  0  0  0  0  0  0  0
   10.4997   -5.7844  -17.8206 O   0  0  0  0  0  0  0  0  0  0  0  0
   12.1114   -6.9611  -20.2284 C   0  0  0  0  0  0  0  0  0  0  0  0
   12.2696   -5.4385  -20.2435 C   0  0  0  0  0  0  0  0  0  0  0  0
   12.8990   -3.1551  -18.6750 C   0  0  0  0  0  0  0  0  0  0  0  0
   13.4850   -4.8830  -18.9517 Se  0  0  2  0  0  0  0  0  0  0  0  0
   15.1136   -4.5952  -19.8008 C   0  0  0  0  0  0  0  0  0  0  0  0
   16.2843   -5.3279  -19.1440 C   0  0  1  0  0  0  0  0  0  0  0  0
   16.0822   -6.7422  -19.3071 O   0  0  0  0  0  0  0  0  0  0  0  0
   17.5337   -5.0174  -19.9690 C   0  0  1  0  0  0  0  0  0  0  0  0
   18.6894   -5.5195  -19.2962 O   0  0  0  0  0  0  0  0  0  0  0  0
   17.2347   -5.8716  -21.1985 C   0  0  1  0  0  0  0  0  0  0  0  0
   18.4608   -6.1419  -21.8803 O   0  0  0  0  0  0  0  0  0  0  0  0
   16.7558   -7.1508  -20.5110 C   0  0  2  0  0  0  0  0  0  0  0  0
    9.4569   -7.6302  -18.5039 O   0  0  0  0  0  0  0  0  0  0  0  0
   15.0973   -8.0390  -25.3178 N   0  0  0  0  0  0  0  0  0  0  0  0
   15.9901   -7.1586  -24.8991 C   0  0  0  0  0  0  0  0  0  0  0  0
   16.3151   -7.0492  -23.6227 N   0  0  0  0  0  0  0  0  0  0  0  0
   15.7435   -7.8409  -22.7028 C   0  0  0  0  0  0  0  0  0  0  0  0
   14.8001   -8.7763  -23.1040 C   0  0  0  0  0  0  0  0  0  0  0  0
   14.4828   -8.8580  -24.4548 C   0  0  0  0  0  0  0  0  0  0  0  0
   13.5561   -9.7147  -24.8725 N   0  0  0  0  0  0  0  0  0  0  0  0
   14.3890   -9.4246  -22.0200 N   0  0  0  0  0  0  0  0  0  0  0  0
   15.0445   -8.9199  -20.9774 C   0  0  0  0  0  0  0  0  0  0  0  0
   15.8706   -7.9561  -21.3848 N   0  0  0  0  0  0  0  0  0  0  0  0
  2  1  1  6  0  0  0
  2  5  1  0  0  0  0
  2  3  1  0  0  0  0
  3 17  1  0  0  0  0
  3  4  1  0  0  0  0
  5  6  1  0  0  0  0
  7  8  1  0  0  0  0
  8  6  1  6  0  0  0
  8  9  1  0  0  0  0
 10  9  1  6  0  0  0
 10 11  1  0  0  0  0
 10 12  1  0  0  0  0
 11 16  1  0  0  0  0
 12 13  1  1  0  0  0
 12 14  1  0  0  0  0
 14 15  1  1  0  0  0
 14 16  1  0  0  0  0
 16 27  1  6  0  0  0
 18 23  2  0  0  0  0
 18 19  1  0  0  0  0
 19 20  2  0  0  0  0
 20 21  1  0  0  0  0
 21 22  2  0  0  0  0
 21 27  1  0  0  0  0
 22 23  1  0  0  0  0
 22 25  1  0  0  0  0
 23 24  1  0  0  0  0
 25 26  2  0  0  0  0
 26 27  1  0  0  0  0
M  END
>  <CHROM.1>
-177.38167935,156.40862528,51.51589673,-155.12165676,-127.76967079,66.30051537
136.41279516,14.35635214,-6.58808770,-20.56017279,2.35043080,0.31331238,0.88674459

>  <Name>
ligand

>  <RI>
0

>  <Rbt.Current_Directory>
/home/itssahil/PROJECTS/Mol_Feturizer/New_Systems/rnas/3E5F

>  <Rbt.Executable>
rbdock ($Id: //depot/dev/client3/rdock/2013.1/src/exe/rbdock.cxx#4 $)

>  <Rbt.Library>
libRbt.so (2013.1, Build901 2013/11/27)

>  <Rbt.Parameter_File>
/export/apps/rDock/src/rDock_2013.1_src/data/scripts/dock_solv.prm

>  <Rbt.Receptor>
prm/pocket_docking_5.prm

>  <SCORE>
-16.0226

>  <SCORE.INTER>
-16.2382

>  <SCORE.INTER.CONST>
1

>  <SCORE.INTER.POLAR>
0

>  <SCORE.INTER.ROT>
7

>  <SCORE.INTER.SOLV>
16.1906

>  <SCORE.INTER.VDW>
-24.489

>  <SCORE.INTER.norm>
-0.601416

>  <SCORE.INTRA>
0.215673

>  <SCORE.INTRA.DIHEDRAL>
1.98514

>  <SCORE.INTRA.DIHEDRAL.0>
4.89803

>  <SCORE.INTRA.POLAR>
0

>  <SCORE.INTRA.POLAR.0>
0

>  <SCORE.INTRA.REPUL>
0

>  <SCORE.INTRA.REPUL.0>
0

>  <SCORE.INTRA.SOLV>
0.271801

>  <SCORE.INTRA.SOLV.lig_0>
-48.5832

>  <SCORE.INTRA.VDW>
-0.9128

>  <SCORE.INTRA.VDW.0>
-2.39056

>  <SCORE.INTRA.norm>
0.00798789

>  <SCORE.RESTR>
0

>  <SCORE.RESTR.CAVITY>
0

>  <SCORE.RESTR.norm>
0

>  <SCORE.SYSTEM>
0

>  <SCORE.SYSTEM.CONST>
0

>  <SCORE.SYSTEM.DIHEDRAL>
0

>  <SCORE.SYSTEM.SOLV>
0

>  <SCORE.SYSTEM.norm>
0

>  <SCORE.heavy>
27

>  <SCORE.norm>
-0.593428

>  <RMSD>
5.003

$$$$
ligand
 OpenBabel11021811473D
libRbt.so/2013.1/901 2013/11/27
 27 29  0  0  0  0  0  0  0  0999 V2000
   10.4814   -6.8288  -16.8401 N   0  0  0  0  0  0  0  0  0  0  0  0
   10.8231   -6.0983  -18.0695 C   0  0  2  0  0  0  0  0  0  0  0  0
   10.8023   -7.0528  -19.2672 C   0  0  0  0  0  0  0  0  0  0  0  0
   10.7471   -8.2765  -19.0160 O   0  0  0  0  0  0  0  0  0  0  0  0
   12.2266   -5.5088  -17.9191 C   0  0  0  0  0  0  0  0  0  0  0  0
   12.5953   -4.5969  -19.0921 C   0  0  0  0  0  0  0  0  0  0  0  0
   14.4235   -3.7595  -21.0988 C   0  0  0  0  0  0  0  0  0  0  0  0
   14.3258   -4.9353  -19.6798 Se  0  0  2  0  0  0  0  0  0  0  0  0
   14.3106   -6.5765  -20.5529 C   0  0  0  0  0  0  0  0  0  0  0  0
   15.7061   -7.1048  -20.8875 C   0  0  1  0  0  0  0  0  0  0  0  0
   15.5764   -8.4538  -21.3684 O   0  0  0  0  0  0  0  0  0  0  0  0
   16.2146   -6.3114  -22.0917 C   0  0  1  0  0  0  0  0  0  0  0  0
   17.5863   -6.6299  -22.3310 O   0  0  0  0  0  0  0  0  0  0  0  0
   15.3392   -6.9283  -23.1797 C   0  0  1  0  0  0  0  0  0  0  0  0
   15.9643   -6.7187  -24.4472 O   0  0  0  0  0  0  0  0  0  0  0  0
   15.4642   -8.4049  -22.8019 C   0  0  2  0  0  0  0  0  0  0  0  0
   10.8517   -6.5399  -20.4069 O   0  0  0  0  0  0  0  0  0  0  0  0
   12.2983  -12.3819  -21.9047 N   0  0  0  0  0  0  0  0  0  0  0  0
   13.2907  -11.9286  -21.1583 C   0  0  0  0  0  0  0  0  0  0  0  0
   14.0186  -10.8880  -21.5244 N   0  0  0  0  0  0  0  0  0  0  0  0
   13.7664  -10.2507  -22.6778 C   0  0  0  0  0  0  0  0  0  0  0  0
   12.7335  -10.6988  -23.4891 C   0  0  0  0  0  0  0  0  0  0  0  0
   11.9935  -11.7985  -23.0709 C   0  0  0  0  0  0  0  0  0  0  0  0
   11.0214  -12.2807  -23.8389 N   0  0  0  0  0  0  0  0  0  0  0  0
   12.6903   -9.9116  -24.5582 N   0  0  0  0  0  0  0  0  0  0  0  0
   13.6556   -9.0046  -24.4283 C   0  0  0  0  0  0  0  0  0  0  0  0
   14.3145   -9.2042  -23.2866 N   0  0  0  0  0  0  0  0  0  0  0  0
  2  1  1  1  0  0  0
  2  5  1  0  0  0  0
  2  3  1  0  0  0  0
  3 17  1  0  0  0  0
  3  4  1  0  0  0  0
  5  6  1  0  0  0  0
  7  8  1  0  0  0  0
  8  6  1  6  0  0  0
  8  9  1  0  0  0  0
 10  9  1  6  0  0  0
 10 11  1  0  0  0  0
 10 12  1  0  0  0  0
 11 16  1  0  0  0  0
 12 13  1  6  0  0  0
 12 14  1  0  0  0  0
 14 15  1  6  0  0  0
 14 16  1  0  0  0  0
 16 27  1  1  0  0  0
 18 23  2  0  0  0  0
 18 19  1  0  0  0  0
 19 20  2  0  0  0  0
 20 21  1  0  0  0  0
 21 22  2  0  0  0  0
 21 27  1  0  0  0  0
 22 23  1  0  0  0  0
 22 25  1  0  0  0  0
 23 24  1  0  0  0  0
 25 26  2  0  0  0  0
 26 27  1  0  0  0  0
M  END
>  <CHROM.1>
-173.41969136,-12.16139177,-135.62811540,177.70656454,-170.21433467,171.36571994
-26.30206326,13.60656036,-7.57100305,-21.15804007,1.53606613,0.61549845,0.62333469

>  <Name>
ligand

>  <RI>
0

>  <Rbt.Current_Directory>
/home/itssahil/PROJECTS/Mol_Feturizer/New_Systems/rnas/3E5F

>  <Rbt.Executable>
rbdock ($Id: //depot/dev/client3/rdock/2013.1/src/exe/rbdock.cxx#4 $)

>  <Rbt.Library>
libRbt.so (2013.1, Build901 2013/11/27)

>  <Rbt.Parameter_File>
/export/apps/rDock/src/rDock_2013.1_src/data/scripts/dock_solv.prm

>  <Rbt.Receptor>
prm/pocket_docking_7.prm

>  <SCORE>
-13.7287

>  <SCORE.INTER>
-15.8983

>  <SCORE.INTER.CONST>
1

>  <SCORE.INTER.POLAR>
0

>  <SCORE.INTER.ROT>
7

>  <SCORE.INTER.SOLV>
11.5153

>  <SCORE.INTER.VDW>
-22.704

>  <SCORE.INTER.norm>
-0.588827

>  <SCORE.INTRA>
2.16964

>  <SCORE.INTRA.DIHEDRAL>
3.53379

>  <SCORE.INTRA.DIHEDRAL.0>
4.89803

>  <SCORE.INTRA.POLAR>
0

>  <SCORE.INTRA.POLAR.0>
0

>  <SCORE.INTRA.REPUL>
0

>  <SCORE.INTRA.REPUL.0>
0

>  <SCORE.INTRA.SOLV>
0.0925304

>  <SCORE.INTRA.SOLV.lig_0>
-48.5832

>  <SCORE.INTRA.VDW>
0.356482

>  <SCORE.INTRA.VDW.0>
-2.39056

>  <SCORE.INTRA.norm>
0.0803572

>  <SCORE.RESTR>
0

>  <SCORE.RESTR.CAVITY>
0

>  <SCORE.RESTR.norm>
0

>  <SCORE.SYSTEM>
0

>  <SCORE.SYSTEM.CONST>
0

>  <SCORE.SYSTEM.DIHEDRAL>
0

>  <SCORE.SYSTEM.SOLV>
0

>  <SCORE.SYSTEM.norm>
0

>  <SCORE.heavy>
27

>  <SCORE.norm>
-0.50847

>  <RMSD>
5.010

$$$$
ligand
 OpenBabel11021811473D
libRbt.so/2013.1/901 2013/11/27
 27 29  0  0  0  0  0  0  0  0999 V2000
   12.4666   -8.3372  -17.6364 N   0  0  0  0  0  0  0  0  0  0  0  0
   11.0559   -8.5096  -18.0133 C   0  0  2  0  0  0  0  0  0  0  0  0
   10.9450   -9.4826  -19.1911 C   0  0  0  0  0  0  0  0  0  0  0  0
    9.9407  -10.2270  -19.2189 O   0  0  0  0  0  0  0  0  0  0  0  0
   10.4859   -7.1515  -18.4261 C   0  0  0  0  0  0  0  0  0  0  0  0
   11.2683   -6.5285  -19.5851 C   0  0  0  0  0  0  0  0  0  0  0  0
   12.6995   -4.5020  -18.2012 C   0  0  0  0  0  0  0  0  0  0  0  0
   13.0017   -6.1041  -19.0657 Se  0  0  2  0  0  0  0  0  0  0  0  0
   13.9204   -5.5447  -20.5821 C   0  0  0  0  0  0  0  0  0  0  0  0
   15.4255   -5.8073  -20.5175 C   0  0  1  0  0  0  0  0  0  0  0  0
   15.6326   -7.2233  -20.3775 O   0  0  0  0  0  0  0  0  0  0  0  0
   16.0047   -5.4650  -21.8907 C   0  0  1  0  0  0  0  0  0  0  0  0
   17.4313   -5.5098  -21.8340 O   0  0  0  0  0  0  0  0  0  0  0  0
   15.4773   -6.6579  -22.6840 C   0  0  1  0  0  0  0  0  0  0  0  0
   16.2852   -6.8286  -23.8500 O   0  0  0  0  0  0  0  0  0  0  0  0
   15.7891   -7.7813  -21.6944 C   0  0  2  0  0  0  0  0  0  0  0  0
   11.8703   -9.4681  -20.0325 O   0  0  0  0  0  0  0  0  0  0  0  0
   12.8300  -10.4409  -24.9830 N   0  0  0  0  0  0  0  0  0  0  0  0
   13.5261   -9.3384  -25.2010 C   0  0  0  0  0  0  0  0  0  0  0  0
   14.2449   -8.7689  -24.2493 N   0  0  0  0  0  0  0  0  0  0  0  0
   14.2927   -9.3016  -23.0190 C   0  0  0  0  0  0  0  0  0  0  0  0
   13.5736  -10.4580  -22.7515 C   0  0  0  0  0  0  0  0  0  0  0  0
   12.8268  -11.0245  -23.7778 C   0  0  0  0  0  0  0  0  0  0  0  0
   12.0942  -12.1102  -23.5499 N   0  0  0  0  0  0  0  0  0  0  0  0
   13.7827  -10.7775  -21.4793 N   0  0  0  0  0  0  0  0  0  0  0  0
   14.5993   -9.8614  -20.9641 C   0  0  0  0  0  0  0  0  0  0  0  0
   14.9142   -8.9603  -21.8948 N   0  0  0  0  0  0  0  0  0  0  0  0
  2  1  1  6  0  0  0
  2  5  1  0  0  0  0
  2  3  1  0  0  0  0
  3 17  1  0  0  0  0
  3  4  1  0  0  0  0
  5  6  1  0  0  0  0
  7  8  1  0  0  0  0
  8  6  1  6  0  0  0
  8  9  1  0  0  0  0
 10  9  1  6  0  0  0
 10 11  1  0  0  0  0
 10 12  1  0  0  0  0
 11 16  1  0  0  0  0
 12 13  1  1  0  0  0
 12 14  1  0  0  0  0
 14 15  1  6  0  0  0
 14 16  1  0  0  0  0
 16 27  1  6  0  0  0
 18 23  2  0  0  0  0
 18 19  1  0  0  0  0
 19 20  2  0  0  0  0
 20 21  1  0  0  0  0
 21 22  2  0  0  0  0
 21 27  1  0  0  0  0
 22 23  1  0  0  0  0
 22 25  1  0  0  0  0
 23 24  1  0  0  0  0
 25 26  2  0  0  0  0
 26 27  1  0  0  0  0
M  END
>  <CHROM.1>
57.99042590,145.61849452,-65.82084231,-80.71811143,-151.76631688,60.31983366
143.89878565,13.49244818,-7.86490659,-20.91282384,1.94531656,0.68064973,0.76838154

>  <Name>
ligand

>  <RI>
0

>  <Rbt.Current_Directory>
/home/itssahil/PROJECTS/Mol_Feturizer/New_Systems/rnas/3E5F

>  <Rbt.Executable>
rbdock ($Id: //depot/dev/client3/rdock/2013.1/src/exe/rbdock.cxx#4 $)

>  <Rbt.Library>
libRbt.so (2013.1, Build901 2013/11/27)

>  <Rbt.Parameter_File>
/export/apps/rDock/src/rDock_2013.1_src/data/scripts/dock_solv.prm

>  <Rbt.Receptor>
prm/pocket_docking_6.prm

>  <SCORE>
-13.2177

>  <SCORE.INTER>
-13.8618

>  <SCORE.INTER.CONST>
1

>  <SCORE.INTER.POLAR>
0

>  <SCORE.INTER.ROT>
7

>  <SCORE.INTER.SOLV>
10.0555

>  <SCORE.INTER.VDW>
-20.8597

>  <SCORE.INTER.norm>
-0.5134

>  <SCORE.INTRA>
0.644136

>  <SCORE.INTRA.DIHEDRAL>
-0.0429464

>  <SCORE.INTRA.DIHEDRAL.0>
4.89803

>  <SCORE.INTRA.POLAR>
0

>  <SCORE.INTRA.POLAR.0>
0

>  <SCORE.INTRA.REPUL>
0.00771049

>  <SCORE.INTRA.REPUL.0>
0

>  <SCORE.INTRA.SOLV>
2.47139

>  <SCORE.INTRA.SOLV.lig_0>
-48.5832

>  <SCORE.INTRA.VDW>
-0.608639

>  <SCORE.INTRA.VDW.0>
-2.39056

>  <SCORE.INTRA.norm>
0.0238569

>  <SCORE.RESTR>
0

>  <SCORE.RESTR.CAVITY>
0

>  <SCORE.RESTR.norm>
0

>  <SCORE.SYSTEM>
0

>  <SCORE.SYSTEM.CONST>
0

>  <SCORE.SYSTEM.DIHEDRAL>
0

>  <SCORE.SYSTEM.SOLV>
0

>  <SCORE.SYSTEM.norm>
0

>  <SCORE.heavy>
27

>  <SCORE.norm>
-0.489543

>  <RMSD>
5.038

$$$$
ligand
 OpenBabel11021811473D
libRbt.so/2013.1/901 2013/11/27
 27 29  0  0  0  0  0  0  0  0999 V2000
   15.7157   -6.6305  -19.8363 N   0  0  0  0  0  0  0  0  0  0  0  0
   16.2670   -7.9867  -19.9733 C   0  0  2  0  0  0  0  0  0  0  0  0
   17.7651   -7.9127  -20.2838 C   0  0  0  0  0  0  0  0  0  0  0  0
   18.1705   -6.8916  -20.8809 O   0  0  0  0  0  0  0  0  0  0  0  0
   15.5488   -8.6975  -21.1217 C   0  0  0  0  0  0  0  0  0  0  0  0
   15.6197   -7.8987  -22.4256 C   0  0  0  0  0  0  0  0  0  0  0  0
   15.3107   -7.7347  -25.2448 C   0  0  0  0  0  0  0  0  0  0  0  0
   15.2995   -8.9921  -23.8941 Se  0  0  2  0  0  0  0  0  0  0  0  0
   13.5060   -9.4794  -23.8500 C   0  0  0  0  0  0  0  0  0  0  0  0
   13.2743  -10.9790  -24.0398 C   0  0  1  0  0  0  0  0  0  0  0  0
   13.5908  -11.6459  -22.8058 O   0  0  0  0  0  0  0  0  0  0  0  0
   11.7697  -11.1864  -24.2174 C   0  0  1  0  0  0  0  0  0  0  0  0
   11.5130  -12.5420  -24.5870 O   0  0  0  0  0  0  0  0  0  0  0  0
   11.3170  -10.9438  -22.7797 C   0  0  1  0  0  0  0  0  0  0  0  0
   10.0432  -11.5618  -22.5879 O   0  0  0  0  0  0  0  0  0  0  0  0
   12.3797  -11.7543  -22.0366 C   0  0  2  0  0  0  0  0  0  0  0  0
   18.4706   -8.8816  -19.9264 O   0  0  0  0  0  0  0  0  0  0  0  0
   12.1692   -7.7537  -18.7816 N   0  0  0  0  0  0  0  0  0  0  0  0
   11.8819   -7.7879  -20.0715 C   0  0  0  0  0  0  0  0  0  0  0  0
   11.9839   -8.8998  -20.7786 N   0  0  0  0  0  0  0  0  0  0  0  0
   12.3839  -10.0422  -20.2000 C   0  0  0  0  0  0  0  0  0  0  0  0
   12.6960  -10.0451  -18.8477 C   0  0  0  0  0  0  0  0  0  0  0  0
   12.5797   -8.8548  -18.1396 C   0  0  0  0  0  0  0  0  0  0  0  0
   12.9066   -8.8090  -16.8518 N   0  0  0  0  0  0  0  0  0  0  0  0
   13.0616  -11.2797  -18.5212 N   0  0  0  0  0  0  0  0  0  0  0  0
   12.9842  -12.0256  -19.6207 C   0  0  0  0  0  0  0  0  0  0  0  0
   12.5723  -11.2798  -20.6462 N   0  0  0  0  0  0  0  0  0  0  0  0
  2  1  1  6  0  0  0
  2  5  1  0  0  0  0
  2  3  1  0  0  0  0
  3 17  1  0  0  0  0
  3  4  1  0  0  0  0
  5  6  1  0  0  0  0
  7  8  1  0  0  0  0
  8  6  1  1  0  0  0
  8  9  1  0  0  0  0
 10  9  1  1  0  0  0
 10 11  1  0  0  0  0
 10 12  1  0  0  0  0
 11 16  1  0  0  0  0
 12 13  1  1  0  0  0
 12 14  1  0  0  0  0
 14 15  1  6  0  0  0
 14 16  1  0  0  0  0
 16 27  1  1  0  0  0
 18 23  2  0  0  0  0
 18 19  1  0  0  0  0
 19 20  2  0  0  0  0
 20 21  1  0  0  0  0
 21 22  2  0  0  0  0
 21 27  1  0  0  0  0
 22 23  1  0  0  0  0
 22 25  1  0  0  0  0
 23 24  1  0  0  0  0
 25 26  2  0  0  0  0
 26 27  1  0  0  0  0
M  END
>  <CHROM.1>
54.81167454,-27.71925572,159.95773867,175.40646095,-131.62232144,76.94418663
90.74200166,14.00134937,-9.49200760,-21.67919570,0.38893671,0.55567452,1.35861599

>  <Name>
ligand

>  <RI>
0

>  <Rbt.Current_Directory>
/home/itssahil/PROJECTS/Mol_Feturizer/New_Systems/rnas/3E5F

>  <Rbt.Executable>
rbdock ($Id: //depot/dev/client3/rdock/2013.1/src/exe/rbdock.cxx#4 $)

>  <Rbt.Library>
libRbt.so (2013.1, Build901 2013/11/27)

>  <Rbt.Parameter_File>
/export/apps/rDock/src/rDock_2013.1_src/data/scripts/dock_solv.prm

>  <Rbt.Receptor>
prm/pocket_docking_8.prm

>  <SCORE>
-19.8828

>  <SCORE.INTER>
-20.5062

>  <SCORE.INTER.CONST>
1

>  <SCORE.INTER.POLAR>
0

>  <SCORE.INTER.ROT>
7

>  <SCORE.INTER.SOLV>
10.226

>  <SCORE.INTER.VDW>
-25.3462

>  <SCORE.INTER.norm>
-0.75949

>  <SCORE.INTRA>
0.623389

>  <SCORE.INTRA.DIHEDRAL>
2.65778

>  <SCORE.INTRA.DIHEDRAL.0>
4.89803

>  <SCORE.INTRA.POLAR>
0

>  <SCORE.INTRA.POLAR.0>
0

>  <SCORE.INTRA.REPUL>
0

>  <SCORE.INTRA.REPUL.0>
0

>  <SCORE.INTRA.SOLV>
0.859896

>  <SCORE.INTRA.SOLV.lig_0>
-48.5832

>  <SCORE.INTRA.VDW>
-1.13545

>  <SCORE.INTRA.VDW.0>
-2.39056

>  <SCORE.INTRA.norm>
0.0230885

>  <SCORE.RESTR>
0

>  <SCORE.RESTR.CAVITY>
0

>  <SCORE.RESTR.norm>
0

>  <SCORE.SYSTEM>
0

>  <SCORE.SYSTEM.CONST>
0

>  <SCORE.SYSTEM.DIHEDRAL>
0

>  <SCORE.SYSTEM.SOLV>
0

>  <SCORE.SYSTEM.norm>
0

>  <SCORE.heavy>
27

>  <SCORE.norm>
-0.736401

>  <RMSD>
5.040

$$$$
ligand
 OpenBabel11021811473D
libRbt.so/2013.1/901 2013/11/27
 27 29  0  0  0  0  0  0  0  0999 V2000
   17.0700   -6.1133  -20.5616 N   0  0  0  0  0  0  0  0  0  0  0  0
   16.0638   -7.0869  -20.1127 C   0  0  2  0  0  0  0  0  0  0  0  0
   16.4431   -7.6312  -18.7321 C   0  0  0  0  0  0  0  0  0  0  0  0
   17.6261   -8.0046  -18.5753 O   0  0  0  0  0  0  0  0  0  0  0  0
   16.0143   -8.2425  -21.1138 C   0  0  0  0  0  0  0  0  0  0  0  0
   15.4861   -7.7968  -22.4797 C   0  0  0  0  0  0  0  0  0  0  0  0
   14.6627   -8.4185  -25.1266 C   0  0  0  0  0  0  0  0  0  0  0  0
   15.0294   -9.2627  -23.5271 Se  0  0  2  0  0  0  0  0  0  0  0  0
   13.3362   -9.8220  -23.0013 C   0  0  0  0  0  0  0  0  0  0  0  0
   13.0102   -9.4981  -21.5427 C   0  0  1  0  0  0  0  0  0  0  0  0
   11.6727   -9.9484  -21.2669 O   0  0  0  0  0  0  0  0  0  0  0  0
   13.9038  -10.3816  -20.6715 C   0  0  1  0  0  0  0  0  0  0  0  0
   13.7793   -9.9886  -19.3038 O   0  0  0  0  0  0  0  0  0  0  0  0
   13.2121  -11.7245  -20.8925 C   0  0  1  0  0  0  0  0  0  0  0  0
   13.5451  -12.5972  -19.8115 O   0  0  0  0  0  0  0  0  0  0  0  0
   11.7536  -11.2878  -20.7477 C   0  0  2  0  0  0  0  0  0  0  0  0
   15.5409   -7.6712  -17.8667 O   0  0  0  0  0  0  0  0  0  0  0  0
   10.2352  -13.2362  -25.2801 N   0  0  0  0  0  0  0  0  0  0  0  0
   11.2020  -12.3690  -25.0336 C   0  0  0  0  0  0  0  0  0  0  0  0
   11.4762  -11.9617  -23.8065 N   0  0  0  0  0  0  0  0  0  0  0  0
   10.7745  -12.4248  -22.7610 C   0  0  0  0  0  0  0  0  0  0  0  0
    9.7504  -13.3352  -22.9806 C   0  0  0  0  0  0  0  0  0  0  0  0
    9.4904  -13.7361  -24.2858 C   0  0  0  0  0  0  0  0  0  0  0  0
    8.4926  -14.5770  -24.5401 N   0  0  0  0  0  0  0  0  0  0  0  0
    9.2165  -13.6334  -21.8014 N   0  0  0  0  0  0  0  0  0  0  0  0
    9.8751  -12.9402  -20.8755 C   0  0  0  0  0  0  0  0  0  0  0  0
   10.8247  -12.2028  -21.4516 N   0  0  0  0  0  0  0  0  0  0  0  0
  2  1  1  6  0  0  0
  2  5  1  0  0  0  0
  2  3  1  0  0  0  0
  3 17  1  0  0  0  0
  3  4  1  0  0  0  0
  5  6  1  0  0  0  0
  7  8  1  0  0  0  0
  8  6  1  1  0  0  0
  8  9  1  0  0  0  0
 10  9  1  6  0  0  0
 10 11  1  0  0  0  0
 10 12  1  0  0  0  0
 11 16  1  0  0  0  0
 12 13  1  1  0  0  0
 12 14  1  0  0  0  0
 14 15  1  1  0  0  0
 14 16  1  0  0  0  0
 16 27  1  6  0  0  0
 18 23  2  0  0  0  0
 18 19  1  0  0  0  0
 19 20  2  0  0  0  0
 20 21  1  0  0  0  0
 21 22  2  0  0  0  0
 21 27  1  0  0  0  0
 22 23  1  0  0  0  0
 22 25  1  0  0  0  0
 23 24  1  0  0  0  0
 25 26  2  0  0  0  0
 26 27  1  0  0  0  0
M  END
>  <CHROM.1>
-66.48573640,-47.50226043,-165.57585634,-172.87125515,-27.80217848,178.67409367
55.70020314,13.33092308,-10.33076610,-21.98822053,-0.31450207,-0.72832073
-1.53085377

>  <Name>
ligand

>  <RI>
0

>  <Rbt.Current_Directory>
/home/itssahil/PROJECTS/Mol_Feturizer/New_Systems/rnas/3E5F

>  <Rbt.Executable>
rbdock ($Id: //depot/dev/client3/rdock/2013.1/src/exe/rbdock.cxx#4 $)

>  <Rbt.Library>
libRbt.so (2013.1, Build901 2013/11/27)

>  <Rbt.Parameter_File>
/export/apps/rDock/src/rDock_2013.1_src/data/scripts/dock_solv.prm

>  <Rbt.Receptor>
prm/blind_docking_80.prm

>  <SCORE>
-15.2159

>  <SCORE.INTER>
-15.8074

>  <SCORE.INTER.CONST>
1

>  <SCORE.INTER.POLAR>
0

>  <SCORE.INTER.ROT>
7

>  <SCORE.INTER.SOLV>
8.38325

>  <SCORE.INTER.VDW>
-21.5994

>  <SCORE.INTER.norm>
-0.585461

>  <SCORE.INTRA>
0.49051

>  <SCORE.INTRA.DIHEDRAL>
0.91809

>  <SCORE.INTRA.DIHEDRAL.0>
4.89803

>  <SCORE.INTRA.POLAR>
0

>  <SCORE.INTRA.POLAR.0>
0

>  <SCORE.INTRA.REPUL>
0

>  <SCORE.INTRA.REPUL.0>
0

>  <SCORE.INTRA.SOLV>
1.14987

>  <SCORE.INTRA.SOLV.lig_0>
-48.5832

>  <SCORE.INTRA.VDW>
-0.543471

>  <SCORE.INTRA.VDW.0>
-2.39056

>  <SCORE.INTRA.norm>
0.018167

>  <SCORE.RESTR>
0.101061

>  <SCORE.RESTR.CAVITY>
0.101061

>  <SCORE.RESTR.norm>
0.00374302

>  <SCORE.SYSTEM>
0

>  <SCORE.SYSTEM.CONST>
0

>  <SCORE.SYSTEM.DIHEDRAL>
0

>  <SCORE.SYSTEM.SOLV>
0

>  <SCORE.SYSTEM.norm>
0

>  <SCORE.heavy>
27

>  <SCORE.norm>
-0.563551

>  <RMSD>
5.043

$$$$
ligand
 OpenBabel11021811473D
libRbt.so/2013.1/901 2013/11/27
 27 29  0  0  0  0  0  0  0  0999 V2000
    8.4409   -6.6898  -14.9897 N   0  0  0  0  0  0  0  0  0  0  0  0
    9.1979   -6.2403  -16.1672 C   0  0  2  0  0  0  0  0  0  0  0  0
    8.6049   -4.9331  -16.7017 C   0  0  0  0  0  0  0  0  0  0  0  0
    9.4019   -3.9921  -16.9091 O   0  0  0  0  0  0  0  0  0  0  0  0
    9.1075   -7.3153  -17.2518 C   0  0  0  0  0  0  0  0  0  0  0  0
   10.0478   -7.0279  -18.4251 C   0  0  0  0  0  0  0  0  0  0  0  0
   12.1212   -5.0991  -18.1991 C   0  0  0  0  0  0  0  0  0  0  0  0
   11.8084   -6.8834  -17.8470 Se  0  0  2  0  0  0  0  0  0  0  0  0
   12.8852   -7.7107  -19.1166 C   0  0  0  0  0  0  0  0  0  0  0  0
   14.1168   -8.3953  -18.5223 C   0  0  1  0  0  0  0  0  0  0  0  0
   14.9134   -8.9115  -19.6023 O   0  0  0  0  0  0  0  0  0  0  0  0
   14.9814   -7.3039  -17.8904 C   0  0  1  0  0  0  0  0  0  0  0  0
   16.0494   -7.9038  -17.1555 O   0  0  0  0  0  0  0  0  0  0  0  0
   15.5240   -6.6541  -19.1608 C   0  0  1  0  0  0  0  0  0  0  0  0
   16.7242   -5.9484  -18.8403 O   0  0  0  0  0  0  0  0  0  0  0  0
   15.8829   -7.9094  -19.9570 C   0  0  2  0  0  0  0  0  0  0  0  0
    7.3678   -4.8992  -16.8821 O   0  0  0  0  0  0  0  0  0  0  0  0
   14.0079   -9.2417  -24.5780 N   0  0  0  0  0  0  0  0  0  0  0  0
   13.7106   -9.7377  -23.3892 C   0  0  0  0  0  0  0  0  0  0  0  0
   14.2792   -9.2872  -22.2845 N   0  0  0  0  0  0  0  0  0  0  0  0
   15.1842   -8.2982  -22.3372 C   0  0  0  0  0  0  0  0  0  0  0  0
   15.5234   -7.7534  -23.5677 C   0  0  0  0  0  0  0  0  0  0  0  0
   14.9062   -8.2570  -24.7067 C   0  0  0  0  0  0  0  0  0  0  0  0
   15.2333   -7.7874  -25.9066 N   0  0  0  0  0  0  0  0  0  0  0  0
   16.4287   -6.8054  -23.3529 N   0  0  0  0  0  0  0  0  0  0  0  0
   16.6526   -6.7534  -22.0419 C   0  0  0  0  0  0  0  0  0  0  0  0
   15.8989   -7.6584  -21.4173 N   0  0  0  0  0  0  0  0  0  0  0  0
  2  1  1  1  0  0  0
  2  5  1  0  0  0  0
  2  3  1  0  0  0  0
  3 17  1  0  0  0  0
  3  4  1  0  0  0  0
  5  6  1  0  0  0  0
  7  8  1  0  0  0  0
  8  6  1  6  0  0  0
  8  9  1  0  0  0  0
 10  9  1  6  0  0  0
 10 11  1  0  0  0  0
 10 12  1  0  0  0  0
 11 16  1  0  0  0  0
 12 13  1  1  0  0  0
 12 14  1  0  0  0  0
 14 15  1  1  0  0  0
 14 16  1  0  0  0  0
 16 27  1  6  0  0  0
 18 23  2  0  0  0  0
 18 19  1  0  0  0  0
 19 20  2  0  0  0  0
 20 21  1  0  0  0  0
 21 22  2  0  0  0  0
 21 27  1  0  0  0  0
 22 23  1  0  0  0  0
 22 25  1  0  0  0  0
 23 24  1  0  0  0  0
 25 26  2  0  0  0  0
 26 27  1  0  0  0  0
M  END
>  <CHROM.1>
-170.95448942,129.81545273,57.46317975,-113.65294275,-146.44962868,-175.95306250
-3.49164818,13.03373811,-7.14748735,-19.49825759,2.32044314,-0.11881842,1.34649670

>  <Name>
ligand

>  <RI>
0

>  <Rbt.Current_Directory>
/home/itssahil/PROJECTS/Mol_Feturizer/New_Systems/rnas/3E5F

>  <Rbt.Executable>
rbdock ($Id: //depot/dev/client3/rdock/2013.1/src/exe/rbdock.cxx#4 $)

>  <Rbt.Library>
libRbt.so (2013.1, Build901 2013/11/27)

>  <Rbt.Parameter_File>
/export/apps/rDock/src/rDock_2013.1_src/data/scripts/dock_solv.prm

>  <Rbt.Receptor>
prm/pocket_docking_6.prm

>  <SCORE>
-10.5374

>  <SCORE.INTER>
-10.8501

>  <SCORE.INTER.CONST>
1

>  <SCORE.INTER.POLAR>
0

>  <SCORE.INTER.ROT>
7

>  <SCORE.INTER.SOLV>
15.9599

>  <SCORE.INTER.VDW>
-20.82

>  <SCORE.INTER.norm>
-0.401855

>  <SCORE.INTRA>
0.312705

>  <SCORE.INTRA.DIHEDRAL>
2.16039

>  <SCORE.INTRA.DIHEDRAL.0>
4.89803

>  <SCORE.INTRA.POLAR>
0

>  <SCORE.INTRA.POLAR.0>
0

>  <SCORE.INTRA.REPUL>
0

>  <SCORE.INTRA.REPUL.0>
0

>  <SCORE.INTRA.SOLV>
0.0736694

>  <SCORE.INTRA.SOLV.lig_0>
-48.5832

>  <SCORE.INTRA.VDW>
-0.804324

>  <SCORE.INTRA.VDW.0>
-2.39056

>  <SCORE.INTRA.norm>
0.0115817

>  <SCORE.RESTR>
0

>  <SCORE.RESTR.CAVITY>
0

>  <SCORE.RESTR.norm>
0

>  <SCORE.SYSTEM>
0

>  <SCORE.SYSTEM.CONST>
0

>  <SCORE.SYSTEM.DIHEDRAL>
0

>  <SCORE.SYSTEM.SOLV>
0

>  <SCORE.SYSTEM.norm>
0

>  <SCORE.heavy>
27

>  <SCORE.norm>
-0.390274

>  <RMSD>
5.049

$$$$
ligand
 OpenBabel11021811473D
libRbt.so/2013.1/901 2013/11/27
 27 29  0  0  0  0  0  0  0  0999 V2000
   10.8346   -9.7176  -19.4151 N   0  0  0  0  0  0  0  0  0  0  0  0
   11.2798   -8.8277  -18.3326 C   0  0  2  0  0  0  0  0  0  0  0  0
   10.5163   -7.5015  -18.3994 C   0  0  0  0  0  0  0  0  0  0  0  0
    9.9085   -7.1446  -17.3666 O   0  0  0  0  0  0  0  0  0  0  0  0
   12.7759   -8.5570  -18.5004 C   0  0  0  0  0  0  0  0  0  0  0  0
   13.3871   -7.9155  -17.2521 C   0  0  0  0  0  0  0  0  0  0  0  0
   14.1929   -5.3376  -18.1329 C   0  0  0  0  0  0  0  0  0  0  0  0
   14.9283   -6.9678  -17.6776 Se  0  0  2  0  0  0  0  0  0  0  0  0
   15.5274   -7.5827  -19.3266 C   0  0  0  0  0  0  0  0  0  0  0  0
   16.8715   -6.9888  -19.7498 C   0  0  1  0  0  0  0  0  0  0  0  0
   17.2393   -7.5587  -21.0178 O   0  0  0  0  0  0  0  0  0  0  0  0
   16.6396   -5.5063  -20.0441 C   0  0  1  0  0  0  0  0  0  0  0  0
   17.8942   -4.8585  -20.2606 O   0  0  0  0  0  0  0  0  0  0  0  0
   15.8843   -5.6332  -21.3647 C   0  0  1  0  0  0  0  0  0  0  0  0
   15.9969   -4.4013  -22.0795 O   0  0  0  0  0  0  0  0  0  0  0  0
   16.7498   -6.6888  -22.0540 C   0  0  2  0  0  0  0  0  0  0  0  0
   10.5487   -6.8782  -19.4833 O   0  0  0  0  0  0  0  0  0  0  0  0
   13.3213  -10.4241  -23.0223 N   0  0  0  0  0  0  0  0  0  0  0  0
   13.7729   -9.9965  -21.8558 C   0  0  0  0  0  0  0  0  0  0  0  0
   14.6583   -9.0193  -21.7674 N   0  0  0  0  0  0  0  0  0  0  0  0
   15.1285   -8.4224  -22.8731 C   0  0  0  0  0  0  0  0  0  0  0  0
   14.6790   -8.8453  -24.1161 C   0  0  0  0  0  0  0  0  0  0  0  0
   13.7506   -9.8784  -24.1673 C   0  0  0  0  0  0  0  0  0  0  0  0
   13.3256  -10.3369  -25.3405 N   0  0  0  0  0  0  0  0  0  0  0  0
   15.2884   -8.1075  -25.0374 N   0  0  0  0  0  0  0  0  0  0  0  0
   16.0896   -7.2545  -24.4034 C   0  0  0  0  0  0  0  0  0  0  0  0
   15.9976   -7.4398  -23.0864 N   0  0  0  0  0  0  0  0  0  0  0  0
  2  1  1  6  0  0  0
  2  5  1  0  0  0  0
  2  3  1  0  0  0  0
  3 17  1  0  0  0  0
  3  4  1  0  0  0  0
  5  6  1  0  0  0  0
  7  8  1  0  0  0  0
  8  6  1  6  0  0  0
  8  9  1  0  0  0  0
 10  9  1  6  0  0  0
 10 11  1  0  0  0  0
 10 12  1  0  0  0  0
 11 16  1  0  0  0  0
 12 13  1  6  0  0  0
 12 14  1  0  0  0  0
 14 15  1  6  0  0  0
 14 16  1  0  0  0  0
 16 27  1  6  0  0  0
 18 23  2  0  0  0  0
 18 19  1  0  0  0  0
 19 20  2  0  0  0  0
 20 21  1  0  0  0  0
 21 22  2  0  0  0  0
 21 27  1  0  0  0  0
 22 23  1  0  0  0  0
 22 25  1  0  0  0  0
 23 24  1  0  0  0  0
 25 26  2  0  0  0  0
 26 27  1  0  0  0  0
M  END
>  <CHROM.1>
-166.69583056,124.86813330,-156.22996735,86.67723014,-174.37236627,178.78408736
41.58049028,14.42335755,-7.53227682,-20.41258878,2.05067365,0.50688897,1.17157045

>  <Name>
ligand

>  <RI>
0

>  <Rbt.Current_Directory>
/home/itssahil/PROJECTS/Mol_Feturizer/New_Systems/rnas/3E5F

>  <Rbt.Executable>
rbdock ($Id: //depot/dev/client3/rdock/2013.1/src/exe/rbdock.cxx#4 $)

>  <Rbt.Library>
libRbt.so (2013.1, Build901 2013/11/27)

>  <Rbt.Parameter_File>
/export/apps/rDock/src/rDock_2013.1_src/data/scripts/dock_solv.prm

>  <Rbt.Receptor>
prm/pocket_docking_4.prm

>  <SCORE>
-9.57771

>  <SCORE.INTER>
-10.9352

>  <SCORE.INTER.CONST>
1

>  <SCORE.INTER.POLAR>
0

>  <SCORE.INTER.ROT>
7

>  <SCORE.INTER.SOLV>
16.8049

>  <SCORE.INTER.VDW>
-21.1584

>  <SCORE.INTER.norm>
-0.405007

>  <SCORE.INTRA>
1.35748

>  <SCORE.INTRA.DIHEDRAL>
2.2405

>  <SCORE.INTRA.DIHEDRAL.0>
4.89803

>  <SCORE.INTRA.POLAR>
0

>  <SCORE.INTRA.POLAR.0>
0

>  <SCORE.INTRA.REPUL>
0

>  <SCORE.INTRA.REPUL.0>
0

>  <SCORE.INTRA.SOLV>
0.196146

>  <SCORE.INTRA.SOLV.lig_0>
-48.5832

>  <SCORE.INTRA.VDW>
0.13916

>  <SCORE.INTRA.VDW.0>
-2.39056

>  <SCORE.INTRA.norm>
0.0502772

>  <SCORE.RESTR>
0

>  <SCORE.RESTR.CAVITY>
0

>  <SCORE.RESTR.norm>
0

>  <SCORE.SYSTEM>
0

>  <SCORE.SYSTEM.CONST>
0

>  <SCORE.SYSTEM.DIHEDRAL>
0

>  <SCORE.SYSTEM.SOLV>
0

>  <SCORE.SYSTEM.norm>
0

>  <SCORE.heavy>
27

>  <SCORE.norm>
-0.35473

>  <RMSD>
5.054

$$$$
ligand
 OpenBabel11021811473D
libRbt.so/2013.1/901 2013/11/27
 27 29  0  0  0  0  0  0  0  0999 V2000
   15.4481   -2.5888  -20.8070 N   0  0  0  0  0  0  0  0  0  0  0  0
   16.0929   -3.8400  -20.3820 C   0  0  2  0  0  0  0  0  0  0  0  0
   17.5005   -3.9311  -20.9789 C   0  0  0  0  0  0  0  0  0  0  0  0
   18.2250   -4.8698  -20.5818 O   0  0  0  0  0  0  0  0  0  0  0  0
   15.2567   -5.0200  -20.8803 C   0  0  0  0  0  0  0  0  0  0  0  0
   13.8660   -5.0490  -20.2412 C   0  0  0  0  0  0  0  0  0  0  0  0
   11.3240   -6.2696  -19.8965 C   0  0  0  0  0  0  0  0  0  0  0  0
   12.8615   -6.4685  -20.8974 Se  0  0  2  0  0  0  0  0  0  0  0  0
   13.5715   -8.0332  -20.1875 C   0  0  0  0  0  0  0  0  0  0  0  0
   14.7157   -8.6176  -21.0168 C   0  0  1  0  0  0  0  0  0  0  0  0
   14.6120  -10.0514  -20.9847 O   0  0  0  0  0  0  0  0  0  0  0  0
   14.4552   -8.2429  -22.4763 C   0  0  1  0  0  0  0  0  0  0  0  0
   15.5870   -8.5984  -23.2719 O   0  0  0  0  0  0  0  0  0  0  0  0
   13.2943   -9.1899  -22.7695 C   0  0  1  0  0  0  0  0  0  0  0  0
   13.2064   -9.3866  -24.1819 O   0  0  0  0  0  0  0  0  0  0  0  0
   13.8353  -10.4657  -22.1228 C   0  0  2  0  0  0  0  0  0  0  0  0
   17.8253   -3.0560  -21.8113 O   0  0  0  0  0  0  0  0  0  0  0  0
    9.6932  -13.1375  -23.6556 N   0  0  0  0  0  0  0  0  0  0  0  0
   10.4830  -12.3529  -24.3684 C   0  0  0  0  0  0  0  0  0  0  0  0
   11.5171  -11.7308  -23.8297 N   0  0  0  0  0  0  0  0  0  0  0  0
   11.8015  -11.8817  -22.5273 C   0  0  0  0  0  0  0  0  0  0  0  0
   10.9938  -12.6962  -21.7461 C   0  0  0  0  0  0  0  0  0  0  0  0
    9.9137  -13.3300  -22.3489 C   0  0  0  0  0  0  0  0  0  0  0  0
    9.0948  -14.0872  -21.6254 N   0  0  0  0  0  0  0  0  0  0  0  0
   11.4788  -12.6778  -20.5096 N   0  0  0  0  0  0  0  0  0  0  0  0
   12.5477  -11.8848  -20.5091 C   0  0  0  0  0  0  0  0  0  0  0  0
   12.7506  -11.3970  -21.7331 N   0  0  0  0  0  0  0  0  0  0  0  0
  2  1  1  6  0  0  0
  2  5  1  0  0  0  0
  2  3  1  0  0  0  0
  3 17  1  0  0  0  0
  3  4  1  0  0  0  0
  5  6  1  0  0  0  0
  7  8  1  0  0  0  0
  8  6  1  1  0  0  0
  8  9  1  0  0  0  0
 10  9  1  1  0  0  0
 10 11  1  0  0  0  0
 10 12  1  0  0  0  0
 11 16  1  0  0  0  0
 12 13  1  6  0  0  0
 12 14  1  0  0  0  0
 14 15  1  6  0  0  0
 14 16  1  0  0  0  0
 16 27  1  1  0  0  0
 18 23  2  0  0  0  0
 18 19  1  0  0  0  0
 19 20  2  0  0  0  0
 20 21  1  0  0  0  0
 21 22  2  0  0  0  0
 21 27  1  0  0  0  0
 22 23  1  0  0  0  0
 22 25  1  0  0  0  0
 23 24  1  0  0  0  0
 25 26  2  0  0  0  0
 26 27  1  0  0  0  0
M  END
>  <CHROM.1>
-64.14745012,172.14984947,178.62385523,177.46475733,-87.25900244,-142.94849811
174.67449575,13.39736573,-8.39852934,-21.59012104,0.98560331,0.37233937,0.42414219

>  <Name>
ligand

>  <RI>
0

>  <Rbt.Current_Directory>
/home/itssahil/PROJECTS/Mol_Feturizer/New_Systems/rnas/3E5F

>  <Rbt.Executable>
rbdock ($Id: //depot/dev/client3/rdock/2013.1/src/exe/rbdock.cxx#4 $)

>  <Rbt.Library>
libRbt.so (2013.1, Build901 2013/11/27)

>  <Rbt.Parameter_File>
/export/apps/rDock/src/rDock_2013.1_src/data/scripts/dock_solv.prm

>  <Rbt.Receptor>
prm/blind_docking_40.prm

>  <SCORE>
-14.0917

>  <SCORE.INTER>
-15.23

>  <SCORE.INTER.CONST>
1

>  <SCORE.INTER.POLAR>
0

>  <SCORE.INTER.ROT>
7

>  <SCORE.INTER.SOLV>
16.4515

>  <SCORE.INTER.VDW>
-23.9038

>  <SCORE.INTER.norm>
-0.564075

>  <SCORE.INTRA>
1.13832

>  <SCORE.INTRA.DIHEDRAL>
2.16113

>  <SCORE.INTRA.DIHEDRAL.0>
4.89803

>  <SCORE.INTRA.POLAR>
0

>  <SCORE.INTRA.POLAR.0>
0

>  <SCORE.INTRA.REPUL>
0

>  <SCORE.INTRA.REPUL.0>
0

>  <SCORE.INTRA.SOLV>
0.869327

>  <SCORE.INTRA.SOLV.lig_0>
-48.5832

>  <SCORE.INTRA.VDW>
-0.376911

>  <SCORE.INTRA.VDW.0>
-2.39056

>  <SCORE.INTRA.norm>
0.04216

>  <SCORE.RESTR>
0

>  <SCORE.RESTR.CAVITY>
0

>  <SCORE.RESTR.norm>
0

>  <SCORE.SYSTEM>
0

>  <SCORE.SYSTEM.CONST>
0

>  <SCORE.SYSTEM.DIHEDRAL>
0

>  <SCORE.SYSTEM.SOLV>
0

>  <SCORE.SYSTEM.norm>
0

>  <SCORE.heavy>
27

>  <SCORE.norm>
-0.521915

>  <RMSD>
5.062

$$$$
ligand
 OpenBabel11021811473D
libRbt.so/2013.1/901 2013/11/27
 27 29  0  0  0  0  0  0  0  0999 V2000
   10.4144   -6.4851  -15.8101 N   0  0  0  0  0  0  0  0  0  0  0  0
   10.4662   -6.0514  -17.2140 C   0  0  2  0  0  0  0  0  0  0  0  0
    9.7491   -7.0721  -18.1028 C   0  0  0  0  0  0  0  0  0  0  0  0
   10.4674   -7.8083  -18.8139 O   0  0  0  0  0  0  0  0  0  0  0  0
   11.9304   -5.9485  -17.6449 C   0  0  0  0  0  0  0  0  0  0  0  0
   12.0903   -5.1739  -18.9555 C   0  0  0  0  0  0  0  0  0  0  0  0
   13.8234   -3.8790  -20.7967 C   0  0  0  0  0  0  0  0  0  0  0  0
   13.8440   -5.2539  -19.5660 Se  0  0  2  0  0  0  0  0  0  0  0  0
   13.9861   -6.7432  -20.6698 C   0  0  0  0  0  0  0  0  0  0  0  0
   15.4294   -7.1753  -20.9319 C   0  0  1  0  0  0  0  0  0  0  0  0
   15.4159   -8.5293  -21.4157 O   0  0  0  0  0  0  0  0  0  0  0  0
   15.9433   -6.3479  -22.1107 C   0  0  1  0  0  0  0  0  0  0  0  0
   17.3439   -6.5724  -22.2795 O   0  0  0  0  0  0  0  0  0  0  0  0
   15.1680   -7.0215  -23.2402 C   0  0  1  0  0  0  0  0  0  0  0  0
   15.8409   -6.7685  -24.4749 O   0  0  0  0  0  0  0  0  0  0  0  0
   15.3735   -8.4866  -22.8532 C   0  0  2  0  0  0  0  0  0  0  0  0
    8.4992   -7.0882  -18.0596 O   0  0  0  0  0  0  0  0  0  0  0  0
   12.4046  -12.6385  -22.0838 N   0  0  0  0  0  0  0  0  0  0  0  0
   13.3194  -12.1151  -21.2858 C   0  0  0  0  0  0  0  0  0  0  0  0
   14.0043  -11.0367  -21.6244 N   0  0  0  0  0  0  0  0  0  0  0  0
   13.7862  -10.4315  -22.8017 C   0  0  0  0  0  0  0  0  0  0  0  0
   12.8346  -10.9529  -23.6670 C   0  0  0  0  0  0  0  0  0  0  0  0
   12.1381  -12.0905  -23.2762 C   0  0  0  0  0  0  0  0  0  0  0  0
   11.2466  -12.6416  -24.0940 N   0  0  0  0  0  0  0  0  0  0  0  0
   12.8104  -10.1842  -24.7500 N   0  0  0  0  0  0  0  0  0  0  0  0
   13.7091   -9.2178  -24.5768 C   0  0  0  0  0  0  0  0  0  0  0  0
   14.3066   -9.3614  -23.3937 N   0  0  0  0  0  0  0  0  0  0  0  0
  2  1  1  1  0  0  0
  2  5  1  0  0  0  0
  2  3  1  0  0  0  0
  3 17  1  0  0  0  0
  3  4  1  0  0  0  0
  5  6  1  0  0  0  0
  7  8  1  0  0  0  0
  8  6  1  6  0  0  0
  8  9  1  0  0  0  0
 10  9  1  6  0  0  0
 10 11  1  0  0  0  0
 10 12  1  0  0  0  0
 11 16  1  0  0  0  0
 12 13  1  6  0  0  0
 12 14  1  0  0  0  0
 14 15  1  6  0  0  0
 14 16  1  0  0  0  0
 16 27  1  1  0  0  0
 18 23  2  0  0  0  0
 18 19  1  0  0  0  0
 19 20  2  0  0  0  0
 20 21  1  0  0  0  0
 21 22  2  0  0  0  0
 21 27  1  0  0  0  0
 22 23  1  0  0  0  0
 22 25  1  0  0  0  0
 23 24  1  0  0  0  0
 25 26  2  0  0  0  0
 26 27  1  0  0  0  0
M  END
>  <CHROM.1>
-165.49498308,-106.28701336,-172.65378375,-164.04682242,-163.62077076,162.01746912
-25.18634879,13.30474980,-7.74179145,-20.98821114,1.90113332,0.63479416,0.62345873

>  <Name>
ligand

>  <RI>
0

>  <Rbt.Current_Directory>
/home/itssahil/PROJECTS/Mol_Feturizer/New_Systems/rnas/3E5F

>  <Rbt.Executable>
rbdock ($Id: //depot/dev/client3/rdock/2013.1/src/exe/rbdock.cxx#4 $)

>  <Rbt.Library>
libRbt.so (2013.1, Build901 2013/11/27)

>  <Rbt.Parameter_File>
/export/apps/rDock/src/rDock_2013.1_src/data/scripts/dock_solv.prm

>  <Rbt.Receptor>
prm/pocket_docking_4.prm

>  <SCORE>
-13.5458

>  <SCORE.INTER>
-15.7742

>  <SCORE.INTER.CONST>
1

>  <SCORE.INTER.POLAR>
0

>  <SCORE.INTER.ROT>
7

>  <SCORE.INTER.SOLV>
11.9265

>  <SCORE.INTER.VDW>
-22.7583

>  <SCORE.INTER.norm>
-0.584228

>  <SCORE.INTRA>
2.22837

>  <SCORE.INTRA.DIHEDRAL>
1.53046

>  <SCORE.INTRA.DIHEDRAL.0>
4.89803

>  <SCORE.INTRA.POLAR>
0

>  <SCORE.INTRA.POLAR.0>
0

>  <SCORE.INTRA.REPUL>
0

>  <SCORE.INTRA.REPUL.0>
0

>  <SCORE.INTRA.SOLV>
0.0221711

>  <SCORE.INTRA.SOLV.lig_0>
-48.5832

>  <SCORE.INTRA.VDW>
1.45205

>  <SCORE.INTRA.VDW.0>
-2.39056

>  <SCORE.INTRA.norm>
0.0825322

>  <SCORE.RESTR>
0

>  <SCORE.RESTR.CAVITY>
0

>  <SCORE.RESTR.norm>
0

>  <SCORE.SYSTEM>
0

>  <SCORE.SYSTEM.CONST>
0

>  <SCORE.SYSTEM.DIHEDRAL>
0

>  <SCORE.SYSTEM.SOLV>
0

>  <SCORE.SYSTEM.norm>
0

>  <SCORE.heavy>
27

>  <SCORE.norm>
-0.501696

>  <RMSD>
5.085

$$$$
ligand
 OpenBabel11021811473D
libRbt.so/2013.1/901 2013/11/27
 27 29  0  0  0  0  0  0  0  0999 V2000
   10.6879   -9.8193  -19.7464 N   0  0  0  0  0  0  0  0  0  0  0  0
   11.1137   -8.9487  -18.6407 C   0  0  2  0  0  0  0  0  0  0  0  0
   10.7858   -7.4890  -18.9692 C   0  0  0  0  0  0  0  0  0  0  0  0
   10.2037   -6.8256  -18.0834 O   0  0  0  0  0  0  0  0  0  0  0  0
   12.6244   -9.0955  -18.4509 C   0  0  0  0  0  0  0  0  0  0  0  0
   13.1176   -8.3772  -17.1922 C   0  0  0  0  0  0  0  0  0  0  0  0
   15.2431   -7.7346  -15.4202 C   0  0  0  0  0  0  0  0  0  0  0  0
   14.9741   -8.2928  -17.1585 Se  0  0  2  0  0  0  0  0  0  0  0  0
   15.4844   -6.7855  -18.1197 C   0  0  0  0  0  0  0  0  0  0  0  0
   16.8900   -6.8853  -18.7139 C   0  0  1  0  0  0  0  0  0  0  0  0
   16.9390   -8.0399  -19.5694 O   0  0  0  0  0  0  0  0  0  0  0  0
   17.0686   -5.6957  -19.6579 C   0  0  1  0  0  0  0  0  0  0  0  0
   18.4267   -5.6311  -20.0960 O   0  0  0  0  0  0  0  0  0  0  0  0
   16.1726   -6.1559  -20.8051 C   0  0  1  0  0  0  0  0  0  0  0  0
   16.5613   -5.4695  -21.9964 O   0  0  0  0  0  0  0  0  0  0  0  0
   16.6156   -7.6161  -20.9058 C   0  0  2  0  0  0  0  0  0  0  0  0
   11.1150   -7.0707  -20.1009 O   0  0  0  0  0  0  0  0  0  0  0  0
   14.0977   -8.9451  -25.2115 N   0  0  0  0  0  0  0  0  0  0  0  0
   15.0677   -8.0600  -25.0590 C   0  0  0  0  0  0  0  0  0  0  0  0
   15.6204   -7.8283  -23.8811 N   0  0  0  0  0  0  0  0  0  0  0  0
   15.2104   -8.4956  -22.7918 C   0  0  0  0  0  0  0  0  0  0  0  0
   14.1929   -9.4316  -22.9121 C   0  0  0  0  0  0  0  0  0  0  0  0
   13.6347   -9.6439  -24.1672 C   0  0  0  0  0  0  0  0  0  0  0  0
   12.6320  -10.5041  -24.3154 N   0  0  0  0  0  0  0  0  0  0  0  0
   13.9731   -9.9451  -21.7070 N   0  0  0  0  0  0  0  0  0  0  0  0
   14.8158   -9.3580  -20.8604 C   0  0  0  0  0  0  0  0  0  0  0  0
   15.5721   -8.4752  -21.5130 N   0  0  0  0  0  0  0  0  0  0  0  0
  2  1  1  6  0  0  0
  2  5  1  0  0  0  0
  2  3  1  0  0  0  0
  3 17  1  0  0  0  0
  3  4  1  0  0  0  0
  5  6  1  0  0  0  0
  7  8  1  0  0  0  0
  8  6  1  1  0  0  0
  8  9  1  0  0  0  0
 10  9  1  6  0  0  0
 10 11  1  0  0  0  0
 10 12  1  0  0  0  0
 11 16  1  0  0  0  0
 12 13  1  6  0  0  0
 12 14  1  0  0  0  0
 14 15  1  6  0  0  0
 14 16  1  0  0  0  0
 16 27  1  1  0  0  0
 18 23  2  0  0  0  0
 18 19  1  0  0  0  0
 19 20  2  0  0  0  0
 20 21  1  0  0  0  0
 21 22  2  0  0  0  0
 21 27  1  0  0  0  0
 22 23  1  0  0  0  0
 22 25  1  0  0  0  0
 23 24  1  0  0  0  0
 25 26  2  0  0  0  0
 26 27  1  0  0  0  0
M  END
>  <CHROM.1>
-171.80223596,131.70424091,-169.14106054,-168.37014852,-154.29747999,58.05995478
-168.08962694,14.49317908,-8.02114952,-20.01565030,1.64139322,0.35753133
1.42539570

>  <Name>
ligand

>  <RI>
0

>  <Rbt.Current_Directory>
/home/itssahil/PROJECTS/Mol_Feturizer/New_Systems/rnas/3E5F

>  <Rbt.Executable>
rbdock ($Id: //depot/dev/client3/rdock/2013.1/src/exe/rbdock.cxx#4 $)

>  <Rbt.Library>
libRbt.so (2013.1, Build901 2013/11/27)

>  <Rbt.Parameter_File>
/export/apps/rDock/src/rDock_2013.1_src/data/scripts/dock_solv.prm

>  <Rbt.Receptor>
prm/pocket_docking_3.prm

>  <SCORE>
-14.0018

>  <SCORE.INTER>
-13.2902

>  <SCORE.INTER.CONST>
1

>  <SCORE.INTER.POLAR>
0

>  <SCORE.INTER.ROT>
7

>  <SCORE.INTER.SOLV>
13.4388

>  <SCORE.INTER.VDW>
-21.6064

>  <SCORE.INTER.norm>
-0.492229

>  <SCORE.INTRA>
-0.71163

>  <SCORE.INTRA.DIHEDRAL>
0.554402

>  <SCORE.INTRA.DIHEDRAL.0>
4.89803

>  <SCORE.INTRA.POLAR>
0

>  <SCORE.INTRA.POLAR.0>
0

>  <SCORE.INTRA.REPUL>
0

>  <SCORE.INTRA.REPUL.0>
0

>  <SCORE.INTRA.SOLV>
0.176138

>  <SCORE.INTRA.SOLV.lig_0>
-48.5832

>  <SCORE.INTRA.VDW>
-1.0769

>  <SCORE.INTRA.VDW.0>
-2.39056

>  <SCORE.INTRA.norm>
-0.0263567

>  <SCORE.RESTR>
0

>  <SCORE.RESTR.CAVITY>
0

>  <SCORE.RESTR.norm>
0

>  <SCORE.SYSTEM>
0

>  <SCORE.SYSTEM.CONST>
0

>  <SCORE.SYSTEM.DIHEDRAL>
0

>  <SCORE.SYSTEM.SOLV>
0

>  <SCORE.SYSTEM.norm>
0

>  <SCORE.heavy>
27

>  <SCORE.norm>
-0.518586

>  <RMSD>
5.086

$$$$
ligand
 OpenBabel11021811473D
libRbt.so/2013.1/901 2013/11/27
 27 29  0  0  0  0  0  0  0  0999 V2000
   10.2838   -3.0145  -15.5821 N   0  0  0  0  0  0  0  0  0  0  0  0
   11.4191   -3.1233  -16.5100 C   0  0  2  0  0  0  0  0  0  0  0  0
   11.2135   -2.1808  -17.6998 C   0  0  0  0  0  0  0  0  0  0  0  0
   12.2353   -1.8343  -18.3317 O   0  0  0  0  0  0  0  0  0  0  0  0
   11.5055   -4.5638  -17.0172 C   0  0  0  0  0  0  0  0  0  0  0  0
   12.7921   -4.8186  -17.8067 C   0  0  0  0  0  0  0  0  0  0  0  0
   11.9487   -5.9227  -20.2846 C   0  0  0  0  0  0  0  0  0  0  0  0
   12.5852   -4.3361  -19.5897 Se  0  0  2  0  0  0  0  0  0  0  0  0
   14.2807   -4.2482  -20.3472 C   0  0  0  0  0  0  0  0  0  0  0  0
   15.3681   -4.8990  -19.4911 C   0  0  1  0  0  0  0  0  0  0  0  0
   15.2114   -6.3263  -19.5680 O   0  0  0  0  0  0  0  0  0  0  0  0
   16.7087   -4.6192  -20.1713 C   0  0  1  0  0  0  0  0  0  0  0  0
   17.7754   -5.0392  -19.3193 O   0  0  0  0  0  0  0  0  0  0  0  0
   16.5850   -5.5708  -21.3586 C   0  0  1  0  0  0  0  0  0  0  0  0
   17.8931   -5.8598  -21.8550 O   0  0  0  0  0  0  0  0  0  0  0  0
   16.0415   -6.8067  -20.6404 C   0  0  2  0  0  0  0  0  0  0  0  0
   10.0416   -1.8196  -17.9459 O   0  0  0  0  0  0  0  0  0  0  0  0
   15.2276   -8.2744  -25.5218 N   0  0  0  0  0  0  0  0  0  0  0  0
   16.0715   -7.3681  -25.0592 C   0  0  0  0  0  0  0  0  0  0  0  0
   16.1683   -7.1010  -23.7685 N   0  0  0  0  0  0  0  0  0  0  0  0
   15.4054   -7.7525  -22.8777 C   0  0  0  0  0  0  0  0  0  0  0  0
   14.5062   -8.7099  -23.3258 C   0  0  0  0  0  0  0  0  0  0  0  0
   14.4314   -8.9594  -24.6911 C   0  0  0  0  0  0  0  0  0  0  0  0
   13.5551   -9.8413  -25.1619 N   0  0  0  0  0  0  0  0  0  0  0  0
   13.8784   -9.2016  -22.2635 N   0  0  0  0  0  0  0  0  0  0  0  0
   14.3602   -8.5808  -21.1892 C   0  0  0  0  0  0  0  0  0  0  0  0
   15.2898   -7.6980  -21.5549 N   0  0  0  0  0  0  0  0  0  0  0  0
  2  1  1  1  0  0  0
  2  5  1  0  0  0  0
  2  3  1  0  0  0  0
  3 17  1  0  0  0  0
  3  4  1  0  0  0  0
  5  6  1  0  0  0  0
  7  8  1  0  0  0  0
  8  6  1  1  0  0  0
  8  9  1  0  0  0  0
 10  9  1  6  0  0  0
 10 11  1  0  0  0  0
 10 12  1  0  0  0  0
 11 16  1  0  0  0  0
 12 13  1  1  0  0  0
 12 14  1  0  0  0  0
 14 15  1  1  0  0  0
 14 16  1  0  0  0  0
 16 27  1  6  0  0  0
 18 23  2  0  0  0  0
 18 19  1  0  0  0  0
 19 20  2  0  0  0  0
 20 21  1  0  0  0  0
 21 22  2  0  0  0  0
 21 27  1  0  0  0  0
 22 23  1  0  0  0  0
 22 25  1  0  0  0  0
 23 24  1  0  0  0  0
 25 26  2  0  0  0  0
 26 27  1  0  0  0  0
M  END
>  <CHROM.1>
-170.64171537,157.63213813,-85.55977023,-89.01843981,14.11651326,73.25813211
141.73231259,13.92954894,-5.57459496,-20.46874254,2.04263091,0.07261511,0.83705156

>  <Name>
ligand

>  <RI>
0

>  <Rbt.Current_Directory>
/home/itssahil/PROJECTS/Mol_Feturizer/New_Systems/rnas/3E5F

>  <Rbt.Executable>
rbdock ($Id: //depot/dev/client3/rdock/2013.1/src/exe/rbdock.cxx#4 $)

>  <Rbt.Library>
libRbt.so (2013.1, Build901 2013/11/27)

>  <Rbt.Parameter_File>
/export/apps/rDock/src/rDock_2013.1_src/data/scripts/dock_solv.prm

>  <Rbt.Receptor>
prm/pocket_docking_7.prm

>  <SCORE>
-14.8536

>  <SCORE.INTER>
-16.1339

>  <SCORE.INTER.CONST>
1

>  <SCORE.INTER.POLAR>
0

>  <SCORE.INTER.ROT>
7

>  <SCORE.INTER.SOLV>
17.7572

>  <SCORE.INTER.VDW>
-24.9417

>  <SCORE.INTER.norm>
-0.597554

>  <SCORE.INTRA>
1.28039

>  <SCORE.INTRA.DIHEDRAL>
3.40261

>  <SCORE.INTRA.DIHEDRAL.0>
4.89803

>  <SCORE.INTRA.POLAR>
0

>  <SCORE.INTRA.POLAR.0>
0

>  <SCORE.INTRA.REPUL>
0

>  <SCORE.INTRA.REPUL.0>
0

>  <SCORE.INTRA.SOLV>
0.313343

>  <SCORE.INTRA.SOLV.lig_0>
-48.5832

>  <SCORE.INTRA.VDW>
-0.577585

>  <SCORE.INTRA.VDW.0>
-2.39056

>  <SCORE.INTRA.norm>
0.0474219

>  <SCORE.RESTR>
0

>  <SCORE.RESTR.CAVITY>
0

>  <SCORE.RESTR.norm>
0

>  <SCORE.SYSTEM>
0

>  <SCORE.SYSTEM.CONST>
0

>  <SCORE.SYSTEM.DIHEDRAL>
0

>  <SCORE.SYSTEM.SOLV>
0

>  <SCORE.SYSTEM.norm>
0

>  <SCORE.heavy>
27

>  <SCORE.norm>
-0.550132

>  <RMSD>
5.088

$$$$
ligand
 OpenBabel11021811473D
libRbt.so/2013.1/901 2013/11/27
 27 29  0  0  0  0  0  0  0  0999 V2000
   13.9564   -2.3010  -19.8704 N   0  0  0  0  0  0  0  0  0  0  0  0
   14.4802   -3.6727  -19.9464 C   0  0  2  0  0  0  0  0  0  0  0  0
   15.7381   -3.7039  -20.8199 C   0  0  0  0  0  0  0  0  0  0  0  0
   15.7806   -2.9055  -21.7813 O   0  0  0  0  0  0  0  0  0  0  0  0
   13.4126   -4.5748  -20.5679 C   0  0  0  0  0  0  0  0  0  0  0  0
   13.7521   -6.0592  -20.4103 C   0  0  0  0  0  0  0  0  0  0  0  0
   11.1334   -6.8059  -19.6007 C   0  0  0  0  0  0  0  0  0  0  0  0
   12.3357   -7.1281  -20.9632 Se  0  0  2  0  0  0  0  0  0  0  0  0
   12.8071   -8.8966  -20.6370 C   0  0  0  0  0  0  0  0  0  0  0  0
   14.1090   -9.3188  -21.3192 C   0  0  1  0  0  0  0  0  0  0  0  0
   13.9991  -10.7047  -21.6864 O   0  0  0  0  0  0  0  0  0  0  0  0
   14.1867   -8.5704  -22.6504 C   0  0  1  0  0  0  0  0  0  0  0  0
   15.4691   -8.7795  -23.2438 O   0  0  0  0  0  0  0  0  0  0  0  0
   13.1216   -9.3399  -23.4274 C   0  0  1  0  0  0  0  0  0  0  0  0
   13.3560   -9.1653  -24.8259 O   0  0  0  0  0  0  0  0  0  0  0  0
   13.5003  -10.7685  -23.0345 C   0  0  2  0  0  0  0  0  0  0  0  0
   16.6251   -4.5309  -20.5140 O   0  0  0  0  0  0  0  0  0  0  0  0
    9.9946  -13.6129  -20.5316 N   0  0  0  0  0  0  0  0  0  0  0  0
   10.9339  -12.8280  -20.0322 C   0  0  0  0  0  0  0  0  0  0  0  0
   11.7649  -12.1551  -20.8089 N   0  0  0  0  0  0  0  0  0  0  0  0
   11.6766  -12.2472  -22.1444 C   0  0  0  0  0  0  0  0  0  0  0  0
   10.7041  -13.0628  -22.7057 C   0  0  0  0  0  0  0  0  0  0  0  0
    9.8518  -13.7571  -21.8553 C   0  0  0  0  0  0  0  0  0  0  0  0
    8.9330  -14.5779  -22.3546 N   0  0  0  0  0  0  0  0  0  0  0  0
   10.8248  -12.9837  -24.0262 N   0  0  0  0  0  0  0  0  0  0  0  0
   11.8314  -12.1534  -24.2884 C   0  0  0  0  0  0  0  0  0  0  0  0
   12.3544  -11.7010  -23.1486 N   0  0  0  0  0  0  0  0  0  0  0  0
  2  1  1  6  0  0  0
  2  5  1  0  0  0  0
  2  3  1  0  0  0  0
  3 17  1  0  0  0  0
  3  4  1  0  0  0  0
  5  6  1  0  0  0  0
  7  8  1  0  0  0  0
  8  6  1  1  0  0  0
  8  9  1  0  0  0  0
 10  9  1  6  0  0  0
 10 11  1  0  0  0  0
 10 12  1  0  0  0  0
 11 16  1  0  0  0  0
 12 13  1  6  0  0  0
 12 14  1  0  0  0  0
 14 15  1  6  0  0  0
 14 16  1  0  0  0  0
 16 27  1  1  0  0  0
 18 23  2  0  0  0  0
 18 19  1  0  0  0  0
 19 20  2  0  0  0  0
 20 21  1  0  0  0  0
 21 22  2  0  0  0  0
 21 27  1  0  0  0  0
 22 23  1  0  0  0  0
 22 25  1  0  0  0  0
 23 24  1  0  0  0  0
 25 26  2  0  0  0  0
 26 27  1  0  0  0  0
M  END
>  <CHROM.1>
-167.71794799,-33.52582725,172.24796910,-70.88315442,-56.83114953,-146.65607118
11.67159448,12.82693062,-8.72644274,-21.63136124,1.04080475,0.71322908,0.55166896

>  <Name>
ligand

>  <RI>
0

>  <Rbt.Current_Directory>
/home/itssahil/PROJECTS/Mol_Feturizer/New_Systems/rnas/3E5F

>  <Rbt.Executable>
rbdock ($Id: //depot/dev/client3/rdock/2013.1/src/exe/rbdock.cxx#4 $)

>  <Rbt.Library>
libRbt.so (2013.1, Build901 2013/11/27)

>  <Rbt.Parameter_File>
/export/apps/rDock/src/rDock_2013.1_src/data/scripts/dock_solv.prm

>  <Rbt.Receptor>
prm/pocket_docking_6.prm

>  <SCORE>
-13.4935

>  <SCORE.INTER>
-14.2079

>  <SCORE.INTER.CONST>
1

>  <SCORE.INTER.POLAR>
0

>  <SCORE.INTER.ROT>
7

>  <SCORE.INTER.SOLV>
15.2694

>  <SCORE.INTER.VDW>
-22.8284

>  <SCORE.INTER.norm>
-0.526219

>  <SCORE.INTRA>
0.714416

>  <SCORE.INTRA.DIHEDRAL>
2.04335

>  <SCORE.INTRA.DIHEDRAL.0>
4.89803

>  <SCORE.INTRA.POLAR>
0

>  <SCORE.INTRA.POLAR.0>
0

>  <SCORE.INTRA.REPUL>
0

>  <SCORE.INTRA.REPUL.0>
0

>  <SCORE.INTRA.SOLV>
0.11438

>  <SCORE.INTRA.SOLV.lig_0>
-48.5832

>  <SCORE.INTRA.VDW>
-0.364447

>  <SCORE.INTRA.VDW.0>
-2.39056

>  <SCORE.INTRA.norm>
0.0264599

>  <SCORE.RESTR>
0

>  <SCORE.RESTR.CAVITY>
0

>  <SCORE.RESTR.norm>
0

>  <SCORE.SYSTEM>
0

>  <SCORE.SYSTEM.CONST>
0

>  <SCORE.SYSTEM.DIHEDRAL>
0

>  <SCORE.SYSTEM.SOLV>
0

>  <SCORE.SYSTEM.norm>
0

>  <SCORE.heavy>
27

>  <SCORE.norm>
-0.499759

>  <RMSD>
5.094

$$$$
ligand
 OpenBabel11021811473D
libRbt.so/2013.1/901 2013/11/27
 27 29  0  0  0  0  0  0  0  0999 V2000
    9.3112   -9.6098  -17.5964 N   0  0  0  0  0  0  0  0  0  0  0  0
   10.2562   -9.0683  -18.5841 C   0  0  2  0  0  0  0  0  0  0  0  0
   11.6141   -9.7630  -18.4435 C   0  0  0  0  0  0  0  0  0  0  0  0
   12.1473  -10.1832  -19.4935 O   0  0  0  0  0  0  0  0  0  0  0  0
   10.4285   -7.5694  -18.3320 C   0  0  0  0  0  0  0  0  0  0  0  0
   11.2569   -6.8941  -19.4279 C   0  0  0  0  0  0  0  0  0  0  0  0
   13.7009   -7.0570  -17.9889 C   0  0  0  0  0  0  0  0  0  0  0  0
   12.9431   -7.6651  -19.5578 Se  0  0  2  0  0  0  0  0  0  0  0  0
   13.9005   -6.7083  -20.8323 C   0  0  0  0  0  0  0  0  0  0  0  0
   15.3357   -7.2025  -21.0180 C   0  0  1  0  0  0  0  0  0  0  0  0
   15.2899   -8.5630  -21.4811 O   0  0  0  0  0  0  0  0  0  0  0  0
   15.9385   -6.4168  -22.1831 C   0  0  1  0  0  0  0  0  0  0  0  0
   17.3352   -6.7002  -22.2808 O   0  0  0  0  0  0  0  0  0  0  0  0
   15.1909   -7.0781  -23.3383 C   0  0  1  0  0  0  0  0  0  0  0  0
   15.9315   -6.8737  -24.5428 O   0  0  0  0  0  0  0  0  0  0  0  0
   15.3176   -8.5434  -22.9195 C   0  0  2  0  0  0  0  0  0  0  0  0
   12.0849   -9.8676  -17.2895 O   0  0  0  0  0  0  0  0  0  0  0  0
   12.2936  -12.6837  -22.3202 N   0  0  0  0  0  0  0  0  0  0  0  0
   13.2109  -12.2021  -21.4990 C   0  0  0  0  0  0  0  0  0  0  0  0
   13.9108  -11.1204  -21.7937 N   0  0  0  0  0  0  0  0  0  0  0  0
   13.7061  -10.4688  -22.9484 C   0  0  0  0  0  0  0  0  0  0  0  0
   12.7525  -10.9454  -23.8369 C   0  0  0  0  0  0  0  0  0  0  0  0
   12.0400  -12.0879  -23.4924 C   0  0  0  0  0  0  0  0  0  0  0  0
   11.1459  -12.5968  -24.3343 N   0  0  0  0  0  0  0  0  0  0  0  0
   12.7433  -10.1363  -24.8904 N   0  0  0  0  0  0  0  0  0  0  0  0
   13.6529   -9.1885  -24.6769 C   0  0  0  0  0  0  0  0  0  0  0  0
   14.2427   -9.3838  -23.4973 N   0  0  0  0  0  0  0  0  0  0  0  0
  2  1  1  1  0  0  0
  2  5  1  0  0  0  0
  2  3  1  0  0  0  0
  3 17  1  0  0  0  0
  3  4  1  0  0  0  0
  5  6  1  0  0  0  0
  7  8  1  0  0  0  0
  8  6  1  1  0  0  0
  8  9  1  0  0  0  0
 10  9  1  6  0  0  0
 10 11  1  0  0  0  0
 10 12  1  0  0  0  0
 11 16  1  0  0  0  0
 12 13  1  6  0  0  0
 12 14  1  0  0  0  0
 14 15  1  6  0  0  0
 14 16  1  0  0  0  0
 16 27  1  6  0  0  0
 18 23  2  0  0  0  0
 18 19  1  0  0  0  0
 19 20  2  0  0  0  0
 20 21  1  0  0  0  0
 21 22  2  0  0  0  0
 21 27  1  0  0  0  0
 22 23  1  0  0  0  0
 22 25  1  0  0  0  0
 23 24  1  0  0  0  0
 25 26  2  0  0  0  0
 26 27  1  0  0  0  0
M  END
>  <CHROM.1>
-172.65404711,131.92446616,-58.65830874,-70.67191022,178.11850035,61.97717002
-29.45142637,13.23132777,-8.86512967,-21.10295800,2.33833911,0.76146283,0.88375351

>  <Name>
ligand

>  <RI>
0

>  <Rbt.Current_Directory>
/home/itssahil/PROJECTS/Mol_Feturizer/New_Systems/rnas/3E5F

>  <Rbt.Executable>
rbdock ($Id: //depot/dev/client3/rdock/2013.1/src/exe/rbdock.cxx#4 $)

>  <Rbt.Library>
libRbt.so (2013.1, Build901 2013/11/27)

>  <Rbt.Parameter_File>
/export/apps/rDock/src/rDock_2013.1_src/data/scripts/dock_solv.prm

>  <Rbt.Receptor>
prm/pocket_docking_7.prm

>  <SCORE>
-16.6902

>  <SCORE.INTER>
-14.6441

>  <SCORE.INTER.CONST>
1

>  <SCORE.INTER.POLAR>
0

>  <SCORE.INTER.ROT>
7

>  <SCORE.INTER.SOLV>
13.6234

>  <SCORE.INTER.VDW>
-22.5705

>  <SCORE.INTER.norm>
-0.542373

>  <SCORE.INTRA>
-2.04617

>  <SCORE.INTRA.DIHEDRAL>
-1.65077

>  <SCORE.INTRA.DIHEDRAL.0>
4.89803

>  <SCORE.INTRA.POLAR>
0

>  <SCORE.INTRA.POLAR.0>
0

>  <SCORE.INTRA.REPUL>
0

>  <SCORE.INTRA.REPUL.0>
0

>  <SCORE.INTRA.SOLV>
0.0784056

>  <SCORE.INTRA.SOLV.lig_0>
-48.5832

>  <SCORE.INTRA.VDW>
-1.25999

>  <SCORE.INTRA.VDW.0>
-2.39056

>  <SCORE.INTRA.norm>
-0.0757843

>  <SCORE.RESTR>
0

>  <SCORE.RESTR.CAVITY>
0

>  <SCORE.RESTR.norm>
0

>  <SCORE.SYSTEM>
0

>  <SCORE.SYSTEM.CONST>
0

>  <SCORE.SYSTEM.DIHEDRAL>
0

>  <SCORE.SYSTEM.SOLV>
0

>  <SCORE.SYSTEM.norm>
0

>  <SCORE.heavy>
27

>  <SCORE.norm>
-0.618157

>  <RMSD>
5.095

$$$$
ligand
 OpenBabel11021811473D
libRbt.so/2013.1/901 2013/11/27
 27 29  0  0  0  0  0  0  0  0999 V2000
   12.9842  -11.3369  -18.9741 N   0  0  0  0  0  0  0  0  0  0  0  0
   12.1975  -11.9405  -20.0597 C   0  0  2  0  0  0  0  0  0  0  0  0
   13.1340  -12.4960  -21.1369 C   0  0  0  0  0  0  0  0  0  0  0  0
   14.3131  -12.7340  -20.7953 O   0  0  0  0  0  0  0  0  0  0  0  0
   11.3015  -10.8651  -20.6765 C   0  0  0  0  0  0  0  0  0  0  0  0
   10.4183  -10.1829  -19.6287 C   0  0  0  0  0  0  0  0  0  0  0  0
   10.3286   -7.5937  -18.4632 C   0  0  0  0  0  0  0  0  0  0  0  0
   11.4264   -9.0756  -18.5276 Se  0  0  2  0  0  0  0  0  0  0  0  0
   12.8568   -8.4395  -19.5304 C   0  0  0  0  0  0  0  0  0  0  0  0
   14.1995   -8.5233  -18.8032 C   0  0  1  0  0  0  0  0  0  0  0  0
   15.2283   -8.7653  -19.7782 O   0  0  0  0  0  0  0  0  0  0  0  0
   14.5058   -7.1292  -18.2546 C   0  0  1  0  0  0  0  0  0  0  0  0
   15.6528   -7.1896  -17.4055 O   0  0  0  0  0  0  0  0  0  0  0  0
   14.8613   -6.4239  -19.5610 C   0  0  1  0  0  0  0  0  0  0  0  0
   15.6542   -5.2737  -19.2620 O   0  0  0  0  0  0  0  0  0  0  0  0
   15.7542   -7.4922  -20.1937 C   0  0  2  0  0  0  0  0  0  0  0  0
   12.6543  -12.6617  -22.2801 O   0  0  0  0  0  0  0  0  0  0  0  0
   13.9911   -9.2608  -24.7113 N   0  0  0  0  0  0  0  0  0  0  0  0
   13.6702   -9.6471  -23.4885 C   0  0  0  0  0  0  0  0  0  0  0  0
   14.2112   -9.0920  -22.4180 N   0  0  0  0  0  0  0  0  0  0  0  0
   15.1112   -8.1048  -22.5424 C   0  0  0  0  0  0  0  0  0  0  0  0
   15.4747   -7.6734  -23.8103 C   0  0  0  0  0  0  0  0  0  0  0  0
   14.8861   -8.2850  -24.9110 C   0  0  0  0  0  0  0  0  0  0  0  0
   15.2373   -7.9257  -26.1418 N   0  0  0  0  0  0  0  0  0  0  0  0
   16.3693   -6.7024  -23.6646 N   0  0  0  0  0  0  0  0  0  0  0  0
   16.5635   -6.5278  -22.3595 C   0  0  0  0  0  0  0  0  0  0  0  0
   15.8013   -7.3771  -21.6703 N   0  0  0  0  0  0  0  0  0  0  0  0
  2  1  1  1  0  0  0
  2  5  1  0  0  0  0
  2  3  1  0  0  0  0
  3 17  1  0  0  0  0
  3  4  1  0  0  0  0
  5  6  1  0  0  0  0
  7  8  1  0  0  0  0
  8  6  1  6  0  0  0
  8  9  1  0  0  0  0
 10  9  1  6  0  0  0
 10 11  1  0  0  0  0
 10 12  1  0  0  0  0
 11 16  1  0  0  0  0
 12 13  1  1  0  0  0
 12 14  1  0  0  0  0
 14 15  1  1  0  0  0
 14 16  1  0  0  0  0
 16 27  1  6  0  0  0
 18 23  2  0  0  0  0
 18 19  1  0  0  0  0
 19 20  2  0  0  0  0
 20 21  1  0  0  0  0
 21 22  2  0  0  0  0
 21 27  1  0  0  0  0
 22 23  1  0  0  0  0
 22 25  1  0  0  0  0
 23 24  1  0  0  0  0
 25 26  2  0  0  0  0
 26 27  1  0  0  0  0
M  END
>  <CHROM.1>
-55.20827445,20.89815568,71.67737988,136.06370910,-133.78170021,147.38184283
19.67624139,13.62438544,-8.89199394,-20.62973680,2.68448589,0.83570853,0.98898069

>  <Name>
ligand

>  <RI>
0

>  <Rbt.Current_Directory>
/home/itssahil/PROJECTS/Mol_Feturizer/New_Systems/rnas/3E5F

>  <Rbt.Executable>
rbdock ($Id: //depot/dev/client3/rdock/2013.1/src/exe/rbdock.cxx#4 $)

>  <Rbt.Library>
libRbt.so (2013.1, Build901 2013/11/27)

>  <Rbt.Parameter_File>
/export/apps/rDock/src/rDock_2013.1_src/data/scripts/dock_solv.prm

>  <Rbt.Receptor>
prm/pocket_docking_2.prm

>  <SCORE>
-7.53784

>  <SCORE.INTER>
-12.2781

>  <SCORE.INTER.CONST>
1

>  <SCORE.INTER.POLAR>
0

>  <SCORE.INTER.ROT>
7

>  <SCORE.INTER.SOLV>
20.6641

>  <SCORE.INTER.VDW>
-23.3401

>  <SCORE.INTER.norm>
-0.454743

>  <SCORE.INTRA>
4.25531

>  <SCORE.INTRA.DIHEDRAL>
5.15022

>  <SCORE.INTRA.DIHEDRAL.0>
4.89803

>  <SCORE.INTRA.POLAR>
0

>  <SCORE.INTRA.POLAR.0>
0

>  <SCORE.INTRA.REPUL>
0

>  <SCORE.INTRA.REPUL.0>
0

>  <SCORE.INTRA.SOLV>
4.30328

>  <SCORE.INTRA.SOLV.lig_0>
-48.5832

>  <SCORE.INTRA.VDW>
-0.471442

>  <SCORE.INTRA.VDW.0>
-2.39056

>  <SCORE.INTRA.norm>
0.157604

>  <SCORE.RESTR>
0.484904

>  <SCORE.RESTR.CAVITY>
0.484904

>  <SCORE.RESTR.norm>
0.0179594

>  <SCORE.SYSTEM>
0

>  <SCORE.SYSTEM.CONST>
0

>  <SCORE.SYSTEM.DIHEDRAL>
0

>  <SCORE.SYSTEM.SOLV>
0

>  <SCORE.SYSTEM.norm>
0

>  <SCORE.heavy>
27

>  <SCORE.norm>
-0.279179

>  <RMSD>
5.097

$$$$
ligand
 OpenBabel11021811473D
libRbt.so/2013.1/901 2013/11/27
 27 29  0  0  0  0  0  0  0  0999 V2000
   10.1555   -5.5767  -16.6054 N   0  0  0  0  0  0  0  0  0  0  0  0
   10.0887   -6.4519  -17.7849 C   0  0  2  0  0  0  0  0  0  0  0  0
    9.5699   -7.8351  -17.3803 C   0  0  0  0  0  0  0  0  0  0  0  0
   10.1113   -8.3768  -16.3918 O   0  0  0  0  0  0  0  0  0  0  0  0
   11.4931   -6.5931  -18.3746 C   0  0  0  0  0  0  0  0  0  0  0  0
   11.9744   -5.2955  -19.0290 C   0  0  0  0  0  0  0  0  0  0  0  0
   13.8981   -3.9564  -20.6341 C   0  0  0  0  0  0  0  0  0  0  0  0
   13.7625   -5.4214  -19.5202 Se  0  0  2  0  0  0  0  0  0  0  0  0
   13.9147   -6.8264  -20.7280 C   0  0  0  0  0  0  0  0  0  0  0  0
   15.3548   -7.2919  -20.9473 C   0  0  1  0  0  0  0  0  0  0  0  0
   15.3226   -8.6202  -21.4971 O   0  0  0  0  0  0  0  0  0  0  0  0
   15.9466   -6.4262  -22.0601 C   0  0  1  0  0  0  0  0  0  0  0  0
   17.3460   -6.6875  -22.1779 O   0  0  0  0  0  0  0  0  0  0  0  0
   15.2037   -7.0197  -23.2544 C   0  0  1  0  0  0  0  0  0  0  0  0
   15.9395   -6.7300  -24.4443 O   0  0  0  0  0  0  0  0  0  0  0  0
   15.3471   -8.5075  -22.9312 C   0  0  2  0  0  0  0  0  0  0  0  0
    8.6508   -8.3251  -18.0728 O   0  0  0  0  0  0  0  0  0  0  0  0
   12.3386  -12.6868  -22.5745 N   0  0  0  0  0  0  0  0  0  0  0  0
   13.2479  -12.2458  -21.7224 C   0  0  0  0  0  0  0  0  0  0  0  0
   13.9447  -11.1469  -21.9542 N   0  0  0  0  0  0  0  0  0  0  0  0
   13.7449  -10.4356  -23.0739 C   0  0  0  0  0  0  0  0  0  0  0  0
   12.7996  -10.8683  -23.9933 C   0  0  0  0  0  0  0  0  0  0  0  0
   12.0901  -12.0306  -23.7151 C   0  0  0  0  0  0  0  0  0  0  0  0
   11.2042  -12.4978  -24.5892 N   0  0  0  0  0  0  0  0  0  0  0  0
   12.7937  -10.0043  -25.0022 N   0  0  0  0  0  0  0  0  0  0  0  0
   13.6975   -9.0653  -24.7322 C   0  0  0  0  0  0  0  0  0  0  0  0
   14.2801   -9.3206  -23.5606 N   0  0  0  0  0  0  0  0  0  0  0  0
  2  1  1  1  0  0  0
  2  5  1  0  0  0  0
  2  3  1  0  0  0  0
  3 17  1  0  0  0  0
  3  4  1  0  0  0  0
  5  6  1  0  0  0  0
  7  8  1  0  0  0  0
  8  6  1  6  0  0  0
  8  9  1  0  0  0  0
 10  9  1  6  0  0  0
 10 11  1  0  0  0  0
 10 12  1  0  0  0  0
 11 16  1  0  0  0  0
 12 13  1  6  0  0  0
 12 14  1  0  0  0  0
 14 15  1  6  0  0  0
 14 16  1  0  0  0  0
 16 27  1  6  0  0  0
 18 23  2  0  0  0  0
 18 19  1  0  0  0  0
 19 20  2  0  0  0  0
 20 21  1  0  0  0  0
 21 22  2  0  0  0  0
 21 27  1  0  0  0  0
 22 23  1  0  0  0  0
 22 25  1  0  0  0  0
 23 24  1  0  0  0  0
 25 26  2  0  0  0  0
 26 27  1  0  0  0  0
M  END
>  <CHROM.1>
-70.21678726,-48.92230424,171.98914783,165.76183282,-164.94982887,160.26398352
-28.55844883,13.22659357,-7.87322129,-21.03664053,1.96884649,0.65926502,0.67186948

>  <Name>
ligand

>  <RI>
0

>  <Rbt.Current_Directory>
/home/itssahil/PROJECTS/Mol_Feturizer/New_Systems/rnas/3E5F

>  <Rbt.Executable>
rbdock ($Id: //depot/dev/client3/rdock/2013.1/src/exe/rbdock.cxx#4 $)

>  <Rbt.Library>
libRbt.so (2013.1, Build901 2013/11/27)

>  <Rbt.Parameter_File>
/export/apps/rDock/src/rDock_2013.1_src/data/scripts/dock_solv.prm

>  <Rbt.Receptor>
prm/pocket_docking_5.prm

>  <SCORE>
-14.2817

>  <SCORE.INTER>
-15.2078

>  <SCORE.INTER.CONST>
1

>  <SCORE.INTER.POLAR>
0

>  <SCORE.INTER.ROT>
7

>  <SCORE.INTER.SOLV>
14.2597

>  <SCORE.INTER.VDW>
-23.1585

>  <SCORE.INTER.norm>
-0.563252

>  <SCORE.INTRA>
0.926147

>  <SCORE.INTRA.DIHEDRAL>
0.620078

>  <SCORE.INTRA.DIHEDRAL.0>
4.89803

>  <SCORE.INTRA.POLAR>
0

>  <SCORE.INTRA.POLAR.0>
0

>  <SCORE.INTRA.REPUL>
0

>  <SCORE.INTRA.REPUL.0>
0

>  <SCORE.INTRA.SOLV>
0.648476

>  <SCORE.INTRA.SOLV.lig_0>
-48.5832

>  <SCORE.INTRA.VDW>
0.29187

>  <SCORE.INTRA.VDW.0>
-2.39056

>  <SCORE.INTRA.norm>
0.0343017

>  <SCORE.RESTR>
0

>  <SCORE.RESTR.CAVITY>
0

>  <SCORE.RESTR.norm>
0

>  <SCORE.SYSTEM>
0

>  <SCORE.SYSTEM.CONST>
0

>  <SCORE.SYSTEM.DIHEDRAL>
0

>  <SCORE.SYSTEM.SOLV>
0

>  <SCORE.SYSTEM.norm>
0

>  <SCORE.heavy>
27

>  <SCORE.norm>
-0.52895

>  <RMSD>
5.102

$$$$
ligand
 OpenBabel11021811473D
libRbt.so/2013.1/901 2013/11/27
 27 29  0  0  0  0  0  0  0  0999 V2000
   13.8682   -0.6609  -18.8781 N   0  0  0  0  0  0  0  0  0  0  0  0
   12.7227   -1.4942  -18.4840 C   0  0  2  0  0  0  0  0  0  0  0  0
   12.3382   -1.2000  -17.0308 C   0  0  0  0  0  0  0  0  0  0  0  0
   11.2761   -1.7093  -16.6112 O   0  0  0  0  0  0  0  0  0  0  0  0
   13.1163   -2.9667  -18.6130 C   0  0  0  0  0  0  0  0  0  0  0  0
   13.4909   -3.3373  -20.0503 C   0  0  0  0  0  0  0  0  0  0  0  0
   12.2760   -5.8821  -19.7058 C   0  0  0  0  0  0  0  0  0  0  0  0
   13.8983   -5.1456  -20.1866 Se  0  0  2  0  0  0  0  0  0  0  0  0
   14.9603   -5.5927  -18.7276 C   0  0  0  0  0  0  0  0  0  0  0  0
   16.4553   -5.6302  -19.0472 C   0  0  1  0  0  0  0  0  0  0  0  0
   16.7353   -6.8464  -19.7613 O   0  0  0  0  0  0  0  0  0  0  0  0
   16.7310   -4.5157  -20.0573 C   0  0  1  0  0  0  0  0  0  0  0  0
   18.1400   -4.3803  -20.2490 O   0  0  0  0  0  0  0  0  0  0  0  0
   16.0949   -5.1432  -21.2951 C   0  0  1  0  0  0  0  0  0  0  0  0
   16.6542   -4.5329  -22.4595 O   0  0  0  0  0  0  0  0  0  0  0  0
   16.6400   -6.5664  -21.1693 C   0  0  2  0  0  0  0  0  0  0  0  0
   13.1084   -0.4653  -16.3741 O   0  0  0  0  0  0  0  0  0  0  0  0
   14.6893   -8.1613  -25.6744 N   0  0  0  0  0  0  0  0  0  0  0  0
   15.5048   -7.1483  -25.4371 C   0  0  0  0  0  0  0  0  0  0  0  0
   15.9235   -6.8621  -24.2167 N   0  0  0  0  0  0  0  0  0  0  0  0
   15.5309   -7.6029  -23.1693 C   0  0  0  0  0  0  0  0  0  0  0  0
   14.6735   -8.6739  -23.3788 C   0  0  0  0  0  0  0  0  0  0  0  0
   14.2525   -8.9401  -24.6764 C   0  0  0  0  0  0  0  0  0  0  0  0
   13.4009   -9.9334  -24.9118 N   0  0  0  0  0  0  0  0  0  0  0  0
   14.4368   -9.2373  -22.1994 N   0  0  0  0  0  0  0  0  0  0  0  0
   15.1157   -8.5511  -21.2830 C   0  0  0  0  0  0  0  0  0  0  0  0
   15.7840   -7.5554  -21.8655 N   0  0  0  0  0  0  0  0  0  0  0  0
  2  1  1  1  0  0  0
  2  5  1  0  0  0  0
  2  3  1  0  0  0  0
  3 17  1  0  0  0  0
  3  4  1  0  0  0  0
  5  6  1  0  0  0  0
  7  8  1  0  0  0  0
  8  6  1  1  0  0  0
  8  9  1  0  0  0  0
 10  9  1  6  0  0  0
 10 11  1  0  0  0  0
 10 12  1  0  0  0  0
 11 16  1  0  0  0  0
 12 13  1  6  0  0  0
 12 14  1  0  0  0  0
 14 15  1  6  0  0  0
 14 16  1  0  0  0  0
 16 27  1  6  0  0  0
 18 23  2  0  0  0  0
 18 19  1  0  0  0  0
 19 20  2  0  0  0  0
 20 21  1  0  0  0  0
 21 22  2  0  0  0  0
 21 27  1  0  0  0  0
 22 23  1  0  0  0  0
 22 25  1  0  0  0  0
 23 24  1  0  0  0  0
 25 26  2  0  0  0  0
 26 27  1  0  0  0  0
M  END
>  <CHROM.1>
-60.94820573,171.15646484,-177.74948786,62.36855716,-98.73939954,-76.62980285
-177.62764602,14.60747274,-5.37974468,-20.75492811,-1.80194886,-0.04500541
-2.39036341

>  <Name>
ligand

>  <RI>
0

>  <Rbt.Current_Directory>
/home/itssahil/PROJECTS/Mol_Feturizer/New_Systems/rnas/3E5F

>  <Rbt.Executable>
rbdock ($Id: //depot/dev/client3/rdock/2013.1/src/exe/rbdock.cxx#4 $)

>  <Rbt.Library>
libRbt.so (2013.1, Build901 2013/11/27)

>  <Rbt.Parameter_File>
/export/apps/rDock/src/rDock_2013.1_src/data/scripts/dock_solv.prm

>  <Rbt.Receptor>
prm/blind_docking_40.prm

>  <SCORE>
-15.8616

>  <SCORE.INTER>
-17.1403

>  <SCORE.INTER.CONST>
1

>  <SCORE.INTER.POLAR>
0

>  <SCORE.INTER.ROT>
7

>  <SCORE.INTER.SOLV>
21.4233

>  <SCORE.INTER.VDW>
-26.8346

>  <SCORE.INTER.norm>
-0.634826

>  <SCORE.INTRA>
1.27874

>  <SCORE.INTRA.DIHEDRAL>
0.242292

>  <SCORE.INTRA.DIHEDRAL.0>
4.89803

>  <SCORE.INTRA.POLAR>
0

>  <SCORE.INTRA.POLAR.0>
0

>  <SCORE.INTRA.REPUL>
0

>  <SCORE.INTRA.REPUL.0>
0

>  <SCORE.INTRA.SOLV>
1.01793

>  <SCORE.INTRA.SOLV.lig_0>
-48.5832

>  <SCORE.INTRA.VDW>
0.648626

>  <SCORE.INTRA.VDW.0>
-2.39056

>  <SCORE.INTRA.norm>
0.0473606

>  <SCORE.RESTR>
0

>  <SCORE.RESTR.CAVITY>
0

>  <SCORE.RESTR.norm>
0

>  <SCORE.SYSTEM>
0

>  <SCORE.SYSTEM.CONST>
0

>  <SCORE.SYSTEM.DIHEDRAL>
0

>  <SCORE.SYSTEM.SOLV>
0

>  <SCORE.SYSTEM.norm>
0

>  <SCORE.heavy>
27

>  <SCORE.norm>
-0.587465

>  <RMSD>
5.103

$$$$
ligand
 OpenBabel11021811473D
libRbt.so/2013.1/901 2013/11/27
 27 29  0  0  0  0  0  0  0  0999 V2000
   12.7765  -12.2020  -20.7355 N   0  0  0  0  0  0  0  0  0  0  0  0
   12.0299  -11.4108  -19.7464 C   0  0  2  0  0  0  0  0  0  0  0  0
   10.9223  -10.6145  -20.4430 C   0  0  0  0  0  0  0  0  0  0  0  0
   11.1827  -10.1523  -21.5753 O   0  0  0  0  0  0  0  0  0  0  0  0
   12.9939  -10.4403  -19.0617 C   0  0  0  0  0  0  0  0  0  0  0  0
   12.3187   -9.6642  -17.9280 C   0  0  0  0  0  0  0  0  0  0  0  0
   12.4255   -7.5814  -15.9991 C   0  0  0  0  0  0  0  0  0  0  0  0
   13.5600   -8.6569  -16.9798 Se  0  0  2  0  0  0  0  0  0  0  0  0
   14.3091   -7.4328  -18.1616 C   0  0  0  0  0  0  0  0  0  0  0  0
   15.8221   -7.5850  -18.3230 C   0  0  1  0  0  0  0  0  0  0  0  0
   16.0722   -8.5458  -19.3631 O   0  0  0  0  0  0  0  0  0  0  0  0
   16.3537   -6.2638  -18.8800 C   0  0  1  0  0  0  0  0  0  0  0  0
   17.7820   -6.2809  -18.8734 O   0  0  0  0  0  0  0  0  0  0  0  0
   15.8382   -6.3761  -20.3126 C   0  0  1  0  0  0  0  0  0  0  0  0
   16.6182   -5.5216  -21.1507 O   0  0  0  0  0  0  0  0  0  0  0  0
   16.2081   -7.8310  -20.6043 C   0  0  2  0  0  0  0  0  0  0  0  0
    9.8434  -10.4769  -19.8254 O   0  0  0  0  0  0  0  0  0  0  0  0
   15.0369   -7.9050  -25.6310 N   0  0  0  0  0  0  0  0  0  0  0  0
   15.9498   -7.1834  -25.0038 C   0  0  0  0  0  0  0  0  0  0  0  0
   16.1355   -7.2765  -23.6986 N   0  0  0  0  0  0  0  0  0  0  0  0
   15.3957   -8.1196  -22.9626 C   0  0  0  0  0  0  0  0  0  0  0  0
   14.4259   -8.8926  -23.5855 C   0  0  0  0  0  0  0  0  0  0  0  0
   14.2586   -8.7631  -24.9592 C   0  0  0  0  0  0  0  0  0  0  0  0
   13.3141   -9.4580  -25.5855 N   0  0  0  0  0  0  0  0  0  0  0  0
   13.8387   -9.6322  -22.6514 N   0  0  0  0  0  0  0  0  0  0  0  0
   14.4128   -9.3388  -21.4870 C   0  0  0  0  0  0  0  0  0  0  0  0
   15.3612   -8.4195  -21.6683 N   0  0  0  0  0  0  0  0  0  0  0  0
  2  1  1  6  0  0  0
  2  5  1  0  0  0  0
  2  3  1  0  0  0  0
  3 17  1  0  0  0  0
  3  4  1  0  0  0  0
  5  6  1  0  0  0  0
  7  8  1  0  0  0  0
  8  6  1  6  0  0  0
  8  9  1  0  0  0  0
 10  9  1  6  0  0  0
 10 11  1  0  0  0  0
 10 12  1  0  0  0  0
 11 16  1  0  0  0  0
 12 13  1  6  0  0  0
 12 14  1  0  0  0  0
 14 15  1  6  0  0  0
 14 16  1  0  0  0  0
 16 27  1  6  0  0  0
 18 23  2  0  0  0  0
 18 19  1  0  0  0  0
 19 20  2  0  0  0  0
 20 21  1  0  0  0  0
 21 22  2  0  0  0  0
 21 27  1  0  0  0  0
 22 23  1  0  0  0  0
 22 25  1  0  0  0  0
 23 24  1  0  0  0  0
 25 26  2  0  0  0  0
 26 27  1  0  0  0  0
M  END
>  <CHROM.1>
-174.92721381,-36.83698669,172.83011624,167.41982181,-119.65346821,87.61820778
-169.85851383,14.14748514,-8.59331674,-20.27306484,1.92001574,0.67421545
1.44625296

>  <Name>
ligand

>  <RI>
0

>  <Rbt.Current_Directory>
/home/itssahil/PROJECTS/Mol_Feturizer/New_Systems/rnas/3E5F

>  <Rbt.Executable>
rbdock ($Id: //depot/dev/client3/rdock/2013.1/src/exe/rbdock.cxx#4 $)

>  <Rbt.Library>
libRbt.so (2013.1, Build901 2013/11/27)

>  <Rbt.Parameter_File>
/export/apps/rDock/src/rDock_2013.1_src/data/scripts/dock_solv.prm

>  <Rbt.Receptor>
prm/pocket_docking_3.prm

>  <SCORE>
-12.0882

>  <SCORE.INTER>
-12.9063

>  <SCORE.INTER.CONST>
1

>  <SCORE.INTER.POLAR>
0

>  <SCORE.INTER.ROT>
7

>  <SCORE.INTER.SOLV>
21.7442

>  <SCORE.INTER.VDW>
-24.1189

>  <SCORE.INTER.norm>
-0.478011

>  <SCORE.INTRA>
0.818069

>  <SCORE.INTRA.DIHEDRAL>
2.71729

>  <SCORE.INTRA.DIHEDRAL.0>
4.89803

>  <SCORE.INTRA.POLAR>
0

>  <SCORE.INTRA.POLAR.0>
0

>  <SCORE.INTRA.REPUL>
0

>  <SCORE.INTRA.REPUL.0>
0

>  <SCORE.INTRA.SOLV>
0.908574

>  <SCORE.INTRA.SOLV.lig_0>
-48.5832

>  <SCORE.INTRA.VDW>
-0.994864

>  <SCORE.INTRA.VDW.0>
-2.39056

>  <SCORE.INTRA.norm>
0.0302988

>  <SCORE.RESTR>
0

>  <SCORE.RESTR.CAVITY>
0

>  <SCORE.RESTR.norm>
0

>  <SCORE.SYSTEM>
0

>  <SCORE.SYSTEM.CONST>
0

>  <SCORE.SYSTEM.DIHEDRAL>
0

>  <SCORE.SYSTEM.SOLV>
0

>  <SCORE.SYSTEM.norm>
0

>  <SCORE.heavy>
27

>  <SCORE.norm>
-0.447712

>  <RMSD>
5.106

$$$$
ligand
 OpenBabel11021811473D
libRbt.so/2013.1/901 2013/11/27
 27 29  0  0  0  0  0  0  0  0999 V2000
   17.2262   -7.5166  -20.9152 N   0  0  0  0  0  0  0  0  0  0  0  0
   17.3255   -6.1699  -21.4968 C   0  0  2  0  0  0  0  0  0  0  0  0
   17.7599   -5.1678  -20.4228 C   0  0  0  0  0  0  0  0  0  0  0  0
   17.8393   -5.5931  -19.2496 O   0  0  0  0  0  0  0  0  0  0  0  0
   15.9539   -5.7644  -22.0392 C   0  0  0  0  0  0  0  0  0  0  0  0
   15.6490   -6.4284  -23.3844 C   0  0  0  0  0  0  0  0  0  0  0  0
   14.7664   -8.7310  -24.7947 C   0  0  0  0  0  0  0  0  0  0  0  0
   15.6174   -8.2795  -23.2207 Se  0  0  2  0  0  0  0  0  0  0  0  0
   14.3226   -8.7088  -21.9577 C   0  0  0  0  0  0  0  0  0  0  0  0
   14.0772  -10.2119  -21.8192 C   0  0  1  0  0  0  0  0  0  0  0  0
   13.4827  -10.4570  -20.5330 O   0  0  0  0  0  0  0  0  0  0  0  0
   12.9902  -10.5885  -22.8265 C   0  0  1  0  0  0  0  0  0  0  0  0
   12.8536  -12.0096  -22.8754 O   0  0  0  0  0  0  0  0  0  0  0  0
   11.7818   -9.9729  -22.1257 C   0  0  1  0  0  0  0  0  0  0  0  0
   10.5972  -10.6124  -22.6041 O   0  0  0  0  0  0  0  0  0  0  0  0
   12.0531  -10.4361  -20.6937 C   0  0  2  0  0  0  0  0  0  0  0  0
   17.9938   -3.9971  -20.7956 O   0  0  0  0  0  0  0  0  0  0  0  0
   11.2487   -5.6002  -19.0777 N   0  0  0  0  0  0  0  0  0  0  0  0
   11.9414   -6.0199  -20.1225 C   0  0  0  0  0  0  0  0  0  0  0  0
   12.0565   -7.3044  -20.4116 N   0  0  0  0  0  0  0  0  0  0  0  0
   11.4632   -8.2322  -19.6453 C   0  0  0  0  0  0  0  0  0  0  0  0
   10.7287   -7.8300  -18.5386 C   0  0  0  0  0  0  0  0  0  0  0  0
   10.6346   -6.4704  -18.2659 C   0  0  0  0  0  0  0  0  0  0  0  0
    9.9722   -6.0486  -17.1932 N   0  0  0  0  0  0  0  0  0  0  0  0
   10.2510   -8.9225  -17.9533 N   0  0  0  0  0  0  0  0  0  0  0  0
   10.6664   -9.9711  -18.6599 C   0  0  0  0  0  0  0  0  0  0  0  0
   11.4042   -9.5591  -19.6911 N   0  0  0  0  0  0  0  0  0  0  0  0
  2  1  1  1  0  0  0
  2  5  1  0  0  0  0
  2  3  1  0  0  0  0
  3 17  1  0  0  0  0
  3  4  1  0  0  0  0
  5  6  1  0  0  0  0
  7  8  1  0  0  0  0
  8  6  1  6  0  0  0
  8  9  1  0  0  0  0
 10  9  1  1  0  0  0
 10 11  1  0  0  0  0
 10 12  1  0  0  0  0
 11 16  1  0  0  0  0
 12 13  1  1  0  0  0
 12 14  1  0  0  0  0
 14 15  1  6  0  0  0
 14 16  1  0  0  0  0
 16 27  1  1  0  0  0
 18 23  2  0  0  0  0
 18 19  1  0  0  0  0
 19 20  2  0  0  0  0
 20 21  1  0  0  0  0
 21 22  2  0  0  0  0
 21 27  1  0  0  0  0
 22 23  1  0  0  0  0
 22 25  1  0  0  0  0
 23 24  1  0  0  0  0
 25 26  2  0  0  0  0
 26 27  1  0  0  0  0
M  END
>  <CHROM.1>
-77.88365693,-6.21979650,61.39654693,164.19209595,173.97333437,158.44468896
70.25310584,13.81668786,-8.07758066,-21.19991903,-0.00935851,0.51383725,0.74345090

>  <Name>
ligand

>  <RI>
0

>  <Rbt.Current_Directory>
/home/itssahil/PROJECTS/Mol_Feturizer/New_Systems/rnas/3E5F

>  <Rbt.Executable>
rbdock ($Id: //depot/dev/client3/rdock/2013.1/src/exe/rbdock.cxx#4 $)

>  <Rbt.Library>
libRbt.so (2013.1, Build901 2013/11/27)

>  <Rbt.Parameter_File>
/export/apps/rDock/src/rDock_2013.1_src/data/scripts/dock_solv.prm

>  <Rbt.Receptor>
prm/pocket_docking_4.prm

>  <SCORE>
-14.2137

>  <SCORE.INTER>
-15.2415

>  <SCORE.INTER.CONST>
1

>  <SCORE.INTER.POLAR>
0

>  <SCORE.INTER.ROT>
7

>  <SCORE.INTER.SOLV>
10.5971

>  <SCORE.INTER.VDW>
-21.9601

>  <SCORE.INTER.norm>
-0.564502

>  <SCORE.INTRA>
1.02785

>  <SCORE.INTRA.DIHEDRAL>
0.749228

>  <SCORE.INTRA.DIHEDRAL.0>
4.89803

>  <SCORE.INTRA.POLAR>
0

>  <SCORE.INTRA.POLAR.0>
0

>  <SCORE.INTRA.REPUL>
0

>  <SCORE.INTRA.REPUL.0>
0

>  <SCORE.INTRA.SOLV>
2.45828

>  <SCORE.INTRA.SOLV.lig_0>
-48.5832

>  <SCORE.INTRA.VDW>
-0.575905

>  <SCORE.INTRA.VDW.0>
-2.39056

>  <SCORE.INTRA.norm>
0.0380684

>  <SCORE.RESTR>
0

>  <SCORE.RESTR.CAVITY>
0

>  <SCORE.RESTR.norm>
0

>  <SCORE.SYSTEM>
0

>  <SCORE.SYSTEM.CONST>
0

>  <SCORE.SYSTEM.DIHEDRAL>
0

>  <SCORE.SYSTEM.SOLV>
0

>  <SCORE.SYSTEM.norm>
0

>  <SCORE.heavy>
27

>  <SCORE.norm>
-0.526433

>  <RMSD>
5.112

$$$$
ligand
 OpenBabel11021811473D
libRbt.so/2013.1/901 2013/11/27
 27 29  0  0  0  0  0  0  0  0999 V2000
   17.4962   -5.6115  -13.5029 N   0  0  0  0  0  0  0  0  0  0  0  0
   17.6655   -4.3903  -14.3041 C   0  0  2  0  0  0  0  0  0  0  0  0
   17.4557   -3.1546  -13.4236 C   0  0  0  0  0  0  0  0  0  0  0  0
   18.1262   -2.1374  -13.7052 O   0  0  0  0  0  0  0  0  0  0  0  0
   16.6283   -4.3901  -15.4284 C   0  0  0  0  0  0  0  0  0  0  0  0
   17.0036   -5.3545  -16.5563 C   0  0  0  0  0  0  0  0  0  0  0  0
   14.6103   -6.6829  -17.3164 C   0  0  0  0  0  0  0  0  0  0  0  0
   15.7235   -5.3332  -17.9037 Se  0  0  2  0  0  0  0  0  0  0  0  0
   16.4853   -6.1056  -19.4134 C   0  0  0  0  0  0  0  0  0  0  0  0
   17.2629   -5.1153  -20.2813 C   0  0  1  0  0  0  0  0  0  0  0  0
   17.4507   -5.7021  -21.5805 O   0  0  0  0  0  0  0  0  0  0  0  0
   16.3498   -3.9137  -20.5272 C   0  0  1  0  0  0  0  0  0  0  0  0
   17.0880   -2.8747  -21.1721 O   0  0  0  0  0  0  0  0  0  0  0  0
   15.3713   -4.5465  -21.5134 C   0  0  1  0  0  0  0  0  0  0  0  0
   14.7374   -3.5085  -22.2629 O   0  0  0  0  0  0  0  0  0  0  0  0
   16.3603   -5.2810  -22.4194 C   0  0  2  0  0  0  0  0  0  0  0  0
   16.6375   -3.2562  -12.4831 O   0  0  0  0  0  0  0  0  0  0  0  0
   14.1366   -9.9152  -21.9453 N   0  0  0  0  0  0  0  0  0  0  0  0
   14.5995   -9.1178  -20.9980 C   0  0  0  0  0  0  0  0  0  0  0  0
   15.1465   -7.9478  -21.2780 N   0  0  0  0  0  0  0  0  0  0  0  0
   15.2465   -7.5277  -22.5482 C   0  0  0  0  0  0  0  0  0  0  0  0
   14.7732   -8.3383  -23.5704 C   0  0  0  0  0  0  0  0  0  0  0  0
   14.2082   -9.5632  -23.2354 C   0  0  0  0  0  0  0  0  0  0  0  0
   13.7789  -10.3839  -24.1890 N   0  0  0  0  0  0  0  0  0  0  0  0
   14.9878   -7.7057  -24.7186 N   0  0  0  0  0  0  0  0  0  0  0  0
   15.5724   -6.5444  -24.4341 C   0  0  0  0  0  0  0  0  0  0  0  0
   15.7329   -6.4287  -23.1157 N   0  0  0  0  0  0  0  0  0  0  0  0
  2  1  1  1  0  0  0
  2  5  1  0  0  0  0
  2  3  1  0  0  0  0
  3 17  1  0  0  0  0
  3  4  1  0  0  0  0
  5  6  1  0  0  0  0
  7  8  1  0  0  0  0
  8  6  1  1  0  0  0
  8  9  1  0  0  0  0
 10  9  1  1  0  0  0
 10 11  1  0  0  0  0
 10 12  1  0  0  0  0
 11 16  1  0  0  0  0
 12 13  1  6  0  0  0
 12 14  1  0  0  0  0
 14 15  1  6  0  0  0
 14 16  1  0  0  0  0
 16 27  1  1  0  0  0
 18 23  2  0  0  0  0
 18 19  1  0  0  0  0
 19 20  2  0  0  0  0
 20 21  1  0  0  0  0
 21 22  2  0  0  0  0
 21 27  1  0  0  0  0
 22 23  1  0  0  0  0
 22 25  1  0  0  0  0
 23 24  1  0  0  0  0
 25 26  2  0  0  0  0
 26 27  1  0  0  0  0
M  END
>  <CHROM.1>
-75.84711526,147.34971664,179.89579435,-90.95023774,-86.57771426,-162.77149093
54.63431981,15.94256209,-5.78556315,-19.40875173,0.92890529,1.20163599,1.76091109

>  <Name>
ligand

>  <RI>
0

>  <Rbt.Current_Directory>
/home/itssahil/PROJECTS/Mol_Feturizer/New_Systems/rnas/3E5F

>  <Rbt.Executable>
rbdock ($Id: //depot/dev/client3/rdock/2013.1/src/exe/rbdock.cxx#4 $)

>  <Rbt.Library>
libRbt.so (2013.1, Build901 2013/11/27)

>  <Rbt.Parameter_File>
/export/apps/rDock/src/rDock_2013.1_src/data/scripts/dock_solv.prm

>  <Rbt.Receptor>
prm/pocket_docking_8.prm

>  <SCORE>
-14.158

>  <SCORE.INTER>
-14.3813

>  <SCORE.INTER.CONST>
1

>  <SCORE.INTER.POLAR>
0

>  <SCORE.INTER.ROT>
7

>  <SCORE.INTER.SOLV>
15.0317

>  <SCORE.INTER.VDW>
-22.8647

>  <SCORE.INTER.norm>
-0.53264

>  <SCORE.INTRA>
0.223285

>  <SCORE.INTRA.DIHEDRAL>
1.28805

>  <SCORE.INTRA.DIHEDRAL.0>
4.89803

>  <SCORE.INTRA.POLAR>
0

>  <SCORE.INTRA.POLAR.0>
0

>  <SCORE.INTRA.REPUL>
0

>  <SCORE.INTRA.REPUL.0>
0

>  <SCORE.INTRA.SOLV>
0.541828

>  <SCORE.INTRA.SOLV.lig_0>
-48.5832

>  <SCORE.INTRA.VDW>
-0.691656

>  <SCORE.INTRA.VDW.0>
-2.39056

>  <SCORE.INTRA.norm>
0.00826981

>  <SCORE.RESTR>
0

>  <SCORE.RESTR.CAVITY>
0

>  <SCORE.RESTR.norm>
0

>  <SCORE.SYSTEM>
0

>  <SCORE.SYSTEM.CONST>
0

>  <SCORE.SYSTEM.DIHEDRAL>
0

>  <SCORE.SYSTEM.SOLV>
0

>  <SCORE.SYSTEM.norm>
0

>  <SCORE.heavy>
27

>  <SCORE.norm>
-0.52437

>  <RMSD>
5.137

$$$$
ligand
 OpenBabel11021811473D
libRbt.so/2013.1/901 2013/11/27
 27 29  0  0  0  0  0  0  0  0999 V2000
   14.8571   -4.3767  -21.3712 N   0  0  0  0  0  0  0  0  0  0  0  0
   16.0427   -5.0654  -20.8403 C   0  0  2  0  0  0  0  0  0  0  0  0
   17.2956   -4.2231  -21.0992 C   0  0  0  0  0  0  0  0  0  0  0  0
   18.3521   -4.5925  -20.5416 O   0  0  0  0  0  0  0  0  0  0  0  0
   16.1874   -6.4144  -21.5470 C   0  0  0  0  0  0  0  0  0  0  0  0
   14.9919   -7.3329  -21.2816 C   0  0  0  0  0  0  0  0  0  0  0  0
   14.3007   -8.7978  -23.6155 C   0  0  0  0  0  0  0  0  0  0  0  0
   15.2543   -9.0052  -22.0492 Se  0  0  2  0  0  0  0  0  0  0  0  0
   14.1947  -10.2199  -21.1230 C   0  0  0  0  0  0  0  0  0  0  0  0
   12.8978   -9.6146  -20.5842 C   0  0  1  0  0  0  0  0  0  0  0  0
   11.9353   -9.5823  -21.6520 O   0  0  0  0  0  0  0  0  0  0  0  0
   12.3210  -10.6056  -19.5725 C   0  0  1  0  0  0  0  0  0  0  0  0
   11.2113  -10.0106  -18.8979 O   0  0  0  0  0  0  0  0  0  0  0  0
   11.8282  -11.6819  -20.5365 C   0  0  1  0  0  0  0  0  0  0  0  0
   10.8226  -12.4589  -19.8837 O   0  0  0  0  0  0  0  0  0  0  0  0
   11.1648  -10.7959  -21.5918 C   0  0  2  0  0  0  0  0  0  0  0  0
   17.1684   -3.2238  -21.8404 O   0  0  0  0  0  0  0  0  0  0  0  0
    8.8615  -14.4041  -24.4763 N   0  0  0  0  0  0  0  0  0  0  0  0
    8.6169  -14.0659  -23.2220 C   0  0  0  0  0  0  0  0  0  0  0  0
    9.2969  -13.1102  -22.6130 N   0  0  0  0  0  0  0  0  0  0  0  0
   10.2659  -12.4442  -23.2591 C   0  0  0  0  0  0  0  0  0  0  0  0
   10.5527  -12.7724  -24.5766 C   0  0  0  0  0  0  0  0  0  0  0  0
    9.8179  -13.7858  -25.1807 C   0  0  0  0  0  0  0  0  0  0  0  0
   10.0895  -14.1549  -26.4287 N   0  0  0  0  0  0  0  0  0  0  0  0
   11.5387  -11.9809  -24.9837 N   0  0  0  0  0  0  0  0  0  0  0  0
   11.8618  -11.1861  -23.9661 C   0  0  0  0  0  0  0  0  0  0  0  0
   11.0916  -11.4618  -22.9135 N   0  0  0  0  0  0  0  0  0  0  0  0
  2  1  1  6  0  0  0
  2  5  1  0  0  0  0
  2  3  1  0  0  0  0
  3 17  1  0  0  0  0
  3  4  1  0  0  0  0
  5  6  1  0  0  0  0
  7  8  1  0  0  0  0
  8  6  1  1  0  0  0
  8  9  1  0  0  0  0
 10  9  1  6  0  0  0
 10 11  1  0  0  0  0
 10 12  1  0  0  0  0
 11 16  1  0  0  0  0
 12 13  1  6  0  0  0
 12 14  1  0  0  0  0
 14 15  1  1  0  0  0
 14 16  1  0  0  0  0
 16 27  1  6  0  0  0
 18 23  2  0  0  0  0
 18 19  1  0  0  0  0
 19 20  2  0  0  0  0
 20 21  1  0  0  0  0
 21 22  2  0  0  0  0
 21 27  1  0  0  0  0
 22 23  1  0  0  0  0
 22 25  1  0  0  0  0
 23 24  1  0  0  0  0
 25 26  2  0  0  0  0
 26 27  1  0  0  0  0
M  END
>  <CHROM.1>
-62.35507309,170.36638877,-175.84480106,-97.86891322,31.85705694,81.45753672
-166.36529227,13.14207755,-9.68500555,-22.13222539,-0.40584193,-0.81146873
-1.81206872

>  <Name>
ligand

>  <RI>
0

>  <Rbt.Current_Directory>
/home/itssahil/PROJECTS/Mol_Feturizer/New_Systems/rnas/3E5F

>  <Rbt.Executable>
rbdock ($Id: //depot/dev/client3/rdock/2013.1/src/exe/rbdock.cxx#4 $)

>  <Rbt.Library>
libRbt.so (2013.1, Build901 2013/11/27)

>  <Rbt.Parameter_File>
/export/apps/rDock/src/rDock_2013.1_src/data/scripts/dock_solv.prm

>  <Rbt.Receptor>
prm/blind_docking_80.prm

>  <SCORE>
-10.9189

>  <SCORE.INTER>
-12.2025

>  <SCORE.INTER.CONST>
1

>  <SCORE.INTER.POLAR>
0

>  <SCORE.INTER.ROT>
7

>  <SCORE.INTER.SOLV>
13.1556

>  <SCORE.INTER.VDW>
-20.7869

>  <SCORE.INTER.norm>
-0.451946

>  <SCORE.INTRA>
1.28156

>  <SCORE.INTRA.DIHEDRAL>
1.33557

>  <SCORE.INTRA.DIHEDRAL.0>
4.89803

>  <SCORE.INTRA.POLAR>
0

>  <SCORE.INTRA.POLAR.0>
0

>  <SCORE.INTRA.REPUL>
0

>  <SCORE.INTRA.REPUL.0>
0

>  <SCORE.INTRA.SOLV>
0.907305

>  <SCORE.INTRA.SOLV.lig_0>
-48.5832

>  <SCORE.INTRA.VDW>
0.16012

>  <SCORE.INTRA.VDW.0>
-2.39056

>  <SCORE.INTRA.norm>
0.0474651

>  <SCORE.RESTR>
0.00211247

>  <SCORE.RESTR.CAVITY>
0.00211247

>  <SCORE.RESTR.norm>
7.82397e-05

>  <SCORE.SYSTEM>
0

>  <SCORE.SYSTEM.CONST>
0

>  <SCORE.SYSTEM.DIHEDRAL>
0

>  <SCORE.SYSTEM.SOLV>
0

>  <SCORE.SYSTEM.norm>
0

>  <SCORE.heavy>
27

>  <SCORE.norm>
-0.404403

>  <RMSD>
5.152

$$$$
ligand
 OpenBabel11021811473D
libRbt.so/2013.1/901 2013/11/27
 27 29  0  0  0  0  0  0  0  0999 V2000
   12.6472  -12.2222  -20.7100 N   0  0  0  0  0  0  0  0  0  0  0  0
   11.9943  -11.3598  -19.7141 C   0  0  2  0  0  0  0  0  0  0  0  0
   10.8854  -10.5395  -20.3802 C   0  0  0  0  0  0  0  0  0  0  0  0
    9.7985  -10.4532  -19.7681 O   0  0  0  0  0  0  0  0  0  0  0  0
   13.0381  -10.4103  -19.1236 C   0  0  0  0  0  0  0  0  0  0  0  0
   12.4505   -9.5236  -18.0228 C   0  0  0  0  0  0  0  0  0  0  0  0
   12.7663   -7.5761  -15.9788 C   0  0  0  0  0  0  0  0  0  0  0  0
   13.7865   -8.5646  -17.1567 Se  0  0  2  0  0  0  0  0  0  0  0  0
   14.3840   -7.2513  -18.3291 C   0  0  0  0  0  0  0  0  0  0  0  0
   15.8938   -7.2864  -18.5696 C   0  0  1  0  0  0  0  0  0  0  0  0
   16.1739   -8.3088  -19.5411 O   0  0  0  0  0  0  0  0  0  0  0  0
   16.2728   -5.9779  -19.2640 C   0  0  1  0  0  0  0  0  0  0  0  0
   17.6951   -5.8717  -19.3432 O   0  0  0  0  0  0  0  0  0  0  0  0
   15.6936   -6.2578  -20.6484 C   0  0  1  0  0  0  0  0  0  0  0  0
   16.3469   -5.4153  -21.5996 O   0  0  0  0  0  0  0  0  0  0  0  0
   16.1777   -7.6953  -20.8425 C   0  0  2  0  0  0  0  0  0  0  0  0
   11.1446  -10.0247  -21.4903 O   0  0  0  0  0  0  0  0  0  0  0  0
   14.6119   -8.1856  -25.7366 N   0  0  0  0  0  0  0  0  0  0  0  0
   15.4685   -7.3191  -25.2240 C   0  0  0  0  0  0  0  0  0  0  0  0
   15.7733   -7.3185  -23.9380 N   0  0  0  0  0  0  0  0  0  0  0  0
   15.2176   -8.2110  -23.1046 C   0  0  0  0  0  0  0  0  0  0  0  0
   14.3122   -9.1356  -23.6058 C   0  0  0  0  0  0  0  0  0  0  0  0
   14.0149   -9.1014  -24.9631 C   0  0  0  0  0  0  0  0  0  0  0  0
   13.1236   -9.9456  -25.4732 N   0  0  0  0  0  0  0  0  0  0  0  0
   13.9098   -9.8954  -22.5932 N   0  0  0  0  0  0  0  0  0  0  0  0
   14.5343   -9.4687  -21.4980 C   0  0  0  0  0  0  0  0  0  0  0  0
   15.3319   -8.4444  -21.8012 N   0  0  0  0  0  0  0  0  0  0  0  0
  2  1  1  6  0  0  0
  2  5  1  0  0  0  0
  2  3  1  0  0  0  0
  3 17  1  0  0  0  0
  3  4  1  0  0  0  0
  5  6  1  0  0  0  0
  7  8  1  0  0  0  0
  8  6  1  6  0  0  0
  8  9  1  0  0  0  0
 10  9  1  6  0  0  0
 10 11  1  0  0  0  0
 10 12  1  0  0  0  0
 11 16  1  0  0  0  0
 12 13  1  6  0  0  0
 12 14  1  0  0  0  0
 14 15  1  6  0  0  0
 14 16  1  0  0  0  0
 16 27  1  6  0  0  0
 18 23  2  0  0  0  0
 18 19  1  0  0  0  0
 19 20  2  0  0  0  0
 20 21  1  0  0  0  0
 21 22  2  0  0  0  0
 21 27  1  0  0  0  0
 22 23  1  0  0  0  0
 22 25  1  0  0  0  0
 23 24  1  0  0  0  0
 25 26  2  0  0  0  0
 26 27  1  0  0  0  0
M  END
>  <CHROM.1>
-177.09318431,136.06852727,171.65110821,177.72923799,-125.21304177,80.76003986
-173.59468319,14.12945236,-8.56516186,-20.40274393,1.83001816,0.71443531
1.43934934

>  <Name>
ligand

>  <RI>
0

>  <Rbt.Current_Directory>
/home/itssahil/PROJECTS/Mol_Feturizer/New_Systems/rnas/3E5F

>  <Rbt.Executable>
rbdock ($Id: //depot/dev/client3/rdock/2013.1/src/exe/rbdock.cxx#4 $)

>  <Rbt.Library>
libRbt.so (2013.1, Build901 2013/11/27)

>  <Rbt.Parameter_File>
/export/apps/rDock/src/rDock_2013.1_src/data/scripts/dock_solv.prm

>  <Rbt.Receptor>
prm/pocket_docking_3.prm

>  <SCORE>
-11.9893

>  <SCORE.INTER>
-12.5002

>  <SCORE.INTER.CONST>
1

>  <SCORE.INTER.POLAR>
0

>  <SCORE.INTER.ROT>
7

>  <SCORE.INTER.SOLV>
20.5539

>  <SCORE.INTER.VDW>
-23.4514

>  <SCORE.INTER.norm>
-0.462972

>  <SCORE.INTRA>
0.510901

>  <SCORE.INTRA.DIHEDRAL>
1.97121

>  <SCORE.INTRA.DIHEDRAL.0>
4.89803

>  <SCORE.INTRA.POLAR>
0

>  <SCORE.INTRA.POLAR.0>
0

>  <SCORE.INTRA.REPUL>
0

>  <SCORE.INTRA.REPUL.0>
0

>  <SCORE.INTRA.SOLV>
0.949517

>  <SCORE.INTRA.SOLV.lig_0>
-48.5832

>  <SCORE.INTRA.VDW>
-0.949461

>  <SCORE.INTRA.VDW.0>
-2.39056

>  <SCORE.INTRA.norm>
0.0189222

>  <SCORE.RESTR>
0

>  <SCORE.RESTR.CAVITY>
0

>  <SCORE.RESTR.norm>
0

>  <SCORE.SYSTEM>
0

>  <SCORE.SYSTEM.CONST>
0

>  <SCORE.SYSTEM.DIHEDRAL>
0

>  <SCORE.SYSTEM.SOLV>
0

>  <SCORE.SYSTEM.norm>
0

>  <SCORE.heavy>
27

>  <SCORE.norm>
-0.44405

>  <RMSD>
5.152

$$$$
ligand
 OpenBabel11021811473D
libRbt.so/2013.1/901 2013/11/27
 27 29  0  0  0  0  0  0  0  0999 V2000
   15.2661   -5.8791  -19.0450 N   0  0  0  0  0  0  0  0  0  0  0  0
   15.6024   -5.5973  -20.4483 C   0  0  2  0  0  0  0  0  0  0  0  0
   14.6641   -4.5219  -21.0045 C   0  0  0  0  0  0  0  0  0  0  0  0
   13.4432   -4.6597  -20.7726 O   0  0  0  0  0  0  0  0  0  0  0  0
   15.4362   -6.8814  -21.2629 C   0  0  0  0  0  0  0  0  0  0  0  0
   15.9784   -6.7326  -22.6867 C   0  0  0  0  0  0  0  0  0  0  0  0
   15.7439   -7.6342  -25.3704 C   0  0  0  0  0  0  0  0  0  0  0  0
   15.7554   -8.3055  -23.6515 Se  0  0  2  0  0  0  0  0  0  0  0  0
   13.9874   -8.8429  -23.4469 C   0  0  0  0  0  0  0  0  0  0  0  0
   13.7712  -10.3385  -23.6817 C   0  0  1  0  0  0  0  0  0  0  0  0
   13.8944  -11.0174  -22.4201 O   0  0  0  0  0  0  0  0  0  0  0  0
   12.3076  -10.5276  -24.0821 C   0  0  1  0  0  0  0  0  0  0  0  0
   12.0948  -11.8777  -24.4971 O   0  0  0  0  0  0  0  0  0  0  0  0
   11.6491  -10.2898  -22.7254 C   0  0  1  0  0  0  0  0  0  0  0  0
   10.3548  -10.8948  -22.7298 O   0  0  0  0  0  0  0  0  0  0  0  0
   12.5817  -11.1174  -21.8399 C   0  0  2  0  0  0  0  0  0  0  0  0
   15.1859   -3.5912  -21.6572 O   0  0  0  0  0  0  0  0  0  0  0  0
   11.6553   -7.2101  -18.5964 N   0  0  0  0  0  0  0  0  0  0  0  0
   11.5235   -7.2440  -19.9113 C   0  0  0  0  0  0  0  0  0  0  0  0
   11.8011   -8.3300  -20.6115 N   0  0  0  0  0  0  0  0  0  0  0  0
   12.2271   -9.4457  -20.0002 C   0  0  0  0  0  0  0  0  0  0  0  0
   12.3795   -9.4479  -18.6208 C   0  0  0  0  0  0  0  0  0  0  0  0
   12.0810   -8.2850  -17.9205 C   0  0  0  0  0  0  0  0  0  0  0  0
   12.2513   -8.2363  -16.6030 N   0  0  0  0  0  0  0  0  0  0  0  0
   12.8085  -10.6536  -18.2647 N   0  0  0  0  0  0  0  0  0  0  0  0
   12.9229  -11.3825  -19.3723 C   0  0  0  0  0  0  0  0  0  0  0  0
   12.5707  -10.6547  -20.4323 N   0  0  0  0  0  0  0  0  0  0  0  0
  2  1  1  1  0  0  0
  2  5  1  0  0  0  0
  2  3  1  0  0  0  0
  3 17  1  0  0  0  0
  3  4  1  0  0  0  0
  5  6  1  0  0  0  0
  7  8  1  0  0  0  0
  8  6  1  1  0  0  0
  8  9  1  0  0  0  0
 10  9  1  1  0  0  0
 10 11  1  0  0  0  0
 10 12  1  0  0  0  0
 11 16  1  0  0  0  0
 12 13  1  1  0  0  0
 12 14  1  0  0  0  0
 14 15  1  6  0  0  0
 14 16  1  0  0  0  0
 16 27  1  1  0  0  0
 18 23  2  0  0  0  0
 18 19  1  0  0  0  0
 19 20  2  0  0  0  0
 20 21  1  0  0  0  0
 21 22  2  0  0  0  0
 21 27  1  0  0  0  0
 22 23  1  0  0  0  0
 22 25  1  0  0  0  0
 23 24  1  0  0  0  0
 25 26  2  0  0  0  0
 26 27  1  0  0  0  0
M  END
>  <CHROM.1>
-170.90019158,-46.55941391,-179.75699629,155.50922778,-156.88141988,91.68047430
96.51194940,13.71018149,-8.46093490,-21.60997595,0.04146599,0.89009585,0.86349405

>  <Name>
ligand

>  <RI>
0

>  <Rbt.Current_Directory>
/home/itssahil/PROJECTS/Mol_Feturizer/New_Systems/rnas/3E5F

>  <Rbt.Executable>
rbdock ($Id: //depot/dev/client3/rdock/2013.1/src/exe/rbdock.cxx#4 $)

>  <Rbt.Library>
libRbt.so (2013.1, Build901 2013/11/27)

>  <Rbt.Parameter_File>
/export/apps/rDock/src/rDock_2013.1_src/data/scripts/dock_solv.prm

>  <Rbt.Receptor>
prm/pocket_docking_5.prm

>  <SCORE>
-17.6883

>  <SCORE.INTER>
-18.3394

>  <SCORE.INTER.CONST>
1

>  <SCORE.INTER.POLAR>
0

>  <SCORE.INTER.ROT>
7

>  <SCORE.INTER.SOLV>
7.96325

>  <SCORE.INTER.VDW>
-23.1473

>  <SCORE.INTER.norm>
-0.679236

>  <SCORE.INTRA>
0.651059

>  <SCORE.INTRA.DIHEDRAL>
2.69494

>  <SCORE.INTRA.DIHEDRAL.0>
4.89803

>  <SCORE.INTRA.POLAR>
0

>  <SCORE.INTRA.POLAR.0>
0

>  <SCORE.INTRA.REPUL>
0

>  <SCORE.INTRA.REPUL.0>
0

>  <SCORE.INTRA.SOLV>
0.0553825

>  <SCORE.INTRA.SOLV.lig_0>
-48.5832

>  <SCORE.INTRA.VDW>
-0.724105

>  <SCORE.INTRA.VDW.0>
-2.39056

>  <SCORE.INTRA.norm>
0.0241133

>  <SCORE.RESTR>
0

>  <SCORE.RESTR.CAVITY>
0

>  <SCORE.RESTR.norm>
0

>  <SCORE.SYSTEM>
0

>  <SCORE.SYSTEM.CONST>
0

>  <SCORE.SYSTEM.DIHEDRAL>
0

>  <SCORE.SYSTEM.SOLV>
0

>  <SCORE.SYSTEM.norm>
0

>  <SCORE.heavy>
27

>  <SCORE.norm>
-0.655123

>  <RMSD>
5.155

$$$$
ligand
 OpenBabel11021811473D
libRbt.so/2013.1/901 2013/11/27
 27 29  0  0  0  0  0  0  0  0999 V2000
   10.8635   -8.9665  -17.3036 N   0  0  0  0  0  0  0  0  0  0  0  0
   11.1066   -7.6583  -17.9291 C   0  0  2  0  0  0  0  0  0  0  0  0
    9.8786   -6.7596  -17.7544 C   0  0  0  0  0  0  0  0  0  0  0  0
   10.0854   -5.5816  -17.3894 O   0  0  0  0  0  0  0  0  0  0  0  0
   11.3707   -7.8663  -19.4213 C   0  0  0  0  0  0  0  0  0  0  0  0
   11.7599   -6.5625  -20.1230 C   0  0  0  0  0  0  0  0  0  0  0  0
   12.7979   -4.1854  -18.9646 C   0  0  0  0  0  0  0  0  0  0  0  0
   13.3468   -5.8837  -19.4334 Se  0  0  2  0  0  0  0  0  0  0  0  0
   14.4757   -5.5306  -20.8677 C   0  0  0  0  0  0  0  0  0  0  0  0
   15.8260   -6.2422  -20.7735 C   0  0  1  0  0  0  0  0  0  0  0  0
   15.5892   -7.6602  -20.7410 O   0  0  0  0  0  0  0  0  0  0  0  0
   16.5582   -6.0019  -22.0942 C   0  0  1  0  0  0  0  0  0  0  0  0
   17.8996   -6.4822  -21.9929 O   0  0  0  0  0  0  0  0  0  0  0  0
   15.7423   -6.9223  -22.9984 C   0  0  1  0  0  0  0  0  0  0  0  0
   16.5262   -7.2528  -24.1463 O   0  0  0  0  0  0  0  0  0  0  0  0
   15.6451   -8.1505  -22.0925 C   0  0  2  0  0  0  0  0  0  0  0  0
    8.7599   -7.2715  -17.9800 O   0  0  0  0  0  0  0  0  0  0  0  0
   12.3404  -11.7560  -20.4420 N   0  0  0  0  0  0  0  0  0  0  0  0
   13.3467  -11.1956  -19.7933 C   0  0  0  0  0  0  0  0  0  0  0  0
   14.1112  -10.2753  -20.3547 N   0  0  0  0  0  0  0  0  0  0  0  0
   13.8836   -9.8749  -21.6148 C   0  0  0  0  0  0  0  0  0  0  0  0
   12.8371  -10.4417  -22.3285 C   0  0  0  0  0  0  0  0  0  0  0  0
   12.0583  -11.4091  -21.7044 C   0  0  0  0  0  0  0  0  0  0  0  0
   11.0714  -12.0027  -22.3683 N   0  0  0  0  0  0  0  0  0  0  0  0
   12.8234   -9.8848  -23.5344 N   0  0  0  0  0  0  0  0  0  0  0  0
   13.8196   -9.0034  -23.5810 C   0  0  0  0  0  0  0  0  0  0  0  0
   14.4690   -8.9915  -22.4167 N   0  0  0  0  0  0  0  0  0  0  0  0
  2  1  1  1  0  0  0
  2  5  1  0  0  0  0
  2  3  1  0  0  0  0
  3 17  1  0  0  0  0
  3  4  1  0  0  0  0
  5  6  1  0  0  0  0
  7  8  1  0  0  0  0
  8  6  1  6  0  0  0
  8  9  1  0  0  0  0
 10  9  1  6  0  0  0
 10 11  1  0  0  0  0
 10 12  1  0  0  0  0
 11 16  1  0  0  0  0
 12 13  1  1  0  0  0
 12 14  1  0  0  0  0
 14 15  1  6  0  0  0
 14 16  1  0  0  0  0
 16 27  1  6  0  0  0
 18 23  2  0  0  0  0
 18 19  1  0  0  0  0
 19 20  2  0  0  0  0
 20 21  1  0  0  0  0
 21 22  2  0  0  0  0
 21 27  1  0  0  0  0
 22 23  1  0  0  0  0
 22 25  1  0  0  0  0
 23 24  1  0  0  0  0
 25 26  2  0  0  0  0
 26 27  1  0  0  0  0
M  END
>  <CHROM.1>
-174.77995585,134.45235742,62.58752232,-125.10958268,-123.79894295,60.31084413
-39.54073773,13.31219386,-7.73501474,-20.52468455,2.66380596,0.60451228,0.49076136

>  <Name>
ligand

>  <RI>
0

>  <Rbt.Current_Directory>
/home/itssahil/PROJECTS/Mol_Feturizer/New_Systems/rnas/3E5F

>  <Rbt.Executable>
rbdock ($Id: //depot/dev/client3/rdock/2013.1/src/exe/rbdock.cxx#4 $)

>  <Rbt.Library>
libRbt.so (2013.1, Build901 2013/11/27)

>  <Rbt.Parameter_File>
/export/apps/rDock/src/rDock_2013.1_src/data/scripts/dock_solv.prm

>  <Rbt.Receptor>
prm/pocket_docking_5.prm

>  <SCORE>
-13.6065

>  <SCORE.INTER>
-13.5473

>  <SCORE.INTER.CONST>
1

>  <SCORE.INTER.POLAR>
0

>  <SCORE.INTER.ROT>
7

>  <SCORE.INTER.SOLV>
8.72326

>  <SCORE.INTER.VDW>
-20.206

>  <SCORE.INTER.norm>
-0.501753

>  <SCORE.INTRA>
-0.0592114

>  <SCORE.INTRA.DIHEDRAL>
2.59808

>  <SCORE.INTRA.DIHEDRAL.0>
4.89803

>  <SCORE.INTRA.POLAR>
0

>  <SCORE.INTRA.POLAR.0>
0

>  <SCORE.INTRA.REPUL>
0

>  <SCORE.INTRA.REPUL.0>
0

>  <SCORE.INTRA.SOLV>
0.0932335

>  <SCORE.INTRA.SOLV.lig_0>
-48.5832

>  <SCORE.INTRA.VDW>
-1.40487

>  <SCORE.INTRA.VDW.0>
-2.39056

>  <SCORE.INTRA.norm>
-0.00219301

>  <SCORE.RESTR>
0

>  <SCORE.RESTR.CAVITY>
0

>  <SCORE.RESTR.norm>
0

>  <SCORE.SYSTEM>
0

>  <SCORE.SYSTEM.CONST>
0

>  <SCORE.SYSTEM.DIHEDRAL>
0

>  <SCORE.SYSTEM.SOLV>
0

>  <SCORE.SYSTEM.norm>
0

>  <SCORE.heavy>
27

>  <SCORE.norm>
-0.503946

>  <RMSD>
5.156

$$$$
ligand
 OpenBabel11021811473D
libRbt.so/2013.1/901 2013/11/27
 27 29  0  0  0  0  0  0  0  0999 V2000
   18.3252   -5.2320  -21.6589 N   0  0  0  0  0  0  0  0  0  0  0  0
   16.9702   -4.7559  -21.3436 C   0  0  2  0  0  0  0  0  0  0  0  0
   16.8942   -3.2372  -21.5278 C   0  0  0  0  0  0  0  0  0  0  0  0
   17.9791   -2.6191  -21.5941 O   0  0  0  0  0  0  0  0  0  0  0  0
   16.6512   -5.1038  -19.8886 C   0  0  0  0  0  0  0  0  0  0  0  0
   15.2118   -4.7416  -19.5138 C   0  0  0  0  0  0  0  0  0  0  0  0
   12.4128   -5.0952  -19.8468 C   0  0  0  0  0  0  0  0  0  0  0  0
   14.0006   -5.5412  -20.6748 Se  0  0  2  0  0  0  0  0  0  0  0  0
   14.0728   -7.3760  -20.3842 C   0  0  0  0  0  0  0  0  0  0  0  0
   15.1106   -8.0924  -21.2492 C   0  0  1  0  0  0  0  0  0  0  0  0
   15.0553   -9.4982  -20.9519 O   0  0  0  0  0  0  0  0  0  0  0  0
   14.6428   -7.9848  -22.7011 C   0  0  1  0  0  0  0  0  0  0  0  0
   15.6661   -8.4701  -23.5716 O   0  0  0  0  0  0  0  0  0  0  0  0
   13.4818   -8.9752  -22.6591 C   0  0  1  0  0  0  0  0  0  0  0  0
   13.2085   -9.4205  -23.9888 O   0  0  0  0  0  0  0  0  0  0  0  0
   14.1438  -10.1126  -21.8802 C   0  0  2  0  0  0  0  0  0  0  0  0
   15.7543   -2.7260  -21.5886 O   0  0  0  0  0  0  0  0  0  0  0  0
    9.6598  -12.6477  -22.2141 N   0  0  0  0  0  0  0  0  0  0  0  0
   10.2840  -11.9431  -23.1423 C   0  0  0  0  0  0  0  0  0  0  0  0
   11.4393  -11.3468  -22.9047 N   0  0  0  0  0  0  0  0  0  0  0  0
   12.0218  -11.4427  -21.7000 C   0  0  0  0  0  0  0  0  0  0  0  0
   11.3955  -12.1726  -20.6994 C   0  0  0  0  0  0  0  0  0  0  0  0
   10.1798  -12.7817  -20.9874 C   0  0  0  0  0  0  0  0  0  0  0  0
    9.5310  -13.4568  -20.0437 N   0  0  0  0  0  0  0  0  0  0  0  0
   12.1631  -12.1134  -19.6170 N   0  0  0  0  0  0  0  0  0  0  0  0
   13.2294  -11.3769  -19.9204 C   0  0  0  0  0  0  0  0  0  0  0  0
   13.1507  -10.9656  -21.1861 N   0  0  0  0  0  0  0  0  0  0  0  0
  2  1  1  1  0  0  0
  2  5  1  0  0  0  0
  2  3  1  0  0  0  0
  3 17  1  0  0  0  0
  3  4  1  0  0  0  0
  5  6  1  0  0  0  0
  7  8  1  0  0  0  0
  8  6  1  1  0  0  0
  8  9  1  0  0  0  0
 10  9  1  1  0  0  0
 10 11  1  0  0  0  0
 10 12  1  0  0  0  0
 11 16  1  0  0  0  0
 12 13  1  6  0  0  0
 12 14  1  0  0  0  0
 14 15  1  6  0  0  0
 14 16  1  0  0  0  0
 16 27  1  1  0  0  0
 18 23  2  0  0  0  0
 18 19  1  0  0  0  0
 19 20  2  0  0  0  0
 20 21  1  0  0  0  0
 21 22  2  0  0  0  0
 21 27  1  0  0  0  0
 22 23  1  0  0  0  0
 22 25  1  0  0  0  0
 23 24  1  0  0  0  0
 25 26  2  0  0  0  0
 26 27  1  0  0  0  0
M  END
>  <CHROM.1>
-175.37282654,-15.97816710,55.13347735,173.33293423,-89.46678757,-179.02849422
165.01591551,13.89542629,-7.95020244,-21.29376096,-0.86594039,-0.60637812
-2.63819662

>  <Name>
ligand

>  <RI>
0

>  <Rbt.Current_Directory>
/home/itssahil/PROJECTS/Mol_Feturizer/New_Systems/rnas/3E5F

>  <Rbt.Executable>
rbdock ($Id: //depot/dev/client3/rdock/2013.1/src/exe/rbdock.cxx#4 $)

>  <Rbt.Library>
libRbt.so (2013.1, Build901 2013/11/27)

>  <Rbt.Parameter_File>
/export/apps/rDock/src/rDock_2013.1_src/data/scripts/dock_solv.prm

>  <Rbt.Receptor>
prm/blind_docking_80.prm

>  <SCORE>
-17.2202

>  <SCORE.INTER>
-16.5095

>  <SCORE.INTER.CONST>
1

>  <SCORE.INTER.POLAR>
0

>  <SCORE.INTER.ROT>
7

>  <SCORE.INTER.SOLV>
14.1513

>  <SCORE.INTER.VDW>
-23.9901

>  <SCORE.INTER.norm>
-0.611462

>  <SCORE.INTRA>
-0.729738

>  <SCORE.INTRA.DIHEDRAL>
-1.11094

>  <SCORE.INTRA.DIHEDRAL.0>
4.89803

>  <SCORE.INTRA.POLAR>
0

>  <SCORE.INTRA.POLAR.0>
0

>  <SCORE.INTRA.REPUL>
0

>  <SCORE.INTRA.REPUL.0>
0

>  <SCORE.INTRA.SOLV>
0.448183

>  <SCORE.INTRA.SOLV.lig_0>
-48.5832

>  <SCORE.INTRA.VDW>
-0.398361

>  <SCORE.INTRA.VDW.0>
-2.39056

>  <SCORE.INTRA.norm>
-0.0270273

>  <SCORE.RESTR>
0.0189748

>  <SCORE.RESTR.CAVITY>
0.0189748

>  <SCORE.RESTR.norm>
0.000702771

>  <SCORE.SYSTEM>
0

>  <SCORE.SYSTEM.CONST>
0

>  <SCORE.SYSTEM.DIHEDRAL>
0

>  <SCORE.SYSTEM.SOLV>
0

>  <SCORE.SYSTEM.norm>
0

>  <SCORE.heavy>
27

>  <SCORE.norm>
-0.637786

>  <RMSD>
5.162

$$$$
ligand
 OpenBabel11021811473D
libRbt.so/2013.1/901 2013/11/27
 27 29  0  0  0  0  0  0  0  0999 V2000
   11.5068   -1.7511  -18.0440 N   0  0  0  0  0  0  0  0  0  0  0  0
   12.9700   -1.8250  -18.1684 C   0  0  2  0  0  0  0  0  0  0  0  0
   13.5279   -0.4621  -18.5896 C   0  0  0  0  0  0  0  0  0  0  0  0
   14.3485    0.0781  -17.8160 O   0  0  0  0  0  0  0  0  0  0  0  0
   13.3227   -2.8649  -19.2335 C   0  0  0  0  0  0  0  0  0  0  0  0
   12.7146   -4.2348  -18.9222 C   0  0  0  0  0  0  0  0  0  0  0  0
   11.9749   -6.7445  -20.0288 C   0  0  0  0  0  0  0  0  0  0  0  0
   13.3639   -5.5309  -20.0855 Se  0  0  2  0  0  0  0  0  0  0  0  0
   14.7087   -6.4582  -19.1977 C   0  0  0  0  0  0  0  0  0  0  0  0
   16.1143   -5.9389  -19.5028 C   0  0  1  0  0  0  0  0  0  0  0  0
   16.6518   -6.7025  -20.5963 O   0  0  0  0  0  0  0  0  0  0  0  0
   15.9638   -4.5217  -20.0570 C   0  0  1  0  0  0  0  0  0  0  0  0
   17.2516   -3.9165  -20.1820 O   0  0  0  0  0  0  0  0  0  0  0  0
   15.4090   -4.8562  -21.4393 C   0  0  1  0  0  0  0  0  0  0  0  0
   15.6553   -3.7531  -22.3133 O   0  0  0  0  0  0  0  0  0  0  0  0
   16.3416   -6.0078  -21.8174 C   0  0  2  0  0  0  0  0  0  0  0  0
   13.1153    0.0145  -19.6698 O   0  0  0  0  0  0  0  0  0  0  0  0
   13.6898  -10.3580  -22.6468 N   0  0  0  0  0  0  0  0  0  0  0  0
   14.0693   -9.8257  -21.4978 C   0  0  0  0  0  0  0  0  0  0  0  0
   14.7489   -8.6934  -21.4455 N   0  0  0  0  0  0  0  0  0  0  0  0
   15.0751   -8.0406  -22.5713 C   0  0  0  0  0  0  0  0  0  0  0  0
   14.6955   -8.5696  -23.7969 C   0  0  0  0  0  0  0  0  0  0  0  0
   13.9852   -9.7642  -23.8101 C   0  0  0  0  0  0  0  0  0  0  0  0
   13.6377  -10.3219  -24.9658 N   0  0  0  0  0  0  0  0  0  0  0  0
   15.1339   -7.7476  -24.7437 N   0  0  0  0  0  0  0  0  0  0  0  0
   15.7644   -6.7417  -24.1420 C   0  0  0  0  0  0  0  0  0  0  0  0
   15.7325   -6.9127  -22.8203 N   0  0  0  0  0  0  0  0  0  0  0  0
  2  1  1  6  0  0  0
  2  5  1  0  0  0  0
  2  3  1  0  0  0  0
  3 17  1  0  0  0  0
  3  4  1  0  0  0  0
  5  6  1  0  0  0  0
  7  8  1  0  0  0  0
  8  6  1  1  0  0  0
  8  9  1  0  0  0  0
 10  9  1  6  0  0  0
 10 11  1  0  0  0  0
 10 12  1  0  0  0  0
 11 16  1  0  0  0  0
 12 13  1  6  0  0  0
 12 14  1  0  0  0  0
 14 15  1  6  0  0  0
 14 16  1  0  0  0  0
 16 27  1  6  0  0  0
 18 23  2  0  0  0  0
 18 19  1  0  0  0  0
 19 20  2  0  0  0  0
 20 21  1  0  0  0  0
 21 22  2  0  0  0  0
 21 27  1  0  0  0  0
 22 23  1  0  0  0  0
 22 25  1  0  0  0  0
 23 24  1  0  0  0  0
 25 26  2  0  0  0  0
 26 27  1  0  0  0  0
M  END
>  <CHROM.1>
-56.16698630,120.43145251,-171.49763876,-154.65381758,-95.80998897,-93.03357647
24.31450651,14.33468637,-5.53601866,-20.84750888,1.71955533,0.49435704,0.48223166

>  <Name>
ligand

>  <RI>
0

>  <Rbt.Current_Directory>
/home/itssahil/PROJECTS/Mol_Feturizer/New_Systems/rnas/3E5F

>  <Rbt.Executable>
rbdock ($Id: //depot/dev/client3/rdock/2013.1/src/exe/rbdock.cxx#4 $)

>  <Rbt.Library>
libRbt.so (2013.1, Build901 2013/11/27)

>  <Rbt.Parameter_File>
/export/apps/rDock/src/rDock_2013.1_src/data/scripts/dock_solv.prm

>  <Rbt.Receptor>
prm/blind_docking_100.prm

>  <SCORE>
-14.7699

>  <SCORE.INTER>
-15.9246

>  <SCORE.INTER.CONST>
1

>  <SCORE.INTER.POLAR>
0

>  <SCORE.INTER.ROT>
7

>  <SCORE.INTER.SOLV>
18.4978

>  <SCORE.INTER.VDW>
-25.049

>  <SCORE.INTER.norm>
-0.589798

>  <SCORE.INTRA>
1.15467

>  <SCORE.INTRA.DIHEDRAL>
3.52548

>  <SCORE.INTRA.DIHEDRAL.0>
4.89803

>  <SCORE.INTRA.POLAR>
0

>  <SCORE.INTRA.POLAR.0>
0

>  <SCORE.INTRA.REPUL>
0

>  <SCORE.INTRA.REPUL.0>
0

>  <SCORE.INTRA.SOLV>
1.07524

>  <SCORE.INTRA.SOLV.lig_0>
-48.5832

>  <SCORE.INTRA.VDW>
-1.14569

>  <SCORE.INTRA.VDW.0>
-2.39056

>  <SCORE.INTRA.norm>
0.0427656

>  <SCORE.RESTR>
0

>  <SCORE.RESTR.CAVITY>
0

>  <SCORE.RESTR.norm>
0

>  <SCORE.SYSTEM>
0

>  <SCORE.SYSTEM.CONST>
0

>  <SCORE.SYSTEM.DIHEDRAL>
0

>  <SCORE.SYSTEM.SOLV>
0

>  <SCORE.SYSTEM.norm>
0

>  <SCORE.heavy>
27

>  <SCORE.norm>
-0.547033

>  <RMSD>
5.163

$$$$
ligand
 OpenBabel11021811473D
libRbt.so/2013.1/901 2013/11/27
 27 29  0  0  0  0  0  0  0  0999 V2000
   16.6963   -6.3994  -20.1432 N   0  0  0  0  0  0  0  0  0  0  0  0
   15.5105   -7.2686  -20.1378 C   0  0  2  0  0  0  0  0  0  0  0  0
   15.4602   -8.0755  -18.8368 C   0  0  0  0  0  0  0  0  0  0  0  0
   14.3394   -8.4924  -18.4712 O   0  0  0  0  0  0  0  0  0  0  0  0
   15.5982   -8.2303  -21.3242 C   0  0  0  0  0  0  0  0  0  0  0  0
   15.5060   -7.4978  -22.6652 C   0  0  0  0  0  0  0  0  0  0  0  0
   15.6263   -7.5185  -25.5034 C   0  0  0  0  0  0  0  0  0  0  0  0
   15.5715   -8.6966  -24.0841 Se  0  0  2  0  0  0  0  0  0  0  0  0
   13.8756   -9.4341  -24.2739 C   0  0  0  0  0  0  0  0  0  0  0  0
   13.7451  -10.8327  -23.6693 C   0  0  1  0  0  0  0  0  0  0  0  0
   13.6943  -10.7043  -22.2380 O   0  0  0  0  0  0  0  0  0  0  0  0
   12.3670  -11.3684  -24.0593 C   0  0  1  0  0  0  0  0  0  0  0  0
   12.2629  -12.7426  -23.6835 O   0  0  0  0  0  0  0  0  0  0  0  0
   11.5008  -10.5102  -23.1407 C   0  0  1  0  0  0  0  0  0  0  0  0
   10.2422  -11.1604  -22.9553 O   0  0  0  0  0  0  0  0  0  0  0  0
   12.3118  -10.6195  -21.8488 C   0  0  2  0  0  0  0  0  0  0  0  0
   16.5406   -8.2500  -18.2312 O   0  0  0  0  0  0  0  0  0  0  0  0
    9.7269   -8.8450  -17.7483 N   0  0  0  0  0  0  0  0  0  0  0  0
    9.6758  -10.0431  -18.3046 C   0  0  0  0  0  0  0  0  0  0  0  0
   10.4067  -10.3521  -19.3615 N   0  0  0  0  0  0  0  0  0  0  0  0
   11.2353   -9.4484  -19.9060 C   0  0  0  0  0  0  0  0  0  0  0  0
   11.3149   -8.1790  -19.3506 C   0  0  0  0  0  0  0  0  0  0  0  0
   10.5274   -7.8917  -18.2419 C   0  0  0  0  0  0  0  0  0  0  0  0
   10.5473   -6.6755  -17.7056 N   0  0  0  0  0  0  0  0  0  0  0  0
   12.1921   -7.4815  -20.0636 N   0  0  0  0  0  0  0  0  0  0  0  0
   12.6475   -8.2762  -21.0292 C   0  0  0  0  0  0  0  0  0  0  0  0
   12.0703   -9.4746  -20.9397 N   0  0  0  0  0  0  0  0  0  0  0  0
  2  1  1  1  0  0  0
  2  5  1  0  0  0  0
  2  3  1  0  0  0  0
  3 17  1  0  0  0  0
  3  4  1  0  0  0  0
  5  6  1  0  0  0  0
  7  8  1  0  0  0  0
  8  6  1  1  0  0  0
  8  9  1  0  0  0  0
 10  9  1  6  0  0  0
 10 11  1  0  0  0  0
 10 12  1  0  0  0  0
 11 16  1  0  0  0  0
 12 13  1  1  0  0  0
 12 14  1  0  0  0  0
 14 15  1  1  0  0  0
 14 16  1  0  0  0  0
 16 27  1  1  0  0  0
 18 23  2  0  0  0  0
 18 19  1  0  0  0  0
 19 20  2  0  0  0  0
 20 21  1  0  0  0  0
 21 22  2  0  0  0  0
 21 27  1  0  0  0  0
 22 23  1  0  0  0  0
 22 25  1  0  0  0  0
 23 24  1  0  0  0  0
 25 26  2  0  0  0  0
 26 27  1  0  0  0  0
M  END
>  <CHROM.1>
-65.88371601,156.16970997,-178.53920389,-174.15457978,-100.83980252,74.60317500
-142.92205070,13.43568605,-9.02422384,-21.53034223,-0.78572023,0.47809300
1.11707591

>  <Name>
ligand

>  <RI>
0

>  <Rbt.Current_Directory>
/home/itssahil/PROJECTS/Mol_Feturizer/New_Systems/rnas/3E5F

>  <Rbt.Executable>
rbdock ($Id: //depot/dev/client3/rdock/2013.1/src/exe/rbdock.cxx#4 $)

>  <Rbt.Library>
libRbt.so (2013.1, Build901 2013/11/27)

>  <Rbt.Parameter_File>
/export/apps/rDock/src/rDock_2013.1_src/data/scripts/dock_solv.prm

>  <Rbt.Receptor>
prm/pocket_docking_6.prm

>  <SCORE>
-17.3036

>  <SCORE.INTER>
-16.1392

>  <SCORE.INTER.CONST>
1

>  <SCORE.INTER.POLAR>
0

>  <SCORE.INTER.ROT>
7

>  <SCORE.INTER.SOLV>
9.51242

>  <SCORE.INTER.VDW>
-22.197

>  <SCORE.INTER.norm>
-0.59775

>  <SCORE.INTRA>
-1.16434

>  <SCORE.INTRA.DIHEDRAL>
0.461166

>  <SCORE.INTRA.DIHEDRAL.0>
4.89803

>  <SCORE.INTRA.POLAR>
0

>  <SCORE.INTRA.POLAR.0>
0

>  <SCORE.INTRA.REPUL>
0

>  <SCORE.INTRA.REPUL.0>
0

>  <SCORE.INTRA.SOLV>
0.844001

>  <SCORE.INTRA.SOLV.lig_0>
-48.5832

>  <SCORE.INTRA.VDW>
-1.81692

>  <SCORE.INTRA.VDW.0>
-2.39056

>  <SCORE.INTRA.norm>
-0.0431237

>  <SCORE.RESTR>
0

>  <SCORE.RESTR.CAVITY>
0

>  <SCORE.RESTR.norm>
0

>  <SCORE.SYSTEM>
0

>  <SCORE.SYSTEM.CONST>
0

>  <SCORE.SYSTEM.DIHEDRAL>
0

>  <SCORE.SYSTEM.SOLV>
0

>  <SCORE.SYSTEM.norm>
0

>  <SCORE.heavy>
27

>  <SCORE.norm>
-0.640874

>  <RMSD>
5.191

$$$$
ligand
 OpenBabel11021811473D
libRbt.so/2013.1/901 2013/11/27
 27 29  0  0  0  0  0  0  0  0999 V2000
   17.1085   -6.1657  -20.2293 N   0  0  0  0  0  0  0  0  0  0  0  0
   16.7759   -5.5779  -21.5353 C   0  0  2  0  0  0  0  0  0  0  0  0
   15.5771   -4.6350  -21.3936 C   0  0  0  0  0  0  0  0  0  0  0  0
   14.6456   -5.0103  -20.6486 O   0  0  0  0  0  0  0  0  0  0  0  0
   16.4190   -6.7043  -22.5068 C   0  0  0  0  0  0  0  0  0  0  0  0
   15.2090   -7.5119  -22.0304 C   0  0  0  0  0  0  0  0  0  0  0  0
   14.7621   -8.3539  -24.7065 C   0  0  0  0  0  0  0  0  0  0  0  0
   15.0156   -9.0702  -23.0248 Se  0  0  2  0  0  0  0  0  0  0  0  0
   13.3315   -9.7657  -22.6556 C   0  0  0  0  0  0  0  0  0  0  0  0
   12.8388   -9.4578  -21.2410 C   0  0  1  0  0  0  0  0  0  0  0  0
   11.4954   -9.9539  -21.1114 O   0  0  0  0  0  0  0  0  0  0  0  0
   13.6624  -10.3134  -20.2778 C   0  0  1  0  0  0  0  0  0  0  0  0
   13.3773   -9.9292  -18.9318 O   0  0  0  0  0  0  0  0  0  0  0  0
   13.0446  -11.6781  -20.5718 C   0  0  1  0  0  0  0  0  0  0  0  0
   13.2881  -12.5425  -19.4606 O   0  0  0  0  0  0  0  0  0  0  0  0
   11.5651  -11.2915  -20.5859 C   0  0  2  0  0  0  0  0  0  0  0  0
   15.6132   -3.5648  -22.0399 O   0  0  0  0  0  0  0  0  0  0  0  0
   10.4479  -13.1051  -25.2877 N   0  0  0  0  0  0  0  0  0  0  0  0
   11.3295  -12.1820  -24.9440 C   0  0  0  0  0  0  0  0  0  0  0  0
   11.5050  -11.8209  -23.6849 N   0  0  0  0  0  0  0  0  0  0  0  0
   10.7867  -12.3903  -22.7052 C   0  0  0  0  0  0  0  0  0  0  0  0
    9.8500  -13.3623  -23.0274 C   0  0  0  0  0  0  0  0  0  0  0  0
    9.6923  -13.7117  -24.3634 C   0  0  0  0  0  0  0  0  0  0  0  0
    8.7782  -14.6106  -24.7153 N   0  0  0  0  0  0  0  0  0  0  0  0
    9.2788  -13.7620  -21.8967 N   0  0  0  0  0  0  0  0  0  0  0  0
    9.8308  -13.0714  -20.9018 C   0  0  0  0  0  0  0  0  0  0  0  0
   10.7494  -12.2351  -21.3858 N   0  0  0  0  0  0  0  0  0  0  0  0
  2  1  1  1  0  0  0
  2  5  1  0  0  0  0
  2  3  1  0  0  0  0
  3 17  1  0  0  0  0
  3  4  1  0  0  0  0
  5  6  1  0  0  0  0
  7  8  1  0  0  0  0
  8  6  1  1  0  0  0
  8  9  1  0  0  0  0
 10  9  1  6  0  0  0
 10 11  1  0  0  0  0
 10 12  1  0  0  0  0
 11 16  1  0  0  0  0
 12 13  1  1  0  0  0
 12 14  1  0  0  0  0
 14 15  1  1  0  0  0
 14 16  1  0  0  0  0
 16 27  1  6  0  0  0
 18 23  2  0  0  0  0
 18 19  1  0  0  0  0
 19 20  2  0  0  0  0
 20 21  1  0  0  0  0
 21 22  2  0  0  0  0
 21 27  1  0  0  0  0
 22 23  1  0  0  0  0
 22 25  1  0  0  0  0
 23 24  1  0  0  0  0
 25 26  2  0  0  0  0
 26 27  1  0  0  0  0
M  END
>  <CHROM.1>
60.69249876,-40.69664660,-168.16633593,-61.18650224,-30.74215695,175.62837126
50.87203686,13.20191349,-9.83477268,-22.17145940,0.14079895,0.90188472,1.56093776

>  <Name>
ligand

>  <RI>
0

>  <Rbt.Current_Directory>
/home/itssahil/PROJECTS/Mol_Feturizer/New_Systems/rnas/3E5F

>  <Rbt.Executable>
rbdock ($Id: //depot/dev/client3/rdock/2013.1/src/exe/rbdock.cxx#4 $)

>  <Rbt.Library>
libRbt.so (2013.1, Build901 2013/11/27)

>  <Rbt.Parameter_File>
/export/apps/rDock/src/rDock_2013.1_src/data/scripts/dock_solv.prm

>  <Rbt.Receptor>
prm/blind_docking_80.prm

>  <SCORE>
-14.7904

>  <SCORE.INTER>
-16.6764

>  <SCORE.INTER.CONST>
1

>  <SCORE.INTER.POLAR>
0

>  <SCORE.INTER.ROT>
7

>  <SCORE.INTER.SOLV>
8.4485

>  <SCORE.INTER.VDW>
-22.2005

>  <SCORE.INTER.norm>
-0.617645

>  <SCORE.INTRA>
1.42752

>  <SCORE.INTRA.DIHEDRAL>
0.171562

>  <SCORE.INTRA.DIHEDRAL.0>
4.89803

>  <SCORE.INTRA.POLAR>
0

>  <SCORE.INTRA.POLAR.0>
0

>  <SCORE.INTRA.REPUL>
0

>  <SCORE.INTRA.REPUL.0>
0

>  <SCORE.INTRA.SOLV>
0.712059

>  <SCORE.INTRA.SOLV.lig_0>
-48.5832

>  <SCORE.INTRA.VDW>
0.985707

>  <SCORE.INTRA.VDW.0>
-2.39056

>  <SCORE.INTRA.norm>
0.052871

>  <SCORE.RESTR>
0.458503

>  <SCORE.RESTR.CAVITY>
0.458503

>  <SCORE.RESTR.norm>
0.0169816

>  <SCORE.SYSTEM>
0

>  <SCORE.SYSTEM.CONST>
0

>  <SCORE.SYSTEM.DIHEDRAL>
0

>  <SCORE.SYSTEM.SOLV>
0

>  <SCORE.SYSTEM.norm>
0

>  <SCORE.heavy>
27

>  <SCORE.norm>
-0.547793

>  <RMSD>
5.213

$$$$
ligand
 OpenBabel11021811473D
libRbt.so/2013.1/901 2013/11/27
 27 29  0  0  0  0  0  0  0  0999 V2000
   12.5827   -2.8013  -17.1070 N   0  0  0  0  0  0  0  0  0  0  0  0
   11.2312   -3.0389  -17.6351 C   0  0  2  0  0  0  0  0  0  0  0  0
   10.2662   -1.9781  -17.0970 C   0  0  0  0  0  0  0  0  0  0  0  0
    9.5271   -1.4093  -17.9299 O   0  0  0  0  0  0  0  0  0  0  0  0
   10.7614   -4.4229  -17.1839 C   0  0  0  0  0  0  0  0  0  0  0  0
   11.5938   -5.5445  -17.8105 C   0  0  0  0  0  0  0  0  0  0  0  0
   11.5872   -7.3528  -20.0016 C   0  0  0  0  0  0  0  0  0  0  0  0
   11.4216   -5.5466  -19.6612 Se  0  0  2  0  0  0  0  0  0  0  0  0
   13.0063   -4.8840  -20.3725 C   0  0  0  0  0  0  0  0  0  0  0  0
   14.2422   -5.2297  -19.5409 C   0  0  1  0  0  0  0  0  0  0  0  0
   14.4138   -6.6573  -19.5566 O   0  0  0  0  0  0  0  0  0  0  0  0
   15.4593   -4.6850  -20.2895 C   0  0  1  0  0  0  0  0  0  0  0  0
   16.6222   -4.8111  -19.4697 O   0  0  0  0  0  0  0  0  0  0  0  0
   15.5162   -5.6945  -21.4332 C   0  0  1  0  0  0  0  0  0  0  0  0
   16.8381   -5.7018  -21.9751 O   0  0  0  0  0  0  0  0  0  0  0  0
   15.2948   -6.9864  -20.6454 C   0  0  2  0  0  0  0  0  0  0  0  0
   10.2946   -1.7519  -15.8672 O   0  0  0  0  0  0  0  0  0  0  0  0
   13.1538  -11.6813  -20.7800 N   0  0  0  0  0  0  0  0  0  0  0  0
   13.5411  -10.9775  -19.7302 C   0  0  0  0  0  0  0  0  0  0  0  0
   14.0769   -9.7759  -19.8563 N   0  0  0  0  0  0  0  0  0  0  0  0
   14.2425   -9.2265  -21.0690 C   0  0  0  0  0  0  0  0  0  0  0  0
   13.8494   -9.9360  -22.1951 C   0  0  0  0  0  0  0  0  0  0  0  0
   13.2937  -11.1980  -22.0210 C   0  0  0  0  0  0  0  0  0  0  0  0
   12.9408  -11.9239  -23.0773 N   0  0  0  0  0  0  0  0  0  0  0  0
   14.1173   -9.1857  -23.2579 N   0  0  0  0  0  0  0  0  0  0  0  0
   14.6573   -8.0499  -22.8221 C   0  0  0  0  0  0  0  0  0  0  0  0
   14.7364   -8.0672  -21.4914 N   0  0  0  0  0  0  0  0  0  0  0  0
  2  1  1  1  0  0  0
  2  5  1  0  0  0  0
  2  3  1  0  0  0  0
  3 17  1  0  0  0  0
  3  4  1  0  0  0  0
  5  6  1  0  0  0  0
  7  8  1  0  0  0  0
  8  6  1  1  0  0  0
  8  9  1  0  0  0  0
 10  9  1  6  0  0  0
 10 11  1  0  0  0  0
 10 12  1  0  0  0  0
 11 16  1  0  0  0  0
 12 13  1  1  0  0  0
 12 14  1  0  0  0  0
 14 15  1  1  0  0  0
 14 16  1  0  0  0  0
 16 27  1  6  0  0  0
 18 23  2  0  0  0  0
 18 19  1  0  0  0  0
 19 20  2  0  0  0  0
 20 21  1  0  0  0  0
 21 22  2  0  0  0  0
 21 27  1  0  0  0  0
 22 23  1  0  0  0  0
 22 25  1  0  0  0  0
 23 24  1  0  0  0  0
 25 26  2  0  0  0  0
 26 27  1  0  0  0  0
M  END
>  <CHROM.1>
-66.10805462,131.43236178,-62.57748686,-147.86016062,32.50909420,64.53243298
-49.28429581,13.01551085,-6.36044842,-19.90030647,-1.98019669,-0.39108774
-2.75928245

>  <Name>
ligand

>  <RI>
0

>  <Rbt.Current_Directory>
/home/itssahil/PROJECTS/Mol_Feturizer/New_Systems/rnas/3E5F

>  <Rbt.Executable>
rbdock ($Id: //depot/dev/client3/rdock/2013.1/src/exe/rbdock.cxx#4 $)

>  <Rbt.Library>
libRbt.so (2013.1, Build901 2013/11/27)

>  <Rbt.Parameter_File>
/export/apps/rDock/src/rDock_2013.1_src/data/scripts/dock_solv.prm

>  <Rbt.Receptor>
prm/pocket_docking_7.prm

>  <SCORE>
-14.0621

>  <SCORE.INTER>
-14.8421

>  <SCORE.INTER.CONST>
1

>  <SCORE.INTER.POLAR>
0

>  <SCORE.INTER.ROT>
7

>  <SCORE.INTER.SOLV>
9.94413

>  <SCORE.INTER.VDW>
-21.4761

>  <SCORE.INTER.norm>
-0.549708

>  <SCORE.INTRA>
0.780009

>  <SCORE.INTRA.DIHEDRAL>
0.491047

>  <SCORE.INTRA.DIHEDRAL.0>
4.89803

>  <SCORE.INTRA.POLAR>
0

>  <SCORE.INTRA.POLAR.0>
0

>  <SCORE.INTRA.REPUL>
0

>  <SCORE.INTRA.REPUL.0>
0

>  <SCORE.INTRA.SOLV>
2.0827

>  <SCORE.INTRA.SOLV.lig_0>
-48.5832

>  <SCORE.INTRA.VDW>
-0.506866

>  <SCORE.INTRA.VDW.0>
-2.39056

>  <SCORE.INTRA.norm>
0.0288892

>  <SCORE.RESTR>
0

>  <SCORE.RESTR.CAVITY>
0

>  <SCORE.RESTR.norm>
0

>  <SCORE.SYSTEM>
0

>  <SCORE.SYSTEM.CONST>
0

>  <SCORE.SYSTEM.DIHEDRAL>
0

>  <SCORE.SYSTEM.SOLV>
0

>  <SCORE.SYSTEM.norm>
0

>  <SCORE.heavy>
27

>  <SCORE.norm>
-0.520819

>  <RMSD>
5.220

$$$$
ligand
 OpenBabel11021811473D
libRbt.so/2013.1/901 2013/11/27
 27 29  0  0  0  0  0  0  0  0999 V2000
   14.8693   -5.5976  -20.1331 N   0  0  0  0  0  0  0  0  0  0  0  0
   16.1790   -6.2290  -20.3520 C   0  0  2  0  0  0  0  0  0  0  0  0
   17.0419   -5.3424  -21.2551 C   0  0  0  0  0  0  0  0  0  0  0  0
   16.4500   -4.6937  -22.1454 O   0  0  0  0  0  0  0  0  0  0  0  0
   15.9664   -7.5836  -21.0301 C   0  0  0  0  0  0  0  0  0  0  0  0
   15.2831   -7.4428  -22.3927 C   0  0  0  0  0  0  0  0  0  0  0  0
   14.8226   -8.5922  -24.9496 C   0  0  0  0  0  0  0  0  0  0  0  0
   15.0400   -9.1041  -23.1900 Se  0  0  2  0  0  0  0  0  0  0  0  0
   13.3298   -9.6897  -22.7557 C   0  0  0  0  0  0  0  0  0  0  0  0
   12.9046   -9.3341  -21.3304 C   0  0  1  0  0  0  0  0  0  0  0  0
   11.5645   -9.8132  -21.1248 O   0  0  0  0  0  0  0  0  0  0  0  0
   13.7643  -10.1679  -20.3795 C   0  0  1  0  0  0  0  0  0  0  0  0
   13.5440   -9.7402  -19.0346 O   0  0  0  0  0  0  0  0  0  0  0  0
   13.1225  -11.5349  -20.6031 C   0  0  1  0  0  0  0  0  0  0  0  0
   13.4094  -12.3674  -19.4780 O   0  0  0  0  0  0  0  0  0  0  0  0
   11.6471  -11.1347  -20.5620 C   0  0  2  0  0  0  0  0  0  0  0  0
   18.2744   -5.3394  -21.0426 O   0  0  0  0  0  0  0  0  0  0  0  0
   10.3573  -13.1356  -25.1421 N   0  0  0  0  0  0  0  0  0  0  0  0
   11.2689  -12.2190  -24.8658 C   0  0  0  0  0  0  0  0  0  0  0  0
   11.4879  -11.8047  -23.6301 N   0  0  0  0  0  0  0  0  0  0  0  0
   10.7848  -12.3110  -22.6059 C   0  0  0  0  0  0  0  0  0  0  0  0
    9.8176  -13.2741  -22.8569 C   0  0  0  0  0  0  0  0  0  0  0  0
    9.6145  -13.6808  -24.1703 C   0  0  0  0  0  0  0  0  0  0  0  0
    8.6707  -14.5727  -24.4550 N   0  0  0  0  0  0  0  0  0  0  0  0
    9.2694  -13.6075  -21.6938 N   0  0  0  0  0  0  0  0  0  0  0  0
    9.8647  -12.8852  -20.7475 C   0  0  0  0  0  0  0  0  0  0  0  0
   10.7880  -12.0943  -21.2946 N   0  0  0  0  0  0  0  0  0  0  0  0
  2  1  1  6  0  0  0
  2  5  1  0  0  0  0
  2  3  1  0  0  0  0
  3 17  1  0  0  0  0
  3  4  1  0  0  0  0
  5  6  1  0  0  0  0
  7  8  1  0  0  0  0
  8  6  1  1  0  0  0
  8  9  1  0  0  0  0
 10  9  1  6  0  0  0
 10 11  1  0  0  0  0
 10 12  1  0  0  0  0
 11 16  1  0  0  0  0
 12 13  1  1  0  0  0
 12 14  1  0  0  0  0
 14 15  1  1  0  0  0
 14 16  1  0  0  0  0
 16 27  1  6  0  0  0
 18 23  2  0  0  0  0
 18 19  1  0  0  0  0
 19 20  2  0  0  0  0
 20 21  1  0  0  0  0
 21 22  2  0  0  0  0
 21 27  1  0  0  0  0
 22 23  1  0  0  0  0
 22 25  1  0  0  0  0
 23 24  1  0  0  0  0
 25 26  2  0  0  0  0
 26 27  1  0  0  0  0
M  END
>  <CHROM.1>
60.98677847,-34.20566042,179.98198728,-159.99924324,-37.63115569,178.87512272
52.46816371,13.32337945,-9.89142978,-22.12079444,0.20372044,0.81512365,1.49016097

>  <Name>
ligand

>  <RI>
0

>  <Rbt.Current_Directory>
/home/itssahil/PROJECTS/Mol_Feturizer/New_Systems/rnas/3E5F

>  <Rbt.Executable>
rbdock ($Id: //depot/dev/client3/rdock/2013.1/src/exe/rbdock.cxx#4 $)

>  <Rbt.Library>
libRbt.so (2013.1, Build901 2013/11/27)

>  <Rbt.Parameter_File>
/export/apps/rDock/src/rDock_2013.1_src/data/scripts/dock_solv.prm

>  <Rbt.Receptor>
prm/blind_docking_80.prm

>  <SCORE>
-15.1025

>  <SCORE.INTER>
-15.8625

>  <SCORE.INTER.CONST>
1

>  <SCORE.INTER.POLAR>
0

>  <SCORE.INTER.ROT>
7

>  <SCORE.INTER.SOLV>
8.04753

>  <SCORE.INTER.VDW>
-21.5242

>  <SCORE.INTER.norm>
-0.587501

>  <SCORE.INTRA>
0.384137

>  <SCORE.INTRA.DIHEDRAL>
0.108993

>  <SCORE.INTRA.DIHEDRAL.0>
4.89803

>  <SCORE.INTRA.POLAR>
0

>  <SCORE.INTRA.POLAR.0>
0

>  <SCORE.INTRA.REPUL>
0

>  <SCORE.INTRA.REPUL.0>
0

>  <SCORE.INTRA.SOLV>
1.00032

>  <SCORE.INTRA.SOLV.lig_0>
-48.5832

>  <SCORE.INTRA.VDW>
-0.170518

>  <SCORE.INTRA.VDW.0>
-2.39056

>  <SCORE.INTRA.norm>
0.0142273

>  <SCORE.RESTR>
0.375835

>  <SCORE.RESTR.CAVITY>
0.375835

>  <SCORE.RESTR.norm>
0.0139198

>  <SCORE.SYSTEM>
0

>  <SCORE.SYSTEM.CONST>
0

>  <SCORE.SYSTEM.DIHEDRAL>
0

>  <SCORE.SYSTEM.SOLV>
0

>  <SCORE.SYSTEM.norm>
0

>  <SCORE.heavy>
27

>  <SCORE.norm>
-0.559354

>  <RMSD>
5.222

$$$$
ligand
 OpenBabel11021811473D
libRbt.so/2013.1/901 2013/11/27
 27 29  0  0  0  0  0  0  0  0999 V2000
   12.2405   -8.7118  -20.4295 N   0  0  0  0  0  0  0  0  0  0  0  0
   13.0149   -9.1242  -19.2497 C   0  0  2  0  0  0  0  0  0  0  0  0
   12.3991  -10.3850  -18.6353 C   0  0  0  0  0  0  0  0  0  0  0  0
   13.0719  -11.4367  -18.7059 O   0  0  0  0  0  0  0  0  0  0  0  0
   12.9833   -7.9943  -18.2191 C   0  0  0  0  0  0  0  0  0  0  0  0
   14.0005   -8.2125  -17.0962 C   0  0  0  0  0  0  0  0  0  0  0  0
   16.6827   -8.1008  -16.1668 C   0  0  0  0  0  0  0  0  0  0  0  0
   15.7387   -8.1510  -17.7516 Se  0  0  2  0  0  0  0  0  0  0  0  0
   16.0277   -6.4384  -18.4148 C   0  0  0  0  0  0  0  0  0  0  0  0
   17.3841   -6.2683  -19.1001 C   0  0  1  0  0  0  0  0  0  0  0  0
   17.5224   -7.2992  -20.0930 O   0  0  0  0  0  0  0  0  0  0  0  0
   17.3280   -4.9658  -19.8993 C   0  0  1  0  0  0  0  0  0  0  0  0
   18.6274   -4.6585  -20.4069 O   0  0  0  0  0  0  0  0  0  0  0  0
   16.4168   -5.4157  -21.0386 C   0  0  1  0  0  0  0  0  0  0  0  0
   16.6170   -4.5499  -22.1573 O   0  0  0  0  0  0  0  0  0  0  0  0
   17.0433   -6.7767  -21.3450 C   0  0  2  0  0  0  0  0  0  0  0  0
   11.2662  -10.2728  -18.1174 O   0  0  0  0  0  0  0  0  0  0  0  0
   14.6646   -8.1616  -25.7117 N   0  0  0  0  0  0  0  0  0  0  0  0
   15.5521   -7.2006  -25.5209 C   0  0  0  0  0  0  0  0  0  0  0  0
   16.0789   -6.9650  -24.3320 N   0  0  0  0  0  0  0  0  0  0  0  0
   15.7266   -7.7060  -23.2705 C   0  0  0  0  0  0  0  0  0  0  0  0
   14.7962   -8.7230  -23.4313 C   0  0  0  0  0  0  0  0  0  0  0  0
   14.2623   -8.9369  -24.6967 C   0  0  0  0  0  0  0  0  0  0  0  0
   13.3400   -9.8761  -24.8825 N   0  0  0  0  0  0  0  0  0  0  0  0
   14.6192   -9.2983  -22.2472 N   0  0  0  0  0  0  0  0  0  0  0  0
   15.4044   -8.6711  -21.3746 C   0  0  0  0  0  0  0  0  0  0  0  0
   16.0815   -7.7013  -21.9897 N   0  0  0  0  0  0  0  0  0  0  0  0
  2  1  1  6  0  0  0
  2  5  1  0  0  0  0
  2  3  1  0  0  0  0
  3 17  1  0  0  0  0
  3  4  1  0  0  0  0
  5  6  1  0  0  0  0
  7  8  1  0  0  0  0
  8  6  1  1  0  0  0
  8  9  1  0  0  0  0
 10  9  1  6  0  0  0
 10 11  1  0  0  0  0
 10 12  1  0  0  0  0
 11 16  1  0  0  0  0
 12 13  1  6  0  0  0
 12 14  1  0  0  0  0
 14 15  1  6  0  0  0
 14 16  1  0  0  0  0
 16 27  1  1  0  0  0
 18 23  2  0  0  0  0
 18 19  1  0  0  0  0
 19 20  2  0  0  0  0
 20 21  1  0  0  0  0
 21 22  2  0  0  0  0
 21 27  1  0  0  0  0
 22 23  1  0  0  0  0
 22 25  1  0  0  0  0
 23 24  1  0  0  0  0
 25 26  2  0  0  0  0
 26 27  1  0  0  0  0
M  END
>  <CHROM.1>
-167.80176462,112.41150699,64.92275593,169.23425989,-175.07220833,52.84793435
-161.13546773,15.24230553,-7.88669634,-20.35351190,1.74904850,0.73546107
1.62041034

>  <Name>
ligand

>  <RI>
0

>  <Rbt.Current_Directory>
/home/itssahil/PROJECTS/Mol_Feturizer/New_Systems/rnas/3E5F

>  <Rbt.Executable>
rbdock ($Id: //depot/dev/client3/rdock/2013.1/src/exe/rbdock.cxx#4 $)

>  <Rbt.Library>
libRbt.so (2013.1, Build901 2013/11/27)

>  <Rbt.Parameter_File>
/export/apps/rDock/src/rDock_2013.1_src/data/scripts/dock_solv.prm

>  <Rbt.Receptor>
prm/pocket_docking_7.prm

>  <SCORE>
-16.8854

>  <SCORE.INTER>
-15.544

>  <SCORE.INTER.CONST>
1

>  <SCORE.INTER.POLAR>
0

>  <SCORE.INTER.ROT>
7

>  <SCORE.INTER.SOLV>
17.8633

>  <SCORE.INTER.VDW>
-24.5838

>  <SCORE.INTER.norm>
-0.575704

>  <SCORE.INTRA>
-1.34139

>  <SCORE.INTRA.DIHEDRAL>
-0.895312

>  <SCORE.INTRA.DIHEDRAL.0>
4.89803

>  <SCORE.INTRA.POLAR>
0

>  <SCORE.INTRA.POLAR.0>
0

>  <SCORE.INTRA.REPUL>
0

>  <SCORE.INTRA.REPUL.0>
0

>  <SCORE.INTRA.SOLV>
1.16075

>  <SCORE.INTRA.SOLV.lig_0>
-48.5832

>  <SCORE.INTRA.VDW>
-1.47411

>  <SCORE.INTRA.VDW.0>
-2.39056

>  <SCORE.INTRA.norm>
-0.0496812

>  <SCORE.RESTR>
0

>  <SCORE.RESTR.CAVITY>
0

>  <SCORE.RESTR.norm>
0

>  <SCORE.SYSTEM>
0

>  <SCORE.SYSTEM.CONST>
0

>  <SCORE.SYSTEM.DIHEDRAL>
0

>  <SCORE.SYSTEM.SOLV>
0

>  <SCORE.SYSTEM.norm>
0

>  <SCORE.heavy>
27

>  <SCORE.norm>
-0.625385

>  <RMSD>
5.228

$$$$
ligand
 OpenBabel11021811473D
libRbt.so/2013.1/901 2013/11/27
 27 29  0  0  0  0  0  0  0  0999 V2000
   11.2538   -9.6976  -20.3544 N   0  0  0  0  0  0  0  0  0  0  0  0
   11.6591   -8.8771  -19.2036 C   0  0  2  0  0  0  0  0  0  0  0  0
   11.1659   -7.4387  -19.3882 C   0  0  0  0  0  0  0  0  0  0  0  0
   11.5321   -6.8424  -20.4245 O   0  0  0  0  0  0  0  0  0  0  0  0
   13.1859   -8.8783  -19.1101 C   0  0  0  0  0  0  0  0  0  0  0  0
   13.6826   -8.2283  -17.8163 C   0  0  0  0  0  0  0  0  0  0  0  0
   15.8396   -7.7921  -16.0197 C   0  0  0  0  0  0  0  0  0  0  0  0
   15.5348   -8.0732  -17.8180 Se  0  0  2  0  0  0  0  0  0  0  0  0
   15.9576   -6.4106  -18.5345 C   0  0  0  0  0  0  0  0  0  0  0  0
   17.3397   -6.3589  -19.1871 C   0  0  1  0  0  0  0  0  0  0  0  0
   17.4283   -7.4276  -20.1451 O   0  0  0  0  0  0  0  0  0  0  0  0
   17.3976   -5.0814  -20.0254 C   0  0  1  0  0  0  0  0  0  0  0  0
   18.7281   -4.8834  -20.5061 O   0  0  0  0  0  0  0  0  0  0  0  0
   16.4854   -5.5007  -21.1755 C   0  0  1  0  0  0  0  0  0  0  0  0
   16.7756   -4.6868  -22.3133 O   0  0  0  0  0  0  0  0  0  0  0  0
   17.0199   -6.9118  -21.4246 C   0  0  2  0  0  0  0  0  0  0  0  0
   10.4421   -6.9632  -18.4858 O   0  0  0  0  0  0  0  0  0  0  0  0
   14.5611   -8.1661  -25.7864 N   0  0  0  0  0  0  0  0  0  0  0  0
   15.4966   -7.2516  -25.5966 C   0  0  0  0  0  0  0  0  0  0  0  0
   16.0383   -7.0453  -24.4089 N   0  0  0  0  0  0  0  0  0  0  0  0
   15.6521   -7.7695  -23.3476 C   0  0  0  0  0  0  0  0  0  0  0  0
   14.6709   -8.7378  -23.5074 C   0  0  0  0  0  0  0  0  0  0  0  0
   14.1230   -8.9219  -24.7715 C   0  0  0  0  0  0  0  0  0  0  0  0
   13.1538   -9.8129  -24.9561 N   0  0  0  0  0  0  0  0  0  0  0  0
   14.4686   -9.3057  -22.3238 N   0  0  0  0  0  0  0  0  0  0  0  0
   15.2871   -8.7207  -21.4525 C   0  0  0  0  0  0  0  0  0  0  0  0
   16.0106   -7.7852  -22.0679 N   0  0  0  0  0  0  0  0  0  0  0  0
  2  1  1  6  0  0  0
  2  5  1  0  0  0  0
  2  3  1  0  0  0  0
  3 17  1  0  0  0  0
  3  4  1  0  0  0  0
  5  6  1  0  0  0  0
  7  8  1  0  0  0  0
  8  6  1  1  0  0  0
  8  9  1  0  0  0  0
 10  9  1  6  0  0  0
 10 11  1  0  0  0  0
 10 12  1  0  0  0  0
 11 16  1  0  0  0  0
 12 13  1  6  0  0  0
 12 14  1  0  0  0  0
 14 15  1  6  0  0  0
 14 16  1  0  0  0  0
 16 27  1  1  0  0  0
 18 23  2  0  0  0  0
 18 19  1  0  0  0  0
 19 20  2  0  0  0  0
 20 21  1  0  0  0  0
 21 22  2  0  0  0  0
 21 27  1  0  0  0  0
 22 23  1  0  0  0  0
 22 25  1  0  0  0  0
 23 24  1  0  0  0  0
 25 26  2  0  0  0  0
 26 27  1  0  0  0  0
M  END
>  <CHROM.1>
-171.13893959,-56.99445327,-173.65283293,-162.96095008,-153.66709544,53.29123905
-163.90707194,14.95461439,-7.58284479,-20.55590691,1.64762627,0.42681982
1.51411838

>  <Name>
ligand

>  <RI>
0

>  <Rbt.Current_Directory>
/home/itssahil/PROJECTS/Mol_Feturizer/New_Systems/rnas/3E5F

>  <Rbt.Executable>
rbdock ($Id: //depot/dev/client3/rdock/2013.1/src/exe/rbdock.cxx#4 $)

>  <Rbt.Library>
libRbt.so (2013.1, Build901 2013/11/27)

>  <Rbt.Parameter_File>
/export/apps/rDock/src/rDock_2013.1_src/data/scripts/dock_solv.prm

>  <Rbt.Receptor>
prm/pocket_docking_8.prm

>  <SCORE>
-15.5642

>  <SCORE.INTER>
-14.975

>  <SCORE.INTER.CONST>
1

>  <SCORE.INTER.POLAR>
0

>  <SCORE.INTER.ROT>
7

>  <SCORE.INTER.SOLV>
18.0626

>  <SCORE.INTER.VDW>
-24.2709

>  <SCORE.INTER.norm>
-0.554629

>  <SCORE.INTRA>
-0.589257

>  <SCORE.INTRA.DIHEDRAL>
0.745559

>  <SCORE.INTRA.DIHEDRAL.0>
4.89803

>  <SCORE.INTRA.POLAR>
0

>  <SCORE.INTRA.POLAR.0>
0

>  <SCORE.INTRA.REPUL>
0

>  <SCORE.INTRA.REPUL.0>
0

>  <SCORE.INTRA.SOLV>
0.185215

>  <SCORE.INTRA.SOLV.lig_0>
-48.5832

>  <SCORE.INTRA.VDW>
-1.05464

>  <SCORE.INTRA.VDW.0>
-2.39056

>  <SCORE.INTRA.norm>
-0.0218243

>  <SCORE.RESTR>
0

>  <SCORE.RESTR.CAVITY>
0

>  <SCORE.RESTR.norm>
0

>  <SCORE.SYSTEM>
0

>  <SCORE.SYSTEM.CONST>
0

>  <SCORE.SYSTEM.DIHEDRAL>
0

>  <SCORE.SYSTEM.SOLV>
0

>  <SCORE.SYSTEM.norm>
0

>  <SCORE.heavy>
27

>  <SCORE.norm>
-0.576453

>  <RMSD>
5.233

$$$$
ligand
 OpenBabel11021811473D
libRbt.so/2013.1/901 2013/11/27
 27 29  0  0  0  0  0  0  0  0999 V2000
   12.7853   -5.4215  -17.9963 N   0  0  0  0  0  0  0  0  0  0  0  0
   13.3870   -6.3721  -18.9429 C   0  0  2  0  0  0  0  0  0  0  0  0
   12.4654   -6.5593  -20.1520 C   0  0  0  0  0  0  0  0  0  0  0  0
   12.9185   -7.2180  -21.1135 O   0  0  0  0  0  0  0  0  0  0  0  0
   13.5747   -7.7173  -18.2392 C   0  0  0  0  0  0  0  0  0  0  0  0
   14.6335   -7.6455  -17.1359 C   0  0  0  0  0  0  0  0  0  0  0  0
   17.3342   -7.3320  -16.3124 C   0  0  0  0  0  0  0  0  0  0  0  0
   16.3371   -7.4731  -17.8588 Se  0  0  2  0  0  0  0  0  0  0  0  0
   16.4797   -5.7552  -18.5551 C   0  0  0  0  0  0  0  0  0  0  0  0
   17.6674   -5.5749  -19.5013 C   0  0  1  0  0  0  0  0  0  0  0  0
   17.7596   -6.7397  -20.3394 O   0  0  0  0  0  0  0  0  0  0  0  0
   17.3154   -4.4356  -20.4587 C   0  0  1  0  0  0  0  0  0  0  0  0
   18.4609   -4.0964  -21.2417 O   0  0  0  0  0  0  0  0  0  0  0  0
   16.2852   -5.1537  -21.3267 C   0  0  1  0  0  0  0  0  0  0  0  0
   16.1828   -4.4723  -22.5782 O   0  0  0  0  0  0  0  0  0  0  0  0
   17.0127   -6.4815  -21.5418 C   0  0  2  0  0  0  0  0  0  0  0  0
   11.3326   -6.0325  -20.0933 O   0  0  0  0  0  0  0  0  0  0  0  0
   14.2516   -8.9037  -25.1686 N   0  0  0  0  0  0  0  0  0  0  0  0
   15.0534   -7.8606  -25.2969 C   0  0  0  0  0  0  0  0  0  0  0  0
   15.7005   -7.3482  -24.2647 N   0  0  0  0  0  0  0  0  0  0  0  0
   15.5635   -7.8805  -23.0408 C   0  0  0  0  0  0  0  0  0  0  0  0
   14.7288   -8.9754  -22.8664 C   0  0  0  0  0  0  0  0  0  0  0  0
   14.0628   -9.4827  -23.9759 C   0  0  0  0  0  0  0  0  0  0  0  0
   13.2251  -10.5062  -23.8419 N   0  0  0  0  0  0  0  0  0  0  0  0
   14.7635   -9.3079  -21.5809 N   0  0  0  0  0  0  0  0  0  0  0  0
   15.5852   -8.4587  -20.9684 C   0  0  0  0  0  0  0  0  0  0  0  0
   16.0761   -7.5875  -21.8502 N   0  0  0  0  0  0  0  0  0  0  0  0
  2  1  1  1  0  0  0
  2  5  1  0  0  0  0
  2  3  1  0  0  0  0
  3 17  1  0  0  0  0
  3  4  1  0  0  0  0
  5  6  1  0  0  0  0
  7  8  1  0  0  0  0
  8  6  1  1  0  0  0
  8  9  1  0  0  0  0
 10  9  1  1  0  0  0
 10 11  1  0  0  0  0
 10 12  1  0  0  0  0
 11 16  1  0  0  0  0
 12 13  1  6  0  0  0
 12 14  1  0  0  0  0
 14 15  1  6  0  0  0
 14 16  1  0  0  0  0
 16 27  1  1  0  0  0
 18 23  2  0  0  0  0
 18 19  1  0  0  0  0
 19 20  2  0  0  0  0
 20 21  1  0  0  0  0
 21 22  2  0  0  0  0
 21 27  1  0  0  0  0
 22 23  1  0  0  0  0
 22 25  1  0  0  0  0
 23 24  1  0  0  0  0
 25 26  2  0  0  0  0
 26 27  1  0  0  0  0
M  END
>  <CHROM.1>
-67.74685057,171.78307890,-70.95830412,177.32761142,-164.69953258,41.50591316
-157.46970994,15.39851360,-7.08194240,-20.45963965,1.27544570,0.49294480
1.43802016

>  <Name>
ligand

>  <RI>
0

>  <Rbt.Current_Directory>
/home/itssahil/PROJECTS/Mol_Feturizer/New_Systems/rnas/3E5F

>  <Rbt.Executable>
rbdock ($Id: //depot/dev/client3/rdock/2013.1/src/exe/rbdock.cxx#4 $)

>  <Rbt.Library>
libRbt.so (2013.1, Build901 2013/11/27)

>  <Rbt.Parameter_File>
/export/apps/rDock/src/rDock_2013.1_src/data/scripts/dock_solv.prm

>  <Rbt.Receptor>
prm/pocket_docking_5.prm

>  <SCORE>
-16.8317

>  <SCORE.INTER>
-15.2014

>  <SCORE.INTER.CONST>
1

>  <SCORE.INTER.POLAR>
0

>  <SCORE.INTER.ROT>
7

>  <SCORE.INTER.SOLV>
11.3115

>  <SCORE.INTER.VDW>
-22.1714

>  <SCORE.INTER.norm>
-0.563013

>  <SCORE.INTRA>
-1.63032

>  <SCORE.INTRA.DIHEDRAL>
0.501806

>  <SCORE.INTRA.DIHEDRAL.0>
4.89803

>  <SCORE.INTRA.POLAR>
0

>  <SCORE.INTRA.POLAR.0>
0

>  <SCORE.INTRA.REPUL>
0

>  <SCORE.INTRA.REPUL.0>
0

>  <SCORE.INTRA.SOLV>
1.56495

>  <SCORE.INTRA.SOLV.lig_0>
-48.5832

>  <SCORE.INTRA.VDW>
-2.66369

>  <SCORE.INTRA.VDW.0>
-2.39056

>  <SCORE.INTRA.norm>
-0.0603821

>  <SCORE.RESTR>
0

>  <SCORE.RESTR.CAVITY>
0

>  <SCORE.RESTR.norm>
0

>  <SCORE.SYSTEM>
0

>  <SCORE.SYSTEM.CONST>
0

>  <SCORE.SYSTEM.DIHEDRAL>
0

>  <SCORE.SYSTEM.SOLV>
0

>  <SCORE.SYSTEM.norm>
0

>  <SCORE.heavy>
27

>  <SCORE.norm>
-0.623395

>  <RMSD>
5.248

$$$$
ligand
 OpenBabel11021811473D
libRbt.so/2013.1/901 2013/11/27
 27 29  0  0  0  0  0  0  0  0999 V2000
   15.6940   -7.6550  -15.3936 N   0  0  0  0  0  0  0  0  0  0  0  0
   16.8760   -7.5096  -16.2558 C   0  0  2  0  0  0  0  0  0  0  0  0
   17.8767   -8.6320  -15.9639 C   0  0  0  0  0  0  0  0  0  0  0  0
   18.9466   -8.6200  -16.6110 O   0  0  0  0  0  0  0  0  0  0  0  0
   17.5345   -6.1595  -15.9669 C   0  0  0  0  0  0  0  0  0  0  0  0
   16.6212   -4.9857  -16.3296 C   0  0  0  0  0  0  0  0  0  0  0  0
   15.0338   -6.0172  -18.4477 C   0  0  0  0  0  0  0  0  0  0  0  0
   16.4268   -4.8386  -18.1722 Se  0  0  2  0  0  0  0  0  0  0  0  0
   17.8462   -5.7447  -18.9600 C   0  0  0  0  0  0  0  0  0  0  0  0
   18.4191   -5.0356  -20.1879 C   0  0  1  0  0  0  0  0  0  0  0  0
   18.2993   -5.9178  -21.3171 O   0  0  0  0  0  0  0  0  0  0  0  0
   17.4894   -3.8652  -20.5103 C   0  0  1  0  0  0  0  0  0  0  0  0
   18.0752   -3.0547  -21.5304 O   0  0  0  0  0  0  0  0  0  0  0  0
   16.3045   -4.6420  -21.0787 C   0  0  1  0  0  0  0  0  0  0  0  0
   15.5303   -3.7652  -21.8991 O   0  0  0  0  0  0  0  0  0  0  0  0
   17.0524   -5.6301  -21.9748 C   0  0  2  0  0  0  0  0  0  0  0  0
   17.5471   -9.4822  -15.1080 O   0  0  0  0  0  0  0  0  0  0  0  0
   14.5179   -8.5037  -25.4336 N   0  0  0  0  0  0  0  0  0  0  0  0
   15.1600   -7.3626  -25.6160 C   0  0  0  0  0  0  0  0  0  0  0  0
   15.7688   -6.7393  -24.6223 N   0  0  0  0  0  0  0  0  0  0  0  0
   15.7559   -7.2545  -23.3836 C   0  0  0  0  0  0  0  0  0  0  0  0
   15.0904   -8.4502  -23.1527 C   0  0  0  0  0  0  0  0  0  0  0  0
   14.4592   -9.0731  -24.2230 C   0  0  0  0  0  0  0  0  0  0  0  0
   13.7790  -10.1996  -24.0336 N   0  0  0  0  0  0  0  0  0  0  0  0
   15.2218   -8.7422  -21.8636 N   0  0  0  0  0  0  0  0  0  0  0  0
   15.9398   -7.7717  -21.3031 C   0  0  0  0  0  0  0  0  0  0  0  0
   16.2687   -6.8631  -22.2216 N   0  0  0  0  0  0  0  0  0  0  0  0
  2  1  1  1  0  0  0
  2  5  1  0  0  0  0
  2  3  1  0  0  0  0
  3 17  1  0  0  0  0
  3  4  1  0  0  0  0
  5  6  1  0  0  0  0
  7  8  1  0  0  0  0
  8  6  1  1  0  0  0
  8  9  1  0  0  0  0
 10  9  1  1  0  0  0
 10 11  1  0  0  0  0
 10 12  1  0  0  0  0
 11 16  1  0  0  0  0
 12 13  1  6  0  0  0
 12 14  1  0  0  0  0
 14 15  1  6  0  0  0
 14 16  1  0  0  0  0
 16 27  1  1  0  0  0
 18 23  2  0  0  0  0
 18 19  1  0  0  0  0
 19 20  2  0  0  0  0
 20 21  1  0  0  0  0
 21 22  2  0  0  0  0
 21 27  1  0  0  0  0
 22 23  1  0  0  0  0
 22 25  1  0  0  0  0
 23 24  1  0  0  0  0
 25 26  2  0  0  0  0
 26 27  1  0  0  0  0
M  END
>  <CHROM.1>
-63.91103822,-178.74447176,-69.94584900,85.80786253,-140.35389661,-120.55354642
-127.61165673,16.46303175,-6.43868610,-20.01636001,0.67073621,1.25128348
2.31128010

>  <Name>
ligand

>  <RI>
0

>  <Rbt.Current_Directory>
/home/itssahil/PROJECTS/Mol_Feturizer/New_Systems/rnas/3E5F

>  <Rbt.Executable>
rbdock ($Id: //depot/dev/client3/rdock/2013.1/src/exe/rbdock.cxx#4 $)

>  <Rbt.Library>
libRbt.so (2013.1, Build901 2013/11/27)

>  <Rbt.Parameter_File>
/export/apps/rDock/src/rDock_2013.1_src/data/scripts/dock_solv.prm

>  <Rbt.Receptor>
prm/pocket_docking_5.prm

>  <SCORE>
-13.1974

>  <SCORE.INTER>
-17.7308

>  <SCORE.INTER.CONST>
1

>  <SCORE.INTER.POLAR>
0

>  <SCORE.INTER.ROT>
7

>  <SCORE.INTER.SOLV>
15.5952

>  <SCORE.INTER.VDW>
-25.2856

>  <SCORE.INTER.norm>
-0.656695

>  <SCORE.INTRA>
4.53342

>  <SCORE.INTRA.DIHEDRAL>
6.74036

>  <SCORE.INTRA.DIHEDRAL.0>
4.89803

>  <SCORE.INTRA.POLAR>
0

>  <SCORE.INTRA.POLAR.0>
0

>  <SCORE.INTRA.REPUL>
0

>  <SCORE.INTRA.REPUL.0>
0

>  <SCORE.INTRA.SOLV>
1.83249

>  <SCORE.INTRA.SOLV.lig_0>
-48.5832

>  <SCORE.INTRA.VDW>
0.246999

>  <SCORE.INTRA.VDW.0>
-2.39056

>  <SCORE.INTRA.norm>
0.167905

>  <SCORE.RESTR>
0

>  <SCORE.RESTR.CAVITY>
0

>  <SCORE.RESTR.norm>
0

>  <SCORE.SYSTEM>
0

>  <SCORE.SYSTEM.CONST>
0

>  <SCORE.SYSTEM.DIHEDRAL>
0

>  <SCORE.SYSTEM.SOLV>
0

>  <SCORE.SYSTEM.norm>
0

>  <SCORE.heavy>
27

>  <SCORE.norm>
-0.488791

>  <RMSD>
5.248

$$$$
ligand
 OpenBabel11021811473D
libRbt.so/2013.1/901 2013/11/27
 27 29  0  0  0  0  0  0  0  0999 V2000
   18.7514   -4.9718  -20.2486 N   0  0  0  0  0  0  0  0  0  0  0  0
   17.3581   -5.3783  -20.4834 C   0  0  2  0  0  0  0  0  0  0  0  0
   16.8176   -4.6892  -21.7401 C   0  0  0  0  0  0  0  0  0  0  0  0
   17.0757   -3.4732  -21.8752 O   0  0  0  0  0  0  0  0  0  0  0  0
   16.5131   -4.9628  -19.2778 C   0  0  0  0  0  0  0  0  0  0  0  0
   15.2506   -5.8173  -19.1395 C   0  0  0  0  0  0  0  0  0  0  0  0
   12.7060   -5.1218  -20.1938 C   0  0  0  0  0  0  0  0  0  0  0  0
   14.3034   -5.8687  -20.7378 Se  0  0  2  0  0  0  0  0  0  0  0  0
   13.8080   -7.6350  -21.0396 C   0  0  0  0  0  0  0  0  0  0  0  0
   14.7969   -8.4071  -21.9140 C   0  0  1  0  0  0  0  0  0  0  0  0
   14.8121   -9.7775  -21.4787 O   0  0  0  0  0  0  0  0  0  0  0  0
   14.2115   -8.4557  -23.3259 C   0  0  1  0  0  0  0  0  0  0  0  0
   15.1777   -8.9989  -24.2269 O   0  0  0  0  0  0  0  0  0  0  0  0
   13.0911   -9.4661  -23.0926 C   0  0  1  0  0  0  0  0  0  0  0  0
   12.7276  -10.0477  -24.3460 O   0  0  0  0  0  0  0  0  0  0  0  0
   13.8505  -10.5037  -22.2648 C   0  0  2  0  0  0  0  0  0  0  0  0
   16.1507   -5.3897  -22.5331 O   0  0  0  0  0  0  0  0  0  0  0  0
    9.4515  -13.1900  -21.9864 N   0  0  0  0  0  0  0  0  0  0  0  0
    9.9777  -12.5680  -23.0274 C   0  0  0  0  0  0  0  0  0  0  0  0
   11.1245  -11.9165  -22.9432 N   0  0  0  0  0  0  0  0  0  0  0  0
   11.7990  -11.8694  -21.7844 C   0  0  0  0  0  0  0  0  0  0  0  0
   11.2772  -12.5091  -20.6688 C   0  0  0  0  0  0  0  0  0  0  0  0
   10.0669  -13.1803  -20.7970 C   0  0  0  0  0  0  0  0  0  0  0  0
    9.5163  -13.7722  -19.7417 N   0  0  0  0  0  0  0  0  0  0  0  0
   12.1211  -12.3151  -19.6615 N   0  0  0  0  0  0  0  0  0  0  0  0
   13.1334  -11.5832  -20.1210 C   0  0  0  0  0  0  0  0  0  0  0  0
   12.9447  -11.3084  -21.4118 N   0  0  0  0  0  0  0  0  0  0  0  0
  2  1  1  1  0  0  0
  2  5  1  0  0  0  0
  2  3  1  0  0  0  0
  3 17  1  0  0  0  0
  3  4  1  0  0  0  0
  5  6  1  0  0  0  0
  7  8  1  0  0  0  0
  8  6  1  1  0  0  0
  8  9  1  0  0  0  0
 10  9  1  1  0  0  0
 10 11  1  0  0  0  0
 10 12  1  0  0  0  0
 11 16  1  0  0  0  0
 12 13  1  6  0  0  0
 12 14  1  0  0  0  0
 14 15  1  6  0  0  0
 14 16  1  0  0  0  0
 16 27  1  1  0  0  0
 18 23  2  0  0  0  0
 18 19  1  0  0  0  0
 19 20  2  0  0  0  0
 20 21  1  0  0  0  0
 21 22  2  0  0  0  0
 21 27  1  0  0  0  0
 22 23  1  0  0  0  0
 22 25  1  0  0  0  0
 23 24  1  0  0  0  0
 25 26  2  0  0  0  0
 26 27  1  0  0  0  0
M  END
>  <CHROM.1>
-155.83030421,-44.09221606,-51.56007190,-119.42225603,-93.63704043,146.75184079
165.46157565,13.81743944,-8.44741451,-21.39698760,0.47618446,0.87953204,1.07267672

>  <Name>
ligand

>  <RI>
0

>  <Rbt.Current_Directory>
/home/itssahil/PROJECTS/Mol_Feturizer/New_Systems/rnas/3E5F

>  <Rbt.Executable>
rbdock ($Id: //depot/dev/client3/rdock/2013.1/src/exe/rbdock.cxx#4 $)

>  <Rbt.Library>
libRbt.so (2013.1, Build901 2013/11/27)

>  <Rbt.Parameter_File>
/export/apps/rDock/src/rDock_2013.1_src/data/scripts/dock_solv.prm

>  <Rbt.Receptor>
prm/blind_docking_80.prm

>  <SCORE>
-10.5452

>  <SCORE.INTER>
-12.2856

>  <SCORE.INTER.CONST>
1

>  <SCORE.INTER.POLAR>
0

>  <SCORE.INTER.ROT>
7

>  <SCORE.INTER.SOLV>
16.1537

>  <SCORE.INTER.VDW>
-21.8416

>  <SCORE.INTER.norm>
-0.455021

>  <SCORE.INTRA>
1.73798

>  <SCORE.INTRA.DIHEDRAL>
6.28394

>  <SCORE.INTRA.DIHEDRAL.0>
4.89803

>  <SCORE.INTRA.POLAR>
0

>  <SCORE.INTRA.POLAR.0>
0

>  <SCORE.INTRA.REPUL>
0

>  <SCORE.INTRA.REPUL.0>
0

>  <SCORE.INTRA.SOLV>
0.199149

>  <SCORE.INTRA.SOLV.lig_0>
-48.5832

>  <SCORE.INTRA.VDW>
-1.50357

>  <SCORE.INTRA.VDW.0>
-2.39056

>  <SCORE.INTRA.norm>
0.0643695

>  <SCORE.RESTR>
0.00235573

>  <SCORE.RESTR.CAVITY>
0.00235573

>  <SCORE.RESTR.norm>
8.72493e-05

>  <SCORE.SYSTEM>
0

>  <SCORE.SYSTEM.CONST>
0

>  <SCORE.SYSTEM.DIHEDRAL>
0

>  <SCORE.SYSTEM.SOLV>
0

>  <SCORE.SYSTEM.norm>
0

>  <SCORE.heavy>
27

>  <SCORE.norm>
-0.390565

>  <RMSD>
5.249

$$$$
ligand
 OpenBabel11021811473D
libRbt.so/2013.1/901 2013/11/27
 27 29  0  0  0  0  0  0  0  0999 V2000
   10.5470   -3.1307  -16.8809 N   0  0  0  0  0  0  0  0  0  0  0  0
   11.5112   -2.0315  -17.0354 C   0  0  2  0  0  0  0  0  0  0  0  0
   11.0398   -1.0737  -18.1339 C   0  0  0  0  0  0  0  0  0  0  0  0
   11.8694   -0.2355  -18.5495 O   0  0  0  0  0  0  0  0  0  0  0  0
   12.8690   -2.6176  -17.4264 C   0  0  0  0  0  0  0  0  0  0  0  0
   12.8297   -3.2914  -18.8003 C   0  0  0  0  0  0  0  0  0  0  0  0
   14.3701   -3.6647  -21.1579 C   0  0  0  0  0  0  0  0  0  0  0  0
   14.5292   -3.8290  -19.3267 Se  0  0  2  0  0  0  0  0  0  0  0  0
   14.6219   -5.6745  -19.1224 C   0  0  0  0  0  0  0  0  0  0  0  0
   16.0512   -6.2072  -19.0132 C   0  0  1  0  0  0  0  0  0  0  0  0
   16.0281   -7.6219  -19.2701 O   0  0  0  0  0  0  0  0  0  0  0  0
   16.8460   -5.6149  -20.1775 C   0  0  1  0  0  0  0  0  0  0  0  0
   18.2313   -5.9255  -20.0194 O   0  0  0  0  0  0  0  0  0  0  0  0
   16.2554   -6.4360  -21.3210 C   0  0  1  0  0  0  0  0  0  0  0  0
   17.1724   -6.4257  -22.4165 O   0  0  0  0  0  0  0  0  0  0  0  0
   16.2689   -7.8218  -20.6744 C   0  0  2  0  0  0  0  0  0  0  0  0
    9.8587   -1.1934  -18.5274 O   0  0  0  0  0  0  0  0  0  0  0  0
   13.8519   -9.3213  -24.9819 N   0  0  0  0  0  0  0  0  0  0  0  0
   14.7887   -8.4001  -24.8357 C   0  0  0  0  0  0  0  0  0  0  0  0
   15.3185   -8.1264  -23.6563 N   0  0  0  0  0  0  0  0  0  0  0  0
   14.9184   -8.7863  -22.5588 C   0  0  0  0  0  0  0  0  0  0  0  0
   13.9355   -9.7593  -22.6724 C   0  0  0  0  0  0  0  0  0  0  0  0
   13.4005  -10.0153  -23.9294 C   0  0  0  0  0  0  0  0  0  0  0  0
   12.4301  -10.9127  -24.0722 N   0  0  0  0  0  0  0  0  0  0  0  0
   13.7186  -10.2566  -21.4599 N   0  0  0  0  0  0  0  0  0  0  0  0
   14.5300   -9.6242  -20.6154 C   0  0  0  0  0  0  0  0  0  0  0  0
   15.2633   -8.7284  -21.2766 N   0  0  0  0  0  0  0  0  0  0  0  0
  2  1  1  6  0  0  0
  2  5  1  0  0  0  0
  2  3  1  0  0  0  0
  3 17  1  0  0  0  0
  3  4  1  0  0  0  0
  5  6  1  0  0  0  0
  7  8  1  0  0  0  0
  8  6  1  1  0  0  0
  8  9  1  0  0  0  0
 10  9  1  6  0  0  0
 10 11  1  0  0  0  0
 10 12  1  0  0  0  0
 11 16  1  0  0  0  0
 12 13  1  1  0  0  0
 12 14  1  0  0  0  0
 14 15  1  6  0  0  0
 14 16  1  0  0  0  0
 16 27  1  6  0  0  0
 18 23  2  0  0  0  0
 18 19  1  0  0  0  0
 19 20  2  0  0  0  0
 20 21  1  0  0  0  0
 21 22  2  0  0  0  0
 21 27  1  0  0  0  0
 22 23  1  0  0  0  0
 22 25  1  0  0  0  0
 23 24  1  0  0  0  0
 25 26  2  0  0  0  0
 26 27  1  0  0  0  0
M  END
>  <CHROM.1>
64.86885755,-167.03651783,173.85405760,-149.32537409,-158.77019329,-162.62780671
156.48247716,14.24638875,-5.73498187,-20.41654834,1.86862847,-0.13025012
0.62743339

>  <Name>
ligand

>  <RI>
0

>  <Rbt.Current_Directory>
/home/itssahil/PROJECTS/Mol_Feturizer/New_Systems/rnas/3E5F

>  <Rbt.Executable>
rbdock ($Id: //depot/dev/client3/rdock/2013.1/src/exe/rbdock.cxx#4 $)

>  <Rbt.Library>
libRbt.so (2013.1, Build901 2013/11/27)

>  <Rbt.Parameter_File>
/export/apps/rDock/src/rDock_2013.1_src/data/scripts/dock_solv.prm

>  <Rbt.Receptor>
prm/blind_docking_80.prm

>  <SCORE>
-12.1853

>  <SCORE.INTER>
-14.828

>  <SCORE.INTER.CONST>
1

>  <SCORE.INTER.POLAR>
0

>  <SCORE.INTER.ROT>
7

>  <SCORE.INTER.SOLV>
12.7607

>  <SCORE.INTER.VDW>
-22.4056

>  <SCORE.INTER.norm>
-0.549185

>  <SCORE.INTRA>
2.6025

>  <SCORE.INTRA.DIHEDRAL>
1.90976

>  <SCORE.INTRA.DIHEDRAL.0>
4.89803

>  <SCORE.INTRA.POLAR>
0

>  <SCORE.INTRA.POLAR.0>
0

>  <SCORE.INTRA.REPUL>
0

>  <SCORE.INTRA.REPUL.0>
0

>  <SCORE.INTRA.SOLV>
0.887518

>  <SCORE.INTRA.SOLV.lig_0>
-48.5832

>  <SCORE.INTRA.VDW>
1.20386

>  <SCORE.INTRA.VDW.0>
-2.39056

>  <SCORE.INTRA.norm>
0.0963888

>  <SCORE.RESTR>
0.040159

>  <SCORE.RESTR.CAVITY>
0.040159

>  <SCORE.RESTR.norm>
0.00148737

>  <SCORE.SYSTEM>
0

>  <SCORE.SYSTEM.CONST>
0

>  <SCORE.SYSTEM.DIHEDRAL>
0

>  <SCORE.SYSTEM.SOLV>
0

>  <SCORE.SYSTEM.norm>
0

>  <SCORE.heavy>
27

>  <SCORE.norm>
-0.451309

>  <RMSD>
5.262

$$$$
ligand
 OpenBabel11021811473D
libRbt.so/2013.1/901 2013/11/27
 27 29  0  0  0  0  0  0  0  0999 V2000
   17.0565   -3.0955  -21.0103 N   0  0  0  0  0  0  0  0  0  0  0  0
   17.0315   -4.5268  -21.3458 C   0  0  2  0  0  0  0  0  0  0  0  0
   15.9239   -4.8047  -22.3667 C   0  0  0  0  0  0  0  0  0  0  0  0
   14.9384   -4.0352  -22.3575 O   0  0  0  0  0  0  0  0  0  0  0  0
   16.7553   -5.3273  -20.0719 C   0  0  0  0  0  0  0  0  0  0  0  0
   15.3872   -4.9956  -19.4704 C   0  0  0  0  0  0  0  0  0  0  0  0
   12.5500   -5.1110  -19.5549 C   0  0  0  0  0  0  0  0  0  0  0  0
   14.0138   -5.6072  -20.5632 Se  0  0  2  0  0  0  0  0  0  0  0  0
   13.9613   -7.4596  -20.4142 C   0  0  0  0  0  0  0  0  0  0  0  0
   14.9883   -8.1738  -21.2939 C   0  0  1  0  0  0  0  0  0  0  0  0
   14.9891   -9.5693  -20.9473 O   0  0  0  0  0  0  0  0  0  0  0  0
   14.4631   -8.1315  -22.7294 C   0  0  1  0  0  0  0  0  0  0  0  0
   15.4680   -8.6154  -23.6219 O   0  0  0  0  0  0  0  0  0  0  0  0
   13.3367   -9.1548  -22.6091 C   0  0  1  0  0  0  0  0  0  0  0  0
   13.0280   -9.6546  -23.9115 O   0  0  0  0  0  0  0  0  0  0  0  0
   14.0635  -10.2435  -21.8183 C   0  0  2  0  0  0  0  0  0  0  0  0
   16.0815   -5.7851  -23.1271 O   0  0  0  0  0  0  0  0  0  0  0  0
    9.6330  -12.8915  -21.8802 N   0  0  0  0  0  0  0  0  0  0  0  0
   10.1961  -12.1964  -22.8535 C   0  0  0  0  0  0  0  0  0  0  0  0
   11.3460  -11.5670  -22.6849 N   0  0  0  0  0  0  0  0  0  0  0  0
   11.9856  -11.6183  -21.5067 C   0  0  0  0  0  0  0  0  0  0  0  0
   11.4244  -12.3368  -20.4604 C   0  0  0  0  0  0  0  0  0  0  0  0
   10.2122  -12.9817  -20.6762 C   0  0  0  0  0  0  0  0  0  0  0  0
    9.6245  -13.6475  -19.6870 N   0  0  0  0  0  0  0  0  0  0  0  0
   12.2393  -12.2318  -19.4167 N   0  0  0  0  0  0  0  0  0  0  0  0
   13.2719  -11.4783  -19.7875 C   0  0  0  0  0  0  0  0  0  0  0  0
   13.1248  -11.1015  -21.0579 N   0  0  0  0  0  0  0  0  0  0  0  0
  2  1  1  1  0  0  0
  2  5  1  0  0  0  0
  2  3  1  0  0  0  0
  3 17  1  0  0  0  0
  3  4  1  0  0  0  0
  5  6  1  0  0  0  0
  7  8  1  0  0  0  0
  8  6  1  1  0  0  0
  8  9  1  0  0  0  0
 10  9  1  1  0  0  0
 10 11  1  0  0  0  0
 10 12  1  0  0  0  0
 11 16  1  0  0  0  0
 12 13  1  6  0  0  0
 12 14  1  0  0  0  0
 14 15  1  6  0  0  0
 14 16  1  0  0  0  0
 16 27  1  1  0  0  0
 18 23  2  0  0  0  0
 18 19  1  0  0  0  0
 19 20  2  0  0  0  0
 20 21  1  0  0  0  0
 21 22  2  0  0  0  0
 21 27  1  0  0  0  0
 22 23  1  0  0  0  0
 22 25  1  0  0  0  0
 23 24  1  0  0  0  0
 25 26  2  0  0  0  0
 26 27  1  0  0  0  0
M  END
>  <CHROM.1>
62.40528418,-27.68540036,68.42263794,178.30026409,-81.76839871,171.51219767
164.19254157,13.71138430,-8.19840964,-21.28158058,0.66888065,0.87738899,0.78296843

>  <Name>
ligand

>  <RI>
0

>  <Rbt.Current_Directory>
/home/itssahil/PROJECTS/Mol_Feturizer/New_Systems/rnas/3E5F

>  <Rbt.Executable>
rbdock ($Id: //depot/dev/client3/rdock/2013.1/src/exe/rbdock.cxx#4 $)

>  <Rbt.Library>
libRbt.so (2013.1, Build901 2013/11/27)

>  <Rbt.Parameter_File>
/export/apps/rDock/src/rDock_2013.1_src/data/scripts/dock_solv.prm

>  <Rbt.Receptor>
prm/blind_docking_80.prm

>  <SCORE>
-13.6855

>  <SCORE.INTER>
-12.388

>  <SCORE.INTER.CONST>
1

>  <SCORE.INTER.POLAR>
0

>  <SCORE.INTER.ROT>
7

>  <SCORE.INTER.SOLV>
18.91

>  <SCORE.INTER.VDW>
-22.8286

>  <SCORE.INTER.norm>
-0.458814

>  <SCORE.INTRA>
-1.30846

>  <SCORE.INTRA.DIHEDRAL>
-1.09816

>  <SCORE.INTRA.DIHEDRAL.0>
4.89803

>  <SCORE.INTRA.POLAR>
0

>  <SCORE.INTRA.POLAR.0>
0

>  <SCORE.INTRA.REPUL>
0

>  <SCORE.INTRA.REPUL.0>
0

>  <SCORE.INTRA.SOLV>
1.02994

>  <SCORE.INTRA.SOLV.lig_0>
-48.5832

>  <SCORE.INTRA.VDW>
-1.27436

>  <SCORE.INTRA.VDW.0>
-2.39056

>  <SCORE.INTRA.norm>
-0.0484616

>  <SCORE.RESTR>
0.0109618

>  <SCORE.RESTR.CAVITY>
0.0109618

>  <SCORE.RESTR.norm>
0.000405993

>  <SCORE.SYSTEM>
0

>  <SCORE.SYSTEM.CONST>
0

>  <SCORE.SYSTEM.DIHEDRAL>
0

>  <SCORE.SYSTEM.SOLV>
0

>  <SCORE.SYSTEM.norm>
0

>  <SCORE.heavy>
27

>  <SCORE.norm>
-0.50687

>  <RMSD>
5.270

$$$$
ligand
 OpenBabel11021811473D
libRbt.so/2013.1/901 2013/11/27
 27 29  0  0  0  0  0  0  0  0999 V2000
   15.3512   -5.4460  -20.1525 N   0  0  0  0  0  0  0  0  0  0  0  0
   15.9014   -6.7489  -20.5544 C   0  0  2  0  0  0  0  0  0  0  0  0
   16.7646   -7.3218  -19.4262 C   0  0  0  0  0  0  0  0  0  0  0  0
   17.0935   -8.5246  -19.5190 O   0  0  0  0  0  0  0  0  0  0  0  0
   16.7656   -6.5559  -21.8018 C   0  0  0  0  0  0  0  0  0  0  0  0
   15.9295   -6.5470  -23.0840 C   0  0  0  0  0  0  0  0  0  0  0  0
   15.5355   -7.8995  -25.5510 C   0  0  0  0  0  0  0  0  0  0  0  0
   15.7172   -8.2685  -23.7520 Se  0  0  2  0  0  0  0  0  0  0  0  0
   14.0023   -8.8340  -23.3099 C   0  0  0  0  0  0  0  0  0  0  0  0
   13.6704   -8.6791  -21.8252 C   0  0  1  0  0  0  0  0  0  0  0  0
   12.3019   -9.0718  -21.6237 O   0  0  0  0  0  0  0  0  0  0  0  0
   14.4891   -9.7242  -21.0662 C   0  0  1  0  0  0  0  0  0  0  0  0
   14.3644   -9.5025  -19.6606 O   0  0  0  0  0  0  0  0  0  0  0  0
   13.7169  -10.9789  -21.4661 C   0  0  1  0  0  0  0  0  0  0  0  0
   13.9729  -12.0031  -20.5035 O   0  0  0  0  0  0  0  0  0  0  0  0
   12.2870  -10.4691  -21.2811 C   0  0  2  0  0  0  0  0  0  0  0  0
   17.0687   -6.5486  -18.4913 O   0  0  0  0  0  0  0  0  0  0  0  0
    8.9941  -14.4375  -21.5118 N   0  0  0  0  0  0  0  0  0  0  0  0
    9.7429  -14.0406  -20.4973 C   0  0  0  0  0  0  0  0  0  0  0  0
   10.5441  -12.9937  -20.5907 N   0  0  0  0  0  0  0  0  0  0  0  0
   10.6196  -12.2916  -21.7314 C   0  0  0  0  0  0  0  0  0  0  0  0
    9.8495  -12.6791  -22.8191 C   0  0  0  0  0  0  0  0  0  0  0  0
    9.0224  -13.7878  -22.6824 C   0  0  0  0  0  0  0  0  0  0  0  0
    8.2990  -14.2126  -23.7136 N   0  0  0  0  0  0  0  0  0  0  0  0
   10.1028  -11.8354  -23.8132 N   0  0  0  0  0  0  0  0  0  0  0  0
   10.9956  -10.9520  -23.3727 C   0  0  0  0  0  0  0  0  0  0  0  0
   11.3146  -11.2229  -22.1069 N   0  0  0  0  0  0  0  0  0  0  0  0
  2  1  1  1  0  0  0
  2  5  1  0  0  0  0
  2  3  1  0  0  0  0
  3 17  1  0  0  0  0
  3  4  1  0  0  0  0
  5  6  1  0  0  0  0
  7  8  1  0  0  0  0
  8  6  1  1  0  0  0
  8  9  1  0  0  0  0
 10  9  1  6  0  0  0
 10 11  1  0  0  0  0
 10 12  1  0  0  0  0
 11 16  1  0  0  0  0
 12 13  1  1  0  0  0
 12 14  1  0  0  0  0
 14 15  1  1  0  0  0
 14 16  1  0  0  0  0
 16 27  1  6  0  0  0
 18 23  2  0  0  0  0
 18 19  1  0  0  0  0
 19 20  2  0  0  0  0
 20 21  1  0  0  0  0
 21 22  2  0  0  0  0
 21 27  1  0  0  0  0
 22 23  1  0  0  0  0
 22 25  1  0  0  0  0
 23 24  1  0  0  0  0
 25 26  2  0  0  0  0
 26 27  1  0  0  0  0
M  END
>  <CHROM.1>
-83.34907217,167.03157226,-88.50090945,-151.58900944,-51.93799496,176.62568095
-148.12527142,13.60283981,-9.72532263,-21.97828544,-0.03187567,0.74455334
1.71509025

>  <Name>
ligand

>  <RI>
0

>  <Rbt.Current_Directory>
/home/itssahil/PROJECTS/Mol_Feturizer/New_Systems/rnas/3E5F

>  <Rbt.Executable>
rbdock ($Id: //depot/dev/client3/rdock/2013.1/src/exe/rbdock.cxx#4 $)

>  <Rbt.Library>
libRbt.so (2013.1, Build901 2013/11/27)

>  <Rbt.Parameter_File>
/export/apps/rDock/src/rDock_2013.1_src/data/scripts/dock_solv.prm

>  <Rbt.Receptor>
prm/blind_docking_60.prm

>  <SCORE>
-16.2866

>  <SCORE.INTER>
-17.789

>  <SCORE.INTER.CONST>
1

>  <SCORE.INTER.POLAR>
0

>  <SCORE.INTER.ROT>
7

>  <SCORE.INTER.SOLV>
9.68585

>  <SCORE.INTER.VDW>
-23.3546

>  <SCORE.INTER.norm>
-0.658854

>  <SCORE.INTRA>
1.48699

>  <SCORE.INTRA.DIHEDRAL>
4.34192

>  <SCORE.INTRA.DIHEDRAL.0>
4.89803

>  <SCORE.INTRA.POLAR>
0

>  <SCORE.INTRA.POLAR.0>
0

>  <SCORE.INTRA.REPUL>
0

>  <SCORE.INTRA.REPUL.0>
0

>  <SCORE.INTRA.SOLV>
1.71153

>  <SCORE.INTRA.SOLV.lig_0>
-48.5832

>  <SCORE.INTRA.VDW>
-1.53973

>  <SCORE.INTRA.VDW.0>
-2.39056

>  <SCORE.INTRA.norm>
0.0550738

>  <SCORE.RESTR>
0.0154185

>  <SCORE.RESTR.CAVITY>
0.0154185

>  <SCORE.RESTR.norm>
0.000571057

>  <SCORE.SYSTEM>
0

>  <SCORE.SYSTEM.CONST>
0

>  <SCORE.SYSTEM.DIHEDRAL>
0

>  <SCORE.SYSTEM.SOLV>
0

>  <SCORE.SYSTEM.norm>
0

>  <SCORE.heavy>
27

>  <SCORE.norm>
-0.603209

>  <RMSD>
5.285

$$$$
ligand
 OpenBabel11021811473D
libRbt.so/2013.1/901 2013/11/27
 27 29  0  0  0  0  0  0  0  0999 V2000
   12.1409   -9.7846  -21.0442 N   0  0  0  0  0  0  0  0  0  0  0  0
   12.8642  -10.2980  -19.8716 C   0  0  2  0  0  0  0  0  0  0  0  0
   12.7251  -11.8216  -19.7979 C   0  0  0  0  0  0  0  0  0  0  0  0
   11.5887  -12.2980  -20.0103 O   0  0  0  0  0  0  0  0  0  0  0  0
   12.2636   -9.6754  -18.6100 C   0  0  0  0  0  0  0  0  0  0  0  0
   12.6315   -8.1962  -18.4684 C   0  0  0  0  0  0  0  0  0  0  0  0
   14.4959   -7.9576  -16.3382 C   0  0  0  0  0  0  0  0  0  0  0  0
   14.4563   -7.9887  -18.1830 Se  0  0  2  0  0  0  0  0  0  0  0  0
   14.8922   -6.2296  -18.5972 C   0  0  0  0  0  0  0  0  0  0  0  0
   16.3555   -6.0399  -18.9988 C   0  0  1  0  0  0  0  0  0  0  0  0
   16.7249   -7.1115  -19.8837 O   0  0  0  0  0  0  0  0  0  0  0  0
   16.4288   -4.7808  -19.8635 C   0  0  1  0  0  0  0  0  0  0  0  0
   17.7957   -4.4479  -20.1107 O   0  0  0  0  0  0  0  0  0  0  0  0
   15.7855   -5.3206  -21.1384 C   0  0  1  0  0  0  0  0  0  0  0  0
   16.1877   -4.5028  -22.2387 O   0  0  0  0  0  0  0  0  0  0  0  0
   16.4999   -6.6693  -21.2342 C   0  0  2  0  0  0  0  0  0  0  0  0
   13.7545  -12.4761  -19.5216 O   0  0  0  0  0  0  0  0  0  0  0  0
   14.6642   -8.0426  -25.8590 N   0  0  0  0  0  0  0  0  0  0  0  0
   15.4025   -6.9937  -25.5391 C   0  0  0  0  0  0  0  0  0  0  0  0
   15.8012   -6.7749  -24.2982 N   0  0  0  0  0  0  0  0  0  0  0  0
   15.4670   -7.6235  -23.3144 C   0  0  0  0  0  0  0  0  0  0  0  0
   14.6912   -8.7353  -23.6113 C   0  0  0  0  0  0  0  0  0  0  0  0
   14.2886   -8.9283  -24.9276 C   0  0  0  0  0  0  0  0  0  0  0  0
   13.5127   -9.9603  -25.2442 N   0  0  0  0  0  0  0  0  0  0  0  0
   14.4994   -9.4064  -22.4812 N   0  0  0  0  0  0  0  0  0  0  0  0
   15.1272   -8.7465  -21.5107 C   0  0  0  0  0  0  0  0  0  0  0  0
   15.7185   -7.6609  -22.0099 N   0  0  0  0  0  0  0  0  0  0  0  0
  2  1  1  6  0  0  0
  2  5  1  0  0  0  0
  2  3  1  0  0  0  0
  3 17  1  0  0  0  0
  3  4  1  0  0  0  0
  5  6  1  0  0  0  0
  7  8  1  0  0  0  0
  8  6  1  1  0  0  0
  8  9  1  0  0  0  0
 10  9  1  6  0  0  0
 10 11  1  0  0  0  0
 10 12  1  0  0  0  0
 11 16  1  0  0  0  0
 12 13  1  6  0  0  0
 12 14  1  0  0  0  0
 14 15  1  6  0  0  0
 14 16  1  0  0  0  0
 16 27  1  6  0  0  0
 18 23  2  0  0  0  0
 18 19  1  0  0  0  0
 19 20  2  0  0  0  0
 20 21  1  0  0  0  0
 21 22  2  0  0  0  0
 21 27  1  0  0  0  0
 22 23  1  0  0  0  0
 22 25  1  0  0  0  0
 23 24  1  0  0  0  0
 25 26  2  0  0  0  0
 26 27  1  0  0  0  0
M  END
>  <CHROM.1>
-72.32438392,-43.86069819,-66.31158457,-93.16465890,-155.06493632,43.21494904
-172.24623735,14.66262864,-8.07462312,-20.68912000,2.26533047,0.97835758
1.44759462

>  <Name>
ligand

>  <RI>
0

>  <Rbt.Current_Directory>
/home/itssahil/PROJECTS/Mol_Feturizer/New_Systems/rnas/3E5F

>  <Rbt.Executable>
rbdock ($Id: //depot/dev/client3/rdock/2013.1/src/exe/rbdock.cxx#4 $)

>  <Rbt.Library>
libRbt.so (2013.1, Build901 2013/11/27)

>  <Rbt.Parameter_File>
/export/apps/rDock/src/rDock_2013.1_src/data/scripts/dock_solv.prm

>  <Rbt.Receptor>
prm/blind_docking_100.prm

>  <SCORE>
-16.0676

>  <SCORE.INTER>
-16.3474

>  <SCORE.INTER.CONST>
1

>  <SCORE.INTER.POLAR>
0

>  <SCORE.INTER.ROT>
7

>  <SCORE.INTER.SOLV>
17.8274

>  <SCORE.INTER.VDW>
-25.1074

>  <SCORE.INTER.norm>
-0.605461

>  <SCORE.INTRA>
0.21812

>  <SCORE.INTRA.DIHEDRAL>
1.78386

>  <SCORE.INTRA.DIHEDRAL.0>
4.89803

>  <SCORE.INTRA.POLAR>
0

>  <SCORE.INTRA.POLAR.0>
0

>  <SCORE.INTRA.REPUL>
0

>  <SCORE.INTRA.REPUL.0>
0

>  <SCORE.INTRA.SOLV>
2.05056

>  <SCORE.INTRA.SOLV.lig_0>
-48.5832

>  <SCORE.INTRA.VDW>
-1.69909

>  <SCORE.INTRA.VDW.0>
-2.39056

>  <SCORE.INTRA.norm>
0.00807853

>  <SCORE.RESTR>
0.0617601

>  <SCORE.RESTR.CAVITY>
0.0617601

>  <SCORE.RESTR.norm>
0.00228741

>  <SCORE.SYSTEM>
0

>  <SCORE.SYSTEM.CONST>
0

>  <SCORE.SYSTEM.DIHEDRAL>
0

>  <SCORE.SYSTEM.SOLV>
0

>  <SCORE.SYSTEM.norm>
0

>  <SCORE.heavy>
27

>  <SCORE.norm>
-0.595095

>  <RMSD>
5.300

$$$$
ligand
 OpenBabel11021811473D
libRbt.so/2013.1/901 2013/11/27
 27 29  0  0  0  0  0  0  0  0999 V2000
   14.9960   -6.2238  -20.0330 N   0  0  0  0  0  0  0  0  0  0  0  0
   16.0381   -7.1473  -20.5051 C   0  0  2  0  0  0  0  0  0  0  0  0
   17.0770   -7.3706  -19.4018 C   0  0  0  0  0  0  0  0  0  0  0  0
   17.3422   -6.3942  -18.6670 O   0  0  0  0  0  0  0  0  0  0  0  0
   16.7243   -6.5341  -21.7269 C   0  0  0  0  0  0  0  0  0  0  0  0
   15.8253   -6.5635  -22.9656 C   0  0  0  0  0  0  0  0  0  0  0  0
   15.5737   -7.8959  -25.4620 C   0  0  0  0  0  0  0  0  0  0  0  0
   15.7088   -8.2826  -23.6626 Se  0  0  2  0  0  0  0  0  0  0  0  0
   14.0051   -8.9253  -23.2880 C   0  0  0  0  0  0  0  0  0  0  0  0
   13.6171   -8.8081  -21.8135 C   0  0  1  0  0  0  0  0  0  0  0  0
   12.2454   -9.2154  -21.6723 O   0  0  0  0  0  0  0  0  0  0  0  0
   14.4157   -9.8648  -21.0492 C   0  0  1  0  0  0  0  0  0  0  0  0
   14.2371   -9.6774  -19.6444 O   0  0  0  0  0  0  0  0  0  0  0  0
   13.6691  -11.1153  -21.5069 C   0  0  1  0  0  0  0  0  0  0  0  0
   13.8977  -12.1601  -20.5597 O   0  0  0  0  0  0  0  0  0  0  0  0
   12.2292  -10.6205  -21.3634 C   0  0  2  0  0  0  0  0  0  0  0  0
   17.5902   -8.5084  -19.3228 O   0  0  0  0  0  0  0  0  0  0  0  0
    8.8815  -14.5284  -21.7705 N   0  0  0  0  0  0  0  0  0  0  0  0
    9.5752  -14.1387  -20.7148 C   0  0  0  0  0  0  0  0  0  0  0  0
   10.4003  -13.1075  -20.7654 N   0  0  0  0  0  0  0  0  0  0  0  0
   10.5577  -12.4147  -21.9035 C   0  0  0  0  0  0  0  0  0  0  0  0
    9.8475  -12.7951  -23.0335 C   0  0  0  0  0  0  0  0  0  0  0  0
    8.9928  -13.8872  -22.9408 C   0  0  0  0  0  0  0  0  0  0  0  0
    8.3250  -14.3055  -24.0115 N   0  0  0  0  0  0  0  0  0  0  0  0
   10.1763  -11.9629  -24.0152 N   0  0  0  0  0  0  0  0  0  0  0  0
   11.0575  -11.0934  -23.5264 C   0  0  0  0  0  0  0  0  0  0  0  0
   11.2943  -11.3616  -22.2422 N   0  0  0  0  0  0  0  0  0  0  0  0
  2  1  1  1  0  0  0
  2  5  1  0  0  0  0
  2  3  1  0  0  0  0
  3 17  1  0  0  0  0
  3  4  1  0  0  0  0
  5  6  1  0  0  0  0
  7  8  1  0  0  0  0
  8  6  1  1  0  0  0
  8  9  1  0  0  0  0
 10  9  1  6  0  0  0
 10 11  1  0  0  0  0
 10 12  1  0  0  0  0
 11 16  1  0  0  0  0
 12 13  1  1  0  0  0
 12 14  1  0  0  0  0
 14 15  1  1  0  0  0
 14 16  1  0  0  0  0
 16 27  1  6  0  0  0
 18 23  2  0  0  0  0
 18 19  1  0  0  0  0
 19 20  2  0  0  0  0
 20 21  1  0  0  0  0
 21 22  2  0  0  0  0
 21 27  1  0  0  0  0
 22 23  1  0  0  0  0
 22 25  1  0  0  0  0
 23 24  1  0  0  0  0
 25 26  2  0  0  0  0
 26 27  1  0  0  0  0
M  END
>  <CHROM.1>
-72.39546021,-35.35205838,-74.33112980,-146.32210639,-52.05137503,174.63174052
-145.47946532,13.59996733,-9.83029733,-22.01365983,-0.02467975,0.73530964
1.76189143

>  <Name>
ligand

>  <RI>
0

>  <Rbt.Current_Directory>
/home/itssahil/PROJECTS/Mol_Feturizer/New_Systems/rnas/3E5F

>  <Rbt.Executable>
rbdock ($Id: //depot/dev/client3/rdock/2013.1/src/exe/rbdock.cxx#4 $)

>  <Rbt.Library>
libRbt.so (2013.1, Build901 2013/11/27)

>  <Rbt.Parameter_File>
/export/apps/rDock/src/rDock_2013.1_src/data/scripts/dock_solv.prm

>  <Rbt.Receptor>
prm/blind_docking_40.prm

>  <SCORE>
-17.5856

>  <SCORE.INTER>
-18.5054

>  <SCORE.INTER.CONST>
1

>  <SCORE.INTER.POLAR>
0

>  <SCORE.INTER.ROT>
7

>  <SCORE.INTER.SOLV>
9.00378

>  <SCORE.INTER.VDW>
-23.6049

>  <SCORE.INTER.norm>
-0.685385

>  <SCORE.INTRA>
0.919793

>  <SCORE.INTRA.DIHEDRAL>
1.50105

>  <SCORE.INTRA.DIHEDRAL.0>
4.89803

>  <SCORE.INTRA.POLAR>
0

>  <SCORE.INTRA.POLAR.0>
0

>  <SCORE.INTRA.REPUL>
0

>  <SCORE.INTRA.REPUL.0>
0

>  <SCORE.INTRA.SOLV>
3.17792

>  <SCORE.INTRA.SOLV.lig_0>
-48.5832

>  <SCORE.INTRA.VDW>
-1.41969

>  <SCORE.INTRA.VDW.0>
-2.39056

>  <SCORE.INTRA.norm>
0.0340664

>  <SCORE.RESTR>
0

>  <SCORE.RESTR.CAVITY>
0

>  <SCORE.RESTR.norm>
0

>  <SCORE.SYSTEM>
0

>  <SCORE.SYSTEM.CONST>
0

>  <SCORE.SYSTEM.DIHEDRAL>
0

>  <SCORE.SYSTEM.SOLV>
0

>  <SCORE.SYSTEM.norm>
0

>  <SCORE.heavy>
27

>  <SCORE.norm>
-0.651319

>  <RMSD>
5.300

$$$$
ligand
 OpenBabel11021811473D
libRbt.so/2013.1/901 2013/11/27
 27 29  0  0  0  0  0  0  0  0999 V2000
   18.4001   -6.4950  -20.8128 N   0  0  0  0  0  0  0  0  0  0  0  0
   17.0634   -6.3257  -21.4014 C   0  0  2  0  0  0  0  0  0  0  0  0
   16.3115   -5.2055  -20.6762 C   0  0  0  0  0  0  0  0  0  0  0  0
   16.6015   -5.0131  -19.4752 O   0  0  0  0  0  0  0  0  0  0  0  0
   16.2874   -7.6350  -21.2480 C   0  0  0  0  0  0  0  0  0  0  0  0
   15.0280   -7.6616  -22.1180 C   0  0  0  0  0  0  0  0  0  0  0  0
   13.8331   -9.5396  -23.8830 C   0  0  0  0  0  0  0  0  0  0  0  0
   14.2375   -9.3435  -22.0932 Se  0  0  2  0  0  0  0  0  0  0  0  0
   12.5460   -9.1571  -21.3446 C   0  0  0  0  0  0  0  0  0  0  0  0
   12.2567  -10.1613  -20.2282 C   0  0  1  0  0  0  0  0  0  0  0  0
   11.2238  -11.0544  -20.6789 O   0  0  0  0  0  0  0  0  0  0  0  0
   13.4959  -11.0450  -20.0808 C   0  0  1  0  0  0  0  0  0  0  0  0
   13.3571  -11.8769  -18.9280 O   0  0  0  0  0  0  0  0  0  0  0  0
   13.3518  -11.8833  -21.3485 C   0  0  1  0  0  0  0  0  0  0  0  0
   14.0906  -13.0952  -21.1851 O   0  0  0  0  0  0  0  0  0  0  0  0
   11.8572  -12.1990  -21.2780 C   0  0  2  0  0  0  0  0  0  0  0  0
   15.4569   -4.5724  -21.3346 O   0  0  0  0  0  0  0  0  0  0  0  0
    8.9257  -15.3860  -24.0877 N   0  0  0  0  0  0  0  0  0  0  0  0
    9.2169  -15.4478  -22.7997 C   0  0  0  0  0  0  0  0  0  0  0  0
    9.9884  -14.5475  -22.2160 N   0  0  0  0  0  0  0  0  0  0  0  0
   10.5029  -13.5291  -22.9217 C   0  0  0  0  0  0  0  0  0  0  0  0
   10.2210  -13.4317  -24.2770 C   0  0  0  0  0  0  0  0  0  0  0  0
    9.4087  -14.4003  -24.8548 C   0  0  0  0  0  0  0  0  0  0  0  0
    9.1477  -14.3625  -26.1578 N   0  0  0  0  0  0  0  0  0  0  0  0
   10.8414  -12.3528  -24.7412 N   0  0  0  0  0  0  0  0  0  0  0  0
   11.4887  -11.7921  -23.7222 C   0  0  0  0  0  0  0  0  0  0  0  0
   11.2873  -12.5019  -22.6118 N   0  0  0  0  0  0  0  0  0  0  0  0
  2  1  1  1  0  0  0
  2  5  1  0  0  0  0
  2  3  1  0  0  0  0
  3 17  1  0  0  0  0
  3  4  1  0  0  0  0
  5  6  1  0  0  0  0
  7  8  1  0  0  0  0
  8  6  1  6  0  0  0
  8  9  1  0  0  0  0
 10  9  1  6  0  0  0
 10 11  1  0  0  0  0
 10 12  1  0  0  0  0
 11 16  1  0  0  0  0
 12 13  1  1  0  0  0
 12 14  1  0  0  0  0
 14 15  1  1  0  0  0
 14 16  1  0  0  0  0
 16 27  1  6  0  0  0
 18 23  2  0  0  0  0
 18 19  1  0  0  0  0
 19 20  2  0  0  0  0
 20 21  1  0  0  0  0
 21 22  2  0  0  0  0
 21 27  1  0  0  0  0
 22 23  1  0  0  0  0
 22 25  1  0  0  0  0
 23 24  1  0  0  0  0
 25 26  2  0  0  0  0
 26 27  1  0  0  0  0
M  END
>  <CHROM.1>
-166.27533019,-29.08622785,172.12222071,-136.81555368,-130.17924313,-112.93940795
-108.17687587,13.10832383,-10.45561647,-22.03984745,0.10615007,-0.91257165
-1.09955688

>  <Name>
ligand

>  <RI>
0

>  <Rbt.Current_Directory>
/home/itssahil/PROJECTS/Mol_Feturizer/New_Systems/rnas/3E5F

>  <Rbt.Executable>
rbdock ($Id: //depot/dev/client3/rdock/2013.1/src/exe/rbdock.cxx#4 $)

>  <Rbt.Library>
libRbt.so (2013.1, Build901 2013/11/27)

>  <Rbt.Parameter_File>
/export/apps/rDock/src/rDock_2013.1_src/data/scripts/dock_solv.prm

>  <Rbt.Receptor>
prm/blind_docking_60.prm

>  <SCORE>
-12.0399

>  <SCORE.INTER>
-15.4859

>  <SCORE.INTER.CONST>
1

>  <SCORE.INTER.POLAR>
0

>  <SCORE.INTER.ROT>
7

>  <SCORE.INTER.SOLV>
12.5041

>  <SCORE.INTER.VDW>
-22.7587

>  <SCORE.INTER.norm>
-0.573553

>  <SCORE.INTRA>
3.44608

>  <SCORE.INTRA.DIHEDRAL>
8.12696

>  <SCORE.INTRA.DIHEDRAL.0>
4.89803

>  <SCORE.INTRA.POLAR>
0

>  <SCORE.INTRA.POLAR.0>
0

>  <SCORE.INTRA.REPUL>
0

>  <SCORE.INTRA.REPUL.0>
0

>  <SCORE.INTRA.SOLV>
0.0348205

>  <SCORE.INTRA.SOLV.lig_0>
-48.5832

>  <SCORE.INTRA.VDW>
-0.634811

>  <SCORE.INTRA.VDW.0>
-2.39056

>  <SCORE.INTRA.norm>
0.127633

>  <SCORE.RESTR>
0

>  <SCORE.RESTR.CAVITY>
0

>  <SCORE.RESTR.norm>
0

>  <SCORE.SYSTEM>
0

>  <SCORE.SYSTEM.CONST>
0

>  <SCORE.SYSTEM.DIHEDRAL>
0

>  <SCORE.SYSTEM.SOLV>
0

>  <SCORE.SYSTEM.norm>
0

>  <SCORE.heavy>
27

>  <SCORE.norm>
-0.445921

>  <RMSD>
5.307

$$$$
ligand
 OpenBabel11021811473D
libRbt.so/2013.1/901 2013/11/27
 27 29  0  0  0  0  0  0  0  0999 V2000
   16.1306   -8.1866  -18.5835 N   0  0  0  0  0  0  0  0  0  0  0  0
   15.7838   -6.7595  -18.6531 C   0  0  2  0  0  0  0  0  0  0  0  0
   15.9483   -6.1141  -17.2737 C   0  0  0  0  0  0  0  0  0  0  0  0
   15.4548   -6.7240  -16.3000 O   0  0  0  0  0  0  0  0  0  0  0  0
   14.3273   -6.6270  -19.1011 C   0  0  0  0  0  0  0  0  0  0  0  0
   14.1517   -6.9505  -20.5870 C   0  0  0  0  0  0  0  0  0  0  0  0
   14.3806   -8.7468  -22.7759 C   0  0  0  0  0  0  0  0  0  0  0  0
   14.6986   -8.6874  -20.9591 Se  0  0  2  0  0  0  0  0  0  0  0  0
   13.3899   -9.8382  -20.3114 C   0  0  0  0  0  0  0  0  0  0  0  0
   13.7742  -11.3156  -20.4030 C   0  0  1  0  0  0  0  0  0  0  0  0
   12.7890  -12.0846  -19.6919 O   0  0  0  0  0  0  0  0  0  0  0  0
   13.6133  -11.7362  -21.8643 C   0  0  1  0  0  0  0  0  0  0  0  0
   14.1381  -13.0524  -22.0449 O   0  0  0  0  0  0  0  0  0  0  0  0
   12.0891  -11.7677  -21.9444 C   0  0  1  0  0  0  0  0  0  0  0  0
   11.7029  -12.6030  -23.0373 O   0  0  0  0  0  0  0  0  0  0  0  0
   11.7789  -12.4902  -20.6327 C   0  0  2  0  0  0  0  0  0  0  0  0
   16.5548   -5.0214  -17.2234 O   0  0  0  0  0  0  0  0  0  0  0  0
    8.7123   -9.0518  -18.3051 N   0  0  0  0  0  0  0  0  0  0  0  0
    9.9928   -8.9434  -18.6149 C   0  0  0  0  0  0  0  0  0  0  0  0
   10.6487   -9.9195  -19.2179 N   0  0  0  0  0  0  0  0  0  0  0  0
   10.0254  -11.0629  -19.5406 C   0  0  0  0  0  0  0  0  0  0  0  0
    8.6814  -11.2144  -19.2298 C   0  0  0  0  0  0  0  0  0  0  0  0
    8.0278  -10.1665  -18.5922 C   0  0  0  0  0  0  0  0  0  0  0  0
    6.7508  -10.2890  -18.2436 N   0  0  0  0  0  0  0  0  0  0  0  0
    8.3048  -12.4184  -19.6457 N   0  0  0  0  0  0  0  0  0  0  0  0
    9.3661  -13.0034  -20.1960 C   0  0  0  0  0  0  0  0  0  0  0  0
   10.4167  -12.1848  -20.1360 N   0  0  0  0  0  0  0  0  0  0  0  0
  2  1  1  1  0  0  0
  2  5  1  0  0  0  0
  2  3  1  0  0  0  0
  3 17  1  0  0  0  0
  3  4  1  0  0  0  0
  5  6  1  0  0  0  0
  7  8  1  0  0  0  0
  8  6  1  1  0  0  0
  8  9  1  0  0  0  0
 10  9  1  6  0  0  0
 10 11  1  0  0  0  0
 10 12  1  0  0  0  0
 11 16  1  0  0  0  0
 12 13  1  1  0  0  0
 12 14  1  0  0  0  0
 14 15  1  6  0  0  0
 14 16  1  0  0  0  0
 16 27  1  1  0  0  0
 18 23  2  0  0  0  0
 18 19  1  0  0  0  0
 19 20  2  0  0  0  0
 20 21  1  0  0  0  0
 21 22  2  0  0  0  0
 21 27  1  0  0  0  0
 22 23  1  0  0  0  0
 22 25  1  0  0  0  0
 23 24  1  0  0  0  0
 25 26  2  0  0  0  0
 26 27  1  0  0  0  0
M  END
>  <CHROM.1>
-73.23316188,-46.96842862,59.68699265,-179.51428739,-173.44450859,171.20810440
43.38027150,12.72923266,-9.69054772,-19.94249018,0.56681085,0.37465209,0.73696421

>  <Name>
ligand

>  <RI>
0

>  <Rbt.Current_Directory>
/home/itssahil/PROJECTS/Mol_Feturizer/New_Systems/rnas/3E5F

>  <Rbt.Executable>
rbdock ($Id: //depot/dev/client3/rdock/2013.1/src/exe/rbdock.cxx#4 $)

>  <Rbt.Library>
libRbt.so (2013.1, Build901 2013/11/27)

>  <Rbt.Parameter_File>
/export/apps/rDock/src/rDock_2013.1_src/data/scripts/dock_solv.prm

>  <Rbt.Receptor>
prm/pocket_docking_6.prm

>  <SCORE>
-10.6817

>  <SCORE.INTER>
-10.6196

>  <SCORE.INTER.CONST>
1

>  <SCORE.INTER.POLAR>
0

>  <SCORE.INTER.ROT>
7

>  <SCORE.INTER.SOLV>
12.8244

>  <SCORE.INTER.VDW>
-19.6212

>  <SCORE.INTER.norm>
-0.393319

>  <SCORE.INTRA>
-0.062112

>  <SCORE.INTRA.DIHEDRAL>
-0.6376

>  <SCORE.INTRA.DIHEDRAL.0>
4.89803

>  <SCORE.INTRA.POLAR>
0

>  <SCORE.INTRA.POLAR.0>
0

>  <SCORE.INTRA.REPUL>
0

>  <SCORE.INTRA.REPUL.0>
0

>  <SCORE.INTRA.SOLV>
2.38783

>  <SCORE.INTRA.SOLV.lig_0>
-48.5832

>  <SCORE.INTRA.VDW>
-0.937227

>  <SCORE.INTRA.VDW.0>
-2.39056

>  <SCORE.INTRA.norm>
-0.00230044

>  <SCORE.RESTR>
0

>  <SCORE.RESTR.CAVITY>
0

>  <SCORE.RESTR.norm>
0

>  <SCORE.SYSTEM>
0

>  <SCORE.SYSTEM.CONST>
0

>  <SCORE.SYSTEM.DIHEDRAL>
0

>  <SCORE.SYSTEM.SOLV>
0

>  <SCORE.SYSTEM.norm>
0

>  <SCORE.heavy>
27

>  <SCORE.norm>
-0.39562

>  <RMSD>
5.313

$$$$
ligand
 OpenBabel11021811473D
libRbt.so/2013.1/901 2013/11/27
 27 29  0  0  0  0  0  0  0  0999 V2000
   17.3186   -4.2801  -21.9294 N   0  0  0  0  0  0  0  0  0  0  0  0
   16.5274   -5.0944  -20.9952 C   0  0  2  0  0  0  0  0  0  0  0  0
   17.2277   -5.1567  -19.6343 C   0  0  0  0  0  0  0  0  0  0  0  0
   16.4974   -5.1357  -18.6195 O   0  0  0  0  0  0  0  0  0  0  0  0
   16.3990   -6.5097  -21.5612 C   0  0  0  0  0  0  0  0  0  0  0  0
   15.6914   -6.5235  -22.9186 C   0  0  0  0  0  0  0  0  0  0  0  0
   15.6669   -7.7869  -25.4629 C   0  0  0  0  0  0  0  0  0  0  0  0
   15.7275   -8.2228  -23.6707 Se  0  0  2  0  0  0  0  0  0  0  0  0
   14.0518   -8.9857  -23.4133 C   0  0  0  0  0  0  0  0  0  0  0  0
   13.5642   -8.9177  -21.9655 C   0  0  1  0  0  0  0  0  0  0  0  0
   12.2039   -9.3820  -21.9235 O   0  0  0  0  0  0  0  0  0  0  0  0
   14.3538   -9.9592  -21.1717 C   0  0  1  0  0  0  0  0  0  0  0  0
   14.0766   -9.8113  -19.7783 O   0  0  0  0  0  0  0  0  0  0  0  0
   13.6904  -11.2275  -21.7029 C   0  0  1  0  0  0  0  0  0  0  0  0
   13.8994  -12.2839  -20.7640 O   0  0  0  0  0  0  0  0  0  0  0  0
   12.2252  -10.7934  -21.6448 C   0  0  2  0  0  0  0  0  0  0  0  0
   18.4771   -5.2144  -19.6374 O   0  0  0  0  0  0  0  0  0  0  0  0
    8.7193  -14.5306  -22.2671 N   0  0  0  0  0  0  0  0  0  0  0  0
    9.2766  -14.0954  -21.1501 C   0  0  0  0  0  0  0  0  0  0  0  0
   10.1672  -13.1189  -21.1505 N   0  0  0  0  0  0  0  0  0  0  0  0
   10.5341  -12.5304  -22.2989 C   0  0  0  0  0  0  0  0  0  0  0  0
    9.9720  -12.9614  -23.4923 C   0  0  0  0  0  0  0  0  0  0  0  0
    9.0420  -13.9935  -23.4506 C   0  0  0  0  0  0  0  0  0  0  0  0
    8.5105  -14.4596  -24.5764 N   0  0  0  0  0  0  0  0  0  0  0  0
   10.4946  -12.2309  -24.4710 N   0  0  0  0  0  0  0  0  0  0  0  0
   11.3514  -11.3747  -23.9195 C   0  0  0  0  0  0  0  0  0  0  0  0
   11.3807  -11.5505  -22.5983 N   0  0  0  0  0  0  0  0  0  0  0  0
  2  1  1  6  0  0  0
  2  5  1  0  0  0  0
  2  3  1  0  0  0  0
  3 17  1  0  0  0  0
  3  4  1  0  0  0  0
  5  6  1  0  0  0  0
  7  8  1  0  0  0  0
  8  6  1  1  0  0  0
  8  9  1  0  0  0  0
 10  9  1  6  0  0  0
 10 11  1  0  0  0  0
 10 12  1  0  0  0  0
 11 16  1  0  0  0  0
 12 13  1  1  0  0  0
 12 14  1  0  0  0  0
 14 15  1  1  0  0  0
 14 16  1  0  0  0  0
 16 27  1  6  0  0  0
 18 23  2  0  0  0  0
 18 19  1  0  0  0  0
 19 20  2  0  0  0  0
 20 21  1  0  0  0  0
 21 22  2  0  0  0  0
 21 27  1  0  0  0  0
 22 23  1  0  0  0  0
 22 25  1  0  0  0  0
 23 24  1  0  0  0  0
 25 26  2  0  0  0  0
 26 27  1  0  0  0  0
M  END
>  <CHROM.1>
-60.60169116,142.63896832,173.34178860,-151.93970205,-50.92971683,172.93117475
-136.08934300,13.68795444,-9.53215115,-22.28034829,-0.15745047,-0.81181354
-1.60065838

>  <Name>
ligand

>  <RI>
0

>  <Rbt.Current_Directory>
/home/itssahil/PROJECTS/Mol_Feturizer/New_Systems/rnas/3E5F

>  <Rbt.Executable>
rbdock ($Id: //depot/dev/client3/rdock/2013.1/src/exe/rbdock.cxx#4 $)

>  <Rbt.Library>
libRbt.so (2013.1, Build901 2013/11/27)

>  <Rbt.Parameter_File>
/export/apps/rDock/src/rDock_2013.1_src/data/scripts/dock_solv.prm

>  <Rbt.Receptor>
prm/blind_docking_80.prm

>  <SCORE>
-18.6347

>  <SCORE.INTER>
-18.8717

>  <SCORE.INTER.CONST>
1

>  <SCORE.INTER.POLAR>
0

>  <SCORE.INTER.ROT>
7

>  <SCORE.INTER.SOLV>
11.5796

>  <SCORE.INTER.VDW>
-24.7077

>  <SCORE.INTER.norm>
-0.698952

>  <SCORE.INTRA>
0.236979

>  <SCORE.INTRA.DIHEDRAL>
0.187996

>  <SCORE.INTRA.DIHEDRAL.0>
4.89803

>  <SCORE.INTRA.POLAR>
0

>  <SCORE.INTRA.POLAR.0>
0

>  <SCORE.INTRA.REPUL>
0

>  <SCORE.INTRA.REPUL.0>
0

>  <SCORE.INTRA.SOLV>
0.695547

>  <SCORE.INTRA.SOLV.lig_0>
-48.5832

>  <SCORE.INTRA.VDW>
-0.204793

>  <SCORE.INTRA.VDW.0>
-2.39056

>  <SCORE.INTRA.norm>
0.00877699

>  <SCORE.RESTR>
0

>  <SCORE.RESTR.CAVITY>
0

>  <SCORE.RESTR.norm>
0

>  <SCORE.SYSTEM>
0

>  <SCORE.SYSTEM.CONST>
0

>  <SCORE.SYSTEM.DIHEDRAL>
0

>  <SCORE.SYSTEM.SOLV>
0

>  <SCORE.SYSTEM.norm>
0

>  <SCORE.heavy>
27

>  <SCORE.norm>
-0.690175

>  <RMSD>
5.318

$$$$
ligand
 OpenBabel11021811473D
libRbt.so/2013.1/901 2013/11/27
 27 29  0  0  0  0  0  0  0  0999 V2000
   18.9270   -5.1044  -21.5794 N   0  0  0  0  0  0  0  0  0  0  0  0
   17.4646   -5.2010  -21.6970 C   0  0  2  0  0  0  0  0  0  0  0  0
   16.8357   -3.8122  -21.5487 C   0  0  0  0  0  0  0  0  0  0  0  0
   15.6196   -3.7087  -21.8205 O   0  0  0  0  0  0  0  0  0  0  0  0
   16.9396   -6.1131  -20.5868 C   0  0  0  0  0  0  0  0  0  0  0  0
   15.5171   -6.6027  -20.8703 C   0  0  0  0  0  0  0  0  0  0  0  0
   15.7439   -7.2854  -23.6186 C   0  0  0  0  0  0  0  0  0  0  0  0
   15.5356   -8.0976  -21.9746 Se  0  0  2  0  0  0  0  0  0  0  0  0
   13.7920   -8.7326  -22.0881 C   0  0  0  0  0  0  0  0  0  0  0  0
   13.0497   -8.7252  -20.7512 C   0  0  1  0  0  0  0  0  0  0  0  0
   11.7055   -9.1832  -20.9771 O   0  0  0  0  0  0  0  0  0  0  0  0
   13.6847   -9.8050  -19.8742 C   0  0  1  0  0  0  0  0  0  0  0  0
   13.1590   -9.7166  -18.5489 O   0  0  0  0  0  0  0  0  0  0  0  0
   13.1316  -11.0450  -20.5722 C   0  0  1  0  0  0  0  0  0  0  0  0
   13.1693  -12.1427  -19.6585 O   0  0  0  0  0  0  0  0  0  0  0  0
   11.6792  -10.6056  -20.7616 C   0  0  2  0  0  0  0  0  0  0  0  0
   17.5855   -2.8829  -21.1766 O   0  0  0  0  0  0  0  0  0  0  0  0
    9.0963  -14.8086  -22.2807 N   0  0  0  0  0  0  0  0  0  0  0  0
    9.5445  -14.5026  -21.0753 C   0  0  0  0  0  0  0  0  0  0  0  0
   10.1942  -13.3762  -20.8389 N   0  0  0  0  0  0  0  0  0  0  0  0
   10.4180  -12.4971  -21.8274 C   0  0  0  0  0  0  0  0  0  0  0  0
    9.9640  -12.7845  -23.1070 C   0  0  0  0  0  0  0  0  0  0  0  0
    9.2884  -13.9811  -23.3158 C   0  0  0  0  0  0  0  0  0  0  0  0
    8.8723  -14.3092  -24.5351 N   0  0  0  0  0  0  0  0  0  0  0  0
   10.3081  -11.7711  -23.8938 N   0  0  0  0  0  0  0  0  0  0  0  0
   10.9529  -10.8809  -23.1432 C   0  0  0  0  0  0  0  0  0  0  0  0
   11.0234  -11.3154  -21.8848 N   0  0  0  0  0  0  0  0  0  0  0  0
  2  1  1  1  0  0  0
  2  5  1  0  0  0  0
  2  3  1  0  0  0  0
  3 17  1  0  0  0  0
  3  4  1  0  0  0  0
  5  6  1  0  0  0  0
  7  8  1  0  0  0  0
  8  6  1  1  0  0  0
  8  9  1  0  0  0  0
 10  9  1  6  0  0  0
 10 11  1  0  0  0  0
 10 12  1  0  0  0  0
 11 16  1  0  0  0  0
 12 13  1  1  0  0  0
 12 14  1  0  0  0  0
 14 15  1  1  0  0  0
 14 16  1  0  0  0  0
 16 27  1  6  0  0  0
 18 23  2  0  0  0  0
 18 19  1  0  0  0  0
 19 20  2  0  0  0  0
 20 21  1  0  0  0  0
 21 22  2  0  0  0  0
 21 27  1  0  0  0  0
 22 23  1  0  0  0  0
 22 25  1  0  0  0  0
 23 24  1  0  0  0  0
 25 26  2  0  0  0  0
 26 27  1  0  0  0  0
M  END
>  <CHROM.1>
-162.99127275,169.81106693,84.07274400,-80.99808039,-42.04306151,177.69399564
-154.53795978,13.52351131,-9.27345332,-21.64929741,0.18633071,-0.84675636
-1.23568837

>  <Name>
ligand

>  <RI>
0

>  <Rbt.Current_Directory>
/home/itssahil/PROJECTS/Mol_Feturizer/New_Systems/rnas/3E5F

>  <Rbt.Executable>
rbdock ($Id: //depot/dev/client3/rdock/2013.1/src/exe/rbdock.cxx#4 $)

>  <Rbt.Library>
libRbt.so (2013.1, Build901 2013/11/27)

>  <Rbt.Parameter_File>
/export/apps/rDock/src/rDock_2013.1_src/data/scripts/dock_solv.prm

>  <Rbt.Receptor>
prm/blind_docking_40.prm

>  <SCORE>
-15.3323

>  <SCORE.INTER>
-16.7032

>  <SCORE.INTER.CONST>
1

>  <SCORE.INTER.POLAR>
0

>  <SCORE.INTER.ROT>
7

>  <SCORE.INTER.SOLV>
10.7945

>  <SCORE.INTER.VDW>
-23.0003

>  <SCORE.INTER.norm>
-0.618636

>  <SCORE.INTRA>
1.37085

>  <SCORE.INTRA.DIHEDRAL>
2.19452

>  <SCORE.INTRA.DIHEDRAL.0>
4.89803

>  <SCORE.INTRA.POLAR>
0

>  <SCORE.INTRA.POLAR.0>
0

>  <SCORE.INTRA.REPUL>
0

>  <SCORE.INTRA.REPUL.0>
0

>  <SCORE.INTRA.SOLV>
0.415711

>  <SCORE.INTRA.SOLV.lig_0>
-48.5832

>  <SCORE.INTRA.VDW>
0.0657309

>  <SCORE.INTRA.VDW.0>
-2.39056

>  <SCORE.INTRA.norm>
0.0507722

>  <SCORE.RESTR>
0

>  <SCORE.RESTR.CAVITY>
0

>  <SCORE.RESTR.norm>
0

>  <SCORE.SYSTEM>
0

>  <SCORE.SYSTEM.CONST>
0

>  <SCORE.SYSTEM.DIHEDRAL>
0

>  <SCORE.SYSTEM.SOLV>
0

>  <SCORE.SYSTEM.norm>
0

>  <SCORE.heavy>
27

>  <SCORE.norm>
-0.567864

>  <RMSD>
5.322

$$$$
ligand
 OpenBabel11021811473D
libRbt.so/2013.1/901 2013/11/27
 27 29  0  0  0  0  0  0  0  0999 V2000
   17.0260   -6.3660  -20.5383 N   0  0  0  0  0  0  0  0  0  0  0  0
   16.0606   -7.2978  -19.9369 C   0  0  2  0  0  0  0  0  0  0  0  0
   16.5967   -7.8131  -18.5978 C   0  0  0  0  0  0  0  0  0  0  0  0
   17.8198   -8.0658  -18.5362 O   0  0  0  0  0  0  0  0  0  0  0  0
   15.8578   -8.4794  -20.8869 C   0  0  0  0  0  0  0  0  0  0  0  0
   15.0429   -8.0894  -22.1228 C   0  0  0  0  0  0  0  0  0  0  0  0
   14.2769   -8.8319  -24.7557 C   0  0  0  0  0  0  0  0  0  0  0  0
   14.5510   -9.5937  -23.0974 Se  0  0  2  0  0  0  0  0  0  0  0  0
   12.8169  -10.0422  -22.5994 C   0  0  0  0  0  0  0  0  0  0  0  0
   12.4650   -9.6306  -21.1692 C   0  0  1  0  0  0  0  0  0  0  0  0
   11.2130  -10.2437  -20.8167 O   0  0  0  0  0  0  0  0  0  0  0  0
   13.4911  -10.2852  -20.2435 C   0  0  1  0  0  0  0  0  0  0  0  0
   13.3269   -9.7847  -18.9158 O   0  0  0  0  0  0  0  0  0  0  0  0
   13.0040  -11.7300  -20.3194 C   0  0  1  0  0  0  0  0  0  0  0  0
   13.4768  -12.4360  -19.1709 O   0  0  0  0  0  0  0  0  0  0  0  0
   11.4988  -11.5003  -20.1769 C   0  0  2  0  0  0  0  0  0  0  0  0
   15.7716   -7.9525  -17.6682 O   0  0  0  0  0  0  0  0  0  0  0  0
    9.5630  -13.5929  -24.4802 N   0  0  0  0  0  0  0  0  0  0  0  0
   10.2996  -12.5032  -24.3480 C   0  0  0  0  0  0  0  0  0  0  0  0
   10.7265  -12.0900  -23.1674 N   0  0  0  0  0  0  0  0  0  0  0  0
   10.4238  -12.7749  -22.0543 C   0  0  0  0  0  0  0  0  0  0  0  0
    9.6508  -13.9232  -22.1530 C   0  0  0  0  0  0  0  0  0  0  0  0
    9.2179  -14.3229  -23.4118 C   0  0  0  0  0  0  0  0  0  0  0  0
    8.4436  -15.3956  -23.5425 N   0  0  0  0  0  0  0  0  0  0  0  0
    9.4925  -14.4092  -20.9269 N   0  0  0  0  0  0  0  0  0  0  0  0
   10.1380  -13.6018  -20.0885 C   0  0  0  0  0  0  0  0  0  0  0  0
   10.7074  -12.6054  -20.7670 N   0  0  0  0  0  0  0  0  0  0  0  0
  2  1  1  6  0  0  0
  2  5  1  0  0  0  0
  2  3  1  0  0  0  0
  3 17  1  0  0  0  0
  3  4  1  0  0  0  0
  5  6  1  0  0  0  0
  7  8  1  0  0  0  0
  8  6  1  1  0  0  0
  8  9  1  0  0  0  0
 10  9  1  6  0  0  0
 10 11  1  0  0  0  0
 10 12  1  0  0  0  0
 11 16  1  0  0  0  0
 12 13  1  1  0  0  0
 12 14  1  0  0  0  0
 14 15  1  1  0  0  0
 14 16  1  0  0  0  0
 16 27  1  6  0  0  0
 18 23  2  0  0  0  0
 18 19  1  0  0  0  0
 19 20  2  0  0  0  0
 20 21  1  0  0  0  0
 21 22  2  0  0  0  0
 21 27  1  0  0  0  0
 22 23  1  0  0  0  0
 22 25  1  0  0  0  0
 23 24  1  0  0  0  0
 25 26  2  0  0  0  0
 26 27  1  0  0  0  0
M  END
>  <CHROM.1>
-72.55152360,-39.26980680,-169.71610658,-157.08105524,-28.47449474,-169.29277091
39.02418450,13.05599504,-10.60895042,-21.50125677,-0.19020088,-0.74980446
-1.45026480

>  <Name>
ligand

>  <RI>
0

>  <Rbt.Current_Directory>
/home/itssahil/PROJECTS/Mol_Feturizer/New_Systems/rnas/3E5F

>  <Rbt.Executable>
rbdock ($Id: //depot/dev/client3/rdock/2013.1/src/exe/rbdock.cxx#4 $)

>  <Rbt.Library>
libRbt.so (2013.1, Build901 2013/11/27)

>  <Rbt.Parameter_File>
/export/apps/rDock/src/rDock_2013.1_src/data/scripts/dock_solv.prm

>  <Rbt.Receptor>
prm/blind_docking_40.prm

>  <SCORE>
-16.7673

>  <SCORE.INTER>
-17.7705

>  <SCORE.INTER.CONST>
1

>  <SCORE.INTER.POLAR>
0

>  <SCORE.INTER.ROT>
7

>  <SCORE.INTER.SOLV>
8.89715

>  <SCORE.INTER.VDW>
-23.0794

>  <SCORE.INTER.norm>
-0.658167

>  <SCORE.INTRA>
0.972962

>  <SCORE.INTRA.DIHEDRAL>
2.20977

>  <SCORE.INTRA.DIHEDRAL.0>
4.89803

>  <SCORE.INTRA.POLAR>
0

>  <SCORE.INTRA.POLAR.0>
0

>  <SCORE.INTRA.REPUL>
0

>  <SCORE.INTRA.REPUL.0>
0

>  <SCORE.INTRA.SOLV>
1.10425

>  <SCORE.INTRA.SOLV.lig_0>
-48.5832

>  <SCORE.INTRA.VDW>
-0.68405

>  <SCORE.INTRA.VDW.0>
-2.39056

>  <SCORE.INTRA.norm>
0.0360356

>  <SCORE.RESTR>
0.0302429

>  <SCORE.RESTR.CAVITY>
0.0302429

>  <SCORE.RESTR.norm>
0.00112011

>  <SCORE.SYSTEM>
0

>  <SCORE.SYSTEM.CONST>
0

>  <SCORE.SYSTEM.DIHEDRAL>
0

>  <SCORE.SYSTEM.SOLV>
0

>  <SCORE.SYSTEM.norm>
0

>  <SCORE.heavy>
27

>  <SCORE.norm>
-0.621011

>  <RMSD>
5.333

$$$$
ligand
 OpenBabel11021811473D
libRbt.so/2013.1/901 2013/11/27
 27 29  0  0  0  0  0  0  0  0999 V2000
   12.4524   -0.5216  -17.7726 N   0  0  0  0  0  0  0  0  0  0  0  0
   11.7956   -1.8177  -17.9975 C   0  0  2  0  0  0  0  0  0  0  0  0
   10.5158   -1.9069  -17.1605 C   0  0  0  0  0  0  0  0  0  0  0  0
   10.6503   -1.9058  -15.9173 O   0  0  0  0  0  0  0  0  0  0  0  0
   12.7519   -2.9350  -17.5768 C   0  0  0  0  0  0  0  0  0  0  0  0
   12.1879   -4.3228  -17.8923 C   0  0  0  0  0  0  0  0  0  0  0  0
   11.7842   -6.3034  -19.8884 C   0  0  0  0  0  0  0  0  0  0  0  0
   11.7478   -4.4688  -19.6922 Se  0  0  2  0  0  0  0  0  0  0  0  0
   13.2388   -3.9565  -20.6774 C   0  0  0  0  0  0  0  0  0  0  0  0
   14.5623   -4.1744  -19.9428 C   0  0  1  0  0  0  0  0  0  0  0  0
   14.8283   -5.5868  -19.8984 O   0  0  0  0  0  0  0  0  0  0  0  0
   15.6707   -3.5990  -20.8252 C   0  0  1  0  0  0  0  0  0  0  0  0
   16.9057   -3.6034  -20.1076 O   0  0  0  0  0  0  0  0  0  0  0  0
   15.6974   -4.6682  -21.9145 C   0  0  1  0  0  0  0  0  0  0  0  0
   16.9652   -4.6240  -22.5717 O   0  0  0  0  0  0  0  0  0  0  0  0
   15.6328   -5.9231  -21.0429 C   0  0  2  0  0  0  0  0  0  0  0  0
    9.4324   -1.9838  -17.7806 O   0  0  0  0  0  0  0  0  0  0  0  0
   15.2808   -8.3954  -25.5605 N   0  0  0  0  0  0  0  0  0  0  0  0
   15.9430   -7.2883  -25.2716 C   0  0  0  0  0  0  0  0  0  0  0  0
   15.9393   -6.7717  -24.0551 N   0  0  0  0  0  0  0  0  0  0  0  0
   15.2574   -7.3652  -23.0638 C   0  0  0  0  0  0  0  0  0  0  0  0
   14.5485   -8.5285  -23.3292 C   0  0  0  0  0  0  0  0  0  0  0  0
   14.5741   -9.0381  -24.6220 C   0  0  0  0  0  0  0  0  0  0  0  0
   13.8764  -10.1287  -24.9240 N   0  0  0  0  0  0  0  0  0  0  0  0
   13.9660   -8.9122  -22.1988 N   0  0  0  0  0  0  0  0  0  0  0  0
   14.2925   -8.0285  -21.2586 C   0  0  0  0  0  0  0  0  0  0  0  0
   15.0782   -7.0846  -21.7771 N   0  0  0  0  0  0  0  0  0  0  0  0
  2  1  1  1  0  0  0
  2  5  1  0  0  0  0
  2  3  1  0  0  0  0
  3 17  1  0  0  0  0
  3  4  1  0  0  0  0
  5  6  1  0  0  0  0
  7  8  1  0  0  0  0
  8  6  1  1  0  0  0
  8  9  1  0  0  0  0
 10  9  1  6  0  0  0
 10 11  1  0  0  0  0
 10 12  1  0  0  0  0
 11 16  1  0  0  0  0
 12 13  1  1  0  0  0
 12 14  1  0  0  0  0
 14 15  1  1  0  0  0
 14 16  1  0  0  0  0
 16 27  1  6  0  0  0
 18 23  2  0  0  0  0
 18 19  1  0  0  0  0
 19 20  2  0  0  0  0
 20 21  1  0  0  0  0
 21 22  2  0  0  0  0
 21 27  1  0  0  0  0
 22 23  1  0  0  0  0
 22 25  1  0  0  0  0
 23 24  1  0  0  0  0
 25 26  2  0  0  0  0
 26 27  1  0  0  0  0
M  END
>  <CHROM.1>
-175.09098555,-64.89844303,55.41153711,158.09681270,26.83542117,72.28167887
154.72171583,13.56412553,-5.12937707,-20.65765012,-2.05017286,-0.37433920
-2.49102884

>  <Name>
ligand

>  <RI>
0

>  <Rbt.Current_Directory>
/home/itssahil/PROJECTS/Mol_Feturizer/New_Systems/rnas/3E5F

>  <Rbt.Executable>
rbdock ($Id: //depot/dev/client3/rdock/2013.1/src/exe/rbdock.cxx#4 $)

>  <Rbt.Library>
libRbt.so (2013.1, Build901 2013/11/27)

>  <Rbt.Parameter_File>
/export/apps/rDock/src/rDock_2013.1_src/data/scripts/dock_solv.prm

>  <Rbt.Receptor>
prm/pocket_docking_7.prm

>  <SCORE>
-19.6702

>  <SCORE.INTER>
-19.7748

>  <SCORE.INTER.CONST>
1

>  <SCORE.INTER.POLAR>
0

>  <SCORE.INTER.ROT>
7

>  <SCORE.INTER.SOLV>
18.7511

>  <SCORE.INTER.VDW>
-27.7002

>  <SCORE.INTER.norm>
-0.7324

>  <SCORE.INTRA>
0.104571

>  <SCORE.INTRA.DIHEDRAL>
-0.0423454

>  <SCORE.INTRA.DIHEDRAL.0>
4.89803

>  <SCORE.INTRA.POLAR>
0

>  <SCORE.INTRA.POLAR.0>
0

>  <SCORE.INTRA.REPUL>
0

>  <SCORE.INTRA.REPUL.0>
0

>  <SCORE.INTRA.SOLV>
0.508418

>  <SCORE.INTRA.SOLV.lig_0>
-48.5832

>  <SCORE.INTRA.VDW>
-0.128465

>  <SCORE.INTRA.VDW.0>
-2.39056

>  <SCORE.INTRA.norm>
0.003873

>  <SCORE.RESTR>
0

>  <SCORE.RESTR.CAVITY>
0

>  <SCORE.RESTR.norm>
0

>  <SCORE.SYSTEM>
0

>  <SCORE.SYSTEM.CONST>
0

>  <SCORE.SYSTEM.DIHEDRAL>
0

>  <SCORE.SYSTEM.SOLV>
0

>  <SCORE.SYSTEM.norm>
0

>  <SCORE.heavy>
27

>  <SCORE.norm>
-0.728527

>  <RMSD>
5.333

$$$$
ligand
 OpenBabel11021811473D
libRbt.so/2013.1/901 2013/11/27
 27 29  0  0  0  0  0  0  0  0999 V2000
   16.6994   -7.1538  -19.4521 N   0  0  0  0  0  0  0  0  0  0  0  0
   17.2392   -6.9747  -20.8079 C   0  0  2  0  0  0  0  0  0  0  0  0
   18.5169   -6.1317  -20.7543 C   0  0  0  0  0  0  0  0  0  0  0  0
   19.4318   -6.4377  -21.5499 O   0  0  0  0  0  0  0  0  0  0  0  0
   16.1956   -6.2544  -21.6634 C   0  0  0  0  0  0  0  0  0  0  0  0
   14.8798   -7.0329  -21.7408 C   0  0  0  0  0  0  0  0  0  0  0  0
   15.3008   -8.0262  -24.3688 C   0  0  0  0  0  0  0  0  0  0  0  0
   15.1112   -8.6431  -22.6399 Se  0  0  2  0  0  0  0  0  0  0  0  0
   13.4548   -9.4832  -22.7209 C   0  0  0  0  0  0  0  0  0  0  0  0
   13.5353  -11.0067  -22.6153 C   0  0  1  0  0  0  0  0  0  0  0  0
   13.1016  -11.3930  -21.2999 O   0  0  0  0  0  0  0  0  0  0  0  0
   12.4772  -11.5830  -23.5569 C   0  0  1  0  0  0  0  0  0  0  0  0
   12.6330  -13.0003  -23.6429 O   0  0  0  0  0  0  0  0  0  0  0  0
   11.2236  -11.2446  -22.7541 C   0  0  1  0  0  0  0  0  0  0  0  0
   10.1638  -12.1077  -23.1702 O   0  0  0  0  0  0  0  0  0  0  0  0
   11.6905  -11.6669  -21.3605 C   0  0  2  0  0  0  0  0  0  0  0  0
   18.5554   -5.2064  -19.9136 O   0  0  0  0  0  0  0  0  0  0  0  0
   12.0051   -8.9037  -17.0118 N   0  0  0  0  0  0  0  0  0  0  0  0
   12.9829   -9.3887  -17.7575 C   0  0  0  0  0  0  0  0  0  0  0  0
   12.7426  -10.0830  -18.8561 N   0  0  0  0  0  0  0  0  0  0  0  0
   11.4827  -10.3163  -19.2539 C   0  0  0  0  0  0  0  0  0  0  0  0
   10.4294   -9.8246  -18.4958 C   0  0  0  0  0  0  0  0  0  0  0  0
   10.7234   -9.1024  -17.3451 C   0  0  0  0  0  0  0  0  0  0  0  0
    9.7415   -8.6485  -16.5724 N   0  0  0  0  0  0  0  0  0  0  0  0
    9.2995  -10.1873  -19.0926 N   0  0  0  0  0  0  0  0  0  0  0  0
    9.6249  -10.8795  -20.1818 C   0  0  0  0  0  0  0  0  0  0  0  0
   10.9514  -10.9619  -20.2869 N   0  0  0  0  0  0  0  0  0  0  0  0
  2  1  1  1  0  0  0
  2  5  1  0  0  0  0
  2  3  1  0  0  0  0
  3 17  1  0  0  0  0
  3  4  1  0  0  0  0
  5  6  1  0  0  0  0
  7  8  1  0  0  0  0
  8  6  1  1  0  0  0
  8  9  1  0  0  0  0
 10  9  1  1  0  0  0
 10 11  1  0  0  0  0
 10 12  1  0  0  0  0
 11 16  1  0  0  0  0
 12 13  1  1  0  0  0
 12 14  1  0  0  0  0
 14 15  1  6  0  0  0
 14 16  1  0  0  0  0
 16 27  1  1  0  0  0
 18 23  2  0  0  0  0
 18 19  1  0  0  0  0
 19 20  2  0  0  0  0
 20 21  1  0  0  0  0
 21 22  2  0  0  0  0
 21 27  1  0  0  0  0
 22 23  1  0  0  0  0
 22 25  1  0  0  0  0
 23 24  1  0  0  0  0
 25 26  2  0  0  0  0
 26 27  1  0  0  0  0
M  END
>  <CHROM.1>
-58.99992150,143.19862194,-65.65815408,-72.64857022,-144.97071457,104.93987204
-9.87609203,13.67096338,-9.21125953,-21.05390909,0.07049827,0.56753976,1.10501842

>  <Name>
ligand

>  <RI>
0

>  <Rbt.Current_Directory>
/home/itssahil/PROJECTS/Mol_Feturizer/New_Systems/rnas/3E5F

>  <Rbt.Executable>
rbdock ($Id: //depot/dev/client3/rdock/2013.1/src/exe/rbdock.cxx#4 $)

>  <Rbt.Library>
libRbt.so (2013.1, Build901 2013/11/27)

>  <Rbt.Parameter_File>
/export/apps/rDock/src/rDock_2013.1_src/data/scripts/dock_solv.prm

>  <Rbt.Receptor>
prm/pocket_docking_4.prm

>  <SCORE>
-11.5138

>  <SCORE.INTER>
-14.2535

>  <SCORE.INTER.CONST>
1

>  <SCORE.INTER.POLAR>
0

>  <SCORE.INTER.ROT>
7

>  <SCORE.INTER.SOLV>
5.44188

>  <SCORE.INTER.VDW>
-19.5829

>  <SCORE.INTER.norm>
-0.527906

>  <SCORE.INTRA>
2.73962

>  <SCORE.INTRA.DIHEDRAL>
4.31707

>  <SCORE.INTRA.DIHEDRAL.0>
4.89803

>  <SCORE.INTRA.POLAR>
0

>  <SCORE.INTRA.POLAR.0>
0

>  <SCORE.INTRA.REPUL>
0

>  <SCORE.INTRA.REPUL.0>
0

>  <SCORE.INTRA.SOLV>
0.850958

>  <SCORE.INTRA.SOLV.lig_0>
-48.5832

>  <SCORE.INTRA.VDW>
0.15561

>  <SCORE.INTRA.VDW.0>
-2.39056

>  <SCORE.INTRA.norm>
0.101468

>  <SCORE.RESTR>
0

>  <SCORE.RESTR.CAVITY>
0

>  <SCORE.RESTR.norm>
0

>  <SCORE.SYSTEM>
0

>  <SCORE.SYSTEM.CONST>
0

>  <SCORE.SYSTEM.DIHEDRAL>
0

>  <SCORE.SYSTEM.SOLV>
0

>  <SCORE.SYSTEM.norm>
0

>  <SCORE.heavy>
27

>  <SCORE.norm>
-0.426438

>  <RMSD>
5.340

$$$$
ligand
 OpenBabel11021811473D
libRbt.so/2013.1/901 2013/11/27
 27 29  0  0  0  0  0  0  0  0999 V2000
   11.5621   -8.5695  -18.2505 N   0  0  0  0  0  0  0  0  0  0  0  0
   12.1049   -7.2154  -18.0668 C   0  0  2  0  0  0  0  0  0  0  0  0
   11.3130   -6.2157  -18.9152 C   0  0  0  0  0  0  0  0  0  0  0  0
   11.0917   -5.0936  -18.4099 O   0  0  0  0  0  0  0  0  0  0  0  0
   13.5684   -7.2059  -18.5117 C   0  0  0  0  0  0  0  0  0  0  0  0
   14.4862   -7.8691  -17.4815 C   0  0  0  0  0  0  0  0  0  0  0  0
   17.1200   -7.9173  -16.4180 C   0  0  0  0  0  0  0  0  0  0  0  0
   16.2564   -7.8336  -18.0468 Se  0  0  2  0  0  0  0  0  0  0  0  0
   16.6384   -6.0955  -18.5849 C   0  0  0  0  0  0  0  0  0  0  0  0
   17.9015   -5.9830  -19.4395 C   0  0  1  0  0  0  0  0  0  0  0  0
   17.9111   -7.0716  -20.3790 O   0  0  0  0  0  0  0  0  0  0  0  0
   17.7554   -4.7286  -20.3016 C   0  0  1  0  0  0  0  0  0  0  0  0
   18.9845   -4.4681  -20.9813 O   0  0  0  0  0  0  0  0  0  0  0  0
   16.7089   -5.2320  -21.2925 C   0  0  1  0  0  0  0  0  0  0  0  0
   16.7755   -4.4353  -22.4766 O   0  0  0  0  0  0  0  0  0  0  0  0
   17.2852   -6.6165  -21.5920 C   0  0  2  0  0  0  0  0  0  0  0  0
   10.9381   -6.5975  -20.0457 O   0  0  0  0  0  0  0  0  0  0  0  0
   14.5031   -8.3356  -25.5856 N   0  0  0  0  0  0  0  0  0  0  0  0
   15.4300   -7.3933  -25.5664 C   0  0  0  0  0  0  0  0  0  0  0  0
   16.0633   -7.0616  -24.4549 N   0  0  0  0  0  0  0  0  0  0  0  0
   15.7829   -7.6817  -23.2987 C   0  0  0  0  0  0  0  0  0  0  0  0
   14.8142   -8.6753  -23.2789 C   0  0  0  0  0  0  0  0  0  0  0  0
   14.1679   -8.9927  -24.4678 C   0  0  0  0  0  0  0  0  0  0  0  0
   13.2074   -9.9116  -24.4813 N   0  0  0  0  0  0  0  0  0  0  0  0
   14.7236   -9.1250  -22.0323 N   0  0  0  0  0  0  0  0  0  0  0  0
   15.5979   -8.4441  -21.2952 C   0  0  0  0  0  0  0  0  0  0  0  0
   16.2463   -7.5644  -22.0586 N   0  0  0  0  0  0  0  0  0  0  0  0
  2  1  1  6  0  0  0
  2  5  1  0  0  0  0
  2  3  1  0  0  0  0
  3 17  1  0  0  0  0
  3  4  1  0  0  0  0
  5  6  1  0  0  0  0
  7  8  1  0  0  0  0
  8  6  1  1  0  0  0
  8  9  1  0  0  0  0
 10  9  1  1  0  0  0
 10 11  1  0  0  0  0
 10 12  1  0  0  0  0
 11 16  1  0  0  0  0
 12 13  1  6  0  0  0
 12 14  1  0  0  0  0
 14 15  1  6  0  0  0
 14 16  1  0  0  0  0
 16 27  1  1  0  0  0
 18 23  2  0  0  0  0
 18 19  1  0  0  0  0
 19 20  2  0  0  0  0
 20 21  1  0  0  0  0
 21 22  2  0  0  0  0
 21 27  1  0  0  0  0
 22 23  1  0  0  0  0
 22 25  1  0  0  0  0
 23 24  1  0  0  0  0
 25 26  2  0  0  0  0
 26 27  1  0  0  0  0
M  END
>  <CHROM.1>
-75.84240191,141.64008897,-179.70195236,154.71336504,-163.41337851,42.30399230
-157.67991362,15.31887293,-7.18647966,-20.45694271,1.67823570,0.25918151
1.45492816

>  <Name>
ligand

>  <RI>
0

>  <Rbt.Current_Directory>
/home/itssahil/PROJECTS/Mol_Feturizer/New_Systems/rnas/3E5F

>  <Rbt.Executable>
rbdock ($Id: //depot/dev/client3/rdock/2013.1/src/exe/rbdock.cxx#4 $)

>  <Rbt.Library>
libRbt.so (2013.1, Build901 2013/11/27)

>  <Rbt.Parameter_File>
/export/apps/rDock/src/rDock_2013.1_src/data/scripts/dock_solv.prm

>  <Rbt.Receptor>
prm/pocket_docking_7.prm

>  <SCORE>
-14.8819

>  <SCORE.INTER>
-14.8383

>  <SCORE.INTER.CONST>
1

>  <SCORE.INTER.POLAR>
0

>  <SCORE.INTER.ROT>
7

>  <SCORE.INTER.SOLV>
15.7978

>  <SCORE.INTER.VDW>
-23.4248

>  <SCORE.INTER.norm>
-0.549568

>  <SCORE.INTRA>
-0.0436188

>  <SCORE.INTRA.DIHEDRAL>
1.21132

>  <SCORE.INTRA.DIHEDRAL.0>
4.89803

>  <SCORE.INTRA.POLAR>
0

>  <SCORE.INTRA.POLAR.0>
0

>  <SCORE.INTRA.REPUL>
0

>  <SCORE.INTRA.REPUL.0>
0

>  <SCORE.INTRA.SOLV>
0.656037

>  <SCORE.INTRA.SOLV.lig_0>
-48.5832

>  <SCORE.INTRA.VDW>
-0.977296

>  <SCORE.INTRA.VDW.0>
-2.39056

>  <SCORE.INTRA.norm>
-0.00161551

>  <SCORE.RESTR>
0

>  <SCORE.RESTR.CAVITY>
0

>  <SCORE.RESTR.norm>
0

>  <SCORE.SYSTEM>
0

>  <SCORE.SYSTEM.CONST>
0

>  <SCORE.SYSTEM.DIHEDRAL>
0

>  <SCORE.SYSTEM.SOLV>
0

>  <SCORE.SYSTEM.norm>
0

>  <SCORE.heavy>
27

>  <SCORE.norm>
-0.551183

>  <RMSD>
5.345

$$$$
ligand
 OpenBabel11021811473D
libRbt.so/2013.1/901 2013/11/27
 27 29  0  0  0  0  0  0  0  0999 V2000
   10.3996   -9.9000  -16.2243 N   0  0  0  0  0  0  0  0  0  0  0  0
   10.9357   -8.7034  -16.8897 C   0  0  2  0  0  0  0  0  0  0  0  0
   10.2626   -8.5181  -18.2531 C   0  0  0  0  0  0  0  0  0  0  0  0
   10.0811   -7.3432  -18.6406 O   0  0  0  0  0  0  0  0  0  0  0  0
   12.4413   -8.8838  -17.0913 C   0  0  0  0  0  0  0  0  0  0  0  0
   13.1136   -7.5979  -17.5788 C   0  0  0  0  0  0  0  0  0  0  0  0
   15.5264   -7.9595  -16.1233 C   0  0  0  0  0  0  0  0  0  0  0  0
   14.9303   -7.8649  -17.8672 Se  0  0  2  0  0  0  0  0  0  0  0  0
   15.6537   -6.2453  -18.4236 C   0  0  0  0  0  0  0  0  0  0  0  0
   17.0872   -6.3616  -18.9434 C   0  0  1  0  0  0  0  0  0  0  0  0
   17.1649   -7.5106  -19.8045 O   0  0  0  0  0  0  0  0  0  0  0  0
   17.3328   -5.1680  -19.8671 C   0  0  1  0  0  0  0  0  0  0  0  0
   18.7130   -5.1203  -20.2321 O   0  0  0  0  0  0  0  0  0  0  0  0
   16.4924   -5.6064  -21.0637 C   0  0  1  0  0  0  0  0  0  0  0  0
   16.9536   -4.9173  -22.2272 O   0  0  0  0  0  0  0  0  0  0  0  0
   16.9190   -7.0723  -21.1526 C   0  0  2  0  0  0  0  0  0  0  0  0
    9.9356   -9.5536  -18.8737 O   0  0  0  0  0  0  0  0  0  0  0  0
   14.5331   -8.2497  -25.5759 N   0  0  0  0  0  0  0  0  0  0  0  0
   15.4949   -7.3682  -25.3629 C   0  0  0  0  0  0  0  0  0  0  0  0
   16.0121   -7.1783  -24.1616 N   0  0  0  0  0  0  0  0  0  0  0  0
   15.5729   -7.8860  -23.1098 C   0  0  0  0  0  0  0  0  0  0  0  0
   14.5629   -8.8197  -23.2941 C   0  0  0  0  0  0  0  0  0  0  0  0
   14.0423   -8.9875  -24.5718 C   0  0  0  0  0  0  0  0  0  0  0  0
   13.0476   -9.8443  -24.7807 N   0  0  0  0  0  0  0  0  0  0  0  0
   14.3097   -9.3774  -22.1154 N   0  0  0  0  0  0  0  0  0  0  0  0
   15.1251   -8.8195  -21.2236 C   0  0  0  0  0  0  0  0  0  0  0  0
   15.8969   -7.9114  -21.8211 N   0  0  0  0  0  0  0  0  0  0  0  0
  2  1  1  6  0  0  0
  2  5  1  0  0  0  0
  2  3  1  0  0  0  0
  3 17  1  0  0  0  0
  3  4  1  0  0  0  0
  5  6  1  0  0  0  0
  7  8  1  0  0  0  0
  8  6  1  1  0  0  0
  8  9  1  0  0  0  0
 10  9  1  6  0  0  0
 10 11  1  0  0  0  0
 10 12  1  0  0  0  0
 11 16  1  0  0  0  0
 12 13  1  6  0  0  0
 12 14  1  0  0  0  0
 14 15  1  6  0  0  0
 14 16  1  0  0  0  0
 16 27  1  1  0  0  0
 18 23  2  0  0  0  0
 18 19  1  0  0  0  0
 19 20  2  0  0  0  0
 20 21  1  0  0  0  0
 21 22  2  0  0  0  0
 21 27  1  0  0  0  0
 22 23  1  0  0  0  0
 22 25  1  0  0  0  0
 23 24  1  0  0  0  0
 25 26  2  0  0  0  0
 26 27  1  0  0  0  0
M  END
>  <CHROM.1>
-171.11259818,146.33471593,-178.13503643,-73.22265482,-169.51491125,44.35139265
-170.45813940,14.59582712,-7.72788664,-20.09450554,2.22439211,0.46647146
1.44951930

>  <Name>
ligand

>  <RI>
0

>  <Rbt.Current_Directory>
/home/itssahil/PROJECTS/Mol_Feturizer/New_Systems/rnas/3E5F

>  <Rbt.Executable>
rbdock ($Id: //depot/dev/client3/rdock/2013.1/src/exe/rbdock.cxx#4 $)

>  <Rbt.Library>
libRbt.so (2013.1, Build901 2013/11/27)

>  <Rbt.Parameter_File>
/export/apps/rDock/src/rDock_2013.1_src/data/scripts/dock_solv.prm

>  <Rbt.Receptor>
prm/pocket_docking_6.prm

>  <SCORE>
-12.9543

>  <SCORE.INTER>
-12.553

>  <SCORE.INTER.CONST>
1

>  <SCORE.INTER.POLAR>
0

>  <SCORE.INTER.ROT>
7

>  <SCORE.INTER.SOLV>
18.3613

>  <SCORE.INTER.VDW>
-22.7558

>  <SCORE.INTER.norm>
-0.464927

>  <SCORE.INTRA>
-0.40123

>  <SCORE.INTRA.DIHEDRAL>
-0.334472

>  <SCORE.INTRA.DIHEDRAL.0>
4.89803

>  <SCORE.INTRA.POLAR>
0

>  <SCORE.INTRA.POLAR.0>
0

>  <SCORE.INTRA.REPUL>
0

>  <SCORE.INTRA.REPUL.0>
0

>  <SCORE.INTRA.SOLV>
0.118761

>  <SCORE.INTRA.SOLV.lig_0>
-48.5832

>  <SCORE.INTRA.VDW>
-0.293375

>  <SCORE.INTRA.VDW.0>
-2.39056

>  <SCORE.INTRA.norm>
-0.0148604

>  <SCORE.RESTR>
0

>  <SCORE.RESTR.CAVITY>
0

>  <SCORE.RESTR.norm>
0

>  <SCORE.SYSTEM>
0

>  <SCORE.SYSTEM.CONST>
0

>  <SCORE.SYSTEM.DIHEDRAL>
0

>  <SCORE.SYSTEM.SOLV>
0

>  <SCORE.SYSTEM.norm>
0

>  <SCORE.heavy>
27

>  <SCORE.norm>
-0.479787

>  <RMSD>
5.348

$$$$
ligand
 OpenBabel11021811473D
libRbt.so/2013.1/901 2013/11/27
 27 29  0  0  0  0  0  0  0  0999 V2000
   18.7446   -6.1025  -19.5837 N   0  0  0  0  0  0  0  0  0  0  0  0
   17.5767   -6.8346  -19.0719 C   0  0  2  0  0  0  0  0  0  0  0  0
   17.9686   -7.6401  -17.8293 C   0  0  0  0  0  0  0  0  0  0  0  0
   17.0979   -7.7724  -16.9417 O   0  0  0  0  0  0  0  0  0  0  0  0
   17.0800   -7.7917  -20.1569 C   0  0  0  0  0  0  0  0  0  0  0  0
   15.7673   -8.4741  -19.7638 C   0  0  0  0  0  0  0  0  0  0  0  0
   14.4462   -8.5287  -22.2781 C   0  0  0  0  0  0  0  0  0  0  0  0
   15.2286   -9.6826  -21.0691 Se  0  0  2  0  0  0  0  0  0  0  0  0
   13.7493  -10.5963  -20.4112 C   0  0  0  0  0  0  0  0  0  0  0  0
   13.4893  -11.9283  -21.1159 C   0  0  1  0  0  0  0  0  0  0  0  0
   12.3726  -12.5690  -20.4756 O   0  0  0  0  0  0  0  0  0  0  0  0
   12.9946  -11.6061  -22.5264 C   0  0  1  0  0  0  0  0  0  0  0  0
   12.9163  -12.8086  -23.2934 O   0  0  0  0  0  0  0  0  0  0  0  0
   11.5904  -11.1123  -22.1873 C   0  0  1  0  0  0  0  0  0  0  0  0
   10.7689  -11.2266  -23.3506 O   0  0  0  0  0  0  0  0  0  0  0  0
   11.1778  -12.1864  -21.1800 C   0  0  2  0  0  0  0  0  0  0  0  0
   19.1319   -8.0976  -17.7891 O   0  0  0  0  0  0  0  0  0  0  0  0
    9.6494   -8.4488  -17.9644 N   0  0  0  0  0  0  0  0  0  0  0  0
   10.7516   -8.5168  -18.6911 C   0  0  0  0  0  0  0  0  0  0  0  0
   11.0055   -9.5488  -19.4767 N   0  0  0  0  0  0  0  0  0  0  0  0
   10.1393  -10.5696  -19.5636 C   0  0  0  0  0  0  0  0  0  0  0  0
    8.9718  -10.5348  -18.8143 C   0  0  0  0  0  0  0  0  0  0  0  0
    8.7429   -9.4340  -17.9972 C   0  0  0  0  0  0  0  0  0  0  0  0
    7.6547   -9.3824  -17.2353 N   0  0  0  0  0  0  0  0  0  0  0  0
    8.2939  -11.6476  -19.0724 N   0  0  0  0  0  0  0  0  0  0  0  0
    9.0033  -12.3561  -19.9478 C   0  0  0  0  0  0  0  0  0  0  0  0
   10.1272  -11.7067  -20.2516 N   0  0  0  0  0  0  0  0  0  0  0  0
  2  1  1  6  0  0  0
  2  5  1  0  0  0  0
  2  3  1  0  0  0  0
  3 17  1  0  0  0  0
  3  4  1  0  0  0  0
  5  6  1  0  0  0  0
  7  8  1  0  0  0  0
  8  6  1  1  0  0  0
  8  9  1  0  0  0  0
 10  9  1  1  0  0  0
 10 11  1  0  0  0  0
 10 12  1  0  0  0  0
 11 16  1  0  0  0  0
 12 13  1  6  0  0  0
 12 14  1  0  0  0  0
 14 15  1  6  0  0  0
 14 16  1  0  0  0  0
 16 27  1  1  0  0  0
 18 23  2  0  0  0  0
 18 19  1  0  0  0  0
 19 20  2  0  0  0  0
 20 21  1  0  0  0  0
 21 22  2  0  0  0  0
 21 27  1  0  0  0  0
 22 23  1  0  0  0  0
 22 25  1  0  0  0  0
 23 24  1  0  0  0  0
 25 26  2  0  0  0  0
 26 27  1  0  0  0  0
M  END
>  <CHROM.1>
-173.32643467,146.44967640,-177.59041711,-80.82235749,-159.52872124,176.94616396
70.25888618,13.27452725,-9.86378040,-20.12870344,0.27591161,0.27357573,0.94798748

>  <Name>
ligand

>  <RI>
0

>  <Rbt.Current_Directory>
/home/itssahil/PROJECTS/Mol_Feturizer/New_Systems/rnas/3E5F

>  <Rbt.Executable>
rbdock ($Id: //depot/dev/client3/rdock/2013.1/src/exe/rbdock.cxx#4 $)

>  <Rbt.Library>
libRbt.so (2013.1, Build901 2013/11/27)

>  <Rbt.Parameter_File>
/export/apps/rDock/src/rDock_2013.1_src/data/scripts/dock_solv.prm

>  <Rbt.Receptor>
prm/pocket_docking_8.prm

>  <SCORE>
-14.6075

>  <SCORE.INTER>
-14.0939

>  <SCORE.INTER.CONST>
1

>  <SCORE.INTER.POLAR>
0

>  <SCORE.INTER.ROT>
7

>  <SCORE.INTER.SOLV>
10.1077

>  <SCORE.INTER.VDW>
-21.0318

>  <SCORE.INTER.norm>
-0.521995

>  <SCORE.INTRA>
-0.513604

>  <SCORE.INTRA.DIHEDRAL>
-0.443692

>  <SCORE.INTRA.DIHEDRAL.0>
4.89803

>  <SCORE.INTRA.POLAR>
0

>  <SCORE.INTRA.POLAR.0>
0

>  <SCORE.INTRA.REPUL>
0

>  <SCORE.INTRA.REPUL.0>
0

>  <SCORE.INTRA.SOLV>
-0.0376434

>  <SCORE.INTRA.SOLV.lig_0>
-48.5832

>  <SCORE.INTRA.VDW>
-0.272936

>  <SCORE.INTRA.VDW.0>
-2.39056

>  <SCORE.INTRA.norm>
-0.0190224

>  <SCORE.RESTR>
0

>  <SCORE.RESTR.CAVITY>
0

>  <SCORE.RESTR.norm>
0

>  <SCORE.SYSTEM>
0

>  <SCORE.SYSTEM.CONST>
0

>  <SCORE.SYSTEM.DIHEDRAL>
0

>  <SCORE.SYSTEM.SOLV>
0

>  <SCORE.SYSTEM.norm>
0

>  <SCORE.heavy>
27

>  <SCORE.norm>
-0.541017

>  <RMSD>
5.353

$$$$
ligand
 OpenBabel11021811473D
libRbt.so/2013.1/901 2013/11/27
 27 29  0  0  0  0  0  0  0  0999 V2000
   17.0569   -8.7177  -20.4352 N   0  0  0  0  0  0  0  0  0  0  0  0
   17.0202   -7.2515  -20.5383 C   0  0  2  0  0  0  0  0  0  0  0  0
   17.4503   -6.6235  -19.2090 C   0  0  0  0  0  0  0  0  0  0  0  0
   17.2803   -7.3089  -18.1770 O   0  0  0  0  0  0  0  0  0  0  0  0
   15.5904   -6.8153  -20.8626 C   0  0  0  0  0  0  0  0  0  0  0  0
   15.2246   -7.0867  -22.3240 C   0  0  0  0  0  0  0  0  0  0  0  0
   14.4254   -8.9151  -24.3461 C   0  0  0  0  0  0  0  0  0  0  0  0
   15.2229   -8.9106  -22.6819 Se  0  0  2  0  0  0  0  0  0  0  0  0
   13.9009   -9.6871  -21.6304 C   0  0  0  0  0  0  0  0  0  0  0  0
   13.7519  -11.1935  -21.8479 C   0  0  1  0  0  0  0  0  0  0  0  0
   12.9359  -11.7252  -20.7901 O   0  0  0  0  0  0  0  0  0  0  0  0
   12.9187  -11.3883  -23.1152 C   0  0  1  0  0  0  0  0  0  0  0  0
   12.9065  -12.7712  -23.4730 O   0  0  0  0  0  0  0  0  0  0  0  0
   11.5509  -10.9780  -22.5754 C   0  0  1  0  0  0  0  0  0  0  0  0
   10.5383  -11.5446  -23.4090 O   0  0  0  0  0  0  0  0  0  0  0  0
   11.5692  -11.7225  -21.2397 C   0  0  2  0  0  0  0  0  0  0  0  0
   17.9303   -5.4694  -19.2518 O   0  0  0  0  0  0  0  0  0  0  0  0
   11.1926   -9.2605  -16.7185 N   0  0  0  0  0  0  0  0  0  0  0  0
   12.2781   -9.6833  -17.3434 C   0  0  0  0  0  0  0  0  0  0  0  0
   12.2140  -10.3031  -18.5089 N   0  0  0  0  0  0  0  0  0  0  0  0
   11.0303  -10.5214  -19.1015 C   0  0  0  0  0  0  0  0  0  0  0  0
    9.8683  -10.0935  -18.4749 C   0  0  0  0  0  0  0  0  0  0  0  0
    9.9773   -9.4489  -17.2483 C   0  0  0  0  0  0  0  0  0  0  0  0
    8.8846   -9.0590  -16.5993 N   0  0  0  0  0  0  0  0  0  0  0  0
    8.8447  -10.4260  -19.2534 N   0  0  0  0  0  0  0  0  0  0  0  0
    9.3389  -11.0386  -20.3267 C   0  0  0  0  0  0  0  0  0  0  0  0
   10.6679  -11.1002  -20.2417 N   0  0  0  0  0  0  0  0  0  0  0  0
  2  1  1  1  0  0  0
  2  5  1  0  0  0  0
  2  3  1  0  0  0  0
  3 17  1  0  0  0  0
  3  4  1  0  0  0  0
  5  6  1  0  0  0  0
  7  8  1  0  0  0  0
  8  6  1  1  0  0  0
  8  9  1  0  0  0  0
 10  9  1  1  0  0  0
 10 11  1  0  0  0  0
 10 12  1  0  0  0  0
 11 16  1  0  0  0  0
 12 13  1  1  0  0  0
 12 14  1  0  0  0  0
 14 15  1  6  0  0  0
 14 16  1  0  0  0  0
 16 27  1  1  0  0  0
 18 23  2  0  0  0  0
 18 19  1  0  0  0  0
 19 20  2  0  0  0  0
 20 21  1  0  0  0  0
 21 22  2  0  0  0  0
 21 27  1  0  0  0  0
 22 23  1  0  0  0  0
 22 25  1  0  0  0  0
 23 24  1  0  0  0  0
 25 26  2  0  0  0  0
 26 27  1  0  0  0  0
M  END
>  <CHROM.1>
-75.14461268,-25.60229124,64.50826545,168.77936388,178.31323682,167.16124978
4.32448548,13.41478692,-9.48509763,-20.76033197,-0.03066813,0.51084746,1.14064156

>  <Name>
ligand

>  <RI>
0

>  <Rbt.Current_Directory>
/home/itssahil/PROJECTS/Mol_Feturizer/New_Systems/rnas/3E5F

>  <Rbt.Executable>
rbdock ($Id: //depot/dev/client3/rdock/2013.1/src/exe/rbdock.cxx#4 $)

>  <Rbt.Library>
libRbt.so (2013.1, Build901 2013/11/27)

>  <Rbt.Parameter_File>
/export/apps/rDock/src/rDock_2013.1_src/data/scripts/dock_solv.prm

>  <Rbt.Receptor>
prm/pocket_docking_5.prm

>  <SCORE>
-13.4872

>  <SCORE.INTER>
-14.1397

>  <SCORE.INTER.CONST>
1

>  <SCORE.INTER.POLAR>
0

>  <SCORE.INTER.ROT>
7

>  <SCORE.INTER.SOLV>
10.942

>  <SCORE.INTER.VDW>
-21.3405

>  <SCORE.INTER.norm>
-0.523694

>  <SCORE.INTRA>
0.652513

>  <SCORE.INTRA.DIHEDRAL>
-0.406461

>  <SCORE.INTRA.DIHEDRAL.0>
4.89803

>  <SCORE.INTRA.POLAR>
0

>  <SCORE.INTRA.POLAR.0>
0

>  <SCORE.INTRA.REPUL>
0

>  <SCORE.INTRA.REPUL.0>
0

>  <SCORE.INTRA.SOLV>
2.36835

>  <SCORE.INTRA.SOLV.lig_0>
-48.5832

>  <SCORE.INTRA.VDW>
-0.328431

>  <SCORE.INTRA.VDW.0>
-2.39056

>  <SCORE.INTRA.norm>
0.0241671

>  <SCORE.RESTR>
0

>  <SCORE.RESTR.CAVITY>
0

>  <SCORE.RESTR.norm>
0

>  <SCORE.SYSTEM>
0

>  <SCORE.SYSTEM.CONST>
0

>  <SCORE.SYSTEM.DIHEDRAL>
0

>  <SCORE.SYSTEM.SOLV>
0

>  <SCORE.SYSTEM.norm>
0

>  <SCORE.heavy>
27

>  <SCORE.norm>
-0.499527

>  <RMSD>
5.359

$$$$
ligand
 OpenBabel11021811473D
libRbt.so/2013.1/901 2013/11/27
 27 29  0  0  0  0  0  0  0  0999 V2000
   16.9089   -4.7489  -21.7789 N   0  0  0  0  0  0  0  0  0  0  0  0
   16.2587   -5.5167  -20.7068 C   0  0  2  0  0  0  0  0  0  0  0  0
   17.0557   -5.3760  -19.4063 C   0  0  0  0  0  0  0  0  0  0  0  0
   16.4009   -5.3341  -18.3418 O   0  0  0  0  0  0  0  0  0  0  0  0
   16.2136   -6.9907  -21.1132 C   0  0  0  0  0  0  0  0  0  0  0  0
   15.3753   -7.2132  -22.3747 C   0  0  0  0  0  0  0  0  0  0  0  0
   14.3552   -8.9330  -24.3927 C   0  0  0  0  0  0  0  0  0  0  0  0
   15.2618   -9.0218  -22.7878 Se  0  0  2  0  0  0  0  0  0  0  0  0
   13.9775   -9.7722  -21.6725 C   0  0  0  0  0  0  0  0  0  0  0  0
   13.7820  -11.2736  -21.8874 C   0  0  1  0  0  0  0  0  0  0  0  0
   12.9714  -11.7829  -20.8145 O   0  0  0  0  0  0  0  0  0  0  0  0
   12.9200  -11.4440  -23.1388 C   0  0  1  0  0  0  0  0  0  0  0  0
   12.8621  -12.8257  -23.4965 O   0  0  0  0  0  0  0  0  0  0  0  0
   11.5747  -10.9957  -22.5733 C   0  0  1  0  0  0  0  0  0  0  0  0
   10.5311  -11.5329  -23.3878 O   0  0  0  0  0  0  0  0  0  0  0  0
   11.5971  -11.7412  -21.2383 C   0  0  2  0  0  0  0  0  0  0  0  0
   18.3004   -5.3038  -19.5046 O   0  0  0  0  0  0  0  0  0  0  0  0
   11.3716   -9.3030  -16.6942 N   0  0  0  0  0  0  0  0  0  0  0  0
   12.4324   -9.7600  -17.3371 C   0  0  0  0  0  0  0  0  0  0  0  0
   12.3300  -10.3679  -18.5062 N   0  0  0  0  0  0  0  0  0  0  0  0
   11.1313  -10.5383  -19.0841 C   0  0  0  0  0  0  0  0  0  0  0  0
    9.9942  -10.0733  -18.4384 C   0  0  0  0  0  0  0  0  0  0  0  0
   10.1432   -9.4429  -17.2087 C   0  0  0  0  0  0  0  0  0  0  0  0
    9.0743   -9.0185  -16.5418 N   0  0  0  0  0  0  0  0  0  0  0  0
    8.9488  -10.3622  -19.2052 N   0  0  0  0  0  0  0  0  0  0  0  0
    9.4057  -10.9839  -20.2897 C   0  0  0  0  0  0  0  0  0  0  0  0
   10.7326  -11.0945  -20.2234 N   0  0  0  0  0  0  0  0  0  0  0  0
  2  1  1  6  0  0  0
  2  5  1  0  0  0  0
  2  3  1  0  0  0  0
  3 17  1  0  0  0  0
  3  4  1  0  0  0  0
  5  6  1  0  0  0  0
  7  8  1  0  0  0  0
  8  6  1  1  0  0  0
  8  9  1  0  0  0  0
 10  9  1  1  0  0  0
 10 11  1  0  0  0  0
 10 12  1  0  0  0  0
 11 16  1  0  0  0  0
 12 13  1  1  0  0  0
 12 14  1  0  0  0  0
 14 15  1  6  0  0  0
 14 16  1  0  0  0  0
 16 27  1  1  0  0  0
 18 23  2  0  0  0  0
 18 19  1  0  0  0  0
 19 20  2  0  0  0  0
 20 21  1  0  0  0  0
 21 22  2  0  0  0  0
 21 27  1  0  0  0  0
 22 23  1  0  0  0  0
 22 25  1  0  0  0  0
 23 24  1  0  0  0  0
 25 26  2  0  0  0  0
 26 27  1  0  0  0  0
M  END
>  <CHROM.1>
-62.59698255,144.27012343,-176.83661195,-174.94170679,-179.36808385,169.05583850
3.62908584,13.42948371,-9.23592330,-20.85497435,0.13817679,0.63797432,1.01357581

>  <Name>
ligand

>  <RI>
0

>  <Rbt.Current_Directory>
/home/itssahil/PROJECTS/Mol_Feturizer/New_Systems/rnas/3E5F

>  <Rbt.Executable>
rbdock ($Id: //depot/dev/client3/rdock/2013.1/src/exe/rbdock.cxx#4 $)

>  <Rbt.Library>
libRbt.so (2013.1, Build901 2013/11/27)

>  <Rbt.Parameter_File>
/export/apps/rDock/src/rDock_2013.1_src/data/scripts/dock_solv.prm

>  <Rbt.Receptor>
prm/pocket_docking_6.prm

>  <SCORE>
-16.0985

>  <SCORE.INTER>
-16.2166

>  <SCORE.INTER.CONST>
1

>  <SCORE.INTER.POLAR>
0

>  <SCORE.INTER.ROT>
7

>  <SCORE.INTER.SOLV>
8.2731

>  <SCORE.INTER.VDW>
-21.8354

>  <SCORE.INTER.norm>
-0.600614

>  <SCORE.INTRA>
0.118086

>  <SCORE.INTRA.DIHEDRAL>
-1.15836

>  <SCORE.INTRA.DIHEDRAL.0>
4.89803

>  <SCORE.INTRA.POLAR>
0

>  <SCORE.INTRA.POLAR.0>
0

>  <SCORE.INTRA.REPUL>
0

>  <SCORE.INTRA.REPUL.0>
0

>  <SCORE.INTRA.SOLV>
0.783463

>  <SCORE.INTRA.SOLV.lig_0>
-48.5832

>  <SCORE.INTRA.VDW>
0.305536

>  <SCORE.INTRA.VDW.0>
-2.39056

>  <SCORE.INTRA.norm>
0.00437355

>  <SCORE.RESTR>
0

>  <SCORE.RESTR.CAVITY>
0

>  <SCORE.RESTR.norm>
0

>  <SCORE.SYSTEM>
0

>  <SCORE.SYSTEM.CONST>
0

>  <SCORE.SYSTEM.DIHEDRAL>
0

>  <SCORE.SYSTEM.SOLV>
0

>  <SCORE.SYSTEM.norm>
0

>  <SCORE.heavy>
27

>  <SCORE.norm>
-0.596241

>  <RMSD>
5.360

$$$$
ligand
 OpenBabel11021811473D
libRbt.so/2013.1/901 2013/11/27
 27 29  0  0  0  0  0  0  0  0999 V2000
    9.2597   -8.3821  -15.3508 N   0  0  0  0  0  0  0  0  0  0  0  0
    9.3547   -7.3304  -16.3739 C   0  0  2  0  0  0  0  0  0  0  0  0
    8.5470   -7.7315  -17.6120 C   0  0  0  0  0  0  0  0  0  0  0  0
    8.8419   -8.8194  -18.1533 O   0  0  0  0  0  0  0  0  0  0  0  0
   10.8229   -7.1541  -16.7653 C   0  0  0  0  0  0  0  0  0  0  0  0
   11.0214   -5.9929  -17.7428 C   0  0  0  0  0  0  0  0  0  0  0  0
   12.7164   -4.3611  -19.3347 C   0  0  0  0  0  0  0  0  0  0  0  0
   12.8276   -5.6949  -18.0643 Se  0  0  2  0  0  0  0  0  0  0  0  0
   13.4605   -7.1223  -19.0733 C   0  0  0  0  0  0  0  0  0  0  0  0
   14.9850   -7.1630  -19.1872 C   0  0  1  0  0  0  0  0  0  0  0  0
   15.3561   -8.3751  -19.8660 O   0  0  0  0  0  0  0  0  0  0  0  0
   15.3984   -6.0422  -20.1417 C   0  0  1  0  0  0  0  0  0  0  0  0
   16.8208   -5.9107  -20.1391 O   0  0  0  0  0  0  0  0  0  0  0  0
   14.9347   -6.6581  -21.4593 C   0  0  1  0  0  0  0  0  0  0  0  0
   15.6488   -6.0414  -22.5321 O   0  0  0  0  0  0  0  0  0  0  0  0
   15.4538   -8.0843  -21.2717 C   0  0  2  0  0  0  0  0  0  0  0  0
    7.6595   -6.9384  -17.9961 O   0  0  0  0  0  0  0  0  0  0  0  0
   12.7244  -12.4654  -21.3005 N   0  0  0  0  0  0  0  0  0  0  0  0
   13.2788  -11.8417  -20.2753 C   0  0  0  0  0  0  0  0  0  0  0  0
   13.9529  -10.7151  -20.4270 N   0  0  0  0  0  0  0  0  0  0  0  0
   14.0933  -10.1621  -21.6412 C   0  0  0  0  0  0  0  0  0  0  0  0
   13.5266  -10.7888  -22.7421 C   0  0  0  0  0  0  0  0  0  0  0  0
   12.8288  -11.9741  -22.5419 C   0  0  0  0  0  0  0  0  0  0  0  0
   12.3050  -12.6238  -23.5767 N   0  0  0  0  0  0  0  0  0  0  0  0
   13.8055  -10.0532  -23.8124 N   0  0  0  0  0  0  0  0  0  0  0  0
   14.5187   -9.0059  -23.4052 C   0  0  0  0  0  0  0  0  0  0  0  0
   14.6977   -9.0650  -22.0855 N   0  0  0  0  0  0  0  0  0  0  0  0
  2  1  1  1  0  0  0
  2  5  1  0  0  0  0
  2  3  1  0  0  0  0
  3 17  1  0  0  0  0
  3  4  1  0  0  0  0
  5  6  1  0  0  0  0
  7  8  1  0  0  0  0
  8  6  1  6  0  0  0
  8  9  1  0  0  0  0
 10  9  1  6  0  0  0
 10 11  1  0  0  0  0
 10 12  1  0  0  0  0
 11 16  1  0  0  0  0
 12 13  1  6  0  0  0
 12 14  1  0  0  0  0
 14 15  1  6  0  0  0
 14 16  1  0  0  0  0
 16 27  1  6  0  0  0
 18 23  2  0  0  0  0
 18 19  1  0  0  0  0
 19 20  2  0  0  0  0
 20 21  1  0  0  0  0
 21 22  2  0  0  0  0
 21 27  1  0  0  0  0
 22 23  1  0  0  0  0
 22 25  1  0  0  0  0
 23 24  1  0  0  0  0
 25 26  2  0  0  0  0
 26 27  1  0  0  0  0
M  END
>  <CHROM.1>
-175.17931208,-56.65926559,174.25063370,176.09215870,-168.64728013,174.14822811
-6.02287089,12.89524938,-7.91629691,-19.76263133,2.25225376,0.54310189,0.58381227

>  <Name>
ligand

>  <RI>
0

>  <Rbt.Current_Directory>
/home/itssahil/PROJECTS/Mol_Feturizer/New_Systems/rnas/3E5F

>  <Rbt.Executable>
rbdock ($Id: //depot/dev/client3/rdock/2013.1/src/exe/rbdock.cxx#4 $)

>  <Rbt.Library>
libRbt.so (2013.1, Build901 2013/11/27)

>  <Rbt.Parameter_File>
/export/apps/rDock/src/rDock_2013.1_src/data/scripts/dock_solv.prm

>  <Rbt.Receptor>
prm/pocket_docking_5.prm

>  <SCORE>
-10.8077

>  <SCORE.INTER>
-10.4666

>  <SCORE.INTER.CONST>
1

>  <SCORE.INTER.POLAR>
0

>  <SCORE.INTER.ROT>
7

>  <SCORE.INTER.SOLV>
9.13517

>  <SCORE.INTER.VDW>
-18.2895

>  <SCORE.INTER.norm>
-0.387653

>  <SCORE.INTRA>
-0.341086

>  <SCORE.INTRA.DIHEDRAL>
-1.11644

>  <SCORE.INTRA.DIHEDRAL.0>
4.89803

>  <SCORE.INTRA.POLAR>
0

>  <SCORE.INTRA.POLAR.0>
0

>  <SCORE.INTRA.REPUL>
0

>  <SCORE.INTRA.REPUL.0>
0

>  <SCORE.INTRA.SOLV>
0.0669475

>  <SCORE.INTRA.SOLV.lig_0>
-48.5832

>  <SCORE.INTRA.VDW>
0.183659

>  <SCORE.INTRA.VDW.0>
-2.39056

>  <SCORE.INTRA.norm>
-0.0126328

>  <SCORE.RESTR>
0

>  <SCORE.RESTR.CAVITY>
0

>  <SCORE.RESTR.norm>
0

>  <SCORE.SYSTEM>
0

>  <SCORE.SYSTEM.CONST>
0

>  <SCORE.SYSTEM.DIHEDRAL>
0

>  <SCORE.SYSTEM.SOLV>
0

>  <SCORE.SYSTEM.norm>
0

>  <SCORE.heavy>
27

>  <SCORE.norm>
-0.400286

>  <RMSD>
5.367

$$$$
ligand
 OpenBabel11021811473D
libRbt.so/2013.1/901 2013/11/27
 27 29  0  0  0  0  0  0  0  0999 V2000
   14.3900   -5.8774  -17.9486 N   0  0  0  0  0  0  0  0  0  0  0  0
   15.0247   -5.6355  -16.6446 C   0  0  2  0  0  0  0  0  0  0  0  0
   14.3274   -4.4727  -15.9319 C   0  0  0  0  0  0  0  0  0  0  0  0
   13.5190   -3.7976  -16.6059 O   0  0  0  0  0  0  0  0  0  0  0  0
   16.4952   -5.2793  -16.8701 C   0  0  0  0  0  0  0  0  0  0  0  0
   17.2574   -6.4050  -17.5739 C   0  0  0  0  0  0  0  0  0  0  0  0
   17.5001   -8.0955  -19.8441 C   0  0  0  0  0  0  0  0  0  0  0  0
   16.9081   -6.4051  -19.3995 Se  0  0  2  0  0  0  0  0  0  0  0  0
   18.1887   -5.3325  -20.2154 C   0  0  0  0  0  0  0  0  0  0  0  0
   17.6353   -4.4801  -21.3581 C   0  0  1  0  0  0  0  0  0  0  0  0
   16.9444   -5.3457  -22.2752 O   0  0  0  0  0  0  0  0  0  0  0  0
   16.5420   -3.5875  -20.7696 C   0  0  1  0  0  0  0  0  0  0  0  0
   16.1203   -2.6371  -21.7490 O   0  0  0  0  0  0  0  0  0  0  0  0
   15.4538   -4.6376  -20.5604 C   0  0  1  0  0  0  0  0  0  0  0  0
   14.1869   -3.9805  -20.4942 O   0  0  0  0  0  0  0  0  0  0  0  0
   15.5582   -5.3829  -21.8917 C   0  0  2  0  0  0  0  0  0  0  0  0
   14.6242   -4.2778  -14.7327 O   0  0  0  0  0  0  0  0  0  0  0  0
   11.8115   -8.5014  -20.1939 N   0  0  0  0  0  0  0  0  0  0  0  0
   11.9056   -7.1869  -20.0899 C   0  0  0  0  0  0  0  0  0  0  0  0
   12.9361   -6.5213  -20.5816 N   0  0  0  0  0  0  0  0  0  0  0  0
   13.9283   -7.1679  -21.2119 C   0  0  0  0  0  0  0  0  0  0  0  0
   13.8655   -8.5484  -21.3391 C   0  0  0  0  0  0  0  0  0  0  0  0
   12.7674   -9.2125  -20.8053 C   0  0  0  0  0  0  0  0  0  0  0  0
   12.6905  -10.5380  -20.8733 N   0  0  0  0  0  0  0  0  0  0  0  0
   14.9536   -8.9429  -21.9910 N   0  0  0  0  0  0  0  0  0  0  0  0
   15.6739   -7.8575  -22.2639 C   0  0  0  0  0  0  0  0  0  0  0  0
   15.0565   -6.7737  -21.7934 N   0  0  0  0  0  0  0  0  0  0  0  0
  2  1  1  6  0  0  0
  2  5  1  0  0  0  0
  2  3  1  0  0  0  0
  3 17  1  0  0  0  0
  3  4  1  0  0  0  0
  5  6  1  0  0  0  0
  7  8  1  0  0  0  0
  8  6  1  1  0  0  0
  8  9  1  0  0  0  0
 10  9  1  1  0  0  0
 10 11  1  0  0  0  0
 10 12  1  0  0  0  0
 11 16  1  0  0  0  0
 12 13  1  6  0  0  0
 12 14  1  0  0  0  0
 14 15  1  6  0  0  0
 14 16  1  0  0  0  0
 16 27  1  1  0  0  0
 18 23  2  0  0  0  0
 18 19  1  0  0  0  0
 19 20  2  0  0  0  0
 20 21  1  0  0  0  0
 21 22  2  0  0  0  0
 21 27  1  0  0  0  0
 22 23  1  0  0  0  0
 22 25  1  0  0  0  0
 23 24  1  0  0  0  0
 25 26  2  0  0  0  0
 26 27  1  0  0  0  0
M  END
>  <CHROM.1>
-60.29429609,-10.84350995,78.66034278,-163.42920745,-141.22700445,-52.92092965
165.37784910,15.35452579,-6.15161154,-19.75318005,1.15257998,0.64575249,1.06742826

>  <Name>
ligand

>  <RI>
0

>  <Rbt.Current_Directory>
/home/itssahil/PROJECTS/Mol_Feturizer/New_Systems/rnas/3E5F

>  <Rbt.Executable>
rbdock ($Id: //depot/dev/client3/rdock/2013.1/src/exe/rbdock.cxx#4 $)

>  <Rbt.Library>
libRbt.so (2013.1, Build901 2013/11/27)

>  <Rbt.Parameter_File>
/export/apps/rDock/src/rDock_2013.1_src/data/scripts/dock_solv.prm

>  <Rbt.Receptor>
prm/pocket_docking_7.prm

>  <SCORE>
-9.23871

>  <SCORE.INTER>
-10.4945

>  <SCORE.INTER.CONST>
1

>  <SCORE.INTER.POLAR>
0

>  <SCORE.INTER.ROT>
7

>  <SCORE.INTER.SOLV>
7.78429

>  <SCORE.INTER.VDW>
-17.8578

>  <SCORE.INTER.norm>
-0.388687

>  <SCORE.INTRA>
1.25582

>  <SCORE.INTRA.DIHEDRAL>
2.16542

>  <SCORE.INTRA.DIHEDRAL.0>
4.89803

>  <SCORE.INTRA.POLAR>
0

>  <SCORE.INTRA.POLAR.0>
0

>  <SCORE.INTRA.REPUL>
0

>  <SCORE.INTRA.REPUL.0>
0

>  <SCORE.INTRA.SOLV>
5.29984

>  <SCORE.INTRA.SOLV.lig_0>
-48.5832

>  <SCORE.INTRA.VDW>
-2.47681

>  <SCORE.INTRA.VDW.0>
-2.39056

>  <SCORE.INTRA.norm>
0.046512

>  <SCORE.RESTR>
0

>  <SCORE.RESTR.CAVITY>
0

>  <SCORE.RESTR.norm>
0

>  <SCORE.SYSTEM>
0

>  <SCORE.SYSTEM.CONST>
0

>  <SCORE.SYSTEM.DIHEDRAL>
0

>  <SCORE.SYSTEM.SOLV>
0

>  <SCORE.SYSTEM.norm>
0

>  <SCORE.heavy>
27

>  <SCORE.norm>
-0.342175

>  <RMSD>
5.372

$$$$
ligand
 OpenBabel11021811473D
libRbt.so/2013.1/901 2013/11/27
 27 29  0  0  0  0  0  0  0  0999 V2000
    7.7867   -8.4939  -16.7989 N   0  0  0  0  0  0  0  0  0  0  0  0
    8.3955   -8.8694  -18.0835 C   0  0  2  0  0  0  0  0  0  0  0  0
    8.2039  -10.3683  -18.3340 C   0  0  0  0  0  0  0  0  0  0  0  0
    7.9711  -10.7212  -19.5108 O   0  0  0  0  0  0  0  0  0  0  0  0
    9.8914   -8.5543  -18.0313 C   0  0  0  0  0  0  0  0  0  0  0  0
   10.1701   -7.0597  -18.2095 C   0  0  0  0  0  0  0  0  0  0  0  0
   12.0342   -4.9404  -18.5325 C   0  0  0  0  0  0  0  0  0  0  0  0
   11.9648   -6.6775  -17.9136 Se  0  0  2  0  0  0  0  0  0  0  0  0
   12.9505   -7.5767  -19.2083 C   0  0  0  0  0  0  0  0  0  0  0  0
   14.1165   -8.3852  -18.6380 C   0  0  1  0  0  0  0  0  0  0  0  0
   14.8572   -8.9472  -19.7349 O   0  0  0  0  0  0  0  0  0  0  0  0
   15.0810   -7.3929  -17.9874 C   0  0  1  0  0  0  0  0  0  0  0  0
   16.0926   -8.1054  -17.2736 O   0  0  0  0  0  0  0  0  0  0  0  0
   15.6751   -6.7664  -19.2464 C   0  0  1  0  0  0  0  0  0  0  0  0
   16.9367   -6.1817  -18.9181 O   0  0  0  0  0  0  0  0  0  0  0  0
   15.9132   -8.0305  -20.0733 C   0  0  2  0  0  0  0  0  0  0  0  0
    8.2846  -11.1275  -17.3433 O   0  0  0  0  0  0  0  0  0  0  0  0
   14.0073   -9.1856  -24.7293 N   0  0  0  0  0  0  0  0  0  0  0  0
   13.6856   -9.6956  -23.5528 C   0  0  0  0  0  0  0  0  0  0  0  0
   14.2666   -9.2923  -22.4364 N   0  0  0  0  0  0  0  0  0  0  0  0
   15.2100   -8.3388  -22.4640 C   0  0  0  0  0  0  0  0  0  0  0  0
   15.5758   -7.7808  -23.6809 C   0  0  0  0  0  0  0  0  0  0  0  0
   14.9442   -8.2344  -24.8329 C   0  0  0  0  0  0  0  0  0  0  0  0
   15.2948   -7.7518  -26.0209 N   0  0  0  0  0  0  0  0  0  0  0  0
   16.5168   -6.8742  -23.4419 N   0  0  0  0  0  0  0  0  0  0  0  0
   16.7368   -6.8601  -22.1294 C   0  0  0  0  0  0  0  0  0  0  0  0
   15.9454   -7.7482  -21.5276 N   0  0  0  0  0  0  0  0  0  0  0  0
  2  1  1  1  0  0  0
  2  5  1  0  0  0  0
  2  3  1  0  0  0  0
  3 17  1  0  0  0  0
  3  4  1  0  0  0  0
  5  6  1  0  0  0  0
  7  8  1  0  0  0  0
  8  6  1  6  0  0  0
  8  9  1  0  0  0  0
 10  9  1  6  0  0  0
 10 11  1  0  0  0  0
 10 12  1  0  0  0  0
 11 16  1  0  0  0  0
 12 13  1  6  0  0  0
 12 14  1  0  0  0  0
 14 15  1  1  0  0  0
 14 16  1  0  0  0  0
 16 27  1  6  0  0  0
 18 23  2  0  0  0  0
 18 19  1  0  0  0  0
 19 20  2  0  0  0  0
 20 21  1  0  0  0  0
 21 22  2  0  0  0  0
 21 27  1  0  0  0  0
 22 23  1  0  0  0  0
 22 25  1  0  0  0  0
 23 24  1  0  0  0  0
 25 26  2  0  0  0  0
 26 27  1  0  0  0  0
M  END
>  <CHROM.1>
-77.27172940,142.26385660,172.33627612,168.87522500,-130.39256777,-175.70077265
-6.56542270,13.04183512,-7.93264986,-19.87576311,2.57700187,0.39427572,1.19602329

>  <Name>
ligand

>  <RI>
0

>  <Rbt.Current_Directory>
/home/itssahil/PROJECTS/Mol_Feturizer/New_Systems/rnas/3E5F

>  <Rbt.Executable>
rbdock ($Id: //depot/dev/client3/rdock/2013.1/src/exe/rbdock.cxx#4 $)

>  <Rbt.Library>
libRbt.so (2013.1, Build901 2013/11/27)

>  <Rbt.Parameter_File>
/export/apps/rDock/src/rDock_2013.1_src/data/scripts/dock_solv.prm

>  <Rbt.Receptor>
prm/pocket_docking_6.prm

>  <SCORE>
-9.8856

>  <SCORE.INTER>
-10.8307

>  <SCORE.INTER.CONST>
1

>  <SCORE.INTER.POLAR>
0

>  <SCORE.INTER.ROT>
7

>  <SCORE.INTER.SOLV>
17.7652

>  <SCORE.INTER.VDW>
-21.4089

>  <SCORE.INTER.norm>
-0.401137

>  <SCORE.INTRA>
0.945104

>  <SCORE.INTRA.DIHEDRAL>
1.70417

>  <SCORE.INTRA.DIHEDRAL.0>
4.89803

>  <SCORE.INTRA.POLAR>
0

>  <SCORE.INTRA.POLAR.0>
0

>  <SCORE.INTRA.REPUL>
0

>  <SCORE.INTRA.REPUL.0>
0

>  <SCORE.INTRA.SOLV>
0.603992

>  <SCORE.INTRA.SOLV.lig_0>
-48.5832

>  <SCORE.INTRA.VDW>
-0.208975

>  <SCORE.INTRA.VDW.0>
-2.39056

>  <SCORE.INTRA.norm>
0.0350039

>  <SCORE.RESTR>
0

>  <SCORE.RESTR.CAVITY>
0

>  <SCORE.RESTR.norm>
0

>  <SCORE.SYSTEM>
0

>  <SCORE.SYSTEM.CONST>
0

>  <SCORE.SYSTEM.DIHEDRAL>
0

>  <SCORE.SYSTEM.SOLV>
0

>  <SCORE.SYSTEM.norm>
0

>  <SCORE.heavy>
27

>  <SCORE.norm>
-0.366133

>  <RMSD>
5.384

$$$$
ligand
 OpenBabel11021811473D
libRbt.so/2013.1/901 2013/11/27
 27 29  0  0  0  0  0  0  0  0999 V2000
   10.2185   -3.1267  -15.2452 N   0  0  0  0  0  0  0  0  0  0  0  0
   11.2519   -3.1709  -16.2901 C   0  0  2  0  0  0  0  0  0  0  0  0
   10.8213   -2.3177  -17.4871 C   0  0  0  0  0  0  0  0  0  0  0  0
    9.5927   -2.1596  -17.6578 O   0  0  0  0  0  0  0  0  0  0  0  0
   11.4332   -4.6205  -16.7437 C   0  0  0  0  0  0  0  0  0  0  0  0
   12.5274   -4.7576  -17.8054 C   0  0  0  0  0  0  0  0  0  0  0  0
   11.6057   -6.1707  -20.0910 C   0  0  0  0  0  0  0  0  0  0  0  0
   11.8486   -4.4375  -19.5058 Se  0  0  2  0  0  0  0  0  0  0  0  0
   13.2604   -3.8744  -20.5763 C   0  0  0  0  0  0  0  0  0  0  0  0
   14.6327   -4.0619  -19.9282 C   0  0  1  0  0  0  0  0  0  0  0  0
   14.9254   -5.4691  -19.8865 O   0  0  0  0  0  0  0  0  0  0  0  0
   15.6707   -3.4785  -20.8875 C   0  0  1  0  0  0  0  0  0  0  0  0
   16.9500   -3.4542  -20.2526 O   0  0  0  0  0  0  0  0  0  0  0  0
   15.6444   -4.5597  -21.9650 C   0  0  1  0  0  0  0  0  0  0  0  0
   16.8655   -4.5022  -22.7045 O   0  0  0  0  0  0  0  0  0  0  0  0
   15.6587   -5.8053  -21.0779 C   0  0  2  0  0  0  0  0  0  0  0  0
   11.7281   -1.8503  -18.2106 O   0  0  0  0  0  0  0  0  0  0  0  0
   15.3108   -8.5035  -25.4646 N   0  0  0  0  0  0  0  0  0  0  0  0
   16.0069   -7.4067  -25.2199 C   0  0  0  0  0  0  0  0  0  0  0  0
   15.9968   -6.8255  -24.0329 N   0  0  0  0  0  0  0  0  0  0  0  0
   15.2729   -7.3400  -23.0273 C   0  0  0  0  0  0  0  0  0  0  0  0
   14.5275   -8.4899  -23.2467 C   0  0  0  0  0  0  0  0  0  0  0  0
   14.5614   -9.0692  -24.5097 C   0  0  0  0  0  0  0  0  0  0  0  0
   13.8306  -10.1489  -24.7692 N   0  0  0  0  0  0  0  0  0  0  0  0
   13.9078   -8.7912  -22.1111 N   0  0  0  0  0  0  0  0  0  0  0  0
   14.2468   -7.8703  -21.2120 C   0  0  0  0  0  0  0  0  0  0  0  0
   15.0774   -6.9842  -21.7619 N   0  0  0  0  0  0  0  0  0  0  0  0
  2  1  1  1  0  0  0
  2  5  1  0  0  0  0
  2  3  1  0  0  0  0
  3 17  1  0  0  0  0
  3  4  1  0  0  0  0
  5  6  1  0  0  0  0
  7  8  1  0  0  0  0
  8  6  1  1  0  0  0
  8  9  1  0  0  0  0
 10  9  1  6  0  0  0
 10 11  1  0  0  0  0
 10 12  1  0  0  0  0
 11 16  1  0  0  0  0
 12 13  1  1  0  0  0
 12 14  1  0  0  0  0
 14 15  1  6  0  0  0
 14 16  1  0  0  0  0
 16 27  1  6  0  0  0
 18 23  2  0  0  0  0
 18 19  1  0  0  0  0
 19 20  2  0  0  0  0
 20 21  1  0  0  0  0
 21 22  2  0  0  0  0
 21 27  1  0  0  0  0
 22 23  1  0  0  0  0
 22 25  1  0  0  0  0
 23 24  1  0  0  0  0
 25 26  2  0  0  0  0
 26 27  1  0  0  0  0
M  END
>  <CHROM.1>
-178.25881666,-26.17492699,-85.38669823,-99.19191412,11.10219871,70.90617161
161.07747887,13.51367666,-5.29281326,-20.54741478,2.13329901,0.48715861,0.65358103

>  <Name>
ligand

>  <RI>
0

>  <Rbt.Current_Directory>
/home/itssahil/PROJECTS/Mol_Feturizer/New_Systems/rnas/3E5F

>  <Rbt.Executable>
rbdock ($Id: //depot/dev/client3/rdock/2013.1/src/exe/rbdock.cxx#4 $)

>  <Rbt.Library>
libRbt.so (2013.1, Build901 2013/11/27)

>  <Rbt.Parameter_File>
/export/apps/rDock/src/rDock_2013.1_src/data/scripts/dock_solv.prm

>  <Rbt.Receptor>
prm/pocket_docking_8.prm

>  <SCORE>
-16.8696

>  <SCORE.INTER>
-18.106

>  <SCORE.INTER.CONST>
1

>  <SCORE.INTER.POLAR>
0

>  <SCORE.INTER.ROT>
7

>  <SCORE.INTER.SOLV>
17.0712

>  <SCORE.INTER.VDW>
-26.0277

>  <SCORE.INTER.norm>
-0.670593

>  <SCORE.INTRA>
1.23638

>  <SCORE.INTRA.DIHEDRAL>
3.55311

>  <SCORE.INTRA.DIHEDRAL.0>
4.89803

>  <SCORE.INTRA.POLAR>
0

>  <SCORE.INTRA.POLAR.0>
0

>  <SCORE.INTRA.REPUL>
0

>  <SCORE.INTRA.REPUL.0>
0

>  <SCORE.INTRA.SOLV>
0.315454

>  <SCORE.INTRA.SOLV.lig_0>
-48.5832

>  <SCORE.INTRA.VDW>
-0.697908

>  <SCORE.INTRA.VDW.0>
-2.39056

>  <SCORE.INTRA.norm>
0.0457917

>  <SCORE.RESTR>
0

>  <SCORE.RESTR.CAVITY>
0

>  <SCORE.RESTR.norm>
0

>  <SCORE.SYSTEM>
0

>  <SCORE.SYSTEM.CONST>
0

>  <SCORE.SYSTEM.DIHEDRAL>
0

>  <SCORE.SYSTEM.SOLV>
0

>  <SCORE.SYSTEM.norm>
0

>  <SCORE.heavy>
27

>  <SCORE.norm>
-0.624801

>  <RMSD>
5.390

$$$$
ligand
 OpenBabel11021811473D
libRbt.so/2013.1/901 2013/11/27
 27 29  0  0  0  0  0  0  0  0999 V2000
    7.3925   -9.9466  -16.7401 N   0  0  0  0  0  0  0  0  0  0  0  0
    8.5708   -9.5149  -17.5062 C   0  0  2  0  0  0  0  0  0  0  0  0
    8.5990   -7.9866  -17.6043 C   0  0  0  0  0  0  0  0  0  0  0  0
    9.6950   -7.4248  -17.3879 O   0  0  0  0  0  0  0  0  0  0  0  0
    8.4889  -10.1088  -18.9136 C   0  0  0  0  0  0  0  0  0  0  0  0
    8.6677  -11.6291  -18.9067 C   0  0  0  0  0  0  0  0  0  0  0  0
    9.6703  -13.8974  -20.2923 C   0  0  0  0  0  0  0  0  0  0  0  0
    8.8378  -12.2869  -20.6368 Se  0  0  2  0  0  0  0  0  0  0  0  0
   10.1984  -11.3316  -21.4687 C   0  0  0  0  0  0  0  0  0  0  0  0
   10.3007  -11.5949  -22.9717 C   0  0  1  0  0  0  0  0  0  0  0  0
   11.0065  -10.4979  -23.5766 O   0  0  0  0  0  0  0  0  0  0  0  0
   11.2233  -12.7998  -23.1591 C   0  0  1  0  0  0  0  0  0  0  0  0
   11.2057  -13.2087  -24.5277 O   0  0  0  0  0  0  0  0  0  0  0  0
   12.5598  -12.1393  -22.8301 C   0  0  1  0  0  0  0  0  0  0  0  0
   13.6108  -12.9125  -23.4121 O   0  0  0  0  0  0  0  0  0  0  0  0
   12.4037  -10.8389  -23.6196 C   0  0  2  0  0  0  0  0  0  0  0  0
    7.5235   -7.4126  -17.8837 O   0  0  0  0  0  0  0  0  0  0  0  0
   16.0563   -7.3226  -24.5884 N   0  0  0  0  0  0  0  0  0  0  0  0
   15.4986   -8.1876  -25.4180 C   0  0  0  0  0  0  0  0  0  0  0  0
   14.5647   -9.0332  -25.0185 N   0  0  0  0  0  0  0  0  0  0  0  0
   14.1473   -9.0363  -23.7435 C   0  0  0  0  0  0  0  0  0  0  0  0
   14.7108   -8.1437  -22.8425 C   0  0  0  0  0  0  0  0  0  0  0  0
   15.6927   -7.2731  -23.3005 C   0  0  0  0  0  0  0  0  0  0  0  0
   16.2833   -6.4302  -22.4591 N   0  0  0  0  0  0  0  0  0  0  0  0
   14.1361   -8.3457  -21.6621 N   0  0  0  0  0  0  0  0  0  0  0  0
   13.2472   -9.3251  -21.8106 C   0  0  0  0  0  0  0  0  0  0  0  0
   13.2479   -9.7502  -23.0741 N   0  0  0  0  0  0  0  0  0  0  0  0
  2  1  1  1  0  0  0
  2  5  1  0  0  0  0
  2  3  1  0  0  0  0
  3 17  1  0  0  0  0
  3  4  1  0  0  0  0
  5  6  1  0  0  0  0
  7  8  1  0  0  0  0
  8  6  1  1  0  0  0
  8  9  1  0  0  0  0
 10  9  1  1  0  0  0
 10 11  1  0  0  0  0
 10 12  1  0  0  0  0
 11 16  1  0  0  0  0
 12 13  1  6  0  0  0
 12 14  1  0  0  0  0
 14 15  1  6  0  0  0
 14 16  1  0  0  0  0
 16 27  1  1  0  0  0
 18 23  2  0  0  0  0
 18 19  1  0  0  0  0
 19 20  2  0  0  0  0
 20 21  1  0  0  0  0
 21 22  2  0  0  0  0
 21 27  1  0  0  0  0
 22 23  1  0  0  0  0
 22 25  1  0  0  0  0
 23 24  1  0  0  0  0
 25 26  2  0  0  0  0
 26 27  1  0  0  0  0
M  END
>  <CHROM.1>
-68.52062278,134.71589570,-170.85855765,158.84096479,-170.24905739,159.28379297
-115.84648240,11.25174416,-10.33399755,-21.48899877,-2.97414590,-0.68107718
-2.52879428

>  <Name>
ligand

>  <RI>
0

>  <Rbt.Current_Directory>
/home/itssahil/PROJECTS/Mol_Feturizer/New_Systems/rnas/3E5F

>  <Rbt.Executable>
rbdock ($Id: //depot/dev/client3/rdock/2013.1/src/exe/rbdock.cxx#4 $)

>  <Rbt.Library>
libRbt.so (2013.1, Build901 2013/11/27)

>  <Rbt.Parameter_File>
/export/apps/rDock/src/rDock_2013.1_src/data/scripts/dock_solv.prm

>  <Rbt.Receptor>
prm/pocket_docking_6.prm

>  <SCORE>
-20.6437

>  <SCORE.INTER>
-21.4277

>  <SCORE.INTER.CONST>
1

>  <SCORE.INTER.POLAR>
0

>  <SCORE.INTER.ROT>
7

>  <SCORE.INTER.SOLV>
12.2887

>  <SCORE.INTER.VDW>
-26.6481

>  <SCORE.INTER.norm>
-0.793619

>  <SCORE.INTRA>
0.783985

>  <SCORE.INTRA.DIHEDRAL>
0.683273

>  <SCORE.INTRA.DIHEDRAL.0>
4.89803

>  <SCORE.INTRA.POLAR>
0

>  <SCORE.INTRA.POLAR.0>
0

>  <SCORE.INTRA.REPUL>
0

>  <SCORE.INTRA.REPUL.0>
0

>  <SCORE.INTRA.SOLV>
0.556239

>  <SCORE.INTRA.SOLV.lig_0>
-48.5832

>  <SCORE.INTRA.VDW>
0.164229

>  <SCORE.INTRA.VDW.0>
-2.39056

>  <SCORE.INTRA.norm>
0.0290365

>  <SCORE.RESTR>
0

>  <SCORE.RESTR.CAVITY>
0

>  <SCORE.RESTR.norm>
0

>  <SCORE.SYSTEM>
0

>  <SCORE.SYSTEM.CONST>
0

>  <SCORE.SYSTEM.DIHEDRAL>
0

>  <SCORE.SYSTEM.SOLV>
0

>  <SCORE.SYSTEM.norm>
0

>  <SCORE.heavy>
27

>  <SCORE.norm>
-0.764583

>  <RMSD>
5.394

$$$$
ligand
 OpenBabel11021811473D
libRbt.so/2013.1/901 2013/11/27
 27 29  0  0  0  0  0  0  0  0999 V2000
    6.9975  -10.1845  -16.3383 N   0  0  0  0  0  0  0  0  0  0  0  0
    8.2302   -9.8830  -17.0809 C   0  0  2  0  0  0  0  0  0  0  0  0
    8.3268   -8.3770  -17.3433 C   0  0  0  0  0  0  0  0  0  0  0  0
    9.3412   -7.7896  -16.9079 O   0  0  0  0  0  0  0  0  0  0  0  0
    8.1953  -10.6262  -18.4174 C   0  0  0  0  0  0  0  0  0  0  0  0
    9.5101  -10.4835  -19.1884 C   0  0  0  0  0  0  0  0  0  0  0  0
   10.0187  -12.9913  -20.4224 C   0  0  0  0  0  0  0  0  0  0  0  0
    9.3992  -11.3066  -20.8511 Se  0  0  2  0  0  0  0  0  0  0  0  0
   10.7899  -10.6502  -21.8957 C   0  0  0  0  0  0  0  0  0  0  0  0
   10.7918  -11.1947  -23.3247 C   0  0  1  0  0  0  0  0  0  0  0  0
   11.5866  -10.3185  -24.1422 O   0  0  0  0  0  0  0  0  0  0  0  0
   11.5647  -12.5141  -23.3060 C   0  0  1  0  0  0  0  0  0  0  0  0
   11.4377  -13.1620  -24.5727 O   0  0  0  0  0  0  0  0  0  0  0  0
   12.9803  -11.9671  -23.1404 C   0  0  1  0  0  0  0  0  0  0  0  0
   13.9103  -12.9526  -23.5932 O   0  0  0  0  0  0  0  0  0  0  0  0
   12.9334  -10.8243  -24.1555 C   0  0  2  0  0  0  0  0  0  0  0  0
    7.3811   -7.8440  -17.9645 O   0  0  0  0  0  0  0  0  0  0  0  0
   15.4904   -8.2612  -20.4763 N   0  0  0  0  0  0  0  0  0  0  0  0
   14.6213   -9.2487  -20.3463 C   0  0  0  0  0  0  0  0  0  0  0  0
   14.0444   -9.8113  -21.3938 N   0  0  0  0  0  0  0  0  0  0  0  0
   14.3299   -9.3937  -22.6364 C   0  0  0  0  0  0  0  0  0  0  0  0
   15.2364   -8.3577  -22.8127 C   0  0  0  0  0  0  0  0  0  0  0  0
   15.8189   -7.7896  -21.6859 C   0  0  0  0  0  0  0  0  0  0  0  0
   16.6623   -6.7698  -21.8121 N   0  0  0  0  0  0  0  0  0  0  0  0
   15.3434   -8.1336  -24.1176 N   0  0  0  0  0  0  0  0  0  0  0  0
   14.5381   -8.9915  -24.7398 C   0  0  0  0  0  0  0  0  0  0  0  0
   13.9183   -9.7616  -23.8453 N   0  0  0  0  0  0  0  0  0  0  0  0
  2  1  1  6  0  0  0
  2  5  1  0  0  0  0
  2  3  1  0  0  0  0
  3 17  1  0  0  0  0
  3  4  1  0  0  0  0
  5  6  1  0  0  0  0
  7  8  1  0  0  0  0
  8  6  1  1  0  0  0
  8  9  1  0  0  0  0
 10  9  1  1  0  0  0
 10 11  1  0  0  0  0
 10 12  1  0  0  0  0
 11 16  1  0  0  0  0
 12 13  1  6  0  0  0
 12 14  1  0  0  0  0
 14 15  1  6  0  0  0
 14 16  1  0  0  0  0
 16 27  1  1  0  0  0
 18 23  2  0  0  0  0
 18 19  1  0  0  0  0
 19 20  2  0  0  0  0
 20 21  1  0  0  0  0
 21 22  2  0  0  0  0
 21 27  1  0  0  0  0
 22 23  1  0  0  0  0
 22 25  1  0  0  0  0
 23 24  1  0  0  0  0
 25 26  2  0  0  0  0
 26 27  1  0  0  0  0
M  END
>  <CHROM.1>
-173.95214903,122.15952570,-176.45663952,-91.43695895,-177.44887948,160.92508002
87.32662408,11.51876893,-10.21879143,-21.26112218,-2.69707975,-0.52312995
-2.30669464

>  <Name>
ligand

>  <RI>
0

>  <Rbt.Current_Directory>
/home/itssahil/PROJECTS/Mol_Feturizer/New_Systems/rnas/3E5F

>  <Rbt.Executable>
rbdock ($Id: //depot/dev/client3/rdock/2013.1/src/exe/rbdock.cxx#4 $)

>  <Rbt.Library>
libRbt.so (2013.1, Build901 2013/11/27)

>  <Rbt.Parameter_File>
/export/apps/rDock/src/rDock_2013.1_src/data/scripts/dock_solv.prm

>  <Rbt.Receptor>
prm/pocket_docking_7.prm

>  <SCORE>
-18.9865

>  <SCORE.INTER>
-19.2821

>  <SCORE.INTER.CONST>
1

>  <SCORE.INTER.POLAR>
0

>  <SCORE.INTER.ROT>
7

>  <SCORE.INTER.SOLV>
11.2471

>  <SCORE.INTER.VDW>
-24.8705

>  <SCORE.INTER.norm>
-0.714153

>  <SCORE.INTRA>
0.295659

>  <SCORE.INTRA.DIHEDRAL>
0.278171

>  <SCORE.INTRA.DIHEDRAL.0>
4.89803

>  <SCORE.INTRA.POLAR>
0

>  <SCORE.INTRA.POLAR.0>
0

>  <SCORE.INTRA.REPUL>
0

>  <SCORE.INTRA.REPUL.0>
0

>  <SCORE.INTRA.SOLV>
-0.012202

>  <SCORE.INTRA.SOLV.lig_0>
-48.5832

>  <SCORE.INTRA.VDW>
0.162675

>  <SCORE.INTRA.VDW.0>
-2.39056

>  <SCORE.INTRA.norm>
0.0109503

>  <SCORE.RESTR>
0

>  <SCORE.RESTR.CAVITY>
0

>  <SCORE.RESTR.norm>
0

>  <SCORE.SYSTEM>
0

>  <SCORE.SYSTEM.CONST>
0

>  <SCORE.SYSTEM.DIHEDRAL>
0

>  <SCORE.SYSTEM.SOLV>
0

>  <SCORE.SYSTEM.norm>
0

>  <SCORE.heavy>
27

>  <SCORE.norm>
-0.703203

>  <RMSD>
5.396

$$$$
ligand
 OpenBabel11021811473D
libRbt.so/2013.1/901 2013/11/27
 27 29  0  0  0  0  0  0  0  0999 V2000
   15.1550   -4.7171  -21.9389 N   0  0  0  0  0  0  0  0  0  0  0  0
   14.3279   -3.7895  -21.1533 C   0  0  2  0  0  0  0  0  0  0  0  0
   15.1898   -2.6368  -20.6293 C   0  0  0  0  0  0  0  0  0  0  0  0
   14.6113   -1.7585  -19.9529 O   0  0  0  0  0  0  0  0  0  0  0  0
   13.7259   -4.5476  -19.9688 C   0  0  0  0  0  0  0  0  0  0  0  0
   13.0533   -5.8521  -20.4037 C   0  0  0  0  0  0  0  0  0  0  0  0
   15.5736   -7.1348  -20.1324 C   0  0  0  0  0  0  0  0  0  0  0  0
   13.8289   -7.3146  -19.5586 Se  0  0  2  0  0  0  0  0  0  0  0  0
   13.2891   -8.8413  -20.4719 C   0  0  0  0  0  0  0  0  0  0  0  0
   14.3565   -9.4010  -21.4131 C   0  0  1  0  0  0  0  0  0  0  0  0
   14.1447  -10.8169  -21.5471 O   0  0  0  0  0  0  0  0  0  0  0  0
   14.0759   -8.8339  -22.8052 C   0  0  1  0  0  0  0  0  0  0  0  0
   15.1495   -9.1703  -23.6853 O   0  0  0  0  0  0  0  0  0  0  0  0
   12.8367   -9.6525  -23.1587 C   0  0  1  0  0  0  0  0  0  0  0  0
   12.6860   -9.6692  -24.5793 O   0  0  0  0  0  0  0  0  0  0  0  0
   13.3004  -11.0330  -22.6919 C   0  0  2  0  0  0  0  0  0  0  0  0
   16.4052   -2.6533  -20.9237 O   0  0  0  0  0  0  0  0  0  0  0  0
    9.3805  -13.8488  -24.5223 N   0  0  0  0  0  0  0  0  0  0  0  0
   10.2704  -13.1351  -25.1903 C   0  0  0  0  0  0  0  0  0  0  0  0
   11.2269  -12.4617  -24.5752 N   0  0  0  0  0  0  0  0  0  0  0  0
   11.3263  -12.4856  -23.2375 C   0  0  0  0  0  0  0  0  0  0  0  0
   10.4090  -13.2226  -22.5017 C   0  0  0  0  0  0  0  0  0  0  0  0
    9.4156  -13.9139  -23.1852 C   0  0  0  0  0  0  0  0  0  0  0  0
    8.4958  -14.5994  -22.5134 N   0  0  0  0  0  0  0  0  0  0  0  0
   10.7181  -13.0840  -21.2173 N   0  0  0  0  0  0  0  0  0  0  0  0
   11.7856  -12.2924  -21.1443 C   0  0  0  0  0  0  0  0  0  0  0  0
   12.1617  -11.9246  -22.3693 N   0  0  0  0  0  0  0  0  0  0  0  0
  2  1  1  1  0  0  0
  2  5  1  0  0  0  0
  2  3  1  0  0  0  0
  3 17  1  0  0  0  0
  3  4  1  0  0  0  0
  5  6  1  0  0  0  0
  7  8  1  0  0  0  0
  8  6  1  6  0  0  0
  8  9  1  0  0  0  0
 10  9  1  1  0  0  0
 10 11  1  0  0  0  0
 10 12  1  0  0  0  0
 11 16  1  0  0  0  0
 12 13  1  6  0  0  0
 12 14  1  0  0  0  0
 14 15  1  6  0  0  0
 14 16  1  0  0  0  0
 16 27  1  1  0  0  0
 18 23  2  0  0  0  0
 18 19  1  0  0  0  0
 19 20  2  0  0  0  0
 20 21  1  0  0  0  0
 21 22  2  0  0  0  0
 21 27  1  0  0  0  0
 22 23  1  0  0  0  0
 22 25  1  0  0  0  0
 23 24  1  0  0  0  0
 25 26  2  0  0  0  0
 26 27  1  0  0  0  0
M  END
>  <CHROM.1>
-50.06111345,179.20613099,120.82422750,-59.00698954,101.79710531,152.44413836
-168.74558226,13.06935312,-8.82326602,-21.66247024,-0.54560639,-1.06264604
-1.85688269

>  <Name>
ligand

>  <RI>
0

>  <Rbt.Current_Directory>
/home/itssahil/PROJECTS/Mol_Feturizer/New_Systems/rnas/3E5F

>  <Rbt.Executable>
rbdock ($Id: //depot/dev/client3/rdock/2013.1/src/exe/rbdock.cxx#4 $)

>  <Rbt.Library>
libRbt.so (2013.1, Build901 2013/11/27)

>  <Rbt.Parameter_File>
/export/apps/rDock/src/rDock_2013.1_src/data/scripts/dock_solv.prm

>  <Rbt.Receptor>
prm/blind_docking_80.prm

>  <SCORE>
-4.19189

>  <SCORE.INTER>
-12.6443

>  <SCORE.INTER.CONST>
1

>  <SCORE.INTER.POLAR>
0

>  <SCORE.INTER.ROT>
7

>  <SCORE.INTER.SOLV>
11.3177

>  <SCORE.INTER.VDW>
-20.4688

>  <SCORE.INTER.norm>
-0.468306

>  <SCORE.INTRA>
8.19131

>  <SCORE.INTRA.DIHEDRAL>
8.23027

>  <SCORE.INTRA.DIHEDRAL.0>
4.89803

>  <SCORE.INTRA.POLAR>
0

>  <SCORE.INTRA.POLAR.0>
0

>  <SCORE.INTRA.REPUL>
0

>  <SCORE.INTRA.REPUL.0>
0

>  <SCORE.INTRA.SOLV>
2.57575

>  <SCORE.INTRA.SOLV.lig_0>
-48.5832

>  <SCORE.INTRA.VDW>
2.7883

>  <SCORE.INTRA.VDW.0>
-2.39056

>  <SCORE.INTRA.norm>
0.303382

>  <SCORE.RESTR>
0.261075

>  <SCORE.RESTR.CAVITY>
0.261075

>  <SCORE.RESTR.norm>
0.00966946

>  <SCORE.SYSTEM>
0

>  <SCORE.SYSTEM.CONST>
0

>  <SCORE.SYSTEM.DIHEDRAL>
0

>  <SCORE.SYSTEM.SOLV>
0

>  <SCORE.SYSTEM.norm>
0

>  <SCORE.heavy>
27

>  <SCORE.norm>
-0.155255

>  <RMSD>
5.407

$$$$
ligand
 OpenBabel11021811473D
libRbt.so/2013.1/901 2013/11/27
 27 29  0  0  0  0  0  0  0  0999 V2000
   17.3647   -5.8345  -19.4608 N   0  0  0  0  0  0  0  0  0  0  0  0
   16.9822   -5.5690  -20.8555 C   0  0  2  0  0  0  0  0  0  0  0  0
   15.9220   -4.4646  -20.9051 C   0  0  0  0  0  0  0  0  0  0  0  0
   16.0716   -3.5735  -21.7695 O   0  0  0  0  0  0  0  0  0  0  0  0
   16.4049   -6.8495  -21.4611 C   0  0  0  0  0  0  0  0  0  0  0  0
   16.0712   -6.6830  -22.9458 C   0  0  0  0  0  0  0  0  0  0  0  0
   15.5715   -7.8105  -25.5050 C   0  0  0  0  0  0  0  0  0  0  0  0
   15.7395   -8.3294  -23.7420 Se  0  0  2  0  0  0  0  0  0  0  0  0
   13.9933   -8.8123  -23.3251 C   0  0  0  0  0  0  0  0  0  0  0  0
   13.6571   -8.6705  -21.8400 C   0  0  1  0  0  0  0  0  0  0  0  0
   12.2914   -9.0760  -21.6442 O   0  0  0  0  0  0  0  0  0  0  0  0
   14.4828   -9.7139  -21.0866 C   0  0  1  0  0  0  0  0  0  0  0  0
   14.3533   -9.5031  -19.6797 O   0  0  0  0  0  0  0  0  0  0  0  0
   13.7219  -10.9723  -21.4968 C   0  0  1  0  0  0  0  0  0  0  0  0
   13.9845  -12.0010  -20.5408 O   0  0  0  0  0  0  0  0  0  0  0  0
   12.2875  -10.4757  -21.3114 C   0  0  2  0  0  0  0  0  0  0  0  0
   14.9908   -4.5295  -20.0726 O   0  0  0  0  0  0  0  0  0  0  0  0
    8.9940  -14.4425  -21.5617 N   0  0  0  0  0  0  0  0  0  0  0  0
    9.7325  -14.0423  -20.5409 C   0  0  0  0  0  0  0  0  0  0  0  0
   10.5355  -12.9964  -20.6298 N   0  0  0  0  0  0  0  0  0  0  0  0
   10.6234  -12.2987  -21.7723 C   0  0  0  0  0  0  0  0  0  0  0  0
    9.8644  -12.6896  -22.8665 C   0  0  0  0  0  0  0  0  0  0  0  0
    9.0351  -13.7971  -22.7343 C   0  0  0  0  0  0  0  0  0  0  0  0
    8.3221  -14.2252  -23.7715 N   0  0  0  0  0  0  0  0  0  0  0  0
   10.1287  -11.8497  -23.8610 N   0  0  0  0  0  0  0  0  0  0  0  0
   11.0176  -10.9654  -23.4145 C   0  0  0  0  0  0  0  0  0  0  0  0
   11.3232  -11.2318  -22.1445 N   0  0  0  0  0  0  0  0  0  0  0  0
  2  1  1  1  0  0  0
  2  5  1  0  0  0  0
  2  3  1  0  0  0  0
  3 17  1  0  0  0  0
  3  4  1  0  0  0  0
  5  6  1  0  0  0  0
  7  8  1  0  0  0  0
  8  6  1  1  0  0  0
  8  9  1  0  0  0  0
 10  9  1  6  0  0  0
 10 11  1  0  0  0  0
 10 12  1  0  0  0  0
 11 16  1  0  0  0  0
 12 13  1  1  0  0  0
 12 14  1  0  0  0  0
 14 15  1  1  0  0  0
 14 16  1  0  0  0  0
 16 27  1  6  0  0  0
 18 23  2  0  0  0  0
 18 19  1  0  0  0  0
 19 20  2  0  0  0  0
 20 21  1  0  0  0  0
 21 22  2  0  0  0  0
 21 27  1  0  0  0  0
 22 23  1  0  0  0  0
 22 25  1  0  0  0  0
 23 24  1  0  0  0  0
 25 26  2  0  0  0  0
 26 27  1  0  0  0  0
M  END
>  <CHROM.1>
-176.02049267,135.59962861,167.25298307,-173.87118485,-48.44119587,-179.76141104
-147.19052392,13.56285442,-9.39221262,-22.14698392,0.16703533,0.83543581
1.38887772

>  <Name>
ligand

>  <RI>
0

>  <Rbt.Current_Directory>
/home/itssahil/PROJECTS/Mol_Feturizer/New_Systems/rnas/3E5F

>  <Rbt.Executable>
rbdock ($Id: //depot/dev/client3/rdock/2013.1/src/exe/rbdock.cxx#4 $)

>  <Rbt.Library>
libRbt.so (2013.1, Build901 2013/11/27)

>  <Rbt.Parameter_File>
/export/apps/rDock/src/rDock_2013.1_src/data/scripts/dock_solv.prm

>  <Rbt.Receptor>
prm/blind_docking_60.prm

>  <SCORE>
-19.7226

>  <SCORE.INTER>
-19.1421

>  <SCORE.INTER.CONST>
1

>  <SCORE.INTER.POLAR>
0

>  <SCORE.INTER.ROT>
7

>  <SCORE.INTER.SOLV>
10.0912

>  <SCORE.INTER.VDW>
-24.3918

>  <SCORE.INTER.norm>
-0.708967

>  <SCORE.INTRA>
-0.580499

>  <SCORE.INTRA.DIHEDRAL>
-0.528835

>  <SCORE.INTRA.DIHEDRAL.0>
4.89803

>  <SCORE.INTRA.POLAR>
0

>  <SCORE.INTRA.POLAR.0>
0

>  <SCORE.INTRA.REPUL>
0

>  <SCORE.INTRA.REPUL.0>
0

>  <SCORE.INTRA.SOLV>
0.129892

>  <SCORE.INTRA.SOLV.lig_0>
-48.5832

>  <SCORE.INTRA.VDW>
-0.381028

>  <SCORE.INTRA.VDW.0>
-2.39056

>  <SCORE.INTRA.norm>
-0.0215

>  <SCORE.RESTR>
0

>  <SCORE.RESTR.CAVITY>
0

>  <SCORE.RESTR.norm>
0

>  <SCORE.SYSTEM>
0

>  <SCORE.SYSTEM.CONST>
0

>  <SCORE.SYSTEM.DIHEDRAL>
0

>  <SCORE.SYSTEM.SOLV>
0

>  <SCORE.SYSTEM.norm>
0

>  <SCORE.heavy>
27

>  <SCORE.norm>
-0.730467

>  <RMSD>
5.413

$$$$
ligand
 OpenBabel11021811473D
libRbt.so/2013.1/901 2013/11/27
 27 29  0  0  0  0  0  0  0  0999 V2000
   16.0578   -6.4342  -19.8286 N   0  0  0  0  0  0  0  0  0  0  0  0
   16.3636   -5.6204  -21.0144 C   0  0  2  0  0  0  0  0  0  0  0  0
   15.2281   -4.6251  -21.2717 C   0  0  0  0  0  0  0  0  0  0  0  0
   15.5101   -3.6019  -21.9329 O   0  0  0  0  0  0  0  0  0  0  0  0
   16.5066   -6.5456  -22.2241 C   0  0  0  0  0  0  0  0  0  0  0  0
   15.2412   -7.3717  -22.4683 C   0  0  0  0  0  0  0  0  0  0  0  0
   15.6610   -7.4384  -25.2772 C   0  0  0  0  0  0  0  0  0  0  0  0
   15.4989   -8.5923  -23.8461 Se  0  0  2  0  0  0  0  0  0  0  0  0
   13.8598   -9.3966  -24.1966 C   0  0  0  0  0  0  0  0  0  0  0  0
   13.7228  -10.7951  -23.5934 C   0  0  1  0  0  0  0  0  0  0  0  0
   13.6669  -10.6675  -22.1622 O   0  0  0  0  0  0  0  0  0  0  0  0
   12.3447  -11.3265  -23.9891 C   0  0  1  0  0  0  0  0  0  0  0  0
   12.2351  -12.7006  -23.6145 O   0  0  0  0  0  0  0  0  0  0  0  0
   11.4775  -10.4663  -23.0733 C   0  0  1  0  0  0  0  0  0  0  0  0
   10.2162  -11.1128  -22.8933 O   0  0  0  0  0  0  0  0  0  0  0  0
   12.2831  -10.5788  -21.7783 C   0  0  2  0  0  0  0  0  0  0  0  0
   14.1060   -4.9033  -20.7944 O   0  0  0  0  0  0  0  0  0  0  0  0
    9.7521   -8.8269  -17.6347 N   0  0  0  0  0  0  0  0  0  0  0  0
    9.7091  -10.0281  -18.1849 C   0  0  0  0  0  0  0  0  0  0  0  0
   10.4236  -10.3303  -19.2548 N   0  0  0  0  0  0  0  0  0  0  0  0
   11.2268   -9.4160  -19.8196 C   0  0  0  0  0  0  0  0  0  0  0  0
   11.2970   -8.1430  -19.2712 C   0  0  0  0  0  0  0  0  0  0  0  0
   10.5273   -7.8632  -18.1483 C   0  0  0  0  0  0  0  0  0  0  0  0
   10.5384   -6.6444  -17.6177 N   0  0  0  0  0  0  0  0  0  0  0  0
   12.1487   -7.4349  -20.0045 N   0  0  0  0  0  0  0  0  0  0  0  0
   12.5975   -8.2267  -20.9756 C   0  0  0  0  0  0  0  0  0  0  0  0
   12.0414   -9.4337  -20.8695 N   0  0  0  0  0  0  0  0  0  0  0  0
  2  1  1  1  0  0  0
  2  5  1  0  0  0  0
  2  3  1  0  0  0  0
  3 17  1  0  0  0  0
  3  4  1  0  0  0  0
  5  6  1  0  0  0  0
  7  8  1  0  0  0  0
  8  6  1  1  0  0  0
  8  9  1  0  0  0  0
 10  9  1  6  0  0  0
 10 11  1  0  0  0  0
 10 12  1  0  0  0  0
 11 16  1  0  0  0  0
 12 13  1  1  0  0  0
 12 14  1  0  0  0  0
 14 15  1  1  0  0  0
 14 16  1  0  0  0  0
 16 27  1  1  0  0  0
 18 23  2  0  0  0  0
 18 19  1  0  0  0  0
 19 20  2  0  0  0  0
 20 21  1  0  0  0  0
 21 22  2  0  0  0  0
 21 27  1  0  0  0  0
 22 23  1  0  0  0  0
 22 25  1  0  0  0  0
 23 24  1  0  0  0  0
 25 26  2  0  0  0  0
 26 27  1  0  0  0  0
M  END
>  <CHROM.1>
58.15658727,157.05757298,-174.90476145,-67.64859270,-101.55415972,68.56901943
-141.15678825,13.38792265,-8.48017563,-21.76110512,-0.08558132,0.69576465
0.73649039

>  <Name>
ligand

>  <RI>
0

>  <Rbt.Current_Directory>
/home/itssahil/PROJECTS/Mol_Feturizer/New_Systems/rnas/3E5F

>  <Rbt.Executable>
rbdock ($Id: //depot/dev/client3/rdock/2013.1/src/exe/rbdock.cxx#4 $)

>  <Rbt.Library>
libRbt.so (2013.1, Build901 2013/11/27)

>  <Rbt.Parameter_File>
/export/apps/rDock/src/rDock_2013.1_src/data/scripts/dock_solv.prm

>  <Rbt.Receptor>
prm/pocket_docking_5.prm

>  <SCORE>
-16.2256

>  <SCORE.INTER>
-16.4727

>  <SCORE.INTER.CONST>
1

>  <SCORE.INTER.POLAR>
0

>  <SCORE.INTER.ROT>
7

>  <SCORE.INTER.SOLV>
8.92042

>  <SCORE.INTER.VDW>
-22.2219

>  <SCORE.INTER.norm>
-0.610099

>  <SCORE.INTRA>
0.247095

>  <SCORE.INTRA.DIHEDRAL>
-0.240725

>  <SCORE.INTRA.DIHEDRAL.0>
4.89803

>  <SCORE.INTRA.POLAR>
0

>  <SCORE.INTRA.POLAR.0>
0

>  <SCORE.INTRA.REPUL>
0

>  <SCORE.INTRA.REPUL.0>
0

>  <SCORE.INTRA.SOLV>
0.741157

>  <SCORE.INTRA.SOLV.lig_0>
-48.5832

>  <SCORE.INTRA.VDW>
-0.00312097

>  <SCORE.INTRA.VDW.0>
-2.39056

>  <SCORE.INTRA.norm>
0.00915166

>  <SCORE.RESTR>
0

>  <SCORE.RESTR.CAVITY>
0

>  <SCORE.RESTR.norm>
0

>  <SCORE.SYSTEM>
0

>  <SCORE.SYSTEM.CONST>
0

>  <SCORE.SYSTEM.DIHEDRAL>
0

>  <SCORE.SYSTEM.SOLV>
0

>  <SCORE.SYSTEM.norm>
0

>  <SCORE.heavy>
27

>  <SCORE.norm>
-0.600947

>  <RMSD>
5.416

$$$$
ligand
 OpenBabel11021811473D
libRbt.so/2013.1/901 2013/11/27
 27 29  0  0  0  0  0  0  0  0999 V2000
   14.7069   -5.3703  -17.3225 N   0  0  0  0  0  0  0  0  0  0  0  0
   15.6833   -6.3953  -16.9254 C   0  0  2  0  0  0  0  0  0  0  0  0
   17.0069   -5.7317  -16.5329 C   0  0  0  0  0  0  0  0  0  0  0  0
   16.9593   -4.5292  -16.1933 O   0  0  0  0  0  0  0  0  0  0  0  0
   15.9219   -7.3343  -18.1092 C   0  0  0  0  0  0  0  0  0  0  0  0
   14.6503   -8.0856  -18.5117 C   0  0  0  0  0  0  0  0  0  0  0  0
   14.9764   -8.4420  -21.3112 C   0  0  0  0  0  0  0  0  0  0  0  0
   15.0295   -9.4210  -19.7477 Se  0  0  2  0  0  0  0  0  0  0  0  0
   13.5093  -10.4780  -19.9153 C   0  0  0  0  0  0  0  0  0  0  0  0
   13.7010  -11.6843  -20.8355 C   0  0  1  0  0  0  0  0  0  0  0  0
   12.6590  -12.6356  -20.5581 O   0  0  0  0  0  0  0  0  0  0  0  0
   13.4252  -11.2132  -22.2639 C   0  0  1  0  0  0  0  0  0  0  0  0
   13.7725  -12.2479  -23.1854 O   0  0  0  0  0  0  0  0  0  0  0  0
   11.9071  -11.0720  -22.1872 C   0  0  1  0  0  0  0  0  0  0  0  0
   11.3720  -11.1303  -23.5106 O   0  0  0  0  0  0  0  0  0  0  0  0
   11.5660  -12.3709  -21.4555 C   0  0  2  0  0  0  0  0  0  0  0  0
   18.0381   -6.4372  -16.5898 O   0  0  0  0  0  0  0  0  0  0  0  0
    8.6648   -9.6877  -18.1347 N   0  0  0  0  0  0  0  0  0  0  0  0
    9.8757   -9.4115  -18.5873 C   0  0  0  0  0  0  0  0  0  0  0  0
   10.4961  -10.2028  -19.4451 N   0  0  0  0  0  0  0  0  0  0  0  0
    9.9061  -11.3225  -19.8902 C   0  0  0  0  0  0  0  0  0  0  0  0
    8.6355  -11.6468  -19.4361 C   0  0  0  0  0  0  0  0  0  0  0  0
    8.0180  -10.7911  -18.5315 C   0  0  0  0  0  0  0  0  0  0  0  0
    6.8172  -11.0877  -18.0443 N   0  0  0  0  0  0  0  0  0  0  0  0
    8.2791  -12.7873  -20.0163 N   0  0  0  0  0  0  0  0  0  0  0  0
    9.2824  -13.1681  -20.8037 C   0  0  0  0  0  0  0  0  0  0  0  0
   10.2757  -12.2818  -20.7325 N   0  0  0  0  0  0  0  0  0  0  0  0
  2  1  1  6  0  0  0
  2  5  1  0  0  0  0
  2  3  1  0  0  0  0
  3 17  1  0  0  0  0
  3  4  1  0  0  0  0
  5  6  1  0  0  0  0
  7  8  1  0  0  0  0
  8  6  1  1  0  0  0
  8  9  1  0  0  0  0
 10  9  1  1  0  0  0
 10 11  1  0  0  0  0
 10 12  1  0  0  0  0
 11 16  1  0  0  0  0
 12 13  1  6  0  0  0
 12 14  1  0  0  0  0
 14 15  1  6  0  0  0
 14 16  1  0  0  0  0
 16 27  1  1  0  0  0
 18 23  2  0  0  0  0
 18 19  1  0  0  0  0
 19 20  2  0  0  0  0
 20 21  1  0  0  0  0
 21 22  2  0  0  0  0
 21 27  1  0  0  0  0
 22 23  1  0  0  0  0
 22 25  1  0  0  0  0
 23 24  1  0  0  0  0
 25 26  2  0  0  0  0
 26 27  1  0  0  0  0
M  END
>  <CHROM.1>
-62.76677412,21.98696629,-170.29751448,-85.20103578,-176.10188840,161.58574480
68.79826196,12.90053530,-9.78355999,-19.62620607,0.66822902,0.30326401,0.85754323

>  <Name>
ligand

>  <RI>
0

>  <Rbt.Current_Directory>
/home/itssahil/PROJECTS/Mol_Feturizer/New_Systems/rnas/3E5F

>  <Rbt.Executable>
rbdock ($Id: //depot/dev/client3/rdock/2013.1/src/exe/rbdock.cxx#4 $)

>  <Rbt.Library>
libRbt.so (2013.1, Build901 2013/11/27)

>  <Rbt.Parameter_File>
/export/apps/rDock/src/rDock_2013.1_src/data/scripts/dock_solv.prm

>  <Rbt.Receptor>
prm/blind_docking_40.prm

>  <SCORE>
-12.3818

>  <SCORE.INTER>
-13.449

>  <SCORE.INTER.CONST>
1

>  <SCORE.INTER.POLAR>
0

>  <SCORE.INTER.ROT>
7

>  <SCORE.INTER.SOLV>
7.16854

>  <SCORE.INTER.VDW>
-19.6222

>  <SCORE.INTER.norm>
-0.49811

>  <SCORE.INTRA>
1.06713

>  <SCORE.INTRA.DIHEDRAL>
0.138835

>  <SCORE.INTRA.DIHEDRAL.0>
4.89803

>  <SCORE.INTRA.POLAR>
0

>  <SCORE.INTRA.POLAR.0>
0

>  <SCORE.INTRA.REPUL>
0

>  <SCORE.INTRA.REPUL.0>
0

>  <SCORE.INTRA.SOLV>
0.674089

>  <SCORE.INTRA.SOLV.lig_0>
-48.5832

>  <SCORE.INTRA.VDW>
0.660668

>  <SCORE.INTRA.VDW.0>
-2.39056

>  <SCORE.INTRA.norm>
0.0395233

>  <SCORE.RESTR>
0

>  <SCORE.RESTR.CAVITY>
0

>  <SCORE.RESTR.norm>
0

>  <SCORE.SYSTEM>
0

>  <SCORE.SYSTEM.CONST>
0

>  <SCORE.SYSTEM.DIHEDRAL>
0

>  <SCORE.SYSTEM.SOLV>
0

>  <SCORE.SYSTEM.norm>
0

>  <SCORE.heavy>
27

>  <SCORE.norm>
-0.458587

>  <RMSD>
5.419

$$$$
ligand
 OpenBabel11021811473D
libRbt.so/2013.1/901 2013/11/27
 27 29  0  0  0  0  0  0  0  0999 V2000
   12.4580   -5.3266  -18.0254 N   0  0  0  0  0  0  0  0  0  0  0  0
   13.7889   -5.0881  -18.6029 C   0  0  2  0  0  0  0  0  0  0  0  0
   13.6612   -4.2610  -19.8858 C   0  0  0  0  0  0  0  0  0  0  0  0
   14.6016   -3.4817  -20.1538 O   0  0  0  0  0  0  0  0  0  0  0  0
   14.4317   -6.4361  -18.9342 C   0  0  0  0  0  0  0  0  0  0  0  0
   13.6380   -7.2061  -19.9928 C   0  0  0  0  0  0  0  0  0  0  0  0
   16.0893   -8.3237  -20.8942 C   0  0  0  0  0  0  0  0  0  0  0  0
   14.4146   -8.8598  -20.3344 Se  0  0  2  0  0  0  0  0  0  0  0  0
   13.6807   -9.5084  -21.9145 C   0  0  0  0  0  0  0  0  0  0  0  0
   13.6483  -11.0353  -21.9930 C   0  0  1  0  0  0  0  0  0  0  0  0
   12.9823  -11.5349  -20.8206 O   0  0  0  0  0  0  0  0  0  0  0  0
   12.7247  -11.4102  -23.1526 C   0  0  1  0  0  0  0  0  0  0  0  0
   12.8043  -12.8158  -23.3936 O   0  0  0  0  0  0  0  0  0  0  0  0
   11.3801  -11.0660  -22.5168 C   0  0  1  0  0  0  0  0  0  0  0  0
   10.3512  -11.7856  -23.1984 O   0  0  0  0  0  0  0  0  0  0  0  0
   11.5858  -11.6838  -21.1331 C   0  0  2  0  0  0  0  0  0  0  0  0
   12.6230   -4.4182  -20.5653 O   0  0  0  0  0  0  0  0  0  0  0  0
   11.3999   -9.1019  -16.6672 N   0  0  0  0  0  0  0  0  0  0  0  0
   12.4590   -9.5222  -17.3375 C   0  0  0  0  0  0  0  0  0  0  0  0
   12.3457  -10.1759  -18.4805 N   0  0  0  0  0  0  0  0  0  0  0  0
   11.1369  -10.4328  -19.0028 C   0  0  0  0  0  0  0  0  0  0  0  0
   10.0014  -10.0088  -18.3270 C   0  0  0  0  0  0  0  0  0  0  0  0
   10.1622   -9.3277  -17.1261 C   0  0  0  0  0  0  0  0  0  0  0  0
    9.0978   -8.9398  -16.4305 N   0  0  0  0  0  0  0  0  0  0  0  0
    8.9449  -10.3820  -19.0403 N   0  0  0  0  0  0  0  0  0  0  0  0
    9.3937  -11.0157  -20.1213 C   0  0  0  0  0  0  0  0  0  0  0  0
   10.7263  -11.0503  -20.1058 N   0  0  0  0  0  0  0  0  0  0  0  0
  2  1  1  6  0  0  0
  2  5  1  0  0  0  0
  2  3  1  0  0  0  0
  3 17  1  0  0  0  0
  3  4  1  0  0  0  0
  5  6  1  0  0  0  0
  7  8  1  0  0  0  0
  8  6  1  6  0  0  0
  8  9  1  0  0  0  0
 10  9  1  1  0  0  0
 10 11  1  0  0  0  0
 10 12  1  0  0  0  0
 11 16  1  0  0  0  0
 12 13  1  1  0  0  0
 12 14  1  0  0  0  0
 14 15  1  6  0  0  0
 14 16  1  0  0  0  0
 16 27  1  1  0  0  0
 18 23  2  0  0  0  0
 18 19  1  0  0  0  0
 19 20  2  0  0  0  0
 20 21  1  0  0  0  0
 21 22  2  0  0  0  0
 21 27  1  0  0  0  0
 22 23  1  0  0  0  0
 22 25  1  0  0  0  0
 23 24  1  0  0  0  0
 25 26  2  0  0  0  0
 26 27  1  0  0  0  0
M  END
>  <CHROM.1>
62.85244487,148.11627795,-178.24155955,-59.23843144,-151.55100254,53.69332505
-1.26539610,12.60969458,-8.99687553,-20.05033653,1.07118760,0.68561474,0.63683162

>  <Name>
ligand

>  <RI>
0

>  <Rbt.Current_Directory>
/home/itssahil/PROJECTS/Mol_Feturizer/New_Systems/rnas/3E5F

>  <Rbt.Executable>
rbdock ($Id: //depot/dev/client3/rdock/2013.1/src/exe/rbdock.cxx#4 $)

>  <Rbt.Library>
libRbt.so (2013.1, Build901 2013/11/27)

>  <Rbt.Parameter_File>
/export/apps/rDock/src/rDock_2013.1_src/data/scripts/dock_solv.prm

>  <Rbt.Receptor>
prm/pocket_docking_7.prm

>  <SCORE>
-12.3995

>  <SCORE.INTER>
-12.5652

>  <SCORE.INTER.CONST>
1

>  <SCORE.INTER.POLAR>
0

>  <SCORE.INTER.ROT>
7

>  <SCORE.INTER.SOLV>
4.8881

>  <SCORE.INTER.VDW>
-18.2728

>  <SCORE.INTER.norm>
-0.465377

>  <SCORE.INTRA>
0.165644

>  <SCORE.INTRA.DIHEDRAL>
-0.215886

>  <SCORE.INTRA.DIHEDRAL.0>
4.89803

>  <SCORE.INTRA.POLAR>
0

>  <SCORE.INTRA.POLAR.0>
0

>  <SCORE.INTRA.REPUL>
0

>  <SCORE.INTRA.REPUL.0>
0

>  <SCORE.INTRA.SOLV>
0.737977

>  <SCORE.INTRA.SOLV.lig_0>
-48.5832

>  <SCORE.INTRA.VDW>
-0.0954015

>  <SCORE.INTRA.VDW.0>
-2.39056

>  <SCORE.INTRA.norm>
0.00613495

>  <SCORE.RESTR>
0

>  <SCORE.RESTR.CAVITY>
0

>  <SCORE.RESTR.norm>
0

>  <SCORE.SYSTEM>
0

>  <SCORE.SYSTEM.CONST>
0

>  <SCORE.SYSTEM.DIHEDRAL>
0

>  <SCORE.SYSTEM.SOLV>
0

>  <SCORE.SYSTEM.norm>
0

>  <SCORE.heavy>
27

>  <SCORE.norm>
-0.459242

>  <RMSD>
5.425

$$$$
ligand
 OpenBabel11021811473D
libRbt.so/2013.1/901 2013/11/27
 27 29  0  0  0  0  0  0  0  0999 V2000
    6.6682  -10.8219  -17.8898 N   0  0  0  0  0  0  0  0  0  0  0  0
    7.9551  -10.7702  -18.5991 C   0  0  2  0  0  0  0  0  0  0  0  0
    8.3439  -12.1719  -19.0788 C   0  0  0  0  0  0  0  0  0  0  0  0
    8.7320  -12.2786  -20.2627 O   0  0  0  0  0  0  0  0  0  0  0  0
    9.0269  -10.2507  -17.6392 C   0  0  0  0  0  0  0  0  0  0  0  0
   10.2782   -9.7722  -18.3800 C   0  0  0  0  0  0  0  0  0  0  0  0
   12.6901  -11.0853  -19.1071 C   0  0  0  0  0  0  0  0  0  0  0  0
   10.8986  -11.0765  -19.5498 Se  0  0  2  0  0  0  0  0  0  0  0  0
   10.9366  -10.3307  -21.2523 C   0  0  0  0  0  0  0  0  0  0  0  0
   10.5882  -11.3225  -22.3629 C   0  0  1  0  0  0  0  0  0  0  0  0
   10.9607  -10.7399  -23.6236 O   0  0  0  0  0  0  0  0  0  0  0  0
   11.5170  -12.5267  -22.2031 C   0  0  1  0  0  0  0  0  0  0  0  0
   11.1115  -13.5665  -23.0945 O   0  0  0  0  0  0  0  0  0  0  0  0
   12.8195  -11.8990  -22.6933 C   0  0  1  0  0  0  0  0  0  0  0  0
   13.7048  -12.9408  -23.1082 O   0  0  0  0  0  0  0  0  0  0  0  0
   12.3002  -11.1658  -23.9309 C   0  0  2  0  0  0  0  0  0  0  0  0
    8.2358  -13.1074  -18.2557 O   0  0  0  0  0  0  0  0  0  0  0  0
   15.7698   -7.6881  -22.3460 N   0  0  0  0  0  0  0  0  0  0  0  0
   15.1829   -8.6481  -21.6521 C   0  0  0  0  0  0  0  0  0  0  0  0
   14.3071   -9.4702  -22.2032 N   0  0  0  0  0  0  0  0  0  0  0  0
   13.9862   -9.3556  -23.5008 C   0  0  0  0  0  0  0  0  0  0  0  0
   14.5806   -8.3585  -24.2615 C   0  0  0  0  0  0  0  0  0  0  0  0
   15.4936   -7.5115  -23.6444 C   0  0  0  0  0  0  0  0  0  0  0  0
   16.0546   -6.5204  -24.3302 N   0  0  0  0  0  0  0  0  0  0  0  0
   14.1007   -8.4536  -25.4964 N   0  0  0  0  0  0  0  0  0  0  0  0
   13.2390   -9.4678  -25.5154 C   0  0  0  0  0  0  0  0  0  0  0  0
   13.1642  -10.0217  -24.3051 N   0  0  0  0  0  0  0  0  0  0  0  0
  2  1  1  1  0  0  0
  2  5  1  0  0  0  0
  2  3  1  0  0  0  0
  3 17  1  0  0  0  0
  3  4  1  0  0  0  0
  5  6  1  0  0  0  0
  7  8  1  0  0  0  0
  8  6  1  1  0  0  0
  8  9  1  0  0  0  0
 10  9  1  1  0  0  0
 10 11  1  0  0  0  0
 10 12  1  0  0  0  0
 11 16  1  0  0  0  0
 12 13  1  6  0  0  0
 12 14  1  0  0  0  0
 14 15  1  6  0  0  0
 14 16  1  0  0  0  0
 16 27  1  1  0  0  0
 18 23  2  0  0  0  0
 18 19  1  0  0  0  0
 19 20  2  0  0  0  0
 20 21  1  0  0  0  0
 21 22  2  0  0  0  0
 21 27  1  0  0  0  0
 22 23  1  0  0  0  0
 22 25  1  0  0  0  0
 23 24  1  0  0  0  0
 25 26  2  0  0  0  0
 26 27  1  0  0  0  0
M  END
>  <CHROM.1>
-162.94778122,132.93498810,-51.93033327,-131.81468925,-144.97253051,-166.20906603
96.08442767,11.73193021,-10.58584152,-21.41293435,-2.81225754,-0.74540232
-2.18342758

>  <Name>
ligand

>  <RI>
0

>  <Rbt.Current_Directory>
/home/itssahil/PROJECTS/Mol_Feturizer/New_Systems/rnas/3E5F

>  <Rbt.Executable>
rbdock ($Id: //depot/dev/client3/rdock/2013.1/src/exe/rbdock.cxx#4 $)

>  <Rbt.Library>
libRbt.so (2013.1, Build901 2013/11/27)

>  <Rbt.Parameter_File>
/export/apps/rDock/src/rDock_2013.1_src/data/scripts/dock_solv.prm

>  <Rbt.Receptor>
prm/blind_docking_100.prm

>  <SCORE>
-18.07

>  <SCORE.INTER>
-18.1618

>  <SCORE.INTER.CONST>
1

>  <SCORE.INTER.POLAR>
0

>  <SCORE.INTER.ROT>
7

>  <SCORE.INTER.SOLV>
17.9471

>  <SCORE.INTER.VDW>
-26.3569

>  <SCORE.INTER.norm>
-0.672659

>  <SCORE.INTRA>
0.0918395

>  <SCORE.INTRA.DIHEDRAL>
4.02366

>  <SCORE.INTRA.DIHEDRAL.0>
4.89803

>  <SCORE.INTRA.POLAR>
0

>  <SCORE.INTRA.POLAR.0>
0

>  <SCORE.INTRA.REPUL>
0

>  <SCORE.INTRA.REPUL.0>
0

>  <SCORE.INTRA.SOLV>
0.115436

>  <SCORE.INTRA.SOLV.lig_0>
-48.5832

>  <SCORE.INTRA.VDW>
-1.97771

>  <SCORE.INTRA.VDW.0>
-2.39056

>  <SCORE.INTRA.norm>
0.00340146

>  <SCORE.RESTR>
0

>  <SCORE.RESTR.CAVITY>
0

>  <SCORE.RESTR.norm>
0

>  <SCORE.SYSTEM>
0

>  <SCORE.SYSTEM.CONST>
0

>  <SCORE.SYSTEM.DIHEDRAL>
0

>  <SCORE.SYSTEM.SOLV>
0

>  <SCORE.SYSTEM.norm>
0

>  <SCORE.heavy>
27

>  <SCORE.norm>
-0.669258

>  <RMSD>
5.430

$$$$
ligand
 OpenBabel11021811473D
libRbt.so/2013.1/901 2013/11/27
 27 29  0  0  0  0  0  0  0  0999 V2000
    8.4642   -8.5823  -17.2572 N   0  0  0  0  0  0  0  0  0  0  0  0
    7.8726   -9.9252  -17.1654 C   0  0  2  0  0  0  0  0  0  0  0  0
    8.7026  -10.7980  -16.2190 C   0  0  0  0  0  0  0  0  0  0  0  0
    9.7864  -10.3234  -15.8143 O   0  0  0  0  0  0  0  0  0  0  0  0
    7.8656  -10.5575  -18.5582 C   0  0  0  0  0  0  0  0  0  0  0  0
    9.2685  -10.6201  -19.1676 C   0  0  0  0  0  0  0  0  0  0  0  0
    9.9710  -13.1204  -20.3189 C   0  0  0  0  0  0  0  0  0  0  0  0
    9.2435  -11.4961  -20.8067 Se  0  0  2  0  0  0  0  0  0  0  0  0
   10.6030  -10.7741  -21.8492 C   0  0  0  0  0  0  0  0  0  0  0  0
   10.6203  -11.3025  -23.2841 C   0  0  1  0  0  0  0  0  0  0  0  0
   11.3983  -10.4004  -24.0895 O   0  0  0  0  0  0  0  0  0  0  0  0
   11.4212  -12.6052  -23.2779 C   0  0  1  0  0  0  0  0  0  0  0  0
   11.3114  -13.2414  -24.5521 O   0  0  0  0  0  0  0  0  0  0  0  0
   12.8244  -12.0300  -23.1022 C   0  0  1  0  0  0  0  0  0  0  0  0
   13.7764  -12.9903  -23.5634 O   0  0  0  0  0  0  0  0  0  0  0  0
   12.7557  -10.8772  -24.1047 C   0  0  2  0  0  0  0  0  0  0  0  0
    8.2409  -11.9234  -15.9282 O   0  0  0  0  0  0  0  0  0  0  0  0
   15.3792   -8.4142  -20.4039 N   0  0  0  0  0  0  0  0  0  0  0  0
   14.5498   -9.4372  -20.2902 C   0  0  0  0  0  0  0  0  0  0  0  0
   13.9481   -9.9663  -21.3413 N   0  0  0  0  0  0  0  0  0  0  0  0
   14.1667   -9.4765  -22.5710 C   0  0  0  0  0  0  0  0  0  0  0  0
   15.0299   -8.4015  -22.7299 C   0  0  0  0  0  0  0  0  0  0  0  0
   15.6402   -7.8707  -21.5996 C   0  0  0  0  0  0  0  0  0  0  0  0
   16.4431   -6.8166  -21.7068 N   0  0  0  0  0  0  0  0  0  0  0  0
   15.0740   -8.1081  -24.0247 N   0  0  0  0  0  0  0  0  0  0  0  0
   14.2722   -8.9614  -24.6575 C   0  0  0  0  0  0  0  0  0  0  0  0
   13.7169   -9.7972  -23.7798 N   0  0  0  0  0  0  0  0  0  0  0  0
  2  1  1  6  0  0  0
  2  5  1  0  0  0  0
  2  3  1  0  0  0  0
  3 17  1  0  0  0  0
  3  4  1  0  0  0  0
  5  6  1  0  0  0  0
  7  8  1  0  0  0  0
  8  6  1  1  0  0  0
  8  9  1  0  0  0  0
 10  9  1  1  0  0  0
 10 11  1  0  0  0  0
 10 12  1  0  0  0  0
 11 16  1  0  0  0  0
 12 13  1  6  0  0  0
 12 14  1  0  0  0  0
 14 15  1  6  0  0  0
 14 16  1  0  0  0  0
 16 27  1  1  0  0  0
 18 23  2  0  0  0  0
 18 19  1  0  0  0  0
 19 20  2  0  0  0  0
 20 21  1  0  0  0  0
 21 22  2  0  0  0  0
 21 27  1  0  0  0  0
 22 23  1  0  0  0  0
 22 25  1  0  0  0  0
 23 24  1  0  0  0  0
 25 26  2  0  0  0  0
 26 27  1  0  0  0  0
M  END
>  <CHROM.1>
57.04653837,-8.00777077,176.14726508,-104.41941408,-174.33758821,162.01848248
90.82706257,11.47030663,-10.56039812,-21.10728713,-2.62202506,-0.57826826
-2.06895158

>  <Name>
ligand

>  <RI>
0

>  <Rbt.Current_Directory>
/home/itssahil/PROJECTS/Mol_Feturizer/New_Systems/rnas/3E5F

>  <Rbt.Executable>
rbdock ($Id: //depot/dev/client3/rdock/2013.1/src/exe/rbdock.cxx#4 $)

>  <Rbt.Library>
libRbt.so (2013.1, Build901 2013/11/27)

>  <Rbt.Parameter_File>
/export/apps/rDock/src/rDock_2013.1_src/data/scripts/dock_solv.prm

>  <Rbt.Receptor>
prm/pocket_docking_7.prm

>  <SCORE>
-17.9815

>  <SCORE.INTER>
-19.4494

>  <SCORE.INTER.CONST>
1

>  <SCORE.INTER.POLAR>
0

>  <SCORE.INTER.ROT>
7

>  <SCORE.INTER.SOLV>
11.8592

>  <SCORE.INTER.VDW>
-25.186

>  <SCORE.INTER.norm>
-0.720346

>  <SCORE.INTRA>
1.46789

>  <SCORE.INTRA.DIHEDRAL>
0.897516

>  <SCORE.INTRA.DIHEDRAL.0>
4.89803

>  <SCORE.INTRA.POLAR>
0

>  <SCORE.INTRA.POLAR.0>
0

>  <SCORE.INTRA.REPUL>
0

>  <SCORE.INTRA.REPUL.0>
0

>  <SCORE.INTRA.SOLV>
0.740487

>  <SCORE.INTRA.SOLV.lig_0>
-48.5832

>  <SCORE.INTRA.VDW>
0.64889

>  <SCORE.INTRA.VDW.0>
-2.39056

>  <SCORE.INTRA.norm>
0.0543663

>  <SCORE.RESTR>
0

>  <SCORE.RESTR.CAVITY>
0

>  <SCORE.RESTR.norm>
0

>  <SCORE.SYSTEM>
0

>  <SCORE.SYSTEM.CONST>
0

>  <SCORE.SYSTEM.DIHEDRAL>
0

>  <SCORE.SYSTEM.SOLV>
0

>  <SCORE.SYSTEM.norm>
0

>  <SCORE.heavy>
27

>  <SCORE.norm>
-0.66598

>  <RMSD>
5.437

$$$$
ligand
 OpenBabel11021811473D
libRbt.so/2013.1/901 2013/11/27
 27 29  0  0  0  0  0  0  0  0999 V2000
   14.9480   -7.4905  -19.6561 N   0  0  0  0  0  0  0  0  0  0  0  0
   16.1052   -8.0627  -20.3599 C   0  0  2  0  0  0  0  0  0  0  0  0
   17.3380   -8.0292  -19.4515 C   0  0  0  0  0  0  0  0  0  0  0  0
   17.3298   -7.2004  -18.5151 O   0  0  0  0  0  0  0  0  0  0  0  0
   16.3804   -7.2313  -21.6140 C   0  0  0  0  0  0  0  0  0  0  0  0
   15.2801   -7.3961  -22.6654 C   0  0  0  0  0  0  0  0  0  0  0  0
   14.0450   -9.0092  -24.6511 C   0  0  0  0  0  0  0  0  0  0  0  0
   15.0513   -9.1852  -23.1143 Se  0  0  2  0  0  0  0  0  0  0  0  0
   13.8094   -9.9054  -21.9331 C   0  0  0  0  0  0  0  0  0  0  0  0
   13.5542  -11.3978  -22.1480 C   0  0  1  0  0  0  0  0  0  0  0  0
   12.7819  -11.8894  -21.0391 O   0  0  0  0  0  0  0  0  0  0  0  0
   12.6254  -11.5296  -23.3556 C   0  0  1  0  0  0  0  0  0  0  0  0
   12.5043  -12.9056  -23.7193 O   0  0  0  0  0  0  0  0  0  0  0  0
   11.3256  -11.0425  -22.7202 C   0  0  1  0  0  0  0  0  0  0  0  0
   10.2254  -11.5386  -23.4847 O   0  0  0  0  0  0  0  0  0  0  0  0
   11.3902  -11.7995  -21.3930 C   0  0  2  0  0  0  0  0  0  0  0  0
   18.2652   -8.8251  -19.7179 O   0  0  0  0  0  0  0  0  0  0  0  0
   11.4744   -9.3798  -16.8342 N   0  0  0  0  0  0  0  0  0  0  0  0
   12.4863   -9.8638  -17.5338 C   0  0  0  0  0  0  0  0  0  0  0  0
   12.3051  -10.4623  -18.6981 N   0  0  0  0  0  0  0  0  0  0  0  0
   11.0732  -10.5951  -19.2128 C   0  0  0  0  0  0  0  0  0  0  0  0
    9.9856  -10.1010  -18.5064 C   0  0  0  0  0  0  0  0  0  0  0  0
   10.2171   -9.4816  -17.2839 C   0  0  0  0  0  0  0  0  0  0  0  0
    9.1975   -9.0302  -16.5601 N   0  0  0  0  0  0  0  0  0  0  0  0
    8.8934  -10.3556  -19.2182 N   0  0  0  0  0  0  0  0  0  0  0  0
    9.2745  -10.9845  -20.3276 C   0  0  0  0  0  0  0  0  0  0  0  0
   10.5993  -11.1336  -20.3316 N   0  0  0  0  0  0  0  0  0  0  0  0
  2  1  1  1  0  0  0
  2  5  1  0  0  0  0
  2  3  1  0  0  0  0
  3 17  1  0  0  0  0
  3  4  1  0  0  0  0
  5  6  1  0  0  0  0
  7  8  1  0  0  0  0
  8  6  1  1  0  0  0
  8  9  1  0  0  0  0
 10  9  1  1  0  0  0
 10 11  1  0  0  0  0
 10 12  1  0  0  0  0
 11 16  1  0  0  0  0
 12 13  1  1  0  0  0
 12 14  1  0  0  0  0
 14 15  1  6  0  0  0
 14 16  1  0  0  0  0
 16 27  1  1  0  0  0
 18 23  2  0  0  0  0
 18 19  1  0  0  0  0
 19 20  2  0  0  0  0
 20 21  1  0  0  0  0
 21 22  2  0  0  0  0
 21 27  1  0  0  0  0
 22 23  1  0  0  0  0
 22 25  1  0  0  0  0
 23 24  1  0  0  0  0
 25 26  2  0  0  0  0
 26 27  1  0  0  0  0
M  END
>  <CHROM.1>
-68.88868740,-22.13986652,-56.18269423,-165.68056606,-177.87371129,169.46593884
3.93994738,13.28891649,-9.74908551,-20.96575982,-0.24267991,0.44876764,1.23749343

>  <Name>
ligand

>  <RI>
0

>  <Rbt.Current_Directory>
/home/itssahil/PROJECTS/Mol_Feturizer/New_Systems/rnas/3E5F

>  <Rbt.Executable>
rbdock ($Id: //depot/dev/client3/rdock/2013.1/src/exe/rbdock.cxx#4 $)

>  <Rbt.Library>
libRbt.so (2013.1, Build901 2013/11/27)

>  <Rbt.Parameter_File>
/export/apps/rDock/src/rDock_2013.1_src/data/scripts/dock_solv.prm

>  <Rbt.Receptor>
prm/pocket_docking_8.prm

>  <SCORE>
-16.8029

>  <SCORE.INTER>
-17.0785

>  <SCORE.INTER.CONST>
1

>  <SCORE.INTER.POLAR>
0

>  <SCORE.INTER.ROT>
7

>  <SCORE.INTER.SOLV>
7.56294

>  <SCORE.INTER.VDW>
-22.1733

>  <SCORE.INTER.norm>
-0.632539

>  <SCORE.INTRA>
0.275613

>  <SCORE.INTRA.DIHEDRAL>
-0.465001

>  <SCORE.INTRA.DIHEDRAL.0>
4.89803

>  <SCORE.INTRA.POLAR>
0

>  <SCORE.INTRA.POLAR.0>
0

>  <SCORE.INTRA.REPUL>
0

>  <SCORE.INTRA.REPUL.0>
0

>  <SCORE.INTRA.SOLV>
1.7403

>  <SCORE.INTRA.SOLV.lig_0>
-48.5832

>  <SCORE.INTRA.VDW>
-0.362035

>  <SCORE.INTRA.VDW.0>
-2.39056

>  <SCORE.INTRA.norm>
0.0102079

>  <SCORE.RESTR>
0

>  <SCORE.RESTR.CAVITY>
0

>  <SCORE.RESTR.norm>
0

>  <SCORE.SYSTEM>
0

>  <SCORE.SYSTEM.CONST>
0

>  <SCORE.SYSTEM.DIHEDRAL>
0

>  <SCORE.SYSTEM.SOLV>
0

>  <SCORE.SYSTEM.norm>
0

>  <SCORE.heavy>
27

>  <SCORE.norm>
-0.622331

>  <RMSD>
5.446

$$$$
ligand
 OpenBabel11021811473D
libRbt.so/2013.1/901 2013/11/27
 27 29  0  0  0  0  0  0  0  0999 V2000
   15.3128   -4.9365  -19.7676 N   0  0  0  0  0  0  0  0  0  0  0  0
   16.5179   -5.7341  -19.4968 C   0  0  2  0  0  0  0  0  0  0  0  0
   17.7687   -4.9378  -19.8812 C   0  0  0  0  0  0  0  0  0  0  0  0
   18.8712   -5.4054  -19.5215 O   0  0  0  0  0  0  0  0  0  0  0  0
   16.4597   -7.0149  -20.3312 C   0  0  0  0  0  0  0  0  0  0  0  0
   15.2944   -7.9173  -19.9176 C   0  0  0  0  0  0  0  0  0  0  0  0
   14.5544   -8.7305  -22.5371 C   0  0  0  0  0  0  0  0  0  0  0  0
   15.2280   -9.4448  -20.9745 Se  0  0  2  0  0  0  0  0  0  0  0  0
   13.7962  -10.4733  -20.3844 C   0  0  0  0  0  0  0  0  0  0  0  0
   13.7185  -11.8504  -21.0447 C   0  0  1  0  0  0  0  0  0  0  0  0
   12.6303  -12.5775  -20.4490 O   0  0  0  0  0  0  0  0  0  0  0  0
   13.2907  -11.6335  -22.4967 C   0  0  1  0  0  0  0  0  0  0  0  0
   13.3846  -12.8656  -23.2132 O   0  0  0  0  0  0  0  0  0  0  0  0
   11.8246  -11.2736  -22.2696 C   0  0  1  0  0  0  0  0  0  0  0  0
   11.0992  -11.5148  -23.4766 O   0  0  0  0  0  0  0  0  0  0  0  0
   11.4538  -12.3457  -21.2441 C   0  0  2  0  0  0  0  0  0  0  0  0
   17.5955   -3.8750  -20.5173 O   0  0  0  0  0  0  0  0  0  0  0  0
    9.4210   -8.7367  -18.1640 N   0  0  0  0  0  0  0  0  0  0  0  0
   10.5821   -8.7280  -18.7959 C   0  0  0  0  0  0  0  0  0  0  0  0
   10.9677   -9.7361  -19.5585 N   0  0  0  0  0  0  0  0  0  0  0  0
   10.1805  -10.8106  -19.7187 C   0  0  0  0  0  0  0  0  0  0  0  0
    8.9547  -10.8568  -19.0696 C   0  0  0  0  0  0  0  0  0  0  0  0
    8.5868   -9.7786  -18.2735 C   0  0  0  0  0  0  0  0  0  0  0  0
    7.4378   -9.8029  -17.6053 N   0  0  0  0  0  0  0  0  0  0  0  0
    8.3750  -12.0097  -19.3847 N   0  0  0  0  0  0  0  0  0  0  0  0
    9.1999  -12.6648  -20.1983 C   0  0  0  0  0  0  0  0  0  0  0  0
   10.3003  -11.9416  -20.4064 N   0  0  0  0  0  0  0  0  0  0  0  0
  2  1  1  6  0  0  0
  2  5  1  0  0  0  0
  2  3  1  0  0  0  0
  3 17  1  0  0  0  0
  3  4  1  0  0  0  0
  5  6  1  0  0  0  0
  7  8  1  0  0  0  0
  8  6  1  1  0  0  0
  8  9  1  0  0  0  0
 10  9  1  1  0  0  0
 10 11  1  0  0  0  0
 10 12  1  0  0  0  0
 11 16  1  0  0  0  0
 12 13  1  6  0  0  0
 12 14  1  0  0  0  0
 14 15  1  6  0  0  0
 14 16  1  0  0  0  0
 16 27  1  1  0  0  0
 18 23  2  0  0  0  0
 18 19  1  0  0  0  0
 19 20  2  0  0  0  0
 20 21  1  0  0  0  0
 21 22  2  0  0  0  0
 21 27  1  0  0  0  0
 22 23  1  0  0  0  0
 22 25  1  0  0  0  0
 23 24  1  0  0  0  0
 25 26  2  0  0  0  0
 26 27  1  0  0  0  0
M  END
>  <CHROM.1>
-64.67016466,169.51673381,178.70777122,-74.71829119,-172.72824267,176.38045726
66.82430827,13.16555891,-9.50362647,-20.46579978,0.49363426,0.41010002,0.58918455

>  <Name>
ligand

>  <RI>
0

>  <Rbt.Current_Directory>
/home/itssahil/PROJECTS/Mol_Feturizer/New_Systems/rnas/3E5F

>  <Rbt.Executable>
rbdock ($Id: //depot/dev/client3/rdock/2013.1/src/exe/rbdock.cxx#4 $)

>  <Rbt.Library>
libRbt.so (2013.1, Build901 2013/11/27)

>  <Rbt.Parameter_File>
/export/apps/rDock/src/rDock_2013.1_src/data/scripts/dock_solv.prm

>  <Rbt.Receptor>
prm/blind_docking_100.prm

>  <SCORE>
-15.6796

>  <SCORE.INTER>
-15.6262

>  <SCORE.INTER.CONST>
1

>  <SCORE.INTER.POLAR>
0

>  <SCORE.INTER.ROT>
7

>  <SCORE.INTER.SOLV>
9.67528

>  <SCORE.INTER.VDW>
-21.9092

>  <SCORE.INTER.norm>
-0.578747

>  <SCORE.INTRA>
-0.0533753

>  <SCORE.INTRA.DIHEDRAL>
-1.40671

>  <SCORE.INTRA.DIHEDRAL.0>
4.89803

>  <SCORE.INTRA.POLAR>
0

>  <SCORE.INTRA.POLAR.0>
0

>  <SCORE.INTRA.REPUL>
0

>  <SCORE.INTRA.REPUL.0>
0

>  <SCORE.INTRA.SOLV>
0.733287

>  <SCORE.INTRA.SOLV.lig_0>
-48.5832

>  <SCORE.INTRA.VDW>
0.283338

>  <SCORE.INTRA.VDW.0>
-2.39056

>  <SCORE.INTRA.norm>
-0.00197686

>  <SCORE.RESTR>
0

>  <SCORE.RESTR.CAVITY>
0

>  <SCORE.RESTR.norm>
0

>  <SCORE.SYSTEM>
0

>  <SCORE.SYSTEM.CONST>
0

>  <SCORE.SYSTEM.DIHEDRAL>
0

>  <SCORE.SYSTEM.SOLV>
0

>  <SCORE.SYSTEM.norm>
0

>  <SCORE.heavy>
27

>  <SCORE.norm>
-0.580724

>  <RMSD>
5.454

$$$$
ligand
 OpenBabel11021811473D
libRbt.so/2013.1/901 2013/11/27
 27 29  0  0  0  0  0  0  0  0999 V2000
   15.2931   -4.9011  -21.1893 N   0  0  0  0  0  0  0  0  0  0  0  0
   16.4158   -5.8334  -21.0096 C   0  0  2  0  0  0  0  0  0  0  0  0
   17.7217   -5.0515  -20.8380 C   0  0  0  0  0  0  0  0  0  0  0  0
   18.5556   -5.5115  -20.0277 O   0  0  0  0  0  0  0  0  0  0  0  0
   16.5207   -6.7240  -22.2488 C   0  0  0  0  0  0  0  0  0  0  0  0
   15.2520   -7.5516  -22.4704 C   0  0  0  0  0  0  0  0  0  0  0  0
   15.6125   -7.4460  -25.2863 C   0  0  0  0  0  0  0  0  0  0  0  0
   15.4441   -8.6861  -23.9300 Se  0  0  2  0  0  0  0  0  0  0  0  0
   13.7743   -9.4172  -24.2956 C   0  0  0  0  0  0  0  0  0  0  0  0
   13.6471  -10.8861  -23.8897 C   0  0  1  0  0  0  0  0  0  0  0  0
   13.6931  -10.9650  -22.4547 O   0  0  0  0  0  0  0  0  0  0  0  0
   12.2330  -11.3372  -24.2574 C   0  0  1  0  0  0  0  0  0  0  0  0
   12.1179  -12.7493  -24.0757 O   0  0  0  0  0  0  0  0  0  0  0  0
   11.4512  -10.6066  -23.1685 C   0  0  1  0  0  0  0  0  0  0  0  0
   10.1909  -11.2560  -22.9926 O   0  0  0  0  0  0  0  0  0  0  0  0
   12.3415  -10.9147  -21.9639 C   0  0  2  0  0  0  0  0  0  0  0  0
   17.8544   -4.0067  -21.5127 O   0  0  0  0  0  0  0  0  0  0  0  0
    9.4883   -9.2473  -17.9986 N   0  0  0  0  0  0  0  0  0  0  0  0
    9.2828  -10.2884  -18.7869 C   0  0  0  0  0  0  0  0  0  0  0  0
   10.1123  -10.5924  -19.7698 N   0  0  0  0  0  0  0  0  0  0  0  0
   11.2034   -9.8457  -19.9975 C   0  0  0  0  0  0  0  0  0  0  0  0
   11.4518   -8.7434  -19.1918 C   0  0  0  0  0  0  0  0  0  0  0  0
   10.5537   -8.4545  -18.1711 C   0  0  0  0  0  0  0  0  0  0  0  0
   10.7369   -7.3850  -17.4030 N   0  0  0  0  0  0  0  0  0  0  0  0
   12.5759   -8.1782  -19.6174 N   0  0  0  0  0  0  0  0  0  0  0  0
   13.0192   -8.8929  -20.6490 C   0  0  0  0  0  0  0  0  0  0  0  0
   12.1896   -9.9092  -20.8861 N   0  0  0  0  0  0  0  0  0  0  0  0
  2  1  1  6  0  0  0
  2  5  1  0  0  0  0
  2  3  1  0  0  0  0
  3 17  1  0  0  0  0
  3  4  1  0  0  0  0
  5  6  1  0  0  0  0
  7  8  1  0  0  0  0
  8  6  1  1  0  0  0
  8  9  1  0  0  0  0
 10  9  1  1  0  0  0
 10 11  1  0  0  0  0
 10 12  1  0  0  0  0
 11 16  1  0  0  0  0
 12 13  1  1  0  0  0
 12 14  1  0  0  0  0
 14 15  1  1  0  0  0
 14 16  1  0  0  0  0
 16 27  1  1  0  0  0
 18 23  2  0  0  0  0
 18 19  1  0  0  0  0
 19 20  2  0  0  0  0
 20 21  1  0  0  0  0
 21 22  2  0  0  0  0
 21 27  1  0  0  0  0
 22 23  1  0  0  0  0
 22 25  1  0  0  0  0
 23 24  1  0  0  0  0
 25 26  2  0  0  0  0
 26 27  1  0  0  0  0
M  END
>  <CHROM.1>
-60.75372527,142.75740100,-177.06312191,-64.49403650,-106.52648074,67.74480068
-161.27904172,13.67025960,-8.70527770,-21.84539217,0.12380186,0.61500872
0.94881804

>  <Name>
ligand

>  <RI>
0

>  <Rbt.Current_Directory>
/home/itssahil/PROJECTS/Mol_Feturizer/New_Systems/rnas/3E5F

>  <Rbt.Executable>
rbdock ($Id: //depot/dev/client3/rdock/2013.1/src/exe/rbdock.cxx#4 $)

>  <Rbt.Library>
libRbt.so (2013.1, Build901 2013/11/27)

>  <Rbt.Parameter_File>
/export/apps/rDock/src/rDock_2013.1_src/data/scripts/dock_solv.prm

>  <Rbt.Receptor>
prm/pocket_docking_4.prm

>  <SCORE>
-16.8777

>  <SCORE.INTER>
-17.0857

>  <SCORE.INTER.CONST>
1

>  <SCORE.INTER.POLAR>
0

>  <SCORE.INTER.ROT>
7

>  <SCORE.INTER.SOLV>
8.75787

>  <SCORE.INTER.VDW>
-22.5764

>  <SCORE.INTER.norm>
-0.632805

>  <SCORE.INTRA>
0.208068

>  <SCORE.INTRA.DIHEDRAL>
-0.0813592

>  <SCORE.INTRA.DIHEDRAL.0>
4.89803

>  <SCORE.INTRA.POLAR>
0

>  <SCORE.INTRA.POLAR.0>
0

>  <SCORE.INTRA.REPUL>
0

>  <SCORE.INTRA.REPUL.0>
0

>  <SCORE.INTRA.SOLV>
0.789286

>  <SCORE.INTRA.SOLV.lig_0>
-48.5832

>  <SCORE.INTRA.VDW>
-0.145895

>  <SCORE.INTRA.VDW.0>
-2.39056

>  <SCORE.INTRA.norm>
0.00770624

>  <SCORE.RESTR>
0

>  <SCORE.RESTR.CAVITY>
0

>  <SCORE.RESTR.norm>
0

>  <SCORE.SYSTEM>
0

>  <SCORE.SYSTEM.CONST>
0

>  <SCORE.SYSTEM.DIHEDRAL>
0

>  <SCORE.SYSTEM.SOLV>
0

>  <SCORE.SYSTEM.norm>
0

>  <SCORE.heavy>
27

>  <SCORE.norm>
-0.625099

>  <RMSD>
5.458

$$$$
ligand
 OpenBabel11021811473D
libRbt.so/2013.1/901 2013/11/27
 27 29  0  0  0  0  0  0  0  0999 V2000
   17.0570   -7.3463  -18.9329 N   0  0  0  0  0  0  0  0  0  0  0  0
   17.0328   -7.2405  -20.3992 C   0  0  2  0  0  0  0  0  0  0  0  0
   17.9770   -6.1252  -20.8582 C   0  0  0  0  0  0  0  0  0  0  0  0
   17.9211   -5.0428  -20.2347 O   0  0  0  0  0  0  0  0  0  0  0  0
   15.6077   -6.9103  -20.8465 C   0  0  0  0  0  0  0  0  0  0  0  0
   15.4209   -7.0981  -22.3542 C   0  0  0  0  0  0  0  0  0  0  0  0
   14.5750   -8.7915  -24.4725 C   0  0  0  0  0  0  0  0  0  0  0  0
   15.3349   -8.9018  -22.7945 Se  0  0  2  0  0  0  0  0  0  0  0  0
   13.9527   -9.6552  -21.8055 C   0  0  0  0  0  0  0  0  0  0  0  0
   13.7987  -11.1618  -22.0178 C   0  0  1  0  0  0  0  0  0  0  0  0
   13.0266  -11.6960  -20.9287 O   0  0  0  0  0  0  0  0  0  0  0  0
   12.9162  -11.3580  -23.2511 C   0  0  1  0  0  0  0  0  0  0  0  0
   12.8930  -12.7407  -23.6089 O   0  0  0  0  0  0  0  0  0  0  0  0
   11.5700  -10.9511  -22.6571 C   0  0  1  0  0  0  0  0  0  0  0  0
   10.5264  -11.5197  -23.4501 O   0  0  0  0  0  0  0  0  0  0  0  0
   11.6431  -11.6962  -21.3236 C   0  0  2  0  0  0  0  0  0  0  0  0
   18.7269   -6.3751  -21.8275 O   0  0  0  0  0  0  0  0  0  0  0  0
   11.4356   -9.2999  -16.7564 N   0  0  0  0  0  0  0  0  0  0  0  0
   12.4959   -9.7286  -17.4194 C   0  0  0  0  0  0  0  0  0  0  0  0
   12.3885  -10.3292  -18.5917 N   0  0  0  0  0  0  0  0  0  0  0  0
   11.1849  -10.5210  -19.1525 C   0  0  0  0  0  0  0  0  0  0  0  0
   10.0483  -10.0860  -18.4856 C   0  0  0  0  0  0  0  0  0  0  0  0
   10.2027   -9.4623  -17.2531 C   0  0  0  0  0  0  0  0  0  0  0  0
    9.1353   -9.0667  -16.5664 N   0  0  0  0  0  0  0  0  0  0  0  0
    8.9975  -10.3914  -19.2386 N   0  0  0  0  0  0  0  0  0  0  0  0
    9.4509  -10.9943  -20.3352 C   0  0  0  0  0  0  0  0  0  0  0  0
   10.7807  -11.0766  -20.2902 N   0  0  0  0  0  0  0  0  0  0  0  0
  2  1  1  1  0  0  0
  2  5  1  0  0  0  0
  2  3  1  0  0  0  0
  3 17  1  0  0  0  0
  3  4  1  0  0  0  0
  5  6  1  0  0  0  0
  7  8  1  0  0  0  0
  8  6  1  1  0  0  0
  8  9  1  0  0  0  0
 10  9  1  1  0  0  0
 10 11  1  0  0  0  0
 10 12  1  0  0  0  0
 11 16  1  0  0  0  0
 12 13  1  1  0  0  0
 12 14  1  0  0  0  0
 14 15  1  6  0  0  0
 14 16  1  0  0  0  0
 16 27  1  1  0  0  0
 18 23  2  0  0  0  0
 18 19  1  0  0  0  0
 19 20  2  0  0  0  0
 20 21  1  0  0  0  0
 21 22  2  0  0  0  0
 21 27  1  0  0  0  0
 22 23  1  0  0  0  0
 22 25  1  0  0  0  0
 23 24  1  0  0  0  0
 25 26  2  0  0  0  0
 26 27  1  0  0  0  0
M  END
>  <CHROM.1>
-166.85106995,-45.35005392,74.48549635,162.25791047,-177.47214724,161.87592716
2.89437496,13.57696451,-9.36806553,-20.98725278,-0.05649628,0.56934878,1.10251182

>  <Name>
ligand

>  <RI>
0

>  <Rbt.Current_Directory>
/home/itssahil/PROJECTS/Mol_Feturizer/New_Systems/rnas/3E5F

>  <Rbt.Executable>
rbdock ($Id: //depot/dev/client3/rdock/2013.1/src/exe/rbdock.cxx#4 $)

>  <Rbt.Library>
libRbt.so (2013.1, Build901 2013/11/27)

>  <Rbt.Parameter_File>
/export/apps/rDock/src/rDock_2013.1_src/data/scripts/dock_solv.prm

>  <Rbt.Receptor>
prm/pocket_docking_6.prm

>  <SCORE>
-15.4298

>  <SCORE.INTER>
-15.669

>  <SCORE.INTER.CONST>
1

>  <SCORE.INTER.POLAR>
0

>  <SCORE.INTER.ROT>
7

>  <SCORE.INTER.SOLV>
6.95568

>  <SCORE.INTER.VDW>
-21.0312

>  <SCORE.INTER.norm>
-0.580334

>  <SCORE.INTRA>
0.239244

>  <SCORE.INTRA.DIHEDRAL>
0.802914

>  <SCORE.INTRA.DIHEDRAL.0>
4.89803

>  <SCORE.INTRA.POLAR>
0

>  <SCORE.INTRA.POLAR.0>
0

>  <SCORE.INTRA.REPUL>
0

>  <SCORE.INTRA.REPUL.0>
0

>  <SCORE.INTRA.SOLV>
0.113417

>  <SCORE.INTRA.SOLV.lig_0>
-48.5832

>  <SCORE.INTRA.VDW>
-0.218921

>  <SCORE.INTRA.VDW.0>
-2.39056

>  <SCORE.INTRA.norm>
0.0088609

>  <SCORE.RESTR>
0

>  <SCORE.RESTR.CAVITY>
0

>  <SCORE.RESTR.norm>
0

>  <SCORE.SYSTEM>
0

>  <SCORE.SYSTEM.CONST>
0

>  <SCORE.SYSTEM.DIHEDRAL>
0

>  <SCORE.SYSTEM.SOLV>
0

>  <SCORE.SYSTEM.norm>
0

>  <SCORE.heavy>
27

>  <SCORE.norm>
-0.571473

>  <RMSD>
5.468

$$$$
ligand
 OpenBabel11021811473D
libRbt.so/2013.1/901 2013/11/27
 27 29  0  0  0  0  0  0  0  0999 V2000
   16.6562   -5.1006  -12.9334 N   0  0  0  0  0  0  0  0  0  0  0  0
   17.5807   -4.2338  -13.6788 C   0  0  2  0  0  0  0  0  0  0  0  0
   17.7565   -2.9022  -12.9426 C   0  0  0  0  0  0  0  0  0  0  0  0
   18.9045   -2.4067  -12.9334 O   0  0  0  0  0  0  0  0  0  0  0  0
   16.9970   -3.9686  -15.0676 C   0  0  0  0  0  0  0  0  0  0  0  0
   17.0469   -5.2123  -15.9587 C   0  0  0  0  0  0  0  0  0  0  0  0
   14.8704   -5.5547  -17.7520 C   0  0  0  0  0  0  0  0  0  0  0  0
   16.5543   -4.8013  -17.7032 Se  0  0  2  0  0  0  0  0  0  0  0  0
   17.5034   -5.9305  -18.8347 C   0  0  0  0  0  0  0  0  0  0  0  0
   18.1766   -5.2045  -20.0002 C   0  0  1  0  0  0  0  0  0  0  0  0
   18.1440   -6.0668  -21.1504 O   0  0  0  0  0  0  0  0  0  0  0  0
   17.2815   -4.0231  -20.3762 C   0  0  1  0  0  0  0  0  0  0  0  0
   17.9512   -3.1993  -21.3318 O   0  0  0  0  0  0  0  0  0  0  0  0
   16.1425   -4.7831  -21.0512 C   0  0  1  0  0  0  0  0  0  0  0  0
   15.4410   -3.8880  -21.9161 O   0  0  0  0  0  0  0  0  0  0  0  0
   16.9554   -5.7606  -21.9011 C   0  0  2  0  0  0  0  0  0  0  0  0
   16.7426   -2.4133  -12.3971 O   0  0  0  0  0  0  0  0  0  0  0  0
   14.5290   -8.4664  -25.5666 N   0  0  0  0  0  0  0  0  0  0  0  0
   15.1656   -7.3127  -25.6733 C   0  0  0  0  0  0  0  0  0  0  0  0
   15.7451   -6.7382  -24.6337 N   0  0  0  0  0  0  0  0  0  0  0  0
   15.7069   -7.3179  -23.4244 C   0  0  0  0  0  0  0  0  0  0  0  0
   15.0461   -8.5289  -23.2729 C   0  0  0  0  0  0  0  0  0  0  0  0
   14.4461   -9.0991  -24.3893 C   0  0  0  0  0  0  0  0  0  0  0  0
   13.7711  -10.2388  -24.2760 N   0  0  0  0  0  0  0  0  0  0  0  0
   15.1491   -8.8873  -21.9980 N   0  0  0  0  0  0  0  0  0  0  0  0
   15.8452   -7.9425  -21.3701 C   0  0  0  0  0  0  0  0  0  0  0  0
   16.1883   -6.9845  -22.2314 N   0  0  0  0  0  0  0  0  0  0  0  0
  2  1  1  1  0  0  0
  2  5  1  0  0  0  0
  2  3  1  0  0  0  0
  3 17  1  0  0  0  0
  3  4  1  0  0  0  0
  5  6  1  0  0  0  0
  7  8  1  0  0  0  0
  8  6  1  1  0  0  0
  8  9  1  0  0  0  0
 10  9  1  1  0  0  0
 10 11  1  0  0  0  0
 10 12  1  0  0  0  0
 11 16  1  0  0  0  0
 12 13  1  6  0  0  0
 12 14  1  0  0  0  0
 14 15  1  6  0  0  0
 14 16  1  0  0  0  0
 16 27  1  1  0  0  0
 18 23  2  0  0  0  0
 18 19  1  0  0  0  0
 19 20  2  0  0  0  0
 20 21  1  0  0  0  0
 21 22  2  0  0  0  0
 21 27  1  0  0  0  0
 22 23  1  0  0  0  0
 22 25  1  0  0  0  0
 23 24  1  0  0  0  0
 25 26  2  0  0  0  0
 26 27  1  0  0  0  0
M  END
>  <CHROM.1>
-71.08725748,141.15543536,-172.08972837,-106.05315503,-131.84404029,-145.11602938
-131.50327238,16.43785194,-5.58583292,-19.39477339,1.18356315,1.03625326
1.50279404

>  <Name>
ligand

>  <RI>
0

>  <Rbt.Current_Directory>
/home/itssahil/PROJECTS/Mol_Feturizer/New_Systems/rnas/3E5F

>  <Rbt.Executable>
rbdock ($Id: //depot/dev/client3/rdock/2013.1/src/exe/rbdock.cxx#4 $)

>  <Rbt.Library>
libRbt.so (2013.1, Build901 2013/11/27)

>  <Rbt.Parameter_File>
/export/apps/rDock/src/rDock_2013.1_src/data/scripts/dock_solv.prm

>  <Rbt.Receptor>
prm/pocket_docking_6.prm

>  <SCORE>
-15.0361

>  <SCORE.INTER>
-17.6007

>  <SCORE.INTER.CONST>
1

>  <SCORE.INTER.POLAR>
0

>  <SCORE.INTER.ROT>
7

>  <SCORE.INTER.SOLV>
15.2762

>  <SCORE.INTER.VDW>
-25.0925

>  <SCORE.INTER.norm>
-0.651876

>  <SCORE.INTRA>
2.56458

>  <SCORE.INTRA.DIHEDRAL>
5.75925

>  <SCORE.INTRA.DIHEDRAL.0>
4.89803

>  <SCORE.INTRA.POLAR>
0

>  <SCORE.INTRA.POLAR.0>
0

>  <SCORE.INTRA.REPUL>
0

>  <SCORE.INTRA.REPUL.0>
0

>  <SCORE.INTRA.SOLV>
0.58624

>  <SCORE.INTRA.SOLV.lig_0>
-48.5832

>  <SCORE.INTRA.VDW>
-0.608163

>  <SCORE.INTRA.VDW.0>
-2.39056

>  <SCORE.INTRA.norm>
0.0949846

>  <SCORE.RESTR>
0

>  <SCORE.RESTR.CAVITY>
0

>  <SCORE.RESTR.norm>
0

>  <SCORE.SYSTEM>
0

>  <SCORE.SYSTEM.CONST>
0

>  <SCORE.SYSTEM.DIHEDRAL>
0

>  <SCORE.SYSTEM.SOLV>
0

>  <SCORE.SYSTEM.norm>
0

>  <SCORE.heavy>
27

>  <SCORE.norm>
-0.556891

>  <RMSD>
5.469

$$$$
ligand
 OpenBabel11021811473D
libRbt.so/2013.1/901 2013/11/27
 27 29  0  0  0  0  0  0  0  0999 V2000
   18.1937   -4.5686  -21.5995 N   0  0  0  0  0  0  0  0  0  0  0  0
   16.8854   -5.2103  -21.4038 C   0  0  2  0  0  0  0  0  0  0  0  0
   16.6964   -5.5716  -19.9274 C   0  0  0  0  0  0  0  0  0  0  0  0
   15.5476   -5.9121  -19.5696 O   0  0  0  0  0  0  0  0  0  0  0  0
   16.8307   -6.4861  -22.2459 C   0  0  0  0  0  0  0  0  0  0  0  0
   15.4079   -7.0398  -22.3580 C   0  0  0  0  0  0  0  0  0  0  0  0
   15.3482   -7.8274  -25.0868 C   0  0  0  0  0  0  0  0  0  0  0  0
   15.3726   -8.5778  -23.4011 Se  0  0  2  0  0  0  0  0  0  0  0  0
   13.6614   -9.2950  -23.2849 C   0  0  0  0  0  0  0  0  0  0  0  0
   13.1324   -9.3875  -21.8531 C   0  0  1  0  0  0  0  0  0  0  0  0
   11.8118   -9.9551  -21.8940 O   0  0  0  0  0  0  0  0  0  0  0  0
   13.9798  -10.4303  -21.1232 C   0  0  1  0  0  0  0  0  0  0  0  0
   13.6558  -10.4229  -19.7320 O   0  0  0  0  0  0  0  0  0  0  0  0
   13.4315  -11.6951  -21.7789 C   0  0  1  0  0  0  0  0  0  0  0  0
   13.6976  -12.8089  -20.9246 O   0  0  0  0  0  0  0  0  0  0  0  0
   11.9358  -11.3795  -21.7327 C   0  0  2  0  0  0  0  0  0  0  0  0
   17.7010   -5.4907  -19.1868 O   0  0  0  0  0  0  0  0  0  0  0  0
    8.7612  -15.3130  -22.7786 N   0  0  0  0  0  0  0  0  0  0  0  0
    9.2552  -14.9350  -21.6122 C   0  0  0  0  0  0  0  0  0  0  0  0
   10.0631  -13.8948  -21.5019 N   0  0  0  0  0  0  0  0  0  0  0  0
   10.4074  -13.1805  -22.5841 C   0  0  0  0  0  0  0  0  0  0  0  0
    9.9099  -13.5480  -23.8265 C   0  0  0  0  0  0  0  0  0  0  0  0
    9.0663  -14.6501  -23.9014 C   0  0  0  0  0  0  0  0  0  0  0  0
    8.6008  -15.0560  -25.0786 N   0  0  0  0  0  0  0  0  0  0  0  0
   10.3939  -12.6953  -24.7227 N   0  0  0  0  0  0  0  0  0  0  0  0
   11.1651  -11.8258  -24.0742 C   0  0  0  0  0  0  0  0  0  0  0  0
   11.1780  -12.1142  -22.7726 N   0  0  0  0  0  0  0  0  0  0  0  0
  2  1  1  1  0  0  0
  2  5  1  0  0  0  0
  2  3  1  0  0  0  0
  3 17  1  0  0  0  0
  3  4  1  0  0  0  0
  5  6  1  0  0  0  0
  7  8  1  0  0  0  0
  8  6  1  1  0  0  0
  8  9  1  0  0  0  0
 10  9  1  6  0  0  0
 10 11  1  0  0  0  0
 10 12  1  0  0  0  0
 11 16  1  0  0  0  0
 12 13  1  1  0  0  0
 12 14  1  0  0  0  0
 14 15  1  1  0  0  0
 14 16  1  0  0  0  0
 16 27  1  6  0  0  0
 18 23  2  0  0  0  0
 18 19  1  0  0  0  0
 19 20  2  0  0  0  0
 20 21  1  0  0  0  0
 21 22  2  0  0  0  0
 21 27  1  0  0  0  0
 22 23  1  0  0  0  0
 22 25  1  0  0  0  0
 23 24  1  0  0  0  0
 25 26  2  0  0  0  0
 26 27  1  0  0  0  0
M  END
>  <CHROM.1>
-166.77512715,168.07117139,179.39370462,-81.80032289,-47.56747783,-179.91850087
-136.38969539,13.46961757,-9.99732224,-22.35344000,-0.12351958,-0.85179514
-1.52470543

>  <Name>
ligand

>  <RI>
0

>  <Rbt.Current_Directory>
/home/itssahil/PROJECTS/Mol_Feturizer/New_Systems/rnas/3E5F

>  <Rbt.Executable>
rbdock ($Id: //depot/dev/client3/rdock/2013.1/src/exe/rbdock.cxx#4 $)

>  <Rbt.Library>
libRbt.so (2013.1, Build901 2013/11/27)

>  <Rbt.Parameter_File>
/export/apps/rDock/src/rDock_2013.1_src/data/scripts/dock_solv.prm

>  <Rbt.Receptor>
prm/blind_docking_60.prm

>  <SCORE>
-17.2562

>  <SCORE.INTER>
-17.3759

>  <SCORE.INTER.CONST>
1

>  <SCORE.INTER.POLAR>
0

>  <SCORE.INTER.ROT>
7

>  <SCORE.INTER.SOLV>
11.4809

>  <SCORE.INTER.VDW>
-23.6775

>  <SCORE.INTER.norm>
-0.643551

>  <SCORE.INTRA>
0.107284

>  <SCORE.INTRA.DIHEDRAL>
-0.403953

>  <SCORE.INTRA.DIHEDRAL.0>
4.89803

>  <SCORE.INTRA.POLAR>
0

>  <SCORE.INTRA.POLAR.0>
0

>  <SCORE.INTRA.REPUL>
0

>  <SCORE.INTRA.REPUL.0>
0

>  <SCORE.INTRA.SOLV>
-0.0378128

>  <SCORE.INTRA.SOLV.lig_0>
-48.5832

>  <SCORE.INTRA.VDW>
0.328167

>  <SCORE.INTRA.VDW.0>
-2.39056

>  <SCORE.INTRA.norm>
0.00397348

>  <SCORE.RESTR>
0.0123978

>  <SCORE.RESTR.CAVITY>
0.0123978

>  <SCORE.RESTR.norm>
0.000459179

>  <SCORE.SYSTEM>
0

>  <SCORE.SYSTEM.CONST>
0

>  <SCORE.SYSTEM.DIHEDRAL>
0

>  <SCORE.SYSTEM.SOLV>
0

>  <SCORE.SYSTEM.norm>
0

>  <SCORE.heavy>
27

>  <SCORE.norm>
-0.639119

>  <RMSD>
5.473

$$$$
ligand
 OpenBabel11021811473D
libRbt.so/2013.1/901 2013/11/27
 27 29  0  0  0  0  0  0  0  0999 V2000
   20.2846   -8.4292  -14.3817 N   0  0  0  0  0  0  0  0  0  0  0  0
   19.0260   -7.9100  -13.8267 C   0  0  2  0  0  0  0  0  0  0  0  0
   17.9322   -8.9779  -13.9245 C   0  0  0  0  0  0  0  0  0  0  0  0
   16.9963   -8.9080  -13.0982 O   0  0  0  0  0  0  0  0  0  0  0  0
   18.6025   -6.6797  -14.6311 C   0  0  0  0  0  0  0  0  0  0  0  0
   18.3925   -7.0060  -16.1119 C   0  0  0  0  0  0  0  0  0  0  0  0
   16.1748   -5.2375  -16.2674 C   0  0  0  0  0  0  0  0  0  0  0  0
   17.8245   -5.5053  -17.0499 Se  0  0  2  0  0  0  0  0  0  0  0  0
   17.3438   -6.0603  -18.7579 C   0  0  0  0  0  0  0  0  0  0  0  0
   18.1487   -5.3860  -19.8697 C   0  0  1  0  0  0  0  0  0  0  0  0
   18.1525   -6.2540  -21.0162 O   0  0  0  0  0  0  0  0  0  0  0  0
   17.3596   -4.1553  -20.3182 C   0  0  1  0  0  0  0  0  0  0  0  0
   18.1508   -3.3815  -21.2213 O   0  0  0  0  0  0  0  0  0  0  0  0
   16.2319   -4.8499  -21.0774 C   0  0  1  0  0  0  0  0  0  0  0  0
   15.6559   -3.9206  -21.9972 O   0  0  0  0  0  0  0  0  0  0  0  0
   17.0468   -5.8818  -21.8582 C   0  0  2  0  0  0  0  0  0  0  0  0
   18.0599   -9.8458  -14.8159 O   0  0  0  0  0  0  0  0  0  0  0  0
   14.5695   -8.3517  -25.6539 N   0  0  0  0  0  0  0  0  0  0  0  0
   15.2564   -7.2236  -25.7100 C   0  0  0  0  0  0  0  0  0  0  0  0
   15.8422   -6.7110  -24.6419 N   0  0  0  0  0  0  0  0  0  0  0  0
   15.7589   -7.3301  -23.4546 C   0  0  0  0  0  0  0  0  0  0  0  0
   15.0447   -8.5159  -23.3561 C   0  0  0  0  0  0  0  0  0  0  0  0
   14.4398   -9.0207  -24.5012 C   0  0  0  0  0  0  0  0  0  0  0  0
   13.7151  -10.1335  -24.4385 N   0  0  0  0  0  0  0  0  0  0  0  0
   15.1107   -8.9224  -22.0933 N   0  0  0  0  0  0  0  0  0  0  0  0
   15.8357   -8.0309  -21.4217 C   0  0  0  0  0  0  0  0  0  0  0  0
   16.2339   -7.0593  -22.2433 N   0  0  0  0  0  0  0  0  0  0  0  0
  2  1  1  6  0  0  0
  2  5  1  0  0  0  0
  2  3  1  0  0  0  0
  3 17  1  0  0  0  0
  3  4  1  0  0  0  0
  5  6  1  0  0  0  0
  7  8  1  0  0  0  0
  8  6  1  1  0  0  0
  8  9  1  0  0  0  0
 10  9  1  1  0  0  0
 10 11  1  0  0  0  0
 10 12  1  0  0  0  0
 11 16  1  0  0  0  0
 12 13  1  6  0  0  0
 12 14  1  0  0  0  0
 14 15  1  6  0  0  0
 14 16  1  0  0  0  0
 16 27  1  1  0  0  0
 18 23  2  0  0  0  0
 18 19  1  0  0  0  0
 19 20  2  0  0  0  0
 20 21  1  0  0  0  0
 21 22  2  0  0  0  0
 21 27  1  0  0  0  0
 22 23  1  0  0  0  0
 22 25  1  0  0  0  0
 23 24  1  0  0  0  0
 25 26  2  0  0  0  0
 26 27  1  0  0  0  0
M  END
>  <CHROM.1>
59.59928975,154.34445372,178.10623102,-65.46308896,-120.33798606,154.63659342
-135.86507366,16.97270627,-6.76655780,-19.39474528,0.68888898,1.15837808
2.39776738

>  <Name>
ligand

>  <RI>
0

>  <Rbt.Current_Directory>
/home/itssahil/PROJECTS/Mol_Feturizer/New_Systems/rnas/3E5F

>  <Rbt.Executable>
rbdock ($Id: //depot/dev/client3/rdock/2013.1/src/exe/rbdock.cxx#4 $)

>  <Rbt.Library>
libRbt.so (2013.1, Build901 2013/11/27)

>  <Rbt.Parameter_File>
/export/apps/rDock/src/rDock_2013.1_src/data/scripts/dock_solv.prm

>  <Rbt.Receptor>
prm/pocket_docking_7.prm

>  <SCORE>
-12.5294

>  <SCORE.INTER>
-14.7869

>  <SCORE.INTER.CONST>
1

>  <SCORE.INTER.POLAR>
0

>  <SCORE.INTER.ROT>
7

>  <SCORE.INTER.SOLV>
15.0964

>  <SCORE.INTER.VDW>
-23.1567

>  <SCORE.INTER.norm>
-0.547662

>  <SCORE.INTRA>
2.25744

>  <SCORE.INTRA.DIHEDRAL>
2.06035

>  <SCORE.INTRA.DIHEDRAL.0>
4.89803

>  <SCORE.INTRA.POLAR>
0

>  <SCORE.INTRA.POLAR.0>
0

>  <SCORE.INTRA.REPUL>
0

>  <SCORE.INTRA.REPUL.0>
0

>  <SCORE.INTRA.SOLV>
0.624582

>  <SCORE.INTRA.SOLV.lig_0>
-48.5832

>  <SCORE.INTRA.VDW>
0.914975

>  <SCORE.INTRA.VDW.0>
-2.39056

>  <SCORE.INTRA.norm>
0.083609

>  <SCORE.RESTR>
0

>  <SCORE.RESTR.CAVITY>
0

>  <SCORE.RESTR.norm>
0

>  <SCORE.SYSTEM>
0

>  <SCORE.SYSTEM.CONST>
0

>  <SCORE.SYSTEM.DIHEDRAL>
0

>  <SCORE.SYSTEM.SOLV>
0

>  <SCORE.SYSTEM.norm>
0

>  <SCORE.heavy>
27

>  <SCORE.norm>
-0.464053

>  <RMSD>
5.481

$$$$
ligand
 OpenBabel11021811473D
libRbt.so/2013.1/901 2013/11/27
 27 29  0  0  0  0  0  0  0  0999 V2000
   18.2752   -4.4296  -21.5335 N   0  0  0  0  0  0  0  0  0  0  0  0
   16.8815   -4.8104  -21.8060 C   0  0  2  0  0  0  0  0  0  0  0  0
   16.0022   -4.4736  -20.5979 C   0  0  0  0  0  0  0  0  0  0  0  0
   14.9440   -3.8471  -20.8240 O   0  0  0  0  0  0  0  0  0  0  0  0
   16.8236   -6.3165  -22.0672 C   0  0  0  0  0  0  0  0  0  0  0  0
   15.4205   -6.7758  -22.4718 C   0  0  0  0  0  0  0  0  0  0  0  0
   15.5448   -7.7794  -25.1266 C   0  0  0  0  0  0  0  0  0  0  0  0
   15.4874   -8.3922  -23.3868 Se  0  0  2  0  0  0  0  0  0  0  0  0
   13.7913   -9.1497  -23.3118 C   0  0  0  0  0  0  0  0  0  0  0  0
   13.2438   -9.2852  -21.8903 C   0  0  1  0  0  0  0  0  0  0  0  0
   11.9106   -9.8183  -21.9675 O   0  0  0  0  0  0  0  0  0  0  0  0
   14.0575  -10.3761  -21.1931 C   0  0  1  0  0  0  0  0  0  0  0  0
   13.7177  -10.4150  -19.8062 O   0  0  0  0  0  0  0  0  0  0  0  0
   13.4864  -11.6006  -21.9038 C   0  0  1  0  0  0  0  0  0  0  0  0
   13.7159  -12.7530  -21.0911 O   0  0  0  0  0  0  0  0  0  0  0  0
   11.9984  -11.2504  -21.8610 C   0  0  2  0  0  0  0  0  0  0  0  0
   16.4109   -4.8409  -19.4743 O   0  0  0  0  0  0  0  0  0  0  0  0
    8.1522  -14.4862  -23.0362 N   0  0  0  0  0  0  0  0  0  0  0  0
    8.5601  -14.0823  -21.8454 C   0  0  0  0  0  0  0  0  0  0  0  0
    9.5691  -13.2406  -21.7032 N   0  0  0  0  0  0  0  0  0  0  0  0
   10.2155  -12.7626  -22.7772 C   0  0  0  0  0  0  0  0  0  0  0  0
    9.8171  -13.1652  -24.0441 C   0  0  0  0  0  0  0  0  0  0  0  0
    8.7543  -14.0544  -24.1517 C   0  0  0  0  0  0  0  0  0  0  0  0
    8.3687  -14.4931  -25.3459 N   0  0  0  0  0  0  0  0  0  0  0  0
   10.6056  -12.5607  -24.9257 N   0  0  0  0  0  0  0  0  0  0  0  0
   11.4665  -11.8079  -24.2447 C   0  0  0  0  0  0  0  0  0  0  0  0
   11.2352  -11.9253  -22.9370 N   0  0  0  0  0  0  0  0  0  0  0  0
  2  1  1  1  0  0  0
  2  5  1  0  0  0  0
  2  3  1  0  0  0  0
  3 17  1  0  0  0  0
  3  4  1  0  0  0  0
  5  6  1  0  0  0  0
  7  8  1  0  0  0  0
  8  6  1  1  0  0  0
  8  9  1  0  0  0  0
 10  9  1  6  0  0  0
 10 11  1  0  0  0  0
 10 12  1  0  0  0  0
 11 16  1  0  0  0  0
 12 13  1  1  0  0  0
 12 14  1  0  0  0  0
 14 15  1  1  0  0  0
 14 16  1  0  0  0  0
 16 27  1  6  0  0  0
 18 23  2  0  0  0  0
 18 19  1  0  0  0  0
 19 20  2  0  0  0  0
 20 21  1  0  0  0  0
 21 22  2  0  0  0  0
 21 27  1  0  0  0  0
 22 23  1  0  0  0  0
 22 25  1  0  0  0  0
 23 24  1  0  0  0  0
 25 26  2  0  0  0  0
 26 27  1  0  0  0  0
M  END
>  <CHROM.1>
-175.36596764,131.15012002,158.38745761,-93.60790723,-53.94777386,177.21189330
-119.68698254,13.36990213,-9.64099329,-22.52220631,-0.32084004,-0.82012530
-1.80055384

>  <Name>
ligand

>  <RI>
0

>  <Rbt.Current_Directory>
/home/itssahil/PROJECTS/Mol_Feturizer/New_Systems/rnas/3E5F

>  <Rbt.Executable>
rbdock ($Id: //depot/dev/client3/rdock/2013.1/src/exe/rbdock.cxx#4 $)

>  <Rbt.Library>
libRbt.so (2013.1, Build901 2013/11/27)

>  <Rbt.Parameter_File>
/export/apps/rDock/src/rDock_2013.1_src/data/scripts/dock_solv.prm

>  <Rbt.Receptor>
prm/blind_docking_60.prm

>  <SCORE>
-18.4013

>  <SCORE.INTER>
-18.955

>  <SCORE.INTER.CONST>
1

>  <SCORE.INTER.POLAR>
0

>  <SCORE.INTER.ROT>
7

>  <SCORE.INTER.SOLV>
11.1532

>  <SCORE.INTER.VDW>
-24.6211

>  <SCORE.INTER.norm>
-0.702038

>  <SCORE.INTRA>
0.550741

>  <SCORE.INTRA.DIHEDRAL>
0.946162

>  <SCORE.INTRA.DIHEDRAL.0>
4.89803

>  <SCORE.INTRA.POLAR>
0

>  <SCORE.INTRA.POLAR.0>
0

>  <SCORE.INTRA.REPUL>
0

>  <SCORE.INTRA.REPUL.0>
0

>  <SCORE.INTRA.SOLV>
-0.0960619

>  <SCORE.INTRA.SOLV.lig_0>
-48.5832

>  <SCORE.INTRA.VDW>
0.125691

>  <SCORE.INTRA.VDW.0>
-2.39056

>  <SCORE.INTRA.norm>
0.0203978

>  <SCORE.RESTR>
0.00296351

>  <SCORE.RESTR.CAVITY>
0.00296351

>  <SCORE.RESTR.norm>
0.000109759

>  <SCORE.SYSTEM>
0

>  <SCORE.SYSTEM.CONST>
0

>  <SCORE.SYSTEM.DIHEDRAL>
0

>  <SCORE.SYSTEM.SOLV>
0

>  <SCORE.SYSTEM.norm>
0

>  <SCORE.heavy>
27

>  <SCORE.norm>
-0.681531

>  <RMSD>
5.484

$$$$
ligand
 OpenBabel11021811473D
libRbt.so/2013.1/901 2013/11/27
 27 29  0  0  0  0  0  0  0  0999 V2000
   12.8254   -8.6421  -13.9592 N   0  0  0  0  0  0  0  0  0  0  0  0
   13.7457   -8.8896  -15.0788 C   0  0  2  0  0  0  0  0  0  0  0  0
   15.0318   -9.5425  -14.5633 C   0  0  0  0  0  0  0  0  0  0  0  0
   15.8280   -8.8094  -13.9369 O   0  0  0  0  0  0  0  0  0  0  0  0
   14.0887   -7.5535  -15.7400 C   0  0  0  0  0  0  0  0  0  0  0  0
   14.8662   -7.7414  -17.0453 C   0  0  0  0  0  0  0  0  0  0  0  0
   16.4513   -5.4366  -16.5501 C   0  0  0  0  0  0  0  0  0  0  0  0
   15.2824   -6.1012  -17.8140 Se  0  0  2  0  0  0  0  0  0  0  0  0
   13.8118   -4.9865  -17.5876 C   0  0  0  0  0  0  0  0  0  0  0  0
   13.2848   -4.3952  -18.8958 C   0  0  1  0  0  0  0  0  0  0  0  0
   14.3991   -3.8663  -19.6349 O   0  0  0  0  0  0  0  0  0  0  0  0
   12.7735   -5.5590  -19.7458 C   0  0  1  0  0  0  0  0  0  0  0  0
   12.0977   -5.0510  -20.8972 O   0  0  0  0  0  0  0  0  0  0  0  0
   14.1111   -6.1708  -20.1547 C   0  0  1  0  0  0  0  0  0  0  0  0
   13.9183   -6.9509  -21.3359 O   0  0  0  0  0  0  0  0  0  0  0  0
   14.8743   -4.8968  -20.5194 C   0  0  2  0  0  0  0  0  0  0  0  0
   15.1959  -10.7567  -14.8143 O   0  0  0  0  0  0  0  0  0  0  0  0
   18.7711   -8.2047  -19.8002 N   0  0  0  0  0  0  0  0  0  0  0  0
   17.4734   -8.4518  -19.8497 C   0  0  0  0  0  0  0  0  0  0  0  0
   16.5881   -7.4900  -20.0444 N   0  0  0  0  0  0  0  0  0  0  0  0
   16.9857   -6.2185  -20.2031 C   0  0  0  0  0  0  0  0  0  0  0  0
   18.3401   -5.9199  -20.1555 C   0  0  0  0  0  0  0  0  0  0  0  0
   19.2394   -6.9585  -19.9450 C   0  0  0  0  0  0  0  0  0  0  0  0
   20.5416   -6.7066  -19.8547 N   0  0  0  0  0  0  0  0  0  0  0  0
   18.4706   -4.6103  -20.3357 N   0  0  0  0  0  0  0  0  0  0  0  0
   17.2500   -4.1025  -20.4901 C   0  0  0  0  0  0  0  0  0  0  0  0
   16.3413   -5.0749  -20.4110 N   0  0  0  0  0  0  0  0  0  0  0  0
  2  1  1  1  0  0  0
  2  5  1  0  0  0  0
  2  3  1  0  0  0  0
  3 17  1  0  0  0  0
  3  4  1  0  0  0  0
  5  6  1  0  0  0  0
  7  8  1  0  0  0  0
  8  6  1  1  0  0  0
  8  9  1  0  0  0  0
 10  9  1  1  0  0  0
 10 11  1  0  0  0  0
 10 12  1  0  0  0  0
 11 16  1  0  0  0  0
 12 13  1  6  0  0  0
 12 14  1  0  0  0  0
 14 15  1  6  0  0  0
 14 16  1  0  0  0  0
 16 27  1  1  0  0  0
 18 23  2  0  0  0  0
 18 19  1  0  0  0  0
 19 20  2  0  0  0  0
 20 21  1  0  0  0  0
 21 22  2  0  0  0  0
 21 27  1  0  0  0  0
 22 23  1  0  0  0  0
 22 25  1  0  0  0  0
 23 24  1  0  0  0  0
 25 26  2  0  0  0  0
 26 27  1  0  0  0  0
M  END
>  <CHROM.1>
-171.09154700,-73.63118956,-179.41824648,66.28511843,-124.67750384,-48.08607136
128.11611559,15.54104427,-6.56240479,-18.35682174,1.91395440,-0.28124051
2.20272286

>  <Name>
ligand

>  <RI>
0

>  <Rbt.Current_Directory>
/home/itssahil/PROJECTS/Mol_Feturizer/New_Systems/rnas/3E5F

>  <Rbt.Executable>
rbdock ($Id: //depot/dev/client3/rdock/2013.1/src/exe/rbdock.cxx#4 $)

>  <Rbt.Library>
libRbt.so (2013.1, Build901 2013/11/27)

>  <Rbt.Parameter_File>
/export/apps/rDock/src/rDock_2013.1_src/data/scripts/dock_solv.prm

>  <Rbt.Receptor>
prm/pocket_docking_8.prm

>  <SCORE>
-6.7164

>  <SCORE.INTER>
-6.24271

>  <SCORE.INTER.CONST>
1

>  <SCORE.INTER.POLAR>
0

>  <SCORE.INTER.ROT>
7

>  <SCORE.INTER.SOLV>
6.79424

>  <SCORE.INTER.VDW>
-14.6932

>  <SCORE.INTER.norm>
-0.231211

>  <SCORE.INTRA>
-0.473688

>  <SCORE.INTRA.DIHEDRAL>
1.35508

>  <SCORE.INTRA.DIHEDRAL.0>
4.89803

>  <SCORE.INTRA.POLAR>
0

>  <SCORE.INTRA.POLAR.0>
0

>  <SCORE.INTRA.REPUL>
0

>  <SCORE.INTRA.REPUL.0>
0

>  <SCORE.INTRA.SOLV>
0.231583

>  <SCORE.INTRA.SOLV.lig_0>
-48.5832

>  <SCORE.INTRA.VDW>
-1.26702

>  <SCORE.INTRA.VDW.0>
-2.39056

>  <SCORE.INTRA.norm>
-0.017544

>  <SCORE.RESTR>
0

>  <SCORE.RESTR.CAVITY>
0

>  <SCORE.RESTR.norm>
0

>  <SCORE.SYSTEM>
0

>  <SCORE.SYSTEM.CONST>
0

>  <SCORE.SYSTEM.DIHEDRAL>
0

>  <SCORE.SYSTEM.SOLV>
0

>  <SCORE.SYSTEM.norm>
0

>  <SCORE.heavy>
27

>  <SCORE.norm>
-0.248755

>  <RMSD>
5.484

$$$$
ligand
 OpenBabel11021811473D
libRbt.so/2013.1/901 2013/11/27
 27 29  0  0  0  0  0  0  0  0999 V2000
    9.5121   -6.3068  -16.8091 N   0  0  0  0  0  0  0  0  0  0  0  0
    9.0726   -7.2103  -17.8826 C   0  0  2  0  0  0  0  0  0  0  0  0
    8.0514   -8.2127  -17.3362 C   0  0  0  0  0  0  0  0  0  0  0  0
    8.1690   -8.5449  -16.1365 O   0  0  0  0  0  0  0  0  0  0  0  0
   10.2883   -7.9698  -18.4167 C   0  0  0  0  0  0  0  0  0  0  0  0
   11.2466   -7.0541  -19.1826 C   0  0  0  0  0  0  0  0  0  0  0  0
   13.6756   -8.1258  -18.1717 C   0  0  0  0  0  0  0  0  0  0  0  0
   12.7444   -7.9914  -19.7593 Se  0  0  2  0  0  0  0  0  0  0  0  0
   13.8099   -6.8094  -20.7203 C   0  0  0  0  0  0  0  0  0  0  0  0
   15.2500   -7.2914  -20.9005 C   0  0  1  0  0  0  0  0  0  0  0  0
   15.2172   -8.6431  -21.3898 O   0  0  0  0  0  0  0  0  0  0  0  0
   15.8599   -6.4800  -22.0442 C   0  0  1  0  0  0  0  0  0  0  0  0
   17.2592   -6.7532  -22.1328 O   0  0  0  0  0  0  0  0  0  0  0  0
   15.1282   -7.1236  -23.2193 C   0  0  1  0  0  0  0  0  0  0  0  0
   15.8798   -6.8918  -24.4121 O   0  0  0  0  0  0  0  0  0  0  0  0
   15.2595   -8.5959  -22.8272 C   0  0  2  0  0  0  0  0  0  0  0  0
    7.1818   -8.6323  -18.1312 O   0  0  0  0  0  0  0  0  0  0  0  0
   12.2892  -12.7916  -22.3608 N   0  0  0  0  0  0  0  0  0  0  0  0
   13.1998  -12.3243  -21.5242 C   0  0  0  0  0  0  0  0  0  0  0  0
   13.8858  -11.2250  -21.7841 N   0  0  0  0  0  0  0  0  0  0  0  0
   13.6731  -10.5400  -22.9179 C   0  0  0  0  0  0  0  0  0  0  0  0
   12.7261  -11.0007  -23.8218 C   0  0  0  0  0  0  0  0  0  0  0  0
   12.0282  -12.1626  -23.5139 C   0  0  0  0  0  0  0  0  0  0  0  0
   11.1411  -12.6562  -24.3721 N   0  0  0  0  0  0  0  0  0  0  0  0
   12.7067  -10.1590  -24.8492 N   0  0  0  0  0  0  0  0  0  0  0  0
   13.6040   -9.2067  -24.6053 C   0  0  0  0  0  0  0  0  0  0  0  0
   14.1958   -9.4315  -23.4320 N   0  0  0  0  0  0  0  0  0  0  0  0
  2  1  1  1  0  0  0
  2  5  1  0  0  0  0
  2  3  1  0  0  0  0
  3 17  1  0  0  0  0
  3  4  1  0  0  0  0
  5  6  1  0  0  0  0
  7  8  1  0  0  0  0
  8  6  1  1  0  0  0
  8  9  1  0  0  0  0
 10  9  1  6  0  0  0
 10 11  1  0  0  0  0
 10 12  1  0  0  0  0
 11 16  1  0  0  0  0
 12 13  1  6  0  0  0
 12 14  1  0  0  0  0
 14 15  1  6  0  0  0
 14 16  1  0  0  0  0
 16 27  1  6  0  0  0
 18 23  2  0  0  0  0
 18 19  1  0  0  0  0
 19 20  2  0  0  0  0
 20 21  1  0  0  0  0
 21 22  2  0  0  0  0
 21 27  1  0  0  0  0
 22 23  1  0  0  0  0
 22 25  1  0  0  0  0
 23 24  1  0  0  0  0
 25 26  2  0  0  0  0
 26 27  1  0  0  0  0
M  END
>  <CHROM.1>
-69.27696630,-30.76761130,177.72961005,-76.07277032,162.57733287,49.84314511
-30.43908046,12.71201355,-8.70649804,-20.93771488,-2.47859867,-0.54956629
-2.38313074

>  <Name>
ligand

>  <RI>
0

>  <Rbt.Current_Directory>
/home/itssahil/PROJECTS/Mol_Feturizer/New_Systems/rnas/3E5F

>  <Rbt.Executable>
rbdock ($Id: //depot/dev/client3/rdock/2013.1/src/exe/rbdock.cxx#4 $)

>  <Rbt.Library>
libRbt.so (2013.1, Build901 2013/11/27)

>  <Rbt.Parameter_File>
/export/apps/rDock/src/rDock_2013.1_src/data/scripts/dock_solv.prm

>  <Rbt.Receptor>
prm/pocket_docking_8.prm

>  <SCORE>
-15.4317

>  <SCORE.INTER>
-15.6608

>  <SCORE.INTER.CONST>
1

>  <SCORE.INTER.POLAR>
0

>  <SCORE.INTER.ROT>
7

>  <SCORE.INTER.SOLV>
13.4887

>  <SCORE.INTER.VDW>
-23.2034

>  <SCORE.INTER.norm>
-0.580028

>  <SCORE.INTRA>
0.229014

>  <SCORE.INTRA.DIHEDRAL>
-1.0451

>  <SCORE.INTRA.DIHEDRAL.0>
4.89803

>  <SCORE.INTRA.POLAR>
0

>  <SCORE.INTRA.POLAR.0>
0

>  <SCORE.INTRA.REPUL>
0

>  <SCORE.INTRA.REPUL.0>
0

>  <SCORE.INTRA.SOLV>
0.784031

>  <SCORE.INTRA.SOLV.lig_0>
-48.5832

>  <SCORE.INTRA.VDW>
0.35955

>  <SCORE.INTRA.VDW.0>
-2.39056

>  <SCORE.INTRA.norm>
0.00848201

>  <SCORE.RESTR>
0

>  <SCORE.RESTR.CAVITY>
0

>  <SCORE.RESTR.norm>
0

>  <SCORE.SYSTEM>
0

>  <SCORE.SYSTEM.CONST>
0

>  <SCORE.SYSTEM.DIHEDRAL>
0

>  <SCORE.SYSTEM.SOLV>
0

>  <SCORE.SYSTEM.norm>
0

>  <SCORE.heavy>
27

>  <SCORE.norm>
-0.571546

>  <RMSD>
5.484

$$$$
ligand
 OpenBabel11021811473D
libRbt.so/2013.1/901 2013/11/27
 27 29  0  0  0  0  0  0  0  0999 V2000
   12.2935   -8.9249  -18.2051 N   0  0  0  0  0  0  0  0  0  0  0  0
   12.5873   -7.5504  -18.6367 C   0  0  2  0  0  0  0  0  0  0  0  0
   11.8274   -7.2350  -19.9287 C   0  0  0  0  0  0  0  0  0  0  0  0
   11.7228   -8.1589  -20.7648 O   0  0  0  0  0  0  0  0  0  0  0  0
   14.0901   -7.4241  -18.8923 C   0  0  0  0  0  0  0  0  0  0  0  0
   14.9127   -7.7051  -17.6322 C   0  0  0  0  0  0  0  0  0  0  0  0
   17.3230   -7.1805  -16.2231 C   0  0  0  0  0  0  0  0  0  0  0  0
   16.7255   -7.4447  -17.9490 Se  0  0  2  0  0  0  0  0  0  0  0  0
   16.9289   -5.7477  -18.6804 C   0  0  0  0  0  0  0  0  0  0  0  0
   18.1222   -5.6291  -19.6294 C   0  0  1  0  0  0  0  0  0  0  0  0
   18.1325   -6.7810  -20.4900 O   0  0  0  0  0  0  0  0  0  0  0  0
   17.8436   -4.4505  -20.5630 C   0  0  1  0  0  0  0  0  0  0  0  0
   19.0060   -4.1738  -21.3456 O   0  0  0  0  0  0  0  0  0  0  0  0
   16.7639   -5.0809  -21.4390 C   0  0  1  0  0  0  0  0  0  0  0  0
   16.7024   -4.3700  -22.6767 O   0  0  0  0  0  0  0  0  0  0  0  0
   17.3997   -6.4501  -21.6832 C   0  0  2  0  0  0  0  0  0  0  0  0
   11.3760   -6.0756  -20.0570 O   0  0  0  0  0  0  0  0  0  0  0  0
   14.3818   -8.5356  -25.3147 N   0  0  0  0  0  0  0  0  0  0  0  0
   15.2392   -7.5354  -25.4243 C   0  0  0  0  0  0  0  0  0  0  0  0
   15.9492   -7.1104  -24.3938 N   0  0  0  0  0  0  0  0  0  0  0  0
   15.8215   -7.6911  -23.1912 C   0  0  0  0  0  0  0  0  0  0  0  0
   14.9298   -8.7432  -23.0366 C   0  0  0  0  0  0  0  0  0  0  0  0
   14.1987   -9.1584  -24.1434 C   0  0  0  0  0  0  0  0  0  0  0  0
   13.3068  -10.1372  -24.0258 N   0  0  0  0  0  0  0  0  0  0  0  0
   14.9873   -9.1374  -21.7695 N   0  0  0  0  0  0  0  0  0  0  0  0
   15.8776   -8.3668  -21.1491 C   0  0  0  0  0  0  0  0  0  0  0  0
   16.3897   -7.4846  -22.0075 N   0  0  0  0  0  0  0  0  0  0  0  0
  2  1  1  6  0  0  0
  2  5  1  0  0  0  0
  2  3  1  0  0  0  0
  3 17  1  0  0  0  0
  3  4  1  0  0  0  0
  5  6  1  0  0  0  0
  7  8  1  0  0  0  0
  8  6  1  1  0  0  0
  8  9  1  0  0  0  0
 10  9  1  1  0  0  0
 10 11  1  0  0  0  0
 10 12  1  0  0  0  0
 11 16  1  0  0  0  0
 12 13  1  6  0  0  0
 12 14  1  0  0  0  0
 14 15  1  6  0  0  0
 14 16  1  0  0  0  0
 16 27  1  1  0  0  0
 18 23  2  0  0  0  0
 18 19  1  0  0  0  0
 19 20  2  0  0  0  0
 20 21  1  0  0  0  0
 21 22  2  0  0  0  0
 21 27  1  0  0  0  0
 22 23  1  0  0  0  0
 22 25  1  0  0  0  0
 23 24  1  0  0  0  0
 25 26  2  0  0  0  0
 26 27  1  0  0  0  0
M  END
>  <CHROM.1>
-60.88380880,-37.39438399,-176.60937173,158.37443997,-150.04341813,44.43277967
-159.82518654,15.57800105,-7.19336162,-20.56614810,1.10112842,0.47531249
1.53880427

>  <Name>
ligand

>  <RI>
0

>  <Rbt.Current_Directory>
/home/itssahil/PROJECTS/Mol_Feturizer/New_Systems/rnas/3E5F

>  <Rbt.Executable>
rbdock ($Id: //depot/dev/client3/rdock/2013.1/src/exe/rbdock.cxx#4 $)

>  <Rbt.Library>
libRbt.so (2013.1, Build901 2013/11/27)

>  <Rbt.Parameter_File>
/export/apps/rDock/src/rDock_2013.1_src/data/scripts/dock_solv.prm

>  <Rbt.Receptor>
prm/pocket_docking_5.prm

>  <SCORE>
-15.5198

>  <SCORE.INTER>
-15.0633

>  <SCORE.INTER.CONST>
1

>  <SCORE.INTER.POLAR>
0

>  <SCORE.INTER.ROT>
7

>  <SCORE.INTER.SOLV>
14.042

>  <SCORE.INTER.VDW>
-22.9895

>  <SCORE.INTER.norm>
-0.557899

>  <SCORE.INTRA>
-0.456504

>  <SCORE.INTRA.DIHEDRAL>
0.654943

>  <SCORE.INTRA.DIHEDRAL.0>
4.89803

>  <SCORE.INTRA.POLAR>
0

>  <SCORE.INTRA.POLAR.0>
0

>  <SCORE.INTRA.REPUL>
0

>  <SCORE.INTRA.REPUL.0>
0

>  <SCORE.INTRA.SOLV>
0.805594

>  <SCORE.INTRA.SOLV.lig_0>
-48.5832

>  <SCORE.INTRA.VDW>
-1.18677

>  <SCORE.INTRA.VDW.0>
-2.39056

>  <SCORE.INTRA.norm>
-0.0169076

>  <SCORE.RESTR>
0

>  <SCORE.RESTR.CAVITY>
0

>  <SCORE.RESTR.norm>
0

>  <SCORE.SYSTEM>
0

>  <SCORE.SYSTEM.CONST>
0

>  <SCORE.SYSTEM.DIHEDRAL>
0

>  <SCORE.SYSTEM.SOLV>
0

>  <SCORE.SYSTEM.norm>
0

>  <SCORE.heavy>
27

>  <SCORE.norm>
-0.574806

>  <RMSD>
5.485

$$$$
ligand
 OpenBabel11021811473D
libRbt.so/2013.1/901 2013/11/27
 27 29  0  0  0  0  0  0  0  0999 V2000
   17.3336   -6.0380  -19.4322 N   0  0  0  0  0  0  0  0  0  0  0  0
   16.8588   -5.7683  -20.7973 C   0  0  2  0  0  0  0  0  0  0  0  0
   15.7163   -4.7488  -20.7611 C   0  0  0  0  0  0  0  0  0  0  0  0
   15.6106   -3.9807  -21.7422 O   0  0  0  0  0  0  0  0  0  0  0  0
   16.3496   -7.0744  -21.4096 C   0  0  0  0  0  0  0  0  0  0  0  0
   15.9318   -6.8987  -22.8718 C   0  0  0  0  0  0  0  0  0  0  0  0
   15.3771   -8.0093  -25.4270 C   0  0  0  0  0  0  0  0  0  0  0  0
   15.6250   -8.5448  -23.6785 Se  0  0  2  0  0  0  0  0  0  0  0  0
   13.9114   -9.0899  -23.2067 C   0  0  0  0  0  0  0  0  0  0  0  0
   13.5561   -8.7982  -21.7482 C   0  0  1  0  0  0  0  0  0  0  0  0
   12.1884   -9.1843  -21.5292 O   0  0  0  0  0  0  0  0  0  0  0  0
   14.3730   -9.7577  -20.8819 C   0  0  1  0  0  0  0  0  0  0  0  0
   14.2255   -9.4048  -19.5057 O   0  0  0  0  0  0  0  0  0  0  0  0
   13.6184  -11.0528  -21.1713 C   0  0  1  0  0  0  0  0  0  0  0  0
   13.8695  -11.9782  -20.1122 O   0  0  0  0  0  0  0  0  0  0  0  0
   12.1813  -10.5429  -21.0555 C   0  0  2  0  0  0  0  0  0  0  0  0
   14.9797   -4.7526  -19.7503 O   0  0  0  0  0  0  0  0  0  0  0  0
    9.0728  -14.6635  -21.0080 N   0  0  0  0  0  0  0  0  0  0  0  0
    9.8232  -14.1809  -20.0325 C   0  0  0  0  0  0  0  0  0  0  0  0
   10.5727  -13.1048  -20.1975 N   0  0  0  0  0  0  0  0  0  0  0  0
   10.5917  -12.4603  -21.3740 C   0  0  0  0  0  0  0  0  0  0  0  0
    9.8182  -12.9383  -22.4224 C   0  0  0  0  0  0  0  0  0  0  0  0
    9.0467  -14.0748  -22.2104 C   0  0  0  0  0  0  0  0  0  0  0  0
    8.3227  -14.5850  -23.2018 N   0  0  0  0  0  0  0  0  0  0  0  0
   10.0112  -12.1366  -23.4638 N   0  0  0  0  0  0  0  0  0  0  0  0
   10.8708  -11.1919  -23.0895 C   0  0  0  0  0  0  0  0  0  0  0  0
   11.2282  -11.3819  -21.8192 N   0  0  0  0  0  0  0  0  0  0  0  0
  2  1  1  1  0  0  0
  2  5  1  0  0  0  0
  2  3  1  0  0  0  0
  3 17  1  0  0  0  0
  3  4  1  0  0  0  0
  5  6  1  0  0  0  0
  7  8  1  0  0  0  0
  8  6  1  1  0  0  0
  8  9  1  0  0  0  0
 10  9  1  6  0  0  0
 10 11  1  0  0  0  0
 10 12  1  0  0  0  0
 11 16  1  0  0  0  0
 12 13  1  1  0  0  0
 12 14  1  0  0  0  0
 14 15  1  1  0  0  0
 14 16  1  0  0  0  0
 16 27  1  6  0  0  0
 18 23  2  0  0  0  0
 18 19  1  0  0  0  0
 19 20  2  0  0  0  0
 20 21  1  0  0  0  0
 21 22  2  0  0  0  0
 21 27  1  0  0  0  0
 22 23  1  0  0  0  0
 22 25  1  0  0  0  0
 23 24  1  0  0  0  0
 25 26  2  0  0  0  0
 26 27  1  0  0  0  0
M  END
>  <CHROM.1>
-175.77832685,148.42129903,169.32158904,-172.79051225,-40.40565729,176.40062452
-151.98579753,13.46742656,-9.57833738,-21.91982291,0.14889715,0.84358412
1.35912102

>  <Name>
ligand

>  <RI>
0

>  <Rbt.Current_Directory>
/home/itssahil/PROJECTS/Mol_Feturizer/New_Systems/rnas/3E5F

>  <Rbt.Executable>
rbdock ($Id: //depot/dev/client3/rdock/2013.1/src/exe/rbdock.cxx#4 $)

>  <Rbt.Library>
libRbt.so (2013.1, Build901 2013/11/27)

>  <Rbt.Parameter_File>
/export/apps/rDock/src/rDock_2013.1_src/data/scripts/dock_solv.prm

>  <Rbt.Receptor>
prm/blind_docking_40.prm

>  <SCORE>
-20.2765

>  <SCORE.INTER>
-19.9833

>  <SCORE.INTER.CONST>
1

>  <SCORE.INTER.POLAR>
0

>  <SCORE.INTER.ROT>
7

>  <SCORE.INTER.SOLV>
8.49571

>  <SCORE.INTER.VDW>
-24.4208

>  <SCORE.INTER.norm>
-0.740123

>  <SCORE.INTRA>
-0.293175

>  <SCORE.INTRA.DIHEDRAL>
-0.178867

>  <SCORE.INTRA.DIHEDRAL.0>
4.89803

>  <SCORE.INTRA.POLAR>
0

>  <SCORE.INTRA.POLAR.0>
0

>  <SCORE.INTRA.REPUL>
0

>  <SCORE.INTRA.REPUL.0>
0

>  <SCORE.INTRA.SOLV>
0.192396

>  <SCORE.INTRA.SOLV.lig_0>
-48.5832

>  <SCORE.INTRA.VDW>
-0.29994

>  <SCORE.INTRA.VDW.0>
-2.39056

>  <SCORE.INTRA.norm>
-0.0108583

>  <SCORE.RESTR>
0

>  <SCORE.RESTR.CAVITY>
0

>  <SCORE.RESTR.norm>
0

>  <SCORE.SYSTEM>
0

>  <SCORE.SYSTEM.CONST>
0

>  <SCORE.SYSTEM.DIHEDRAL>
0

>  <SCORE.SYSTEM.SOLV>
0

>  <SCORE.SYSTEM.norm>
0

>  <SCORE.heavy>
27

>  <SCORE.norm>
-0.750982

>  <RMSD>
5.488

$$$$
ligand
 OpenBabel11021811473D
libRbt.so/2013.1/901 2013/11/27
 27 29  0  0  0  0  0  0  0  0999 V2000
   15.9191   -6.1132  -19.8076 N   0  0  0  0  0  0  0  0  0  0  0  0
   16.6909   -5.5920  -20.9454 C   0  0  2  0  0  0  0  0  0  0  0  0
   16.0216   -4.3290  -21.4959 C   0  0  0  0  0  0  0  0  0  0  0  0
   14.7731   -4.2808  -21.4447 O   0  0  0  0  0  0  0  0  0  0  0  0
   16.7346   -6.6580  -22.0416 C   0  0  0  0  0  0  0  0  0  0  0  0
   15.3390   -7.1827  -22.3885 C   0  0  0  0  0  0  0  0  0  0  0  0
   15.7258   -7.5308  -25.1813 C   0  0  0  0  0  0  0  0  0  0  0  0
   15.4335   -8.5345  -23.6605 Se  0  0  2  0  0  0  0  0  0  0  0  0
   13.7051   -9.1561  -23.9478 C   0  0  0  0  0  0  0  0  0  0  0  0
   13.5823  -10.6787  -23.8758 C   0  0  1  0  0  0  0  0  0  0  0  0
   13.9094  -11.0967  -22.5394 O   0  0  0  0  0  0  0  0  0  0  0  0
   12.1011  -11.0222  -24.0376 C   0  0  1  0  0  0  0  0  0  0  0  0
   11.9485  -12.4365  -24.1681 O   0  0  0  0  0  0  0  0  0  0  0  0
   11.5928  -10.5674  -22.6718 C   0  0  1  0  0  0  0  0  0  0  0  0
   10.3597  -11.2335  -22.3945 O   0  0  0  0  0  0  0  0  0  0  0  0
   12.6876  -11.1575  -21.7819 C   0  0  2  0  0  0  0  0  0  0  0  0
   16.7708   -3.4439  -21.9644 O   0  0  0  0  0  0  0  0  0  0  0  0
   10.2962   -9.5771  -17.4892 N   0  0  0  0  0  0  0  0  0  0  0  0
    9.8082  -10.2758  -18.4997 C   0  0  0  0  0  0  0  0  0  0  0  0
   10.5524  -10.6095  -19.5397 N   0  0  0  0  0  0  0  0  0  0  0  0
   11.8427  -10.2471  -19.5998 C   0  0  0  0  0  0  0  0  0  0  0  0
   12.3903   -9.5112  -18.5583 C   0  0  0  0  0  0  0  0  0  0  0  0
   11.5741   -9.1767  -17.4842 C   0  0  0  0  0  0  0  0  0  0  0  0
   12.0520   -8.4399  -16.4862 N   0  0  0  0  0  0  0  0  0  0  0  0
   13.6644   -9.2802  -18.8544 N   0  0  0  0  0  0  0  0  0  0  0  0
   13.9117   -9.8459  -20.0336 C   0  0  0  0  0  0  0  0  0  0  0  0
   12.8083  -10.4364  -20.4932 N   0  0  0  0  0  0  0  0  0  0  0  0
  2  1  1  1  0  0  0
  2  5  1  0  0  0  0
  2  3  1  0  0  0  0
  3 17  1  0  0  0  0
  3  4  1  0  0  0  0
  5  6  1  0  0  0  0
  7  8  1  0  0  0  0
  8  6  1  1  0  0  0
  8  9  1  0  0  0  0
 10  9  1  1  0  0  0
 10 11  1  0  0  0  0
 10 12  1  0  0  0  0
 11 16  1  0  0  0  0
 12 13  1  1  0  0  0
 12 14  1  0  0  0  0
 14 15  1  1  0  0  0
 14 16  1  0  0  0  0
 16 27  1  1  0  0  0
 18 23  2  0  0  0  0
 18 19  1  0  0  0  0
 19 20  2  0  0  0  0
 20 21  1  0  0  0  0
 21 22  2  0  0  0  0
 21 27  1  0  0  0  0
 22 23  1  0  0  0  0
 22 25  1  0  0  0  0
 23 24  1  0  0  0  0
 25 26  2  0  0  0  0
 26 27  1  0  0  0  0
M  END
>  <CHROM.1>
51.53819062,-33.74269230,-177.15975444,-76.96791365,-130.47522576,63.80756352
176.26897452,13.74683252,-8.76259724,-21.60833363,-0.00994231,0.82616126
1.01952626

>  <Name>
ligand

>  <RI>
0

>  <Rbt.Current_Directory>
/home/itssahil/PROJECTS/Mol_Feturizer/New_Systems/rnas/3E5F

>  <Rbt.Executable>
rbdock ($Id: //depot/dev/client3/rdock/2013.1/src/exe/rbdock.cxx#4 $)

>  <Rbt.Library>
libRbt.so (2013.1, Build901 2013/11/27)

>  <Rbt.Parameter_File>
/export/apps/rDock/src/rDock_2013.1_src/data/scripts/dock_solv.prm

>  <Rbt.Receptor>
prm/pocket_docking_5.prm

>  <SCORE>
-16.7712

>  <SCORE.INTER>
-17.815

>  <SCORE.INTER.CONST>
1

>  <SCORE.INTER.POLAR>
0

>  <SCORE.INTER.ROT>
7

>  <SCORE.INTER.SOLV>
7.66044

>  <SCORE.INTER.VDW>
-22.6968

>  <SCORE.INTER.norm>
-0.659814

>  <SCORE.INTRA>
1.04378

>  <SCORE.INTRA.DIHEDRAL>
0.759643

>  <SCORE.INTRA.DIHEDRAL.0>
4.89803

>  <SCORE.INTRA.POLAR>
0

>  <SCORE.INTRA.POLAR.0>
0

>  <SCORE.INTRA.REPUL>
0

>  <SCORE.INTRA.REPUL.0>
0

>  <SCORE.INTRA.SOLV>
0.888406

>  <SCORE.INTRA.SOLV.lig_0>
-48.5832

>  <SCORE.INTRA.VDW>
0.219754

>  <SCORE.INTRA.VDW.0>
-2.39056

>  <SCORE.INTRA.norm>
0.0386585

>  <SCORE.RESTR>
0

>  <SCORE.RESTR.CAVITY>
0

>  <SCORE.RESTR.norm>
0

>  <SCORE.SYSTEM>
0

>  <SCORE.SYSTEM.CONST>
0

>  <SCORE.SYSTEM.DIHEDRAL>
0

>  <SCORE.SYSTEM.SOLV>
0

>  <SCORE.SYSTEM.norm>
0

>  <SCORE.heavy>
27

>  <SCORE.norm>
-0.621155

>  <RMSD>
5.493

$$$$
ligand
 OpenBabel11021811473D
libRbt.so/2013.1/901 2013/11/27
 27 29  0  0  0  0  0  0  0  0999 V2000
   16.7491   -4.9274  -21.3506 N   0  0  0  0  0  0  0  0  0  0  0  0
   15.9074   -5.8900  -20.6247 C   0  0  2  0  0  0  0  0  0  0  0  0
   16.0151   -5.6447  -19.1166 C   0  0  0  0  0  0  0  0  0  0  0  0
   17.1634   -5.4810  -18.6495 O   0  0  0  0  0  0  0  0  0  0  0  0
   16.3921   -7.3059  -20.9410 C   0  0  0  0  0  0  0  0  0  0  0  0
   15.4479   -8.3741  -20.3834 C   0  0  0  0  0  0  0  0  0  0  0  0
   12.8888   -7.1430  -20.3102 C   0  0  0  0  0  0  0  0  0  0  0  0
   13.8325   -8.3798  -21.3028 Se  0  0  2  0  0  0  0  0  0  0  0  0
   12.9487   -9.9581  -20.8739 C   0  0  0  0  0  0  0  0  0  0  0  0
   13.5648  -11.1996  -21.5201 C   0  0  1  0  0  0  0  0  0  0  0  0
   12.8227  -12.3520  -21.0854 O   0  0  0  0  0  0  0  0  0  0  0  0
   13.2954  -11.1096  -23.0227 C   0  0  1  0  0  0  0  0  0  0  0  0
   14.0101  -12.1440  -23.7006 O   0  0  0  0  0  0  0  0  0  0  0  0
   11.8012  -11.4224  -23.0235 C   0  0  1  0  0  0  0  0  0  0  0  0
   11.4287  -11.8859  -24.3225 O   0  0  0  0  0  0  0  0  0  0  0  0
   11.7863  -12.6028  -22.0513 C   0  0  2  0  0  0  0  0  0  0  0  0
   14.9493   -5.6356  -18.4622 O   0  0  0  0  0  0  0  0  0  0  0  0
    8.3164  -10.6555  -18.7631 N   0  0  0  0  0  0  0  0  0  0  0  0
    9.4846  -10.1550  -19.1269 C   0  0  0  0  0  0  0  0  0  0  0  0
   10.2702  -10.7759  -19.9894 N   0  0  0  0  0  0  0  0  0  0  0  0
    9.8992  -11.9460  -20.5308 C   0  0  0  0  0  0  0  0  0  0  0  0
    8.6802  -12.5038  -20.1717 C   0  0  0  0  0  0  0  0  0  0  0  0
    7.8842  -11.8220  -19.2588 C   0  0  0  0  0  0  0  0  0  0  0  0
    6.7277  -12.3432  -18.8610 N   0  0  0  0  0  0  0  0  0  0  0  0
    8.5492  -13.6471  -20.8351 N   0  0  0  0  0  0  0  0  0  0  0  0
    9.6396  -13.8055  -21.5817 C   0  0  0  0  0  0  0  0  0  0  0  0
   10.4654  -12.7745  -21.4021 N   0  0  0  0  0  0  0  0  0  0  0  0
  2  1  1  6  0  0  0
  2  5  1  0  0  0  0
  2  3  1  0  0  0  0
  3 17  1  0  0  0  0
  3  4  1  0  0  0  0
  5  6  1  0  0  0  0
  7  8  1  0  0  0  0
  8  6  1  1  0  0  0
  8  9  1  0  0  0  0
 10  9  1  1  0  0  0
 10 11  1  0  0  0  0
 10 12  1  0  0  0  0
 11 16  1  0  0  0  0
 12 13  1  6  0  0  0
 12 14  1  0  0  0  0
 14 15  1  6  0  0  0
 14 16  1  0  0  0  0
 16 27  1  1  0  0  0
 18 23  2  0  0  0  0
 18 19  1  0  0  0  0
 19 20  2  0  0  0  0
 20 21  1  0  0  0  0
 21 22  2  0  0  0  0
 21 27  1  0  0  0  0
 22 23  1  0  0  0  0
 22 25  1  0  0  0  0
 23 24  1  0  0  0  0
 25 26  2  0  0  0  0
 26 27  1  0  0  0  0
M  END
>  <CHROM.1>
-171.91560291,-46.04657027,69.38946824,-88.78513250,-72.73005119,178.36455157
51.92178006,12.57675371,-9.76952131,-20.88157461,-0.56735065,-0.53090205
-2.38759746

>  <Name>
ligand

>  <RI>
0

>  <Rbt.Current_Directory>
/home/itssahil/PROJECTS/Mol_Feturizer/New_Systems/rnas/3E5F

>  <Rbt.Executable>
rbdock ($Id: //depot/dev/client3/rdock/2013.1/src/exe/rbdock.cxx#4 $)

>  <Rbt.Library>
libRbt.so (2013.1, Build901 2013/11/27)

>  <Rbt.Parameter_File>
/export/apps/rDock/src/rDock_2013.1_src/data/scripts/dock_solv.prm

>  <Rbt.Receptor>
prm/blind_docking_100.prm

>  <SCORE>
-12.7899

>  <SCORE.INTER>
-11.9833

>  <SCORE.INTER.CONST>
1

>  <SCORE.INTER.POLAR>
0

>  <SCORE.INTER.ROT>
7

>  <SCORE.INTER.SOLV>
6.98068

>  <SCORE.INTER.VDW>
-18.5825

>  <SCORE.INTER.norm>
-0.443828

>  <SCORE.INTRA>
-0.806514

>  <SCORE.INTRA.DIHEDRAL>
-0.669741

>  <SCORE.INTRA.DIHEDRAL.0>
4.89803

>  <SCORE.INTRA.POLAR>
0

>  <SCORE.INTRA.POLAR.0>
0

>  <SCORE.INTRA.REPUL>
0

>  <SCORE.INTRA.REPUL.0>
0

>  <SCORE.INTRA.SOLV>
0.16294

>  <SCORE.INTRA.SOLV.lig_0>
-48.5832

>  <SCORE.INTRA.VDW>
-0.553114

>  <SCORE.INTRA.VDW.0>
-2.39056

>  <SCORE.INTRA.norm>
-0.0298709

>  <SCORE.RESTR>
0

>  <SCORE.RESTR.CAVITY>
0

>  <SCORE.RESTR.norm>
0

>  <SCORE.SYSTEM>
0

>  <SCORE.SYSTEM.CONST>
0

>  <SCORE.SYSTEM.DIHEDRAL>
0

>  <SCORE.SYSTEM.SOLV>
0

>  <SCORE.SYSTEM.norm>
0

>  <SCORE.heavy>
27

>  <SCORE.norm>
-0.473699

>  <RMSD>
5.495

$$$$
ligand
 OpenBabel11021811473D
libRbt.so/2013.1/901 2013/11/27
 27 29  0  0  0  0  0  0  0  0999 V2000
   14.4404   -4.3198  -20.5087 N   0  0  0  0  0  0  0  0  0  0  0  0
   15.6019   -5.1750  -20.7941 C   0  0  2  0  0  0  0  0  0  0  0  0
   16.7476   -4.3289  -21.3578 C   0  0  0  0  0  0  0  0  0  0  0  0
   16.4441   -3.2214  -21.8527 O   0  0  0  0  0  0  0  0  0  0  0  0
   15.1973   -6.2279  -21.8273 C   0  0  0  0  0  0  0  0  0  0  0  0
   16.2112   -7.3720  -21.9087 C   0  0  0  0  0  0  0  0  0  0  0  0
   15.7099   -7.4611  -24.7035 C   0  0  0  0  0  0  0  0  0  0  0  0
   15.7426   -8.5830  -23.2386 Se  0  0  2  0  0  0  0  0  0  0  0  0
   13.9381   -8.9772  -23.0276 C   0  0  0  0  0  0  0  0  0  0  0  0
   13.4635   -8.9138  -21.5753 C   0  0  1  0  0  0  0  0  0  0  0  0
   12.0809   -9.3067  -21.5331 O   0  0  0  0  0  0  0  0  0  0  0  0
   14.2017  -10.0118  -20.8087 C   0  0  1  0  0  0  0  0  0  0  0  0
   13.9411   -9.8785  -19.4106 O   0  0  0  0  0  0  0  0  0  0  0  0
   13.4691  -11.2320  -21.3610 C   0  0  1  0  0  0  0  0  0  0  0  0
   13.6277  -12.3173  -20.4455 O   0  0  0  0  0  0  0  0  0  0  0  0
   12.0293  -10.7227  -21.2836 C   0  0  2  0  0  0  0  0  0  0  0  0
   17.8997   -4.8108  -21.2906 O   0  0  0  0  0  0  0  0  0  0  0  0
    8.8283  -14.6868  -22.1108 N   0  0  0  0  0  0  0  0  0  0  0  0
    9.4846  -14.3683  -21.0084 C   0  0  0  0  0  0  0  0  0  0  0  0
   10.2745  -13.3104  -20.9489 N   0  0  0  0  0  0  0  0  0  0  0  0
   10.4331  -12.5162  -22.0185 C   0  0  0  0  0  0  0  0  0  0  0  0
    9.7616  -12.8194  -23.1946 C   0  0  0  0  0  0  0  0  0  0  0  0
    8.9433  -13.9426  -23.2182 C   0  0  0  0  0  0  0  0  0  0  0  0
    8.3142  -14.2873  -24.3374 N   0  0  0  0  0  0  0  0  0  0  0  0
   10.0831  -11.8945  -24.0922 N   0  0  0  0  0  0  0  0  0  0  0  0
   10.9227  -11.0428  -23.5082 C   0  0  0  0  0  0  0  0  0  0  0  0
   11.1402  -11.4142  -22.2464 N   0  0  0  0  0  0  0  0  0  0  0  0
  2  1  1  6  0  0  0
  2  5  1  0  0  0  0
  2  3  1  0  0  0  0
  3 17  1  0  0  0  0
  3  4  1  0  0  0  0
  5  6  1  0  0  0  0
  7  8  1  0  0  0  0
  8  6  1  1  0  0  0
  8  9  1  0  0  0  0
 10  9  1  6  0  0  0
 10 11  1  0  0  0  0
 10 12  1  0  0  0  0
 11 16  1  0  0  0  0
 12 13  1  1  0  0  0
 12 14  1  0  0  0  0
 14 15  1  1  0  0  0
 14 16  1  0  0  0  0
 16 27  1  6  0  0  0
 18 23  2  0  0  0  0
 18 19  1  0  0  0  0
 19 20  2  0  0  0  0
 20 21  1  0  0  0  0
 21 22  2  0  0  0  0
 21 27  1  0  0  0  0
 22 23  1  0  0  0  0
 22 25  1  0  0  0  0
 23 24  1  0  0  0  0
 25 26  2  0  0  0  0
 26 27  1  0  0  0  0
M  END
>  <CHROM.1>
-164.91456248,-20.54079774,-176.75391992,57.99998256,-30.98465162,-176.89262123
-149.79005263,13.43372329,-9.48359997,-22.15190024,0.20453132,0.85187578
1.36931019

>  <Name>
ligand

>  <RI>
0

>  <Rbt.Current_Directory>
/home/itssahil/PROJECTS/Mol_Feturizer/New_Systems/rnas/3E5F

>  <Rbt.Executable>
rbdock ($Id: //depot/dev/client3/rdock/2013.1/src/exe/rbdock.cxx#4 $)

>  <Rbt.Library>
libRbt.so (2013.1, Build901 2013/11/27)

>  <Rbt.Parameter_File>
/export/apps/rDock/src/rDock_2013.1_src/data/scripts/dock_solv.prm

>  <Rbt.Receptor>
prm/blind_docking_40.prm

>  <SCORE>
-17.9305

>  <SCORE.INTER>
-18.898

>  <SCORE.INTER.CONST>
1

>  <SCORE.INTER.POLAR>
0

>  <SCORE.INTER.ROT>
7

>  <SCORE.INTER.SOLV>
9.7105

>  <SCORE.INTER.VDW>
-24.1021

>  <SCORE.INTER.norm>
-0.699925

>  <SCORE.INTRA>
0.967464

>  <SCORE.INTRA.DIHEDRAL>
0.485864

>  <SCORE.INTRA.DIHEDRAL.0>
4.89803

>  <SCORE.INTRA.POLAR>
0

>  <SCORE.INTRA.POLAR.0>
0

>  <SCORE.INTRA.REPUL>
0

>  <SCORE.INTRA.REPUL.0>
0

>  <SCORE.INTRA.SOLV>
0.151015

>  <SCORE.INTRA.SOLV.lig_0>
-48.5832

>  <SCORE.INTRA.VDW>
0.649025

>  <SCORE.INTRA.VDW.0>
-2.39056

>  <SCORE.INTRA.norm>
0.035832

>  <SCORE.RESTR>
0

>  <SCORE.RESTR.CAVITY>
0

>  <SCORE.RESTR.norm>
0

>  <SCORE.SYSTEM>
0

>  <SCORE.SYSTEM.CONST>
0

>  <SCORE.SYSTEM.DIHEDRAL>
0

>  <SCORE.SYSTEM.SOLV>
0

>  <SCORE.SYSTEM.norm>
0

>  <SCORE.heavy>
27

>  <SCORE.norm>
-0.664093

>  <RMSD>
5.497

$$$$
ligand
 OpenBabel11021811473D
libRbt.so/2013.1/901 2013/11/27
 27 29  0  0  0  0  0  0  0  0999 V2000
   18.1573   -7.0148  -20.6839 N   0  0  0  0  0  0  0  0  0  0  0  0
   16.9346   -7.0309  -21.5004 C   0  0  2  0  0  0  0  0  0  0  0  0
   16.3115   -5.6321  -21.5355 C   0  0  0  0  0  0  0  0  0  0  0  0
   16.3669   -4.9602  -20.4824 O   0  0  0  0  0  0  0  0  0  0  0  0
   15.9386   -8.0109  -20.8781 C   0  0  0  0  0  0  0  0  0  0  0  0
   14.6837   -8.1785  -21.7386 C   0  0  0  0  0  0  0  0  0  0  0  0
   15.4516   -7.7027  -24.4320 C   0  0  0  0  0  0  0  0  0  0  0  0
   15.0676   -9.1094  -23.3009 Se  0  0  2  0  0  0  0  0  0  0  0  0
   13.4571   -9.7226  -23.9983 C   0  0  0  0  0  0  0  0  0  0  0  0
   13.3024  -11.2428  -23.9362 C   0  0  1  0  0  0  0  0  0  0  0  0
   13.5816  -11.6718  -22.5925 O   0  0  0  0  0  0  0  0  0  0  0  0
   11.8202  -11.5565  -24.1431 C   0  0  1  0  0  0  0  0  0  0  0  0
   11.6439  -12.9670  -24.2838 O   0  0  0  0  0  0  0  0  0  0  0  0
   11.2808  -11.0966  -22.7910 C   0  0  1  0  0  0  0  0  0  0  0  0
   10.0272  -11.7393  -22.5529 O   0  0  0  0  0  0  0  0  0  0  0  0
   12.3370  -11.7113  -21.8716 C   0  0  2  0  0  0  0  0  0  0  0  0
   15.7851   -5.2685  -22.6102 O   0  0  0  0  0  0  0  0  0  0  0  0
    9.7858   -9.6960  -17.8623 N   0  0  0  0  0  0  0  0  0  0  0  0
    9.3026  -10.3245  -18.9202 C   0  0  0  0  0  0  0  0  0  0  0  0
   10.0903  -10.7905  -19.8736 N   0  0  0  0  0  0  0  0  0  0  0  0
   11.4211  -10.6406  -19.7933 C   0  0  0  0  0  0  0  0  0  0  0  0
   11.9654   -9.9845  -18.6982 C   0  0  0  0  0  0  0  0  0  0  0  0
   11.1035   -9.5055  -17.7186 C   0  0  0  0  0  0  0  0  0  0  0  0
   11.5842   -8.8381  -16.6743 N   0  0  0  0  0  0  0  0  0  0  0  0
   13.2844   -9.9656  -18.8544 N   0  0  0  0  0  0  0  0  0  0  0  0
   13.5621  -10.5834  -20.0001 C   0  0  0  0  0  0  0  0  0  0  0  0
   12.4336  -10.9971  -20.5769 N   0  0  0  0  0  0  0  0  0  0  0  0
  2  1  1  1  0  0  0
  2  5  1  0  0  0  0
  2  3  1  0  0  0  0
  3 17  1  0  0  0  0
  3  4  1  0  0  0  0
  5  6  1  0  0  0  0
  7  8  1  0  0  0  0
  8  6  1  1  0  0  0
  8  9  1  0  0  0  0
 10  9  1  1  0  0  0
 10 11  1  0  0  0  0
 10 12  1  0  0  0  0
 11 16  1  0  0  0  0
 12 13  1  1  0  0  0
 12 14  1  0  0  0  0
 14 15  1  1  0  0  0
 14 16  1  0  0  0  0
 16 27  1  1  0  0  0
 18 23  2  0  0  0  0
 18 19  1  0  0  0  0
 19 20  2  0  0  0  0
 20 21  1  0  0  0  0
 21 22  2  0  0  0  0
 21 27  1  0  0  0  0
 22 23  1  0  0  0  0
 22 25  1  0  0  0  0
 23 24  1  0  0  0  0
 25 26  2  0  0  0  0
 26 27  1  0  0  0  0
M  END
>  <CHROM.1>
-174.98074736,-37.46073683,70.42947099,-91.70564647,-111.63241463,51.08363882
166.93510710,13.52426432,-9.40558440,-21.57588949,0.01640834,0.68509955,1.08937518

>  <Name>
ligand

>  <RI>
0

>  <Rbt.Current_Directory>
/home/itssahil/PROJECTS/Mol_Feturizer/New_Systems/rnas/3E5F

>  <Rbt.Executable>
rbdock ($Id: //depot/dev/client3/rdock/2013.1/src/exe/rbdock.cxx#4 $)

>  <Rbt.Library>
libRbt.so (2013.1, Build901 2013/11/27)

>  <Rbt.Parameter_File>
/export/apps/rDock/src/rDock_2013.1_src/data/scripts/dock_solv.prm

>  <Rbt.Receptor>
prm/pocket_docking_5.prm

>  <SCORE>
-16.638

>  <SCORE.INTER>
-16.5825

>  <SCORE.INTER.CONST>
1

>  <SCORE.INTER.POLAR>
0

>  <SCORE.INTER.ROT>
7

>  <SCORE.INTER.SOLV>
10.5135

>  <SCORE.INTER.VDW>
-22.8262

>  <SCORE.INTER.norm>
-0.614165

>  <SCORE.INTRA>
-0.0555798

>  <SCORE.INTRA.DIHEDRAL>
1.45489

>  <SCORE.INTRA.DIHEDRAL.0>
4.89803

>  <SCORE.INTRA.POLAR>
0

>  <SCORE.INTRA.POLAR.0>
0

>  <SCORE.INTRA.REPUL>
0

>  <SCORE.INTRA.REPUL.0>
0

>  <SCORE.INTRA.SOLV>
0.296522

>  <SCORE.INTRA.SOLV.lig_0>
-48.5832

>  <SCORE.INTRA.VDW>
-0.931286

>  <SCORE.INTRA.VDW.0>
-2.39056

>  <SCORE.INTRA.norm>
-0.00205851

>  <SCORE.RESTR>
0

>  <SCORE.RESTR.CAVITY>
0

>  <SCORE.RESTR.norm>
0

>  <SCORE.SYSTEM>
0

>  <SCORE.SYSTEM.CONST>
0

>  <SCORE.SYSTEM.DIHEDRAL>
0

>  <SCORE.SYSTEM.SOLV>
0

>  <SCORE.SYSTEM.norm>
0

>  <SCORE.heavy>
27

>  <SCORE.norm>
-0.616224

>  <RMSD>
5.502

$$$$
ligand
 OpenBabel11021811473D
libRbt.so/2013.1/901 2013/11/27
 27 29  0  0  0  0  0  0  0  0999 V2000
   17.2257   -6.0779  -19.3688 N   0  0  0  0  0  0  0  0  0  0  0  0
   16.7477   -5.8066  -20.7325 C   0  0  2  0  0  0  0  0  0  0  0  0
   15.5657   -4.8334  -20.6877 C   0  0  0  0  0  0  0  0  0  0  0  0
   14.6198   -5.1251  -19.9236 O   0  0  0  0  0  0  0  0  0  0  0  0
   16.2935   -7.1222  -21.3670 C   0  0  0  0  0  0  0  0  0  0  0  0
   15.8565   -6.9373  -22.8224 C   0  0  0  0  0  0  0  0  0  0  0  0
   15.3396   -8.0348  -25.3912 C   0  0  0  0  0  0  0  0  0  0  0  0
   15.5582   -8.5789  -23.6414 Se  0  0  2  0  0  0  0  0  0  0  0  0
   13.8359   -9.1214  -23.1993 C   0  0  0  0  0  0  0  0  0  0  0  0
   13.4682   -8.8610  -21.7379 C   0  0  1  0  0  0  0  0  0  0  0  0
   12.1101   -9.2850  -21.5302 O   0  0  0  0  0  0  0  0  0  0  0  0
   14.3062   -9.8125  -20.8832 C   0  0  1  0  0  0  0  0  0  0  0  0
   14.1450   -9.4844  -19.5023 O   0  0  0  0  0  0  0  0  0  0  0  0
   13.5858  -11.1218  -21.1950 C   0  0  1  0  0  0  0  0  0  0  0  0
   13.8566  -12.0565  -20.1490 O   0  0  0  0  0  0  0  0  0  0  0  0
   12.1358  -10.6503  -21.0771 C   0  0  2  0  0  0  0  0  0  0  0  0
   15.6286   -3.8247  -21.4245 O   0  0  0  0  0  0  0  0  0  0  0  0
    9.0085  -14.7569  -21.0558 N   0  0  0  0  0  0  0  0  0  0  0  0
    9.7254  -14.2567  -20.0642 C   0  0  0  0  0  0  0  0  0  0  0  0
   10.4853  -13.1873  -20.2244 N   0  0  0  0  0  0  0  0  0  0  0  0
   10.5498  -12.5678  -21.4126 C   0  0  0  0  0  0  0  0  0  0  0  0
    9.8124  -13.0648  -22.4782 C   0  0  0  0  0  0  0  0  0  0  0  0
    9.0285  -14.1936  -22.2706 C   0  0  0  0  0  0  0  0  0  0  0  0
    8.3384  -14.7218  -23.2765 N   0  0  0  0  0  0  0  0  0  0  0  0
   10.0467  -12.2860  -23.5284 N   0  0  0  0  0  0  0  0  0  0  0  0
   10.8966  -11.3369  -23.1431 C   0  0  0  0  0  0  0  0  0  0  0  0
   11.2070  -11.5015  -21.8571 N   0  0  0  0  0  0  0  0  0  0  0  0
  2  1  1  1  0  0  0
  2  5  1  0  0  0  0
  2  3  1  0  0  0  0
  3 17  1  0  0  0  0
  3  4  1  0  0  0  0
  5  6  1  0  0  0  0
  7  8  1  0  0  0  0
  8  6  1  1  0  0  0
  8  9  1  0  0  0  0
 10  9  1  6  0  0  0
 10 11  1  0  0  0  0
 10 12  1  0  0  0  0
 11 16  1  0  0  0  0
 12 13  1  1  0  0  0
 12 14  1  0  0  0  0
 14 15  1  1  0  0  0
 14 16  1  0  0  0  0
 16 27  1  6  0  0  0
 18 23  2  0  0  0  0
 18 19  1  0  0  0  0
 19 20  2  0  0  0  0
 20 21  1  0  0  0  0
 21 22  2  0  0  0  0
 21 27  1  0  0  0  0
 22 23  1  0  0  0  0
 22 25  1  0  0  0  0
 23 24  1  0  0  0  0
 25 26  2  0  0  0  0
 26 27  1  0  0  0  0
M  END
>  <CHROM.1>
-176.64212984,-51.77287580,171.39621644,-170.99913316,-41.57224344,178.38512283
-148.72361666,13.40312079,-9.65441522,-21.91443016,0.17602710,0.84916009
1.33868789

>  <Name>
ligand

>  <RI>
0

>  <Rbt.Current_Directory>
/home/itssahil/PROJECTS/Mol_Feturizer/New_Systems/rnas/3E5F

>  <Rbt.Executable>
rbdock ($Id: //depot/dev/client3/rdock/2013.1/src/exe/rbdock.cxx#4 $)

>  <Rbt.Library>
libRbt.so (2013.1, Build901 2013/11/27)

>  <Rbt.Parameter_File>
/export/apps/rDock/src/rDock_2013.1_src/data/scripts/dock_solv.prm

>  <Rbt.Receptor>
prm/blind_docking_40.prm

>  <SCORE>
-20.246

>  <SCORE.INTER>
-19.679

>  <SCORE.INTER.CONST>
1

>  <SCORE.INTER.POLAR>
0

>  <SCORE.INTER.ROT>
7

>  <SCORE.INTER.SOLV>
8.25156

>  <SCORE.INTER.VDW>
-24.1365

>  <SCORE.INTER.norm>
-0.728851

>  <SCORE.INTRA>
-0.567065

>  <SCORE.INTRA.DIHEDRAL>
-0.398968

>  <SCORE.INTRA.DIHEDRAL.0>
4.89803

>  <SCORE.INTRA.POLAR>
0

>  <SCORE.INTRA.POLAR.0>
0

>  <SCORE.INTRA.REPUL>
0

>  <SCORE.INTRA.REPUL.0>
0

>  <SCORE.INTRA.SOLV>
0.164362

>  <SCORE.INTRA.SOLV.lig_0>
-48.5832

>  <SCORE.INTRA.VDW>
-0.449762

>  <SCORE.INTRA.VDW.0>
-2.39056

>  <SCORE.INTRA.norm>
-0.0210024

>  <SCORE.RESTR>
0

>  <SCORE.RESTR.CAVITY>
0

>  <SCORE.RESTR.norm>
0

>  <SCORE.SYSTEM>
0

>  <SCORE.SYSTEM.CONST>
0

>  <SCORE.SYSTEM.DIHEDRAL>
0

>  <SCORE.SYSTEM.SOLV>
0

>  <SCORE.SYSTEM.norm>
0

>  <SCORE.heavy>
27

>  <SCORE.norm>
-0.749853

>  <RMSD>
5.504

$$$$
ligand
 OpenBabel11021811473D
libRbt.so/2013.1/901 2013/11/27
 27 29  0  0  0  0  0  0  0  0999 V2000
   17.8596   -7.5213  -18.6137 N   0  0  0  0  0  0  0  0  0  0  0  0
   17.5409   -7.2212  -20.0173 C   0  0  2  0  0  0  0  0  0  0  0  0
   18.4883   -6.1412  -20.5486 C   0  0  0  0  0  0  0  0  0  0  0  0
   18.7120   -5.1651  -19.7998 O   0  0  0  0  0  0  0  0  0  0  0  0
   16.1006   -6.7124  -20.0984 C   0  0  0  0  0  0  0  0  0  0  0  0
   15.0876   -7.7906  -19.7048 C   0  0  0  0  0  0  0  0  0  0  0  0
   14.7009   -8.4905  -22.4308 C   0  0  0  0  0  0  0  0  0  0  0  0
   15.2097   -9.2621  -20.8336 Se  0  0  2  0  0  0  0  0  0  0  0  0
   13.7595  -10.3678  -20.4724 C   0  0  0  0  0  0  0  0  0  0  0  0
   13.8432  -11.7313  -21.1597 C   0  0  1  0  0  0  0  0  0  0  0  0
   12.7977  -12.5677  -20.6353 O   0  0  0  0  0  0  0  0  0  0  0  0
   13.4722  -11.5223  -22.6283 C   0  0  1  0  0  0  0  0  0  0  0  0
   13.7160  -12.7246  -23.3601 O   0  0  0  0  0  0  0  0  0  0  0  0
   11.9694  -11.3028  -22.4732 C   0  0  1  0  0  0  0  0  0  0  0  0
   11.3322  -11.5825  -23.7209 O   0  0  0  0  0  0  0  0  0  0  0  0
   11.6471  -12.4268  -21.4875 C   0  0  2  0  0  0  0  0  0  0  0  0
   18.9606   -6.3096  -21.6945 O   0  0  0  0  0  0  0  0  0  0  0  0
    9.2315   -9.1963  -18.2666 N   0  0  0  0  0  0  0  0  0  0  0  0
   10.4320   -9.0821  -18.8083 C   0  0  0  0  0  0  0  0  0  0  0  0
   10.9184  -10.0009  -19.6243 N   0  0  0  0  0  0  0  0  0  0  0  0
   10.1975  -11.0893  -19.9337 C   0  0  0  0  0  0  0  0  0  0  0  0
    8.9332  -11.2451  -19.3830 C   0  0  0  0  0  0  0  0  0  0  0  0
    8.4588  -10.2587  -18.5264 C   0  0  0  0  0  0  0  0  0  0  0  0
    7.2686  -10.3913  -17.9491 N   0  0  0  0  0  0  0  0  0  0  0  0
    8.4337  -12.3888  -19.8378 N   0  0  0  0  0  0  0  0  0  0  0  0
    9.3441  -12.9332  -20.6418 C   0  0  0  0  0  0  0  0  0  0  0  0
   10.4198  -12.1482  -20.7054 N   0  0  0  0  0  0  0  0  0  0  0  0
  2  1  1  1  0  0  0
  2  5  1  0  0  0  0
  2  3  1  0  0  0  0
  3 17  1  0  0  0  0
  3  4  1  0  0  0  0
  5  6  1  0  0  0  0
  7  8  1  0  0  0  0
  8  6  1  1  0  0  0
  8  9  1  0  0  0  0
 10  9  1  1  0  0  0
 10 11  1  0  0  0  0
 10 12  1  0  0  0  0
 11 16  1  0  0  0  0
 12 13  1  6  0  0  0
 12 14  1  0  0  0  0
 14 15  1  6  0  0  0
 14 16  1  0  0  0  0
 16 27  1  1  0  0  0
 18 23  2  0  0  0  0
 18 19  1  0  0  0  0
 19 20  2  0  0  0  0
 20 21  1  0  0  0  0
 21 22  2  0  0  0  0
 21 27  1  0  0  0  0
 22 23  1  0  0  0  0
 22 25  1  0  0  0  0
 23 24  1  0  0  0  0
 25 26  2  0  0  0  0
 26 27  1  0  0  0  0
M  END
>  <CHROM.1>
-65.28947628,-43.70704314,-60.41043555,-64.35787281,-170.50837261,170.53768434
61.98184666,13.35869336,-9.78845446,-20.59163878,0.32643182,0.40149560,0.76016064

>  <Name>
ligand

>  <RI>
0

>  <Rbt.Current_Directory>
/home/itssahil/PROJECTS/Mol_Feturizer/New_Systems/rnas/3E5F

>  <Rbt.Executable>
rbdock ($Id: //depot/dev/client3/rdock/2013.1/src/exe/rbdock.cxx#4 $)

>  <Rbt.Library>
libRbt.so (2013.1, Build901 2013/11/27)

>  <Rbt.Parameter_File>
/export/apps/rDock/src/rDock_2013.1_src/data/scripts/dock_solv.prm

>  <Rbt.Receptor>
prm/pocket_docking_7.prm

>  <SCORE>
-14.8346

>  <SCORE.INTER>
-14.4253

>  <SCORE.INTER.CONST>
1

>  <SCORE.INTER.POLAR>
0

>  <SCORE.INTER.ROT>
7

>  <SCORE.INTER.SOLV>
8.36759

>  <SCORE.INTER.VDW>
-20.6727

>  <SCORE.INTER.norm>
-0.534269

>  <SCORE.INTRA>
-0.409377

>  <SCORE.INTRA.DIHEDRAL>
-1.14222

>  <SCORE.INTRA.DIHEDRAL.0>
4.89803

>  <SCORE.INTRA.POLAR>
0

>  <SCORE.INTRA.POLAR.0>
0

>  <SCORE.INTRA.REPUL>
0

>  <SCORE.INTRA.REPUL.0>
0

>  <SCORE.INTRA.SOLV>
0.761206

>  <SCORE.INTRA.SOLV.lig_0>
-48.5832

>  <SCORE.INTRA.VDW>
-0.21887

>  <SCORE.INTRA.VDW.0>
-2.39056

>  <SCORE.INTRA.norm>
-0.0151621

>  <SCORE.RESTR>
0

>  <SCORE.RESTR.CAVITY>
0

>  <SCORE.RESTR.norm>
0

>  <SCORE.SYSTEM>
0

>  <SCORE.SYSTEM.CONST>
0

>  <SCORE.SYSTEM.DIHEDRAL>
0

>  <SCORE.SYSTEM.SOLV>
0

>  <SCORE.SYSTEM.norm>
0

>  <SCORE.heavy>
27

>  <SCORE.norm>
-0.549431

>  <RMSD>
5.509

$$$$
ligand
 OpenBabel11021811473D
libRbt.so/2013.1/901 2013/11/27
 27 29  0  0  0  0  0  0  0  0999 V2000
   15.9821   -5.5404  -19.2958 N   0  0  0  0  0  0  0  0  0  0  0  0
   15.9824   -5.3611  -20.7551 C   0  0  2  0  0  0  0  0  0  0  0  0
   14.8634   -4.3981  -21.1633 C   0  0  0  0  0  0  0  0  0  0  0  0
   13.7154   -4.6492  -20.7360 O   0  0  0  0  0  0  0  0  0  0  0  0
   15.7461   -6.7188  -21.4190 C   0  0  0  0  0  0  0  0  0  0  0  0
   15.7851   -6.6258  -22.9465 C   0  0  0  0  0  0  0  0  0  0  0  0
   15.6179   -7.8493  -25.5049 C   0  0  0  0  0  0  0  0  0  0  0  0
   15.6656   -8.3121  -23.7191 Se  0  0  2  0  0  0  0  0  0  0  0  0
   13.9345   -8.9325  -23.4460 C   0  0  0  0  0  0  0  0  0  0  0  0
   13.5004   -8.9102  -21.9799 C   0  0  1  0  0  0  0  0  0  0  0  0
   12.1499   -9.3974  -21.9000 O   0  0  0  0  0  0  0  0  0  0  0  0
   14.3348   -9.9593  -21.2440 C   0  0  1  0  0  0  0  0  0  0  0  0
   14.1078   -9.8523  -19.8378 O   0  0  0  0  0  0  0  0  0  0  0  0
   13.6714  -11.2238  -21.7839 C   0  0  1  0  0  0  0  0  0  0  0  0
   13.9313  -12.3008  -20.8820 O   0  0  0  0  0  0  0  0  0  0  0  0
   12.2029  -10.8151  -21.6601 C   0  0  2  0  0  0  0  0  0  0  0  0
   15.1774   -3.4381  -21.9009 O   0  0  0  0  0  0  0  0  0  0  0  0
    8.6610  -14.5254  -22.2368 N   0  0  0  0  0  0  0  0  0  0  0  0
    9.2430  -14.1011  -21.1283 C   0  0  0  0  0  0  0  0  0  0  0  0
   10.1398  -13.1303  -21.1400 N   0  0  0  0  0  0  0  0  0  0  0  0
   10.4880  -12.5368  -22.2918 C   0  0  0  0  0  0  0  0  0  0  0  0
    9.8996  -12.9565  -23.4765 C   0  0  0  0  0  0  0  0  0  0  0  0
    8.9639  -13.9828  -23.4230 C   0  0  0  0  0  0  0  0  0  0  0  0
    8.4073  -14.4382  -24.5411 N   0  0  0  0  0  0  0  0  0  0  0  0
   10.4077  -12.2231  -24.4606 N   0  0  0  0  0  0  0  0  0  0  0  0
   11.2808  -11.3759  -23.9207 C   0  0  0  0  0  0  0  0  0  0  0  0
   11.3349  -11.5605  -22.6015 N   0  0  0  0  0  0  0  0  0  0  0  0
  2  1  1  1  0  0  0
  2  5  1  0  0  0  0
  2  3  1  0  0  0  0
  3 17  1  0  0  0  0
  3  4  1  0  0  0  0
  5  6  1  0  0  0  0
  7  8  1  0  0  0  0
  8  6  1  1  0  0  0
  8  9  1  0  0  0  0
 10  9  1  6  0  0  0
 10 11  1  0  0  0  0
 10 12  1  0  0  0  0
 11 16  1  0  0  0  0
 12 13  1  1  0  0  0
 12 14  1  0  0  0  0
 14 15  1  1  0  0  0
 14 16  1  0  0  0  0
 16 27  1  6  0  0  0
 18 23  2  0  0  0  0
 18 19  1  0  0  0  0
 19 20  2  0  0  0  0
 20 21  1  0  0  0  0
 21 22  2  0  0  0  0
 21 27  1  0  0  0  0
 22 23  1  0  0  0  0
 22 25  1  0  0  0  0
 23 24  1  0  0  0  0
 25 26  2  0  0  0  0
 26 27  1  0  0  0  0
M  END
>  <CHROM.1>
-177.83931596,-51.76822536,174.31618610,176.16929920,-53.94621394,179.46158758
-134.10411443,13.28495540,-9.50590308,-22.40514742,0.43942331,0.83117427
1.10585491

>  <Name>
ligand

>  <RI>
0

>  <Rbt.Current_Directory>
/home/itssahil/PROJECTS/Mol_Feturizer/New_Systems/rnas/3E5F

>  <Rbt.Executable>
rbdock ($Id: //depot/dev/client3/rdock/2013.1/src/exe/rbdock.cxx#4 $)

>  <Rbt.Library>
libRbt.so (2013.1, Build901 2013/11/27)

>  <Rbt.Parameter_File>
/export/apps/rDock/src/rDock_2013.1_src/data/scripts/dock_solv.prm

>  <Rbt.Receptor>
prm/blind_docking_80.prm

>  <SCORE>
-19.6046

>  <SCORE.INTER>
-18.7121

>  <SCORE.INTER.CONST>
1

>  <SCORE.INTER.POLAR>
0

>  <SCORE.INTER.ROT>
7

>  <SCORE.INTER.SOLV>
8.975

>  <SCORE.INTER.VDW>
-23.733

>  <SCORE.INTER.norm>
-0.693039

>  <SCORE.INTRA>
-0.89257

>  <SCORE.INTRA.DIHEDRAL>
-1.54117

>  <SCORE.INTRA.DIHEDRAL.0>
4.89803

>  <SCORE.INTRA.POLAR>
0

>  <SCORE.INTRA.POLAR.0>
0

>  <SCORE.INTRA.REPUL>
0

>  <SCORE.INTRA.REPUL.0>
0

>  <SCORE.INTRA.SOLV>
0.0710191

>  <SCORE.INTRA.SOLV.lig_0>
-48.5832

>  <SCORE.INTRA.VDW>
-0.157493

>  <SCORE.INTRA.VDW.0>
-2.39056

>  <SCORE.INTRA.norm>
-0.0330582

>  <SCORE.RESTR>
0

>  <SCORE.RESTR.CAVITY>
0

>  <SCORE.RESTR.norm>
0

>  <SCORE.SYSTEM>
0

>  <SCORE.SYSTEM.CONST>
0

>  <SCORE.SYSTEM.DIHEDRAL>
0

>  <SCORE.SYSTEM.SOLV>
0

>  <SCORE.SYSTEM.norm>
0

>  <SCORE.heavy>
27

>  <SCORE.norm>
-0.726098

>  <RMSD>
5.511

$$$$
ligand
 OpenBabel11021811473D
libRbt.so/2013.1/901 2013/11/27
 27 29  0  0  0  0  0  0  0  0999 V2000
   15.8480   -5.3380  -19.9707 N   0  0  0  0  0  0  0  0  0  0  0  0
   17.0232   -5.1850  -20.8410 C   0  0  2  0  0  0  0  0  0  0  0  0
   16.9103   -3.8879  -21.6478 C   0  0  0  0  0  0  0  0  0  0  0  0
   15.7605   -3.4311  -21.8288 O   0  0  0  0  0  0  0  0  0  0  0  0
   17.0829   -6.3731  -21.8027 C   0  0  0  0  0  0  0  0  0  0  0  0
   15.7645   -6.5695  -22.5556 C   0  0  0  0  0  0  0  0  0  0  0  0
   15.7354   -7.5348  -25.2273 C   0  0  0  0  0  0  0  0  0  0  0  0
   15.7677   -8.1727  -23.4959 Se  0  0  2  0  0  0  0  0  0  0  0  0
   14.0717   -8.9181  -23.3392 C   0  0  0  0  0  0  0  0  0  0  0  0
   13.5227   -8.8955  -21.9120 C   0  0  1  0  0  0  0  0  0  0  0  0
   12.1806   -9.4110  -21.9349 O   0  0  0  0  0  0  0  0  0  0  0  0
   14.3181   -9.9215  -21.1040 C   0  0  1  0  0  0  0  0  0  0  0  0
   13.9784   -9.8101  -19.7210 O   0  0  0  0  0  0  0  0  0  0  0  0
   13.7260  -11.2034  -21.6841 C   0  0  1  0  0  0  0  0  0  0  0  0
   13.9363  -12.2687  -20.7556 O   0  0  0  0  0  0  0  0  0  0  0  0
   12.2442  -10.8256  -21.6799 C   0  0  2  0  0  0  0  0  0  0  0  0
   17.9739   -3.3864  -22.0739 O   0  0  0  0  0  0  0  0  0  0  0  0
    8.7614  -14.5467  -22.4973 N   0  0  0  0  0  0  0  0  0  0  0  0
    9.2344  -14.0927  -21.3494 C   0  0  0  0  0  0  0  0  0  0  0  0
   10.1316  -13.1235  -21.3003 N   0  0  0  0  0  0  0  0  0  0  0  0
   10.5924  -12.5623  -22.4283 C   0  0  0  0  0  0  0  0  0  0  0  0
   10.1205  -13.0137  -23.6529 C   0  0  0  0  0  0  0  0  0  0  0  0
    9.1802  -14.0372  -23.6628 C   0  0  0  0  0  0  0  0  0  0  0  0
    8.7334  -14.5226  -24.8169 N   0  0  0  0  0  0  0  0  0  0  0  0
   10.7246  -12.3082  -24.6025 N   0  0  0  0  0  0  0  0  0  0  0  0
   11.5442  -11.4474  -24.0034 C   0  0  0  0  0  0  0  0  0  0  0  0
   11.4690  -11.5957  -22.6807 N   0  0  0  0  0  0  0  0  0  0  0  0
  2  1  1  1  0  0  0
  2  5  1  0  0  0  0
  2  3  1  0  0  0  0
  3 17  1  0  0  0  0
  3  4  1  0  0  0  0
  5  6  1  0  0  0  0
  7  8  1  0  0  0  0
  8  6  1  1  0  0  0
  8  9  1  0  0  0  0
 10  9  1  6  0  0  0
 10 11  1  0  0  0  0
 10 12  1  0  0  0  0
 11 16  1  0  0  0  0
 12 13  1  1  0  0  0
 12 14  1  0  0  0  0
 14 15  1  1  0  0  0
 14 16  1  0  0  0  0
 16 27  1  6  0  0  0
 18 23  2  0  0  0  0
 18 19  1  0  0  0  0
 19 20  2  0  0  0  0
 20 21  1  0  0  0  0
 21 22  2  0  0  0  0
 21 27  1  0  0  0  0
 22 23  1  0  0  0  0
 22 25  1  0  0  0  0
 23 24  1  0  0  0  0
 25 26  2  0  0  0  0
 26 27  1  0  0  0  0
M  END
>  <CHROM.1>
52.71306290,-23.93686042,-170.54557633,-113.66872130,-46.06728813,176.14330627
-132.04343729,13.66344285,-9.39280392,-22.47217620,0.12298183,0.87326821
1.50422509

>  <Name>
ligand

>  <RI>
0

>  <Rbt.Current_Directory>
/home/itssahil/PROJECTS/Mol_Feturizer/New_Systems/rnas/3E5F

>  <Rbt.Executable>
rbdock ($Id: //depot/dev/client3/rdock/2013.1/src/exe/rbdock.cxx#4 $)

>  <Rbt.Library>
libRbt.so (2013.1, Build901 2013/11/27)

>  <Rbt.Parameter_File>
/export/apps/rDock/src/rDock_2013.1_src/data/scripts/dock_solv.prm

>  <Rbt.Receptor>
prm/blind_docking_80.prm

>  <SCORE>
-20.1755

>  <SCORE.INTER>
-21.5296

>  <SCORE.INTER.CONST>
1

>  <SCORE.INTER.POLAR>
0

>  <SCORE.INTER.ROT>
7

>  <SCORE.INTER.SOLV>
9.32123

>  <SCORE.INTER.VDW>
-25.7268

>  <SCORE.INTER.norm>
-0.797392

>  <SCORE.INTRA>
1.35269

>  <SCORE.INTRA.DIHEDRAL>
1.21035

>  <SCORE.INTRA.DIHEDRAL.0>
4.89803

>  <SCORE.INTRA.POLAR>
0

>  <SCORE.INTRA.POLAR.0>
0

>  <SCORE.INTRA.REPUL>
0

>  <SCORE.INTRA.REPUL.0>
0

>  <SCORE.INTRA.SOLV>
0.704659

>  <SCORE.INTRA.SOLV.lig_0>
-48.5832

>  <SCORE.INTRA.VDW>
0.395184

>  <SCORE.INTRA.VDW.0>
-2.39056

>  <SCORE.INTRA.norm>
0.0500996

>  <SCORE.RESTR>
0.00140206

>  <SCORE.RESTR.CAVITY>
0.00140206

>  <SCORE.RESTR.norm>
5.19282e-05

>  <SCORE.SYSTEM>
0

>  <SCORE.SYSTEM.CONST>
0

>  <SCORE.SYSTEM.DIHEDRAL>
0

>  <SCORE.SYSTEM.SOLV>
0

>  <SCORE.SYSTEM.norm>
0

>  <SCORE.heavy>
27

>  <SCORE.norm>
-0.747241

>  <RMSD>
5.515

$$$$
ligand
 OpenBabel11021811473D
libRbt.so/2013.1/901 2013/11/27
 27 29  0  0  0  0  0  0  0  0999 V2000
   17.5734   -5.6376  -20.1436 N   0  0  0  0  0  0  0  0  0  0  0  0
   16.6288   -5.7093  -21.2680 C   0  0  2  0  0  0  0  0  0  0  0  0
   15.4039   -4.8367  -20.9776 C   0  0  0  0  0  0  0  0  0  0  0  0
   15.0175   -4.0789  -21.8941 O   0  0  0  0  0  0  0  0  0  0  0  0
   16.1824   -7.1615  -21.4456 C   0  0  0  0  0  0  0  0  0  0  0  0
   15.3016   -7.3443  -22.6842 C   0  0  0  0  0  0  0  0  0  0  0  0
   14.0666   -9.0161  -24.6208 C   0  0  0  0  0  0  0  0  0  0  0  0
   15.0939   -9.1455  -23.0932 Se  0  0  2  0  0  0  0  0  0  0  0  0
   13.8770   -9.8588  -21.8821 C   0  0  0  0  0  0  0  0  0  0  0  0
   13.6575  -11.3629  -22.0490 C   0  0  1  0  0  0  0  0  0  0  0  0
   12.8958  -11.8368  -20.9253 O   0  0  0  0  0  0  0  0  0  0  0  0
   12.7336  -11.5555  -23.2522 C   0  0  1  0  0  0  0  0  0  0  0  0
   12.6455  -12.9450  -23.5714 O   0  0  0  0  0  0  0  0  0  0  0  0
   11.4218  -11.0792  -22.6333 C   0  0  1  0  0  0  0  0  0  0  0  0
   10.3346  -11.6256  -23.3820 O   0  0  0  0  0  0  0  0  0  0  0  0
   11.5028  -11.7915  -21.2825 C   0  0  2  0  0  0  0  0  0  0  0  0
   14.8863   -4.9387  -19.8435 O   0  0  0  0  0  0  0  0  0  0  0  0
   11.5138   -9.3104  -16.7560 N   0  0  0  0  0  0  0  0  0  0  0  0
   12.5366   -9.8045  -17.4321 C   0  0  0  0  0  0  0  0  0  0  0  0
   12.3741  -10.4186  -18.5911 N   0  0  0  0  0  0  0  0  0  0  0  0
   11.1509  -10.5575  -19.1242 C   0  0  0  0  0  0  0  0  0  0  0  0
   10.0522  -10.0532  -18.4426 C   0  0  0  0  0  0  0  0  0  0  0  0
   10.2640   -9.4174  -17.2249 C   0  0  0  0  0  0  0  0  0  0  0  0
    9.2329   -8.9556  -16.5243 N   0  0  0  0  0  0  0  0  0  0  0  0
    8.9716  -10.3166  -19.1689 N   0  0  0  0  0  0  0  0  0  0  0  0
    9.3705  -10.9607  -20.2632 C   0  0  0  0  0  0  0  0  0  0  0  0
   10.6950  -11.1107  -20.2434 N   0  0  0  0  0  0  0  0  0  0  0  0
  2  1  1  1  0  0  0
  2  5  1  0  0  0  0
  2  3  1  0  0  0  0
  3 17  1  0  0  0  0
  3  4  1  0  0  0  0
  5  6  1  0  0  0  0
  7  8  1  0  0  0  0
  8  6  1  1  0  0  0
  8  9  1  0  0  0  0
 10  9  1  1  0  0  0
 10 11  1  0  0  0  0
 10 12  1  0  0  0  0
 11 16  1  0  0  0  0
 12 13  1  1  0  0  0
 12 14  1  0  0  0  0
 14 15  1  6  0  0  0
 14 16  1  0  0  0  0
 16 27  1  1  0  0  0
 18 23  2  0  0  0  0
 18 19  1  0  0  0  0
 19 20  2  0  0  0  0
 20 21  1  0  0  0  0
 21 22  2  0  0  0  0
 21 27  1  0  0  0  0
 22 23  1  0  0  0  0
 22 25  1  0  0  0  0
 23 24  1  0  0  0  0
 25 26  2  0  0  0  0
 26 27  1  0  0  0  0
M  END
>  <CHROM.1>
-174.42597455,133.33071956,167.16246570,-178.05221877,-176.98432250,169.87656875
1.95969181,13.17746356,-9.25212084,-21.12018376,0.10212555,0.73764931,0.86957657

>  <Name>
ligand

>  <RI>
0

>  <Rbt.Current_Directory>
/home/itssahil/PROJECTS/Mol_Feturizer/New_Systems/rnas/3E5F

>  <Rbt.Executable>
rbdock ($Id: //depot/dev/client3/rdock/2013.1/src/exe/rbdock.cxx#4 $)

>  <Rbt.Library>
libRbt.so (2013.1, Build901 2013/11/27)

>  <Rbt.Parameter_File>
/export/apps/rDock/src/rDock_2013.1_src/data/scripts/dock_solv.prm

>  <Rbt.Receptor>
prm/pocket_docking_5.prm

>  <SCORE>
-16.2956

>  <SCORE.INTER>
-16.2739

>  <SCORE.INTER.CONST>
1

>  <SCORE.INTER.POLAR>
0

>  <SCORE.INTER.ROT>
7

>  <SCORE.INTER.SOLV>
7.22505

>  <SCORE.INTER.VDW>
-21.5243

>  <SCORE.INTER.norm>
-0.602737

>  <SCORE.INTRA>
-0.0217389

>  <SCORE.INTRA.DIHEDRAL>
-0.591835

>  <SCORE.INTRA.DIHEDRAL.0>
4.89803

>  <SCORE.INTRA.POLAR>
0

>  <SCORE.INTRA.POLAR.0>
0

>  <SCORE.INTRA.REPUL>
0

>  <SCORE.INTRA.REPUL.0>
0

>  <SCORE.INTRA.SOLV>
0.0825666

>  <SCORE.INTRA.SOLV.lig_0>
-48.5832

>  <SCORE.INTRA.VDW>
0.232895

>  <SCORE.INTRA.VDW.0>
-2.39056

>  <SCORE.INTRA.norm>
-0.000805146

>  <SCORE.RESTR>
0

>  <SCORE.RESTR.CAVITY>
0

>  <SCORE.RESTR.norm>
0

>  <SCORE.SYSTEM>
0

>  <SCORE.SYSTEM.CONST>
0

>  <SCORE.SYSTEM.DIHEDRAL>
0

>  <SCORE.SYSTEM.SOLV>
0

>  <SCORE.SYSTEM.norm>
0

>  <SCORE.heavy>
27

>  <SCORE.norm>
-0.603542

>  <RMSD>
5.517

$$$$
ligand
 OpenBabel11021811473D
libRbt.so/2013.1/901 2013/11/27
 27 29  0  0  0  0  0  0  0  0999 V2000
   19.1039   -7.3196  -20.5575 N   0  0  0  0  0  0  0  0  0  0  0  0
   17.6357   -7.2976  -20.6328 C   0  0  2  0  0  0  0  0  0  0  0  0
   17.1376   -5.8507  -20.6993 C   0  0  0  0  0  0  0  0  0  0  0  0
   16.1131   -5.6346  -21.3829 O   0  0  0  0  0  0  0  0  0  0  0  0
   17.0674   -7.9693  -19.3815 C   0  0  0  0  0  0  0  0  0  0  0  0
   15.5728   -8.2703  -19.5197 C   0  0  0  0  0  0  0  0  0  0  0  0
   14.6199   -8.4816  -22.1876 C   0  0  0  0  0  0  0  0  0  0  0  0
   15.2706   -9.5514  -20.8320 Se  0  0  2  0  0  0  0  0  0  0  0  0
   13.7512  -10.5055  -20.3450 C   0  0  0  0  0  0  0  0  0  0  0  0
   13.6434  -11.8723  -21.0223 C   0  0  1  0  0  0  0  0  0  0  0  0
   12.5459  -12.5867  -20.4284 O   0  0  0  0  0  0  0  0  0  0  0  0
   13.2099  -11.6287  -22.4684 C   0  0  1  0  0  0  0  0  0  0  0  0
   13.2761  -12.8530  -23.2013 O   0  0  0  0  0  0  0  0  0  0  0  0
   11.7524  -11.2446  -22.2265 C   0  0  1  0  0  0  0  0  0  0  0  0
   11.0145  -11.4568  -23.4314 O   0  0  0  0  0  0  0  0  0  0  0  0
   11.3686  -12.3229  -21.2122 C   0  0  2  0  0  0  0  0  0  0  0  0
   17.7965   -4.9909  -20.0739 O   0  0  0  0  0  0  0  0  0  0  0  0
    9.3979   -8.6892  -18.1207 N   0  0  0  0  0  0  0  0  0  0  0  0
   10.5508   -8.6902  -18.7674 C   0  0  0  0  0  0  0  0  0  0  0  0
   10.9203   -9.7037  -19.5309 N   0  0  0  0  0  0  0  0  0  0  0  0
   10.1245  -10.7739  -19.6767 C   0  0  0  0  0  0  0  0  0  0  0  0
    8.9069  -10.8100  -19.0118 C   0  0  0  0  0  0  0  0  0  0  0  0
    8.5560   -9.7263  -18.2153 C   0  0  0  0  0  0  0  0  0  0  0  0
    7.4156   -9.7409  -17.5323 N   0  0  0  0  0  0  0  0  0  0  0  0
    8.3161  -11.9604  -19.3149 N   0  0  0  0  0  0  0  0  0  0  0  0
    9.1263  -12.6238  -20.1364 C   0  0  0  0  0  0  0  0  0  0  0  0
   10.2285  -11.9082  -20.3615 N   0  0  0  0  0  0  0  0  0  0  0  0
  2  1  1  1  0  0  0
  2  5  1  0  0  0  0
  2  3  1  0  0  0  0
  3 17  1  0  0  0  0
  3  4  1  0  0  0  0
  5  6  1  0  0  0  0
  7  8  1  0  0  0  0
  8  6  1  1  0  0  0
  8  9  1  0  0  0  0
 10  9  1  1  0  0  0
 10 11  1  0  0  0  0
 10 12  1  0  0  0  0
 11 16  1  0  0  0  0
 12 13  1  6  0  0  0
 12 14  1  0  0  0  0
 14 15  1  6  0  0  0
 14 16  1  0  0  0  0
 16 27  1  1  0  0  0
 18 23  2  0  0  0  0
 18 19  1  0  0  0  0
 19 20  2  0  0  0  0
 20 21  1  0  0  0  0
 21 22  2  0  0  0  0
 21 27  1  0  0  0  0
 22 23  1  0  0  0  0
 22 25  1  0  0  0  0
 23 24  1  0  0  0  0
 25 26  2  0  0  0  0
 26 27  1  0  0  0  0
M  END
>  <CHROM.1>
-167.19651274,145.93795368,66.22812553,-104.71264893,-159.70713785,171.83137558
68.06855443,13.21308893,-9.73808619,-20.49537331,-0.31964612,-0.38045412
-2.52073398

>  <Name>
ligand

>  <RI>
0

>  <Rbt.Current_Directory>
/home/itssahil/PROJECTS/Mol_Feturizer/New_Systems/rnas/3E5F

>  <Rbt.Executable>
rbdock ($Id: //depot/dev/client3/rdock/2013.1/src/exe/rbdock.cxx#4 $)

>  <Rbt.Library>
libRbt.so (2013.1, Build901 2013/11/27)

>  <Rbt.Parameter_File>
/export/apps/rDock/src/rDock_2013.1_src/data/scripts/dock_solv.prm

>  <Rbt.Receptor>
prm/pocket_docking_6.prm

>  <SCORE>
-14.7675

>  <SCORE.INTER>
-14.5272

>  <SCORE.INTER.CONST>
1

>  <SCORE.INTER.POLAR>
0

>  <SCORE.INTER.ROT>
7

>  <SCORE.INTER.SOLV>
10.664

>  <SCORE.INTER.VDW>
-21.5061

>  <SCORE.INTER.norm>
-0.538044

>  <SCORE.INTRA>
-0.240325

>  <SCORE.INTRA.DIHEDRAL>
1.58737

>  <SCORE.INTRA.DIHEDRAL.0>
4.89803

>  <SCORE.INTRA.POLAR>
0

>  <SCORE.INTRA.POLAR.0>
0

>  <SCORE.INTRA.REPUL>
0

>  <SCORE.INTRA.REPUL.0>
0

>  <SCORE.INTRA.SOLV>
-0.00310136

>  <SCORE.INTRA.SOLV.lig_0>
-48.5832

>  <SCORE.INTRA.VDW>
-1.03246

>  <SCORE.INTRA.VDW.0>
-2.39056

>  <SCORE.INTRA.norm>
-0.00890094

>  <SCORE.RESTR>
0

>  <SCORE.RESTR.CAVITY>
0

>  <SCORE.RESTR.norm>
0

>  <SCORE.SYSTEM>
0

>  <SCORE.SYSTEM.CONST>
0

>  <SCORE.SYSTEM.DIHEDRAL>
0

>  <SCORE.SYSTEM.SOLV>
0

>  <SCORE.SYSTEM.norm>
0

>  <SCORE.heavy>
27

>  <SCORE.norm>
-0.546945

>  <RMSD>
5.530

$$$$
ligand
 OpenBabel11021811473D
libRbt.so/2013.1/901 2013/11/27
 27 29  0  0  0  0  0  0  0  0999 V2000
   17.8636   -6.6189  -21.0811 N   0  0  0  0  0  0  0  0  0  0  0  0
   16.4725   -6.5502  -21.5521 C   0  0  2  0  0  0  0  0  0  0  0  0
   15.6283   -5.7321  -20.5701 C   0  0  0  0  0  0  0  0  0  0  0  0
   15.7297   -6.0212  -19.3578 O   0  0  0  0  0  0  0  0  0  0  0  0
   15.9102   -7.9702  -21.6385 C   0  0  0  0  0  0  0  0  0  0  0  0
   14.5643   -8.0117  -22.3666 C   0  0  0  0  0  0  0  0  0  0  0  0
   13.9953   -9.7101  -24.5716 C   0  0  0  0  0  0  0  0  0  0  0  0
   14.0568   -9.7628  -22.7279 Se  0  0  2  0  0  0  0  0  0  0  0  0
   12.2557   -9.9250  -22.2970 C   0  0  0  0  0  0  0  0  0  0  0  0
   11.9617   -9.7244  -20.8097 C   0  0  1  0  0  0  0  0  0  0  0  0
   10.8066  -10.5090  -20.4666 O   0  0  0  0  0  0  0  0  0  0  0  0
   13.1106  -10.3649  -20.0300 C   0  0  1  0  0  0  0  0  0  0  0  0
   12.9868  -10.0438  -18.6437 O   0  0  0  0  0  0  0  0  0  0  0  0
   12.7710  -11.8359  -20.2563 C   0  0  1  0  0  0  0  0  0  0  0  0
   13.3915  -12.6143  -19.2314 O   0  0  0  0  0  0  0  0  0  0  0  0
   11.2634  -11.7923  -20.0033 C   0  0  2  0  0  0  0  0  0  0  0  0
   14.8934   -4.8426  -21.0526 O   0  0  0  0  0  0  0  0  0  0  0  0
    9.8530  -13.8975  -24.5004 N   0  0  0  0  0  0  0  0  0  0  0  0
   10.5638  -12.8040  -24.2846 C   0  0  0  0  0  0  0  0  0  0  0  0
   10.8481  -12.3878  -23.0628 N   0  0  0  0  0  0  0  0  0  0  0  0
   10.4210  -13.0735  -21.9917 C   0  0  0  0  0  0  0  0  0  0  0  0
    9.6704  -14.2258  -22.1784 C   0  0  0  0  0  0  0  0  0  0  0  0
    9.3893  -14.6285  -23.4787 C   0  0  0  0  0  0  0  0  0  0  0  0
    8.6409  -15.7052  -23.6974 N   0  0  0  0  0  0  0  0  0  0  0  0
    9.3727  -14.7117  -20.9785 N   0  0  0  0  0  0  0  0  0  0  0  0
    9.9120  -13.9005  -20.0716 C   0  0  0  0  0  0  0  0  0  0  0  0
   10.5517  -12.9017  -20.6803 N   0  0  0  0  0  0  0  0  0  0  0  0
  2  1  1  1  0  0  0
  2  5  1  0  0  0  0
  2  3  1  0  0  0  0
  3 17  1  0  0  0  0
  3  4  1  0  0  0  0
  5  6  1  0  0  0  0
  7  8  1  0  0  0  0
  8  6  1  1  0  0  0
  8  9  1  0  0  0  0
 10  9  1  6  0  0  0
 10 11  1  0  0  0  0
 10 12  1  0  0  0  0
 11 16  1  0  0  0  0
 12 13  1  1  0  0  0
 12 14  1  0  0  0  0
 14 15  1  1  0  0  0
 14 16  1  0  0  0  0
 16 27  1  6  0  0  0
 18 23  2  0  0  0  0
 18 19  1  0  0  0  0
 19 20  2  0  0  0  0
 20 21  1  0  0  0  0
 21 22  2  0  0  0  0
 21 27  1  0  0  0  0
 22 23  1  0  0  0  0
 22 25  1  0  0  0  0
 23 24  1  0  0  0  0
 25 26  2  0  0  0  0
 26 27  1  0  0  0  0
M  END
>  <CHROM.1>
-169.23929116,-48.72996446,169.71513569,-118.63900562,-64.14958937,-150.25266136
52.73211410,12.77549907,-10.51967525,-21.67908088,-0.19600271,-0.87483221
-1.66404520

>  <Name>
ligand

>  <RI>
0

>  <Rbt.Current_Directory>
/home/itssahil/PROJECTS/Mol_Feturizer/New_Systems/rnas/3E5F

>  <Rbt.Executable>
rbdock ($Id: //depot/dev/client3/rdock/2013.1/src/exe/rbdock.cxx#4 $)

>  <Rbt.Library>
libRbt.so (2013.1, Build901 2013/11/27)

>  <Rbt.Parameter_File>
/export/apps/rDock/src/rDock_2013.1_src/data/scripts/dock_solv.prm

>  <Rbt.Receptor>
prm/blind_docking_60.prm

>  <SCORE>
-13.5425

>  <SCORE.INTER>
-14.7473

>  <SCORE.INTER.CONST>
1

>  <SCORE.INTER.POLAR>
0

>  <SCORE.INTER.ROT>
7

>  <SCORE.INTER.SOLV>
11.3302

>  <SCORE.INTER.VDW>
-21.8749

>  <SCORE.INTER.norm>
-0.546197

>  <SCORE.INTRA>
0.834204

>  <SCORE.INTRA.DIHEDRAL>
3.56107

>  <SCORE.INTRA.DIHEDRAL.0>
4.89803

>  <SCORE.INTRA.POLAR>
0

>  <SCORE.INTRA.POLAR.0>
0

>  <SCORE.INTRA.REPUL>
0

>  <SCORE.INTRA.REPUL.0>
0

>  <SCORE.INTRA.SOLV>
0.0175604

>  <SCORE.INTRA.SOLV.lig_0>
-48.5832

>  <SCORE.INTRA.VDW>
-0.95511

>  <SCORE.INTRA.VDW.0>
-2.39056

>  <SCORE.INTRA.norm>
0.0308964

>  <SCORE.RESTR>
0.370576

>  <SCORE.RESTR.CAVITY>
0.370576

>  <SCORE.RESTR.norm>
0.013725

>  <SCORE.SYSTEM>
0

>  <SCORE.SYSTEM.CONST>
0

>  <SCORE.SYSTEM.DIHEDRAL>
0

>  <SCORE.SYSTEM.SOLV>
0

>  <SCORE.SYSTEM.norm>
0

>  <SCORE.heavy>
27

>  <SCORE.norm>
-0.501576

>  <RMSD>
5.533

$$$$
ligand
 OpenBabel11021811473D
libRbt.so/2013.1/901 2013/11/27
 27 29  0  0  0  0  0  0  0  0999 V2000
   20.9227   -7.7595  -14.3334 N   0  0  0  0  0  0  0  0  0  0  0  0
   20.0428   -6.5978  -14.5280 C   0  0  2  0  0  0  0  0  0  0  0  0
   20.1575   -5.6492  -13.3309 C   0  0  0  0  0  0  0  0  0  0  0  0
   20.9381   -5.9856  -12.4138 O   0  0  0  0  0  0  0  0  0  0  0  0
   18.5984   -7.0872  -14.6466 C   0  0  0  0  0  0  0  0  0  0  0  0
   18.2517   -7.5131  -16.0755 C   0  0  0  0  0  0  0  0  0  0  0  0
   16.5906   -5.3352  -16.8290 C   0  0  0  0  0  0  0  0  0  0  0  0
   18.2454   -6.0508  -17.2227 Se  0  0  2  0  0  0  0  0  0  0  0  0
   17.9763   -6.6918  -18.9469 C   0  0  0  0  0  0  0  0  0  0  0  0
   18.4709   -5.7409  -20.0377 C   0  0  1  0  0  0  0  0  0  0  0  0
   18.2463   -6.3613  -21.3153 O   0  0  0  0  0  0  0  0  0  0  0  0
   17.5466   -4.5228  -20.0305 C   0  0  1  0  0  0  0  0  0  0  0  0
   18.0720   -3.5172  -20.8983 O   0  0  0  0  0  0  0  0  0  0  0  0
   16.3047   -5.1533  -20.6558 C   0  0  1  0  0  0  0  0  0  0  0  0
   15.4911   -4.1170  -21.2082 O   0  0  0  0  0  0  0  0  0  0  0  0
   16.9602   -5.9322  -21.7969 C   0  0  2  0  0  0  0  0  0  0  0  0
   19.4561   -4.6139  -13.3537 O   0  0  0  0  0  0  0  0  0  0  0  0
   14.5589   -8.2526  -25.7332 N   0  0  0  0  0  0  0  0  0  0  0  0
   15.2756   -7.1418  -25.7391 C   0  0  0  0  0  0  0  0  0  0  0  0
   15.8356   -6.6683  -24.6396 N   0  0  0  0  0  0  0  0  0  0  0  0
   15.6941   -7.3110  -23.4705 C   0  0  0  0  0  0  0  0  0  0  0  0
   14.9472   -8.4797  -23.4245 C   0  0  0  0  0  0  0  0  0  0  0  0
   14.3711   -8.9432  -24.6014 C   0  0  0  0  0  0  0  0  0  0  0  0
   13.6168  -10.0378  -24.5899 N   0  0  0  0  0  0  0  0  0  0  0  0
   14.9576   -8.9155  -22.1697 N   0  0  0  0  0  0  0  0  0  0  0  0
   15.6804   -8.0581  -21.4528 C   0  0  0  0  0  0  0  0  0  0  0  0
   16.1321   -7.0794  -22.2373 N   0  0  0  0  0  0  0  0  0  0  0  0
  2  1  1  1  0  0  0
  2  5  1  0  0  0  0
  2  3  1  0  0  0  0
  3 17  1  0  0  0  0
  3  4  1  0  0  0  0
  5  6  1  0  0  0  0
  7  8  1  0  0  0  0
  8  6  1  1  0  0  0
  8  9  1  0  0  0  0
 10  9  1  1  0  0  0
 10 11  1  0  0  0  0
 10 12  1  0  0  0  0
 11 16  1  0  0  0  0
 12 13  1  6  0  0  0
 12 14  1  0  0  0  0
 14 15  1  6  0  0  0
 14 16  1  0  0  0  0
 16 27  1  1  0  0  0
 18 23  2  0  0  0  0
 18 19  1  0  0  0  0
 19 20  2  0  0  0  0
 20 21  1  0  0  0  0
 21 22  2  0  0  0  0
 21 27  1  0  0  0  0
 22 23  1  0  0  0  0
 22 25  1  0  0  0  0
 23 24  1  0  0  0  0
 25 26  2  0  0  0  0
 26 27  1  0  0  0  0
M  END
>  <CHROM.1>
-84.65554450,-0.12240646,-67.22208782,-79.52447650,-157.57577908,178.26762513
-116.56591338,17.37312876,-6.50347843,-19.34373257,0.30180048,1.11911328
2.63761359

>  <Name>
ligand

>  <RI>
0

>  <Rbt.Current_Directory>
/home/itssahil/PROJECTS/Mol_Feturizer/New_Systems/rnas/3E5F

>  <Rbt.Executable>
rbdock ($Id: //depot/dev/client3/rdock/2013.1/src/exe/rbdock.cxx#4 $)

>  <Rbt.Library>
libRbt.so (2013.1, Build901 2013/11/27)

>  <Rbt.Parameter_File>
/export/apps/rDock/src/rDock_2013.1_src/data/scripts/dock_solv.prm

>  <Rbt.Receptor>
prm/pocket_docking_6.prm

>  <SCORE>
-12.3171

>  <SCORE.INTER>
-13.4849

>  <SCORE.INTER.CONST>
1

>  <SCORE.INTER.POLAR>
0

>  <SCORE.INTER.ROT>
7

>  <SCORE.INTER.SOLV>
15.5116

>  <SCORE.INTER.VDW>
-22.4271

>  <SCORE.INTER.norm>
-0.499442

>  <SCORE.INTRA>
1.16786

>  <SCORE.INTRA.DIHEDRAL>
1.72825

>  <SCORE.INTRA.DIHEDRAL.0>
4.89803

>  <SCORE.INTRA.POLAR>
0

>  <SCORE.INTRA.POLAR.0>
0

>  <SCORE.INTRA.REPUL>
0

>  <SCORE.INTRA.REPUL.0>
0

>  <SCORE.INTRA.SOLV>
0.451598

>  <SCORE.INTRA.SOLV.lig_0>
-48.5832

>  <SCORE.INTRA.VDW>
0.0779415

>  <SCORE.INTRA.VDW.0>
-2.39056

>  <SCORE.INTRA.norm>
0.0432542

>  <SCORE.RESTR>
0

>  <SCORE.RESTR.CAVITY>
0

>  <SCORE.RESTR.norm>
0

>  <SCORE.SYSTEM>
0

>  <SCORE.SYSTEM.CONST>
0

>  <SCORE.SYSTEM.DIHEDRAL>
0

>  <SCORE.SYSTEM.SOLV>
0

>  <SCORE.SYSTEM.norm>
0

>  <SCORE.heavy>
27

>  <SCORE.norm>
-0.456187

>  <RMSD>
5.544

$$$$
ligand
 OpenBabel11021811473D
libRbt.so/2013.1/901 2013/11/27
 27 29  0  0  0  0  0  0  0  0999 V2000
   16.7567   -4.1967  -21.9118 N   0  0  0  0  0  0  0  0  0  0  0  0
   16.9880   -5.3471  -21.0258 C   0  0  2  0  0  0  0  0  0  0  0  0
   18.3577   -5.2202  -20.3519 C   0  0  0  0  0  0  0  0  0  0  0  0
   18.3906   -5.3403  -19.1077 O   0  0  0  0  0  0  0  0  0  0  0  0
   16.9541   -6.6280  -21.8613 C   0  0  0  0  0  0  0  0  0  0  0  0
   15.6107   -6.8155  -22.5709 C   0  0  0  0  0  0  0  0  0  0  0  0
   15.3418   -7.8845  -25.1892 C   0  0  0  0  0  0  0  0  0  0  0  0
   15.5432   -8.4542  -23.4455 Se  0  0  2  0  0  0  0  0  0  0  0  0
   13.8777   -9.2052  -23.1015 C   0  0  0  0  0  0  0  0  0  0  0  0
   13.3870   -8.9770  -21.6712 C   0  0  1  0  0  0  0  0  0  0  0  0
   12.0277   -9.4371  -21.5799 O   0  0  0  0  0  0  0  0  0  0  0  0
   14.1774   -9.9214  -20.7647 C   0  0  1  0  0  0  0  0  0  0  0  0
   13.8971   -9.6194  -19.3970 O   0  0  0  0  0  0  0  0  0  0  0  0
   13.5179  -11.2427  -21.1520 C   0  0  1  0  0  0  0  0  0  0  0  0
   13.7274  -12.1871  -20.1006 O   0  0  0  0  0  0  0  0  0  0  0  0
   12.0516  -10.8084  -21.1452 C   0  0  2  0  0  0  0  0  0  0  0  0
   19.3400   -4.9966  -21.0931 O   0  0  0  0  0  0  0  0  0  0  0  0
    8.9603  -14.9335  -21.4142 N   0  0  0  0  0  0  0  0  0  0  0  0
    9.5711  -14.4237  -20.3585 C   0  0  0  0  0  0  0  0  0  0  0  0
   10.3375  -13.3506  -20.4478 N   0  0  0  0  0  0  0  0  0  0  0  0
   10.5178  -12.7372  -21.6272 C   0  0  0  0  0  0  0  0  0  0  0  0
    9.8942  -13.2443  -22.7585 C   0  0  0  0  0  0  0  0  0  0  0  0
    9.0994  -14.3766  -22.6241 C   0  0  0  0  0  0  0  0  0  0  0  0
    8.5169  -14.9144  -23.6912 N   0  0  0  0  0  0  0  0  0  0  0  0
   10.2287  -12.4698  -23.7845 N   0  0  0  0  0  0  0  0  0  0  0  0
   11.0304  -11.5136  -23.3213 C   0  0  0  0  0  0  0  0  0  0  0  0
   11.2107  -11.6694  -22.0096 N   0  0  0  0  0  0  0  0  0  0  0  0
  2  1  1  6  0  0  0
  2  5  1  0  0  0  0
  2  3  1  0  0  0  0
  3 17  1  0  0  0  0
  3  4  1  0  0  0  0
  5  6  1  0  0  0  0
  7  8  1  0  0  0  0
  8  6  1  1  0  0  0
  8  9  1  0  0  0  0
 10  9  1  6  0  0  0
 10 11  1  0  0  0  0
 10 12  1  0  0  0  0
 11 16  1  0  0  0  0
 12 13  1  1  0  0  0
 12 14  1  0  0  0  0
 14 15  1  1  0  0  0
 14 16  1  0  0  0  0
 16 27  1  6  0  0  0
 18 23  2  0  0  0  0
 18 19  1  0  0  0  0
 19 20  2  0  0  0  0
 20 21  1  0  0  0  0
 21 22  2  0  0  0  0
 21 27  1  0  0  0  0
 22 23  1  0  0  0  0
 22 25  1  0  0  0  0
 23 24  1  0  0  0  0
 25 26  2  0  0  0  0
 26 27  1  0  0  0  0
M  END
>  <CHROM.1>
-59.70601733,128.73521290,-174.65064464,-118.09392651,-38.82447177,172.23983529
-146.74663476,13.73827462,-9.67976498,-21.98847687,0.07180200,-0.79376174
-1.41893987

>  <Name>
ligand

>  <RI>
0

>  <Rbt.Current_Directory>
/home/itssahil/PROJECTS/Mol_Feturizer/New_Systems/rnas/3E5F

>  <Rbt.Executable>
rbdock ($Id: //depot/dev/client3/rdock/2013.1/src/exe/rbdock.cxx#4 $)

>  <Rbt.Library>
libRbt.so (2013.1, Build901 2013/11/27)

>  <Rbt.Parameter_File>
/export/apps/rDock/src/rDock_2013.1_src/data/scripts/dock_solv.prm

>  <Rbt.Receptor>
prm/pocket_docking_8.prm

>  <SCORE>
-18.9466

>  <SCORE.INTER>
-20.0101

>  <SCORE.INTER.CONST>
1

>  <SCORE.INTER.POLAR>
0

>  <SCORE.INTER.ROT>
7

>  <SCORE.INTER.SOLV>
11.2369

>  <SCORE.INTER.VDW>
-25.3524

>  <SCORE.INTER.norm>
-0.741115

>  <SCORE.INTRA>
1.06355

>  <SCORE.INTRA.DIHEDRAL>
1.48132

>  <SCORE.INTRA.DIHEDRAL.0>
4.89803

>  <SCORE.INTRA.POLAR>
0

>  <SCORE.INTRA.POLAR.0>
0

>  <SCORE.INTRA.REPUL>
0

>  <SCORE.INTRA.REPUL.0>
0

>  <SCORE.INTRA.SOLV>
0.713475

>  <SCORE.INTRA.SOLV.lig_0>
-48.5832

>  <SCORE.INTRA.VDW>
-0.0338463

>  <SCORE.INTRA.VDW.0>
-2.39056

>  <SCORE.INTRA.norm>
0.0393908

>  <SCORE.RESTR>
0

>  <SCORE.RESTR.CAVITY>
0

>  <SCORE.RESTR.norm>
0

>  <SCORE.SYSTEM>
0

>  <SCORE.SYSTEM.CONST>
0

>  <SCORE.SYSTEM.DIHEDRAL>
0

>  <SCORE.SYSTEM.SOLV>
0

>  <SCORE.SYSTEM.norm>
0

>  <SCORE.heavy>
27

>  <SCORE.norm>
-0.701724

>  <RMSD>
5.545

$$$$
ligand
 OpenBabel11021811473D
libRbt.so/2013.1/901 2013/11/27
 27 29  0  0  0  0  0  0  0  0999 V2000
   16.3238   -5.3473  -19.2920 N   0  0  0  0  0  0  0  0  0  0  0  0
   16.1519   -5.2713  -20.7502 C   0  0  2  0  0  0  0  0  0  0  0  0
   14.9597   -4.3714  -21.0894 C   0  0  0  0  0  0  0  0  0  0  0  0
   13.8915   -4.5910  -20.4775 O   0  0  0  0  0  0  0  0  0  0  0  0
   15.8909   -6.6785  -21.2902 C   0  0  0  0  0  0  0  0  0  0  0  0
   15.7233   -6.6879  -22.8118 C   0  0  0  0  0  0  0  0  0  0  0  0
   15.3367   -8.0878  -25.2533 C   0  0  0  0  0  0  0  0  0  0  0  0
   15.5493   -8.4244  -23.4513 Se  0  0  2  0  0  0  0  0  0  0  0  0
   13.8555   -9.0285  -22.9801 C   0  0  0  0  0  0  0  0  0  0  0  0
   13.4919   -8.7541  -21.5203 C   0  0  1  0  0  0  0  0  0  0  0  0
   12.1248   -9.1482  -21.3122 O   0  0  0  0  0  0  0  0  0  0  0  0
   14.3086   -9.7196  -20.6605 C   0  0  1  0  0  0  0  0  0  0  0  0
   14.1529   -9.3822  -19.2812 O   0  0  0  0  0  0  0  0  0  0  0  0
   13.5607  -11.0146  -20.9676 C   0  0  1  0  0  0  0  0  0  0  0  0
   13.8105  -11.9504  -19.9173 O   0  0  0  0  0  0  0  0  0  0  0  0
   12.1210  -10.5118  -20.8533 C   0  0  2  0  0  0  0  0  0  0  0  0
   15.1386   -3.4905  -21.9590 O   0  0  0  0  0  0  0  0  0  0  0  0
    9.1013  -14.6980  -20.8966 N   0  0  0  0  0  0  0  0  0  0  0  0
    9.8550  -14.2306  -19.9164 C   0  0  0  0  0  0  0  0  0  0  0  0
   10.5791  -13.1340  -20.0567 N   0  0  0  0  0  0  0  0  0  0  0  0
   10.5678  -12.4519  -21.2119 C   0  0  0  0  0  0  0  0  0  0  0  0
    9.7899  -12.9128  -22.2647 C   0  0  0  0  0  0  0  0  0  0  0  0
    9.0456  -14.0718  -22.0790 C   0  0  0  0  0  0  0  0  0  0  0  0
    8.3185  -14.5657  -23.0765 N   0  0  0  0  0  0  0  0  0  0  0  0
    9.9511  -12.0743  -23.2822 N   0  0  0  0  0  0  0  0  0  0  0  0
   10.7958  -11.1237  -22.8892 C   0  0  0  0  0  0  0  0  0  0  0  0
   11.1751  -11.3464  -21.6307 N   0  0  0  0  0  0  0  0  0  0  0  0
  2  1  1  1  0  0  0
  2  5  1  0  0  0  0
  2  3  1  0  0  0  0
  3 17  1  0  0  0  0
  3  4  1  0  0  0  0
  5  6  1  0  0  0  0
  7  8  1  0  0  0  0
  8  6  1  1  0  0  0
  8  9  1  0  0  0  0
 10  9  1  6  0  0  0
 10 11  1  0  0  0  0
 10 12  1  0  0  0  0
 11 16  1  0  0  0  0
 12 13  1  1  0  0  0
 12 14  1  0  0  0  0
 14 15  1  1  0  0  0
 14 16  1  0  0  0  0
 16 27  1  6  0  0  0
 18 23  2  0  0  0  0
 18 19  1  0  0  0  0
 19 20  2  0  0  0  0
 20 21  1  0  0  0  0
 21 22  2  0  0  0  0
 21 27  1  0  0  0  0
 22 23  1  0  0  0  0
 22 25  1  0  0  0  0
 23 24  1  0  0  0  0
 25 26  2  0  0  0  0
 26 27  1  0  0  0  0
M  END
>  <CHROM.1>
-179.04507308,-49.05469957,175.27731546,178.90479455,-47.11285118,174.62649918
-153.88523507,13.27813250,-9.45581381,-21.80368683,0.26515182,0.88729428
1.18706173

>  <Name>
ligand

>  <RI>
0

>  <Rbt.Current_Directory>
/home/itssahil/PROJECTS/Mol_Feturizer/New_Systems/rnas/3E5F

>  <Rbt.Executable>
rbdock ($Id: //depot/dev/client3/rdock/2013.1/src/exe/rbdock.cxx#4 $)

>  <Rbt.Library>
libRbt.so (2013.1, Build901 2013/11/27)

>  <Rbt.Parameter_File>
/export/apps/rDock/src/rDock_2013.1_src/data/scripts/dock_solv.prm

>  <Rbt.Receptor>
prm/blind_docking_40.prm

>  <SCORE>
-20.2836

>  <SCORE.INTER>
-19.5652

>  <SCORE.INTER.CONST>
1

>  <SCORE.INTER.POLAR>
0

>  <SCORE.INTER.ROT>
7

>  <SCORE.INTER.SOLV>
10.0159

>  <SCORE.INTER.VDW>
-24.6488

>  <SCORE.INTER.norm>
-0.724638

>  <SCORE.INTRA>
-0.718325

>  <SCORE.INTRA.DIHEDRAL>
-1.17327

>  <SCORE.INTRA.DIHEDRAL.0>
4.89803

>  <SCORE.INTRA.POLAR>
0

>  <SCORE.INTRA.POLAR.0>
0

>  <SCORE.INTRA.REPUL>
0

>  <SCORE.INTRA.REPUL.0>
0

>  <SCORE.INTRA.SOLV>
0.162982

>  <SCORE.INTRA.SOLV.lig_0>
-48.5832

>  <SCORE.INTRA.VDW>
-0.213182

>  <SCORE.INTRA.VDW.0>
-2.39056

>  <SCORE.INTRA.norm>
-0.0266046

>  <SCORE.RESTR>
0

>  <SCORE.RESTR.CAVITY>
0

>  <SCORE.RESTR.norm>
0

>  <SCORE.SYSTEM>
0

>  <SCORE.SYSTEM.CONST>
0

>  <SCORE.SYSTEM.DIHEDRAL>
0

>  <SCORE.SYSTEM.SOLV>
0

>  <SCORE.SYSTEM.norm>
0

>  <SCORE.heavy>
27

>  <SCORE.norm>
-0.751243

>  <RMSD>
5.546

$$$$
ligand
 OpenBabel11021811473D
libRbt.so/2013.1/901 2013/11/27
 27 29  0  0  0  0  0  0  0  0999 V2000
    8.5472   -9.5078  -15.7260 N   0  0  0  0  0  0  0  0  0  0  0  0
    9.1004   -8.5645  -16.7089 C   0  0  2  0  0  0  0  0  0  0  0  0
    8.0548   -8.2593  -17.7859 C   0  0  0  0  0  0  0  0  0  0  0  0
    7.5373   -9.2380  -18.3671 O   0  0  0  0  0  0  0  0  0  0  0  0
   10.3286   -9.1985  -17.3642 C   0  0  0  0  0  0  0  0  0  0  0  0
   11.0669   -8.2136  -18.2742 C   0  0  0  0  0  0  0  0  0  0  0  0
   13.5838   -8.3926  -16.9690 C   0  0  0  0  0  0  0  0  0  0  0  0
   12.8069   -8.7818  -18.5970 Se  0  0  2  0  0  0  0  0  0  0  0  0
   13.6106   -7.5250  -19.7063 C   0  0  0  0  0  0  0  0  0  0  0  0
   15.0916   -7.7997  -19.9704 C   0  0  1  0  0  0  0  0  0  0  0  0
   15.1965   -8.9994  -20.7561 O   0  0  0  0  0  0  0  0  0  0  0  0
   15.6019   -6.6890  -20.8892 C   0  0  1  0  0  0  0  0  0  0  0  0
   17.0212   -6.7869  -21.0170 O   0  0  0  0  0  0  0  0  0  0  0  0
   14.9308   -7.1195  -22.1911 C   0  0  1  0  0  0  0  0  0  0  0  0
   15.6426   -6.5437  -23.2879 O   0  0  0  0  0  0  0  0  0  0  0  0
   15.2200   -8.6204  -22.1439 C   0  0  2  0  0  0  0  0  0  0  0  0
    7.8025   -7.0552  -18.0115 O   0  0  0  0  0  0  0  0  0  0  0  0
   12.3534  -12.9025  -22.4457 N   0  0  0  0  0  0  0  0  0  0  0  0
   13.1667  -12.5168  -21.4776 C   0  0  0  0  0  0  0  0  0  0  0  0
   13.8388  -11.3808  -21.5436 N   0  0  0  0  0  0  0  0  0  0  0  0
   13.7113  -10.5733  -22.6074 C   0  0  0  0  0  0  0  0  0  0  0  0
   12.8678  -10.9453  -23.6447 C   0  0  0  0  0  0  0  0  0  0  0  0
   12.1814  -12.1494  -23.5396 C   0  0  0  0  0  0  0  0  0  0  0  0
   11.3943  -12.5582  -24.5298 N   0  0  0  0  0  0  0  0  0  0  0  0
   12.9178   -9.9906  -24.5669 N   0  0  0  0  0  0  0  0  0  0  0  0
   13.7578   -9.0547  -24.1310 C   0  0  0  0  0  0  0  0  0  0  0  0
   14.2443   -9.4020  -22.9394 N   0  0  0  0  0  0  0  0  0  0  0  0
  2  1  1  1  0  0  0
  2  5  1  0  0  0  0
  2  3  1  0  0  0  0
  3 17  1  0  0  0  0
  3  4  1  0  0  0  0
  5  6  1  0  0  0  0
  7  8  1  0  0  0  0
  8  6  1  1  0  0  0
  8  9  1  0  0  0  0
 10  9  1  6  0  0  0
 10 11  1  0  0  0  0
 10 12  1  0  0  0  0
 11 16  1  0  0  0  0
 12 13  1  6  0  0  0
 12 14  1  0  0  0  0
 14 15  1  6  0  0  0
 14 16  1  0  0  0  0
 16 27  1  6  0  0  0
 18 23  2  0  0  0  0
 18 19  1  0  0  0  0
 19 20  2  0  0  0  0
 20 21  1  0  0  0  0
 21 22  2  0  0  0  0
 21 27  1  0  0  0  0
 22 23  1  0  0  0  0
 22 25  1  0  0  0  0
 23 24  1  0  0  0  0
 25 26  2  0  0  0  0
 26 27  1  0  0  0  0
M  END
>  <CHROM.1>
-172.87043201,-53.21624717,161.02082824,-74.29235239,175.31295295,67.52174784
-20.80750479,12.67074332,-9.09244716,-20.34107457,2.43058043,0.48724131,0.93415081

>  <Name>
ligand

>  <RI>
0

>  <Rbt.Current_Directory>
/home/itssahil/PROJECTS/Mol_Feturizer/New_Systems/rnas/3E5F

>  <Rbt.Executable>
rbdock ($Id: //depot/dev/client3/rdock/2013.1/src/exe/rbdock.cxx#4 $)

>  <Rbt.Library>
libRbt.so (2013.1, Build901 2013/11/27)

>  <Rbt.Parameter_File>
/export/apps/rDock/src/rDock_2013.1_src/data/scripts/dock_solv.prm

>  <Rbt.Receptor>
prm/pocket_docking_8.prm

>  <SCORE>
-12.3604

>  <SCORE.INTER>
-12.7567

>  <SCORE.INTER.CONST>
1

>  <SCORE.INTER.POLAR>
0

>  <SCORE.INTER.ROT>
7

>  <SCORE.INTER.SOLV>
11.2847

>  <SCORE.INTER.VDW>
-20.5327

>  <SCORE.INTER.norm>
-0.472469

>  <SCORE.INTRA>
0.396223

>  <SCORE.INTRA.DIHEDRAL>
-0.217283

>  <SCORE.INTRA.DIHEDRAL.0>
4.89803

>  <SCORE.INTRA.POLAR>
0

>  <SCORE.INTRA.POLAR.0>
0

>  <SCORE.INTRA.REPUL>
0

>  <SCORE.INTRA.REPUL.0>
0

>  <SCORE.INTRA.SOLV>
0.0619023

>  <SCORE.INTRA.SOLV.lig_0>
-48.5832

>  <SCORE.INTRA.VDW>
0.473913

>  <SCORE.INTRA.VDW.0>
-2.39056

>  <SCORE.INTRA.norm>
0.0146749

>  <SCORE.RESTR>
0

>  <SCORE.RESTR.CAVITY>
0

>  <SCORE.RESTR.norm>
0

>  <SCORE.SYSTEM>
0

>  <SCORE.SYSTEM.CONST>
0

>  <SCORE.SYSTEM.DIHEDRAL>
0

>  <SCORE.SYSTEM.SOLV>
0

>  <SCORE.SYSTEM.norm>
0

>  <SCORE.heavy>
27

>  <SCORE.norm>
-0.457794

>  <RMSD>
5.575

$$$$
ligand
 OpenBabel11021811473D
libRbt.so/2013.1/901 2013/11/27
 27 29  0  0  0  0  0  0  0  0999 V2000
   15.1193   -8.1570  -15.3831 N   0  0  0  0  0  0  0  0  0  0  0  0
   16.5725   -7.9928  -15.5348 C   0  0  2  0  0  0  0  0  0  0  0  0
   17.0539   -6.8032  -14.6985 C   0  0  0  0  0  0  0  0  0  0  0  0
   16.3499   -5.7701  -14.7246 O   0  0  0  0  0  0  0  0  0  0  0  0
   16.8886   -7.7334  -17.0088 C   0  0  0  0  0  0  0  0  0  0  0  0
   18.3949   -7.6418  -17.2658 C   0  0  0  0  0  0  0  0  0  0  0  0
   20.5285   -6.6719  -18.8712 C   0  0  0  0  0  0  0  0  0  0  0  0
   18.7407   -7.1073  -19.0120 Se  0  0  2  0  0  0  0  0  0  0  0  0
   17.9650   -5.4347  -19.2506 C   0  0  0  0  0  0  0  0  0  0  0  0
   18.3629   -4.7568  -20.5623 C   0  0  1  0  0  0  0  0  0  0  0  0
   18.1205   -5.6778  -21.6397 O   0  0  0  0  0  0  0  0  0  0  0  0
   17.3752   -3.6140  -20.7999 C   0  0  1  0  0  0  0  0  0  0  0  0
   17.8100   -2.8277  -21.9104 O   0  0  0  0  0  0  0  0  0  0  0  0
   16.1449   -4.4296  -21.1893 C   0  0  1  0  0  0  0  0  0  0  0  0
   15.2548   -3.5940  -21.9314 O   0  0  0  0  0  0  0  0  0  0  0  0
   16.7947   -5.4337  -22.1423 C   0  0  2  0  0  0  0  0  0  0  0  0
   18.1191   -6.9486  -14.0594 O   0  0  0  0  0  0  0  0  0  0  0  0
   14.5233   -8.8379  -25.2882 N   0  0  0  0  0  0  0  0  0  0  0  0
   15.2007   -7.7463  -25.5996 C   0  0  0  0  0  0  0  0  0  0  0  0
   15.7305   -6.9671  -24.6729 N   0  0  0  0  0  0  0  0  0  0  0  0
   15.5978   -7.2668  -23.3719 C   0  0  0  0  0  0  0  0  0  0  0  0
   14.8917   -8.4041  -23.0060 C   0  0  0  0  0  0  0  0  0  0  0  0
   14.3463   -9.1956  -24.0099 C   0  0  0  0  0  0  0  0  0  0  0  0
   13.6307  -10.2715  -23.6977 N   0  0  0  0  0  0  0  0  0  0  0  0
   14.9024   -8.4757  -21.6796 N   0  0  0  0  0  0  0  0  0  0  0  0
   15.5861   -7.4276  -21.2263 C   0  0  0  0  0  0  0  0  0  0  0  0
   16.0126   -6.6876  -22.2499 N   0  0  0  0  0  0  0  0  0  0  0  0
  2  1  1  6  0  0  0
  2  5  1  0  0  0  0
  2  3  1  0  0  0  0
  3 17  1  0  0  0  0
  3  4  1  0  0  0  0
  5  6  1  0  0  0  0
  7  8  1  0  0  0  0
  8  6  1  1  0  0  0
  8  9  1  0  0  0  0
 10  9  1  1  0  0  0
 10 11  1  0  0  0  0
 10 12  1  0  0  0  0
 11 16  1  0  0  0  0
 12 13  1  6  0  0  0
 12 14  1  0  0  0  0
 14 15  1  6  0  0  0
 14 16  1  0  0  0  0
 16 27  1  1  0  0  0
 18 23  2  0  0  0  0
 18 19  1  0  0  0  0
 19 20  2  0  0  0  0
 20 21  1  0  0  0  0
 21 22  2  0  0  0  0
 21 27  1  0  0  0  0
 22 23  1  0  0  0  0
 22 25  1  0  0  0  0
 23 24  1  0  0  0  0
 25 26  2  0  0  0  0
 26 27  1  0  0  0  0
M  END
>  <CHROM.1>
-176.25870587,-42.61522921,-172.55649424,165.90392324,170.23501350,51.97525068
-112.80219301,16.89608015,-6.73820907,-20.11477924,1.02833861,0.93274099
1.94846915

>  <Name>
ligand

>  <RI>
0

>  <Rbt.Current_Directory>
/home/itssahil/PROJECTS/Mol_Feturizer/New_Systems/rnas/3E5F

>  <Rbt.Executable>
rbdock ($Id: //depot/dev/client3/rdock/2013.1/src/exe/rbdock.cxx#4 $)

>  <Rbt.Library>
libRbt.so (2013.1, Build901 2013/11/27)

>  <Rbt.Parameter_File>
/export/apps/rDock/src/rDock_2013.1_src/data/scripts/dock_solv.prm

>  <Rbt.Receptor>
prm/pocket_docking_6.prm

>  <SCORE>
-16.625

>  <SCORE.INTER>
-15.8816

>  <SCORE.INTER.CONST>
1

>  <SCORE.INTER.POLAR>
0

>  <SCORE.INTER.ROT>
7

>  <SCORE.INTER.SOLV>
14.6592

>  <SCORE.INTER.VDW>
-23.7408

>  <SCORE.INTER.norm>
-0.588208

>  <SCORE.INTRA>
-0.743418

>  <SCORE.INTRA.DIHEDRAL>
-1.40518

>  <SCORE.INTRA.DIHEDRAL.0>
4.89803

>  <SCORE.INTRA.POLAR>
0

>  <SCORE.INTRA.POLAR.0>
0

>  <SCORE.INTRA.REPUL>
0

>  <SCORE.INTRA.REPUL.0>
0

>  <SCORE.INTRA.SOLV>
-0.0339301

>  <SCORE.INTRA.SOLV.lig_0>
-48.5832

>  <SCORE.INTRA.VDW>
-0.0238638

>  <SCORE.INTRA.VDW.0>
-2.39056

>  <SCORE.INTRA.norm>
-0.027534

>  <SCORE.RESTR>
0

>  <SCORE.RESTR.CAVITY>
0

>  <SCORE.RESTR.norm>
0

>  <SCORE.SYSTEM>
0

>  <SCORE.SYSTEM.CONST>
0

>  <SCORE.SYSTEM.DIHEDRAL>
0

>  <SCORE.SYSTEM.SOLV>
0

>  <SCORE.SYSTEM.norm>
0

>  <SCORE.heavy>
27

>  <SCORE.norm>
-0.615742

>  <RMSD>
5.580

$$$$
ligand
 OpenBabel11021811473D
libRbt.so/2013.1/901 2013/11/27
 27 29  0  0  0  0  0  0  0  0999 V2000
   17.0763   -5.3134  -21.3155 N   0  0  0  0  0  0  0  0  0  0  0  0
   16.0863   -6.0069  -20.4785 C   0  0  2  0  0  0  0  0  0  0  0  0
   16.1773   -5.5022  -19.0352 C   0  0  0  0  0  0  0  0  0  0  0  0
   17.3230   -5.3688  -18.5524 O   0  0  0  0  0  0  0  0  0  0  0  0
   16.3807   -7.5077  -20.5071 C   0  0  0  0  0  0  0  0  0  0  0  0
   15.3081   -8.3175  -19.7743 C   0  0  0  0  0  0  0  0  0  0  0  0
   12.8929   -6.8802  -20.1884 C   0  0  0  0  0  0  0  0  0  0  0  0
   13.7442   -8.4091  -20.7745 Se  0  0  2  0  0  0  0  0  0  0  0  0
   12.6799   -9.7396  -20.0305 C   0  0  0  0  0  0  0  0  0  0  0  0
   13.2898  -11.1384  -20.1300 C   0  0  1  0  0  0  0  0  0  0  0  0
   12.3681  -12.0767  -19.5489 O   0  0  0  0  0  0  0  0  0  0  0  0
   13.3360  -11.5085  -21.6129 C   0  0  1  0  0  0  0  0  0  0  0  0
   14.0685  -12.7232  -21.7813 O   0  0  0  0  0  0  0  0  0  0  0  0
   11.8490  -11.7599  -21.8498 C   0  0  1  0  0  0  0  0  0  0  0  0
   11.7006  -12.5902  -23.0029 O   0  0  0  0  0  0  0  0  0  0  0  0
   11.5263  -12.5814  -20.6009 C   0  0  2  0  0  0  0  0  0  0  0  0
   15.1005   -5.2699  -18.4428 O   0  0  0  0  0  0  0  0  0  0  0  0
    7.7784   -9.7704  -18.4338 N   0  0  0  0  0  0  0  0  0  0  0  0
    9.0536   -9.4637  -18.5990 C   0  0  0  0  0  0  0  0  0  0  0  0
    9.9006  -10.2956  -19.1797 N   0  0  0  0  0  0  0  0  0  0  0  0
    9.4852  -11.4901  -19.6276 C   0  0  0  0  0  0  0  0  0  0  0  0
    8.1536  -11.8483  -19.4704 C   0  0  0  0  0  0  0  0  0  0  0  0
    7.2951  -10.9475  -18.8513 C   0  0  0  0  0  0  0  0  0  0  0  0
    6.0216  -11.2703  -18.6480 N   0  0  0  0  0  0  0  0  0  0  0  0
    7.9990  -13.0619  -19.9878 N   0  0  0  0  0  0  0  0  0  0  0  0
    9.1830  -13.4544  -20.4520 C   0  0  0  0  0  0  0  0  0  0  0  0
   10.0921  -12.5034  -20.2368 N   0  0  0  0  0  0  0  0  0  0  0  0
  2  1  1  6  0  0  0
  2  5  1  0  0  0  0
  2  3  1  0  0  0  0
  3 17  1  0  0  0  0
  3  4  1  0  0  0  0
  5  6  1  0  0  0  0
  7  8  1  0  0  0  0
  8  6  1  1  0  0  0
  8  9  1  0  0  0  0
 10  9  1  6  0  0  0
 10 11  1  0  0  0  0
 10 12  1  0  0  0  0
 11 16  1  0  0  0  0
 12 13  1  1  0  0  0
 12 14  1  0  0  0  0
 14 15  1  6  0  0  0
 14 16  1  0  0  0  0
 16 27  1  1  0  0  0
 18 23  2  0  0  0  0
 18 19  1  0  0  0  0
 19 20  2  0  0  0  0
 20 21  1  0  0  0  0
 21 22  2  0  0  0  0
 21 27  1  0  0  0  0
 22 23  1  0  0  0  0
 22 25  1  0  0  0  0
 23 24  1  0  0  0  0
 25 26  2  0  0  0  0
 26 27  1  0  0  0  0
M  END
>  <CHROM.1>
-174.17121120,-44.06060441,74.04858171,-88.36589466,-64.49159877,-178.85761392
42.11506387,12.41359590,-9.62551908,-20.16472371,-0.57080148,-0.36400947
-2.66654761

>  <Name>
ligand

>  <RI>
0

>  <Rbt.Current_Directory>
/home/itssahil/PROJECTS/Mol_Feturizer/New_Systems/rnas/3E5F

>  <Rbt.Executable>
rbdock ($Id: //depot/dev/client3/rdock/2013.1/src/exe/rbdock.cxx#4 $)

>  <Rbt.Library>
libRbt.so (2013.1, Build901 2013/11/27)

>  <Rbt.Parameter_File>
/export/apps/rDock/src/rDock_2013.1_src/data/scripts/dock_solv.prm

>  <Rbt.Receptor>
prm/blind_docking_100.prm

>  <SCORE>
-13.591

>  <SCORE.INTER>
-12.8044

>  <SCORE.INTER.CONST>
1

>  <SCORE.INTER.POLAR>
0

>  <SCORE.INTER.ROT>
7

>  <SCORE.INTER.SOLV>
7.7011

>  <SCORE.INTER.VDW>
-19.37

>  <SCORE.INTER.norm>
-0.474238

>  <SCORE.INTRA>
-0.786588

>  <SCORE.INTRA.DIHEDRAL>
-0.441118

>  <SCORE.INTRA.DIHEDRAL.0>
4.89803

>  <SCORE.INTRA.POLAR>
0

>  <SCORE.INTRA.POLAR.0>
0

>  <SCORE.INTRA.REPUL>
0

>  <SCORE.INTRA.REPUL.0>
0

>  <SCORE.INTRA.SOLV>
0.157859

>  <SCORE.INTRA.SOLV.lig_0>
-48.5832

>  <SCORE.INTRA.VDW>
-0.644958

>  <SCORE.INTRA.VDW.0>
-2.39056

>  <SCORE.INTRA.norm>
-0.0291329

>  <SCORE.RESTR>
0

>  <SCORE.RESTR.CAVITY>
0

>  <SCORE.RESTR.norm>
0

>  <SCORE.SYSTEM>
0

>  <SCORE.SYSTEM.CONST>
0

>  <SCORE.SYSTEM.DIHEDRAL>
0

>  <SCORE.SYSTEM.SOLV>
0

>  <SCORE.SYSTEM.norm>
0

>  <SCORE.heavy>
27

>  <SCORE.norm>
-0.503371

>  <RMSD>
5.586

$$$$
ligand
 OpenBabel11021811473D
libRbt.so/2013.1/901 2013/11/27
 27 29  0  0  0  0  0  0  0  0999 V2000
   15.9281   -4.6098  -20.1992 N   0  0  0  0  0  0  0  0  0  0  0  0
   17.2691   -5.1938  -20.3494 C   0  0  2  0  0  0  0  0  0  0  0  0
   18.0483   -4.4414  -21.4324 C   0  0  0  0  0  0  0  0  0  0  0  0
   17.4500   -3.5140  -22.0203 O   0  0  0  0  0  0  0  0  0  0  0  0
   17.1252   -6.6606  -20.7591 C   0  0  0  0  0  0  0  0  0  0  0  0
   16.2689   -6.8241  -22.0174 C   0  0  0  0  0  0  0  0  0  0  0  0
   14.6368   -8.4557  -23.6741 C   0  0  0  0  0  0  0  0  0  0  0  0
   15.9156   -8.6177  -22.3535 Se  0  0  2  0  0  0  0  0  0  0  0  0
   14.9074   -9.2664  -20.9326 C   0  0  0  0  0  0  0  0  0  0  0  0
   13.8742   -8.2680  -20.4090 C   0  0  1  0  0  0  0  0  0  0  0  0
   12.5840   -8.6394  -20.9241 O   0  0  0  0  0  0  0  0  0  0  0  0
   13.7639   -8.4798  -18.8986 C   0  0  1  0  0  0  0  0  0  0  0  0
   12.9552   -7.4499  -18.3279 O   0  0  0  0  0  0  0  0  0  0  0  0
   13.0033   -9.8034  -18.8911 C   0  0  1  0  0  0  0  0  0  0  0  0
   12.3517   -9.9525  -17.6284 O   0  0  0  0  0  0  0  0  0  0  0  0
   11.9525   -9.5008  -19.9601 C   0  0  2  0  0  0  0  0  0  0  0  0
   19.2208   -4.8151  -21.6557 O   0  0  0  0  0  0  0  0  0  0  0  0
    8.0881  -12.9152  -20.1893 N   0  0  0  0  0  0  0  0  0  0  0  0
    8.1951  -11.8349  -19.4351 C   0  0  0  0  0  0  0  0  0  0  0  0
    9.2565  -11.0493  -19.4900 N   0  0  0  0  0  0  0  0  0  0  0  0
   10.2683  -11.3268  -20.3261 C   0  0  0  0  0  0  0  0  0  0  0  0
   10.1928  -12.4537  -21.1326 C   0  0  0  0  0  0  0  0  0  0  0  0
    9.0619  -13.2566  -21.0428 C   0  0  0  0  0  0  0  0  0  0  0  0
    8.9702  -14.3651  -21.7709 N   0  0  0  0  0  0  0  0  0  0  0  0
   11.3048  -12.5058  -21.8573 N   0  0  0  0  0  0  0  0  0  0  0  0
   12.0519  -11.4564  -21.5226 C   0  0  0  0  0  0  0  0  0  0  0  0
   11.4279  -10.7342  -20.5918 N   0  0  0  0  0  0  0  0  0  0  0  0
  2  1  1  6  0  0  0
  2  5  1  0  0  0  0
  2  3  1  0  0  0  0
  3 17  1  0  0  0  0
  3  4  1  0  0  0  0
  5  6  1  0  0  0  0
  7  8  1  0  0  0  0
  8  6  1  1  0  0  0
  8  9  1  0  0  0  0
 10  9  1  6  0  0  0
 10 11  1  0  0  0  0
 10 12  1  0  0  0  0
 11 16  1  0  0  0  0
 12 13  1  1  0  0  0
 12 14  1  0  0  0  0
 14 15  1  1  0  0  0
 14 16  1  0  0  0  0
 16 27  1  6  0  0  0
 18 23  2  0  0  0  0
 18 19  1  0  0  0  0
 19 20  2  0  0  0  0
 20 21  1  0  0  0  0
 21 22  2  0  0  0  0
 21 27  1  0  0  0  0
 22 23  1  0  0  0  0
 22 25  1  0  0  0  0
 23 24  1  0  0  0  0
 25 26  2  0  0  0  0
 26 27  1  0  0  0  0
M  END
>  <CHROM.1>
54.87688888,-1.66903255,-172.08133094,169.38275904,38.45303860,101.73112638
-139.09581863,13.67890158,-8.96122185,-20.91186857,0.33244352,0.64872492
0.88072700

>  <Name>
ligand

>  <RI>
0

>  <Rbt.Current_Directory>
/home/itssahil/PROJECTS/Mol_Feturizer/New_Systems/rnas/3E5F

>  <Rbt.Executable>
rbdock ($Id: //depot/dev/client3/rdock/2013.1/src/exe/rbdock.cxx#4 $)

>  <Rbt.Library>
libRbt.so (2013.1, Build901 2013/11/27)

>  <Rbt.Parameter_File>
/export/apps/rDock/src/rDock_2013.1_src/data/scripts/dock_solv.prm

>  <Rbt.Receptor>
prm/blind_docking_100.prm

>  <SCORE>
-9.81709

>  <SCORE.INTER>
-12.1967

>  <SCORE.INTER.CONST>
1

>  <SCORE.INTER.POLAR>
0

>  <SCORE.INTER.ROT>
7

>  <SCORE.INTER.SOLV>
9.51058

>  <SCORE.INTER.VDW>
-19.568

>  <SCORE.INTER.norm>
-0.451729

>  <SCORE.INTRA>
2.37959

>  <SCORE.INTRA.DIHEDRAL>
2.65313

>  <SCORE.INTRA.DIHEDRAL.0>
4.89803

>  <SCORE.INTRA.POLAR>
0

>  <SCORE.INTRA.POLAR.0>
0

>  <SCORE.INTRA.REPUL>
0

>  <SCORE.INTRA.REPUL.0>
0

>  <SCORE.INTRA.SOLV>
1.13443

>  <SCORE.INTRA.SOLV.lig_0>
-48.5832

>  <SCORE.INTRA.VDW>
0.485813

>  <SCORE.INTRA.VDW.0>
-2.39056

>  <SCORE.INTRA.norm>
0.0881331

>  <SCORE.RESTR>
0

>  <SCORE.RESTR.CAVITY>
0

>  <SCORE.RESTR.norm>
0

>  <SCORE.SYSTEM>
0

>  <SCORE.SYSTEM.CONST>
0

>  <SCORE.SYSTEM.DIHEDRAL>
0

>  <SCORE.SYSTEM.SOLV>
0

>  <SCORE.SYSTEM.norm>
0

>  <SCORE.heavy>
27

>  <SCORE.norm>
-0.363596

>  <RMSD>
5.594

$$$$
ligand
 OpenBabel11021811473D
libRbt.so/2013.1/901 2013/11/27
 27 29  0  0  0  0  0  0  0  0999 V2000
   14.5515   -5.5792  -19.7322 N   0  0  0  0  0  0  0  0  0  0  0  0
   13.4765   -6.1743  -20.5396 C   0  0  2  0  0  0  0  0  0  0  0  0
   12.2731   -6.4989  -19.6492 C   0  0  0  0  0  0  0  0  0  0  0  0
   11.1559   -6.5631  -20.2073 O   0  0  0  0  0  0  0  0  0  0  0  0
   13.9946   -7.4648  -21.1768 C   0  0  0  0  0  0  0  0  0  0  0  0
   15.0463   -7.1911  -22.2549 C   0  0  0  0  0  0  0  0  0  0  0  0
   15.5305   -7.8298  -24.9803 C   0  0  0  0  0  0  0  0  0  0  0  0
   15.2688   -8.6701  -23.3583 Se  0  0  2  0  0  0  0  0  0  0  0  0
   13.5962   -9.4442  -23.6025 C   0  0  0  0  0  0  0  0  0  0  0  0
   13.6069  -10.9699  -23.4995 C   0  0  1  0  0  0  0  0  0  0  0  0
   13.7718  -11.3293  -22.1169 O   0  0  0  0  0  0  0  0  0  0  0  0
   12.2041  -11.4587  -23.8621 C   0  0  1  0  0  0  0  0  0  0  0  0
   12.2051  -12.8833  -23.9672 O   0  0  0  0  0  0  0  0  0  0  0  0
   11.4606  -11.0301  -22.5996 C   0  0  1  0  0  0  0  0  0  0  0  0
   10.2678  -11.8076  -22.4816 O   0  0  0  0  0  0  0  0  0  0  0  0
   12.4632  -11.4945  -21.5422 C   0  0  2  0  0  0  0  0  0  0  0  0
   12.4940   -6.6663  -18.4296 O   0  0  0  0  0  0  0  0  0  0  0  0
    9.2465   -9.6882  -17.9318 N   0  0  0  0  0  0  0  0  0  0  0  0
    8.9653  -10.3954  -19.0127 C   0  0  0  0  0  0  0  0  0  0  0  0
    9.9073  -10.7907  -19.8511 N   0  0  0  0  0  0  0  0  0  0  0  0
   11.1940  -10.4850  -19.6253 C   0  0  0  0  0  0  0  0  0  0  0  0
   11.5280   -9.7423  -18.5015 C   0  0  0  0  0  0  0  0  0  0  0  0
   10.5082   -9.3421  -17.6461 C   0  0  0  0  0  0  0  0  0  0  0  0
   10.7842   -8.5969  -16.5804 N   0  0  0  0  0  0  0  0  0  0  0  0
   12.8456   -9.5741  -18.5067 N   0  0  0  0  0  0  0  0  0  0  0  0
   13.3242  -10.1844  -19.5883 C   0  0  0  0  0  0  0  0  0  0  0  0
   12.3255  -10.7411  -20.2737 N   0  0  0  0  0  0  0  0  0  0  0  0
  2  1  1  1  0  0  0
  2  5  1  0  0  0  0
  2  3  1  0  0  0  0
  3 17  1  0  0  0  0
  3  4  1  0  0  0  0
  5  6  1  0  0  0  0
  7  8  1  0  0  0  0
  8  6  1  1  0  0  0
  8  9  1  0  0  0  0
 10  9  1  1  0  0  0
 10 11  1  0  0  0  0
 10 12  1  0  0  0  0
 11 16  1  0  0  0  0
 12 13  1  1  0  0  0
 12 14  1  0  0  0  0
 14 15  1  1  0  0  0
 14 16  1  0  0  0  0
 16 27  1  1  0  0  0
 18 23  2  0  0  0  0
 18 19  1  0  0  0  0
 19 20  2  0  0  0  0
 20 21  1  0  0  0  0
 21 22  2  0  0  0  0
 21 27  1  0  0  0  0
 22 23  1  0  0  0  0
 22 25  1  0  0  0  0
 23 24  1  0  0  0  0
 25 26  2  0  0  0  0
 26 27  1  0  0  0  0
M  END
>  <CHROM.1>
-69.38251362,155.83895937,-162.36847838,143.08035644,-136.52614757,73.19762566
166.95907134,12.82580178,-9.24891870,-21.23303033,-0.53454580,0.75937378
0.75659271

>  <Name>
ligand

>  <RI>
0

>  <Rbt.Current_Directory>
/home/itssahil/PROJECTS/Mol_Feturizer/New_Systems/rnas/3E5F

>  <Rbt.Executable>
rbdock ($Id: //depot/dev/client3/rdock/2013.1/src/exe/rbdock.cxx#4 $)

>  <Rbt.Library>
libRbt.so (2013.1, Build901 2013/11/27)

>  <Rbt.Parameter_File>
/export/apps/rDock/src/rDock_2013.1_src/data/scripts/dock_solv.prm

>  <Rbt.Receptor>
prm/pocket_docking_5.prm

>  <SCORE>
-16.0455

>  <SCORE.INTER>
-16.5955

>  <SCORE.INTER.CONST>
1

>  <SCORE.INTER.POLAR>
0

>  <SCORE.INTER.ROT>
7

>  <SCORE.INTER.SOLV>
6.68356

>  <SCORE.INTER.VDW>
-21.5582

>  <SCORE.INTER.norm>
-0.614648

>  <SCORE.INTRA>
0.550035

>  <SCORE.INTRA.DIHEDRAL>
3.33632

>  <SCORE.INTRA.DIHEDRAL.0>
4.89803

>  <SCORE.INTRA.POLAR>
0

>  <SCORE.INTRA.POLAR.0>
0

>  <SCORE.INTRA.REPUL>
0

>  <SCORE.INTRA.REPUL.0>
0

>  <SCORE.INTRA.SOLV>
1.56695

>  <SCORE.INTRA.SOLV.lig_0>
-48.5832

>  <SCORE.INTRA.VDW>
-1.9016

>  <SCORE.INTRA.VDW.0>
-2.39056

>  <SCORE.INTRA.norm>
0.0203717

>  <SCORE.RESTR>
0

>  <SCORE.RESTR.CAVITY>
0

>  <SCORE.RESTR.norm>
0

>  <SCORE.SYSTEM>
0

>  <SCORE.SYSTEM.CONST>
0

>  <SCORE.SYSTEM.DIHEDRAL>
0

>  <SCORE.SYSTEM.SOLV>
0

>  <SCORE.SYSTEM.norm>
0

>  <SCORE.heavy>
27

>  <SCORE.norm>
-0.594276

>  <RMSD>
5.617

$$$$
ligand
 OpenBabel11021811473D
libRbt.so/2013.1/901 2013/11/27
 27 29  0  0  0  0  0  0  0  0999 V2000
   15.8830   -5.7384  -23.2241 N   0  0  0  0  0  0  0  0  0  0  0  0
   15.6853   -5.6291  -21.7713 C   0  0  2  0  0  0  0  0  0  0  0  0
   16.4530   -4.4196  -21.2291 C   0  0  0  0  0  0  0  0  0  0  0  0
   15.8822   -3.7311  -20.3552 O   0  0  0  0  0  0  0  0  0  0  0  0
   16.2125   -6.9008  -21.1045 C   0  0  0  0  0  0  0  0  0  0  0  0
   15.4918   -8.1542  -21.6075 C   0  0  0  0  0  0  0  0  0  0  0  0
   13.7696   -8.8305  -19.4518 C   0  0  0  0  0  0  0  0  0  0  0  0
   13.6905   -8.1144  -21.1508 Se  0  0  2  0  0  0  0  0  0  0  0  0
   12.8431   -9.4751  -22.0924 C   0  0  0  0  0  0  0  0  0  0  0  0
   13.6148  -10.7953  -22.0877 C   0  0  1  0  0  0  0  0  0  0  0  0
   13.0552  -11.6434  -21.0702 O   0  0  0  0  0  0  0  0  0  0  0  0
   13.3003  -11.5089  -23.4030 C   0  0  1  0  0  0  0  0  0  0  0  0
   14.1394  -12.6570  -23.5380 O   0  0  0  0  0  0  0  0  0  0  0  0
   11.8665  -11.9433  -23.1100 C   0  0  1  0  0  0  0  0  0  0  0  0
   11.5338  -13.0389  -23.9646 O   0  0  0  0  0  0  0  0  0  0  0  0
   12.0430  -12.4624  -21.6824 C   0  0  2  0  0  0  0  0  0  0  0  0
   17.5888   -4.2037  -21.7063 O   0  0  0  0  0  0  0  0  0  0  0  0
    9.0508   -9.8031  -18.4236 N   0  0  0  0  0  0  0  0  0  0  0  0
   10.2188   -9.4628  -18.9408 C   0  0  0  0  0  0  0  0  0  0  0  0
   10.8711  -10.2575  -19.7712 N   0  0  0  0  0  0  0  0  0  0  0  0
   10.3590  -11.4472  -20.1210 C   0  0  0  0  0  0  0  0  0  0  0  0
    9.1354  -11.8400  -19.5969 C   0  0  0  0  0  0  0  0  0  0  0  0
    8.4824  -10.9778  -18.7240 C   0  0  0  0  0  0  0  0  0  0  0  0
    7.3273  -11.3353  -18.1715 N   0  0  0  0  0  0  0  0  0  0  0  0
    8.8529  -13.0408  -20.0896 N   0  0  0  0  0  0  0  0  0  0  0  0
    9.8557  -13.3923  -20.8909 C   0  0  0  0  0  0  0  0  0  0  0  0
   10.7757  -12.4278  -20.9154 N   0  0  0  0  0  0  0  0  0  0  0  0
  2  1  1  6  0  0  0
  2  5  1  0  0  0  0
  2  3  1  0  0  0  0
  3 17  1  0  0  0  0
  3  4  1  0  0  0  0
  5  6  1  0  0  0  0
  7  8  1  0  0  0  0
  8  6  1  6  0  0  0
  8  9  1  0  0  0  0
 10  9  1  6  0  0  0
 10 11  1  0  0  0  0
 10 12  1  0  0  0  0
 11 16  1  0  0  0  0
 12 13  1  1  0  0  0
 12 14  1  0  0  0  0
 14 15  1  6  0  0  0
 14 16  1  0  0  0  0
 16 27  1  1  0  0  0
 18 23  2  0  0  0  0
 18 19  1  0  0  0  0
 19 20  2  0  0  0  0
 20 21  1  0  0  0  0
 21 22  2  0  0  0  0
 21 27  1  0  0  0  0
 22 23  1  0  0  0  0
 22 25  1  0  0  0  0
 23 24  1  0  0  0  0
 25 26  2  0  0  0  0
 26 27  1  0  0  0  0
M  END
>  <CHROM.1>
-59.65946311,139.62517884,-64.02577358,-85.75117277,44.09009220,98.23991807
25.83460911,12.77864580,-9.46622856,-21.09648578,-0.56351713,-0.62827730
-2.56201221

>  <Name>
ligand

>  <RI>
0

>  <Rbt.Current_Directory>
/home/itssahil/PROJECTS/Mol_Feturizer/New_Systems/rnas/3E5F

>  <Rbt.Executable>
rbdock ($Id: //depot/dev/client3/rdock/2013.1/src/exe/rbdock.cxx#4 $)

>  <Rbt.Library>
libRbt.so (2013.1, Build901 2013/11/27)

>  <Rbt.Parameter_File>
/export/apps/rDock/src/rDock_2013.1_src/data/scripts/dock_solv.prm

>  <Rbt.Receptor>
prm/blind_docking_40.prm

>  <SCORE>
-11.1256

>  <SCORE.INTER>
-12.1108

>  <SCORE.INTER.CONST>
1

>  <SCORE.INTER.POLAR>
0

>  <SCORE.INTER.ROT>
7

>  <SCORE.INTER.SOLV>
11.7246

>  <SCORE.INTER.VDW>
-20.2487

>  <SCORE.INTER.norm>
-0.448548

>  <SCORE.INTRA>
0.985222

>  <SCORE.INTRA.DIHEDRAL>
2.34507

>  <SCORE.INTRA.DIHEDRAL.0>
4.89803

>  <SCORE.INTRA.POLAR>
0

>  <SCORE.INTRA.POLAR.0>
0

>  <SCORE.INTRA.REPUL>
0

>  <SCORE.INTRA.REPUL.0>
0

>  <SCORE.INTRA.SOLV>
0.952355

>  <SCORE.INTRA.SOLV.lig_0>
-48.5832

>  <SCORE.INTRA.VDW>
-0.663492

>  <SCORE.INTRA.VDW.0>
-2.39056

>  <SCORE.INTRA.norm>
0.0364897

>  <SCORE.RESTR>
0

>  <SCORE.RESTR.CAVITY>
0

>  <SCORE.RESTR.norm>
0

>  <SCORE.SYSTEM>
0

>  <SCORE.SYSTEM.CONST>
0

>  <SCORE.SYSTEM.DIHEDRAL>
0

>  <SCORE.SYSTEM.SOLV>
0

>  <SCORE.SYSTEM.norm>
0

>  <SCORE.heavy>
27

>  <SCORE.norm>
-0.412059

>  <RMSD>
5.618

$$$$
ligand
 OpenBabel11021811473D
libRbt.so/2013.1/901 2013/11/27
 27 29  0  0  0  0  0  0  0  0999 V2000
   15.6527   -5.6702  -21.7615 N   0  0  0  0  0  0  0  0  0  0  0  0
   16.1670   -6.5381  -20.6920 C   0  0  2  0  0  0  0  0  0  0  0  0
   17.6470   -6.2346  -20.4394 C   0  0  0  0  0  0  0  0  0  0  0  0
   18.0325   -6.2439  -19.2499 O   0  0  0  0  0  0  0  0  0  0  0  0
   16.0188   -7.9973  -21.1266 C   0  0  0  0  0  0  0  0  0  0  0  0
   14.5520   -8.3974  -21.3047 C   0  0  0  0  0  0  0  0  0  0  0  0
   13.5411  -10.0614  -23.3734 C   0  0  0  0  0  0  0  0  0  0  0  0
   14.4019  -10.1965  -21.7467 Se  0  0  2  0  0  0  0  0  0  0  0  0
   13.0690  -10.9275  -20.6766 C   0  0  0  0  0  0  0  0  0  0  0  0
   11.8975   -9.9777  -20.4235 C   0  0  1  0  0  0  0  0  0  0  0  0
   11.0576   -9.9735  -21.5906 O   0  0  0  0  0  0  0  0  0  0  0  0
   11.0346  -10.6041  -19.3274 C   0  0  1  0  0  0  0  0  0  0  0  0
   10.0316   -9.6737  -18.9166 O   0  0  0  0  0  0  0  0  0  0  0  0
   10.3981  -11.7346  -20.1320 C   0  0  1  0  0  0  0  0  0  0  0  0
    9.1954  -12.1439  -19.4785 O   0  0  0  0  0  0  0  0  0  0  0  0
   10.0361  -10.9697  -21.4058 C   0  0  2  0  0  0  0  0  0  0  0  0
   18.3583   -5.9907  -21.4387 O   0  0  0  0  0  0  0  0  0  0  0  0
    9.2536  -15.7822  -23.1006 N   0  0  0  0  0  0  0  0  0  0  0  0
    9.2650  -15.3336  -21.8571 C   0  0  0  0  0  0  0  0  0  0  0  0
    9.4800  -14.0598  -21.5781 N   0  0  0  0  0  0  0  0  0  0  0  0
    9.6925  -13.1722  -22.5615 C   0  0  0  0  0  0  0  0  0  0  0  0
    9.6898  -13.6061  -23.8797 C   0  0  0  0  0  0  0  0  0  0  0  0
    9.4637  -14.9541  -24.1318 C   0  0  0  0  0  0  0  0  0  0  0  0
    9.4919  -15.4144  -25.3787 N   0  0  0  0  0  0  0  0  0  0  0  0
    9.9222  -12.5506  -24.6519 N   0  0  0  0  0  0  0  0  0  0  0  0
   10.0662  -11.4941  -23.8553 C   0  0  0  0  0  0  0  0  0  0  0  0
    9.9275  -11.8643  -22.5821 N   0  0  0  0  0  0  0  0  0  0  0  0
  2  1  1  6  0  0  0
  2  5  1  0  0  0  0
  2  3  1  0  0  0  0
  3 17  1  0  0  0  0
  3  4  1  0  0  0  0
  5  6  1  0  0  0  0
  7  8  1  0  0  0  0
  8  6  1  1  0  0  0
  8  9  1  0  0  0  0
 10  9  1  6  0  0  0
 10 11  1  0  0  0  0
 10 12  1  0  0  0  0
 11 16  1  0  0  0  0
 12 13  1  6  0  0  0
 12 14  1  0  0  0  0
 14 15  1  1  0  0  0
 14 16  1  0  0  0  0
 16 27  1  6  0  0  0
 18 23  2  0  0  0  0
 18 19  1  0  0  0  0
 19 20  2  0  0  0  0
 20 21  1  0  0  0  0
 21 22  2  0  0  0  0
 21 27  1  0  0  0  0
 22 23  1  0  0  0  0
 22 25  1  0  0  0  0
 23 24  1  0  0  0  0
 25 26  2  0  0  0  0
 26 27  1  0  0  0  0
M  END
>  <CHROM.1>
-63.85841163,140.83059131,-177.06987364,-120.55549544,36.81816393,78.35054031
142.12482960,12.52752629,-10.62564705,-21.68441780,-0.56193184,-0.57154622
-2.14913407

>  <Name>
ligand

>  <RI>
0

>  <Rbt.Current_Directory>
/home/itssahil/PROJECTS/Mol_Feturizer/New_Systems/rnas/3E5F

>  <Rbt.Executable>
rbdock ($Id: //depot/dev/client3/rdock/2013.1/src/exe/rbdock.cxx#4 $)

>  <Rbt.Library>
libRbt.so (2013.1, Build901 2013/11/27)

>  <Rbt.Parameter_File>
/export/apps/rDock/src/rDock_2013.1_src/data/scripts/dock_solv.prm

>  <Rbt.Receptor>
prm/blind_docking_60.prm

>  <SCORE>
-10.5161

>  <SCORE.INTER>
-12.2384

>  <SCORE.INTER.CONST>
1

>  <SCORE.INTER.POLAR>
0

>  <SCORE.INTER.ROT>
7

>  <SCORE.INTER.SOLV>
9.20266

>  <SCORE.INTER.VDW>
-19.4932

>  <SCORE.INTER.norm>
-0.453275

>  <SCORE.INTRA>
1.72236

>  <SCORE.INTRA.DIHEDRAL>
1.81371

>  <SCORE.INTRA.DIHEDRAL.0>
4.89803

>  <SCORE.INTRA.POLAR>
0

>  <SCORE.INTRA.POLAR.0>
0

>  <SCORE.INTRA.REPUL>
0

>  <SCORE.INTRA.REPUL.0>
0

>  <SCORE.INTRA.SOLV>
0.954354

>  <SCORE.INTRA.SOLV.lig_0>
-48.5832

>  <SCORE.INTRA.VDW>
0.338324

>  <SCORE.INTRA.VDW.0>
-2.39056

>  <SCORE.INTRA.norm>
0.063791

>  <SCORE.RESTR>
0

>  <SCORE.RESTR.CAVITY>
0

>  <SCORE.RESTR.norm>
0

>  <SCORE.SYSTEM>
0

>  <SCORE.SYSTEM.CONST>
0

>  <SCORE.SYSTEM.DIHEDRAL>
0

>  <SCORE.SYSTEM.SOLV>
0

>  <SCORE.SYSTEM.norm>
0

>  <SCORE.heavy>
27

>  <SCORE.norm>
-0.389484

>  <RMSD>
5.622

$$$$
ligand
 OpenBabel11021811473D
libRbt.so/2013.1/901 2013/11/27
 27 29  0  0  0  0  0  0  0  0999 V2000
   11.7833   -6.7616  -16.2300 N   0  0  0  0  0  0  0  0  0  0  0  0
   11.8925   -7.5307  -17.4784 C   0  0  2  0  0  0  0  0  0  0  0  0
   12.9657   -8.6138  -17.3324 C   0  0  0  0  0  0  0  0  0  0  0  0
   12.6442   -9.7778  -17.6569 O   0  0  0  0  0  0  0  0  0  0  0  0
   12.2863   -6.5803  -18.6105 C   0  0  0  0  0  0  0  0  0  0  0  0
   12.1978   -7.2536  -19.9825 C   0  0  0  0  0  0  0  0  0  0  0  0
   14.9131   -8.0657  -20.1765 C   0  0  0  0  0  0  0  0  0  0  0  0
   13.2266   -8.8007  -20.0321 Se  0  0  2  0  0  0  0  0  0  0  0  0
   13.0063   -9.5670  -21.7115 C   0  0  0  0  0  0  0  0  0  0  0  0
   13.6931  -10.9253  -21.8594 C   0  0  1  0  0  0  0  0  0  0  0  0
   13.0628  -11.8520  -20.9585 O   0  0  0  0  0  0  0  0  0  0  0  0
   13.3583  -11.4531  -23.2550 C   0  0  1  0  0  0  0  0  0  0  0  0
   14.1256  -12.6284  -23.5198 O   0  0  0  0  0  0  0  0  0  0  0  0
   11.8948  -11.8260  -23.0319 C   0  0  1  0  0  0  0  0  0  0  0  0
   11.5093  -12.7865  -24.0168 O   0  0  0  0  0  0  0  0  0  0  0  0
   12.0123  -12.5238  -21.6763 C   0  0  2  0  0  0  0  0  0  0  0  0
   14.0803   -8.2572  -16.8911 O   0  0  0  0  0  0  0  0  0  0  0  0
    8.9536   -9.8844  -18.4634 N   0  0  0  0  0  0  0  0  0  0  0  0
   10.1236   -9.5333  -18.9686 C   0  0  0  0  0  0  0  0  0  0  0  0
   10.7942  -10.3242  -19.7881 N   0  0  0  0  0  0  0  0  0  0  0  0
   10.2993  -11.5209  -20.1386 C   0  0  0  0  0  0  0  0  0  0  0  0
    9.0742  -11.9251  -19.6269 C   0  0  0  0  0  0  0  0  0  0  0  0
    8.4017  -11.0666  -18.7652 C   0  0  0  0  0  0  0  0  0  0  0  0
    7.2443  -11.4346  -18.2245 N   0  0  0  0  0  0  0  0  0  0  0  0
    8.8106  -13.1310  -20.1176 N   0  0  0  0  0  0  0  0  0  0  0  0
    9.8265  -13.4747  -20.9058 C   0  0  0  0  0  0  0  0  0  0  0  0
   10.7360  -12.5001  -20.9239 N   0  0  0  0  0  0  0  0  0  0  0  0
  2  1  1  1  0  0  0
  2  5  1  0  0  0  0
  2  3  1  0  0  0  0
  3 17  1  0  0  0  0
  3  4  1  0  0  0  0
  5  6  1  0  0  0  0
  7  8  1  0  0  0  0
  8  6  1  6  0  0  0
  8  9  1  0  0  0  0
 10  9  1  6  0  0  0
 10 11  1  0  0  0  0
 10 12  1  0  0  0  0
 11 16  1  0  0  0  0
 12 13  1  1  0  0  0
 12 14  1  0  0  0  0
 14 15  1  6  0  0  0
 14 16  1  0  0  0  0
 16 27  1  1  0  0  0
 18 23  2  0  0  0  0
 18 19  1  0  0  0  0
 19 20  2  0  0  0  0
 20 21  1  0  0  0  0
 21 22  2  0  0  0  0
 21 27  1  0  0  0  0
 22 23  1  0  0  0  0
 22 25  1  0  0  0  0
 23 24  1  0  0  0  0
 25 26  2  0  0  0  0
 26 27  1  0  0  0  0
M  END
>  <CHROM.1>
-170.62428072,129.54922891,-55.57722807,-76.08658425,-174.58050966,64.50096503
34.23201245,11.90396917,-10.12382659,-20.03298508,1.29697363,0.49643345,0.82629141

>  <Name>
ligand

>  <RI>
0

>  <Rbt.Current_Directory>
/home/itssahil/PROJECTS/Mol_Feturizer/New_Systems/rnas/3E5F

>  <Rbt.Executable>
rbdock ($Id: //depot/dev/client3/rdock/2013.1/src/exe/rbdock.cxx#4 $)

>  <Rbt.Library>
libRbt.so (2013.1, Build901 2013/11/27)

>  <Rbt.Parameter_File>
/export/apps/rDock/src/rDock_2013.1_src/data/scripts/dock_solv.prm

>  <Rbt.Receptor>
prm/pocket_docking_6.prm

>  <SCORE>
-14.0348

>  <SCORE.INTER>
-10.459

>  <SCORE.INTER.CONST>
1

>  <SCORE.INTER.POLAR>
0

>  <SCORE.INTER.ROT>
7

>  <SCORE.INTER.SOLV>
5.82854

>  <SCORE.INTER.VDW>
-17.1822

>  <SCORE.INTER.norm>
-0.387371

>  <SCORE.INTRA>
-3.57575

>  <SCORE.INTRA.DIHEDRAL>
-1.03754

>  <SCORE.INTRA.DIHEDRAL.0>
4.89803

>  <SCORE.INTRA.POLAR>
0

>  <SCORE.INTRA.POLAR.0>
0

>  <SCORE.INTRA.REPUL>
0

>  <SCORE.INTRA.REPUL.0>
0

>  <SCORE.INTRA.SOLV>
0.071871

>  <SCORE.INTRA.SOLV.lig_0>
-48.5832

>  <SCORE.INTRA.VDW>
-3.09291

>  <SCORE.INTRA.VDW.0>
-2.39056

>  <SCORE.INTRA.norm>
-0.132435

>  <SCORE.RESTR>
0

>  <SCORE.RESTR.CAVITY>
0

>  <SCORE.RESTR.norm>
0

>  <SCORE.SYSTEM>
0

>  <SCORE.SYSTEM.CONST>
0

>  <SCORE.SYSTEM.DIHEDRAL>
0

>  <SCORE.SYSTEM.SOLV>
0

>  <SCORE.SYSTEM.norm>
0

>  <SCORE.heavy>
27

>  <SCORE.norm>
-0.519806

>  <RMSD>
5.631

$$$$
ligand
 OpenBabel11021811473D
libRbt.so/2013.1/901 2013/11/27
 27 29  0  0  0  0  0  0  0  0999 V2000
   16.4359   -6.5433  -14.4361 N   0  0  0  0  0  0  0  0  0  0  0  0
   16.5966   -7.5600  -15.4859 C   0  0  2  0  0  0  0  0  0  0  0  0
   17.3318   -8.7803  -14.9232 C   0  0  0  0  0  0  0  0  0  0  0  0
   16.8565   -9.9042  -15.1962 O   0  0  0  0  0  0  0  0  0  0  0  0
   17.4158   -6.9618  -16.6309 C   0  0  0  0  0  0  0  0  0  0  0  0
   17.4970   -7.9057  -17.8333 C   0  0  0  0  0  0  0  0  0  0  0  0
   20.1265   -7.0152  -18.4361 C   0  0  0  0  0  0  0  0  0  0  0  0
   18.4609   -7.1329  -19.2220 Se  0  0  2  0  0  0  0  0  0  0  0  0
   17.9655   -5.3438  -19.3208 C   0  0  0  0  0  0  0  0  0  0  0  0
   18.3509   -4.6739  -20.6404 C   0  0  1  0  0  0  0  0  0  0  0  0
   18.0910   -5.5986  -21.7105 O   0  0  0  0  0  0  0  0  0  0  0  0
   17.3659   -3.5273  -20.8714 C   0  0  1  0  0  0  0  0  0  0  0  0
   17.7911   -2.7482  -21.9906 O   0  0  0  0  0  0  0  0  0  0  0  0
   16.1270   -4.3387  -21.2422 C   0  0  1  0  0  0  0  0  0  0  0  0
   15.2321   -3.5021  -21.9773 O   0  0  0  0  0  0  0  0  0  0  0  0
   16.7604   -5.3503  -22.1983 C   0  0  2  0  0  0  0  0  0  0  0  0
   18.3466   -8.5634  -14.2249 O   0  0  0  0  0  0  0  0  0  0  0  0
   14.5619   -8.8377  -25.3046 N   0  0  0  0  0  0  0  0  0  0  0  0
   15.2588   -7.7622  -25.6289 C   0  0  0  0  0  0  0  0  0  0  0  0
   15.7653   -6.9573  -24.7111 N   0  0  0  0  0  0  0  0  0  0  0  0
   15.5877   -7.2131  -23.4062 C   0  0  0  0  0  0  0  0  0  0  0  0
   14.8599   -8.3322  -23.0268 C   0  0  0  0  0  0  0  0  0  0  0  0
   14.3403   -9.1518  -24.0218 C   0  0  0  0  0  0  0  0  0  0  0  0
   13.6053  -10.2113  -23.6984 N   0  0  0  0  0  0  0  0  0  0  0  0
   14.8270   -8.3605  -21.6991 N   0  0  0  0  0  0  0  0  0  0  0  0
   15.5050   -7.3035  -21.2580 C   0  0  0  0  0  0  0  0  0  0  0  0
   15.9711   -6.6008  -22.2906 N   0  0  0  0  0  0  0  0  0  0  0  0
  2  1  1  1  0  0  0
  2  5  1  0  0  0  0
  2  3  1  0  0  0  0
  3 17  1  0  0  0  0
  3  4  1  0  0  0  0
  5  6  1  0  0  0  0
  7  8  1  0  0  0  0
  8  6  1  1  0  0  0
  8  9  1  0  0  0  0
 10  9  1  1  0  0  0
 10 11  1  0  0  0  0
 10 12  1  0  0  0  0
 11 16  1  0  0  0  0
 12 13  1  6  0  0  0
 12 14  1  0  0  0  0
 14 15  1  6  0  0  0
 14 16  1  0  0  0  0
 16 27  1  1  0  0  0
 18 23  2  0  0  0  0
 18 19  1  0  0  0  0
 19 20  2  0  0  0  0
 20 21  1  0  0  0  0
 21 22  2  0  0  0  0
 21 27  1  0  0  0  0
 22 23  1  0  0  0  0
 22 25  1  0  0  0  0
 23 24  1  0  0  0  0
 25 26  2  0  0  0  0
 26 27  1  0  0  0  0
M  END
>  <CHROM.1>
-173.66007891,133.92877594,178.54430294,64.95100246,-163.28246419,40.92155201
-109.77545887,16.88829195,-6.89977080,-20.16587232,0.95280558,1.02445844
2.19821188

>  <Name>
ligand

>  <RI>
0

>  <Rbt.Current_Directory>
/home/itssahil/PROJECTS/Mol_Feturizer/New_Systems/rnas/3E5F

>  <Rbt.Executable>
rbdock ($Id: //depot/dev/client3/rdock/2013.1/src/exe/rbdock.cxx#4 $)

>  <Rbt.Library>
libRbt.so (2013.1, Build901 2013/11/27)

>  <Rbt.Parameter_File>
/export/apps/rDock/src/rDock_2013.1_src/data/scripts/dock_solv.prm

>  <Rbt.Receptor>
prm/pocket_docking_7.prm

>  <SCORE>
-16.0132

>  <SCORE.INTER>
-16.3662

>  <SCORE.INTER.CONST>
1

>  <SCORE.INTER.POLAR>
0

>  <SCORE.INTER.ROT>
7

>  <SCORE.INTER.SOLV>
14.4153

>  <SCORE.INTER.VDW>
-23.9825

>  <SCORE.INTER.norm>
-0.606154

>  <SCORE.INTRA>
0.352979

>  <SCORE.INTRA.DIHEDRAL>
0.360941

>  <SCORE.INTRA.DIHEDRAL.0>
4.89803

>  <SCORE.INTRA.POLAR>
0

>  <SCORE.INTRA.POLAR.0>
0

>  <SCORE.INTRA.REPUL>
0

>  <SCORE.INTRA.REPUL.0>
0

>  <SCORE.INTRA.SOLV>
-0.0424587

>  <SCORE.INTRA.SOLV.lig_0>
-48.5832

>  <SCORE.INTRA.VDW>
0.193738

>  <SCORE.INTRA.VDW.0>
-2.39056

>  <SCORE.INTRA.norm>
0.0130733

>  <SCORE.RESTR>
0

>  <SCORE.RESTR.CAVITY>
0

>  <SCORE.RESTR.norm>
0

>  <SCORE.SYSTEM>
0

>  <SCORE.SYSTEM.CONST>
0

>  <SCORE.SYSTEM.DIHEDRAL>
0

>  <SCORE.SYSTEM.SOLV>
0

>  <SCORE.SYSTEM.norm>
0

>  <SCORE.heavy>
27

>  <SCORE.norm>
-0.593081

>  <RMSD>
5.634

$$$$
ligand
 OpenBabel11021811473D
libRbt.so/2013.1/901 2013/11/27
 27 29  0  0  0  0  0  0  0  0999 V2000
   13.9361   -6.0574  -18.0773 N   0  0  0  0  0  0  0  0  0  0  0  0
   13.9593   -5.7689  -19.5189 C   0  0  2  0  0  0  0  0  0  0  0  0
   12.7353   -4.9324  -19.9039 C   0  0  0  0  0  0  0  0  0  0  0  0
   12.9362   -3.9347  -20.6303 O   0  0  0  0  0  0  0  0  0  0  0  0
   13.9282   -7.0912  -20.2873 C   0  0  0  0  0  0  0  0  0  0  0  0
   15.2735   -7.8196  -20.2316 C   0  0  0  0  0  0  0  0  0  0  0  0
   14.5898   -8.7687  -22.8205 C   0  0  0  0  0  0  0  0  0  0  0  0
   15.2137   -9.4027  -21.2036 Se  0  0  2  0  0  0  0  0  0  0  0  0
   13.7536  -10.3795  -20.5951 C   0  0  0  0  0  0  0  0  0  0  0  0
   13.6609  -11.7816  -21.1985 C   0  0  1  0  0  0  0  0  0  0  0  0
   12.6292  -12.5053  -20.5059 O   0  0  0  0  0  0  0  0  0  0  0  0
   13.1342  -11.6271  -22.6257 C   0  0  1  0  0  0  0  0  0  0  0  0
   13.2060  -12.8833  -23.3018 O   0  0  0  0  0  0  0  0  0  0  0  0
   11.6792  -11.2853  -22.3150 C   0  0  1  0  0  0  0  0  0  0  0  0
   10.8812  -11.5846  -23.4616 O   0  0  0  0  0  0  0  0  0  0  0  0
   11.3985  -12.3247  -21.2289 C   0  0  2  0  0  0  0  0  0  0  0  0
   11.6274   -5.3024  -19.4566 O   0  0  0  0  0  0  0  0  0  0  0  0
    9.5316   -8.6677  -18.1007 N   0  0  0  0  0  0  0  0  0  0  0  0
   10.6530   -8.6655  -18.8007 C   0  0  0  0  0  0  0  0  0  0  0  0
   10.9984   -9.6860  -19.5661 N   0  0  0  0  0  0  0  0  0  0  0  0
   10.2093  -10.7670  -19.6592 C   0  0  0  0  0  0  0  0  0  0  0  0
    9.0245  -10.8067  -18.9375 C   0  0  0  0  0  0  0  0  0  0  0  0
    8.6984   -9.7153  -18.1411 C   0  0  0  0  0  0  0  0  0  0  0  0
    7.5913   -9.7324  -17.4053 N   0  0  0  0  0  0  0  0  0  0  0  0
    8.4338  -11.9680  -19.1962 N   0  0  0  0  0  0  0  0  0  0  0  0
    9.2126  -12.6345  -20.0451 C   0  0  0  0  0  0  0  0  0  0  0  0
   10.2945  -11.9101  -20.3317 N   0  0  0  0  0  0  0  0  0  0  0  0
  2  1  1  1  0  0  0
  2  5  1  0  0  0  0
  2  3  1  0  0  0  0
  3 17  1  0  0  0  0
  3  4  1  0  0  0  0
  5  6  1  0  0  0  0
  7  8  1  0  0  0  0
  8  6  1  1  0  0  0
  8  9  1  0  0  0  0
 10  9  1  1  0  0  0
 10 11  1  0  0  0  0
 10 12  1  0  0  0  0
 11 16  1  0  0  0  0
 12 13  1  6  0  0  0
 12 14  1  0  0  0  0
 14 15  1  6  0  0  0
 14 16  1  0  0  0  0
 16 27  1  1  0  0  0
 18 23  2  0  0  0  0
 18 19  1  0  0  0  0
 19 20  2  0  0  0  0
 20 21  1  0  0  0  0
 21 22  2  0  0  0  0
 21 27  1  0  0  0  0
 22 23  1  0  0  0  0
 22 25  1  0  0  0  0
 23 24  1  0  0  0  0
 25 26  2  0  0  0  0
 26 27  1  0  0  0  0
M  END
>  <CHROM.1>
-74.38711261,133.24904007,-178.79347141,52.80389484,-173.73289378,171.17897327
65.45584747,12.37920116,-9.51161457,-20.46574855,0.71326236,0.46452592,0.40715474

>  <Name>
ligand

>  <RI>
0

>  <Rbt.Current_Directory>
/home/itssahil/PROJECTS/Mol_Feturizer/New_Systems/rnas/3E5F

>  <Rbt.Executable>
rbdock ($Id: //depot/dev/client3/rdock/2013.1/src/exe/rbdock.cxx#4 $)

>  <Rbt.Library>
libRbt.so (2013.1, Build901 2013/11/27)

>  <Rbt.Parameter_File>
/export/apps/rDock/src/rDock_2013.1_src/data/scripts/dock_solv.prm

>  <Rbt.Receptor>
prm/pocket_docking_7.prm

>  <SCORE>
-15.061

>  <SCORE.INTER>
-15.1729

>  <SCORE.INTER.CONST>
1

>  <SCORE.INTER.POLAR>
0

>  <SCORE.INTER.ROT>
7

>  <SCORE.INTER.SOLV>
7.00586

>  <SCORE.INTER.VDW>
-20.7172

>  <SCORE.INTER.norm>
-0.561958

>  <SCORE.INTRA>
0.11184

>  <SCORE.INTRA.DIHEDRAL>
-0.61634

>  <SCORE.INTRA.DIHEDRAL.0>
4.89803

>  <SCORE.INTRA.POLAR>
0

>  <SCORE.INTRA.POLAR.0>
0

>  <SCORE.INTRA.REPUL>
0

>  <SCORE.INTRA.REPUL.0>
0

>  <SCORE.INTRA.SOLV>
0.572609

>  <SCORE.INTRA.SOLV.lig_0>
-48.5832

>  <SCORE.INTRA.VDW>
0.133706

>  <SCORE.INTRA.VDW.0>
-2.39056

>  <SCORE.INTRA.norm>
0.00414223

>  <SCORE.RESTR>
0

>  <SCORE.RESTR.CAVITY>
0

>  <SCORE.RESTR.norm>
0

>  <SCORE.SYSTEM>
0

>  <SCORE.SYSTEM.CONST>
0

>  <SCORE.SYSTEM.DIHEDRAL>
0

>  <SCORE.SYSTEM.SOLV>
0

>  <SCORE.SYSTEM.norm>
0

>  <SCORE.heavy>
27

>  <SCORE.norm>
-0.557816

>  <RMSD>
5.637

$$$$
ligand
 OpenBabel11021811473D
libRbt.so/2013.1/901 2013/11/27
 27 29  0  0  0  0  0  0  0  0999 V2000
   17.0625   -5.6415  -19.5826 N   0  0  0  0  0  0  0  0  0  0  0  0
   16.9288   -5.4227  -21.0304 C   0  0  2  0  0  0  0  0  0  0  0  0
   17.1981   -3.9521  -21.3634 C   0  0  0  0  0  0  0  0  0  0  0  0
   18.2077   -3.7039  -22.0582 O   0  0  0  0  0  0  0  0  0  0  0  0
   15.5037   -5.7827  -21.4541 C   0  0  0  0  0  0  0  0  0  0  0  0
   15.1492   -7.2305  -21.1055 C   0  0  0  0  0  0  0  0  0  0  0  0
   12.5212   -6.4846  -20.3260 C   0  0  0  0  0  0  0  0  0  0  0  0
   13.3760   -7.6001  -21.5221 Se  0  0  2  0  0  0  0  0  0  0  0  0
   12.9738   -9.2761  -20.8251 C   0  0  0  0  0  0  0  0  0  0  0  0
   13.6220  -10.4295  -21.5920 C   0  0  1  0  0  0  0  0  0  0  0  0
   13.0783  -11.6650  -21.0964 O   0  0  0  0  0  0  0  0  0  0  0  0
   13.1332  -10.3437  -23.0383 C   0  0  1  0  0  0  0  0  0  0  0  0
   13.8516  -11.2797  -23.8434 O   0  0  0  0  0  0  0  0  0  0  0  0
   11.6967  -10.8212  -22.8408 C   0  0  1  0  0  0  0  0  0  0  0  0
   11.1953  -11.3005  -24.0899 O   0  0  0  0  0  0  0  0  0  0  0  0
   11.9481  -12.0129  -21.9159 C   0  0  2  0  0  0  0  0  0  0  0  0
   16.3952   -3.1076  -20.9089 O   0  0  0  0  0  0  0  0  0  0  0  0
    8.6291  -10.4090  -18.3026 N   0  0  0  0  0  0  0  0  0  0  0  0
    9.6493   -9.7598  -18.8368 C   0  0  0  0  0  0  0  0  0  0  0  0
   10.4157  -10.3083  -19.7634 N   0  0  0  0  0  0  0  0  0  0  0  0
   10.1758  -11.5549  -20.1973 C   0  0  0  0  0  0  0  0  0  0  0  0
    9.1145  -12.2686  -19.6586 C   0  0  0  0  0  0  0  0  0  0  0  0
    8.3343  -11.6585  -18.6835 C   0  0  0  0  0  0  0  0  0  0  0  0
    7.3329  -12.3239  -18.1163 N   0  0  0  0  0  0  0  0  0  0  0  0
    9.0908  -13.4600  -20.2455 N   0  0  0  0  0  0  0  0  0  0  0  0
   10.0951  -13.4979  -21.1181 C   0  0  0  0  0  0  0  0  0  0  0  0
   10.7596  -12.3424  -21.0947 N   0  0  0  0  0  0  0  0  0  0  0  0
  2  1  1  1  0  0  0
  2  5  1  0  0  0  0
  2  3  1  0  0  0  0
  3 17  1  0  0  0  0
  3  4  1  0  0  0  0
  5  6  1  0  0  0  0
  7  8  1  0  0  0  0
  8  6  1  1  0  0  0
  8  9  1  0  0  0  0
 10  9  1  1  0  0  0
 10 11  1  0  0  0  0
 10 12  1  0  0  0  0
 11 16  1  0  0  0  0
 12 13  1  6  0  0  0
 12 14  1  0  0  0  0
 14 15  1  6  0  0  0
 14 16  1  0  0  0  0
 16 27  1  1  0  0  0
 18 23  2  0  0  0  0
 18 19  1  0  0  0  0
 19 20  2  0  0  0  0
 20 21  1  0  0  0  0
 21 22  2  0  0  0  0
 21 27  1  0  0  0  0
 22 23  1  0  0  0  0
 22 25  1  0  0  0  0
 23 24  1  0  0  0  0
 25 26  2  0  0  0  0
 26 27  1  0  0  0  0
M  END
>  <CHROM.1>
-57.99802845,114.58226156,175.96575409,-65.58004303,-72.50072868,-171.18622296
57.47302216,12.71180917,-9.05992347,-21.04710167,0.50690705,0.66881038,0.68660595

>  <Name>
ligand

>  <RI>
0

>  <Rbt.Current_Directory>
/home/itssahil/PROJECTS/Mol_Feturizer/New_Systems/rnas/3E5F

>  <Rbt.Executable>
rbdock ($Id: //depot/dev/client3/rdock/2013.1/src/exe/rbdock.cxx#4 $)

>  <Rbt.Library>
libRbt.so (2013.1, Build901 2013/11/27)

>  <Rbt.Parameter_File>
/export/apps/rDock/src/rDock_2013.1_src/data/scripts/dock_solv.prm

>  <Rbt.Receptor>
prm/blind_docking_40.prm

>  <SCORE>
-14.8043

>  <SCORE.INTER>
-14.547

>  <SCORE.INTER.CONST>
1

>  <SCORE.INTER.POLAR>
0

>  <SCORE.INTER.ROT>
7

>  <SCORE.INTER.SOLV>
7.50031

>  <SCORE.INTER.VDW>
-20.4647

>  <SCORE.INTER.norm>
-0.538777

>  <SCORE.INTRA>
-0.257373

>  <SCORE.INTRA.DIHEDRAL>
-1.54648

>  <SCORE.INTRA.DIHEDRAL.0>
4.89803

>  <SCORE.INTRA.POLAR>
0

>  <SCORE.INTRA.POLAR.0>
0

>  <SCORE.INTRA.REPUL>
0

>  <SCORE.INTRA.REPUL.0>
0

>  <SCORE.INTRA.SOLV>
0.759761

>  <SCORE.INTRA.SOLV.lig_0>
-48.5832

>  <SCORE.INTRA.VDW>
0.135987

>  <SCORE.INTRA.VDW.0>
-2.39056

>  <SCORE.INTRA.norm>
-0.00953235

>  <SCORE.RESTR>
0

>  <SCORE.RESTR.CAVITY>
0

>  <SCORE.RESTR.norm>
0

>  <SCORE.SYSTEM>
0

>  <SCORE.SYSTEM.CONST>
0

>  <SCORE.SYSTEM.DIHEDRAL>
0

>  <SCORE.SYSTEM.SOLV>
0

>  <SCORE.SYSTEM.norm>
0

>  <SCORE.heavy>
27

>  <SCORE.norm>
-0.548309

>  <RMSD>
5.647

$$$$
ligand
 OpenBabel11021811473D
libRbt.so/2013.1/901 2013/11/27
 27 29  0  0  0  0  0  0  0  0999 V2000
   15.1458   -5.9605  -20.1892 N   0  0  0  0  0  0  0  0  0  0  0  0
   16.3225   -6.7696  -20.5391 C   0  0  2  0  0  0  0  0  0  0  0  0
   17.1608   -6.0429  -21.5952 C   0  0  0  0  0  0  0  0  0  0  0  0
   16.5771   -5.1805  -22.2874 O   0  0  0  0  0  0  0  0  0  0  0  0
   15.8492   -8.1093  -21.1058 C   0  0  0  0  0  0  0  0  0  0  0  0
   14.9917   -7.9311  -22.3614 C   0  0  0  0  0  0  0  0  0  0  0  0
   14.2326   -9.1017  -24.8360 C   0  0  0  0  0  0  0  0  0  0  0  0
   14.5049   -9.5773  -23.0738 Se  0  0  2  0  0  0  0  0  0  0  0  0
   12.7707   -9.9411  -22.5112 C   0  0  0  0  0  0  0  0  0  0  0  0
   12.5020   -9.5429  -21.0594 C   0  0  1  0  0  0  0  0  0  0  0  0
   11.2461  -10.1164  -20.6576 O   0  0  0  0  0  0  0  0  0  0  0  0
   13.5456  -10.2508  -20.1945 C   0  0  1  0  0  0  0  0  0  0  0  0
   13.4628   -9.7687  -18.8525 O   0  0  0  0  0  0  0  0  0  0  0  0
   13.0021  -11.6754  -20.2706 C   0  0  1  0  0  0  0  0  0  0  0  0
   13.5020  -12.4186  -19.1576 O   0  0  0  0  0  0  0  0  0  0  0  0
   11.5149  -11.3938  -20.0527 C   0  0  2  0  0  0  0  0  0  0  0  0
   18.3636   -6.3713  -21.6943 O   0  0  0  0  0  0  0  0  0  0  0  0
    8.9217  -13.0893  -24.1813 N   0  0  0  0  0  0  0  0  0  0  0  0
    9.6497  -11.9933  -24.0531 C   0  0  0  0  0  0  0  0  0  0  0  0
   10.2614  -11.6919  -22.9211 N   0  0  0  0  0  0  0  0  0  0  0  0
   10.1631  -12.5014  -21.8557 C   0  0  0  0  0  0  0  0  0  0  0  0
    9.4060  -13.6604  -21.9515 C   0  0  0  0  0  0  0  0  0  0  0  0
    8.7749  -13.9404  -23.1579 C   0  0  0  0  0  0  0  0  0  0  0  0
    8.0097  -15.0209  -23.2765 N   0  0  0  0  0  0  0  0  0  0  0  0
    9.4654  -14.2788  -20.7774 N   0  0  0  0  0  0  0  0  0  0  0  0
   10.2276  -13.5414  -19.9732 C   0  0  0  0  0  0  0  0  0  0  0  0
   10.6561  -12.4586  -20.6222 N   0  0  0  0  0  0  0  0  0  0  0  0
  2  1  1  6  0  0  0
  2  5  1  0  0  0  0
  2  3  1  0  0  0  0
  3 17  1  0  0  0  0
  3  4  1  0  0  0  0
  5  6  1  0  0  0  0
  7  8  1  0  0  0  0
  8  6  1  1  0  0  0
  8  9  1  0  0  0  0
 10  9  1  6  0  0  0
 10 11  1  0  0  0  0
 10 12  1  0  0  0  0
 11 16  1  0  0  0  0
 12 13  1  1  0  0  0
 12 14  1  0  0  0  0
 14 15  1  1  0  0  0
 14 16  1  0  0  0  0
 16 27  1  6  0  0  0
 18 23  2  0  0  0  0
 18 19  1  0  0  0  0
 19 20  2  0  0  0  0
 20 21  1  0  0  0  0
 21 22  2  0  0  0  0
 21 27  1  0  0  0  0
 22 23  1  0  0  0  0
 22 25  1  0  0  0  0
 23 24  1  0  0  0  0
 25 26  2  0  0  0  0
 26 27  1  0  0  0  0
M  END
>  <CHROM.1>
60.04350605,-22.16460982,177.12538747,-154.95767956,-40.00239720,-168.16413971
29.59329129,12.97214070,-10.24934026,-21.80213090,-0.06619488,0.75767567
1.72020887

>  <Name>
ligand

>  <RI>
0

>  <Rbt.Current_Directory>
/home/itssahil/PROJECTS/Mol_Feturizer/New_Systems/rnas/3E5F

>  <Rbt.Executable>
rbdock ($Id: //depot/dev/client3/rdock/2013.1/src/exe/rbdock.cxx#4 $)

>  <Rbt.Library>
libRbt.so (2013.1, Build901 2013/11/27)

>  <Rbt.Parameter_File>
/export/apps/rDock/src/rDock_2013.1_src/data/scripts/dock_solv.prm

>  <Rbt.Receptor>
prm/blind_docking_40.prm

>  <SCORE>
-16.9337

>  <SCORE.INTER>
-17.5219

>  <SCORE.INTER.CONST>
1

>  <SCORE.INTER.POLAR>
0

>  <SCORE.INTER.ROT>
7

>  <SCORE.INTER.SOLV>
8.57557

>  <SCORE.INTER.VDW>
-22.8064

>  <SCORE.INTER.norm>
-0.648958

>  <SCORE.INTRA>
0.588165

>  <SCORE.INTRA.DIHEDRAL>
0.802737

>  <SCORE.INTRA.DIHEDRAL.0>
4.89803

>  <SCORE.INTRA.POLAR>
0

>  <SCORE.INTRA.POLAR.0>
0

>  <SCORE.INTRA.REPUL>
0

>  <SCORE.INTRA.REPUL.0>
0

>  <SCORE.INTRA.SOLV>
1.02357

>  <SCORE.INTRA.SOLV.lig_0>
-48.5832

>  <SCORE.INTRA.VDW>
-0.32499

>  <SCORE.INTRA.VDW.0>
-2.39056

>  <SCORE.INTRA.norm>
0.0217839

>  <SCORE.RESTR>
0

>  <SCORE.RESTR.CAVITY>
0

>  <SCORE.RESTR.norm>
0

>  <SCORE.SYSTEM>
0

>  <SCORE.SYSTEM.CONST>
0

>  <SCORE.SYSTEM.DIHEDRAL>
0

>  <SCORE.SYSTEM.SOLV>
0

>  <SCORE.SYSTEM.norm>
0

>  <SCORE.heavy>
27

>  <SCORE.norm>
-0.627174

>  <RMSD>
5.649

$$$$
ligand
 OpenBabel11021811473D
libRbt.so/2013.1/901 2013/11/27
 27 29  0  0  0  0  0  0  0  0999 V2000
    6.3075  -11.2220  -19.1270 N   0  0  0  0  0  0  0  0  0  0  0  0
    7.7573  -11.2812  -19.3650 C   0  0  2  0  0  0  0  0  0  0  0  0
    8.1721  -12.7151  -19.7085 C   0  0  0  0  0  0  0  0  0  0  0  0
    7.2869  -13.5950  -19.6326 O   0  0  0  0  0  0  0  0  0  0  0  0
    8.4843  -10.8368  -18.0946 C   0  0  0  0  0  0  0  0  0  0  0  0
    9.7481  -10.0318  -18.4078 C   0  0  0  0  0  0  0  0  0  0  0  0
   12.5439  -10.4680  -18.6608 C   0  0  0  0  0  0  0  0  0  0  0  0
   10.9529  -11.0432  -19.3980 Se  0  0  2  0  0  0  0  0  0  0  0  0
   11.0394  -10.3031  -21.1012 C   0  0  0  0  0  0  0  0  0  0  0  0
   10.5838  -11.2565  -22.2067 C   0  0  1  0  0  0  0  0  0  0  0  0
   10.9194  -10.6710  -23.4764 O   0  0  0  0  0  0  0  0  0  0  0  0
   11.4572  -12.5083  -22.1143 C   0  0  1  0  0  0  0  0  0  0  0  0
   10.9534  -13.5106  -22.9985 O   0  0  0  0  0  0  0  0  0  0  0  0
   12.7626  -11.9380  -22.6631 C   0  0  1  0  0  0  0  0  0  0  0  0
   13.5710  -13.0153  -23.1397 O   0  0  0  0  0  0  0  0  0  0  0  0
   12.2177  -11.1580  -23.8603 C   0  0  2  0  0  0  0  0  0  0  0  0
    9.3663  -12.9023  -20.0299 O   0  0  0  0  0  0  0  0  0  0  0  0
   15.7958   -7.7535  -22.3597 N   0  0  0  0  0  0  0  0  0  0  0  0
   15.1779   -8.6761  -21.6424 C   0  0  0  0  0  0  0  0  0  0  0  0
   14.2766   -9.4837  -22.1736 N   0  0  0  0  0  0  0  0  0  0  0  0
   13.9605   -9.3922  -23.4742 C   0  0  0  0  0  0  0  0  0  0  0  0
   14.5871   -8.4345  -24.2593 C   0  0  0  0  0  0  0  0  0  0  0  0
   15.5263   -7.6016  -23.6627 C   0  0  0  0  0  0  0  0  0  0  0  0
   16.1193   -6.6469  -24.3728 N   0  0  0  0  0  0  0  0  0  0  0  0
   14.1053   -8.5459  -25.4921 N   0  0  0  0  0  0  0  0  0  0  0  0
   13.2115   -9.5321  -25.4865 C   0  0  0  0  0  0  0  0  0  0  0  0
   13.1182  -10.0521  -24.2624 N   0  0  0  0  0  0  0  0  0  0  0  0
  2  1  1  1  0  0  0
  2  5  1  0  0  0  0
  2  3  1  0  0  0  0
  3 17  1  0  0  0  0
  3  4  1  0  0  0  0
  5  6  1  0  0  0  0
  7  8  1  0  0  0  0
  8  6  1  1  0  0  0
  8  9  1  0  0  0  0
 10  9  1  1  0  0  0
 10 11  1  0  0  0  0
 10 12  1  0  0  0  0
 11 16  1  0  0  0  0
 12 13  1  6  0  0  0
 12 14  1  0  0  0  0
 14 15  1  6  0  0  0
 14 16  1  0  0  0  0
 16 27  1  1  0  0  0
 18 23  2  0  0  0  0
 18 19  1  0  0  0  0
 19 20  2  0  0  0  0
 20 21  1  0  0  0  0
 21 22  2  0  0  0  0
 21 27  1  0  0  0  0
 22 23  1  0  0  0  0
 22 25  1  0  0  0  0
 23 24  1  0  0  0  0
 25 26  2  0  0  0  0
 26 27  1  0  0  0  0
M  END
>  <CHROM.1>
-143.46496052,-5.42388833,-60.45557257,-142.66788724,-118.02157344,-169.75069107
92.04136618,11.65372651,-10.68363724,-21.48239392,-2.80951014,-0.68908499
-2.04635250

>  <Name>
ligand

>  <RI>
0

>  <Rbt.Current_Directory>
/home/itssahil/PROJECTS/Mol_Feturizer/New_Systems/rnas/3E5F

>  <Rbt.Executable>
rbdock ($Id: //depot/dev/client3/rdock/2013.1/src/exe/rbdock.cxx#4 $)

>  <Rbt.Library>
libRbt.so (2013.1, Build901 2013/11/27)

>  <Rbt.Parameter_File>
/export/apps/rDock/src/rDock_2013.1_src/data/scripts/dock_solv.prm

>  <Rbt.Receptor>
prm/blind_docking_60.prm

>  <SCORE>
-15.5976

>  <SCORE.INTER>
-17.193

>  <SCORE.INTER.CONST>
1

>  <SCORE.INTER.POLAR>
0

>  <SCORE.INTER.ROT>
7

>  <SCORE.INTER.SOLV>
19.5278

>  <SCORE.INTER.VDW>
-26.2379

>  <SCORE.INTER.norm>
-0.636777

>  <SCORE.INTRA>
1.59536

>  <SCORE.INTRA.DIHEDRAL>
6.28485

>  <SCORE.INTRA.DIHEDRAL.0>
4.89803

>  <SCORE.INTRA.POLAR>
0

>  <SCORE.INTRA.POLAR.0>
0

>  <SCORE.INTRA.REPUL>
0

>  <SCORE.INTRA.REPUL.0>
0

>  <SCORE.INTRA.SOLV>
0.245248

>  <SCORE.INTRA.SOLV.lig_0>
-48.5832

>  <SCORE.INTRA.VDW>
-1.66969

>  <SCORE.INTRA.VDW.0>
-2.39056

>  <SCORE.INTRA.norm>
0.0590875

>  <SCORE.RESTR>
0

>  <SCORE.RESTR.CAVITY>
0

>  <SCORE.RESTR.norm>
0

>  <SCORE.SYSTEM>
0

>  <SCORE.SYSTEM.CONST>
0

>  <SCORE.SYSTEM.DIHEDRAL>
0

>  <SCORE.SYSTEM.SOLV>
0

>  <SCORE.SYSTEM.norm>
0

>  <SCORE.heavy>
27

>  <SCORE.norm>
-0.57769

>  <RMSD>
5.655

$$$$
ligand
 OpenBabel11021811473D
libRbt.so/2013.1/901 2013/11/27
 27 29  0  0  0  0  0  0  0  0999 V2000
   17.6885   -6.2089  -21.7014 N   0  0  0  0  0  0  0  0  0  0  0  0
   16.4966   -5.3944  -21.9801 C   0  0  2  0  0  0  0  0  0  0  0  0
   16.7070   -3.9673  -21.4651 C   0  0  0  0  0  0  0  0  0  0  0  0
   15.8332   -3.1232  -21.7612 O   0  0  0  0  0  0  0  0  0  0  0  0
   15.2958   -6.0164  -21.2651 C   0  0  0  0  0  0  0  0  0  0  0  0
   14.8701   -7.3410  -21.9034 C   0  0  0  0  0  0  0  0  0  0  0  0
   14.3961   -9.1065  -19.7289 C   0  0  0  0  0  0  0  0  0  0  0  0
   13.4599   -8.1082  -20.9668 Se  0  0  2  0  0  0  0  0  0  0  0  0
   12.7281   -9.4357  -22.0431 C   0  0  0  0  0  0  0  0  0  0  0  0
   13.5352  -10.7346  -22.0471 C   0  0  1  0  0  0  0  0  0  0  0  0
   13.0008  -11.6030  -21.0333 O   0  0  0  0  0  0  0  0  0  0  0  0
   13.2375  -11.4493  -23.3658 C   0  0  1  0  0  0  0  0  0  0  0  0
   14.1069  -12.5736  -23.5086 O   0  0  0  0  0  0  0  0  0  0  0  0
   11.8164  -11.9239  -23.0725 C   0  0  1  0  0  0  0  0  0  0  0  0
   11.5117  -13.0233  -23.9325 O   0  0  0  0  0  0  0  0  0  0  0  0
   12.0098  -12.4457  -21.6481 C   0  0  2  0  0  0  0  0  0  0  0  0
   17.7403   -3.7487  -20.7953 O   0  0  0  0  0  0  0  0  0  0  0  0
    8.8991   -9.8392  -18.4583 N   0  0  0  0  0  0  0  0  0  0  0  0
   10.0486   -9.4585  -18.9887 C   0  0  0  0  0  0  0  0  0  0  0  0
   10.7368  -10.2449  -19.7978 N   0  0  0  0  0  0  0  0  0  0  0  0
   10.2817  -11.4674  -20.1115 C   0  0  0  0  0  0  0  0  0  0  0  0
    9.0792  -11.9029  -19.5726 C   0  0  0  0  0  0  0  0  0  0  0  0
    8.3871  -11.0480  -18.7229 C   0  0  0  0  0  0  0  0  0  0  0  0
    7.2514  -11.4442  -18.1568 N   0  0  0  0  0  0  0  0  0  0  0  0
    8.8537  -13.1296  -20.0294 N   0  0  0  0  0  0  0  0  0  0  0  0
    9.8709  -13.4559  -20.8233 C   0  0  0  0  0  0  0  0  0  0  0  0
   10.7436  -12.4495  -20.8785 N   0  0  0  0  0  0  0  0  0  0  0  0
  2  1  1  1  0  0  0
  2  5  1  0  0  0  0
  2  3  1  0  0  0  0
  3 17  1  0  0  0  0
  3  4  1  0  0  0  0
  5  6  1  0  0  0  0
  7  8  1  0  0  0  0
  8  6  1  6  0  0  0
  8  9  1  0  0  0  0
 10  9  1  6  0  0  0
 10 11  1  0  0  0  0
 10 12  1  0  0  0  0
 11 16  1  0  0  0  0
 12 13  1  1  0  0  0
 12 14  1  0  0  0  0
 14 15  1  6  0  0  0
 14 16  1  0  0  0  0
 16 27  1  1  0  0  0
 18 23  2  0  0  0  0
 18 19  1  0  0  0  0
 19 20  2  0  0  0  0
 20 21  1  0  0  0  0
 21 22  2  0  0  0  0
 21 27  1  0  0  0  0
 22 23  1  0  0  0  0
 22 25  1  0  0  0  0
 23 24  1  0  0  0  0
 25 26  2  0  0  0  0
 26 27  1  0  0  0  0
M  END
>  <CHROM.1>
-70.29545767,172.47372270,177.44597018,-89.01186035,78.65130816,92.85426309
28.14318886,12.76437929,-9.37951401,-21.05670923,-0.60344866,-0.60221406
-2.60691490

>  <Name>
ligand

>  <RI>
0

>  <Rbt.Current_Directory>
/home/itssahil/PROJECTS/Mol_Feturizer/New_Systems/rnas/3E5F

>  <Rbt.Executable>
rbdock ($Id: //depot/dev/client3/rdock/2013.1/src/exe/rbdock.cxx#4 $)

>  <Rbt.Library>
libRbt.so (2013.1, Build901 2013/11/27)

>  <Rbt.Parameter_File>
/export/apps/rDock/src/rDock_2013.1_src/data/scripts/dock_solv.prm

>  <Rbt.Receptor>
prm/blind_docking_60.prm

>  <SCORE>
-9.82312

>  <SCORE.INTER>
-12.5821

>  <SCORE.INTER.CONST>
1

>  <SCORE.INTER.POLAR>
0

>  <SCORE.INTER.ROT>
7

>  <SCORE.INTER.SOLV>
10.0693

>  <SCORE.INTER.VDW>
-20.0112

>  <SCORE.INTER.norm>
-0.466003

>  <SCORE.INTRA>
2.75202

>  <SCORE.INTRA.DIHEDRAL>
3.00245

>  <SCORE.INTRA.DIHEDRAL.0>
4.89803

>  <SCORE.INTRA.POLAR>
0

>  <SCORE.INTRA.POLAR.0>
0

>  <SCORE.INTRA.REPUL>
0

>  <SCORE.INTRA.REPUL.0>
0

>  <SCORE.INTRA.SOLV>
0.744498

>  <SCORE.INTRA.SOLV.lig_0>
-48.5832

>  <SCORE.INTRA.VDW>
0.878547

>  <SCORE.INTRA.VDW.0>
-2.39056

>  <SCORE.INTRA.norm>
0.101927

>  <SCORE.RESTR>
0.00694045

>  <SCORE.RESTR.CAVITY>
0.00694045

>  <SCORE.RESTR.norm>
0.000257054

>  <SCORE.SYSTEM>
0

>  <SCORE.SYSTEM.CONST>
0

>  <SCORE.SYSTEM.DIHEDRAL>
0

>  <SCORE.SYSTEM.SOLV>
0

>  <SCORE.SYSTEM.norm>
0

>  <SCORE.heavy>
27

>  <SCORE.norm>
-0.363819

>  <RMSD>
5.657

$$$$
ligand
 OpenBabel11021811473D
libRbt.so/2013.1/901 2013/11/27
 27 29  0  0  0  0  0  0  0  0999 V2000
   11.7320   -6.5455  -16.2971 N   0  0  0  0  0  0  0  0  0  0  0  0
   11.8254   -7.3733  -17.5087 C   0  0  2  0  0  0  0  0  0  0  0  0
   12.8976   -8.4514  -17.3232 C   0  0  0  0  0  0  0  0  0  0  0  0
   12.5526   -9.6354  -17.5300 O   0  0  0  0  0  0  0  0  0  0  0  0
   12.2088   -6.4789  -18.6889 C   0  0  0  0  0  0  0  0  0  0  0  0
   12.1106   -7.2185  -20.0257 C   0  0  0  0  0  0  0  0  0  0  0  0
   14.8211   -8.0617  -20.1379 C   0  0  0  0  0  0  0  0  0  0  0  0
   13.1250   -8.7757  -20.0007 Se  0  0  2  0  0  0  0  0  0  0  0  0
   12.9295   -9.5989  -21.6561 C   0  0  0  0  0  0  0  0  0  0  0  0
   13.6160  -10.9623  -21.7466 C   0  0  1  0  0  0  0  0  0  0  0  0
   12.9711  -11.8563  -20.8232 O   0  0  0  0  0  0  0  0  0  0  0  0
   13.3004  -11.5381  -23.1276 C   0  0  1  0  0  0  0  0  0  0  0  0
   14.0695  -12.7229  -23.3403 O   0  0  0  0  0  0  0  0  0  0  0  0
   11.8332  -11.9011  -22.9130 C   0  0  1  0  0  0  0  0  0  0  0  0
   11.4604  -12.8949  -23.8693 O   0  0  0  0  0  0  0  0  0  0  0  0
   11.9299  -12.5514  -21.5323 C   0  0  2  0  0  0  0  0  0  0  0  0
   14.0352   -8.0703  -16.9699 O   0  0  0  0  0  0  0  0  0  0  0  0
    8.8414   -9.8084  -18.4369 N   0  0  0  0  0  0  0  0  0  0  0  0
   10.0209   -9.4780  -18.9340 C   0  0  0  0  0  0  0  0  0  0  0  0
   10.6983  -10.2946  -19.7219 N   0  0  0  0  0  0  0  0  0  0  0  0
   10.2010  -11.4973  -20.0475 C   0  0  0  0  0  0  0  0  0  0  0  0
    8.9661  -11.8803  -19.5434 C   0  0  0  0  0  0  0  0  0  0  0  0
    8.2864  -10.9950  -18.7151 C   0  0  0  0  0  0  0  0  0  0  0  0
    7.1190  -11.3415  -18.1818 N   0  0  0  0  0  0  0  0  0  0  0  0
    8.7020  -13.0974  -20.0054 N   0  0  0  0  0  0  0  0  0  0  0  0
    9.7271  -13.4683  -20.7690 C   0  0  0  0  0  0  0  0  0  0  0  0
   10.6429  -12.4999  -20.7998 N   0  0  0  0  0  0  0  0  0  0  0  0
  2  1  1  1  0  0  0
  2  5  1  0  0  0  0
  2  3  1  0  0  0  0
  3 17  1  0  0  0  0
  3  4  1  0  0  0  0
  5  6  1  0  0  0  0
  7  8  1  0  0  0  0
  8  6  1  6  0  0  0
  8  9  1  0  0  0  0
 10  9  1  6  0  0  0
 10 11  1  0  0  0  0
 10 12  1  0  0  0  0
 11 16  1  0  0  0  0
 12 13  1  1  0  0  0
 12 14  1  0  0  0  0
 14 15  1  6  0  0  0
 14 16  1  0  0  0  0
 16 27  1  1  0  0  0
 18 23  2  0  0  0  0
 18 19  1  0  0  0  0
 19 20  2  0  0  0  0
 20 21  1  0  0  0  0
 21 22  2  0  0  0  0
 21 27  1  0  0  0  0
 22 23  1  0  0  0  0
 22 25  1  0  0  0  0
 23 24  1  0  0  0  0
 25 26  2  0  0  0  0
 26 27  1  0  0  0  0
M  END
>  <CHROM.1>
-170.92559108,126.39789921,-54.89351848,-74.59402790,-175.08163986,64.42653752
33.70086208,11.81716439,-10.08897314,-19.97447772,1.28649513,0.48516344,0.78714981

>  <Name>
ligand

>  <RI>
0

>  <Rbt.Current_Directory>
/home/itssahil/PROJECTS/Mol_Feturizer/New_Systems/rnas/3E5F

>  <Rbt.Executable>
rbdock ($Id: //depot/dev/client3/rdock/2013.1/src/exe/rbdock.cxx#4 $)

>  <Rbt.Library>
libRbt.so (2013.1, Build901 2013/11/27)

>  <Rbt.Parameter_File>
/export/apps/rDock/src/rDock_2013.1_src/data/scripts/dock_solv.prm

>  <Rbt.Receptor>
prm/pocket_docking_8.prm

>  <SCORE>
-14.0217

>  <SCORE.INTER>
-10.4333

>  <SCORE.INTER.CONST>
1

>  <SCORE.INTER.POLAR>
0

>  <SCORE.INTER.ROT>
7

>  <SCORE.INTER.SOLV>
5.65243

>  <SCORE.INTER.VDW>
-17.1064

>  <SCORE.INTER.norm>
-0.38642

>  <SCORE.INTRA>
-3.5884

>  <SCORE.INTRA.DIHEDRAL>
-1.09422

>  <SCORE.INTRA.DIHEDRAL.0>
4.89803

>  <SCORE.INTRA.POLAR>
0

>  <SCORE.INTRA.POLAR.0>
0

>  <SCORE.INTRA.REPUL>
0

>  <SCORE.INTRA.REPUL.0>
0

>  <SCORE.INTRA.SOLV>
0.0675228

>  <SCORE.INTRA.SOLV.lig_0>
-48.5832

>  <SCORE.INTRA.VDW>
-3.07506

>  <SCORE.INTRA.VDW.0>
-2.39056

>  <SCORE.INTRA.norm>
-0.132904

>  <SCORE.RESTR>
0

>  <SCORE.RESTR.CAVITY>
0

>  <SCORE.RESTR.norm>
0

>  <SCORE.SYSTEM>
0

>  <SCORE.SYSTEM.CONST>
0

>  <SCORE.SYSTEM.DIHEDRAL>
0

>  <SCORE.SYSTEM.SOLV>
0

>  <SCORE.SYSTEM.norm>
0

>  <SCORE.heavy>
27

>  <SCORE.norm>
-0.519323

>  <RMSD>
5.662

$$$$
ligand
 OpenBabel11021811473D
libRbt.so/2013.1/901 2013/11/27
 27 29  0  0  0  0  0  0  0  0999 V2000
   15.7372   -4.0642  -21.9352 N   0  0  0  0  0  0  0  0  0  0  0  0
   16.7275   -4.9838  -21.3561 C   0  0  2  0  0  0  0  0  0  0  0  0
   18.1087   -4.3216  -21.3403 C   0  0  0  0  0  0  0  0  0  0  0  0
   18.2100   -3.2084  -21.9006 O   0  0  0  0  0  0  0  0  0  0  0  0
   16.7853   -6.2498  -22.2127 C   0  0  0  0  0  0  0  0  0  0  0  0
   15.4109   -6.9079  -22.3585 C   0  0  0  0  0  0  0  0  0  0  0  0
   15.4817   -7.6897  -25.0887 C   0  0  0  0  0  0  0  0  0  0  0  0
   15.5148   -8.4413  -23.4036 Se  0  0  2  0  0  0  0  0  0  0  0  0
   13.8573   -9.2804  -23.3346 C   0  0  0  0  0  0  0  0  0  0  0  0
   13.2476   -9.3168  -21.9326 C   0  0  1  0  0  0  0  0  0  0  0  0
   11.9207   -9.8623  -22.0298 O   0  0  0  0  0  0  0  0  0  0  0  0
   14.0327  -10.3498  -21.1234 C   0  0  1  0  0  0  0  0  0  0  0  0
   13.6318  -10.2912  -19.7537 O   0  0  0  0  0  0  0  0  0  0  0  0
   13.4975  -11.6256  -21.7686 C   0  0  1  0  0  0  0  0  0  0  0  0
   13.6940  -12.7153  -20.8658 O   0  0  0  0  0  0  0  0  0  0  0  0
   12.0080  -11.2825  -21.8168 C   0  0  2  0  0  0  0  0  0  0  0  0
   19.0347   -4.9462  -20.7775 O   0  0  0  0  0  0  0  0  0  0  0  0
    8.6794  -15.0755  -22.9022 N   0  0  0  0  0  0  0  0  0  0  0  0
    9.0951  -14.6512  -21.7213 C   0  0  0  0  0  0  0  0  0  0  0  0
    9.9582  -13.6574  -21.6024 N   0  0  0  0  0  0  0  0  0  0  0  0
   10.4416  -13.0396  -22.6908 C   0  0  0  0  0  0  0  0  0  0  0  0
   10.0297  -13.4584  -23.9482 C   0  0  0  0  0  0  0  0  0  0  0  0
    9.1239  -14.5093  -24.0314 C   0  0  0  0  0  0  0  0  0  0  0  0
    8.7356  -14.9639  -25.2187 N   0  0  0  0  0  0  0  0  0  0  0  0
   10.6452  -12.6989  -24.8475 N   0  0  0  0  0  0  0  0  0  0  0  0
   11.4140  -11.8367  -24.1865 C   0  0  0  0  0  0  0  0  0  0  0  0
   11.2953  -12.0375  -22.8739 N   0  0  0  0  0  0  0  0  0  0  0  0
  2  1  1  6  0  0  0
  2  5  1  0  0  0  0
  2  3  1  0  0  0  0
  3 17  1  0  0  0  0
  3  4  1  0  0  0  0
  5  6  1  0  0  0  0
  7  8  1  0  0  0  0
  8  6  1  1  0  0  0
  8  9  1  0  0  0  0
 10  9  1  6  0  0  0
 10 11  1  0  0  0  0
 10 12  1  0  0  0  0
 11 16  1  0  0  0  0
 12 13  1  1  0  0  0
 12 14  1  0  0  0  0
 14 15  1  1  0  0  0
 14 16  1  0  0  0  0
 16 27  1  6  0  0  0
 18 23  2  0  0  0  0
 18 19  1  0  0  0  0
 19 20  2  0  0  0  0
 20 21  1  0  0  0  0
 21 22  2  0  0  0  0
 21 27  1  0  0  0  0
 22 23  1  0  0  0  0
 22 25  1  0  0  0  0
 23 24  1  0  0  0  0
 25 26  2  0  0  0  0
 26 27  1  0  0  0  0
M  END
>  <CHROM.1>
-55.70314125,-5.99317558,179.99280915,-81.54107380,-43.00969040,174.23943122
-132.68211544,13.63690638,-9.72028784,-22.58916239,0.06059683,-0.86297624
-1.36369105

>  <Name>
ligand

>  <RI>
0

>  <Rbt.Current_Directory>
/home/itssahil/PROJECTS/Mol_Feturizer/New_Systems/rnas/3E5F

>  <Rbt.Executable>
rbdock ($Id: //depot/dev/client3/rdock/2013.1/src/exe/rbdock.cxx#4 $)

>  <Rbt.Library>
libRbt.so (2013.1, Build901 2013/11/27)

>  <Rbt.Parameter_File>
/export/apps/rDock/src/rDock_2013.1_src/data/scripts/dock_solv.prm

>  <Rbt.Receptor>
prm/blind_docking_60.prm

>  <SCORE>
-19.7156

>  <SCORE.INTER>
-20.3551

>  <SCORE.INTER.CONST>
1

>  <SCORE.INTER.POLAR>
0

>  <SCORE.INTER.ROT>
7

>  <SCORE.INTER.SOLV>
12.0304

>  <SCORE.INTER.VDW>
-25.8469

>  <SCORE.INTER.norm>
-0.753892

>  <SCORE.INTRA>
0.591508

>  <SCORE.INTRA.DIHEDRAL>
-0.689515

>  <SCORE.INTRA.DIHEDRAL.0>
4.89803

>  <SCORE.INTRA.POLAR>
0

>  <SCORE.INTRA.POLAR.0>
0

>  <SCORE.INTRA.REPUL>
0

>  <SCORE.INTRA.REPUL.0>
0

>  <SCORE.INTRA.SOLV>
0.68679

>  <SCORE.INTRA.SOLV.lig_0>
-48.5832

>  <SCORE.INTRA.VDW>
0.59287

>  <SCORE.INTRA.VDW.0>
-2.39056

>  <SCORE.INTRA.norm>
0.0219077

>  <SCORE.RESTR>
0.0480113

>  <SCORE.RESTR.CAVITY>
0.0480113

>  <SCORE.RESTR.norm>
0.0017782

>  <SCORE.SYSTEM>
0

>  <SCORE.SYSTEM.CONST>
0

>  <SCORE.SYSTEM.DIHEDRAL>
0

>  <SCORE.SYSTEM.SOLV>
0

>  <SCORE.SYSTEM.norm>
0

>  <SCORE.heavy>
27

>  <SCORE.norm>
-0.730206

>  <RMSD>
5.676

$$$$
ligand
 OpenBabel11021811473D
libRbt.so/2013.1/901 2013/11/27
 27 29  0  0  0  0  0  0  0  0999 V2000
   17.9999   -7.0725  -18.8076 N   0  0  0  0  0  0  0  0  0  0  0  0
   18.1315   -7.2361  -20.2628 C   0  0  2  0  0  0  0  0  0  0  0  0
   18.8883   -6.0438  -20.8561 C   0  0  0  0  0  0  0  0  0  0  0  0
   18.6169   -4.9137  -20.3949 O   0  0  0  0  0  0  0  0  0  0  0  0
   16.7335   -7.3033  -20.8801 C   0  0  0  0  0  0  0  0  0  0  0  0
   15.9346   -8.5027  -20.3635 C   0  0  0  0  0  0  0  0  0  0  0  0
   13.4773   -7.0813  -20.4720 C   0  0  0  0  0  0  0  0  0  0  0  0
   14.2667   -8.5922  -21.1788 Se  0  0  2  0  0  0  0  0  0  0  0  0
   13.3049   -9.9447  -20.3410 C   0  0  0  0  0  0  0  0  0  0  0  0
   13.6109  -11.3407  -20.8852 C   0  0  1  0  0  0  0  0  0  0  0  0
   12.6776  -12.2677  -20.3044 O   0  0  0  0  0  0  0  0  0  0  0  0
   13.2703  -11.3309  -22.3759 C   0  0  1  0  0  0  0  0  0  0  0  0
   13.7130  -12.5488  -22.9768 O   0  0  0  0  0  0  0  0  0  0  0  0
   11.7467  -11.3213  -22.2797 C   0  0  1  0  0  0  0  0  0  0  0  0
   11.2050  -11.8106  -23.5079 O   0  0  0  0  0  0  0  0  0  0  0  0
   11.5523  -12.3805  -21.1939 C   0  0  2  0  0  0  0  0  0  0  0  0
   19.7141   -6.2863  -21.7637 O   0  0  0  0  0  0  0  0  0  0  0  0
    8.7378   -9.4158  -18.0420 N   0  0  0  0  0  0  0  0  0  0  0  0
    9.9531   -9.2006  -18.5157 C   0  0  0  0  0  0  0  0  0  0  0  0
   10.5485  -10.0610  -19.3231 N   0  0  0  0  0  0  0  0  0  0  0  0
    9.9279  -11.1914  -19.6932 C   0  0  0  0  0  0  0  0  0  0  0  0
    8.6517  -11.4530  -19.2147 C   0  0  0  0  0  0  0  0  0  0  0  0
    8.0610  -10.5254  -18.3648 C   0  0  0  0  0  0  0  0  0  0  0  0
    6.8556  -10.7590  -17.8553 N   0  0  0  0  0  0  0  0  0  0  0  0
    8.2633  -12.6188  -19.7192 N   0  0  0  0  0  0  0  0  0  0  0  0
    9.2524  -13.0750  -20.4840 C   0  0  0  0  0  0  0  0  0  0  0  0
   10.2685  -12.2119  -20.4734 N   0  0  0  0  0  0  0  0  0  0  0  0
  2  1  1  1  0  0  0
  2  5  1  0  0  0  0
  2  3  1  0  0  0  0
  3 17  1  0  0  0  0
  3  4  1  0  0  0  0
  5  6  1  0  0  0  0
  7  8  1  0  0  0  0
  8  6  1  1  0  0  0
  8  9  1  0  0  0  0
 10  9  1  1  0  0  0
 10 11  1  0  0  0  0
 10 12  1  0  0  0  0
 11 16  1  0  0  0  0
 12 13  1  6  0  0  0
 12 14  1  0  0  0  0
 14 15  1  6  0  0  0
 14 16  1  0  0  0  0
 16 27  1  1  0  0  0
 18 23  2  0  0  0  0
 18 19  1  0  0  0  0
 19 20  2  0  0  0  0
 20 21  1  0  0  0  0
 21 22  2  0  0  0  0
 21 27  1  0  0  0  0
 22 23  1  0  0  0  0
 22 25  1  0  0  0  0
 23 24  1  0  0  0  0
 25 26  2  0  0  0  0
 26 27  1  0  0  0  0
M  END
>  <CHROM.1>
-61.80411440,-40.23737073,-177.88327738,-67.47087790,-83.41600428,-171.74194027
53.77747809,13.11191504,-9.64651109,-20.55165027,0.30780817,0.42600055,0.70202991

>  <Name>
ligand

>  <RI>
0

>  <Rbt.Current_Directory>
/home/itssahil/PROJECTS/Mol_Feturizer/New_Systems/rnas/3E5F

>  <Rbt.Executable>
rbdock ($Id: //depot/dev/client3/rdock/2013.1/src/exe/rbdock.cxx#4 $)

>  <Rbt.Library>
libRbt.so (2013.1, Build901 2013/11/27)

>  <Rbt.Parameter_File>
/export/apps/rDock/src/rDock_2013.1_src/data/scripts/dock_solv.prm

>  <Rbt.Receptor>
prm/pocket_docking_7.prm

>  <SCORE>
-14.0582

>  <SCORE.INTER>
-13.5877

>  <SCORE.INTER.CONST>
1

>  <SCORE.INTER.POLAR>
0

>  <SCORE.INTER.ROT>
7

>  <SCORE.INTER.SOLV>
6.12946

>  <SCORE.INTER.VDW>
-19.3683

>  <SCORE.INTER.norm>
-0.50325

>  <SCORE.INTRA>
-0.470407

>  <SCORE.INTRA.DIHEDRAL>
-1.31567

>  <SCORE.INTRA.DIHEDRAL.0>
4.89803

>  <SCORE.INTRA.POLAR>
0

>  <SCORE.INTRA.POLAR.0>
0

>  <SCORE.INTRA.REPUL>
0

>  <SCORE.INTRA.REPUL.0>
0

>  <SCORE.INTRA.SOLV>
0.654049

>  <SCORE.INTRA.SOLV.lig_0>
-48.5832

>  <SCORE.INTRA.VDW>
-0.139597

>  <SCORE.INTRA.VDW.0>
-2.39056

>  <SCORE.INTRA.norm>
-0.0174225

>  <SCORE.RESTR>
0

>  <SCORE.RESTR.CAVITY>
0

>  <SCORE.RESTR.norm>
0

>  <SCORE.SYSTEM>
0

>  <SCORE.SYSTEM.CONST>
0

>  <SCORE.SYSTEM.DIHEDRAL>
0

>  <SCORE.SYSTEM.SOLV>
0

>  <SCORE.SYSTEM.norm>
0

>  <SCORE.heavy>
27

>  <SCORE.norm>
-0.520672

>  <RMSD>
5.677

$$$$
ligand
 OpenBabel11021811473D
libRbt.so/2013.1/901 2013/11/27
 27 29  0  0  0  0  0  0  0  0999 V2000
   17.0731   -5.5879  -19.7067 N   0  0  0  0  0  0  0  0  0  0  0  0
   16.8465   -5.3429  -21.1386 C   0  0  2  0  0  0  0  0  0  0  0  0
   17.0741   -3.8622  -21.4577 C   0  0  0  0  0  0  0  0  0  0  0  0
   16.2695   -3.0448  -20.9595 O   0  0  0  0  0  0  0  0  0  0  0  0
   15.4030   -5.7161  -21.4807 C   0  0  0  0  0  0  0  0  0  0  0  0
   15.0783   -7.1630  -21.1004 C   0  0  0  0  0  0  0  0  0  0  0  0
   12.4592   -6.4434  -20.2681 C   0  0  0  0  0  0  0  0  0  0  0  0
   13.3012   -7.5648  -21.4677 Se  0  0  2  0  0  0  0  0  0  0  0  0
   12.9411   -9.2354  -20.7359 C   0  0  0  0  0  0  0  0  0  0  0  0
   13.5827  -10.3914  -21.5043 C   0  0  1  0  0  0  0  0  0  0  0  0
   13.0316  -11.6244  -21.0107 O   0  0  0  0  0  0  0  0  0  0  0  0
   13.0948  -10.3006  -22.9507 C   0  0  1  0  0  0  0  0  0  0  0  0
   13.8079  -11.2396  -23.7570 O   0  0  0  0  0  0  0  0  0  0  0  0
   11.6555  -10.7699  -22.7543 C   0  0  1  0  0  0  0  0  0  0  0  0
   11.1516  -11.2443  -24.0042 O   0  0  0  0  0  0  0  0  0  0  0  0
   11.8996  -11.9644  -21.8311 C   0  0  2  0  0  0  0  0  0  0  0  0
   18.0406   -3.5801  -22.1996 O   0  0  0  0  0  0  0  0  0  0  0  0
    8.6325  -10.3748  -18.1645 N   0  0  0  0  0  0  0  0  0  0  0  0
    9.6628   -9.7346  -18.6900 C   0  0  0  0  0  0  0  0  0  0  0  0
   10.4131  -10.2776  -19.6328 N   0  0  0  0  0  0  0  0  0  0  0  0
   10.1458  -11.5092  -20.0928 C   0  0  0  0  0  0  0  0  0  0  0  0
    9.0731  -12.2133  -19.5641 C   0  0  0  0  0  0  0  0  0  0  0  0
    8.3104  -11.6094  -18.5714 C   0  0  0  0  0  0  0  0  0  0  0  0
    7.2988  -12.2670  -18.0133 N   0  0  0  0  0  0  0  0  0  0  0  0
    9.0223  -13.3906  -20.1771 N   0  0  0  0  0  0  0  0  0  0  0  0
   10.0211  -13.4293  -21.0559 C   0  0  0  0  0  0  0  0  0  0  0  0
   10.7089  -12.2881  -21.0107 N   0  0  0  0  0  0  0  0  0  0  0  0
  2  1  1  1  0  0  0
  2  5  1  0  0  0  0
  2  3  1  0  0  0  0
  3 17  1  0  0  0  0
  3  4  1  0  0  0  0
  5  6  1  0  0  0  0
  7  8  1  0  0  0  0
  8  6  1  1  0  0  0
  8  9  1  0  0  0  0
 10  9  1  1  0  0  0
 10 11  1  0  0  0  0
 10 12  1  0  0  0  0
 11 16  1  0  0  0  0
 12 13  1  6  0  0  0
 12 14  1  0  0  0  0
 14 15  1  6  0  0  0
 14 16  1  0  0  0  0
 16 27  1  1  0  0  0
 18 23  2  0  0  0  0
 18 19  1  0  0  0  0
 19 20  2  0  0  0  0
 20 21  1  0  0  0  0
 21 22  2  0  0  0  0
 21 27  1  0  0  0  0
 22 23  1  0  0  0  0
 22 25  1  0  0  0  0
 23 24  1  0  0  0  0
 25 26  2  0  0  0  0
 26 27  1  0  0  0  0
M  END
>  <CHROM.1>
-56.23193757,-66.46768404,177.80973667,-65.62859653,-72.74462773,-169.02114384
55.99789296,12.65433294,-9.00817842,-20.99911822,0.50418093,0.68052479,0.67324081

>  <Name>
ligand

>  <RI>
0

>  <Rbt.Current_Directory>
/home/itssahil/PROJECTS/Mol_Feturizer/New_Systems/rnas/3E5F

>  <Rbt.Executable>
rbdock ($Id: //depot/dev/client3/rdock/2013.1/src/exe/rbdock.cxx#4 $)

>  <Rbt.Library>
libRbt.so (2013.1, Build901 2013/11/27)

>  <Rbt.Parameter_File>
/export/apps/rDock/src/rDock_2013.1_src/data/scripts/dock_solv.prm

>  <Rbt.Receptor>
prm/pocket_docking_7.prm

>  <SCORE>
-14.8575

>  <SCORE.INTER>
-14.7334

>  <SCORE.INTER.CONST>
1

>  <SCORE.INTER.POLAR>
0

>  <SCORE.INTER.ROT>
7

>  <SCORE.INTER.SOLV>
7.26097

>  <SCORE.INTER.VDW>
-20.5092

>  <SCORE.INTER.norm>
-0.54568

>  <SCORE.INTRA>
-0.124137

>  <SCORE.INTRA.DIHEDRAL>
-1.38756

>  <SCORE.INTRA.DIHEDRAL.0>
4.89803

>  <SCORE.INTRA.POLAR>
0

>  <SCORE.INTRA.POLAR.0>
0

>  <SCORE.INTRA.REPUL>
0

>  <SCORE.INTRA.REPUL.0>
0

>  <SCORE.INTRA.SOLV>
0.740472

>  <SCORE.INTRA.SOLV.lig_0>
-48.5832

>  <SCORE.INTRA.VDW>
0.199407

>  <SCORE.INTRA.VDW.0>
-2.39056

>  <SCORE.INTRA.norm>
-0.00459767

>  <SCORE.RESTR>
0

>  <SCORE.RESTR.CAVITY>
0

>  <SCORE.RESTR.norm>
0

>  <SCORE.SYSTEM>
0

>  <SCORE.SYSTEM.CONST>
0

>  <SCORE.SYSTEM.DIHEDRAL>
0

>  <SCORE.SYSTEM.SOLV>
0

>  <SCORE.SYSTEM.norm>
0

>  <SCORE.heavy>
27

>  <SCORE.norm>
-0.550278

>  <RMSD>
5.677

$$$$
ligand
 OpenBabel11021811473D
libRbt.so/2013.1/901 2013/11/27
 27 29  0  0  0  0  0  0  0  0999 V2000
   17.6548   -6.6182  -18.7693 N   0  0  0  0  0  0  0  0  0  0  0  0
   17.8980   -6.9357  -20.1842 C   0  0  2  0  0  0  0  0  0  0  0  0
   18.5745   -5.7489  -20.8771 C   0  0  0  0  0  0  0  0  0  0  0  0
   19.3620   -6.0120  -21.8120 O   0  0  0  0  0  0  0  0  0  0  0  0
   16.5571   -7.2187  -20.8638 C   0  0  0  0  0  0  0  0  0  0  0  0
   15.8440   -8.4249  -20.2475 C   0  0  0  0  0  0  0  0  0  0  0  0
   13.3068   -7.1543  -20.3831 C   0  0  0  0  0  0  0  0  0  0  0  0
   14.1645   -8.6646  -21.0068 Se  0  0  2  0  0  0  0  0  0  0  0  0
   13.3033  -10.0067  -20.0511 C   0  0  0  0  0  0  0  0  0  0  0  0
   13.6949  -11.4183  -20.4900 C   0  0  1  0  0  0  0  0  0  0  0  0
   12.7588  -12.3469  -19.9163 O   0  0  0  0  0  0  0  0  0  0  0  0
   13.4545  -11.5074  -21.9975 C   0  0  1  0  0  0  0  0  0  0  0  0
   13.9798  -12.7392  -22.4947 O   0  0  0  0  0  0  0  0  0  0  0  0
   11.9286  -11.5530  -22.0006 C   0  0  1  0  0  0  0  0  0  0  0  0
   11.4880  -12.1329  -23.2297 O   0  0  0  0  0  0  0  0  0  0  0  0
   11.7002  -12.5551  -20.8682 C   0  0  2  0  0  0  0  0  0  0  0  0
   18.2975   -4.6059  -20.4515 O   0  0  0  0  0  0  0  0  0  0  0  0
    8.5097   -9.4552  -18.2498 N   0  0  0  0  0  0  0  0  0  0  0  0
    9.7355   -9.2098  -18.6794 C   0  0  0  0  0  0  0  0  0  0  0  0
   10.4343  -10.1128  -19.3448 N   0  0  0  0  0  0  0  0  0  0  0  0
    9.9123  -11.3198  -19.6103 C   0  0  0  0  0  0  0  0  0  0  0  0
    8.6284  -11.6150  -19.1738 C   0  0  0  0  0  0  0  0  0  0  0  0
    7.9273  -10.6401  -18.4739 C   0  0  0  0  0  0  0  0  0  0  0  0
    6.7102  -10.8989  -18.0061 N   0  0  0  0  0  0  0  0  0  0  0  0
    8.3482  -12.8560  -19.5557 N   0  0  0  0  0  0  0  0  0  0  0  0
    9.4104  -13.3256  -20.2059 C   0  0  0  0  0  0  0  0  0  0  0  0
   10.3659  -12.3967  -20.2435 N   0  0  0  0  0  0  0  0  0  0  0  0
  2  1  1  1  0  0  0
  2  5  1  0  0  0  0
  2  3  1  0  0  0  0
  3 17  1  0  0  0  0
  3  4  1  0  0  0  0
  5  6  1  0  0  0  0
  7  8  1  0  0  0  0
  8  6  1  1  0  0  0
  8  9  1  0  0  0  0
 10  9  1  1  0  0  0
 10 11  1  0  0  0  0
 10 12  1  0  0  0  0
 11 16  1  0  0  0  0
 12 13  1  1  0  0  0
 12 14  1  0  0  0  0
 14 15  1  6  0  0  0
 14 16  1  0  0  0  0
 16 27  1  1  0  0  0
 18 23  2  0  0  0  0
 18 19  1  0  0  0  0
 19 20  2  0  0  0  0
 20 21  1  0  0  0  0
 21 22  2  0  0  0  0
 21 27  1  0  0  0  0
 22 23  1  0  0  0  0
 22 25  1  0  0  0  0
 23 24  1  0  0  0  0
 25 26  2  0  0  0  0
 26 27  1  0  0  0  0
M  END
>  <CHROM.1>
-61.74593352,148.51008324,175.72470752,-67.24932468,-82.38147221,-166.80196447
57.61570385,13.05251859,-9.68648137,-20.41781487,0.40147885,0.41150682,0.54613573

>  <Name>
ligand

>  <RI>
0

>  <Rbt.Current_Directory>
/home/itssahil/PROJECTS/Mol_Feturizer/New_Systems/rnas/3E5F

>  <Rbt.Executable>
rbdock ($Id: //depot/dev/client3/rdock/2013.1/src/exe/rbdock.cxx#4 $)

>  <Rbt.Library>
libRbt.so (2013.1, Build901 2013/11/27)

>  <Rbt.Parameter_File>
/export/apps/rDock/src/rDock_2013.1_src/data/scripts/dock_solv.prm

>  <Rbt.Receptor>
prm/blind_docking_100.prm

>  <SCORE>
-13.9473

>  <SCORE.INTER>
-13.6816

>  <SCORE.INTER.CONST>
1

>  <SCORE.INTER.POLAR>
0

>  <SCORE.INTER.ROT>
7

>  <SCORE.INTER.SOLV>
7.16123

>  <SCORE.INTER.VDW>
-19.7748

>  <SCORE.INTER.norm>
-0.506726

>  <SCORE.INTRA>
-0.265694

>  <SCORE.INTRA.DIHEDRAL>
-0.924151

>  <SCORE.INTRA.DIHEDRAL.0>
4.89803

>  <SCORE.INTRA.POLAR>
0

>  <SCORE.INTRA.POLAR.0>
0

>  <SCORE.INTRA.REPUL>
0

>  <SCORE.INTRA.REPUL.0>
0

>  <SCORE.INTRA.SOLV>
0.751054

>  <SCORE.INTRA.SOLV.lig_0>
-48.5832

>  <SCORE.INTRA.VDW>
-0.179146

>  <SCORE.INTRA.VDW.0>
-2.39056

>  <SCORE.INTRA.norm>
-0.00984052

>  <SCORE.RESTR>
0

>  <SCORE.RESTR.CAVITY>
0

>  <SCORE.RESTR.norm>
0

>  <SCORE.SYSTEM>
0

>  <SCORE.SYSTEM.CONST>
0

>  <SCORE.SYSTEM.DIHEDRAL>
0

>  <SCORE.SYSTEM.SOLV>
0

>  <SCORE.SYSTEM.norm>
0

>  <SCORE.heavy>
27

>  <SCORE.norm>
-0.516567

>  <RMSD>
5.682

$$$$
ligand
 OpenBabel11021811473D
libRbt.so/2013.1/901 2013/11/27
 27 29  0  0  0  0  0  0  0  0999 V2000
   14.6251   -5.9270  -19.8035 N   0  0  0  0  0  0  0  0  0  0  0  0
   13.5079   -6.3491  -20.6611 C   0  0  2  0  0  0  0  0  0  0  0  0
   12.2484   -6.5557  -19.8142 C   0  0  0  0  0  0  0  0  0  0  0  0
   11.1702   -6.1384  -20.2906 O   0  0  0  0  0  0  0  0  0  0  0  0
   13.8794   -7.6677  -21.3418 C   0  0  0  0  0  0  0  0  0  0  0  0
   14.9987   -7.4876  -22.3705 C   0  0  0  0  0  0  0  0  0  0  0  0
   15.3462   -8.0830  -25.1265 C   0  0  0  0  0  0  0  0  0  0  0  0
   15.0904   -8.9480  -23.5166 Se  0  0  2  0  0  0  0  0  0  0  0  0
   13.3657   -9.6123  -23.7176 C   0  0  0  0  0  0  0  0  0  0  0  0
   13.2928  -11.1398  -23.7050 C   0  0  1  0  0  0  0  0  0  0  0  0
   13.5338  -11.5936  -22.3620 O   0  0  0  0  0  0  0  0  0  0  0  0
   11.8411  -11.5267  -23.9901 C   0  0  1  0  0  0  0  0  0  0  0  0
   11.7498  -12.9398  -24.1781 O   0  0  0  0  0  0  0  0  0  0  0  0
   11.2161  -11.1377  -22.6527 C   0  0  1  0  0  0  0  0  0  0  0  0
    9.9905  -11.8541  -22.4919 O   0  0  0  0  0  0  0  0  0  0  0  0
   12.2618  -11.7220  -21.7020 C   0  0  2  0  0  0  0  0  0  0  0  0
   12.3916   -7.1171  -18.7058 O   0  0  0  0  0  0  0  0  0  0  0  0
    9.4158   -9.8766  -17.8110 N   0  0  0  0  0  0  0  0  0  0  0  0
    9.0152  -10.4847  -18.9144 C   0  0  0  0  0  0  0  0  0  0  0  0
    9.8723  -10.9065  -19.8277 N   0  0  0  0  0  0  0  0  0  0  0  0
   11.1916  -10.7308  -19.6583 C   0  0  0  0  0  0  0  0  0  0  0  0
   11.6501  -10.0948  -18.5132 C   0  0  0  0  0  0  0  0  0  0  0  0
   10.7170   -9.6624  -17.5782 C   0  0  0  0  0  0  0  0  0  0  0  0
   11.1150   -9.0150  -16.4874 N   0  0  0  0  0  0  0  0  0  0  0  0
   12.9755  -10.0435  -18.5840 N   0  0  0  0  0  0  0  0  0  0  0  0
   13.3394  -10.6223  -19.7260 C   0  0  0  0  0  0  0  0  0  0  0  0
   12.2596  -11.0432  -20.3849 N   0  0  0  0  0  0  0  0  0  0  0  0
  2  1  1  1  0  0  0
  2  5  1  0  0  0  0
  2  3  1  0  0  0  0
  3 17  1  0  0  0  0
  3  4  1  0  0  0  0
  5  6  1  0  0  0  0
  7  8  1  0  0  0  0
  8  6  1  1  0  0  0
  8  9  1  0  0  0  0
 10  9  1  1  0  0  0
 10 11  1  0  0  0  0
 10 12  1  0  0  0  0
 11 16  1  0  0  0  0
 12 13  1  1  0  0  0
 12 14  1  0  0  0  0
 14 15  1  1  0  0  0
 14 16  1  0  0  0  0
 16 27  1  1  0  0  0
 18 23  2  0  0  0  0
 18 19  1  0  0  0  0
 19 20  2  0  0  0  0
 20 21  1  0  0  0  0
 21 22  2  0  0  0  0
 21 27  1  0  0  0  0
 22 23  1  0  0  0  0
 22 25  1  0  0  0  0
 23 24  1  0  0  0  0
 25 26  2  0  0  0  0
 26 27  1  0  0  0  0
M  END
>  <CHROM.1>
-68.72782394,138.43667478,-163.37492454,137.68412727,-138.72768262,71.93453109
164.81790873,12.73283737,-9.46615196,-21.33511239,-0.59773571,0.78995904
0.81411070

>  <Name>
ligand

>  <RI>
0

>  <Rbt.Current_Directory>
/home/itssahil/PROJECTS/Mol_Feturizer/New_Systems/rnas/3E5F

>  <Rbt.Executable>
rbdock ($Id: //depot/dev/client3/rdock/2013.1/src/exe/rbdock.cxx#4 $)

>  <Rbt.Library>
libRbt.so (2013.1, Build901 2013/11/27)

>  <Rbt.Parameter_File>
/export/apps/rDock/src/rDock_2013.1_src/data/scripts/dock_solv.prm

>  <Rbt.Receptor>
prm/pocket_docking_5.prm

>  <SCORE>
-16.1897

>  <SCORE.INTER>
-17.2483

>  <SCORE.INTER.CONST>
1

>  <SCORE.INTER.POLAR>
0

>  <SCORE.INTER.ROT>
7

>  <SCORE.INTER.SOLV>
8.68748

>  <SCORE.INTER.VDW>
-22.6614

>  <SCORE.INTER.norm>
-0.638827

>  <SCORE.INTRA>
1.05859

>  <SCORE.INTRA.DIHEDRAL>
3.32168

>  <SCORE.INTRA.DIHEDRAL.0>
4.89803

>  <SCORE.INTRA.POLAR>
0

>  <SCORE.INTRA.POLAR.0>
0

>  <SCORE.INTRA.REPUL>
0

>  <SCORE.INTRA.REPUL.0>
0

>  <SCORE.INTRA.SOLV>
1.54245

>  <SCORE.INTRA.SOLV.lig_0>
-48.5832

>  <SCORE.INTRA.VDW>
-1.37347

>  <SCORE.INTRA.VDW.0>
-2.39056

>  <SCORE.INTRA.norm>
0.0392072

>  <SCORE.RESTR>
0

>  <SCORE.RESTR.CAVITY>
0

>  <SCORE.RESTR.norm>
0

>  <SCORE.SYSTEM>
0

>  <SCORE.SYSTEM.CONST>
0

>  <SCORE.SYSTEM.DIHEDRAL>
0

>  <SCORE.SYSTEM.SOLV>
0

>  <SCORE.SYSTEM.norm>
0

>  <SCORE.heavy>
27

>  <SCORE.norm>
-0.59962

>  <RMSD>
5.682

$$$$
ligand
 OpenBabel11021811473D
libRbt.so/2013.1/901 2013/11/27
 27 29  0  0  0  0  0  0  0  0999 V2000
   17.6821   -6.2191  -21.8004 N   0  0  0  0  0  0  0  0  0  0  0  0
   16.5063   -5.3517  -21.9647 C   0  0  2  0  0  0  0  0  0  0  0  0
   16.8169   -3.9461  -21.4412 C   0  0  0  0  0  0  0  0  0  0  0  0
   17.8644   -3.8090  -20.7723 O   0  0  0  0  0  0  0  0  0  0  0  0
   15.3427   -5.9414  -21.1659 C   0  0  0  0  0  0  0  0  0  0  0  0
   14.8223   -7.2417  -21.7838 C   0  0  0  0  0  0  0  0  0  0  0  0
   14.3998   -8.9737  -19.5720 C   0  0  0  0  0  0  0  0  0  0  0  0
   13.4364   -7.9524  -20.7696 Se  0  0  2  0  0  0  0  0  0  0  0  0
   12.6051   -9.2614  -21.7952 C   0  0  0  0  0  0  0  0  0  0  0  0
   13.4318  -10.5394  -21.9436 C   0  0  1  0  0  0  0  0  0  0  0  0
   12.8654  -11.5470  -21.0883 O   0  0  0  0  0  0  0  0  0  0  0  0
   13.2055  -11.0635  -23.3622 C   0  0  1  0  0  0  0  0  0  0  0  0
   14.0980  -12.1485  -23.6204 O   0  0  0  0  0  0  0  0  0  0  0  0
   11.7802  -11.5876  -23.2060 C   0  0  1  0  0  0  0  0  0  0  0  0
   11.5321  -12.5574  -24.2253 O   0  0  0  0  0  0  0  0  0  0  0  0
   11.9167  -12.3034  -21.8615 C   0  0  2  0  0  0  0  0  0  0  0  0
   15.9965   -3.0418  -21.7124 O   0  0  0  0  0  0  0  0  0  0  0  0
    8.6030  -10.1789  -18.5223 N   0  0  0  0  0  0  0  0  0  0  0  0
    9.7664   -9.7138  -18.9440 C   0  0  0  0  0  0  0  0  0  0  0  0
   10.5092  -10.3786  -19.8117 N   0  0  0  0  0  0  0  0  0  0  0  0
   10.0976  -11.5589  -20.2990 C   0  0  0  0  0  0  0  0  0  0  0  0
    8.8823  -12.0804  -19.8783 C   0  0  0  0  0  0  0  0  0  0  0  0
    8.1321  -11.3528  -18.9620 C   0  0  0  0  0  0  0  0  0  0  0  0
    6.9813  -11.8376  -18.5060 N   0  0  0  0  0  0  0  0  0  0  0  0
    8.7067  -13.2427  -20.4969 N   0  0  0  0  0  0  0  0  0  0  0  0
    9.7666  -13.4475  -21.2755 C   0  0  0  0  0  0  0  0  0  0  0  0
   10.6170  -12.4273  -21.1607 N   0  0  0  0  0  0  0  0  0  0  0  0
  2  1  1  1  0  0  0
  2  5  1  0  0  0  0
  2  3  1  0  0  0  0
  3 17  1  0  0  0  0
  3  4  1  0  0  0  0
  5  6  1  0  0  0  0
  7  8  1  0  0  0  0
  8  6  1  6  0  0  0
  8  9  1  0  0  0  0
 10  9  1  6  0  0  0
 10 11  1  0  0  0  0
 10 12  1  0  0  0  0
 11 16  1  0  0  0  0
 12 13  1  1  0  0  0
 12 14  1  0  0  0  0
 14 15  1  6  0  0  0
 14 16  1  0  0  0  0
 16 27  1  1  0  0  0
 18 23  2  0  0  0  0
 18 19  1  0  0  0  0
 19 20  2  0  0  0  0
 20 21  1  0  0  0  0
 21 22  2  0  0  0  0
 21 27  1  0  0  0  0
 22 23  1  0  0  0  0
 22 25  1  0  0  0  0
 23 24  1  0  0  0  0
 25 26  2  0  0  0  0
 26 27  1  0  0  0  0
M  END
>  <CHROM.1>
-69.64588487,-11.99890495,178.70630700,-87.97261276,72.87752870,104.33146368
29.07562902,12.69520150,-9.32035444,-21.09314020,-0.56754754,-0.59989880
-2.54298704

>  <Name>
ligand

>  <RI>
0

>  <Rbt.Current_Directory>
/home/itssahil/PROJECTS/Mol_Feturizer/New_Systems/rnas/3E5F

>  <Rbt.Executable>
rbdock ($Id: //depot/dev/client3/rdock/2013.1/src/exe/rbdock.cxx#4 $)

>  <Rbt.Library>
libRbt.so (2013.1, Build901 2013/11/27)

>  <Rbt.Parameter_File>
/export/apps/rDock/src/rDock_2013.1_src/data/scripts/dock_solv.prm

>  <Rbt.Receptor>
prm/blind_docking_60.prm

>  <SCORE>
-8.64908

>  <SCORE.INTER>
-11.6051

>  <SCORE.INTER.CONST>
1

>  <SCORE.INTER.POLAR>
0

>  <SCORE.INTER.ROT>
7

>  <SCORE.INTER.SOLV>
9.74531

>  <SCORE.INTER.VDW>
-19.2519

>  <SCORE.INTER.norm>
-0.429819

>  <SCORE.INTRA>
2.95585

>  <SCORE.INTRA.DIHEDRAL>
3.87093

>  <SCORE.INTRA.DIHEDRAL.0>
4.89803

>  <SCORE.INTRA.POLAR>
0

>  <SCORE.INTRA.POLAR.0>
0

>  <SCORE.INTRA.REPUL>
0

>  <SCORE.INTRA.REPUL.0>
0

>  <SCORE.INTRA.SOLV>
0.732335

>  <SCORE.INTRA.SOLV.lig_0>
-48.5832

>  <SCORE.INTRA.VDW>
0.654218

>  <SCORE.INTRA.VDW.0>
-2.39056

>  <SCORE.INTRA.norm>
0.109476

>  <SCORE.RESTR>
0.000194438

>  <SCORE.RESTR.CAVITY>
0.000194438

>  <SCORE.RESTR.norm>
7.2014e-06

>  <SCORE.SYSTEM>
0

>  <SCORE.SYSTEM.CONST>
0

>  <SCORE.SYSTEM.DIHEDRAL>
0

>  <SCORE.SYSTEM.SOLV>
0

>  <SCORE.SYSTEM.norm>
0

>  <SCORE.heavy>
27

>  <SCORE.norm>
-0.320336

>  <RMSD>
5.689

$$$$
ligand
 OpenBabel11021811473D
libRbt.so/2013.1/901 2013/11/27
 27 29  0  0  0  0  0  0  0  0999 V2000
   15.9166   -3.9711  -21.8372 N   0  0  0  0  0  0  0  0  0  0  0  0
   16.8930   -4.9408  -21.3194 C   0  0  2  0  0  0  0  0  0  0  0  0
   18.3051   -4.3524  -21.3968 C   0  0  0  0  0  0  0  0  0  0  0  0
   18.4455   -3.3006  -22.0582 O   0  0  0  0  0  0  0  0  0  0  0  0
   16.8282   -6.2093  -22.1719 C   0  0  0  0  0  0  0  0  0  0  0  0
   15.4394   -6.8524  -22.1401 C   0  0  0  0  0  0  0  0  0  0  0  0
   15.3185   -7.8453  -24.7990 C   0  0  0  0  0  0  0  0  0  0  0  0
   15.4314   -8.4649  -23.0644 Se  0  0  2  0  0  0  0  0  0  0  0  0
   13.7560   -9.2363  -22.8318 C   0  0  0  0  0  0  0  0  0  0  0  0
   13.2004   -9.0778  -21.4159 C   0  0  1  0  0  0  0  0  0  0  0  0
   11.8377   -9.5368  -21.4102 O   0  0  0  0  0  0  0  0  0  0  0  0
   13.9468  -10.0691  -20.5224 C   0  0  1  0  0  0  0  0  0  0  0  0
   13.6043   -9.8345  -19.1556 O   0  0  0  0  0  0  0  0  0  0  0  0
   13.3039  -11.3670  -21.0049 C   0  0  1  0  0  0  0  0  0  0  0  0
   13.4634  -12.3633  -19.9934 O   0  0  0  0  0  0  0  0  0  0  0  0
   11.8395  -10.9281  -21.0438 C   0  0  2  0  0  0  0  0  0  0  0  0
   19.2147   -4.9711  -20.8016 O   0  0  0  0  0  0  0  0  0  0  0  0
    8.8416  -15.0816  -21.6803 N   0  0  0  0  0  0  0  0  0  0  0  0
    9.4156  -14.6359  -20.5760 C   0  0  0  0  0  0  0  0  0  0  0  0
   10.1616  -13.5450  -20.5703 N   0  0  0  0  0  0  0  0  0  0  0  0
   10.3581  -12.8467  -21.6989 C   0  0  0  0  0  0  0  0  0  0  0  0
    9.7730  -13.2847  -22.8786 C   0  0  0  0  0  0  0  0  0  0  0  0
    8.9987  -14.4384  -22.8443 C   0  0  0  0  0  0  0  0  0  0  0  0
    8.4538  -14.9106  -23.9611 N   0  0  0  0  0  0  0  0  0  0  0  0
   10.1165  -12.4337  -23.8390 N   0  0  0  0  0  0  0  0  0  0  0  0
   10.8867  -11.4975  -23.2895 C   0  0  0  0  0  0  0  0  0  0  0  0
   11.0380  -11.7418  -21.9877 N   0  0  0  0  0  0  0  0  0  0  0  0
  2  1  1  6  0  0  0
  2  5  1  0  0  0  0
  2  3  1  0  0  0  0
  3 17  1  0  0  0  0
  3  4  1  0  0  0  0
  5  6  1  0  0  0  0
  7  8  1  0  0  0  0
  8  6  1  1  0  0  0
  8  9  1  0  0  0  0
 10  9  1  6  0  0  0
 10 11  1  0  0  0  0
 10 12  1  0  0  0  0
 11 16  1  0  0  0  0
 12 13  1  1  0  0  0
 12 14  1  0  0  0  0
 14 15  1  1  0  0  0
 14 16  1  0  0  0  0
 16 27  1  6  0  0  0
 18 23  2  0  0  0  0
 18 19  1  0  0  0  0
 19 20  2  0  0  0  0
 20 21  1  0  0  0  0
 21 22  2  0  0  0  0
 21 27  1  0  0  0  0
 22 23  1  0  0  0  0
 22 25  1  0  0  0  0
 23 24  1  0  0  0  0
 25 26  2  0  0  0  0
 26 27  1  0  0  0  0
M  END
>  <CHROM.1>
-59.97275719,-11.48059881,-175.15861733,-79.45190322,-39.97593430,171.83126097
-148.84761901,13.57836586,-9.60621923,-22.02345490,0.15815478,-0.82532019
-1.35099136

>  <Name>
ligand

>  <RI>
0

>  <Rbt.Current_Directory>
/home/itssahil/PROJECTS/Mol_Feturizer/New_Systems/rnas/3E5F

>  <Rbt.Executable>
rbdock ($Id: //depot/dev/client3/rdock/2013.1/src/exe/rbdock.cxx#4 $)

>  <Rbt.Library>
libRbt.so (2013.1, Build901 2013/11/27)

>  <Rbt.Parameter_File>
/export/apps/rDock/src/rDock_2013.1_src/data/scripts/dock_solv.prm

>  <Rbt.Receptor>
prm/pocket_docking_8.prm

>  <SCORE>
-19.5237

>  <SCORE.INTER>
-20.0362

>  <SCORE.INTER.CONST>
1

>  <SCORE.INTER.POLAR>
0

>  <SCORE.INTER.ROT>
7

>  <SCORE.INTER.SOLV>
11.4099

>  <SCORE.INTER.VDW>
-25.4274

>  <SCORE.INTER.norm>
-0.742081

>  <SCORE.INTRA>
0.512527

>  <SCORE.INTRA.DIHEDRAL>
-0.490983

>  <SCORE.INTRA.DIHEDRAL.0>
4.89803

>  <SCORE.INTRA.POLAR>
0

>  <SCORE.INTRA.POLAR.0>
0

>  <SCORE.INTRA.REPUL>
0

>  <SCORE.INTRA.REPUL.0>
0

>  <SCORE.INTRA.SOLV>
0.716947

>  <SCORE.INTRA.SOLV.lig_0>
-48.5832

>  <SCORE.INTRA.VDW>
0.399545

>  <SCORE.INTRA.VDW.0>
-2.39056

>  <SCORE.INTRA.norm>
0.0189825

>  <SCORE.RESTR>
0

>  <SCORE.RESTR.CAVITY>
0

>  <SCORE.RESTR.norm>
0

>  <SCORE.SYSTEM>
0

>  <SCORE.SYSTEM.CONST>
0

>  <SCORE.SYSTEM.DIHEDRAL>
0

>  <SCORE.SYSTEM.SOLV>
0

>  <SCORE.SYSTEM.norm>
0

>  <SCORE.heavy>
27

>  <SCORE.norm>
-0.723098

>  <RMSD>
5.689

$$$$
ligand
 OpenBabel11021811473D
libRbt.so/2013.1/901 2013/11/27
 27 29  0  0  0  0  0  0  0  0999 V2000
    7.5501   -6.4066  -14.9589 N   0  0  0  0  0  0  0  0  0  0  0  0
    8.7636   -5.8638  -15.5871 C   0  0  2  0  0  0  0  0  0  0  0  0
    8.3920   -4.7311  -16.5489 C   0  0  0  0  0  0  0  0  0  0  0  0
    9.2738   -3.8770  -16.7866 O   0  0  0  0  0  0  0  0  0  0  0  0
    9.4568   -6.9813  -16.3685 C   0  0  0  0  0  0  0  0  0  0  0  0
    8.5306   -7.6131  -17.4109 C   0  0  0  0  0  0  0  0  0  0  0  0
    8.5634  -10.1243  -18.7388 C   0  0  0  0  0  0  0  0  0  0  0  0
    9.5062   -8.5385  -18.6940 Se  0  0  2  0  0  0  0  0  0  0  0  0
   11.1029   -9.0736  -17.9064 C   0  0  0  0  0  0  0  0  0  0  0  0
   12.1739   -7.9821  -17.8911 C   0  0  1  0  0  0  0  0  0  0  0  0
   13.1701   -8.3113  -18.8745 O   0  0  0  0  0  0  0  0  0  0  0  0
   11.5228   -6.7008  -18.4132 C   0  0  1  0  0  0  0  0  0  0  0  0
   12.4211   -5.6032  -18.2437 O   0  0  0  0  0  0  0  0  0  0  0  0
   11.4174   -7.0639  -19.8923 C   0  0  1  0  0  0  0  0  0  0  0  0
   11.3089   -5.8607  -20.6549 O   0  0  0  0  0  0  0  0  0  0  0  0
   12.8068   -7.6654  -20.1077 C   0  0  2  0  0  0  0  0  0  0  0  0
    7.2325   -4.7378  -17.0179 O   0  0  0  0  0  0  0  0  0  0  0  0
   10.5281  -11.6646  -22.4442 N   0  0  0  0  0  0  0  0  0  0  0  0
   10.1611  -11.0288  -21.3448 C   0  0  0  0  0  0  0  0  0  0  0  0
   10.8536  -10.0104  -20.8650 N   0  0  0  0  0  0  0  0  0  0  0  0
   11.9619   -9.5842  -21.4894 C   0  0  0  0  0  0  0  0  0  0  0  0
   12.3797  -10.2280  -22.6457 C   0  0  0  0  0  0  0  0  0  0  0  0
   11.6266  -11.2972  -23.1163 C   0  0  0  0  0  0  0  0  0  0  0  0
   12.0160  -11.9634  -24.1988 N   0  0  0  0  0  0  0  0  0  0  0  0
   13.4872   -9.6260  -23.0644 N   0  0  0  0  0  0  0  0  0  0  0  0
   13.7583   -8.6433  -22.2086 C   0  0  0  0  0  0  0  0  0  0  0  0
   12.8346   -8.6114  -21.2478 N   0  0  0  0  0  0  0  0  0  0  0  0
  2  1  1  6  0  0  0
  2  5  1  0  0  0  0
  2  3  1  0  0  0  0
  3 17  1  0  0  0  0
  3  4  1  0  0  0  0
  5  6  1  0  0  0  0
  7  8  1  0  0  0  0
  8  6  1  1  0  0  0
  8  9  1  0  0  0  0
 10  9  1  6  0  0  0
 10 11  1  0  0  0  0
 10 12  1  0  0  0  0
 11 16  1  0  0  0  0
 12 13  1  6  0  0  0
 12 14  1  0  0  0  0
 14 15  1  6  0  0  0
 14 16  1  0  0  0  0
 16 27  1  6  0  0  0
 18 23  2  0  0  0  0
 18 19  1  0  0  0  0
 19 20  2  0  0  0  0
 20 21  1  0  0  0  0
 21 22  2  0  0  0  0
 21 27  1  0  0  0  0
 22 23  1  0  0  0  0
 22 25  1  0  0  0  0
 23 24  1  0  0  0  0
 25 26  2  0  0  0  0
 26 27  1  0  0  0  0
M  END
>  <CHROM.1>
56.69497430,155.23209496,161.32093206,132.17910386,-82.41015119,-106.36861420
72.40125296,10.61620543,-8.12990954,-19.32365264,2.07659260,0.53997339,0.63271071

>  <Name>
ligand

>  <RI>
0

>  <Rbt.Current_Directory>
/home/itssahil/PROJECTS/Mol_Feturizer/New_Systems/rnas/3E5F

>  <Rbt.Executable>
rbdock ($Id: //depot/dev/client3/rdock/2013.1/src/exe/rbdock.cxx#4 $)

>  <Rbt.Library>
libRbt.so (2013.1, Build901 2013/11/27)

>  <Rbt.Parameter_File>
/export/apps/rDock/src/rDock_2013.1_src/data/scripts/dock_solv.prm

>  <Rbt.Receptor>
prm/pocket_docking_6.prm

>  <SCORE>
-6.02338

>  <SCORE.INTER>
-9.72679

>  <SCORE.INTER.CONST>
1

>  <SCORE.INTER.POLAR>
0

>  <SCORE.INTER.ROT>
7

>  <SCORE.INTER.SOLV>
10.6775

>  <SCORE.INTER.VDW>
-18.3104

>  <SCORE.INTER.norm>
-0.360251

>  <SCORE.INTRA>
3.70341

>  <SCORE.INTRA.DIHEDRAL>
5.70983

>  <SCORE.INTRA.DIHEDRAL.0>
4.89803

>  <SCORE.INTRA.POLAR>
0

>  <SCORE.INTRA.POLAR.0>
0

>  <SCORE.INTRA.REPUL>
0

>  <SCORE.INTRA.REPUL.0>
0

>  <SCORE.INTRA.SOLV>
0.994611

>  <SCORE.INTRA.SOLV.lig_0>
-48.5832

>  <SCORE.INTRA.VDW>
0.351193

>  <SCORE.INTRA.VDW.0>
-2.39056

>  <SCORE.INTRA.norm>
0.137163

>  <SCORE.RESTR>
0

>  <SCORE.RESTR.CAVITY>
0

>  <SCORE.RESTR.norm>
0

>  <SCORE.SYSTEM>
0

>  <SCORE.SYSTEM.CONST>
0

>  <SCORE.SYSTEM.DIHEDRAL>
0

>  <SCORE.SYSTEM.SOLV>
0

>  <SCORE.SYSTEM.norm>
0

>  <SCORE.heavy>
27

>  <SCORE.norm>
-0.223088

>  <RMSD>
5.698

$$$$
ligand
 OpenBabel11021811473D
libRbt.so/2013.1/901 2013/11/27
 27 29  0  0  0  0  0  0  0  0999 V2000
   16.7395   -6.6531  -22.2130 N   0  0  0  0  0  0  0  0  0  0  0  0
   15.3173   -6.4528  -21.8982 C   0  0  2  0  0  0  0  0  0  0  0  0
   15.1749   -5.7831  -20.5280 C   0  0  0  0  0  0  0  0  0  0  0  0
   14.2704   -4.9283  -20.4061 O   0  0  0  0  0  0  0  0  0  0  0  0
   14.6220   -7.8149  -21.8682 C   0  0  0  0  0  0  0  0  0  0  0  0
   14.5214   -8.4394  -23.2622 C   0  0  0  0  0  0  0  0  0  0  0  0
   13.3219  -10.3722  -24.9639 C   0  0  0  0  0  0  0  0  0  0  0  0
   13.7345  -10.1213  -23.1828 Se  0  0  2  0  0  0  0  0  0  0  0  0
   12.0462   -9.9156  -22.4320 C   0  0  0  0  0  0  0  0  0  0  0  0
   12.0612   -9.8327  -20.9051 C   0  0  1  0  0  0  0  0  0  0  0  0
   10.9895  -10.6456  -20.3968 O   0  0  0  0  0  0  0  0  0  0  0  0
   13.3359  -10.5284  -20.4258 C   0  0  1  0  0  0  0  0  0  0  0  0
   13.4987  -10.3170  -19.0226 O   0  0  0  0  0  0  0  0  0  0  0  0
   12.9390  -11.9784  -20.6915 C   0  0  1  0  0  0  0  0  0  0  0  0
   13.7438  -12.8325  -19.8766 O   0  0  0  0  0  0  0  0  0  0  0  0
   11.5143  -11.9596  -20.1361 C   0  0  2  0  0  0  0  0  0  0  0  0
   15.9785   -6.1326  -19.6356 O   0  0  0  0  0  0  0  0  0  0  0  0
    9.6806  -14.0538  -24.4831 N   0  0  0  0  0  0  0  0  0  0  0  0
   10.5021  -13.0280  -24.3403 C   0  0  0  0  0  0  0  0  0  0  0  0
   10.8872  -12.6045  -23.1491 N   0  0  0  0  0  0  0  0  0  0  0  0
   10.4527  -13.2130  -22.0352 C   0  0  0  0  0  0  0  0  0  0  0  0
    9.5875  -14.2926  -22.1449 C   0  0  0  0  0  0  0  0  0  0  0  0
    9.2028  -14.7054  -23.4151 C   0  0  0  0  0  0  0  0  0  0  0  0
    8.3453  -15.7109  -23.5595 N   0  0  0  0  0  0  0  0  0  0  0  0
    9.3072  -14.7109  -20.9157 N   0  0  0  0  0  0  0  0  0  0  0  0
    9.9671  -13.9285  -20.0649 C   0  0  0  0  0  0  0  0  0  0  0  0
   10.6665  -13.0150  -20.7385 N   0  0  0  0  0  0  0  0  0  0  0  0
  2  1  1  1  0  0  0
  2  5  1  0  0  0  0
  2  3  1  0  0  0  0
  3 17  1  0  0  0  0
  3  4  1  0  0  0  0
  5  6  1  0  0  0  0
  7  8  1  0  0  0  0
  8  6  1  6  0  0  0
  8  9  1  0  0  0  0
 10  9  1  6  0  0  0
 10 11  1  0  0  0  0
 10 12  1  0  0  0  0
 11 16  1  0  0  0  0
 12 13  1  1  0  0  0
 12 14  1  0  0  0  0
 14 15  1  1  0  0  0
 14 16  1  0  0  0  0
 16 27  1  6  0  0  0
 18 23  2  0  0  0  0
 18 19  1  0  0  0  0
 19 20  2  0  0  0  0
 20 21  1  0  0  0  0
 21 22  2  0  0  0  0
 21 27  1  0  0  0  0
 22 23  1  0  0  0  0
 22 25  1  0  0  0  0
 23 24  1  0  0  0  0
 25 26  2  0  0  0  0
 26 27  1  0  0  0  0
M  END
>  <CHROM.1>
-69.44924134,141.86948883,177.71996222,164.56214727,-81.35853441,-136.50931132
64.78313624,12.58974244,-10.69315541,-21.91101482,-0.18251702,-0.92597906
-1.64870933

>  <Name>
ligand

>  <RI>
0

>  <Rbt.Current_Directory>
/home/itssahil/PROJECTS/Mol_Feturizer/New_Systems/rnas/3E5F

>  <Rbt.Executable>
rbdock ($Id: //depot/dev/client3/rdock/2013.1/src/exe/rbdock.cxx#4 $)

>  <Rbt.Library>
libRbt.so (2013.1, Build901 2013/11/27)

>  <Rbt.Parameter_File>
/export/apps/rDock/src/rDock_2013.1_src/data/scripts/dock_solv.prm

>  <Rbt.Receptor>
prm/blind_docking_60.prm

>  <SCORE>
-12.744

>  <SCORE.INTER>
-13.3914

>  <SCORE.INTER.CONST>
1

>  <SCORE.INTER.POLAR>
0

>  <SCORE.INTER.ROT>
7

>  <SCORE.INTER.SOLV>
11.7971

>  <SCORE.INTER.VDW>
-21.1266

>  <SCORE.INTER.norm>
-0.495977

>  <SCORE.INTRA>
0.562138

>  <SCORE.INTRA.DIHEDRAL>
2.97809

>  <SCORE.INTRA.DIHEDRAL.0>
4.89803

>  <SCORE.INTRA.POLAR>
0

>  <SCORE.INTRA.POLAR.0>
0

>  <SCORE.INTRA.REPUL>
0

>  <SCORE.INTRA.REPUL.0>
0

>  <SCORE.INTRA.SOLV>
0.72649

>  <SCORE.INTRA.SOLV.lig_0>
-48.5832

>  <SCORE.INTRA.VDW>
-1.29015

>  <SCORE.INTRA.VDW.0>
-2.39056

>  <SCORE.INTRA.norm>
0.0208199

>  <SCORE.RESTR>
0.0852292

>  <SCORE.RESTR.CAVITY>
0.0852292

>  <SCORE.RESTR.norm>
0.00315664

>  <SCORE.SYSTEM>
0

>  <SCORE.SYSTEM.CONST>
0

>  <SCORE.SYSTEM.DIHEDRAL>
0

>  <SCORE.SYSTEM.SOLV>
0

>  <SCORE.SYSTEM.norm>
0

>  <SCORE.heavy>
27

>  <SCORE.norm>
-0.472

>  <RMSD>
5.700

$$$$
ligand
 OpenBabel11021811473D
libRbt.so/2013.1/901 2013/11/27
 27 29  0  0  0  0  0  0  0  0999 V2000
   11.6246  -12.5709  -22.4175 N   0  0  0  0  0  0  0  0  0  0  0  0
   12.8998  -12.3143  -21.7320 C   0  0  2  0  0  0  0  0  0  0  0  0
   12.6542  -12.0988  -20.2355 C   0  0  0  0  0  0  0  0  0  0  0  0
   11.5156  -11.7069  -19.8986 O   0  0  0  0  0  0  0  0  0  0  0  0
   13.5341  -11.0551  -22.3252 C   0  0  0  0  0  0  0  0  0  0  0  0
   12.6125   -9.8383  -22.2087 C   0  0  0  0  0  0  0  0  0  0  0  0
   14.9576   -8.2383  -22.3152 C   0  0  0  0  0  0  0  0  0  0  0  0
   13.4450   -8.4593  -21.2813 Se  0  0  2  0  0  0  0  0  0  0  0  0
   14.1577   -9.1815  -19.7235 C   0  0  0  0  0  0  0  0  0  0  0  0
   13.4655   -8.6935  -18.4502 C   0  0  1  0  0  0  0  0  0  0  0  0
   13.8389   -7.3227  -18.2286 O   0  0  0  0  0  0  0  0  0  0  0  0
   11.9650   -8.6444  -18.7403 C   0  0  1  0  0  0  0  0  0  0  0  0
   11.2516   -8.3778  -17.5318 O   0  0  0  0  0  0  0  0  0  0  0  0
   11.9302   -7.4168  -19.6472 C   0  0  1  0  0  0  0  0  0  0  0  0
   10.6070   -6.8780  -19.6418 O   0  0  0  0  0  0  0  0  0  0  0  0
   12.8489   -6.4865  -18.8538 C   0  0  2  0  0  0  0  0  0  0  0  0
   13.6117  -12.3209  -19.4622 O   0  0  0  0  0  0  0  0  0  0  0  0
   17.2230   -4.1829  -20.3389 N   0  0  0  0  0  0  0  0  0  0  0  0
   17.0589   -5.1715  -19.4767 C   0  0  0  0  0  0  0  0  0  0  0  0
   15.8636   -5.6615  -19.1979 N   0  0  0  0  0  0  0  0  0  0  0  0
   14.7674   -5.1659  -19.7918 C   0  0  0  0  0  0  0  0  0  0  0  0
   14.8996   -4.1263  -20.7016 C   0  0  0  0  0  0  0  0  0  0  0  0
   16.1732   -3.6359  -20.9651 C   0  0  0  0  0  0  0  0  0  0  0  0
   16.3362   -2.6153  -21.8011 N   0  0  0  0  0  0  0  0  0  0  0  0
   13.6845   -3.8187  -21.1414 N   0  0  0  0  0  0  0  0  0  0  0  0
   12.8207   -4.6295  -20.5349 C   0  0  0  0  0  0  0  0  0  0  0  0
   13.4720   -5.4522  -19.7126 N   0  0  0  0  0  0  0  0  0  0  0  0
  2  1  1  6  0  0  0
  2  5  1  0  0  0  0
  2  3  1  0  0  0  0
  3 17  1  0  0  0  0
  3  4  1  0  0  0  0
  5  6  1  0  0  0  0
  7  8  1  0  0  0  0
  8  6  1  6  0  0  0
  8  9  1  0  0  0  0
 10  9  1  6  0  0  0
 10 11  1  0  0  0  0
 10 12  1  0  0  0  0
 11 16  1  0  0  0  0
 12 13  1  1  0  0  0
 12 14  1  0  0  0  0
 14 15  1  1  0  0  0
 14 16  1  0  0  0  0
 16 27  1  6  0  0  0
 18 23  2  0  0  0  0
 18 19  1  0  0  0  0
 19 20  2  0  0  0  0
 20 21  1  0  0  0  0
 21 22  2  0  0  0  0
 21 27  1  0  0  0  0
 22 23  1  0  0  0  0
 22 25  1  0  0  0  0
 23 24  1  0  0  0  0
 25 26  2  0  0  0  0
 26 27  1  0  0  0  0
M  END
>  <CHROM.1>
57.69435930,-24.24422603,122.78613921,56.74306151,-112.09792735,-72.07210930
-8.82390668,13.59224489,-7.83298790,-20.37370919,-2.13203289,0.76624253,0.45838223

>  <Name>
ligand

>  <RI>
0

>  <Rbt.Current_Directory>
/home/itssahil/PROJECTS/Mol_Feturizer/New_Systems/rnas/3E5F

>  <Rbt.Executable>
rbdock ($Id: //depot/dev/client3/rdock/2013.1/src/exe/rbdock.cxx#4 $)

>  <Rbt.Library>
libRbt.so (2013.1, Build901 2013/11/27)

>  <Rbt.Parameter_File>
/export/apps/rDock/src/rDock_2013.1_src/data/scripts/dock_solv.prm

>  <Rbt.Receptor>
prm/blind_docking_100.prm

>  <SCORE>
-8.25186

>  <SCORE.INTER>
-11.3107

>  <SCORE.INTER.CONST>
1

>  <SCORE.INTER.POLAR>
0

>  <SCORE.INTER.ROT>
7

>  <SCORE.INTER.SOLV>
19.3731

>  <SCORE.INTER.VDW>
-22.2648

>  <SCORE.INTER.norm>
-0.418914

>  <SCORE.INTRA>
3.05882

>  <SCORE.INTRA.DIHEDRAL>
5.8826

>  <SCORE.INTRA.DIHEDRAL.0>
4.89803

>  <SCORE.INTRA.POLAR>
0

>  <SCORE.INTRA.POLAR.0>
0

>  <SCORE.INTRA.REPUL>
0

>  <SCORE.INTRA.REPUL.0>
0

>  <SCORE.INTRA.SOLV>
1.00529

>  <SCORE.INTRA.SOLV.lig_0>
-48.5832

>  <SCORE.INTRA.VDW>
-0.385124

>  <SCORE.INTRA.VDW.0>
-2.39056

>  <SCORE.INTRA.norm>
0.11329

>  <SCORE.RESTR>
0

>  <SCORE.RESTR.CAVITY>
0

>  <SCORE.RESTR.norm>
0

>  <SCORE.SYSTEM>
0

>  <SCORE.SYSTEM.CONST>
0

>  <SCORE.SYSTEM.DIHEDRAL>
0

>  <SCORE.SYSTEM.SOLV>
0

>  <SCORE.SYSTEM.norm>
0

>  <SCORE.heavy>
27

>  <SCORE.norm>
-0.305624

>  <RMSD>
5.705

$$$$
ligand
 OpenBabel11021811473D
libRbt.so/2013.1/901 2013/11/27
 27 29  0  0  0  0  0  0  0  0999 V2000
   12.2355   -1.1469  -17.3970 N   0  0  0  0  0  0  0  0  0  0  0  0
   12.9211   -0.2444  -18.3335 C   0  0  2  0  0  0  0  0  0  0  0  0
   11.9024    0.6773  -19.0111 C   0  0  0  0  0  0  0  0  0  0  0  0
   10.7530    0.2182  -19.1890 O   0  0  0  0  0  0  0  0  0  0  0  0
   13.6284   -1.0836  -19.3990 C   0  0  0  0  0  0  0  0  0  0  0  0
   13.3847   -2.5823  -19.2050 C   0  0  0  0  0  0  0  0  0  0  0  0
   12.7166   -5.1216  -20.2896 C   0  0  0  0  0  0  0  0  0  0  0  0
   13.3007   -3.4602  -20.8411 Se  0  0  2  0  0  0  0  0  0  0  0  0
   15.0444   -3.8316  -21.3683 C   0  0  0  0  0  0  0  0  0  0  0  0
   15.9211   -4.3793  -20.2414 C   0  0  1  0  0  0  0  0  0  0  0  0
   15.5857   -5.7627  -20.0383 O   0  0  0  0  0  0  0  0  0  0  0  0
   17.3606   -4.4012  -20.7567 C   0  0  1  0  0  0  0  0  0  0  0  0
   18.2484   -4.7242  -19.6854 O   0  0  0  0  0  0  0  0  0  0  0  0
   17.2582   -5.5797  -21.7216 C   0  0  1  0  0  0  0  0  0  0  0  0
   18.5671   -6.1073  -21.9442 O   0  0  0  0  0  0  0  0  0  0  0  0
   16.4701   -6.5573  -20.8487 C   0  0  2  0  0  0  0  0  0  0  0  0
   12.2967    1.8163  -19.3450 O   0  0  0  0  0  0  0  0  0  0  0  0
   14.8858   -7.9664  -25.5550 N   0  0  0  0  0  0  0  0  0  0  0  0
   15.6145   -6.9204  -25.2051 C   0  0  0  0  0  0  0  0  0  0  0  0
   15.9445   -6.6911  -23.9460 N   0  0  0  0  0  0  0  0  0  0  0  0
   15.5474   -7.5258  -22.9736 C   0  0  0  0  0  0  0  0  0  0  0  0
   14.7794   -8.6341  -23.3021 C   0  0  0  0  0  0  0  0  0  0  0  0
   14.4500   -8.8384  -24.6369 C   0  0  0  0  0  0  0  0  0  0  0  0
   13.6838   -9.8672  -24.9858 N   0  0  0  0  0  0  0  0  0  0  0  0
   14.5181   -9.2909  -22.1775 N   0  0  0  0  0  0  0  0  0  0  0  0
   15.0961   -8.6256  -21.1802 C   0  0  0  0  0  0  0  0  0  0  0  0
   15.7245   -7.5507  -21.6567 N   0  0  0  0  0  0  0  0  0  0  0  0
  2  1  1  1  0  0  0
  2  5  1  0  0  0  0
  2  3  1  0  0  0  0
  3 17  1  0  0  0  0
  3  4  1  0  0  0  0
  5  6  1  0  0  0  0
  7  8  1  0  0  0  0
  8  6  1  1  0  0  0
  8  9  1  0  0  0  0
 10  9  1  6  0  0  0
 10 11  1  0  0  0  0
 10 12  1  0  0  0  0
 11 16  1  0  0  0  0
 12 13  1  1  0  0  0
 12 14  1  0  0  0  0
 14 15  1  1  0  0  0
 14 16  1  0  0  0  0
 16 27  1  6  0  0  0
 18 23  2  0  0  0  0
 18 19  1  0  0  0  0
 19 20  2  0  0  0  0
 20 21  1  0  0  0  0
 21 22  2  0  0  0  0
 21 27  1  0  0  0  0
 22 23  1  0  0  0  0
 22 25  1  0  0  0  0
 23 24  1  0  0  0  0
 25 26  2  0  0  0  0
 26 27  1  0  0  0  0
M  END
>  <CHROM.1>
1.67631407,-31.03089106,145.94566722,-170.53411034,44.21751049,77.20548891
109.28790638,14.51552784,-4.66104057,-21.17640280,1.92706585,-0.29091798
0.62286968

>  <Name>
ligand

>  <RI>
0

>  <Rbt.Current_Directory>
/home/itssahil/PROJECTS/Mol_Feturizer/New_Systems/rnas/3E5F

>  <Rbt.Executable>
rbdock ($Id: //depot/dev/client3/rdock/2013.1/src/exe/rbdock.cxx#4 $)

>  <Rbt.Library>
libRbt.so (2013.1, Build901 2013/11/27)

>  <Rbt.Parameter_File>
/export/apps/rDock/src/rDock_2013.1_src/data/scripts/dock_solv.prm

>  <Rbt.Receptor>
prm/blind_docking_80.prm

>  <SCORE>
-14.0717

>  <SCORE.INTER>
-21.5726

>  <SCORE.INTER.CONST>
1

>  <SCORE.INTER.POLAR>
0

>  <SCORE.INTER.ROT>
7

>  <SCORE.INTER.SOLV>
19.8369

>  <SCORE.INTER.VDW>
-29.2607

>  <SCORE.INTER.norm>
-0.798985

>  <SCORE.INTRA>
7.50085

>  <SCORE.INTRA.DIHEDRAL>
8.71311

>  <SCORE.INTRA.DIHEDRAL.0>
4.89803

>  <SCORE.INTRA.POLAR>
0

>  <SCORE.INTRA.POLAR.0>
0

>  <SCORE.INTRA.REPUL>
0

>  <SCORE.INTRA.REPUL.0>
0

>  <SCORE.INTRA.SOLV>
1.2318

>  <SCORE.INTRA.SOLV.lig_0>
-48.5832

>  <SCORE.INTRA.VDW>
2.52839

>  <SCORE.INTRA.VDW.0>
-2.39056

>  <SCORE.INTRA.norm>
0.277809

>  <SCORE.RESTR>
0

>  <SCORE.RESTR.CAVITY>
0

>  <SCORE.RESTR.norm>
0

>  <SCORE.SYSTEM>
0

>  <SCORE.SYSTEM.CONST>
0

>  <SCORE.SYSTEM.DIHEDRAL>
0

>  <SCORE.SYSTEM.SOLV>
0

>  <SCORE.SYSTEM.norm>
0

>  <SCORE.heavy>
27

>  <SCORE.norm>
-0.521175

>  <RMSD>
5.720

$$$$
ligand
 OpenBabel11021811473D
libRbt.so/2013.1/901 2013/11/27
 27 29  0  0  0  0  0  0  0  0999 V2000
   15.1615   -4.9808  -20.5805 N   0  0  0  0  0  0  0  0  0  0  0  0
   16.4728   -5.6458  -20.5959 C   0  0  2  0  0  0  0  0  0  0  0  0
   17.4898   -4.7781  -21.3436 C   0  0  0  0  0  0  0  0  0  0  0  0
   18.6978   -4.9695  -21.0838 O   0  0  0  0  0  0  0  0  0  0  0  0
   16.3354   -6.9909  -21.3112 C   0  0  0  0  0  0  0  0  0  0  0  0
   15.8025   -6.8313  -22.7374 C   0  0  0  0  0  0  0  0  0  0  0  0
   15.3842   -7.9582  -25.3114 C   0  0  0  0  0  0  0  0  0  0  0  0
   15.5809   -8.4861  -23.5541 Se  0  0  2  0  0  0  0  0  0  0  0  0
   13.8688   -9.0867  -23.1489 C   0  0  0  0  0  0  0  0  0  0  0  0
   13.6855  -10.5920  -23.3461 C   0  0  1  0  0  0  0  0  0  0  0  0
   13.7095  -11.2242  -22.0548 O   0  0  0  0  0  0  0  0  0  0  0  0
   12.2618  -10.8121  -23.8588 C   0  0  1  0  0  0  0  0  0  0  0  0
   12.0956  -12.1785  -24.2405 O   0  0  0  0  0  0  0  0  0  0  0  0
   11.4911  -10.5338  -22.5707 C   0  0  1  0  0  0  0  0  0  0  0  0
   10.2068  -11.1533  -22.6598 O   0  0  0  0  0  0  0  0  0  0  0  0
   12.3540  -11.3185  -21.5816 C   0  0  2  0  0  0  0  0  0  0  0  0
   17.0379   -3.9365  -22.1509 O   0  0  0  0  0  0  0  0  0  0  0  0
    9.1397   -9.8753  -17.8093 N   0  0  0  0  0  0  0  0  0  0  0  0
    8.8493  -10.3312  -19.0157 C   0  0  0  0  0  0  0  0  0  0  0  0
    9.7919  -10.6646  -19.8800 N   0  0  0  0  0  0  0  0  0  0  0  0
   11.0882  -10.5519  -19.5531 C   0  0  0  0  0  0  0  0  0  0  0  0
   11.4323  -10.0753  -18.2960 C   0  0  0  0  0  0  0  0  0  0  0  0
   10.4120   -9.7317  -17.4169 C   0  0  0  0  0  0  0  0  0  0  0  0
   10.7020   -9.2352  -16.2183 N   0  0  0  0  0  0  0  0  0  0  0  0
   12.7584  -10.0569  -18.2210 N   0  0  0  0  0  0  0  0  0  0  0  0
   13.2325  -10.5027  -19.3820 C   0  0  0  0  0  0  0  0  0  0  0  0
   12.2225  -10.8061  -20.1975 N   0  0  0  0  0  0  0  0  0  0  0  0
  2  1  1  6  0  0  0
  2  5  1  0  0  0  0
  2  3  1  0  0  0  0
  3 17  1  0  0  0  0
  3  4  1  0  0  0  0
  5  6  1  0  0  0  0
  7  8  1  0  0  0  0
  8  6  1  1  0  0  0
  8  9  1  0  0  0  0
 10  9  1  1  0  0  0
 10 11  1  0  0  0  0
 10 12  1  0  0  0  0
 11 16  1  0  0  0  0
 12 13  1  1  0  0  0
 12 14  1  0  0  0  0
 14 15  1  6  0  0  0
 14 16  1  0  0  0  0
 16 27  1  1  0  0  0
 18 23  2  0  0  0  0
 18 19  1  0  0  0  0
 19 20  2  0  0  0  0
 20 21  1  0  0  0  0
 21 22  2  0  0  0  0
 21 27  1  0  0  0  0
 22 23  1  0  0  0  0
 22 25  1  0  0  0  0
 23 24  1  0  0  0  0
 25 26  2  0  0  0  0
 26 27  1  0  0  0  0
M  END
>  <CHROM.1>
57.69389774,157.48955829,-177.66117943,-165.78619803,-161.10822601,103.04455156
168.31826163,13.64295958,-8.90605179,-21.49280580,-0.06569036,0.71304843
1.06431269

>  <Name>
ligand

>  <RI>
0

>  <Rbt.Current_Directory>
/home/itssahil/PROJECTS/Mol_Feturizer/New_Systems/rnas/3E5F

>  <Rbt.Executable>
rbdock ($Id: //depot/dev/client3/rdock/2013.1/src/exe/rbdock.cxx#4 $)

>  <Rbt.Library>
libRbt.so (2013.1, Build901 2013/11/27)

>  <Rbt.Parameter_File>
/export/apps/rDock/src/rDock_2013.1_src/data/scripts/dock_solv.prm

>  <Rbt.Receptor>
prm/pocket_docking_5.prm

>  <SCORE>
-14.7551

>  <SCORE.INTER>
-17.7762

>  <SCORE.INTER.CONST>
1

>  <SCORE.INTER.POLAR>
0

>  <SCORE.INTER.ROT>
7

>  <SCORE.INTER.SOLV>
10.2691

>  <SCORE.INTER.VDW>
-23.5405

>  <SCORE.INTER.norm>
-0.658379

>  <SCORE.INTRA>
3.02112

>  <SCORE.INTRA.DIHEDRAL>
3.78191

>  <SCORE.INTRA.DIHEDRAL.0>
4.89803

>  <SCORE.INTRA.POLAR>
0

>  <SCORE.INTRA.POLAR.0>
0

>  <SCORE.INTRA.REPUL>
0

>  <SCORE.INTRA.REPUL.0>
0

>  <SCORE.INTRA.SOLV>
0.813454

>  <SCORE.INTRA.SOLV.lig_0>
-48.5832

>  <SCORE.INTRA.VDW>
0.723438

>  <SCORE.INTRA.VDW.0>
-2.39056

>  <SCORE.INTRA.norm>
0.111893

>  <SCORE.RESTR>
0

>  <SCORE.RESTR.CAVITY>
0

>  <SCORE.RESTR.norm>
0

>  <SCORE.SYSTEM>
0

>  <SCORE.SYSTEM.CONST>
0

>  <SCORE.SYSTEM.DIHEDRAL>
0

>  <SCORE.SYSTEM.SOLV>
0

>  <SCORE.SYSTEM.norm>
0

>  <SCORE.heavy>
27

>  <SCORE.norm>
-0.546485

>  <RMSD>
5.763

$$$$
ligand
 OpenBabel11021811473D
libRbt.so/2013.1/901 2013/11/27
 27 29  0  0  0  0  0  0  0  0999 V2000
   18.0083   -8.4802  -20.1472 N   0  0  0  0  0  0  0  0  0  0  0  0
   17.3465   -7.1681  -20.1947 C   0  0  2  0  0  0  0  0  0  0  0  0
   16.6955   -6.8622  -18.8423 C   0  0  0  0  0  0  0  0  0  0  0  0
   16.6054   -5.6585  -18.5159 O   0  0  0  0  0  0  0  0  0  0  0  0
   16.2671   -7.1989  -21.2782 C   0  0  0  0  0  0  0  0  0  0  0  0
   15.2595   -8.3292  -21.0532 C   0  0  0  0  0  0  0  0  0  0  0  0
   12.5212   -7.9309  -20.4102 C   0  0  0  0  0  0  0  0  0  0  0  0
   13.6383   -7.9495  -21.8790 Se  0  0  2  0  0  0  0  0  0  0  0  0
   13.0805   -9.4915  -22.7550 C   0  0  0  0  0  0  0  0  0  0  0  0
   13.7844  -10.7596  -22.2701 C   0  0  1  0  0  0  0  0  0  0  0  0
   13.2182  -11.1353  -21.0028 O   0  0  0  0  0  0  0  0  0  0  0  0
   13.3889  -11.8896  -23.2214 C   0  0  1  0  0  0  0  0  0  0  0  0
   14.1638  -13.0539  -22.9310 O   0  0  0  0  0  0  0  0  0  0  0  0
   11.9460  -12.0981  -22.7687 C   0  0  1  0  0  0  0  0  0  0  0  0
   11.5291  -13.4103  -23.1501 O   0  0  0  0  0  0  0  0  0  0  0  0
   12.1454  -12.0608  -21.2529 C   0  0  2  0  0  0  0  0  0  0  0  0
   16.3110   -7.8375  -18.1603 O   0  0  0  0  0  0  0  0  0  0  0  0
    7.9508  -13.6618  -18.7060 N   0  0  0  0  0  0  0  0  0  0  0  0
    8.9239  -14.3832  -19.2354 C   0  0  0  0  0  0  0  0  0  0  0  0
    9.9439  -13.8236  -19.8624 N   0  0  0  0  0  0  0  0  0  0  0  0
   10.0248  -12.4895  -19.9786 C   0  0  0  0  0  0  0  0  0  0  0  0
    9.0210  -11.6989  -19.4370 C   0  0  0  0  0  0  0  0  0  0  0  0
    7.9631  -12.3253  -18.7887 C   0  0  0  0  0  0  0  0  0  0  0  0
    6.9635  -11.6040  -18.2909 N   0  0  0  0  0  0  0  0  0  0  0  0
    9.3293  -10.4307  -19.6841 N   0  0  0  0  0  0  0  0  0  0  0  0
   10.4793  -10.4202  -20.3542 C   0  0  0  0  0  0  0  0  0  0  0  0
   10.9088  -11.6690  -20.5369 N   0  0  0  0  0  0  0  0  0  0  0  0
  2  1  1  1  0  0  0
  2  5  1  0  0  0  0
  2  3  1  0  0  0  0
  3 17  1  0  0  0  0
  3  4  1  0  0  0  0
  5  6  1  0  0  0  0
  7  8  1  0  0  0  0
  8  6  1  1  0  0  0
  8  9  1  0  0  0  0
 10  9  1  6  0  0  0
 10 11  1  0  0  0  0
 10 12  1  0  0  0  0
 11 16  1  0  0  0  0
 12 13  1  1  0  0  0
 12 14  1  0  0  0  0
 14 15  1  1  0  0  0
 14 16  1  0  0  0  0
 16 27  1  1  0  0  0
 18 23  2  0  0  0  0
 18 19  1  0  0  0  0
 19 20  2  0  0  0  0
 20 21  1  0  0  0  0
 21 22  2  0  0  0  0
 21 27  1  0  0  0  0
 22 23  1  0  0  0  0
 22 25  1  0  0  0  0
 23 24  1  0  0  0  0
 25 26  2  0  0  0  0
 26 27  1  0  0  0  0
M  END
>  <CHROM.1>
56.17723030,150.38605346,156.17823378,-118.94599288,17.66971849,76.26939269
-143.53661832,12.74979296,-10.09169368,-20.76195804,-0.39808942,-0.55749037
-2.33010669

>  <Name>
ligand

>  <RI>
0

>  <Rbt.Current_Directory>
/home/itssahil/PROJECTS/Mol_Feturizer/New_Systems/rnas/3E5F

>  <Rbt.Executable>
rbdock ($Id: //depot/dev/client3/rdock/2013.1/src/exe/rbdock.cxx#4 $)

>  <Rbt.Library>
libRbt.so (2013.1, Build901 2013/11/27)

>  <Rbt.Parameter_File>
/export/apps/rDock/src/rDock_2013.1_src/data/scripts/dock_solv.prm

>  <Rbt.Receptor>
prm/blind_docking_80.prm

>  <SCORE>
-9.89251

>  <SCORE.INTER>
-12.7691

>  <SCORE.INTER.CONST>
1

>  <SCORE.INTER.POLAR>
0

>  <SCORE.INTER.ROT>
7

>  <SCORE.INTER.SOLV>
11.1245

>  <SCORE.INTER.VDW>
-20.4876

>  <SCORE.INTER.norm>
-0.472931

>  <SCORE.INTRA>
2.87664

>  <SCORE.INTRA.DIHEDRAL>
4.38858

>  <SCORE.INTRA.DIHEDRAL.0>
4.89803

>  <SCORE.INTRA.POLAR>
0

>  <SCORE.INTRA.POLAR.0>
0

>  <SCORE.INTRA.REPUL>
0

>  <SCORE.INTRA.REPUL.0>
0

>  <SCORE.INTRA.SOLV>
0.881105

>  <SCORE.INTRA.SOLV.lig_0>
-48.5832

>  <SCORE.INTRA.VDW>
0.241793

>  <SCORE.INTRA.VDW.0>
-2.39056

>  <SCORE.INTRA.norm>
0.106542

>  <SCORE.RESTR>
0

>  <SCORE.RESTR.CAVITY>
0

>  <SCORE.RESTR.norm>
0

>  <SCORE.SYSTEM>
0

>  <SCORE.SYSTEM.CONST>
0

>  <SCORE.SYSTEM.DIHEDRAL>
0

>  <SCORE.SYSTEM.SOLV>
0

>  <SCORE.SYSTEM.norm>
0

>  <SCORE.heavy>
27

>  <SCORE.norm>
-0.366389

>  <RMSD>
5.782

$$$$
ligand
 OpenBabel11021811473D
libRbt.so/2013.1/901 2013/11/27
 27 29  0  0  0  0  0  0  0  0999 V2000
   17.4324   -5.7794  -20.2888 N   0  0  0  0  0  0  0  0  0  0  0  0
   16.4548   -6.5187  -19.4767 C   0  0  2  0  0  0  0  0  0  0  0  0
   17.0355   -7.8755  -19.0670 C   0  0  0  0  0  0  0  0  0  0  0  0
   17.4985   -8.5931  -19.9804 O   0  0  0  0  0  0  0  0  0  0  0  0
   15.1906   -6.7419  -20.3086 C   0  0  0  0  0  0  0  0  0  0  0  0
   14.1173   -7.5056  -19.5287 C   0  0  0  0  0  0  0  0  0  0  0  0
   11.4717   -6.5829  -19.9975 C   0  0  0  0  0  0  0  0  0  0  0  0
   12.6462   -7.8704  -20.6045 Se  0  0  2  0  0  0  0  0  0  0  0  0
   11.8575   -9.4284  -19.9665 C   0  0  0  0  0  0  0  0  0  0  0  0
   12.8191  -10.6150  -19.8918 C   0  0  1  0  0  0  0  0  0  0  0  0
   12.1205  -11.7280  -19.3080 O   0  0  0  0  0  0  0  0  0  0  0  0
   13.1126  -11.0518  -21.3276 C   0  0  1  0  0  0  0  0  0  0  0  0
   14.1508  -12.0330  -21.3274 O   0  0  0  0  0  0  0  0  0  0  0  0
   11.7757  -11.7082  -21.6627 C   0  0  1  0  0  0  0  0  0  0  0  0
   11.9690  -12.6188  -22.7465 O   0  0  0  0  0  0  0  0  0  0  0  0
   11.5528  -12.5058  -20.3771 C   0  0  2  0  0  0  0  0  0  0  0  0
   16.9955   -8.1702  -17.8521 O   0  0  0  0  0  0  0  0  0  0  0  0
    6.9900  -10.6649  -18.8161 N   0  0  0  0  0  0  0  0  0  0  0  0
    8.1494  -10.0363  -18.9072 C   0  0  0  0  0  0  0  0  0  0  0  0
    9.2419  -10.6479  -19.3304 N   0  0  0  0  0  0  0  0  0  0  0  0
    9.2055  -11.9405  -19.6878 C   0  0  0  0  0  0  0  0  0  0  0  0
    8.0065  -12.6343  -19.6040 C   0  0  0  0  0  0  0  0  0  0  0  0
    6.8807  -11.9569  -19.1506 C   0  0  0  0  0  0  0  0  0  0  0  0
    5.7232  -12.5976  -19.0199 N   0  0  0  0  0  0  0  0  0  0  0  0
    8.2325  -13.8796  -20.0072 N   0  0  0  0  0  0  0  0  0  0  0  0
    9.5202  -13.9693  -20.3318 C   0  0  0  0  0  0  0  0  0  0  0  0
   10.1186  -12.7935  -20.1404 N   0  0  0  0  0  0  0  0  0  0  0  0
  2  1  1  6  0  0  0
  2  5  1  0  0  0  0
  2  3  1  0  0  0  0
  3 17  1  0  0  0  0
  3  4  1  0  0  0  0
  5  6  1  0  0  0  0
  7  8  1  0  0  0  0
  8  6  1  1  0  0  0
  8  9  1  0  0  0  0
 10  9  1  6  0  0  0
 10 11  1  0  0  0  0
 10 12  1  0  0  0  0
 11 16  1  0  0  0  0
 12 13  1  1  0  0  0
 12 14  1  0  0  0  0
 14 15  1  6  0  0  0
 14 16  1  0  0  0  0
 16 27  1  1  0  0  0
 18 23  2  0  0  0  0
 18 19  1  0  0  0  0
 19 20  2  0  0  0  0
 20 21  1  0  0  0  0
 21 22  2  0  0  0  0
 21 27  1  0  0  0  0
 22 23  1  0  0  0  0
 22 25  1  0  0  0  0
 23 24  1  0  0  0  0
 25 26  2  0  0  0  0
 26 27  1  0  0  0  0
M  END
>  <CHROM.1>
-179.84790843,-52.00760252,-175.80787058,-102.73310200,-55.53561842,176.37394400
42.85757378,12.08085708,-9.91645161,-20.06257290,0.56358952,0.15865303,0.22480376

>  <Name>
ligand

>  <RI>
0

>  <Rbt.Current_Directory>
/home/itssahil/PROJECTS/Mol_Feturizer/New_Systems/rnas/3E5F

>  <Rbt.Executable>
rbdock ($Id: //depot/dev/client3/rdock/2013.1/src/exe/rbdock.cxx#4 $)

>  <Rbt.Library>
libRbt.so (2013.1, Build901 2013/11/27)

>  <Rbt.Parameter_File>
/export/apps/rDock/src/rDock_2013.1_src/data/scripts/dock_solv.prm

>  <Rbt.Receptor>
prm/blind_docking_40.prm

>  <SCORE>
-12.9596

>  <SCORE.INTER>
-12.6713

>  <SCORE.INTER.CONST>
1

>  <SCORE.INTER.POLAR>
0

>  <SCORE.INTER.ROT>
7

>  <SCORE.INTER.SOLV>
6.33646

>  <SCORE.INTER.VDW>
-18.8263

>  <SCORE.INTER.norm>
-0.469306

>  <SCORE.INTRA>
-0.288341

>  <SCORE.INTRA.DIHEDRAL>
-0.171641

>  <SCORE.INTRA.DIHEDRAL.0>
4.89803

>  <SCORE.INTRA.POLAR>
0

>  <SCORE.INTRA.POLAR.0>
0

>  <SCORE.INTRA.REPUL>
0

>  <SCORE.INTRA.REPUL.0>
0

>  <SCORE.INTRA.SOLV>
-0.0286

>  <SCORE.INTRA.SOLV.lig_0>
-48.5832

>  <SCORE.INTRA.VDW>
-0.188221

>  <SCORE.INTRA.VDW.0>
-2.39056

>  <SCORE.INTRA.norm>
-0.0106793

>  <SCORE.RESTR>
0

>  <SCORE.RESTR.CAVITY>
0

>  <SCORE.RESTR.norm>
0

>  <SCORE.SYSTEM>
0

>  <SCORE.SYSTEM.CONST>
0

>  <SCORE.SYSTEM.DIHEDRAL>
0

>  <SCORE.SYSTEM.SOLV>
0

>  <SCORE.SYSTEM.norm>
0

>  <SCORE.heavy>
27

>  <SCORE.norm>
-0.479985

>  <RMSD>
5.806

$$$$
ligand
 OpenBabel11021811473D
libRbt.so/2013.1/901 2013/11/27
 27 29  0  0  0  0  0  0  0  0999 V2000
   16.8349   -5.3979  -19.1219 N   0  0  0  0  0  0  0  0  0  0  0  0
   16.1199   -6.6766  -19.2470 C   0  0  2  0  0  0  0  0  0  0  0  0
   16.4762   -7.5915  -18.0714 C   0  0  0  0  0  0  0  0  0  0  0  0
   17.6882   -7.8453  -17.8976 O   0  0  0  0  0  0  0  0  0  0  0  0
   16.5390   -7.3502  -20.5549 C   0  0  0  0  0  0  0  0  0  0  0  0
   15.7367   -8.6252  -20.8271 C   0  0  0  0  0  0  0  0  0  0  0  0
   13.2474   -8.7975  -19.4690 C   0  0  0  0  0  0  0  0  0  0  0  0
   13.9376   -8.2369  -21.0860 Se  0  0  2  0  0  0  0  0  0  0  0  0
   13.2503   -9.5132  -22.2500 C   0  0  0  0  0  0  0  0  0  0  0  0
   13.7751  -10.9256  -21.9888 C   0  0  1  0  0  0  0  0  0  0  0  0
   13.1052  -11.4505  -20.8298 O   0  0  0  0  0  0  0  0  0  0  0  0
   13.2987  -11.8071  -23.1439 C   0  0  1  0  0  0  0  0  0  0  0  0
   13.9160  -13.0920  -23.0526 O   0  0  0  0  0  0  0  0  0  0  0  0
   11.8201  -11.9125  -22.7789 C   0  0  1  0  0  0  0  0  0  0  0  0
   11.2722  -13.0719  -23.4086 O   0  0  0  0  0  0  0  0  0  0  0  0
   11.9454  -12.1746  -21.2775 C   0  0  2  0  0  0  0  0  0  0  0  0
   15.5297   -8.0250  -17.3781 O   0  0  0  0  0  0  0  0  0  0  0  0
    7.8658  -13.7154  -18.5156 N   0  0  0  0  0  0  0  0  0  0  0  0
    8.8307  -14.4467  -19.0462 C   0  0  0  0  0  0  0  0  0  0  0  0
    9.8200  -13.9023  -19.7330 N   0  0  0  0  0  0  0  0  0  0  0  0
    9.8767  -12.5738  -19.9115 C   0  0  0  0  0  0  0  0  0  0  0  0
    8.8805  -11.7732  -19.3707 C   0  0  0  0  0  0  0  0  0  0  0  0
    7.8551  -12.3839  -18.6583 C   0  0  0  0  0  0  0  0  0  0  0  0
    6.8625  -11.6544  -18.1584 N   0  0  0  0  0  0  0  0  0  0  0  0
    9.1609  -10.5134  -19.6849 N   0  0  0  0  0  0  0  0  0  0  0  0
   10.2868  -10.5177  -20.3948 C   0  0  0  0  0  0  0  0  0  0  0  0
   10.7284  -11.7675  -20.5365 N   0  0  0  0  0  0  0  0  0  0  0  0
  2  1  1  1  0  0  0
  2  5  1  0  0  0  0
  2  3  1  0  0  0  0
  3 17  1  0  0  0  0
  3  4  1  0  0  0  0
  5  6  1  0  0  0  0
  7  8  1  0  0  0  0
  8  6  1  1  0  0  0
  8  9  1  0  0  0  0
 10  9  1  6  0  0  0
 10 11  1  0  0  0  0
 10 12  1  0  0  0  0
 11 16  1  0  0  0  0
 12 13  1  1  0  0  0
 12 14  1  0  0  0  0
 14 15  1  6  0  0  0
 14 16  1  0  0  0  0
 16 27  1  1  0  0  0
 18 23  2  0  0  0  0
 18 19  1  0  0  0  0
 19 20  2  0  0  0  0
 20 21  1  0  0  0  0
 21 22  2  0  0  0  0
 21 27  1  0  0  0  0
 22 23  1  0  0  0  0
 22 25  1  0  0  0  0
 23 24  1  0  0  0  0
 25 26  2  0  0  0  0
 26 27  1  0  0  0  0
M  END
>  <CHROM.1>
-174.45708548,-56.59656074,64.51682242,-104.50044151,39.95839638,76.17170041
-127.66015724,12.71408966,-10.20490606,-20.37841517,0.37884930,0.56301996
0.98334119

>  <Name>
ligand

>  <RI>
0

>  <Rbt.Current_Directory>
/home/itssahil/PROJECTS/Mol_Feturizer/New_Systems/rnas/3E5F

>  <Rbt.Executable>
rbdock ($Id: //depot/dev/client3/rdock/2013.1/src/exe/rbdock.cxx#4 $)

>  <Rbt.Library>
libRbt.so (2013.1, Build901 2013/11/27)

>  <Rbt.Parameter_File>
/export/apps/rDock/src/rDock_2013.1_src/data/scripts/dock_solv.prm

>  <Rbt.Receptor>
prm/pocket_docking_7.prm

>  <SCORE>
-13.5367

>  <SCORE.INTER>
-13.7441

>  <SCORE.INTER.CONST>
1

>  <SCORE.INTER.POLAR>
0

>  <SCORE.INTER.ROT>
7

>  <SCORE.INTER.SOLV>
8.41769

>  <SCORE.INTER.VDW>
-20.2353

>  <SCORE.INTER.norm>
-0.509042

>  <SCORE.INTRA>
0.207412

>  <SCORE.INTRA.DIHEDRAL>
0.885646

>  <SCORE.INTRA.DIHEDRAL.0>
4.89803

>  <SCORE.INTRA.POLAR>
0

>  <SCORE.INTRA.POLAR.0>
0

>  <SCORE.INTRA.REPUL>
0

>  <SCORE.INTRA.REPUL.0>
0

>  <SCORE.INTRA.SOLV>
0.115509

>  <SCORE.INTRA.SOLV.lig_0>
-48.5832

>  <SCORE.INTRA.VDW>
-0.293166

>  <SCORE.INTRA.VDW.0>
-2.39056

>  <SCORE.INTRA.norm>
0.00768193

>  <SCORE.RESTR>
0

>  <SCORE.RESTR.CAVITY>
0

>  <SCORE.RESTR.norm>
0

>  <SCORE.SYSTEM>
0

>  <SCORE.SYSTEM.CONST>
0

>  <SCORE.SYSTEM.DIHEDRAL>
0

>  <SCORE.SYSTEM.SOLV>
0

>  <SCORE.SYSTEM.norm>
0

>  <SCORE.heavy>
27

>  <SCORE.norm>
-0.50136

>  <RMSD>
5.819

$$$$
ligand
 OpenBabel11021811473D
libRbt.so/2013.1/901 2013/11/27
 27 29  0  0  0  0  0  0  0  0999 V2000
   16.8963   -8.2132  -14.7896 N   0  0  0  0  0  0  0  0  0  0  0  0
   15.6106   -7.9397  -15.4483 C   0  0  2  0  0  0  0  0  0  0  0  0
   14.6231   -9.0741  -15.1578 C   0  0  0  0  0  0  0  0  0  0  0  0
   13.4085   -8.8228  -15.3160 O   0  0  0  0  0  0  0  0  0  0  0  0
   15.8398   -7.8453  -16.9578 C   0  0  0  0  0  0  0  0  0  0  0  0
   16.8712   -6.7724  -17.3161 C   0  0  0  0  0  0  0  0  0  0  0  0
   17.8913   -8.2784  -19.4982 C   0  0  0  0  0  0  0  0  0  0  0  0
   17.0921   -6.6503  -19.1575 Se  0  0  2  0  0  0  0  0  0  0  0  0
   18.4929   -5.4706  -19.4773 C   0  0  0  0  0  0  0  0  0  0  0  0
   18.4895   -4.8848  -20.8899 C   0  0  1  0  0  0  0  0  0  0  0  0
   17.7430   -5.7679  -21.7446 O   0  0  0  0  0  0  0  0  0  0  0  0
   17.6633   -3.5988  -20.8453 C   0  0  1  0  0  0  0  0  0  0  0  0
   17.7822   -2.9094  -22.0907 O   0  0  0  0  0  0  0  0  0  0  0  0
   16.2689   -4.2070  -20.7177 C   0  0  1  0  0  0  0  0  0  0  0  0
   15.3062   -3.2469  -21.1565 O   0  0  0  0  0  0  0  0  0  0  0  0
   16.3770   -5.3166  -21.7644 C   0  0  2  0  0  0  0  0  0  0  0  0
   15.1024  -10.1640  -14.7749 O   0  0  0  0  0  0  0  0  0  0  0  0
   11.6667   -6.6713  -20.1450 N   0  0  0  0  0  0  0  0  0  0  0  0
   12.1860   -5.4613  -20.2624 C   0  0  0  0  0  0  0  0  0  0  0  0
   13.4193   -5.2718  -20.6978 N   0  0  0  0  0  0  0  0  0  0  0  0
   14.1897   -6.3152  -21.0411 C   0  0  0  0  0  0  0  0  0  0  0  0
   13.6798   -7.6011  -20.9297 C   0  0  0  0  0  0  0  0  0  0  0  0
   12.3797   -7.7590  -20.4642 C   0  0  0  0  0  0  0  0  0  0  0  0
   11.8697   -8.9766  -20.3072 N   0  0  0  0  0  0  0  0  0  0  0  0
   14.6263   -8.4455  -21.3238 N   0  0  0  0  0  0  0  0  0  0  0  0
   15.6899   -7.7238  -21.6693 C   0  0  0  0  0  0  0  0  0  0  0  0
   15.4318   -6.4268  -21.5004 N   0  0  0  0  0  0  0  0  0  0  0  0
  2  1  1  1  0  0  0
  2  5  1  0  0  0  0
  2  3  1  0  0  0  0
  3 17  1  0  0  0  0
  3  4  1  0  0  0  0
  5  6  1  0  0  0  0
  7  8  1  0  0  0  0
  8  6  1  1  0  0  0
  8  9  1  0  0  0  0
 10  9  1  1  0  0  0
 10 11  1  0  0  0  0
 10 12  1  0  0  0  0
 11 16  1  0  0  0  0
 12 13  1  6  0  0  0
 12 14  1  0  0  0  0
 14 15  1  6  0  0  0
 14 16  1  0  0  0  0
 16 27  1  1  0  0  0
 18 23  2  0  0  0  0
 18 19  1  0  0  0  0
 19 20  2  0  0  0  0
 20 21  1  0  0  0  0
 21 22  2  0  0  0  0
 21 27  1  0  0  0  0
 22 23  1  0  0  0  0
 22 25  1  0  0  0  0
 23 24  1  0  0  0  0
 25 26  2  0  0  0  0
 26 27  1  0  0  0  0
M  END
>  <CHROM.1>
-57.22546430,160.31503581,-178.42852843,-67.84864727,-159.67519741,-22.30167255
157.38826325,15.72095253,-6.64977023,-19.38762760,-1.85467682,-0.32805949
-1.01070705

>  <Name>
ligand

>  <RI>
0

>  <Rbt.Current_Directory>
/home/itssahil/PROJECTS/Mol_Feturizer/New_Systems/rnas/3E5F

>  <Rbt.Executable>
rbdock ($Id: //depot/dev/client3/rdock/2013.1/src/exe/rbdock.cxx#4 $)

>  <Rbt.Library>
libRbt.so (2013.1, Build901 2013/11/27)

>  <Rbt.Parameter_File>
/export/apps/rDock/src/rDock_2013.1_src/data/scripts/dock_solv.prm

>  <Rbt.Receptor>
prm/pocket_docking_5.prm

>  <SCORE>
-10.5192

>  <SCORE.INTER>
-10.9349

>  <SCORE.INTER.CONST>
1

>  <SCORE.INTER.POLAR>
0

>  <SCORE.INTER.ROT>
7

>  <SCORE.INTER.SOLV>
11.5719

>  <SCORE.INTER.VDW>
-19.4139

>  <SCORE.INTER.norm>
-0.404997

>  <SCORE.INTRA>
0.415755

>  <SCORE.INTRA.DIHEDRAL>
2.6528

>  <SCORE.INTRA.DIHEDRAL.0>
4.89803

>  <SCORE.INTRA.POLAR>
0

>  <SCORE.INTRA.POLAR.0>
0

>  <SCORE.INTRA.REPUL>
0

>  <SCORE.INTRA.REPUL.0>
0

>  <SCORE.INTRA.SOLV>
1.00882

>  <SCORE.INTRA.SOLV.lig_0>
-48.5832

>  <SCORE.INTRA.VDW>
-1.41505

>  <SCORE.INTRA.VDW.0>
-2.39056

>  <SCORE.INTRA.norm>
0.0153983

>  <SCORE.RESTR>
0

>  <SCORE.RESTR.CAVITY>
0

>  <SCORE.RESTR.norm>
0

>  <SCORE.SYSTEM>
0

>  <SCORE.SYSTEM.CONST>
0

>  <SCORE.SYSTEM.DIHEDRAL>
0

>  <SCORE.SYSTEM.SOLV>
0

>  <SCORE.SYSTEM.norm>
0

>  <SCORE.heavy>
27

>  <SCORE.norm>
-0.389598

>  <RMSD>
5.827

$$$$
ligand
 OpenBabel11021811473D
libRbt.so/2013.1/901 2013/11/27
 27 29  0  0  0  0  0  0  0  0999 V2000
   17.5569   -6.7274  -18.7436 N   0  0  0  0  0  0  0  0  0  0  0  0
   17.6214   -8.0978  -19.2723 C   0  0  2  0  0  0  0  0  0  0  0  0
   18.9145   -8.2893  -20.0708 C   0  0  0  0  0  0  0  0  0  0  0  0
   19.3126   -7.3158  -20.7469 O   0  0  0  0  0  0  0  0  0  0  0  0
   16.4217   -8.3285  -20.1929 C   0  0  0  0  0  0  0  0  0  0  0  0
   15.0912   -8.1785  -19.4510 C   0  0  0  0  0  0  0  0  0  0  0  0
   12.6871   -6.8580  -20.1905 C   0  0  0  0  0  0  0  0  0  0  0  0
   13.6549   -8.3709  -20.6149 Se  0  0  2  0  0  0  0  0  0  0  0  0
   12.5630   -9.7160  -19.9407 C   0  0  0  0  0  0  0  0  0  0  0  0
   13.2137  -11.0998  -19.9599 C   0  0  1  0  0  0  0  0  0  0  0  0
   12.2860  -12.0443  -19.3989 O   0  0  0  0  0  0  0  0  0  0  0  0
   13.3515  -11.5156  -21.4250 C   0  0  1  0  0  0  0  0  0  0  0  0
   14.1235  -12.7143  -21.5125 O   0  0  0  0  0  0  0  0  0  0  0  0
   11.8869  -11.8158  -21.7339 C   0  0  1  0  0  0  0  0  0  0  0  0
   11.8242  -12.6863  -22.8650 O   0  0  0  0  0  0  0  0  0  0  0  0
   11.5171  -12.6056  -20.4777 C   0  0  2  0  0  0  0  0  0  0  0  0
   19.4714   -9.4067  -19.9958 O   0  0  0  0  0  0  0  0  0  0  0  0
    7.5991   -9.8712  -18.5240 N   0  0  0  0  0  0  0  0  0  0  0  0
    8.8754   -9.5396  -18.6168 C   0  0  0  0  0  0  0  0  0  0  0  0
    9.7698  -10.3540  -19.1493 N   0  0  0  0  0  0  0  0  0  0  0  0
    9.4035  -11.5556  -19.6205 C   0  0  0  0  0  0  0  0  0  0  0  0
    8.0724  -11.9397  -19.5389 C   0  0  0  0  0  0  0  0  0  0  0  0
    7.1630  -11.0567  -18.9687 C   0  0  0  0  0  0  0  0  0  0  0  0
    5.8866  -11.4044  -18.8377 N   0  0  0  0  0  0  0  0  0  0  0  0
    7.9708  -13.1552  -20.0648 N   0  0  0  0  0  0  0  0  0  0  0  0
    9.1865  -13.5240  -20.4617 C   0  0  0  0  0  0  0  0  0  0  0  0
   10.0634  -12.5559  -20.1950 N   0  0  0  0  0  0  0  0  0  0  0  0
  2  1  1  6  0  0  0
  2  5  1  0  0  0  0
  2  3  1  0  0  0  0
  3 17  1  0  0  0  0
  3  4  1  0  0  0  0
  5  6  1  0  0  0  0
  7  8  1  0  0  0  0
  8  6  1  1  0  0  0
  8  9  1  0  0  0  0
 10  9  1  6  0  0  0
 10 11  1  0  0  0  0
 10 12  1  0  0  0  0
 11 16  1  0  0  0  0
 12 13  1  1  0  0  0
 12 14  1  0  0  0  0
 14 15  1  6  0  0  0
 14 16  1  0  0  0  0
 16 27  1  1  0  0  0
 18 23  2  0  0  0  0
 18 19  1  0  0  0  0
 19 20  2  0  0  0  0
 20 21  1  0  0  0  0
 21 22  2  0  0  0  0
 21 27  1  0  0  0  0
 22 23  1  0  0  0  0
 22 25  1  0  0  0  0
 23 24  1  0  0  0  0
 25 26  2  0  0  0  0
 26 27  1  0  0  0  0
M  END
>  <CHROM.1>
-61.04715343,-36.68878487,176.84507178,-129.48781959,-66.52682854,179.11688869
40.12904258,12.72360407,-10.07449630,-20.13655166,0.34545843,0.19477692,0.37909266

>  <Name>
ligand

>  <RI>
0

>  <Rbt.Current_Directory>
/home/itssahil/PROJECTS/Mol_Feturizer/New_Systems/rnas/3E5F

>  <Rbt.Executable>
rbdock ($Id: //depot/dev/client3/rdock/2013.1/src/exe/rbdock.cxx#4 $)

>  <Rbt.Library>
libRbt.so (2013.1, Build901 2013/11/27)

>  <Rbt.Parameter_File>
/export/apps/rDock/src/rDock_2013.1_src/data/scripts/dock_solv.prm

>  <Rbt.Receptor>
prm/pocket_docking_8.prm

>  <SCORE>
-14.3909

>  <SCORE.INTER>
-14.4515

>  <SCORE.INTER.CONST>
1

>  <SCORE.INTER.POLAR>
0

>  <SCORE.INTER.ROT>
7

>  <SCORE.INTER.SOLV>
8.77922

>  <SCORE.INTER.VDW>
-20.8274

>  <SCORE.INTER.norm>
-0.535241

>  <SCORE.INTRA>
0.0606069

>  <SCORE.INTRA.DIHEDRAL>
0.333151

>  <SCORE.INTRA.DIHEDRAL.0>
4.89803

>  <SCORE.INTRA.POLAR>
0

>  <SCORE.INTRA.POLAR.0>
0

>  <SCORE.INTRA.REPUL>
0

>  <SCORE.INTRA.REPUL.0>
0

>  <SCORE.INTRA.SOLV>
0.700924

>  <SCORE.INTRA.SOLV.lig_0>
-48.5832

>  <SCORE.INTRA.VDW>
-0.456431

>  <SCORE.INTRA.VDW.0>
-2.39056

>  <SCORE.INTRA.norm>
0.0022447

>  <SCORE.RESTR>
0

>  <SCORE.RESTR.CAVITY>
0

>  <SCORE.RESTR.norm>
0

>  <SCORE.SYSTEM>
0

>  <SCORE.SYSTEM.CONST>
0

>  <SCORE.SYSTEM.DIHEDRAL>
0

>  <SCORE.SYSTEM.SOLV>
0

>  <SCORE.SYSTEM.norm>
0

>  <SCORE.heavy>
27

>  <SCORE.norm>
-0.532996

>  <RMSD>
5.831

$$$$
ligand
 OpenBabel11021811473D
libRbt.so/2013.1/901 2013/11/27
 27 29  0  0  0  0  0  0  0  0999 V2000
   15.5231   -7.5045  -16.6230 N   0  0  0  0  0  0  0  0  0  0  0  0
   16.6320   -7.6800  -17.5724 C   0  0  2  0  0  0  0  0  0  0  0  0
   17.7597   -6.6961  -17.2460 C   0  0  0  0  0  0  0  0  0  0  0  0
   18.9257   -7.1478  -17.2528 O   0  0  0  0  0  0  0  0  0  0  0  0
   16.1184   -7.4066  -18.9870 C   0  0  0  0  0  0  0  0  0  0  0  0
   15.1139   -8.4658  -19.4481 C   0  0  0  0  0  0  0  0  0  0  0  0
   13.1038   -6.7930  -20.5578 C   0  0  0  0  0  0  0  0  0  0  0  0
   14.3791   -8.0141  -21.0945 Se  0  0  2  0  0  0  0  0  0  0  0  0
   13.3231   -9.4406  -21.6477 C   0  0  0  0  0  0  0  0  0  0  0  0
   13.8756  -10.8063  -21.2375 C   0  0  1  0  0  0  0  0  0  0  0  0
   13.0808  -11.3081  -20.1493 O   0  0  0  0  0  0  0  0  0  0  0  0
   13.6040  -11.7708  -22.3926 C   0  0  1  0  0  0  0  0  0  0  0  0
   14.2648  -13.0128  -22.1455 O   0  0  0  0  0  0  0  0  0  0  0  0
   12.0964  -11.9401  -22.2219 C   0  0  1  0  0  0  0  0  0  0  0  0
   11.6961  -13.1590  -22.8506 O   0  0  0  0  0  0  0  0  0  0  0  0
   12.0291  -12.1179  -20.7045 C   0  0  2  0  0  0  0  0  0  0  0  0
   17.4317   -5.5172  -16.9876 O   0  0  0  0  0  0  0  0  0  0  0  0
    7.5379  -13.7756  -18.7742 N   0  0  0  0  0  0  0  0  0  0  0  0
    8.5781  -14.4846  -19.1777 C   0  0  0  0  0  0  0  0  0  0  0  0
    9.6702  -13.9112  -19.6520 N   0  0  0  0  0  0  0  0  0  0  0  0
    9.7580  -12.5751  -19.7361 C   0  0  0  0  0  0  0  0  0  0  0  0
    8.6853  -11.7971  -19.3237 C   0  0  0  0  0  0  0  0  0  0  0  0
    7.5531  -12.4379  -18.8343 C   0  0  0  0  0  0  0  0  0  0  0  0
    6.4909  -11.7285  -18.4659 N   0  0  0  0  0  0  0  0  0  0  0  0
    9.0165  -10.5240  -19.5076 N   0  0  0  0  0  0  0  0  0  0  0  0
   10.2466  -10.4983  -20.0153 C   0  0  0  0  0  0  0  0  0  0  0  0
   10.7045  -11.7423  -20.1569 N   0  0  0  0  0  0  0  0  0  0  0  0
  2  1  1  1  0  0  0
  2  5  1  0  0  0  0
  2  3  1  0  0  0  0
  3 17  1  0  0  0  0
  3  4  1  0  0  0  0
  5  6  1  0  0  0  0
  7  8  1  0  0  0  0
  8  6  1  1  0  0  0
  8  9  1  0  0  0  0
 10  9  1  6  0  0  0
 10 11  1  0  0  0  0
 10 12  1  0  0  0  0
 11 16  1  0  0  0  0
 12 13  1  1  0  0  0
 12 14  1  0  0  0  0
 14 15  1  6  0  0  0
 14 16  1  0  0  0  0
 16 27  1  1  0  0  0
 18 23  2  0  0  0  0
 18 19  1  0  0  0  0
 19 20  2  0  0  0  0
 20 21  1  0  0  0  0
 21 22  2  0  0  0  0
 21 27  1  0  0  0  0
 22 23  1  0  0  0  0
 22 25  1  0  0  0  0
 23 24  1  0  0  0  0
 25 26  2  0  0  0  0
 26 27  1  0  0  0  0
M  END
>  <CHROM.1>
-67.28252110,135.27387426,174.19961485,-80.28260274,-34.71293521,105.36878270
-135.38785088,12.87370499,-10.04198805,-19.94577706,0.44849406,0.50465501
1.00424695

>  <Name>
ligand

>  <RI>
0

>  <Rbt.Current_Directory>
/home/itssahil/PROJECTS/Mol_Feturizer/New_Systems/rnas/3E5F

>  <Rbt.Executable>
rbdock ($Id: //depot/dev/client3/rdock/2013.1/src/exe/rbdock.cxx#4 $)

>  <Rbt.Library>
libRbt.so (2013.1, Build901 2013/11/27)

>  <Rbt.Parameter_File>
/export/apps/rDock/src/rDock_2013.1_src/data/scripts/dock_solv.prm

>  <Rbt.Receptor>
prm/pocket_docking_6.prm

>  <SCORE>
-10.7851

>  <SCORE.INTER>
-13.4709

>  <SCORE.INTER.CONST>
1

>  <SCORE.INTER.POLAR>
0

>  <SCORE.INTER.ROT>
7

>  <SCORE.INTER.SOLV>
8.15095

>  <SCORE.INTER.VDW>
-19.9642

>  <SCORE.INTER.norm>
-0.498922

>  <SCORE.INTRA>
2.68579

>  <SCORE.INTRA.DIHEDRAL>
4.25555

>  <SCORE.INTRA.DIHEDRAL.0>
4.89803

>  <SCORE.INTRA.POLAR>
0

>  <SCORE.INTRA.POLAR.0>
0

>  <SCORE.INTRA.REPUL>
0

>  <SCORE.INTRA.REPUL.0>
0

>  <SCORE.INTRA.SOLV>
0.742104

>  <SCORE.INTRA.SOLV.lig_0>
-48.5832

>  <SCORE.INTRA.VDW>
0.186957

>  <SCORE.INTRA.VDW.0>
-2.39056

>  <SCORE.INTRA.norm>
0.0994735

>  <SCORE.RESTR>
0

>  <SCORE.RESTR.CAVITY>
0

>  <SCORE.RESTR.norm>
0

>  <SCORE.SYSTEM>
0

>  <SCORE.SYSTEM.CONST>
0

>  <SCORE.SYSTEM.DIHEDRAL>
0

>  <SCORE.SYSTEM.SOLV>
0

>  <SCORE.SYSTEM.norm>
0

>  <SCORE.heavy>
27

>  <SCORE.norm>
-0.399448

>  <RMSD>
5.839

$$$$
ligand
 OpenBabel11021811473D
libRbt.so/2013.1/901 2013/11/27
 27 29  0  0  0  0  0  0  0  0999 V2000
   17.2641   -7.2569  -20.1073 N   0  0  0  0  0  0  0  0  0  0  0  0
   16.5934   -6.5727  -21.2225 C   0  0  2  0  0  0  0  0  0  0  0  0
   16.8991   -5.0725  -21.1746 C   0  0  0  0  0  0  0  0  0  0  0  0
   16.6586   -4.4116  -22.2085 O   0  0  0  0  0  0  0  0  0  0  0  0
   15.0838   -6.7837  -21.0946 C   0  0  0  0  0  0  0  0  0  0  0  0
   14.6795   -8.2312  -21.3857 C   0  0  0  0  0  0  0  0  0  0  0  0
   13.1207   -9.5177  -19.3894 C   0  0  0  0  0  0  0  0  0  0  0  0
   12.9018   -8.5296  -20.9325 Se  0  0  2  0  0  0  0  0  0  0  0  0
   12.2312   -9.8076  -22.1043 C   0  0  0  0  0  0  0  0  0  0  0  0
   13.1264  -11.0396  -22.2440 C   0  0  1  0  0  0  0  0  0  0  0  0
   12.5855  -12.0879  -21.4216 O   0  0  0  0  0  0  0  0  0  0  0  0
   12.9719  -11.5522  -23.6764 C   0  0  1  0  0  0  0  0  0  0  0  0
   13.9263  -12.5864  -23.9209 O   0  0  0  0  0  0  0  0  0  0  0  0
   11.5710  -12.1501  -23.5735 C   0  0  1  0  0  0  0  0  0  0  0  0
   11.4050  -13.1151  -24.6139 O   0  0  0  0  0  0  0  0  0  0  0  0
   11.7015  -12.8791  -22.2356 C   0  0  2  0  0  0  0  0  0  0  0  0
   17.3752   -4.6207  -20.1099 O   0  0  0  0  0  0  0  0  0  0  0  0
    8.1534  -10.9505  -19.0206 N   0  0  0  0  0  0  0  0  0  0  0  0
    9.3003  -10.4170  -19.4047 C   0  0  0  0  0  0  0  0  0  0  0  0
   10.1111  -11.0379  -20.2436 N   0  0  0  0  0  0  0  0  0  0  0  0
    9.7884  -12.2421  -20.7392 C   0  0  0  0  0  0  0  0  0  0  0  0
    8.5931  -12.8350  -20.3578 C   0  0  0  0  0  0  0  0  0  0  0  0
    7.7694  -12.1519  -19.4708 C   0  0  0  0  0  0  0  0  0  0  0  0
    6.6350  -12.7042  -19.0521 N   0  0  0  0  0  0  0  0  0  0  0  0
    8.5092  -14.0073  -20.9767 N   0  0  0  0  0  0  0  0  0  0  0  0
    9.6055  -14.1496  -21.7178 C   0  0  0  0  0  0  0  0  0  0  0  0
   10.3884  -13.0796  -21.5788 N   0  0  0  0  0  0  0  0  0  0  0  0
  2  1  1  1  0  0  0
  2  5  1  0  0  0  0
  2  3  1  0  0  0  0
  3 17  1  0  0  0  0
  3  4  1  0  0  0  0
  5  6  1  0  0  0  0
  7  8  1  0  0  0  0
  8  6  1  6  0  0  0
  8  9  1  0  0  0  0
 10  9  1  6  0  0  0
 10 11  1  0  0  0  0
 10 12  1  0  0  0  0
 11 16  1  0  0  0  0
 12 13  1  1  0  0  0
 12 14  1  0  0  0  0
 14 15  1  6  0  0  0
 14 16  1  0  0  0  0
 16 27  1  1  0  0  0
 18 23  2  0  0  0  0
 18 19  1  0  0  0  0
 19 20  2  0  0  0  0
 20 21  1  0  0  0  0
 21 22  2  0  0  0  0
 21 27  1  0  0  0  0
 22 23  1  0  0  0  0
 22 25  1  0  0  0  0
 23 24  1  0  0  0  0
 25 26  2  0  0  0  0
 26 27  1  0  0  0  0
M  END
>  <CHROM.1>
-70.25858805,164.21091755,169.91109121,-105.96599587,48.97349345,99.94813882
30.26939563,12.38222160,-10.03849396,-21.23925546,0.54845188,0.56260335,0.70330933

>  <Name>
ligand

>  <RI>
0

>  <Rbt.Current_Directory>
/home/itssahil/PROJECTS/Mol_Feturizer/New_Systems/rnas/3E5F

>  <Rbt.Executable>
rbdock ($Id: //depot/dev/client3/rdock/2013.1/src/exe/rbdock.cxx#4 $)

>  <Rbt.Library>
libRbt.so (2013.1, Build901 2013/11/27)

>  <Rbt.Parameter_File>
/export/apps/rDock/src/rDock_2013.1_src/data/scripts/dock_solv.prm

>  <Rbt.Receptor>
prm/blind_docking_80.prm

>  <SCORE>
-7.58075

>  <SCORE.INTER>
-9.80225

>  <SCORE.INTER.CONST>
1

>  <SCORE.INTER.POLAR>
0

>  <SCORE.INTER.ROT>
7

>  <SCORE.INTER.SOLV>
7.68365

>  <SCORE.INTER.VDW>
-17.3627

>  <SCORE.INTER.norm>
-0.363046

>  <SCORE.INTRA>
2.17616

>  <SCORE.INTRA.DIHEDRAL>
4.31011

>  <SCORE.INTRA.DIHEDRAL.0>
4.89803

>  <SCORE.INTRA.POLAR>
0

>  <SCORE.INTRA.POLAR.0>
0

>  <SCORE.INTRA.REPUL>
0

>  <SCORE.INTRA.REPUL.0>
0

>  <SCORE.INTRA.SOLV>
0.753604

>  <SCORE.INTRA.SOLV.lig_0>
-48.5832

>  <SCORE.INTRA.VDW>
-0.355694

>  <SCORE.INTRA.VDW.0>
-2.39056

>  <SCORE.INTRA.norm>
0.0805985

>  <SCORE.RESTR>
0.0453338

>  <SCORE.RESTR.CAVITY>
0.0453338

>  <SCORE.RESTR.norm>
0.00167903

>  <SCORE.SYSTEM>
0

>  <SCORE.SYSTEM.CONST>
0

>  <SCORE.SYSTEM.DIHEDRAL>
0

>  <SCORE.SYSTEM.SOLV>
0

>  <SCORE.SYSTEM.norm>
0

>  <SCORE.heavy>
27

>  <SCORE.norm>
-0.280769

>  <RMSD>
5.852

$$$$
ligand
 OpenBabel11021811473D
libRbt.so/2013.1/901 2013/11/27
 27 29  0  0  0  0  0  0  0  0999 V2000
    6.8284  -12.7786  -17.5102 N   0  0  0  0  0  0  0  0  0  0  0  0
    7.6612  -11.7554  -18.1592 C   0  0  2  0  0  0  0  0  0  0  0  0
    6.8362  -10.4881  -18.4035 C   0  0  0  0  0  0  0  0  0  0  0  0
    7.3502   -9.4018  -18.0582 O   0  0  0  0  0  0  0  0  0  0  0  0
    8.1569  -12.3002  -19.4999 C   0  0  0  0  0  0  0  0  0  0  0  0
    9.0452  -11.2939  -20.2358 C   0  0  0  0  0  0  0  0  0  0  0  0
   10.7233   -9.7611  -18.5314 C   0  0  0  0  0  0  0  0  0  0  0  0
   10.7714  -11.3014  -19.5468 Se  0  0  2  0  0  0  0  0  0  0  0  0
   11.9252  -10.8101  -20.9192 C   0  0  0  0  0  0  0  0  0  0  0  0
   11.4313  -11.2153  -22.3086 C   0  0  1  0  0  0  0  0  0  0  0  0
   11.8465  -10.2090  -23.2481 O   0  0  0  0  0  0  0  0  0  0  0  0
   12.2051  -12.4694  -22.7169 C   0  0  1  0  0  0  0  0  0  0  0  0
   11.6532  -13.0022  -23.9218 O   0  0  0  0  0  0  0  0  0  0  0  0
   13.5650  -11.8370  -23.0020 C   0  0  1  0  0  0  0  0  0  0  0  0
   14.3035  -12.7034  -23.8652 O   0  0  0  0  0  0  0  0  0  0  0  0
   13.1150  -10.6099  -23.7960 C   0  0  2  0  0  0  0  0  0  0  0  0
    5.7067  -10.6332  -18.9206 O   0  0  0  0  0  0  0  0  0  0  0  0
   16.0028   -7.5755  -20.7798 N   0  0  0  0  0  0  0  0  0  0  0  0
   15.1714   -8.5416  -20.4292 C   0  0  0  0  0  0  0  0  0  0  0  0
   14.4962   -9.2391  -21.3260 N   0  0  0  0  0  0  0  0  0  0  0  0
   14.6390   -8.9863  -22.6358 C   0  0  0  0  0  0  0  0  0  0  0  0
   15.5017   -7.9781  -23.0424 C   0  0  0  0  0  0  0  0  0  0  0  0
   16.1908   -7.2647  -22.0687 C   0  0  0  0  0  0  0  0  0  0  0  0
   16.9965   -6.2663  -22.4169 N   0  0  0  0  0  0  0  0  0  0  0  0
   15.4640   -7.9261  -24.3692 N   0  0  0  0  0  0  0  0  0  0  0  0
   14.6130   -8.8617  -24.7837 C   0  0  0  0  0  0  0  0  0  0  0  0
   14.1073   -9.5111  -23.7350 N   0  0  0  0  0  0  0  0  0  0  0  0
  2  1  1  6  0  0  0
  2  5  1  0  0  0  0
  2  3  1  0  0  0  0
  3 17  1  0  0  0  0
  3  4  1  0  0  0  0
  5  6  1  0  0  0  0
  7  8  1  0  0  0  0
  8  6  1  6  0  0  0
  8  9  1  0  0  0  0
 10  9  1  1  0  0  0
 10 11  1  0  0  0  0
 10 12  1  0  0  0  0
 11 16  1  0  0  0  0
 12 13  1  6  0  0  0
 12 14  1  0  0  0  0
 14 15  1  6  0  0  0
 14 16  1  0  0  0  0
 16 27  1  1  0  0  0
 18 23  2  0  0  0  0
 18 19  1  0  0  0  0
 19 20  2  0  0  0  0
 20 21  1  0  0  0  0
 21 22  2  0  0  0  0
 21 27  1  0  0  0  0
 22 23  1  0  0  0  0
 22 25  1  0  0  0  0
 23 24  1  0  0  0  0
 25 26  2  0  0  0  0
 26 27  1  0  0  0  0
M  END
>  <CHROM.1>
-179.51721521,132.02964161,79.55572199,-102.94655594,-30.02767284,145.92456673
67.06971816,11.80100139,-10.38941244,-21.11595352,3.00024854,0.58597623,0.79149639

>  <Name>
ligand

>  <RI>
0

>  <Rbt.Current_Directory>
/home/itssahil/PROJECTS/Mol_Feturizer/New_Systems/rnas/3E5F

>  <Rbt.Executable>
rbdock ($Id: //depot/dev/client3/rdock/2013.1/src/exe/rbdock.cxx#4 $)

>  <Rbt.Library>
libRbt.so (2013.1, Build901 2013/11/27)

>  <Rbt.Parameter_File>
/export/apps/rDock/src/rDock_2013.1_src/data/scripts/dock_solv.prm

>  <Rbt.Receptor>
prm/blind_docking_80.prm

>  <SCORE>
-13.1358

>  <SCORE.INTER>
-15.838

>  <SCORE.INTER.CONST>
1

>  <SCORE.INTER.POLAR>
0

>  <SCORE.INTER.ROT>
7

>  <SCORE.INTER.SOLV>
14.5501

>  <SCORE.INTER.VDW>
-23.6754

>  <SCORE.INTER.norm>
-0.586593

>  <SCORE.INTRA>
2.22591

>  <SCORE.INTRA.DIHEDRAL>
5.35839

>  <SCORE.INTRA.DIHEDRAL.0>
4.89803

>  <SCORE.INTRA.POLAR>
0

>  <SCORE.INTRA.POLAR.0>
0

>  <SCORE.INTRA.REPUL>
0

>  <SCORE.INTRA.REPUL.0>
0

>  <SCORE.INTRA.SOLV>
-0.0116158

>  <SCORE.INTRA.SOLV.lig_0>
-48.5832

>  <SCORE.INTRA.VDW>
-0.447475

>  <SCORE.INTRA.VDW.0>
-2.39056

>  <SCORE.INTRA.norm>
0.0824412

>  <SCORE.RESTR>
0.476309

>  <SCORE.RESTR.CAVITY>
0.476309

>  <SCORE.RESTR.norm>
0.0176411

>  <SCORE.SYSTEM>
0

>  <SCORE.SYSTEM.CONST>
0

>  <SCORE.SYSTEM.DIHEDRAL>
0

>  <SCORE.SYSTEM.SOLV>
0

>  <SCORE.SYSTEM.norm>
0

>  <SCORE.heavy>
27

>  <SCORE.norm>
-0.486511

>  <RMSD>
5.856

$$$$
ligand
 OpenBabel11021811473D
libRbt.so/2013.1/901 2013/11/27
 27 29  0  0  0  0  0  0  0  0999 V2000
   17.7975   -5.6781  -21.5174 N   0  0  0  0  0  0  0  0  0  0  0  0
   16.9990   -6.9096  -21.6040 C   0  0  2  0  0  0  0  0  0  0  0  0
   15.9634   -6.7828  -22.7256 C   0  0  0  0  0  0  0  0  0  0  0  0
   15.5236   -5.6369  -22.9642 O   0  0  0  0  0  0  0  0  0  0  0  0
   16.2765   -7.1238  -20.2729 C   0  0  0  0  0  0  0  0  0  0  0  0
   15.5111   -8.4492  -20.2415 C   0  0  0  0  0  0  0  0  0  0  0  0
   13.0098   -7.1137  -20.4171 C   0  0  0  0  0  0  0  0  0  0  0  0
   14.0046   -8.3735  -21.3276 Se  0  0  2  0  0  0  0  0  0  0  0  0
   13.0178   -9.9200  -21.0264 C   0  0  0  0  0  0  0  0  0  0  0  0
   13.6186  -11.1661  -21.6781 C   0  0  1  0  0  0  0  0  0  0  0  0
   12.8951  -12.3165  -21.2082 O   0  0  0  0  0  0  0  0  0  0  0  0
   13.3025  -11.0934  -23.1724 C   0  0  1  0  0  0  0  0  0  0  0  0
   14.0000  -12.1323  -23.8612 O   0  0  0  0  0  0  0  0  0  0  0  0
   11.8102  -11.4117  -23.1235 C   0  0  1  0  0  0  0  0  0  0  0  0
   11.3996  -11.8907  -24.4054 O   0  0  0  0  0  0  0  0  0  0  0  0
   11.8303  -12.5816  -22.1388 C   0  0  2  0  0  0  0  0  0  0  0  0
   15.6269   -7.8343  -23.3133 O   0  0  0  0  0  0  0  0  0  0  0  0
    8.4630  -10.6193  -18.7543 N   0  0  0  0  0  0  0  0  0  0  0  0
    9.6182  -10.1193  -19.1579 C   0  0  0  0  0  0  0  0  0  0  0  0
   10.3772  -10.7443  -20.0411 N   0  0  0  0  0  0  0  0  0  0  0  0
    9.9912  -11.9182  -20.5633 C   0  0  0  0  0  0  0  0  0  0  0  0
    8.7850  -12.4756  -20.1625 C   0  0  0  0  0  0  0  0  0  0  0  0
    8.0172  -11.7895  -19.2290 C   0  0  0  0  0  0  0  0  0  0  0  0
    6.8747  -12.3099  -18.7917 N   0  0  0  0  0  0  0  0  0  0  0  0
    8.6350  -13.6231  -20.8146 N   0  0  0  0  0  0  0  0  0  0  0  0
    9.7015  -13.7845  -21.5943 C   0  0  0  0  0  0  0  0  0  0  0  0
   10.5309  -12.7512  -21.4472 N   0  0  0  0  0  0  0  0  0  0  0  0
  2  1  1  1  0  0  0
  2  5  1  0  0  0  0
  2  3  1  0  0  0  0
  3 17  1  0  0  0  0
  3  4  1  0  0  0  0
  5  6  1  0  0  0  0
  7  8  1  0  0  0  0
  8  6  1  1  0  0  0
  8  9  1  0  0  0  0
 10  9  1  1  0  0  0
 10 11  1  0  0  0  0
 10 12  1  0  0  0  0
 11 16  1  0  0  0  0
 12 13  1  6  0  0  0
 12 14  1  0  0  0  0
 14 15  1  6  0  0  0
 14 16  1  0  0  0  0
 16 27  1  1  0  0  0
 18 23  2  0  0  0  0
 18 19  1  0  0  0  0
 19 20  2  0  0  0  0
 20 21  1  0  0  0  0
 21 22  2  0  0  0  0
 21 27  1  0  0  0  0
 22 23  1  0  0  0  0
 22 25  1  0  0  0  0
 23 24  1  0  0  0  0
 25 26  2  0  0  0  0
 26 27  1  0  0  0  0
M  END
>  <CHROM.1>
-175.34010317,-30.77643472,-72.12000177,-65.95111646,-75.18937272,171.18040081
51.61720157,12.67868576,-9.92182267,-21.36676051,0.37002894,0.59047310,0.70942869

>  <Name>
ligand

>  <RI>
0

>  <Rbt.Current_Directory>
/home/itssahil/PROJECTS/Mol_Feturizer/New_Systems/rnas/3E5F

>  <Rbt.Executable>
rbdock ($Id: //depot/dev/client3/rdock/2013.1/src/exe/rbdock.cxx#4 $)

>  <Rbt.Library>
libRbt.so (2013.1, Build901 2013/11/27)

>  <Rbt.Parameter_File>
/export/apps/rDock/src/rDock_2013.1_src/data/scripts/dock_solv.prm

>  <Rbt.Receptor>
prm/pocket_docking_8.prm

>  <SCORE>
-14.5903

>  <SCORE.INTER>
-12.9892

>  <SCORE.INTER.CONST>
1

>  <SCORE.INTER.POLAR>
0

>  <SCORE.INTER.ROT>
7

>  <SCORE.INTER.SOLV>
8.85774

>  <SCORE.INTER.VDW>
-19.8787

>  <SCORE.INTER.norm>
-0.481082

>  <SCORE.INTRA>
-1.60114

>  <SCORE.INTRA.DIHEDRAL>
-0.997875

>  <SCORE.INTRA.DIHEDRAL.0>
4.89803

>  <SCORE.INTRA.POLAR>
0

>  <SCORE.INTRA.POLAR.0>
0

>  <SCORE.INTRA.REPUL>
0

>  <SCORE.INTRA.REPUL.0>
0

>  <SCORE.INTRA.SOLV>
-0.0257879

>  <SCORE.INTRA.SOLV.lig_0>
-48.5832

>  <SCORE.INTRA.VDW>
-1.0893

>  <SCORE.INTRA.VDW.0>
-2.39056

>  <SCORE.INTRA.norm>
-0.0593013

>  <SCORE.RESTR>
0

>  <SCORE.RESTR.CAVITY>
0

>  <SCORE.RESTR.norm>
0

>  <SCORE.SYSTEM>
0

>  <SCORE.SYSTEM.CONST>
0

>  <SCORE.SYSTEM.DIHEDRAL>
0

>  <SCORE.SYSTEM.SOLV>
0

>  <SCORE.SYSTEM.norm>
0

>  <SCORE.heavy>
27

>  <SCORE.norm>
-0.540383

>  <RMSD>
5.863

$$$$
ligand
 OpenBabel11021811473D
libRbt.so/2013.1/901 2013/11/27
 27 29  0  0  0  0  0  0  0  0999 V2000
   17.9492   -6.7280  -21.2899 N   0  0  0  0  0  0  0  0  0  0  0  0
   16.9725   -7.0535  -20.2402 C   0  0  2  0  0  0  0  0  0  0  0  0
   17.5804   -8.0551  -19.2536 C   0  0  0  0  0  0  0  0  0  0  0  0
   17.3530   -7.8637  -18.0390 O   0  0  0  0  0  0  0  0  0  0  0  0
   15.7363   -7.6753  -20.8922 C   0  0  0  0  0  0  0  0  0  0  0  0
   14.6506   -8.0068  -19.8652 C   0  0  0  0  0  0  0  0  0  0  0  0
   11.9876   -7.0454  -20.0990 C   0  0  0  0  0  0  0  0  0  0  0  0
   13.0472   -8.4296  -20.7048 Se  0  0  2  0  0  0  0  0  0  0  0  0
   12.3121   -9.8840  -19.8101 C   0  0  0  0  0  0  0  0  0  0  0  0
   12.9339  -11.2240  -20.2058 C   0  0  1  0  0  0  0  0  0  0  0  0
   12.0744  -12.2777  -19.7380 O   0  0  0  0  0  0  0  0  0  0  0  0
   12.8706  -11.3205  -21.7306 C   0  0  1  0  0  0  0  0  0  0  0  0
   13.6063  -12.4636  -22.1695 O   0  0  0  0  0  0  0  0  0  0  0  0
   11.3736  -11.5685  -21.8990 C   0  0  1  0  0  0  0  0  0  0  0  0
   11.1490  -12.1824  -23.1694 O   0  0  0  0  0  0  0  0  0  0  0  0
   11.1614  -12.6097  -20.7993 C   0  0  2  0  0  0  0  0  0  0  0  0
   18.2666   -8.9843  -19.7334 O   0  0  0  0  0  0  0  0  0  0  0  0
    7.3849  -10.0743  -18.3592 N   0  0  0  0  0  0  0  0  0  0  0  0
    8.6147   -9.6704  -18.6275 C   0  0  0  0  0  0  0  0  0  0  0  0
    9.4766  -10.4406  -19.2683 N   0  0  0  0  0  0  0  0  0  0  0  0
    9.1232  -11.6697  -19.6737 C   0  0  0  0  0  0  0  0  0  0  0  0
    7.8409  -12.1294  -19.4086 C   0  0  0  0  0  0  0  0  0  0  0  0
    6.9651  -11.2910  -18.7290 C   0  0  0  0  0  0  0  0  0  0  0  0
    5.7413  -11.7103  -18.4228 N   0  0  0  0  0  0  0  0  0  0  0  0
    7.7428  -13.3580  -19.9040 N   0  0  0  0  0  0  0  0  0  0  0  0
    8.9139  -13.6622  -20.4584 C   0  0  0  0  0  0  0  0  0  0  0  0
    9.7588  -12.6400  -20.3226 N   0  0  0  0  0  0  0  0  0  0  0  0
  2  1  1  6  0  0  0
  2  5  1  0  0  0  0
  2  3  1  0  0  0  0
  3 17  1  0  0  0  0
  3  4  1  0  0  0  0
  5  6  1  0  0  0  0
  7  8  1  0  0  0  0
  8  6  1  1  0  0  0
  8  9  1  0  0  0  0
 10  9  1  6  0  0  0
 10 11  1  0  0  0  0
 10 12  1  0  0  0  0
 11 16  1  0  0  0  0
 12 13  1  1  0  0  0
 12 14  1  0  0  0  0
 14 15  1  6  0  0  0
 14 16  1  0  0  0  0
 16 27  1  1  0  0  0
 18 23  2  0  0  0  0
 18 19  1  0  0  0  0
 19 20  2  0  0  0  0
 20 21  1  0  0  0  0
 21 22  2  0  0  0  0
 21 27  1  0  0  0  0
 22 23  1  0  0  0  0
 22 25  1  0  0  0  0
 23 24  1  0  0  0  0
 25 26  2  0  0  0  0
 26 27  1  0  0  0  0
M  END
>  <CHROM.1>
-178.34152361,138.31641542,168.40452900,-115.93189616,-79.76319440,-164.98968040
53.54004532,12.21445680,-10.05956506,-20.21460014,-0.37069555,-0.28414531
-2.64022940

>  <Name>
ligand

>  <RI>
0

>  <Rbt.Current_Directory>
/home/itssahil/PROJECTS/Mol_Feturizer/New_Systems/rnas/3E5F

>  <Rbt.Executable>
rbdock ($Id: //depot/dev/client3/rdock/2013.1/src/exe/rbdock.cxx#4 $)

>  <Rbt.Library>
libRbt.so (2013.1, Build901 2013/11/27)

>  <Rbt.Parameter_File>
/export/apps/rDock/src/rDock_2013.1_src/data/scripts/dock_solv.prm

>  <Rbt.Receptor>
prm/pocket_docking_7.prm

>  <SCORE>
-12.39

>  <SCORE.INTER>
-12.7237

>  <SCORE.INTER.CONST>
1

>  <SCORE.INTER.POLAR>
0

>  <SCORE.INTER.ROT>
7

>  <SCORE.INTER.SOLV>
7.6573

>  <SCORE.INTER.VDW>
-19.3015

>  <SCORE.INTER.norm>
-0.471247

>  <SCORE.INTRA>
0.333709

>  <SCORE.INTRA.DIHEDRAL>
1.61562

>  <SCORE.INTRA.DIHEDRAL.0>
4.89803

>  <SCORE.INTRA.POLAR>
0

>  <SCORE.INTRA.POLAR.0>
0

>  <SCORE.INTRA.REPUL>
0

>  <SCORE.INTRA.REPUL.0>
0

>  <SCORE.INTRA.SOLV>
-0.0290623

>  <SCORE.INTRA.SOLV.lig_0>
-48.5832

>  <SCORE.INTRA.VDW>
-0.459569

>  <SCORE.INTRA.VDW.0>
-2.39056

>  <SCORE.INTRA.norm>
0.0123596

>  <SCORE.RESTR>
0

>  <SCORE.RESTR.CAVITY>
0

>  <SCORE.RESTR.norm>
0

>  <SCORE.SYSTEM>
0

>  <SCORE.SYSTEM.CONST>
0

>  <SCORE.SYSTEM.DIHEDRAL>
0

>  <SCORE.SYSTEM.SOLV>
0

>  <SCORE.SYSTEM.norm>
0

>  <SCORE.heavy>
27

>  <SCORE.norm>
-0.458887

>  <RMSD>
5.875

$$$$
ligand
 OpenBabel11021811473D
libRbt.so/2013.1/901 2013/11/27
 27 29  0  0  0  0  0  0  0  0999 V2000
    9.6212   -8.6522  -15.9097 N   0  0  0  0  0  0  0  0  0  0  0  0
   10.5287   -9.3780  -16.8104 C   0  0  2  0  0  0  0  0  0  0  0  0
   11.9666   -9.2824  -16.2913 C   0  0  0  0  0  0  0  0  0  0  0  0
   12.8415   -9.9109  -16.9262 O   0  0  0  0  0  0  0  0  0  0  0  0
   10.4521   -8.7467  -18.2017 C   0  0  0  0  0  0  0  0  0  0  0  0
   11.1183   -9.6214  -19.2668 C   0  0  0  0  0  0  0  0  0  0  0  0
   12.2336   -9.9528  -21.8585 C   0  0  0  0  0  0  0  0  0  0  0  0
   11.4715   -8.6420  -20.8065 Se  0  0  2  0  0  0  0  0  0  0  0  0
   12.9326   -7.5484  -20.4526 C   0  0  0  0  0  0  0  0  0  0  0  0
   12.6863   -6.5429  -19.3271 C   0  0  1  0  0  0  0  0  0  0  0  0
   13.9482   -6.2360  -18.7098 O   0  0  0  0  0  0  0  0  0  0  0  0
   12.2447   -5.2320  -19.9788 C   0  0  1  0  0  0  0  0  0  0  0  0
   11.8189   -4.3147  -18.9700 O   0  0  0  0  0  0  0  0  0  0  0  0
   13.5835   -4.7831  -20.5592 C   0  0  1  0  0  0  0  0  0  0  0  0
   13.5410   -3.3716  -20.7761 O   0  0  0  0  0  0  0  0  0  0  0  0
   14.4914   -5.0752  -19.3638 C   0  0  2  0  0  0  0  0  0  0  0  0
   12.1588   -8.5916  -15.2666 O   0  0  0  0  0  0  0  0  0  0  0  0
   18.5461   -3.2333  -21.9737 N   0  0  0  0  0  0  0  0  0  0  0  0
   17.3484   -2.6960  -21.8171 C   0  0  0  0  0  0  0  0  0  0  0  0
   16.4039   -3.2932  -21.1115 N   0  0  0  0  0  0  0  0  0  0  0  0
   16.6367   -4.4762  -20.5229 C   0  0  0  0  0  0  0  0  0  0  0  0
   17.8817   -5.0723  -20.6663 C   0  0  0  0  0  0  0  0  0  0  0  0
   18.8472   -4.4145  -21.4193 C   0  0  0  0  0  0  0  0  0  0  0  0
   20.0386   -4.9719  -21.6115 N   0  0  0  0  0  0  0  0  0  0  0  0
   17.8577   -6.2210  -19.9997 N   0  0  0  0  0  0  0  0  0  0  0  0
   16.6483   -6.3458  -19.4580 C   0  0  0  0  0  0  0  0  0  0  0  0
   15.8999   -5.2881  -19.7717 N   0  0  0  0  0  0  0  0  0  0  0  0
  2  1  1  1  0  0  0
  2  5  1  0  0  0  0
  2  3  1  0  0  0  0
  3 17  1  0  0  0  0
  3  4  1  0  0  0  0
  5  6  1  0  0  0  0
  7  8  1  0  0  0  0
  8  6  1  1  0  0  0
  8  9  1  0  0  0  0
 10  9  1  6  0  0  0
 10 11  1  0  0  0  0
 10 12  1  0  0  0  0
 11 16  1  0  0  0  0
 12 13  1  1  0  0  0
 12 14  1  0  0  0  0
 14 15  1  1  0  0  0
 14 16  1  0  0  0  0
 16 27  1  6  0  0  0
 18 23  2  0  0  0  0
 18 19  1  0  0  0  0
 19 20  2  0  0  0  0
 20 21  1  0  0  0  0
 21 22  2  0  0  0  0
 21 27  1  0  0  0  0
 22 23  1  0  0  0  0
 22 25  1  0  0  0  0
 23 24  1  0  0  0  0
 25 26  2  0  0  0  0
 26 27  1  0  0  0  0
M  END
>  <CHROM.1>
-167.29530855,176.64013112,-162.85284139,-179.51018668,-61.67048986,152.42694396
171.97205347,13.72271925,-6.74474008,-19.69966114,-2.72600477,-0.59144500
-1.42073140

>  <Name>
ligand

>  <RI>
0

>  <Rbt.Current_Directory>
/home/itssahil/PROJECTS/Mol_Feturizer/New_Systems/rnas/3E5F

>  <Rbt.Executable>
rbdock ($Id: //depot/dev/client3/rdock/2013.1/src/exe/rbdock.cxx#4 $)

>  <Rbt.Library>
libRbt.so (2013.1, Build901 2013/11/27)

>  <Rbt.Parameter_File>
/export/apps/rDock/src/rDock_2013.1_src/data/scripts/dock_solv.prm

>  <Rbt.Receptor>
prm/pocket_docking_7.prm

>  <SCORE>
-10.3654

>  <SCORE.INTER>
-11.6385

>  <SCORE.INTER.CONST>
1

>  <SCORE.INTER.POLAR>
0

>  <SCORE.INTER.ROT>
7

>  <SCORE.INTER.SOLV>
12.1698

>  <SCORE.INTER.VDW>
-20.0823

>  <SCORE.INTER.norm>
-0.431055

>  <SCORE.INTRA>
1.27303

>  <SCORE.INTRA.DIHEDRAL>
2.01719

>  <SCORE.INTRA.DIHEDRAL.0>
4.89803

>  <SCORE.INTRA.POLAR>
0

>  <SCORE.INTRA.POLAR.0>
0

>  <SCORE.INTRA.REPUL>
0

>  <SCORE.INTRA.REPUL.0>
0

>  <SCORE.INTRA.SOLV>
0.181648

>  <SCORE.INTRA.SOLV.lig_0>
-48.5832

>  <SCORE.INTRA.VDW>
0.173609

>  <SCORE.INTRA.VDW.0>
-2.39056

>  <SCORE.INTRA.norm>
0.0471492

>  <SCORE.RESTR>
0

>  <SCORE.RESTR.CAVITY>
0

>  <SCORE.RESTR.norm>
0

>  <SCORE.SYSTEM>
0

>  <SCORE.SYSTEM.CONST>
0

>  <SCORE.SYSTEM.DIHEDRAL>
0

>  <SCORE.SYSTEM.SOLV>
0

>  <SCORE.SYSTEM.norm>
0

>  <SCORE.heavy>
27

>  <SCORE.norm>
-0.383906

>  <RMSD>
5.876

$$$$
ligand
 OpenBabel11021811473D
libRbt.so/2013.1/901 2013/11/27
 27 29  0  0  0  0  0  0  0  0999 V2000
   16.9594   -6.3868  -20.5336 N   0  0  0  0  0  0  0  0  0  0  0  0
   16.5500   -7.7109  -21.0244 C   0  0  2  0  0  0  0  0  0  0  0  0
   15.6762   -7.5579  -22.2731 C   0  0  0  0  0  0  0  0  0  0  0  0
   15.3343   -6.3968  -22.5869 O   0  0  0  0  0  0  0  0  0  0  0  0
   15.7465   -8.4159  -19.9302 C   0  0  0  0  0  0  0  0  0  0  0  0
   14.4935   -7.6279  -19.5397 C   0  0  0  0  0  0  0  0  0  0  0  0
   11.8829   -6.6746  -20.1279 C   0  0  0  0  0  0  0  0  0  0  0  0
   13.1982   -7.7364  -20.8682 Se  0  0  2  0  0  0  0  0  0  0  0  0
   12.4238   -9.4231  -20.7600 C   0  0  0  0  0  0  0  0  0  0  0  0
   13.2481  -10.5196  -21.4357 C   0  0  1  0  0  0  0  0  0  0  0  0
   12.7341  -11.7956  -21.0172 O   0  0  0  0  0  0  0  0  0  0  0  0
   12.9486  -10.4538  -22.9338 C   0  0  1  0  0  0  0  0  0  0  0  0
   13.8317  -11.3281  -23.6381 O   0  0  0  0  0  0  0  0  0  0  0  0
   11.5366  -11.0341  -22.9277 C   0  0  1  0  0  0  0  0  0  0  0  0
   11.2392  -11.5349  -24.2323 O   0  0  0  0  0  0  0  0  0  0  0  0
   11.7492  -12.2144  -21.9788 C   0  0  2  0  0  0  0  0  0  0  0  0
   15.3612   -8.6046  -22.8811 O   0  0  0  0  0  0  0  0  0  0  0  0
    8.0189  -10.9891  -18.6279 N   0  0  0  0  0  0  0  0  0  0  0  0
    9.0711  -10.2769  -18.9928 C   0  0  0  0  0  0  0  0  0  0  0  0
    9.9474  -10.7294  -19.8726 N   0  0  0  0  0  0  0  0  0  0  0  0
    9.7912  -11.9392  -20.4311 C   0  0  0  0  0  0  0  0  0  0  0  0
    8.6995  -12.7169  -20.0716 C   0  0  0  0  0  0  0  0  0  0  0  0
    7.8024  -12.2073  -19.1402 C   0  0  0  0  0  0  0  0  0  0  0  0
    6.7659  -12.9382  -18.7419 N   0  0  0  0  0  0  0  0  0  0  0  0
    8.7729  -13.8544  -20.7537 N   0  0  0  0  0  0  0  0  0  0  0  0
    9.8652  -13.7981  -21.5121 C   0  0  0  0  0  0  0  0  0  0  0  0
   10.4898  -12.6359  -21.3216 N   0  0  0  0  0  0  0  0  0  0  0  0
  2  1  1  1  0  0  0
  2  5  1  0  0  0  0
  2  3  1  0  0  0  0
  3 17  1  0  0  0  0
  3  4  1  0  0  0  0
  5  6  1  0  0  0  0
  7  8  1  0  0  0  0
  8  6  1  1  0  0  0
  8  9  1  0  0  0  0
 10  9  1  1  0  0  0
 10 11  1  0  0  0  0
 10 12  1  0  0  0  0
 11 16  1  0  0  0  0
 12 13  1  6  0  0  0
 12 14  1  0  0  0  0
 14 15  1  6  0  0  0
 14 16  1  0  0  0  0
 16 27  1  1  0  0  0
 18 23  2  0  0  0  0
 18 19  1  0  0  0  0
 19 20  2  0  0  0  0
 20 21  1  0  0  0  0
 21 22  2  0  0  0  0
 21 27  1  0  0  0  0
 22 23  1  0  0  0  0
 22 25  1  0  0  0  0
 23 24  1  0  0  0  0
 25 26  2  0  0  0  0
 26 27  1  0  0  0  0
M  END
>  <CHROM.1>
59.75924681,-7.39688637,73.03128266,-178.48961631,-80.86692903,166.26286411
52.06021090,12.25816635,-9.85132056,-21.06221775,0.39249386,0.58108495,0.70771859

>  <Name>
ligand

>  <RI>
0

>  <Rbt.Current_Directory>
/home/itssahil/PROJECTS/Mol_Feturizer/New_Systems/rnas/3E5F

>  <Rbt.Executable>
rbdock ($Id: //depot/dev/client3/rdock/2013.1/src/exe/rbdock.cxx#4 $)

>  <Rbt.Library>
libRbt.so (2013.1, Build901 2013/11/27)

>  <Rbt.Parameter_File>
/export/apps/rDock/src/rDock_2013.1_src/data/scripts/dock_solv.prm

>  <Rbt.Receptor>
prm/pocket_docking_6.prm

>  <SCORE>
-14.6857

>  <SCORE.INTER>
-13.3258

>  <SCORE.INTER.CONST>
1

>  <SCORE.INTER.POLAR>
0

>  <SCORE.INTER.ROT>
7

>  <SCORE.INTER.SOLV>
6.14835

>  <SCORE.INTER.VDW>
-19.2

>  <SCORE.INTER.norm>
-0.493549

>  <SCORE.INTRA>
-1.35991

>  <SCORE.INTRA.DIHEDRAL>
-0.365243

>  <SCORE.INTRA.DIHEDRAL.0>
4.89803

>  <SCORE.INTRA.POLAR>
0

>  <SCORE.INTRA.POLAR.0>
0

>  <SCORE.INTRA.REPUL>
0

>  <SCORE.INTRA.REPUL.0>
0

>  <SCORE.INTRA.SOLV>
0.84653

>  <SCORE.INTRA.SOLV.lig_0>
-48.5832

>  <SCORE.INTRA.VDW>
-1.60056

>  <SCORE.INTRA.VDW.0>
-2.39056

>  <SCORE.INTRA.norm>
-0.0503672

>  <SCORE.RESTR>
0

>  <SCORE.RESTR.CAVITY>
0

>  <SCORE.RESTR.norm>
0

>  <SCORE.SYSTEM>
0

>  <SCORE.SYSTEM.CONST>
0

>  <SCORE.SYSTEM.DIHEDRAL>
0

>  <SCORE.SYSTEM.SOLV>
0

>  <SCORE.SYSTEM.norm>
0

>  <SCORE.heavy>
27

>  <SCORE.norm>
-0.543916

>  <RMSD>
5.877

$$$$
ligand
 OpenBabel11021811473D
libRbt.so/2013.1/901 2013/11/27
 27 29  0  0  0  0  0  0  0  0999 V2000
   12.6482   -9.9480  -21.8394 N   0  0  0  0  0  0  0  0  0  0  0  0
   13.0530  -10.2276  -20.4538 C   0  0  2  0  0  0  0  0  0  0  0  0
   13.4987  -11.6874  -20.3244 C   0  0  0  0  0  0  0  0  0  0  0  0
   13.5111  -12.1764  -19.1736 O   0  0  0  0  0  0  0  0  0  0  0  0
   11.8577   -9.9819  -19.5314 C   0  0  0  0  0  0  0  0  0  0  0  0
   12.2819   -9.8377  -18.0676 C   0  0  0  0  0  0  0  0  0  0  0  0
   13.7277   -8.4530  -16.0521 C   0  0  0  0  0  0  0  0  0  0  0  0
   13.1126   -8.2012  -17.7736 Se  0  0  2  0  0  0  0  0  0  0  0  0
   11.7779   -6.9336  -17.5135 C   0  0  0  0  0  0  0  0  0  0  0  0
   11.7873   -5.8126  -18.5536 C   0  0  1  0  0  0  0  0  0  0  0  0
   13.0432   -5.1187  -18.4602 O   0  0  0  0  0  0  0  0  0  0  0  0
   11.8114   -6.4736  -19.9323 C   0  0  1  0  0  0  0  0  0  0  0  0
   11.6301   -5.4807  -20.9432 O   0  0  0  0  0  0  0  0  0  0  0  0
   13.2554   -6.9689  -19.9419 C   0  0  1  0  0  0  0  0  0  0  0  0
   13.6635   -7.1712  -21.2961 O   0  0  0  0  0  0  0  0  0  0  0  0
   13.9560   -5.7258  -19.3920 C   0  0  2  0  0  0  0  0  0  0  0  0
   13.8262  -12.2796  -21.3762 O   0  0  0  0  0  0  0  0  0  0  0  0
   18.1913   -8.6746  -19.4990 N   0  0  0  0  0  0  0  0  0  0  0  0
   17.1638   -8.6704  -20.3307 C   0  0  0  0  0  0  0  0  0  0  0  0
   16.1426   -7.8467  -20.1720 N   0  0  0  0  0  0  0  0  0  0  0  0
   16.1197   -6.9768  -19.1509 C   0  0  0  0  0  0  0  0  0  0  0  0
   17.1799   -6.9529  -18.2558 C   0  0  0  0  0  0  0  0  0  0  0  0
   18.2334   -7.8375  -18.4545 C   0  0  0  0  0  0  0  0  0  0  0  0
   19.2483   -7.8711  -17.5966 N   0  0  0  0  0  0  0  0  0  0  0  0
   16.9199   -6.0187  -17.3480 N   0  0  0  0  0  0  0  0  0  0  0  0
   15.7447   -5.4753  -17.6561 C   0  0  0  0  0  0  0  0  0  0  0  0
   15.2518   -6.0528  -18.7520 N   0  0  0  0  0  0  0  0  0  0  0  0
  2  1  1  6  0  0  0
  2  5  1  0  0  0  0
  2  3  1  0  0  0  0
  3 17  1  0  0  0  0
  3  4  1  0  0  0  0
  5  6  1  0  0  0  0
  7  8  1  0  0  0  0
  8  6  1  1  0  0  0
  8  9  1  0  0  0  0
 10  9  1  1  0  0  0
 10 11  1  0  0  0  0
 10 12  1  0  0  0  0
 11 16  1  0  0  0  0
 12 13  1  6  0  0  0
 12 14  1  0  0  0  0
 14 15  1  6  0  0  0
 14 16  1  0  0  0  0
 16 27  1  1  0  0  0
 18 23  2  0  0  0  0
 18 19  1  0  0  0  0
 19 20  2  0  0  0  0
 20 21  1  0  0  0  0
 21 22  2  0  0  0  0
 21 27  1  0  0  0  0
 22 23  1  0  0  0  0
 22 25  1  0  0  0  0
 23 24  1  0  0  0  0
 25 26  2  0  0  0  0
 26 27  1  0  0  0  0
M  END
>  <CHROM.1>
-162.86401768,-160.48267482,73.43628035,-171.26219876,-118.71945763,-61.50113214
156.06429510,14.13853358,-8.01720402,-18.98617542,-2.55461391,-0.10064860
0.33991705

>  <Name>
ligand

>  <RI>
0

>  <Rbt.Current_Directory>
/home/itssahil/PROJECTS/Mol_Feturizer/New_Systems/rnas/3E5F

>  <Rbt.Executable>
rbdock ($Id: //depot/dev/client3/rdock/2013.1/src/exe/rbdock.cxx#4 $)

>  <Rbt.Library>
libRbt.so (2013.1, Build901 2013/11/27)

>  <Rbt.Parameter_File>
/export/apps/rDock/src/rDock_2013.1_src/data/scripts/dock_solv.prm

>  <Rbt.Receptor>
prm/pocket_docking_6.prm

>  <SCORE>
-8.86539

>  <SCORE.INTER>
-10.1423

>  <SCORE.INTER.CONST>
1

>  <SCORE.INTER.POLAR>
0

>  <SCORE.INTER.ROT>
7

>  <SCORE.INTER.SOLV>
9.28159

>  <SCORE.INTER.VDW>
-18.1221

>  <SCORE.INTER.norm>
-0.37564

>  <SCORE.INTRA>
1.25706

>  <SCORE.INTRA.DIHEDRAL>
2.28705

>  <SCORE.INTRA.DIHEDRAL.0>
4.89803

>  <SCORE.INTRA.POLAR>
0

>  <SCORE.INTRA.POLAR.0>
0

>  <SCORE.INTRA.REPUL>
0

>  <SCORE.INTRA.REPUL.0>
0

>  <SCORE.INTRA.SOLV>
2.88113

>  <SCORE.INTRA.SOLV.lig_0>
-48.5832

>  <SCORE.INTRA.VDW>
-1.32703

>  <SCORE.INTRA.VDW.0>
-2.39056

>  <SCORE.INTRA.norm>
0.0465579

>  <SCORE.RESTR>
0.0198389

>  <SCORE.RESTR.CAVITY>
0.0198389

>  <SCORE.RESTR.norm>
0.000734773

>  <SCORE.SYSTEM>
0

>  <SCORE.SYSTEM.CONST>
0

>  <SCORE.SYSTEM.DIHEDRAL>
0

>  <SCORE.SYSTEM.SOLV>
0

>  <SCORE.SYSTEM.norm>
0

>  <SCORE.heavy>
27

>  <SCORE.norm>
-0.328348

>  <RMSD>
5.878

$$$$
ligand
 OpenBabel11021811473D
libRbt.so/2013.1/901 2013/11/27
 27 29  0  0  0  0  0  0  0  0999 V2000
   17.9641   -5.4773  -19.9311 N   0  0  0  0  0  0  0  0  0  0  0  0
   17.0996   -5.4863  -21.1203 C   0  0  2  0  0  0  0  0  0  0  0  0
   15.8856   -4.5811  -20.8904 C   0  0  0  0  0  0  0  0  0  0  0  0
   15.2405   -4.7554  -19.8335 O   0  0  0  0  0  0  0  0  0  0  0  0
   16.6210   -6.9173  -21.3715 C   0  0  0  0  0  0  0  0  0  0  0  0
   15.8538   -7.0432  -22.6902 C   0  0  0  0  0  0  0  0  0  0  0  0
   14.7480   -8.6476  -24.7575 C   0  0  0  0  0  0  0  0  0  0  0  0
   15.4593   -8.8207  -23.0635 Se  0  0  2  0  0  0  0  0  0  0  0  0
   13.9565   -9.2820  -22.0710 C   0  0  0  0  0  0  0  0  0  0  0  0
   13.4465   -8.1544  -21.1726 C   0  0  1  0  0  0  0  0  0  0  0  0
   12.0232   -8.2993  -21.0279 O   0  0  0  0  0  0  0  0  0  0  0  0
   14.0057   -8.4032  -19.7713 C   0  0  1  0  0  0  0  0  0  0  0  0
   13.7189   -7.2815  -18.9346 O   0  0  0  0  0  0  0  0  0  0  0  0
   13.1356   -9.5906  -19.3668 C   0  0  1  0  0  0  0  0  0  0  0  0
   13.1173   -9.6833  -17.9413 O   0  0  0  0  0  0  0  0  0  0  0  0
   11.7748   -9.0868  -19.8497 C   0  0  2  0  0  0  0  0  0  0  0  0
   15.6229   -3.7417  -21.7796 O   0  0  0  0  0  0  0  0  0  0  0  0
    7.8105  -11.9033  -18.1187 N   0  0  0  0  0  0  0  0  0  0  0  0
    8.4258  -10.8909  -17.5321 C   0  0  0  0  0  0  0  0  0  0  0  0
    9.4354  -10.2615  -18.1076 N   0  0  0  0  0  0  0  0  0  0  0  0
    9.8691  -10.6341  -19.3213 C   0  0  0  0  0  0  0  0  0  0  0  0
    9.2491  -11.6940  -19.9678 C   0  0  0  0  0  0  0  0  0  0  0  0
    8.1934  -12.3327  -19.3280 C   0  0  0  0  0  0  0  0  0  0  0  0
    7.5997  -13.3764  -19.8984 N   0  0  0  0  0  0  0  0  0  0  0  0
    9.8566  -11.8640  -21.1368 N   0  0  0  0  0  0  0  0  0  0  0  0
   10.8202  -10.9502  -21.2253 C   0  0  0  0  0  0  0  0  0  0  0  0
   10.8339  -10.1980  -20.1247 N   0  0  0  0  0  0  0  0  0  0  0  0
  2  1  1  1  0  0  0
  2  5  1  0  0  0  0
  2  3  1  0  0  0  0
  3 17  1  0  0  0  0
  3  4  1  0  0  0  0
  5  6  1  0  0  0  0
  7  8  1  0  0  0  0
  8  6  1  1  0  0  0
  8  9  1  0  0  0  0
 10  9  1  6  0  0  0
 10 11  1  0  0  0  0
 10 12  1  0  0  0  0
 11 16  1  0  0  0  0
 12 13  1  1  0  0  0
 12 14  1  0  0  0  0
 14 15  1  1  0  0  0
 14 16  1  0  0  0  0
 16 27  1  6  0  0  0
 18 23  2  0  0  0  0
 18 19  1  0  0  0  0
 19 20  2  0  0  0  0
 20 21  1  0  0  0  0
 21 22  2  0  0  0  0
 21 27  1  0  0  0  0
 22 23  1  0  0  0  0
 22 25  1  0  0  0  0
 23 24  1  0  0  0  0
 25 26  2  0  0  0  0
 26 27  1  0  0  0  0
M  END
>  <CHROM.1>
-173.03965340,-50.39587364,173.37247254,-173.43469139,-2.17276291,149.93936640
-141.01431931,13.15645240,-8.78177573,-20.80034860,0.10393685,0.67308332
0.93439888

>  <Name>
ligand

>  <RI>
0

>  <Rbt.Current_Directory>
/home/itssahil/PROJECTS/Mol_Feturizer/New_Systems/rnas/3E5F

>  <Rbt.Executable>
rbdock ($Id: //depot/dev/client3/rdock/2013.1/src/exe/rbdock.cxx#4 $)

>  <Rbt.Library>
libRbt.so (2013.1, Build901 2013/11/27)

>  <Rbt.Parameter_File>
/export/apps/rDock/src/rDock_2013.1_src/data/scripts/dock_solv.prm

>  <Rbt.Receptor>
prm/blind_docking_100.prm

>  <SCORE>
-11.5556

>  <SCORE.INTER>
-12.8862

>  <SCORE.INTER.CONST>
1

>  <SCORE.INTER.POLAR>
0

>  <SCORE.INTER.ROT>
7

>  <SCORE.INTER.SOLV>
7.53961

>  <SCORE.INTER.VDW>
-19.3707

>  <SCORE.INTER.norm>
-0.477268

>  <SCORE.INTRA>
1.33061

>  <SCORE.INTRA.DIHEDRAL>
3.28541

>  <SCORE.INTRA.DIHEDRAL.0>
4.89803

>  <SCORE.INTRA.POLAR>
0

>  <SCORE.INTRA.POLAR.0>
0

>  <SCORE.INTRA.REPUL>
0

>  <SCORE.INTRA.REPUL.0>
0

>  <SCORE.INTRA.SOLV>
0.282832

>  <SCORE.INTRA.SOLV.lig_0>
-48.5832

>  <SCORE.INTRA.VDW>
-0.453515

>  <SCORE.INTRA.VDW.0>
-2.39056

>  <SCORE.INTRA.norm>
0.0492817

>  <SCORE.RESTR>
0

>  <SCORE.RESTR.CAVITY>
0

>  <SCORE.RESTR.norm>
0

>  <SCORE.SYSTEM>
0

>  <SCORE.SYSTEM.CONST>
0

>  <SCORE.SYSTEM.DIHEDRAL>
0

>  <SCORE.SYSTEM.SOLV>
0

>  <SCORE.SYSTEM.norm>
0

>  <SCORE.heavy>
27

>  <SCORE.norm>
-0.427987

>  <RMSD>
5.886

$$$$
ligand
 OpenBabel11021811473D
libRbt.so/2013.1/901 2013/11/27
 27 29  0  0  0  0  0  0  0  0999 V2000
    8.0591  -10.3585  -16.9031 N   0  0  0  0  0  0  0  0  0  0  0  0
    7.5576  -10.1386  -18.2676 C   0  0  2  0  0  0  0  0  0  0  0  0
    6.0820  -10.5407  -18.3529 C   0  0  0  0  0  0  0  0  0  0  0  0
    5.6653  -11.3525  -17.4980 O   0  0  0  0  0  0  0  0  0  0  0  0
    8.3710  -10.9982  -19.2368 C   0  0  0  0  0  0  0  0  0  0  0  0
    9.8557  -10.6252  -19.2279 C   0  0  0  0  0  0  0  0  0  0  0  0
   12.4319  -11.7148  -19.7243 C   0  0  0  0  0  0  0  0  0  0  0  0
   10.7840  -11.5584  -20.5402 Se  0  0  2  0  0  0  0  0  0  0  0  0
   11.1587  -10.3666  -21.9169 C   0  0  0  0  0  0  0  0  0  0  0  0
   11.1038  -11.0007  -23.3074 C   0  0  1  0  0  0  0  0  0  0  0  0
   11.8498  -10.1702  -24.2137 O   0  0  0  0  0  0  0  0  0  0  0  0
   11.8938  -12.3083  -23.2408 C   0  0  1  0  0  0  0  0  0  0  0  0
   11.7187  -13.0366  -24.4571 O   0  0  0  0  0  0  0  0  0  0  0  0
   13.3082  -11.7377  -23.1745 C   0  0  1  0  0  0  0  0  0  0  0  0
   14.2297  -12.7405  -23.6061 O   0  0  0  0  0  0  0  0  0  0  0  0
   13.2012  -10.6622  -24.2564 C   0  0  2  0  0  0  0  0  0  0  0  0
    5.4053  -10.0360  -19.2757 O   0  0  0  0  0  0  0  0  0  0  0  0
   15.8287   -7.7929  -20.8640 N   0  0  0  0  0  0  0  0  0  0  0  0
   14.9709   -8.7716  -20.6320 C   0  0  0  0  0  0  0  0  0  0  0  0
   14.3725   -9.4210  -21.6153 N   0  0  0  0  0  0  0  0  0  0  0  0
   14.6237   -9.1044  -22.8946 C   0  0  0  0  0  0  0  0  0  0  0  0
   15.5173   -8.0811  -23.1776 C   0  0  0  0  0  0  0  0  0  0  0  0
   16.1232   -7.4196  -22.1159 C   0  0  0  0  0  0  0  0  0  0  0  0
   16.9552   -6.4086  -22.3461 N   0  0  0  0  0  0  0  0  0  0  0  0
   15.5901   -7.9634  -24.4987 N   0  0  0  0  0  0  0  0  0  0  0  0
   14.7763   -8.8738  -25.0284 C   0  0  0  0  0  0  0  0  0  0  0  0
   14.1851   -9.5720  -24.0587 N   0  0  0  0  0  0  0  0  0  0  0  0
  2  1  1  1  0  0  0
  2  5  1  0  0  0  0
  2  3  1  0  0  0  0
  3 17  1  0  0  0  0
  3  4  1  0  0  0  0
  5  6  1  0  0  0  0
  7  8  1  0  0  0  0
  8  6  1  1  0  0  0
  8  9  1  0  0  0  0
 10  9  1  1  0  0  0
 10 11  1  0  0  0  0
 10 12  1  0  0  0  0
 11 16  1  0  0  0  0
 12 13  1  6  0  0  0
 12 14  1  0  0  0  0
 14 15  1  6  0  0  0
 14 16  1  0  0  0  0
 16 27  1  1  0  0  0
 18 23  2  0  0  0  0
 18 19  1  0  0  0  0
 19 20  2  0  0  0  0
 20 21  1  0  0  0  0
 21 22  2  0  0  0  0
 21 27  1  0  0  0  0
 22 23  1  0  0  0  0
 22 25  1  0  0  0  0
 23 24  1  0  0  0  0
 25 26  2  0  0  0  0
 26 27  1  0  0  0  0
M  END
>  <CHROM.1>
-61.34403322,-22.77480908,-173.98087945,-148.63681217,-144.52134007,-159.65734059
85.75610164,11.78177311,-10.37695489,-21.46071363,-2.89417782,-0.53002632
-2.27358045

>  <Name>
ligand

>  <RI>
0

>  <Rbt.Current_Directory>
/home/itssahil/PROJECTS/Mol_Feturizer/New_Systems/rnas/3E5F

>  <Rbt.Executable>
rbdock ($Id: //depot/dev/client3/rdock/2013.1/src/exe/rbdock.cxx#4 $)

>  <Rbt.Library>
libRbt.so (2013.1, Build901 2013/11/27)

>  <Rbt.Parameter_File>
/export/apps/rDock/src/rDock_2013.1_src/data/scripts/dock_solv.prm

>  <Rbt.Receptor>
prm/blind_docking_80.prm

>  <SCORE>
-18.4419

>  <SCORE.INTER>
-19.6877

>  <SCORE.INTER.CONST>
1

>  <SCORE.INTER.POLAR>
0

>  <SCORE.INTER.ROT>
7

>  <SCORE.INTER.SOLV>
14.526

>  <SCORE.INTER.VDW>
-26.2338

>  <SCORE.INTER.norm>
-0.729174

>  <SCORE.INTRA>
1.24581

>  <SCORE.INTRA.DIHEDRAL>
2.89015

>  <SCORE.INTRA.DIHEDRAL.0>
4.89803

>  <SCORE.INTRA.POLAR>
0

>  <SCORE.INTRA.POLAR.0>
0

>  <SCORE.INTRA.REPUL>
0

>  <SCORE.INTRA.REPUL.0>
0

>  <SCORE.INTRA.SOLV>
0.713405

>  <SCORE.INTRA.SOLV.lig_0>
-48.5832

>  <SCORE.INTRA.VDW>
-0.555962

>  <SCORE.INTRA.VDW.0>
-2.39056

>  <SCORE.INTRA.norm>
0.0461412

>  <SCORE.RESTR>
0

>  <SCORE.RESTR.CAVITY>
0

>  <SCORE.RESTR.norm>
0

>  <SCORE.SYSTEM>
0

>  <SCORE.SYSTEM.CONST>
0

>  <SCORE.SYSTEM.DIHEDRAL>
0

>  <SCORE.SYSTEM.SOLV>
0

>  <SCORE.SYSTEM.norm>
0

>  <SCORE.heavy>
27

>  <SCORE.norm>
-0.683032

>  <RMSD>
5.896

$$$$
ligand
 OpenBabel11021811473D
libRbt.so/2013.1/901 2013/11/27
 27 29  0  0  0  0  0  0  0  0999 V2000
   17.9404   -4.6543  -21.8152 N   0  0  0  0  0  0  0  0  0  0  0  0
   16.4706   -4.6311  -21.7834 C   0  0  2  0  0  0  0  0  0  0  0  0
   15.9869   -3.8408  -20.5637 C   0  0  0  0  0  0  0  0  0  0  0  0
   16.1376   -4.3774  -19.4444 O   0  0  0  0  0  0  0  0  0  0  0  0
   15.9565   -6.0687  -21.6888 C   0  0  0  0  0  0  0  0  0  0  0  0
   16.0374   -6.7973  -23.0327 C   0  0  0  0  0  0  0  0  0  0  0  0
   14.5545   -8.7979  -24.3997 C   0  0  0  0  0  0  0  0  0  0  0  0
   15.5396   -8.5792  -22.8547 Se  0  0  2  0  0  0  0  0  0  0  0  0
   14.2168   -8.6643  -21.5512 C   0  0  0  0  0  0  0  0  0  0  0  0
   13.9032  -10.0880  -21.0894 C   0  0  1  0  0  0  0  0  0  0  0  0
   13.1830  -10.0129  -19.8471 O   0  0  0  0  0  0  0  0  0  0  0  0
   12.9012  -10.6767  -22.0832 C   0  0  1  0  0  0  0  0  0  0  0  0
   12.7163  -12.0667  -21.8111 O   0  0  0  0  0  0  0  0  0  0  0  0
   11.6569   -9.8949  -21.6695 C   0  0  1  0  0  0  0  0  0  0  0  0
   10.4986  -10.6122  -22.0998 O   0  0  0  0  0  0  0  0  0  0  0  0
   11.7763  -10.0098  -20.1492 C   0  0  2  0  0  0  0  0  0  0  0  0
   15.4687   -2.7227  -20.7769 O   0  0  0  0  0  0  0  0  0  0  0  0
    7.6320   -8.6068  -17.4103 N   0  0  0  0  0  0  0  0  0  0  0  0
    7.9419   -9.7982  -17.8922 C   0  0  0  0  0  0  0  0  0  0  0  0
    9.0513  -10.0043  -18.5802 N   0  0  0  0  0  0  0  0  0  0  0  0
    9.9086   -8.9983  -18.8100 C   0  0  0  0  0  0  0  0  0  0  0  0
    9.6166   -7.7327  -18.3213 C   0  0  0  0  0  0  0  0  0  0  0  0
    8.4382   -7.5556  -17.6059 C   0  0  0  0  0  0  0  0  0  0  0  0
    8.1052   -6.3501  -17.1552 N   0  0  0  0  0  0  0  0  0  0  0  0
   10.6075   -6.9238  -18.6796 N   0  0  0  0  0  0  0  0  0  0  0  0
   11.4885   -7.6477  -19.3662 C   0  0  0  0  0  0  0  0  0  0  0  0
   11.0704   -8.9109  -19.4494 N   0  0  0  0  0  0  0  0  0  0  0  0
  2  1  1  1  0  0  0
  2  5  1  0  0  0  0
  2  3  1  0  0  0  0
  3 17  1  0  0  0  0
  3  4  1  0  0  0  0
  5  6  1  0  0  0  0
  7  8  1  0  0  0  0
  8  6  1  6  0  0  0
  8  9  1  0  0  0  0
 10  9  1  6  0  0  0
 10 11  1  0  0  0  0
 10 12  1  0  0  0  0
 11 16  1  0  0  0  0
 12 13  1  1  0  0  0
 12 14  1  0  0  0  0
 14 15  1  6  0  0  0
 14 16  1  0  0  0  0
 16 27  1  1  0  0  0
 18 23  2  0  0  0  0
 18 19  1  0  0  0  0
 19 20  2  0  0  0  0
 20 21  1  0  0  0  0
 21 22  2  0  0  0  0
 21 27  1  0  0  0  0
 22 23  1  0  0  0  0
 22 25  1  0  0  0  0
 23 24  1  0  0  0  0
 25 26  2  0  0  0  0
 26 27  1  0  0  0  0
M  END
>  <CHROM.1>
-76.80343451,-71.74193170,175.29519954,139.61538096,-168.32954421,163.44193747
-135.65876651,13.06714605,-8.05465630,-20.78954114,0.06775376,0.56190580
0.48903985

>  <Name>
ligand

>  <RI>
0

>  <Rbt.Current_Directory>
/home/itssahil/PROJECTS/Mol_Feturizer/New_Systems/rnas/3E5F

>  <Rbt.Executable>
rbdock ($Id: //depot/dev/client3/rdock/2013.1/src/exe/rbdock.cxx#4 $)

>  <Rbt.Library>
libRbt.so (2013.1, Build901 2013/11/27)

>  <Rbt.Parameter_File>
/export/apps/rDock/src/rDock_2013.1_src/data/scripts/dock_solv.prm

>  <Rbt.Receptor>
prm/pocket_docking_5.prm

>  <SCORE>
-13.0907

>  <SCORE.INTER>
-14.9402

>  <SCORE.INTER.CONST>
1

>  <SCORE.INTER.POLAR>
0

>  <SCORE.INTER.ROT>
7

>  <SCORE.INTER.SOLV>
14.5963

>  <SCORE.INTER.VDW>
-23.0922

>  <SCORE.INTER.norm>
-0.553341

>  <SCORE.INTRA>
1.84952

>  <SCORE.INTRA.DIHEDRAL>
1.87175

>  <SCORE.INTRA.DIHEDRAL.0>
4.89803

>  <SCORE.INTRA.POLAR>
0

>  <SCORE.INTRA.POLAR.0>
0

>  <SCORE.INTRA.REPUL>
0

>  <SCORE.INTRA.REPUL.0>
0

>  <SCORE.INTRA.SOLV>
0.503088

>  <SCORE.INTRA.SOLV.lig_0>
-48.5832

>  <SCORE.INTRA.VDW>
0.662103

>  <SCORE.INTRA.VDW.0>
-2.39056

>  <SCORE.INTRA.norm>
0.0685009

>  <SCORE.RESTR>
0

>  <SCORE.RESTR.CAVITY>
0

>  <SCORE.RESTR.norm>
0

>  <SCORE.SYSTEM>
0

>  <SCORE.SYSTEM.CONST>
0

>  <SCORE.SYSTEM.DIHEDRAL>
0

>  <SCORE.SYSTEM.SOLV>
0

>  <SCORE.SYSTEM.norm>
0

>  <SCORE.heavy>
27

>  <SCORE.norm>
-0.48484

>  <RMSD>
5.903

$$$$
ligand
 OpenBabel11021811473D
libRbt.so/2013.1/901 2013/11/27
 27 29  0  0  0  0  0  0  0  0999 V2000
   12.5126   -6.1651  -17.9047 N   0  0  0  0  0  0  0  0  0  0  0  0
   13.9487   -6.2764  -18.2000 C   0  0  2  0  0  0  0  0  0  0  0  0
   14.7417   -5.3192  -17.3050 C   0  0  0  0  0  0  0  0  0  0  0  0
   15.9878   -5.4195  -17.3316 O   0  0  0  0  0  0  0  0  0  0  0  0
   14.1812   -5.9052  -19.6656 C   0  0  0  0  0  0  0  0  0  0  0  0
   13.4648   -6.8628  -20.6213 C   0  0  0  0  0  0  0  0  0  0  0  0
   15.8305   -8.4317  -20.7324 C   0  0  0  0  0  0  0  0  0  0  0  0
   14.0325   -8.6131  -20.3588 Se  0  0  2  0  0  0  0  0  0  0  0  0
   13.4471   -9.6161  -21.8105 C   0  0  0  0  0  0  0  0  0  0  0  0
   13.8417  -11.0916  -21.7341 C   0  0  1  0  0  0  0  0  0  0  0  0
   13.0022  -11.7349  -20.7599 O   0  0  0  0  0  0  0  0  0  0  0  0
   13.4525  -11.7346  -23.0658 C   0  0  1  0  0  0  0  0  0  0  0  0
   13.9678  -13.0655  -23.1242 O   0  0  0  0  0  0  0  0  0  0  0  0
   11.9368  -11.7703  -22.8876 C   0  0  1  0  0  0  0  0  0  0  0  0
   11.3943  -12.7640  -23.7591 O   0  0  0  0  0  0  0  0  0  0  0  0
   11.8603  -12.2773  -21.4469 C   0  0  2  0  0  0  0  0  0  0  0  0
   14.0857   -4.5149  -16.6071 O   0  0  0  0  0  0  0  0  0  0  0  0
    7.9417  -13.7708  -18.4372 N   0  0  0  0  0  0  0  0  0  0  0  0
    8.9943  -14.4661  -18.8322 C   0  0  0  0  0  0  0  0  0  0  0  0
    9.9249  -13.9402  -19.6094 N   0  0  0  0  0  0  0  0  0  0  0  0
    9.8293  -12.6675  -20.0231 C   0  0  0  0  0  0  0  0  0  0  0  0
    8.7373  -11.9064  -19.6304 C   0  0  0  0  0  0  0  0  0  0  0  0
    7.7782  -12.4968  -18.8160 C   0  0  0  0  0  0  0  0  0  0  0  0
    6.6988  -11.8120  -18.4507 N   0  0  0  0  0  0  0  0  0  0  0  0
    8.8743  -10.6987  -20.1663 N   0  0  0  0  0  0  0  0  0  0  0  0
   10.0049  -10.6967  -20.8685 C   0  0  0  0  0  0  0  0  0  0  0  0
   10.5917  -11.8909  -20.7859 N   0  0  0  0  0  0  0  0  0  0  0  0
  2  1  1  1  0  0  0
  2  5  1  0  0  0  0
  2  3  1  0  0  0  0
  3 17  1  0  0  0  0
  3  4  1  0  0  0  0
  5  6  1  0  0  0  0
  7  8  1  0  0  0  0
  8  6  1  6  0  0  0
  8  9  1  0  0  0  0
 10  9  1  6  0  0  0
 10 11  1  0  0  0  0
 10 12  1  0  0  0  0
 11 16  1  0  0  0  0
 12 13  1  1  0  0  0
 12 14  1  0  0  0  0
 14 15  1  6  0  0  0
 14 16  1  0  0  0  0
 16 27  1  1  0  0  0
 18 23  2  0  0  0  0
 18 19  1  0  0  0  0
 19 20  2  0  0  0  0
 20 21  1  0  0  0  0
 21 22  2  0  0  0  0
 21 27  1  0  0  0  0
 22 23  1  0  0  0  0
 22 25  1  0  0  0  0
 23 24  1  0  0  0  0
 25 26  2  0  0  0  0
 26 27  1  0  0  0  0
M  END
>  <CHROM.1>
-62.48728333,171.66999523,-58.53783669,-60.38083223,-179.94223429,74.67328239
-104.13407657,12.29853625,-9.92621571,-20.16039467,0.79478595,0.55569690
0.72177633

>  <Name>
ligand

>  <RI>
0

>  <Rbt.Current_Directory>
/home/itssahil/PROJECTS/Mol_Feturizer/New_Systems/rnas/3E5F

>  <Rbt.Executable>
rbdock ($Id: //depot/dev/client3/rdock/2013.1/src/exe/rbdock.cxx#4 $)

>  <Rbt.Library>
libRbt.so (2013.1, Build901 2013/11/27)

>  <Rbt.Parameter_File>
/export/apps/rDock/src/rDock_2013.1_src/data/scripts/dock_solv.prm

>  <Rbt.Receptor>
prm/pocket_docking_7.prm

>  <SCORE>
-12.5951

>  <SCORE.INTER>
-13.2642

>  <SCORE.INTER.CONST>
1

>  <SCORE.INTER.POLAR>
0

>  <SCORE.INTER.ROT>
7

>  <SCORE.INTER.SOLV>
5.84436

>  <SCORE.INTER.VDW>
-19.0576

>  <SCORE.INTER.norm>
-0.491266

>  <SCORE.INTRA>
0.66912

>  <SCORE.INTRA.DIHEDRAL>
-0.989976

>  <SCORE.INTRA.DIHEDRAL.0>
4.89803

>  <SCORE.INTRA.POLAR>
0

>  <SCORE.INTRA.POLAR.0>
0

>  <SCORE.INTRA.REPUL>
0

>  <SCORE.INTRA.REPUL.0>
0

>  <SCORE.INTRA.SOLV>
0.797206

>  <SCORE.INTRA.SOLV.lig_0>
-48.5832

>  <SCORE.INTRA.VDW>
0.765505

>  <SCORE.INTRA.VDW.0>
-2.39056

>  <SCORE.INTRA.norm>
0.0247822

>  <SCORE.RESTR>
0

>  <SCORE.RESTR.CAVITY>
0

>  <SCORE.RESTR.norm>
0

>  <SCORE.SYSTEM>
0

>  <SCORE.SYSTEM.CONST>
0

>  <SCORE.SYSTEM.DIHEDRAL>
0

>  <SCORE.SYSTEM.SOLV>
0

>  <SCORE.SYSTEM.norm>
0

>  <SCORE.heavy>
27

>  <SCORE.norm>
-0.466484

>  <RMSD>
5.905

$$$$
ligand
 OpenBabel11021811473D
libRbt.so/2013.1/901 2013/11/27
 27 29  0  0  0  0  0  0  0  0999 V2000
   14.9037   -6.0341  -20.3591 N   0  0  0  0  0  0  0  0  0  0  0  0
   15.2746   -5.8815  -18.9446 C   0  0  2  0  0  0  0  0  0  0  0  0
   16.6837   -5.2910  -18.8349 C   0  0  0  0  0  0  0  0  0  0  0  0
   17.1848   -5.2288  -17.6909 O   0  0  0  0  0  0  0  0  0  0  0  0
   15.2514   -7.2577  -18.2772 C   0  0  0  0  0  0  0  0  0  0  0  0
   13.8241   -7.7651  -18.0566 C   0  0  0  0  0  0  0  0  0  0  0  0
   11.5068   -6.9326  -19.4735 C   0  0  0  0  0  0  0  0  0  0  0  0
   12.9612   -8.0500  -19.6779 Se  0  0  2  0  0  0  0  0  0  0  0  0
   12.1604   -9.7260  -19.6000 C   0  0  0  0  0  0  0  0  0  0  0  0
   13.0314  -10.8475  -20.1676 C   0  0  1  0  0  0  0  0  0  0  0  0
   12.5125  -12.1045  -19.7003 O   0  0  0  0  0  0  0  0  0  0  0  0
   12.8075  -10.8742  -21.6800 C   0  0  1  0  0  0  0  0  0  0  0  0
   13.7360  -11.7747  -22.2863 O   0  0  0  0  0  0  0  0  0  0  0  0
   11.4043  -11.4746  -21.7101 C   0  0  1  0  0  0  0  0  0  0  0  0
   11.1797  -12.0554  -22.9959 O   0  0  0  0  0  0  0  0  0  0  0  0
   11.5829  -12.5939  -20.6834 C   0  0  2  0  0  0  0  0  0  0  0  0
   17.2255   -4.9062  -19.8945 O   0  0  0  0  0  0  0  0  0  0  0  0
    7.0636  -11.0311  -18.7397 N   0  0  0  0  0  0  0  0  0  0  0  0
    8.0389  -10.3036  -19.2565 C   0  0  0  0  0  0  0  0  0  0  0  0
    9.1476  -10.8535  -19.7200 N   0  0  0  0  0  0  0  0  0  0  0  0
    9.3170  -12.1839  -19.6824 C   0  0  0  0  0  0  0  0  0  0  0  0
    8.3156  -12.9807  -19.1454 C   0  0  0  0  0  0  0  0  0  0  0  0
    7.1663  -12.3642  -18.6648 C   0  0  0  0  0  0  0  0  0  0  0  0
    6.2018  -13.0903  -18.1081 N   0  0  0  0  0  0  0  0  0  0  0  0
    8.7209  -14.2433  -19.2216 N   0  0  0  0  0  0  0  0  0  0  0  0
    9.9278  -14.2446  -19.7827 C   0  0  0  0  0  0  0  0  0  0  0  0
   10.2971  -12.9954  -20.0661 N   0  0  0  0  0  0  0  0  0  0  0  0
  2  1  1  6  0  0  0
  2  5  1  0  0  0  0
  2  3  1  0  0  0  0
  3 17  1  0  0  0  0
  3  4  1  0  0  0  0
  5  6  1  0  0  0  0
  7  8  1  0  0  0  0
  8  6  1  1  0  0  0
  8  9  1  0  0  0  0
 10  9  1  1  0  0  0
 10 11  1  0  0  0  0
 10 12  1  0  0  0  0
 11 16  1  0  0  0  0
 12 13  1  6  0  0  0
 12 14  1  0  0  0  0
 14 15  1  6  0  0  0
 14 16  1  0  0  0  0
 16 27  1  1  0  0  0
 18 23  2  0  0  0  0
 18 19  1  0  0  0  0
 19 20  2  0  0  0  0
 20 21  1  0  0  0  0
 21 22  2  0  0  0  0
 21 27  1  0  0  0  0
 22 23  1  0  0  0  0
 22 25  1  0  0  0  0
 23 24  1  0  0  0  0
 25 26  2  0  0  0  0
 26 27  1  0  0  0  0
M  END
>  <CHROM.1>
-73.30731582,-173.08472696,64.69519615,-121.99232739,-93.34806133,162.84506958
78.61817446,12.03328279,-9.74651801,-19.73359450,-0.65598227,-0.43129574
-2.57078397

>  <Name>
ligand

>  <RI>
0

>  <Rbt.Current_Directory>
/home/itssahil/PROJECTS/Mol_Feturizer/New_Systems/rnas/3E5F

>  <Rbt.Executable>
rbdock ($Id: //depot/dev/client3/rdock/2013.1/src/exe/rbdock.cxx#4 $)

>  <Rbt.Library>
libRbt.so (2013.1, Build901 2013/11/27)

>  <Rbt.Parameter_File>
/export/apps/rDock/src/rDock_2013.1_src/data/scripts/dock_solv.prm

>  <Rbt.Receptor>
prm/pocket_docking_7.prm

>  <SCORE>
-9.65724

>  <SCORE.INTER>
-11.603

>  <SCORE.INTER.CONST>
1

>  <SCORE.INTER.POLAR>
0

>  <SCORE.INTER.ROT>
7

>  <SCORE.INTER.SOLV>
7.11744

>  <SCORE.INTER.VDW>
-18.3745

>  <SCORE.INTER.norm>
-0.429742

>  <SCORE.INTRA>
1.94579

>  <SCORE.INTRA.DIHEDRAL>
2.75674

>  <SCORE.INTRA.DIHEDRAL.0>
4.89803

>  <SCORE.INTRA.POLAR>
0

>  <SCORE.INTRA.POLAR.0>
0

>  <SCORE.INTRA.REPUL>
0

>  <SCORE.INTRA.REPUL.0>
0

>  <SCORE.INTRA.SOLV>
2.05859

>  <SCORE.INTRA.SOLV.lig_0>
-48.5832

>  <SCORE.INTRA.VDW>
-0.461877

>  <SCORE.INTRA.VDW.0>
-2.39056

>  <SCORE.INTRA.norm>
0.0720661

>  <SCORE.RESTR>
0

>  <SCORE.RESTR.CAVITY>
0

>  <SCORE.RESTR.norm>
0

>  <SCORE.SYSTEM>
0

>  <SCORE.SYSTEM.CONST>
0

>  <SCORE.SYSTEM.DIHEDRAL>
0

>  <SCORE.SYSTEM.SOLV>
0

>  <SCORE.SYSTEM.norm>
0

>  <SCORE.heavy>
27

>  <SCORE.norm>
-0.357675

>  <RMSD>
5.926

$$$$
ligand
 OpenBabel11021811473D
libRbt.so/2013.1/901 2013/11/27
 27 29  0  0  0  0  0  0  0  0999 V2000
   17.5803   -5.8400  -21.6402 N   0  0  0  0  0  0  0  0  0  0  0  0
   16.7793   -7.0702  -21.5597 C   0  0  2  0  0  0  0  0  0  0  0  0
   15.8327   -7.1569  -22.7608 C   0  0  0  0  0  0  0  0  0  0  0  0
   15.4727   -6.0768  -23.2779 O   0  0  0  0  0  0  0  0  0  0  0  0
   15.9563   -7.0396  -20.2706 C   0  0  0  0  0  0  0  0  0  0  0  0
   15.2145   -8.3571  -20.0313 C   0  0  0  0  0  0  0  0  0  0  0  0
   12.5622   -7.4062  -20.3936 C   0  0  0  0  0  0  0  0  0  0  0  0
   13.7798   -8.5348  -21.1994 Se  0  0  2  0  0  0  0  0  0  0  0  0
   13.0094  -10.1986  -20.8925 C   0  0  0  0  0  0  0  0  0  0  0  0
   13.6210  -11.3207  -21.7324 C   0  0  1  0  0  0  0  0  0  0  0  0
   12.9172  -12.5401  -21.4403 O   0  0  0  0  0  0  0  0  0  0  0  0
   13.2905  -11.0236  -23.1955 C   0  0  1  0  0  0  0  0  0  0  0  0
   13.9957  -11.9339  -24.0407 O   0  0  0  0  0  0  0  0  0  0  0  0
   11.8031  -11.3675  -23.1860 C   0  0  1  0  0  0  0  0  0  0  0  0
   11.3875  -11.6495  -24.5235 O   0  0  0  0  0  0  0  0  0  0  0  0
   11.8478  -12.6745  -22.3933 C   0  0  2  0  0  0  0  0  0  0  0  0
   15.4821   -8.2992  -23.1300 O   0  0  0  0  0  0  0  0  0  0  0  0
    8.2470  -11.0479  -19.0718 N   0  0  0  0  0  0  0  0  0  0  0  0
    9.3577  -10.4404  -19.4522 C   0  0  0  0  0  0  0  0  0  0  0  0
   10.1888  -10.9885  -20.3214 N   0  0  0  0  0  0  0  0  0  0  0  0
    9.9247  -12.1918  -20.8528 C   0  0  0  0  0  0  0  0  0  0  0  0
    8.7688  -12.8611  -20.4762 C   0  0  0  0  0  0  0  0  0  0  0  0
    7.9222  -12.2531  -19.5567 C   0  0  0  0  0  0  0  0  0  0  0  0
    6.8254  -12.8798  -19.1424 N   0  0  0  0  0  0  0  0  0  0  0  0
    8.7395  -14.0155  -21.1327 N   0  0  0  0  0  0  0  0  0  0  0  0
    9.8312  -14.0736  -21.8918 C   0  0  0  0  0  0  0  0  0  0  0  0
   10.5570  -12.9676  -21.7272 N   0  0  0  0  0  0  0  0  0  0  0  0
  2  1  1  6  0  0  0
  2  5  1  0  0  0  0
  2  3  1  0  0  0  0
  3 17  1  0  0  0  0
  3  4  1  0  0  0  0
  5  6  1  0  0  0  0
  7  8  1  0  0  0  0
  8  6  1  1  0  0  0
  8  9  1  0  0  0  0
 10  9  1  1  0  0  0
 10 11  1  0  0  0  0
 10 12  1  0  0  0  0
 11 16  1  0  0  0  0
 12 13  1  6  0  0  0
 12 14  1  0  0  0  0
 14 15  1  6  0  0  0
 14 16  1  0  0  0  0
 16 27  1  1  0  0  0
 18 23  2  0  0  0  0
 18 19  1  0  0  0  0
 19 20  2  0  0  0  0
 20 21  1  0  0  0  0
 21 22  2  0  0  0  0
 21 27  1  0  0  0  0
 22 23  1  0  0  0  0
 22 25  1  0  0  0  0
 23 24  1  0  0  0  0
 25 26  2  0  0  0  0
 26 27  1  0  0  0  0
M  END
>  <CHROM.1>
-173.47802398,-27.51007290,-73.16973818,-77.33571657,-89.07291199,-178.12877222
61.58368442,12.55980243,-10.12061384,-21.46253905,0.38649959,0.59438190,0.73660901

>  <Name>
ligand

>  <RI>
0

>  <Rbt.Current_Directory>
/home/itssahil/PROJECTS/Mol_Feturizer/New_Systems/rnas/3E5F

>  <Rbt.Executable>
rbdock ($Id: //depot/dev/client3/rdock/2013.1/src/exe/rbdock.cxx#4 $)

>  <Rbt.Library>
libRbt.so (2013.1, Build901 2013/11/27)

>  <Rbt.Parameter_File>
/export/apps/rDock/src/rDock_2013.1_src/data/scripts/dock_solv.prm

>  <Rbt.Receptor>
prm/blind_docking_80.prm

>  <SCORE>
-14.0613

>  <SCORE.INTER>
-12.3285

>  <SCORE.INTER.CONST>
1

>  <SCORE.INTER.POLAR>
0

>  <SCORE.INTER.ROT>
7

>  <SCORE.INTER.SOLV>
9.39451

>  <SCORE.INTER.VDW>
-19.6171

>  <SCORE.INTER.norm>
-0.45661

>  <SCORE.INTRA>
-1.73921

>  <SCORE.INTRA.DIHEDRAL>
-0.366038

>  <SCORE.INTRA.DIHEDRAL.0>
4.89803

>  <SCORE.INTRA.POLAR>
0

>  <SCORE.INTRA.POLAR.0>
0

>  <SCORE.INTRA.REPUL>
0

>  <SCORE.INTRA.REPUL.0>
0

>  <SCORE.INTRA.SOLV>
-0.0206549

>  <SCORE.INTRA.SOLV.lig_0>
-48.5832

>  <SCORE.INTRA.VDW>
-1.54586

>  <SCORE.INTRA.VDW.0>
-2.39056

>  <SCORE.INTRA.norm>
-0.0644151

>  <SCORE.RESTR>
0.0063823

>  <SCORE.RESTR.CAVITY>
0.0063823

>  <SCORE.RESTR.norm>
0.000236382

>  <SCORE.SYSTEM>
0

>  <SCORE.SYSTEM.CONST>
0

>  <SCORE.SYSTEM.DIHEDRAL>
0

>  <SCORE.SYSTEM.SOLV>
0

>  <SCORE.SYSTEM.norm>
0

>  <SCORE.heavy>
27

>  <SCORE.norm>
-0.520788

>  <RMSD>
5.934

$$$$
ligand
 OpenBabel11021811473D
libRbt.so/2013.1/901 2013/11/27
 27 29  0  0  0  0  0  0  0  0999 V2000
   16.7600   -4.7474  -21.5661 N   0  0  0  0  0  0  0  0  0  0  0  0
   15.3399   -5.0932  -21.4061 C   0  0  2  0  0  0  0  0  0  0  0  0
   14.8463   -4.6483  -20.0260 C   0  0  0  0  0  0  0  0  0  0  0  0
   13.7550   -4.0393  -19.9835 O   0  0  0  0  0  0  0  0  0  0  0  0
   15.1842   -6.6097  -21.5323 C   0  0  0  0  0  0  0  0  0  0  0  0
   15.4174   -7.0938  -22.9657 C   0  0  0  0  0  0  0  0  0  0  0  0
   14.2654   -9.0860  -24.6313 C   0  0  0  0  0  0  0  0  0  0  0  0
   15.2530   -8.9417  -23.0791 Se  0  0  2  0  0  0  0  0  0  0  0  0
   14.0166   -9.4744  -21.7970 C   0  0  0  0  0  0  0  0  0  0  0  0
   13.7038  -10.9708  -21.8329 C   0  0  1  0  0  0  0  0  0  0  0  0
   13.0983  -11.3371  -20.5811 O   0  0  0  0  0  0  0  0  0  0  0  0
   12.6013  -11.1787  -22.8720 C   0  0  1  0  0  0  0  0  0  0  0  0
   12.4008  -12.5769  -23.0850 O   0  0  0  0  0  0  0  0  0  0  0  0
   11.4216  -10.5953  -22.0984 C   0  0  1  0  0  0  0  0  0  0  0  0
   10.2095  -11.1211  -22.6421 O   0  0  0  0  0  0  0  0  0  0  0  0
   11.6712  -11.2337  -20.7313 C   0  0  2  0  0  0  0  0  0  0  0  0
   15.5741   -4.9178  -19.0452 O   0  0  0  0  0  0  0  0  0  0  0  0
    7.3211   -9.8634  -18.3140 N   0  0  0  0  0  0  0  0  0  0  0  0
    7.4738  -10.6685  -19.3513 C   0  0  0  0  0  0  0  0  0  0  0  0
    8.6646  -10.9267  -19.8633 N   0  0  0  0  0  0  0  0  0  0  0  0
    9.7681  -10.3750  -19.3364 C   0  0  0  0  0  0  0  0  0  0  0  0
    9.6475   -9.5229  -18.2477 C   0  0  0  0  0  0  0  0  0  0  0  0
    8.3777   -9.2734  -17.7406 C   0  0  0  0  0  0  0  0  0  0  0  0
    8.2180   -8.4328  -16.7232 N   0  0  0  0  0  0  0  0  0  0  0  0
   10.8677   -9.1129  -17.9197 N   0  0  0  0  0  0  0  0  0  0  0  0
   11.7234   -9.6815  -18.7657 C   0  0  0  0  0  0  0  0  0  0  0  0
   11.0620  -10.4511  -19.6304 N   0  0  0  0  0  0  0  0  0  0  0  0
  2  1  1  1  0  0  0
  2  5  1  0  0  0  0
  2  3  1  0  0  0  0
  3 17  1  0  0  0  0
  3  4  1  0  0  0  0
  5  6  1  0  0  0  0
  7  8  1  0  0  0  0
  8  6  1  1  0  0  0
  8  9  1  0  0  0  0
 10  9  1  1  0  0  0
 10 11  1  0  0  0  0
 10 12  1  0  0  0  0
 11 16  1  0  0  0  0
 12 13  1  1  0  0  0
 12 14  1  0  0  0  0
 14 15  1  6  0  0  0
 14 16  1  0  0  0  0
 16 27  1  1  0  0  0
 18 23  2  0  0  0  0
 18 19  1  0  0  0  0
 19 20  2  0  0  0  0
 20 21  1  0  0  0  0
 21 22  2  0  0  0  0
 21 27  1  0  0  0  0
 22 23  1  0  0  0  0
 22 25  1  0  0  0  0
 23 24  1  0  0  0  0
 25 26  2  0  0  0  0
 26 27  1  0  0  0  0
M  END
>  <CHROM.1>
-70.30402888,133.56042771,178.92272216,136.58791936,176.10437454,162.02431459
-166.82239867,12.69626466,-8.94390069,-21.00755266,0.10495578,0.61187303
0.63665518

>  <Name>
ligand

>  <RI>
0

>  <Rbt.Current_Directory>
/home/itssahil/PROJECTS/Mol_Feturizer/New_Systems/rnas/3E5F

>  <Rbt.Executable>
rbdock ($Id: //depot/dev/client3/rdock/2013.1/src/exe/rbdock.cxx#4 $)

>  <Rbt.Library>
libRbt.so (2013.1, Build901 2013/11/27)

>  <Rbt.Parameter_File>
/export/apps/rDock/src/rDock_2013.1_src/data/scripts/dock_solv.prm

>  <Rbt.Receptor>
prm/pocket_docking_6.prm

>  <SCORE>
-14.3147

>  <SCORE.INTER>
-15.7731

>  <SCORE.INTER.CONST>
1

>  <SCORE.INTER.POLAR>
0

>  <SCORE.INTER.ROT>
7

>  <SCORE.INTER.SOLV>
7.86436

>  <SCORE.INTER.VDW>
-21.4035

>  <SCORE.INTER.norm>
-0.584188

>  <SCORE.INTRA>
1.45841

>  <SCORE.INTRA.DIHEDRAL>
0.965645

>  <SCORE.INTRA.DIHEDRAL.0>
4.89803

>  <SCORE.INTRA.POLAR>
0

>  <SCORE.INTRA.POLAR.0>
0

>  <SCORE.INTRA.REPUL>
0

>  <SCORE.INTRA.REPUL.0>
0

>  <SCORE.INTRA.SOLV>
0.72969

>  <SCORE.INTRA.SOLV.lig_0>
-48.5832

>  <SCORE.INTRA.VDW>
0.610743

>  <SCORE.INTRA.VDW.0>
-2.39056

>  <SCORE.INTRA.norm>
0.0540152

>  <SCORE.RESTR>
0

>  <SCORE.RESTR.CAVITY>
0

>  <SCORE.RESTR.norm>
0

>  <SCORE.SYSTEM>
0

>  <SCORE.SYSTEM.CONST>
0

>  <SCORE.SYSTEM.DIHEDRAL>
0

>  <SCORE.SYSTEM.SOLV>
0

>  <SCORE.SYSTEM.norm>
0

>  <SCORE.heavy>
27

>  <SCORE.norm>
-0.530173

>  <RMSD>
5.938

$$$$
ligand
 OpenBabel11021811473D
libRbt.so/2013.1/901 2013/11/27
 27 29  0  0  0  0  0  0  0  0999 V2000
   17.8285   -6.3559  -21.4131 N   0  0  0  0  0  0  0  0  0  0  0  0
   16.7832   -7.3597  -21.1647 C   0  0  2  0  0  0  0  0  0  0  0  0
   15.8144   -7.4094  -22.3501 C   0  0  0  0  0  0  0  0  0  0  0  0
   15.5580   -6.3255  -22.9185 O   0  0  0  0  0  0  0  0  0  0  0  0
   16.0143   -6.9690  -19.9014 C   0  0  0  0  0  0  0  0  0  0  0  0
   15.0523   -8.0712  -19.4505 C   0  0  0  0  0  0  0  0  0  0  0  0
   12.6660   -6.7991  -20.3210 C   0  0  0  0  0  0  0  0  0  0  0  0
   13.6782   -8.2995  -20.6812 Se  0  0  2  0  0  0  0  0  0  0  0  0
   12.5769   -9.6562  -20.0467 C   0  0  0  0  0  0  0  0  0  0  0  0
   13.2439  -11.0323  -20.0379 C   0  0  1  0  0  0  0  0  0  0  0  0
   12.3352  -11.9722  -19.4391 O   0  0  0  0  0  0  0  0  0  0  0  0
   13.3670  -11.4857  -21.4931 C   0  0  1  0  0  0  0  0  0  0  0  0
   14.1522  -12.6772  -21.5592 O   0  0  0  0  0  0  0  0  0  0  0  0
   11.9021  -11.8111  -21.7737 C   0  0  1  0  0  0  0  0  0  0  0  0
   11.8347  -12.7124  -22.8802 O   0  0  0  0  0  0  0  0  0  0  0  0
   11.5588  -12.5712  -20.4919 C   0  0  2  0  0  0  0  0  0  0  0  0
   15.3440   -8.5271  -22.6564 O   0  0  0  0  0  0  0  0  0  0  0  0
    7.6413   -9.8457  -18.5248 N   0  0  0  0  0  0  0  0  0  0  0  0
    8.9131   -9.5037  -18.6391 C   0  0  0  0  0  0  0  0  0  0  0  0
    9.8080  -10.3173  -19.1720 N   0  0  0  0  0  0  0  0  0  0  0  0
    9.4468  -11.5287  -19.6215 C   0  0  0  0  0  0  0  0  0  0  0  0
    8.1206  -11.9239  -19.5169 C   0  0  0  0  0  0  0  0  0  0  0  0
    7.2105  -11.0413  -18.9471 C   0  0  0  0  0  0  0  0  0  0  0  0
    5.9393  -11.3989  -18.7944 N   0  0  0  0  0  0  0  0  0  0  0  0
    8.0235  -13.1475  -20.0245 N   0  0  0  0  0  0  0  0  0  0  0  0
    9.2373  -13.5107  -20.4323 C   0  0  0  0  0  0  0  0  0  0  0  0
   10.1085  -12.5309  -20.1908 N   0  0  0  0  0  0  0  0  0  0  0  0
  2  1  1  6  0  0  0
  2  5  1  0  0  0  0
  2  3  1  0  0  0  0
  3 17  1  0  0  0  0
  3  4  1  0  0  0  0
  5  6  1  0  0  0  0
  7  8  1  0  0  0  0
  8  6  1  1  0  0  0
  8  9  1  0  0  0  0
 10  9  1  6  0  0  0
 10 11  1  0  0  0  0
 10 12  1  0  0  0  0
 11 16  1  0  0  0  0
 12 13  1  1  0  0  0
 12 14  1  0  0  0  0
 14 15  1  6  0  0  0
 14 16  1  0  0  0  0
 16 27  1  1  0  0  0
 18 23  2  0  0  0  0
 18 19  1  0  0  0  0
 19 20  2  0  0  0  0
 20 21  1  0  0  0  0
 21 22  2  0  0  0  0
 21 27  1  0  0  0  0
 22 23  1  0  0  0  0
 22 25  1  0  0  0  0
 23 24  1  0  0  0  0
 25 26  2  0  0  0  0
 26 27  1  0  0  0  0
M  END
>  <CHROM.1>
-171.17096818,-36.05925899,-66.80497736,-74.45138047,-67.35252017,175.80681380
39.38159455,12.34334678,-9.87089107,-20.53458262,0.43885693,0.40615365,0.32226191

>  <Name>
ligand

>  <RI>
0

>  <Rbt.Current_Directory>
/home/itssahil/PROJECTS/Mol_Feturizer/New_Systems/rnas/3E5F

>  <Rbt.Executable>
rbdock ($Id: //depot/dev/client3/rdock/2013.1/src/exe/rbdock.cxx#4 $)

>  <Rbt.Library>
libRbt.so (2013.1, Build901 2013/11/27)

>  <Rbt.Parameter_File>
/export/apps/rDock/src/rDock_2013.1_src/data/scripts/dock_solv.prm

>  <Rbt.Receptor>
prm/pocket_docking_7.prm

>  <SCORE>
-15.4905

>  <SCORE.INTER>
-13.2145

>  <SCORE.INTER.CONST>
1

>  <SCORE.INTER.POLAR>
0

>  <SCORE.INTER.ROT>
7

>  <SCORE.INTER.SOLV>
9.6421

>  <SCORE.INTER.VDW>
-20.2904

>  <SCORE.INTER.norm>
-0.489428

>  <SCORE.INTRA>
-2.27592

>  <SCORE.INTRA.DIHEDRAL>
-1.3242

>  <SCORE.INTRA.DIHEDRAL.0>
4.89803

>  <SCORE.INTRA.POLAR>
0

>  <SCORE.INTRA.POLAR.0>
0

>  <SCORE.INTRA.REPUL>
0

>  <SCORE.INTRA.REPUL.0>
0

>  <SCORE.INTRA.SOLV>
0.00929901

>  <SCORE.INTRA.SOLV.lig_0>
-48.5832

>  <SCORE.INTRA.VDW>
-1.61846

>  <SCORE.INTRA.VDW.0>
-2.39056

>  <SCORE.INTRA.norm>
-0.0842932

>  <SCORE.RESTR>
0

>  <SCORE.RESTR.CAVITY>
0

>  <SCORE.RESTR.norm>
0

>  <SCORE.SYSTEM>
0

>  <SCORE.SYSTEM.CONST>
0

>  <SCORE.SYSTEM.DIHEDRAL>
0

>  <SCORE.SYSTEM.SOLV>
0

>  <SCORE.SYSTEM.norm>
0

>  <SCORE.heavy>
27

>  <SCORE.norm>
-0.573721

>  <RMSD>
5.950

$$$$
ligand
 OpenBabel11021811473D
libRbt.so/2013.1/901 2013/11/27
 27 29  0  0  0  0  0  0  0  0999 V2000
    9.0509  -10.3774  -19.3989 N   0  0  0  0  0  0  0  0  0  0  0  0
    9.9727  -11.2008  -20.1952 C   0  0  2  0  0  0  0  0  0  0  0  0
    9.6232  -12.6831  -20.0316 C   0  0  0  0  0  0  0  0  0  0  0  0
    8.7499  -12.9694  -19.1837 O   0  0  0  0  0  0  0  0  0  0  0  0
   11.4004  -10.9620  -19.7004 C   0  0  0  0  0  0  0  0  0  0  0  0
   11.9027   -9.5591  -20.0510 C   0  0  0  0  0  0  0  0  0  0  0  0
   13.0465   -8.6172  -17.6272 C   0  0  0  0  0  0  0  0  0  0  0  0
   13.5657   -9.2372  -19.2860 Se  0  0  2  0  0  0  0  0  0  0  0  0
   14.2522   -7.6950  -20.0649 C   0  0  0  0  0  0  0  0  0  0  0  0
   15.6553   -7.8751  -20.6459 C   0  0  1  0  0  0  0  0  0  0  0  0
   15.6444   -9.0266  -21.5071 O   0  0  0  0  0  0  0  0  0  0  0  0
   15.9135   -6.6938  -21.5818 C   0  0  1  0  0  0  0  0  0  0  0  0
   17.2773   -6.7077  -22.0064 O   0  0  0  0  0  0  0  0  0  0  0  0
   15.0034   -7.0946  -22.7401 C   0  0  1  0  0  0  0  0  0  0  0  0
   15.4439   -6.4268  -23.9238 O   0  0  0  0  0  0  0  0  0  0  0  0
   15.3600   -8.5780  -22.8443 C   0  0  2  0  0  0  0  0  0  0  0  0
   10.2427  -13.4983  -20.7499 O   0  0  0  0  0  0  0  0  0  0  0  0
   12.3756  -12.7786  -22.5404 N   0  0  0  0  0  0  0  0  0  0  0  0
   13.3130  -12.3665  -21.7045 C   0  0  0  0  0  0  0  0  0  0  0  0
   13.9988  -11.2572  -21.9189 N   0  0  0  0  0  0  0  0  0  0  0  0
   13.7583  -10.5051  -23.0035 C   0  0  0  0  0  0  0  0  0  0  0  0
   12.7826  -10.9065  -23.9051 C   0  0  0  0  0  0  0  0  0  0  0  0
   12.0859  -12.0810  -23.6462 C   0  0  0  0  0  0  0  0  0  0  0  0
   11.1711  -12.5183  -24.5059 N   0  0  0  0  0  0  0  0  0  0  0  0
   12.7395  -10.0054  -24.8800 N   0  0  0  0  0  0  0  0  0  0  0  0
   13.6499   -9.0738  -24.6065 C   0  0  0  0  0  0  0  0  0  0  0  0
   14.2736   -9.3708  -23.4662 N   0  0  0  0  0  0  0  0  0  0  0  0
  2  1  1  1  0  0  0
  2  5  1  0  0  0  0
  2  3  1  0  0  0  0
  3 17  1  0  0  0  0
  3  4  1  0  0  0  0
  5  6  1  0  0  0  0
  7  8  1  0  0  0  0
  8  6  1  6  0  0  0
  8  9  1  0  0  0  0
 10  9  1  6  0  0  0
 10 11  1  0  0  0  0
 10 12  1  0  0  0  0
 11 16  1  0  0  0  0
 12 13  1  6  0  0  0
 12 14  1  0  0  0  0
 14 15  1  6  0  0  0
 14 16  1  0  0  0  0
 16 27  1  1  0  0  0
 18 23  2  0  0  0  0
 18 19  1  0  0  0  0
 19 20  2  0  0  0  0
 20 21  1  0  0  0  0
 21 22  2  0  0  0  0
 21 27  1  0  0  0  0
 22 23  1  0  0  0  0
 22 25  1  0  0  0  0
 23 24  1  0  0  0  0
 25 26  2  0  0  0  0
 26 27  1  0  0  0  0
M  END
>  <CHROM.1>
-69.69853612,-7.07269668,174.09031896,-86.66293262,-126.80308668,51.43606918
-11.64165316,13.13208063,-9.86377166,-21.29110544,-3.13359291,-0.75079764
-1.89453935

>  <Name>
ligand

>  <RI>
0

>  <Rbt.Current_Directory>
/home/itssahil/PROJECTS/Mol_Feturizer/New_Systems/rnas/3E5F

>  <Rbt.Executable>
rbdock ($Id: //depot/dev/client3/rdock/2013.1/src/exe/rbdock.cxx#4 $)

>  <Rbt.Library>
libRbt.so (2013.1, Build901 2013/11/27)

>  <Rbt.Parameter_File>
/export/apps/rDock/src/rDock_2013.1_src/data/scripts/dock_solv.prm

>  <Rbt.Receptor>
prm/pocket_docking_8.prm

>  <SCORE>
-14.6647

>  <SCORE.INTER>
-13.8568

>  <SCORE.INTER.CONST>
1

>  <SCORE.INTER.POLAR>
0

>  <SCORE.INTER.ROT>
7

>  <SCORE.INTER.SOLV>
15.2692

>  <SCORE.INTER.VDW>
-22.5943

>  <SCORE.INTER.norm>
-0.513215

>  <SCORE.INTRA>
-0.807886

>  <SCORE.INTRA.DIHEDRAL>
1.51001

>  <SCORE.INTRA.DIHEDRAL.0>
4.89803

>  <SCORE.INTRA.POLAR>
0

>  <SCORE.INTRA.POLAR.0>
0

>  <SCORE.INTRA.REPUL>
0

>  <SCORE.INTRA.REPUL.0>
0

>  <SCORE.INTRA.SOLV>
0.798502

>  <SCORE.INTRA.SOLV.lig_0>
-48.5832

>  <SCORE.INTRA.VDW>
-1.96214

>  <SCORE.INTRA.VDW.0>
-2.39056

>  <SCORE.INTRA.norm>
-0.0299217

>  <SCORE.RESTR>
0

>  <SCORE.RESTR.CAVITY>
0

>  <SCORE.RESTR.norm>
0

>  <SCORE.SYSTEM>
0

>  <SCORE.SYSTEM.CONST>
0

>  <SCORE.SYSTEM.DIHEDRAL>
0

>  <SCORE.SYSTEM.SOLV>
0

>  <SCORE.SYSTEM.norm>
0

>  <SCORE.heavy>
27

>  <SCORE.norm>
-0.543137

>  <RMSD>
5.950

$$$$
ligand
 OpenBabel11021811473D
libRbt.so/2013.1/901 2013/11/27
 27 29  0  0  0  0  0  0  0  0999 V2000
   15.9210   -4.8537  -19.3473 N   0  0  0  0  0  0  0  0  0  0  0  0
   14.9906   -4.6242  -20.4624 C   0  0  2  0  0  0  0  0  0  0  0  0
   15.7688   -4.2108  -21.7153 C   0  0  0  0  0  0  0  0  0  0  0  0
   16.4274   -3.1499  -21.6492 O   0  0  0  0  0  0  0  0  0  0  0  0
   14.0247   -3.5028  -20.0762 C   0  0  0  0  0  0  0  0  0  0  0  0
   13.1956   -3.8593  -18.8397 C   0  0  0  0  0  0  0  0  0  0  0  0
   11.0960   -5.4034  -17.7092 C   0  0  0  0  0  0  0  0  0  0  0  0
   11.5882   -4.6572  -19.3237 Se  0  0  2  0  0  0  0  0  0  0  0  0
   11.9924   -6.1686  -20.3278 C   0  0  0  0  0  0  0  0  0  0  0  0
   13.0274   -7.0820  -19.6697 C   0  0  1  0  0  0  0  0  0  0  0  0
   12.3695   -7.8480  -18.6459 O   0  0  0  0  0  0  0  0  0  0  0  0
   13.4504   -8.1148  -20.7149 C   0  0  1  0  0  0  0  0  0  0  0  0
   14.5523   -8.8760  -20.2180 O   0  0  0  0  0  0  0  0  0  0  0  0
   12.1896   -8.9753  -20.7342 C   0  0  1  0  0  0  0  0  0  0  0  0
   12.5216  -10.2668  -21.2471 O   0  0  0  0  0  0  0  0  0  0  0  0
   11.9339   -9.0884  -19.2307 C   0  0  2  0  0  0  0  0  0  0  0  0
   15.6811   -4.9583  -22.7142 O   0  0  0  0  0  0  0  0  0  0  0  0
    7.9855  -12.3783  -19.7118 N   0  0  0  0  0  0  0  0  0  0  0  0
    9.2258  -12.5029  -20.1520 C   0  0  0  0  0  0  0  0  0  0  0  0
   10.1350  -11.5658  -19.9475 N   0  0  0  0  0  0  0  0  0  0  0  0
    9.8230  -10.4473  -19.2756 C   0  0  0  0  0  0  0  0  0  0  0  0
    8.5302  -10.2798  -18.7995 C   0  0  0  0  0  0  0  0  0  0  0  0
    7.6019  -11.2863  -19.0382 C   0  0  0  0  0  0  0  0  0  0  0  0
    6.3441  -11.1451  -18.6316 N   0  0  0  0  0  0  0  0  0  0  0  0
    8.4779   -9.1061  -18.1796 N   0  0  0  0  0  0  0  0  0  0  0  0
    9.6866   -8.5548  -18.2609 C   0  0  0  0  0  0  0  0  0  0  0  0
   10.5104   -9.3649  -18.9259 N   0  0  0  0  0  0  0  0  0  0  0  0
  2  1  1  1  0  0  0
  2  5  1  0  0  0  0
  2  3  1  0  0  0  0
  3 17  1  0  0  0  0
  3  4  1  0  0  0  0
  5  6  1  0  0  0  0
  7  8  1  0  0  0  0
  8  6  1  1  0  0  0
  8  9  1  0  0  0  0
 10  9  1  6  0  0  0
 10 11  1  0  0  0  0
 10 12  1  0  0  0  0
 11 16  1  0  0  0  0
 12 13  1  1  0  0  0
 12 14  1  0  0  0  0
 14 15  1  1  0  0  0
 14 16  1  0  0  0  0
 16 27  1  6  0  0  0
 18 23  2  0  0  0  0
 18 19  1  0  0  0  0
 19 20  2  0  0  0  0
 20 21  1  0  0  0  0
 21 22  2  0  0  0  0
 21 27  1  0  0  0  0
 22 23  1  0  0  0  0
 22 25  1  0  0  0  0
 23 24  1  0  0  0  0
 25 26  2  0  0  0  0
 26 27  1  0  0  0  0
M  END
>  <CHROM.1>
-60.85772812,-61.83399659,-92.07368142,163.69459358,49.99101556,78.26267775
-177.33701501,11.87021170,-7.31749018,-19.71858976,-0.76244262,-0.47185037
-2.88096318

>  <Name>
ligand

>  <RI>
0

>  <Rbt.Current_Directory>
/home/itssahil/PROJECTS/Mol_Feturizer/New_Systems/rnas/3E5F

>  <Rbt.Executable>
rbdock ($Id: //depot/dev/client3/rdock/2013.1/src/exe/rbdock.cxx#4 $)

>  <Rbt.Library>
libRbt.so (2013.1, Build901 2013/11/27)

>  <Rbt.Parameter_File>
/export/apps/rDock/src/rDock_2013.1_src/data/scripts/dock_solv.prm

>  <Rbt.Receptor>
prm/pocket_docking_8.prm

>  <SCORE>
-10.1293

>  <SCORE.INTER>
-12.2791

>  <SCORE.INTER.CONST>
1

>  <SCORE.INTER.POLAR>
0

>  <SCORE.INTER.ROT>
7

>  <SCORE.INTER.SOLV>
7.16805

>  <SCORE.INTER.VDW>
-18.8421

>  <SCORE.INTER.norm>
-0.454783

>  <SCORE.INTRA>
2.14985

>  <SCORE.INTRA.DIHEDRAL>
2.3481

>  <SCORE.INTRA.DIHEDRAL.0>
4.89803

>  <SCORE.INTRA.POLAR>
0

>  <SCORE.INTRA.POLAR.0>
0

>  <SCORE.INTRA.REPUL>
0

>  <SCORE.INTRA.REPUL.0>
0

>  <SCORE.INTRA.SOLV>
2.29401

>  <SCORE.INTRA.SOLV.lig_0>
-48.5832

>  <SCORE.INTRA.VDW>
-0.17121

>  <SCORE.INTRA.VDW.0>
-2.39056

>  <SCORE.INTRA.norm>
0.0796239

>  <SCORE.RESTR>
0

>  <SCORE.RESTR.CAVITY>
0

>  <SCORE.RESTR.norm>
0

>  <SCORE.SYSTEM>
0

>  <SCORE.SYSTEM.CONST>
0

>  <SCORE.SYSTEM.DIHEDRAL>
0

>  <SCORE.SYSTEM.SOLV>
0

>  <SCORE.SYSTEM.norm>
0

>  <SCORE.heavy>
27

>  <SCORE.norm>
-0.375159

>  <RMSD>
5.954

$$$$
ligand
 OpenBabel11021811473D
libRbt.so/2013.1/901 2013/11/27
 27 29  0  0  0  0  0  0  0  0999 V2000
   14.8675   -5.6519  -20.0145 N   0  0  0  0  0  0  0  0  0  0  0  0
   16.2542   -6.0881  -19.7938 C   0  0  2  0  0  0  0  0  0  0  0  0
   17.2111   -4.9095  -19.9971 C   0  0  0  0  0  0  0  0  0  0  0  0
   16.7287   -3.8658  -20.4885 O   0  0  0  0  0  0  0  0  0  0  0  0
   16.5908   -7.1899  -20.8001 C   0  0  0  0  0  0  0  0  0  0  0  0
   15.7851   -8.4664  -20.5452 C   0  0  0  0  0  0  0  0  0  0  0  0
   13.2953   -8.7465  -19.2061 C   0  0  0  0  0  0  0  0  0  0  0  0
   13.9709   -8.1752  -20.8256 Se  0  0  2  0  0  0  0  0  0  0  0  0
   13.3612   -9.5026  -21.9756 C   0  0  0  0  0  0  0  0  0  0  0  0
   13.8978  -10.8953  -21.6422 C   0  0  1  0  0  0  0  0  0  0  0  0
   13.1641  -11.4055  -20.5156 O   0  0  0  0  0  0  0  0  0  0  0  0
   13.5179  -11.8171  -22.8016 C   0  0  1  0  0  0  0  0  0  0  0  0
   14.1552  -13.0845  -22.6350 O   0  0  0  0  0  0  0  0  0  0  0  0
   12.0210  -11.9473  -22.5315 C   0  0  1  0  0  0  0  0  0  0  0  0
   11.5409  -13.1351  -23.1639 O   0  0  0  0  0  0  0  0  0  0  0  0
   12.0523  -12.1677  -21.0185 C   0  0  2  0  0  0  0  0  0  0  0  0
   18.4052   -5.0801  -19.6661 O   0  0  0  0  0  0  0  0  0  0  0  0
    7.7066  -13.7496  -18.7256 N   0  0  0  0  0  0  0  0  0  0  0  0
    8.7017  -14.4758  -19.2051 C   0  0  0  0  0  0  0  0  0  0  0  0
    9.7604  -13.9208  -19.7689 N   0  0  0  0  0  0  0  0  0  0  0  0
    9.8593  -12.5867  -19.8695 C   0  0  0  0  0  0  0  0  0  0  0  0
    8.8334  -11.7911  -19.3791 C   0  0  0  0  0  0  0  0  0  0  0  0
    7.7351  -12.4127  -18.7967 C   0  0  0  0  0  0  0  0  0  0  0  0
    6.7152  -11.6861  -18.3504 N   0  0  0  0  0  0  0  0  0  0  0  0
    9.1662  -10.5239  -19.5982 N   0  0  0  0  0  0  0  0  0  0  0  0
   10.3523  -10.5188  -20.2020 C   0  0  0  0  0  0  0  0  0  0  0  0
   10.7805  -11.7700  -20.3703 N   0  0  0  0  0  0  0  0  0  0  0  0
  2  1  1  6  0  0  0
  2  5  1  0  0  0  0
  2  3  1  0  0  0  0
  3 17  1  0  0  0  0
  3  4  1  0  0  0  0
  5  6  1  0  0  0  0
  7  8  1  0  0  0  0
  8  6  1  1  0  0  0
  8  9  1  0  0  0  0
 10  9  1  6  0  0  0
 10 11  1  0  0  0  0
 10 12  1  0  0  0  0
 11 16  1  0  0  0  0
 12 13  1  1  0  0  0
 12 14  1  0  0  0  0
 14 15  1  6  0  0  0
 14 16  1  0  0  0  0
 16 27  1  1  0  0  0
 18 23  2  0  0  0  0
 18 19  1  0  0  0  0
 19 20  2  0  0  0  0
 20 21  1  0  0  0  0
 21 22  2  0  0  0  0
 21 27  1  0  0  0  0
 22 23  1  0  0  0  0
 22 25  1  0  0  0  0
 23 24  1  0  0  0  0
 25 26  2  0  0  0  0
 26 27  1  0  0  0  0
M  END
>  <CHROM.1>
-66.84283921,-10.03567788,65.22647756,-125.50559622,43.02228416,77.38380646
-133.08296460,12.78316859,-9.85124510,-20.52520962,0.60115863,0.50245425
0.54038886

>  <Name>
ligand

>  <RI>
0

>  <Rbt.Current_Directory>
/home/itssahil/PROJECTS/Mol_Feturizer/New_Systems/rnas/3E5F

>  <Rbt.Executable>
rbdock ($Id: //depot/dev/client3/rdock/2013.1/src/exe/rbdock.cxx#4 $)

>  <Rbt.Library>
libRbt.so (2013.1, Build901 2013/11/27)

>  <Rbt.Parameter_File>
/export/apps/rDock/src/rDock_2013.1_src/data/scripts/dock_solv.prm

>  <Rbt.Receptor>
prm/blind_docking_40.prm

>  <SCORE>
-13.6434

>  <SCORE.INTER>
-15.4668

>  <SCORE.INTER.CONST>
1

>  <SCORE.INTER.POLAR>
0

>  <SCORE.INTER.ROT>
7

>  <SCORE.INTER.SOLV>
7.08056

>  <SCORE.INTER.VDW>
-20.938

>  <SCORE.INTER.norm>
-0.572843

>  <SCORE.INTRA>
1.82332

>  <SCORE.INTRA.DIHEDRAL>
1.68424

>  <SCORE.INTRA.DIHEDRAL.0>
4.89803

>  <SCORE.INTRA.POLAR>
0

>  <SCORE.INTRA.POLAR.0>
0

>  <SCORE.INTRA.REPUL>
0

>  <SCORE.INTRA.REPUL.0>
0

>  <SCORE.INTRA.SOLV>
2.41671

>  <SCORE.INTRA.SOLV.lig_0>
-48.5832

>  <SCORE.INTRA.VDW>
-0.227161

>  <SCORE.INTRA.VDW.0>
-2.39056

>  <SCORE.INTRA.norm>
0.0675303

>  <SCORE.RESTR>
0

>  <SCORE.RESTR.CAVITY>
0

>  <SCORE.RESTR.norm>
0

>  <SCORE.SYSTEM>
0

>  <SCORE.SYSTEM.CONST>
0

>  <SCORE.SYSTEM.DIHEDRAL>
0

>  <SCORE.SYSTEM.SOLV>
0

>  <SCORE.SYSTEM.norm>
0

>  <SCORE.heavy>
27

>  <SCORE.norm>
-0.505313

>  <RMSD>
5.960

$$$$
ligand
 OpenBabel11021811473D
libRbt.so/2013.1/901 2013/11/27
 27 29  0  0  0  0  0  0  0  0999 V2000
    6.6167  -12.8562  -19.5500 N   0  0  0  0  0  0  0  0  0  0  0  0
    7.7770  -12.3663  -18.7913 C   0  0  2  0  0  0  0  0  0  0  0  0
    7.4137  -12.2334  -17.3092 C   0  0  0  0  0  0  0  0  0  0  0  0
    6.1966  -12.2192  -17.0230 O   0  0  0  0  0  0  0  0  0  0  0  0
    8.1797  -10.9950  -19.3365 C   0  0  0  0  0  0  0  0  0  0  0  0
    9.6785  -10.7296  -19.1737 C   0  0  0  0  0  0  0  0  0  0  0  0
   12.3159  -11.6704  -19.6527 C   0  0  0  0  0  0  0  0  0  0  0  0
   10.6592  -11.6380  -20.4651 Se  0  0  2  0  0  0  0  0  0  0  0  0
   10.9554  -10.4622  -21.8743 C   0  0  0  0  0  0  0  0  0  0  0  0
   10.9337  -11.1347  -23.2475 C   0  0  1  0  0  0  0  0  0  0  0  0
   11.6339  -10.2898  -24.1767 O   0  0  0  0  0  0  0  0  0  0  0  0
   11.7922  -12.3962  -23.1481 C   0  0  1  0  0  0  0  0  0  0  0  0
   11.6555  -13.1645  -24.3445 O   0  0  0  0  0  0  0  0  0  0  0  0
   13.1742  -11.7496  -23.0995 C   0  0  1  0  0  0  0  0  0  0  0  0
   14.1476  -12.7129  -23.5064 O   0  0  0  0  0  0  0  0  0  0  0  0
   13.0095  -10.7101  -24.2090 C   0  0  2  0  0  0  0  0  0  0  0  0
    8.3593  -12.1393  -16.4960 O   0  0  0  0  0  0  0  0  0  0  0  0
   15.7835   -7.8564  -20.9217 N   0  0  0  0  0  0  0  0  0  0  0  0
   15.0219   -8.9067  -20.6679 C   0  0  0  0  0  0  0  0  0  0  0  0
   14.3676   -9.5405  -21.6254 N   0  0  0  0  0  0  0  0  0  0  0  0
   14.4610   -9.1336  -22.9004 C   0  0  0  0  0  0  0  0  0  0  0  0
   15.2497   -8.0333  -23.2057 C   0  0  0  0  0  0  0  0  0  0  0  0
   15.9188   -7.3915  -22.1703 C   0  0  0  0  0  0  0  0  0  0  0  0
   16.6528   -6.3110  -22.4177 N   0  0  0  0  0  0  0  0  0  0  0  0
   15.1747   -7.8351  -24.5170 N   0  0  0  0  0  0  0  0  0  0  0  0
   14.3720   -8.7704  -25.0193 C   0  0  0  0  0  0  0  0  0  0  0  0
   13.9341   -9.5643  -24.0420 N   0  0  0  0  0  0  0  0  0  0  0  0
  2  1  1  6  0  0  0
  2  5  1  0  0  0  0
  2  3  1  0  0  0  0
  3 17  1  0  0  0  0
  3  4  1  0  0  0  0
  5  6  1  0  0  0  0
  7  8  1  0  0  0  0
  8  6  1  1  0  0  0
  8  9  1  0  0  0  0
 10  9  1  1  0  0  0
 10 11  1  0  0  0  0
 10 12  1  0  0  0  0
 11 16  1  0  0  0  0
 12 13  1  6  0  0  0
 12 14  1  0  0  0  0
 14 15  1  6  0  0  0
 14 16  1  0  0  0  0
 16 27  1  1  0  0  0
 18 23  2  0  0  0  0
 18 19  1  0  0  0  0
 19 20  2  0  0  0  0
 20 21  1  0  0  0  0
 21 22  2  0  0  0  0
 21 27  1  0  0  0  0
 22 23  1  0  0  0  0
 22 25  1  0  0  0  0
 23 24  1  0  0  0  0
 25 26  2  0  0  0  0
 26 27  1  0  0  0  0
M  END
>  <CHROM.1>
-150.58130305,-17.11067986,77.59417156,-159.27227519,-144.42179012,-159.18661865
93.53191538,11.77056356,-10.71200559,-21.38776318,2.83813147,0.64344394,1.09676668

>  <Name>
ligand

>  <RI>
0

>  <Rbt.Current_Directory>
/home/itssahil/PROJECTS/Mol_Feturizer/New_Systems/rnas/3E5F

>  <Rbt.Executable>
rbdock ($Id: //depot/dev/client3/rdock/2013.1/src/exe/rbdock.cxx#4 $)

>  <Rbt.Library>
libRbt.so (2013.1, Build901 2013/11/27)

>  <Rbt.Parameter_File>
/export/apps/rDock/src/rDock_2013.1_src/data/scripts/dock_solv.prm

>  <Rbt.Receptor>
prm/blind_docking_100.prm

>  <SCORE>
-16.6084

>  <SCORE.INTER>
-18.9034

>  <SCORE.INTER.CONST>
1

>  <SCORE.INTER.POLAR>
0

>  <SCORE.INTER.ROT>
7

>  <SCORE.INTER.SOLV>
13.7878

>  <SCORE.INTER.VDW>
-25.4648

>  <SCORE.INTER.norm>
-0.700125

>  <SCORE.INTRA>
2.29496

>  <SCORE.INTRA.DIHEDRAL>
6.14403

>  <SCORE.INTRA.DIHEDRAL.0>
4.89803

>  <SCORE.INTRA.POLAR>
0

>  <SCORE.INTRA.POLAR.0>
0

>  <SCORE.INTRA.REPUL>
0

>  <SCORE.INTRA.REPUL.0>
0

>  <SCORE.INTRA.SOLV>
0.120332

>  <SCORE.INTRA.SOLV.lig_0>
-48.5832

>  <SCORE.INTRA.VDW>
-0.837224

>  <SCORE.INTRA.VDW.0>
-2.39056

>  <SCORE.INTRA.norm>
0.0849985

>  <SCORE.RESTR>
0

>  <SCORE.RESTR.CAVITY>
0

>  <SCORE.RESTR.norm>
0

>  <SCORE.SYSTEM>
0

>  <SCORE.SYSTEM.CONST>
0

>  <SCORE.SYSTEM.DIHEDRAL>
0

>  <SCORE.SYSTEM.SOLV>
0

>  <SCORE.SYSTEM.norm>
0

>  <SCORE.heavy>
27

>  <SCORE.norm>
-0.615127

>  <RMSD>
5.961

$$$$
ligand
 OpenBabel11021811473D
libRbt.so/2013.1/901 2013/11/27
 27 29  0  0  0  0  0  0  0  0999 V2000
   18.2056   -4.5397  -20.9018 N   0  0  0  0  0  0  0  0  0  0  0  0
   17.0703   -4.8367  -21.7876 C   0  0  2  0  0  0  0  0  0  0  0  0
   15.8077   -4.1412  -21.2697 C   0  0  0  0  0  0  0  0  0  0  0  0
   15.6486   -4.1047  -20.0300 O   0  0  0  0  0  0  0  0  0  0  0  0
   16.8413   -6.3490  -21.8058 C   0  0  0  0  0  0  0  0  0  0  0  0
   15.8755   -6.7704  -22.9163 C   0  0  0  0  0  0  0  0  0  0  0  0
   14.4986   -8.7934  -24.3591 C   0  0  0  0  0  0  0  0  0  0  0  0
   15.5370   -8.5966  -22.8464 Se  0  0  2  0  0  0  0  0  0  0  0  0
   14.2916   -8.8847  -21.4964 C   0  0  0  0  0  0  0  0  0  0  0  0
   13.9735  -10.3621  -21.2624 C   0  0  1  0  0  0  0  0  0  0  0  0
   13.2537  -10.4794  -20.0231 O   0  0  0  0  0  0  0  0  0  0  0  0
   12.9693  -10.7851  -22.3352 C   0  0  1  0  0  0  0  0  0  0  0  0
   12.7798  -12.1999  -22.2832 O   0  0  0  0  0  0  0  0  0  0  0  0
   11.7276  -10.0735  -21.8036 C   0  0  1  0  0  0  0  0  0  0  0  0
   10.5669  -10.7110  -22.3399 O   0  0  0  0  0  0  0  0  0  0  0  0
   11.8469  -10.4247  -20.3200 C   0  0  2  0  0  0  0  0  0  0  0  0
   15.0246   -3.6699  -22.1235 O   0  0  0  0  0  0  0  0  0  0  0  0
    7.4906   -9.2303  -17.8220 N   0  0  0  0  0  0  0  0  0  0  0  0
    7.7633  -10.3029  -18.5449 C   0  0  0  0  0  0  0  0  0  0  0  0
    8.9375  -10.4698  -19.1281 N   0  0  0  0  0  0  0  0  0  0  0  0
    9.9010   -9.5451  -18.9993 C   0  0  0  0  0  0  0  0  0  0  0  0
    9.6511   -8.4044  -18.2493 C   0  0  0  0  0  0  0  0  0  0  0  0
    8.4026   -8.2641  -17.6550 C   0  0  0  0  0  0  0  0  0  0  0  0
    8.1125   -7.1677  -16.9613 N   0  0  0  0  0  0  0  0  0  0  0  0
   10.7478   -7.6555  -18.2774 N   0  0  0  0  0  0  0  0  0  0  0  0
   11.6526   -8.2956  -19.0143 C   0  0  0  0  0  0  0  0  0  0  0  0
   11.1449   -9.4462  -19.4568 N   0  0  0  0  0  0  0  0  0  0  0  0
  2  1  1  1  0  0  0
  2  5  1  0  0  0  0
  2  3  1  0  0  0  0
  3 17  1  0  0  0  0
  3  4  1  0  0  0  0
  5  6  1  0  0  0  0
  7  8  1  0  0  0  0
  8  6  1  1  0  0  0
  8  9  1  0  0  0  0
 10  9  1  6  0  0  0
 10 11  1  0  0  0  0
 10 12  1  0  0  0  0
 11 16  1  0  0  0  0
 12 13  1  1  0  0  0
 12 14  1  0  0  0  0
 14 15  1  6  0  0  0
 14 16  1  0  0  0  0
 16 27  1  1  0  0  0
 18 23  2  0  0  0  0
 18 19  1  0  0  0  0
 19 20  2  0  0  0  0
 20 21  1  0  0  0  0
 21 22  2  0  0  0  0
 21 27  1  0  0  0  0
 22 23  1  0  0  0  0
 22 25  1  0  0  0  0
 23 24  1  0  0  0  0
 25 26  2  0  0  0  0
 26 27  1  0  0  0  0
M  END
>  <CHROM.1>
-168.17052038,-38.07231897,-176.51645659,-175.21094716,-176.54882554,167.06910952
-146.35741443,13.09165842,-8.34909436,-20.92481110,0.12520523,0.57273464
0.50535901

>  <Name>
ligand

>  <RI>
0

>  <Rbt.Current_Directory>
/home/itssahil/PROJECTS/Mol_Feturizer/New_Systems/rnas/3E5F

>  <Rbt.Executable>
rbdock ($Id: //depot/dev/client3/rdock/2013.1/src/exe/rbdock.cxx#4 $)

>  <Rbt.Library>
libRbt.so (2013.1, Build901 2013/11/27)

>  <Rbt.Parameter_File>
/export/apps/rDock/src/rDock_2013.1_src/data/scripts/dock_solv.prm

>  <Rbt.Receptor>
prm/pocket_docking_7.prm

>  <SCORE>
-14.7744

>  <SCORE.INTER>
-14.6034

>  <SCORE.INTER.CONST>
1

>  <SCORE.INTER.POLAR>
0

>  <SCORE.INTER.ROT>
7

>  <SCORE.INTER.SOLV>
13.3722

>  <SCORE.INTER.VDW>
-22.4597

>  <SCORE.INTER.norm>
-0.540865

>  <SCORE.INTRA>
-0.171031

>  <SCORE.INTRA.DIHEDRAL>
-0.481059

>  <SCORE.INTRA.DIHEDRAL.0>
4.89803

>  <SCORE.INTRA.POLAR>
0

>  <SCORE.INTRA.POLAR.0>
0

>  <SCORE.INTRA.REPUL>
0

>  <SCORE.INTRA.REPUL.0>
0

>  <SCORE.INTRA.SOLV>
0.0291678

>  <SCORE.INTRA.SOLV.lig_0>
-48.5832

>  <SCORE.INTRA.VDW>
0.0549143

>  <SCORE.INTRA.VDW.0>
-2.39056

>  <SCORE.INTRA.norm>
-0.00633449

>  <SCORE.RESTR>
0

>  <SCORE.RESTR.CAVITY>
0

>  <SCORE.RESTR.norm>
0

>  <SCORE.SYSTEM>
0

>  <SCORE.SYSTEM.CONST>
0

>  <SCORE.SYSTEM.DIHEDRAL>
0

>  <SCORE.SYSTEM.SOLV>
0

>  <SCORE.SYSTEM.norm>
0

>  <SCORE.heavy>
27

>  <SCORE.norm>
-0.5472

>  <RMSD>
5.973

$$$$
ligand
 OpenBabel11021811473D
libRbt.so/2013.1/901 2013/11/27
 27 29  0  0  0  0  0  0  0  0999 V2000
   16.9679   -5.3046  -20.0952 N   0  0  0  0  0  0  0  0  0  0  0  0
   16.6946   -6.3215  -19.0690 C   0  0  2  0  0  0  0  0  0  0  0  0
   17.8714   -6.4072  -18.0922 C   0  0  0  0  0  0  0  0  0  0  0  0
   18.9687   -5.9546  -18.4854 O   0  0  0  0  0  0  0  0  0  0  0  0
   16.5088   -7.6764  -19.7543 C   0  0  0  0  0  0  0  0  0  0  0  0
   15.3101   -7.6788  -20.7065 C   0  0  0  0  0  0  0  0  0  0  0  0
   14.3572   -8.6988  -23.1808 C   0  0  0  0  0  0  0  0  0  0  0  0
   15.2145   -9.2762  -21.6519 Se  0  0  2  0  0  0  0  0  0  0  0  0
   13.8989  -10.3211  -20.8560 C   0  0  0  0  0  0  0  0  0  0  0  0
   13.9173  -11.7806  -21.3121 C   0  0  1  0  0  0  0  0  0  0  0  0
   12.8373  -12.4720  -20.6615 O   0  0  0  0  0  0  0  0  0  0  0  0
   13.5492  -11.7965  -22.7962 C   0  0  1  0  0  0  0  0  0  0  0  0
   13.7347  -13.1116  -23.3220 O   0  0  0  0  0  0  0  0  0  0  0  0
   12.0587  -11.4863  -22.6829 C   0  0  1  0  0  0  0  0  0  0  0  0
   11.4036  -11.9358  -23.8703 O   0  0  0  0  0  0  0  0  0  0  0  0
   11.6903  -12.4191  -21.5284 C   0  0  2  0  0  0  0  0  0  0  0  0
   17.6514   -6.9314  -16.9781 O   0  0  0  0  0  0  0  0  0  0  0  0
    7.8181  -13.7021  -18.3654 N   0  0  0  0  0  0  0  0  0  0  0  0
    8.8037  -14.4584  -18.8172 C   0  0  0  0  0  0  0  0  0  0  0  0
    9.7318  -13.9818  -19.6284 N   0  0  0  0  0  0  0  0  0  0  0  0
    9.7028  -12.6989  -20.0197 C   0  0  0  0  0  0  0  0  0  0  0  0
    8.6822  -11.8743  -19.5675 C   0  0  0  0  0  0  0  0  0  0  0  0
    7.7229  -12.4139  -18.7187 C   0  0  0  0  0  0  0  0  0  0  0  0
    6.7087  -11.6659  -18.2956 N   0  0  0  0  0  0  0  0  0  0  0  0
    8.8752  -10.6694  -20.0922 N   0  0  0  0  0  0  0  0  0  0  0  0
    9.9714  -10.7299  -20.8448 C   0  0  0  0  0  0  0  0  0  0  0  0
   10.4806  -11.9613  -20.8054 N   0  0  0  0  0  0  0  0  0  0  0  0
  2  1  1  6  0  0  0
  2  5  1  0  0  0  0
  2  3  1  0  0  0  0
  3 17  1  0  0  0  0
  3  4  1  0  0  0  0
  5  6  1  0  0  0  0
  7  8  1  0  0  0  0
  8  6  1  1  0  0  0
  8  9  1  0  0  0  0
 10  9  1  1  0  0  0
 10 11  1  0  0  0  0
 10 12  1  0  0  0  0
 11 16  1  0  0  0  0
 12 13  1  1  0  0  0
 12 14  1  0  0  0  0
 14 15  1  6  0  0  0
 14 16  1  0  0  0  0
 16 27  1  1  0  0  0
 18 23  2  0  0  0  0
 18 19  1  0  0  0  0
 19 20  2  0  0  0  0
 20 21  1  0  0  0  0
 21 22  2  0  0  0  0
 21 27  1  0  0  0  0
 22 23  1  0  0  0  0
 22 25  1  0  0  0  0
 23 24  1  0  0  0  0
 25 26  2  0  0  0  0
 26 27  1  0  0  0  0
M  END
>  <CHROM.1>
-62.25180263,-19.97131207,174.17023696,-152.52140216,-166.78946171,-178.34444789
-80.05962776,13.12310371,-10.28305113,-20.59598532,0.31030251,0.54430391
1.05854822

>  <Name>
ligand

>  <RI>
0

>  <Rbt.Current_Directory>
/home/itssahil/PROJECTS/Mol_Feturizer/New_Systems/rnas/3E5F

>  <Rbt.Executable>
rbdock ($Id: //depot/dev/client3/rdock/2013.1/src/exe/rbdock.cxx#4 $)

>  <Rbt.Library>
libRbt.so (2013.1, Build901 2013/11/27)

>  <Rbt.Parameter_File>
/export/apps/rDock/src/rDock_2013.1_src/data/scripts/dock_solv.prm

>  <Rbt.Receptor>
prm/blind_docking_80.prm

>  <SCORE>
-16.1639

>  <SCORE.INTER>
-17.3038

>  <SCORE.INTER.CONST>
1

>  <SCORE.INTER.POLAR>
0

>  <SCORE.INTER.ROT>
7

>  <SCORE.INTER.SOLV>
8.05134

>  <SCORE.INTER.VDW>
-22.4863

>  <SCORE.INTER.norm>
-0.640882

>  <SCORE.INTRA>
1.13995

>  <SCORE.INTRA.DIHEDRAL>
0.205059

>  <SCORE.INTRA.DIHEDRAL.0>
4.89803

>  <SCORE.INTRA.POLAR>
0

>  <SCORE.INTRA.POLAR.0>
0

>  <SCORE.INTRA.REPUL>
0

>  <SCORE.INTRA.REPUL.0>
0

>  <SCORE.INTRA.SOLV>
0.7364

>  <SCORE.INTRA.SOLV.lig_0>
-48.5832

>  <SCORE.INTRA.VDW>
0.669221

>  <SCORE.INTRA.VDW.0>
-2.39056

>  <SCORE.INTRA.norm>
0.0422204

>  <SCORE.RESTR>
0

>  <SCORE.RESTR.CAVITY>
0

>  <SCORE.RESTR.norm>
0

>  <SCORE.SYSTEM>
0

>  <SCORE.SYSTEM.CONST>
0

>  <SCORE.SYSTEM.DIHEDRAL>
0

>  <SCORE.SYSTEM.SOLV>
0

>  <SCORE.SYSTEM.norm>
0

>  <SCORE.heavy>
27

>  <SCORE.norm>
-0.598661

>  <RMSD>
5.983

$$$$
ligand
 OpenBabel11021811473D
libRbt.so/2013.1/901 2013/11/27
 27 29  0  0  0  0  0  0  0  0999 V2000
   16.9779   -6.8220  -17.1394 N   0  0  0  0  0  0  0  0  0  0  0  0
   16.2978   -6.5186  -18.4071 C   0  0  2  0  0  0  0  0  0  0  0  0
   14.9632   -5.8199  -18.1296 C   0  0  0  0  0  0  0  0  0  0  0  0
   14.2491   -6.3012  -17.2230 O   0  0  0  0  0  0  0  0  0  0  0  0
   16.0356   -7.8285  -19.1522 C   0  0  0  0  0  0  0  0  0  0  0  0
   15.4271   -7.5901  -20.5365 C   0  0  0  0  0  0  0  0  0  0  0  0
   14.5946   -8.5523  -23.0765 C   0  0  0  0  0  0  0  0  0  0  0  0
   15.3287   -9.1752  -21.5021 Se  0  0  2  0  0  0  0  0  0  0  0  0
   13.9243  -10.1720  -20.8020 C   0  0  0  0  0  0  0  0  0  0  0  0
   13.9160  -11.6287  -21.2673 C   0  0  1  0  0  0  0  0  0  0  0  0
   12.8788  -12.3255  -20.5557 O   0  0  0  0  0  0  0  0  0  0  0  0
   13.4572  -11.6361  -22.7260 C   0  0  1  0  0  0  0  0  0  0  0  0
   13.6112  -12.9477  -23.2703 O   0  0  0  0  0  0  0  0  0  0  0  0
   11.9762  -11.3286  -22.5192 C   0  0  1  0  0  0  0  0  0  0  0  0
   11.2496  -11.7718  -23.6667 O   0  0  0  0  0  0  0  0  0  0  0  0
   11.6805  -12.2690  -21.3500 C   0  0  2  0  0  0  0  0  0  0  0  0
   14.6813   -4.8266  -18.8354 O   0  0  0  0  0  0  0  0  0  0  0  0
    7.6336  -13.6624  -18.4647 N   0  0  0  0  0  0  0  0  0  0  0  0
    8.5359  -14.4299  -19.0514 C   0  0  0  0  0  0  0  0  0  0  0  0
    9.5259  -13.9211  -19.7639 N   0  0  0  0  0  0  0  0  0  0  0  0
    9.6478  -12.5933  -19.9120 C   0  0  0  0  0  0  0  0  0  0  0  0
    8.7184  -11.7552  -19.3122 C   0  0  0  0  0  0  0  0  0  0  0  0
    7.6898  -12.3290  -18.5743 C   0  0  0  0  0  0  0  0  0  0  0  0
    6.7585  -11.5610  -18.0172 N   0  0  0  0  0  0  0  0  0  0  0  0
    9.0546  -10.5043  -19.6067 N   0  0  0  0  0  0  0  0  0  0  0  0
   10.1501  -10.5498  -20.3611 C   0  0  0  0  0  0  0  0  0  0  0  0
   10.5173  -11.8173  -20.5510 N   0  0  0  0  0  0  0  0  0  0  0  0
  2  1  1  1  0  0  0
  2  5  1  0  0  0  0
  2  3  1  0  0  0  0
  3 17  1  0  0  0  0
  3  4  1  0  0  0  0
  5  6  1  0  0  0  0
  7  8  1  0  0  0  0
  8  6  1  1  0  0  0
  8  9  1  0  0  0  0
 10  9  1  1  0  0  0
 10 11  1  0  0  0  0
 10 12  1  0  0  0  0
 11 16  1  0  0  0  0
 12 13  1  1  0  0  0
 12 14  1  0  0  0  0
 14 15  1  6  0  0  0
 14 16  1  0  0  0  0
 16 27  1  1  0  0  0
 18 23  2  0  0  0  0
 18 19  1  0  0  0  0
 19 20  2  0  0  0  0
 20 21  1  0  0  0  0
 21 22  2  0  0  0  0
 21 27  1  0  0  0  0
 22 23  1  0  0  0  0
 22 25  1  0  0  0  0
 23 24  1  0  0  0  0
 25 26  2  0  0  0  0
 26 27  1  0  0  0  0
M  END
>  <CHROM.1>
-175.49461567,-44.75592541,172.51488169,-179.32968363,-166.61941238,174.01722495
-92.87550181,12.74649800,-10.16450981,-20.37453875,0.44476830,0.53845985
0.84579335

>  <Name>
ligand

>  <RI>
0

>  <Rbt.Current_Directory>
/home/itssahil/PROJECTS/Mol_Feturizer/New_Systems/rnas/3E5F

>  <Rbt.Executable>
rbdock ($Id: //depot/dev/client3/rdock/2013.1/src/exe/rbdock.cxx#4 $)

>  <Rbt.Library>
libRbt.so (2013.1, Build901 2013/11/27)

>  <Rbt.Parameter_File>
/export/apps/rDock/src/rDock_2013.1_src/data/scripts/dock_solv.prm

>  <Rbt.Receptor>
prm/pocket_docking_7.prm

>  <SCORE>
-16.1469

>  <SCORE.INTER>
-16.125

>  <SCORE.INTER.CONST>
1

>  <SCORE.INTER.POLAR>
0

>  <SCORE.INTER.ROT>
7

>  <SCORE.INTER.SOLV>
6.13998

>  <SCORE.INTER.VDW>
-21.0633

>  <SCORE.INTER.norm>
-0.597223

>  <SCORE.INTRA>
-0.0218653

>  <SCORE.INTRA.DIHEDRAL>
-0.835626

>  <SCORE.INTRA.DIHEDRAL.0>
4.89803

>  <SCORE.INTRA.POLAR>
0

>  <SCORE.INTRA.POLAR.0>
0

>  <SCORE.INTRA.REPUL>
0

>  <SCORE.INTRA.REPUL.0>
0

>  <SCORE.INTRA.SOLV>
-0.0417862

>  <SCORE.INTRA.SOLV.lig_0>
-48.5832

>  <SCORE.INTRA.VDW>
0.416841

>  <SCORE.INTRA.VDW.0>
-2.39056

>  <SCORE.INTRA.norm>
-0.000809826

>  <SCORE.RESTR>
0

>  <SCORE.RESTR.CAVITY>
0

>  <SCORE.RESTR.norm>
0

>  <SCORE.SYSTEM>
0

>  <SCORE.SYSTEM.CONST>
0

>  <SCORE.SYSTEM.DIHEDRAL>
0

>  <SCORE.SYSTEM.SOLV>
0

>  <SCORE.SYSTEM.norm>
0

>  <SCORE.heavy>
27

>  <SCORE.norm>
-0.598033

>  <RMSD>
5.995

$$$$
ligand
 OpenBabel11021811473D
libRbt.so/2013.1/901 2013/11/27
 27 29  0  0  0  0  0  0  0  0999 V2000
   17.4688   -7.5364  -20.6010 N   0  0  0  0  0  0  0  0  0  0  0  0
   16.1348   -7.0102  -20.9257 C   0  0  2  0  0  0  0  0  0  0  0  0
   16.2031   -5.4912  -21.1099 C   0  0  0  0  0  0  0  0  0  0  0  0
   16.8328   -4.8430  -20.2457 O   0  0  0  0  0  0  0  0  0  0  0  0
   15.1823   -7.3360  -19.7740 C   0  0  0  0  0  0  0  0  0  0  0  0
   14.7894   -8.8154  -19.7544 C   0  0  0  0  0  0  0  0  0  0  0  0
   12.0992   -8.4610  -20.5953 C   0  0  0  0  0  0  0  0  0  0  0  0
   13.6726   -9.2263  -21.1821 Se  0  0  2  0  0  0  0  0  0  0  0  0
   13.2706  -11.0383  -21.0763 C   0  0  0  0  0  0  0  0  0  0  0  0
   13.1658  -11.7227  -22.4398 C   0  0  1  0  0  0  0  0  0  0  0  0
   12.3323  -12.8860  -22.2996 O   0  0  0  0  0  0  0  0  0  0  0  0
   12.3756  -10.7881  -23.3565 C   0  0  1  0  0  0  0  0  0  0  0  0
   12.4084  -11.2882  -24.6942 O   0  0  0  0  0  0  0  0  0  0  0  0
   10.9826  -10.9813  -22.7624 C   0  0  1  0  0  0  0  0  0  0  0  0
   10.0096  -10.6134  -23.7418 O   0  0  0  0  0  0  0  0  0  0  0  0
   10.9798  -12.5025  -22.6060 C   0  0  2  0  0  0  0  0  0  0  0  0
   15.6169   -5.0099  -22.1044 O   0  0  0  0  0  0  0  0  0  0  0  0
    8.2284  -11.2037  -18.4362 N   0  0  0  0  0  0  0  0  0  0  0  0
    9.0200  -10.4456  -19.1753 C   0  0  0  0  0  0  0  0  0  0  0  0
    9.6633  -10.9261  -20.2250 N   0  0  0  0  0  0  0  0  0  0  0  0
    9.5276  -12.2132  -20.5782 C   0  0  0  0  0  0  0  0  0  0  0  0
    8.7063  -13.0407  -19.8254 C   0  0  0  0  0  0  0  0  0  0  0  0
    8.0500  -12.4988  -18.7265 C   0  0  0  0  0  0  0  0  0  0  0  0
    7.2855  -13.2688  -17.9586 N   0  0  0  0  0  0  0  0  0  0  0  0
    8.7426  -14.2505  -20.3726 N   0  0  0  0  0  0  0  0  0  0  0  0
    9.5529  -14.1904  -21.4268 C   0  0  0  0  0  0  0  0  0  0  0  0
   10.0341  -12.9541  -21.5585 N   0  0  0  0  0  0  0  0  0  0  0  0
  2  1  1  1  0  0  0
  2  5  1  0  0  0  0
  2  3  1  0  0  0  0
  3 17  1  0  0  0  0
  3  4  1  0  0  0  0
  5  6  1  0  0  0  0
  7  8  1  0  0  0  0
  8  6  1  1  0  0  0
  8  9  1  0  0  0  0
 10  9  1  1  0  0  0
 10 11  1  0  0  0  0
 10 12  1  0  0  0  0
 11 16  1  0  0  0  0
 12 13  1  6  0  0  0
 12 14  1  0  0  0  0
 14 15  1  6  0  0  0
 14 16  1  0  0  0  0
 16 27  1  1  0  0  0
 18 23  2  0  0  0  0
 18 19  1  0  0  0  0
 19 20  2  0  0  0  0
 20 21  1  0  0  0  0
 21 22  2  0  0  0  0
 21 27  1  0  0  0  0
 22 23  1  0  0  0  0
 22 25  1  0  0  0  0
 23 24  1  0  0  0  0
 25 26  2  0  0  0  0
 26 27  1  0  0  0  0
M  END
>  <CHROM.1>
-74.33931888,-46.32149594,-70.32437315,-74.79224288,-143.71769776,-155.80348837
100.07934331,12.27020357,-10.15180980,-21.08806233,0.31940451,0.66659652
0.98561207

>  <Name>
ligand

>  <RI>
0

>  <Rbt.Current_Directory>
/home/itssahil/PROJECTS/Mol_Feturizer/New_Systems/rnas/3E5F

>  <Rbt.Executable>
rbdock ($Id: //depot/dev/client3/rdock/2013.1/src/exe/rbdock.cxx#4 $)

>  <Rbt.Library>
libRbt.so (2013.1, Build901 2013/11/27)

>  <Rbt.Parameter_File>
/export/apps/rDock/src/rDock_2013.1_src/data/scripts/dock_solv.prm

>  <Rbt.Receptor>
prm/blind_docking_80.prm

>  <SCORE>
-9.42078

>  <SCORE.INTER>
-10.648

>  <SCORE.INTER.CONST>
1

>  <SCORE.INTER.POLAR>
0

>  <SCORE.INTER.ROT>
7

>  <SCORE.INTER.SOLV>
12.6059

>  <SCORE.INTER.VDW>
-19.5673

>  <SCORE.INTER.norm>
-0.39437

>  <SCORE.INTRA>
1.22721

>  <SCORE.INTRA.DIHEDRAL>
2.93299

>  <SCORE.INTRA.DIHEDRAL.0>
4.89803

>  <SCORE.INTRA.POLAR>
0

>  <SCORE.INTRA.POLAR.0>
0

>  <SCORE.INTRA.REPUL>
0

>  <SCORE.INTRA.REPUL.0>
0

>  <SCORE.INTRA.SOLV>
0.664575

>  <SCORE.INTRA.SOLV.lig_0>
-48.5832

>  <SCORE.INTRA.VDW>
-0.571567

>  <SCORE.INTRA.VDW.0>
-2.39056

>  <SCORE.INTRA.norm>
0.0454524

>  <SCORE.RESTR>
0

>  <SCORE.RESTR.CAVITY>
0

>  <SCORE.RESTR.norm>
0

>  <SCORE.SYSTEM>
0

>  <SCORE.SYSTEM.CONST>
0

>  <SCORE.SYSTEM.DIHEDRAL>
0

>  <SCORE.SYSTEM.SOLV>
0

>  <SCORE.SYSTEM.norm>
0

>  <SCORE.heavy>
27

>  <SCORE.norm>
-0.348918

>  <RMSD>
6.017

$$$$
ligand
 OpenBabel11021811473D
libRbt.so/2013.1/901 2013/11/27
 27 29  0  0  0  0  0  0  0  0999 V2000
   13.2516  -10.5302  -25.2777 N   0  0  0  0  0  0  0  0  0  0  0  0
   13.2141   -9.5798  -24.1566 C   0  0  2  0  0  0  0  0  0  0  0  0
   14.6077   -8.9869  -23.9277 C   0  0  0  0  0  0  0  0  0  0  0  0
   15.3276   -8.8246  -24.9371 O   0  0  0  0  0  0  0  0  0  0  0  0
   12.7687  -10.3219  -22.8953 C   0  0  0  0  0  0  0  0  0  0  0  0
   13.4390  -11.6923  -22.7684 C   0  0  0  0  0  0  0  0  0  0  0  0
   11.2795  -12.2504  -21.0089 C   0  0  0  0  0  0  0  0  0  0  0  0
   13.1130  -12.4404  -21.0984 Se  0  0  2  0  0  0  0  0  0  0  0  0
   13.6798  -11.2191  -19.8165 C   0  0  0  0  0  0  0  0  0  0  0  0
   12.5330  -10.4773  -19.1285 C   0  0  1  0  0  0  0  0  0  0  0  0
   13.0711   -9.7460  -18.0135 O   0  0  0  0  0  0  0  0  0  0  0  0
   12.0433   -9.4008  -20.0978 C   0  0  1  0  0  0  0  0  0  0  0  0
   10.8516   -8.8017  -19.5866 O   0  0  0  0  0  0  0  0  0  0  0  0
   13.2084   -8.4207  -19.9855 C   0  0  1  0  0  0  0  0  0  0  0  0
   12.7633   -7.1275  -20.3984 O   0  0  0  0  0  0  0  0  0  0  0  0
   13.3970   -8.4203  -18.4679 C   0  0  2  0  0  0  0  0  0  0  0  0
   14.9269   -8.7177  -22.7487 O   0  0  0  0  0  0  0  0  0  0  0  0
   17.9456   -6.5329  -20.0146 N   0  0  0  0  0  0  0  0  0  0  0  0
   16.8504   -6.7410  -20.7251 C   0  0  0  0  0  0  0  0  0  0  0  0
   15.7509   -7.2339  -20.1821 N   0  0  0  0  0  0  0  0  0  0  0  0
   15.7122   -7.5384  -18.8761 C   0  0  0  0  0  0  0  0  0  0  0  0
   16.8432   -7.3353  -18.0979 C   0  0  0  0  0  0  0  0  0  0  0  0
   17.9809   -6.8188  -18.7068 C   0  0  0  0  0  0  0  0  0  0  0  0
   19.0954   -6.6466  -18.0029 N   0  0  0  0  0  0  0  0  0  0  0  0
   16.5519   -7.7114  -16.8577 N   0  0  0  0  0  0  0  0  0  0  0  0
   15.2901   -8.1347  -16.8523 C   0  0  0  0  0  0  0  0  0  0  0  0
   14.7724   -8.0322  -18.0765 N   0  0  0  0  0  0  0  0  0  0  0  0
  2  1  1  6  0  0  0
  2  5  1  0  0  0  0
  2  3  1  0  0  0  0
  3 17  1  0  0  0  0
  3  4  1  0  0  0  0
  5  6  1  0  0  0  0
  7  8  1  0  0  0  0
  8  6  1  6  0  0  0
  8  9  1  0  0  0  0
 10  9  1  6  0  0  0
 10 11  1  0  0  0  0
 10 12  1  0  0  0  0
 11 16  1  0  0  0  0
 12 13  1  1  0  0  0
 12 14  1  0  0  0  0
 14 15  1  1  0  0  0
 14 16  1  0  0  0  0
 16 27  1  6  0  0  0
 18 23  2  0  0  0  0
 18 19  1  0  0  0  0
 19 20  2  0  0  0  0
 20 21  1  0  0  0  0
 21 22  2  0  0  0  0
 21 27  1  0  0  0  0
 22 23  1  0  0  0  0
 22 25  1  0  0  0  0
 23 24  1  0  0  0  0
 25 26  2  0  0  0  0
 26 27  1  0  0  0  0
M  END
>  <CHROM.1>
42.42676090,33.21500433,170.18071371,50.35917272,104.56822871,170.10927628
129.31210219,14.19281433,-9.44019331,-20.54331349,-2.47619433,0.75979338
1.43366020

>  <Name>
ligand

>  <RI>
0

>  <Rbt.Current_Directory>
/home/itssahil/PROJECTS/Mol_Feturizer/New_Systems/rnas/3E5F

>  <Rbt.Executable>
rbdock ($Id: //depot/dev/client3/rdock/2013.1/src/exe/rbdock.cxx#4 $)

>  <Rbt.Library>
libRbt.so (2013.1, Build901 2013/11/27)

>  <Rbt.Parameter_File>
/export/apps/rDock/src/rDock_2013.1_src/data/scripts/dock_solv.prm

>  <Rbt.Receptor>
prm/pocket_docking_2.prm

>  <SCORE>
-0.740176

>  <SCORE.INTER>
-8.83832

>  <SCORE.INTER.CONST>
1

>  <SCORE.INTER.POLAR>
0

>  <SCORE.INTER.ROT>
7

>  <SCORE.INTER.SOLV>
15.2199

>  <SCORE.INTER.VDW>
-19.2322

>  <SCORE.INTER.norm>
-0.327345

>  <SCORE.INTRA>
6.36229

>  <SCORE.INTRA.DIHEDRAL>
2.03946

>  <SCORE.INTRA.DIHEDRAL.0>
4.89803

>  <SCORE.INTRA.POLAR>
0

>  <SCORE.INTRA.POLAR.0>
0

>  <SCORE.INTRA.REPUL>
0

>  <SCORE.INTRA.REPUL.0>
0

>  <SCORE.INTRA.SOLV>
1.39408

>  <SCORE.INTRA.SOLV.lig_0>
-48.5832

>  <SCORE.INTRA.VDW>
4.64552

>  <SCORE.INTRA.VDW.0>
-2.39056

>  <SCORE.INTRA.norm>
0.23564

>  <SCORE.RESTR>
1.73586

>  <SCORE.RESTR.CAVITY>
1.73586

>  <SCORE.RESTR.norm>
0.0642909

>  <SCORE.SYSTEM>
0

>  <SCORE.SYSTEM.CONST>
0

>  <SCORE.SYSTEM.DIHEDRAL>
0

>  <SCORE.SYSTEM.SOLV>
0

>  <SCORE.SYSTEM.norm>
0

>  <SCORE.heavy>
27

>  <SCORE.norm>
-0.0274139

>  <RMSD>
6.020

$$$$
ligand
 OpenBabel11021811473D
libRbt.so/2013.1/901 2013/11/27
 27 29  0  0  0  0  0  0  0  0999 V2000
   16.6940   -4.8765  -20.8502 N   0  0  0  0  0  0  0  0  0  0  0  0
   16.3845   -5.7415  -19.7023 C   0  0  2  0  0  0  0  0  0  0  0  0
   17.4944   -5.6331  -18.6523 C   0  0  0  0  0  0  0  0  0  0  0  0
   18.6666   -5.5296  -19.0751 O   0  0  0  0  0  0  0  0  0  0  0  0
   16.2890   -7.1892  -20.1871 C   0  0  0  0  0  0  0  0  0  0  0  0
   15.1497   -7.3849  -21.1907 C   0  0  0  0  0  0  0  0  0  0  0  0
   14.4075   -8.7643  -23.5606 C   0  0  0  0  0  0  0  0  0  0  0  0
   15.1950   -9.0921  -21.9242 Se  0  0  2  0  0  0  0  0  0  0  0  0
   13.8865  -10.1026  -21.0739 C   0  0  0  0  0  0  0  0  0  0  0  0
   13.9153  -11.5841  -21.4519 C   0  0  1  0  0  0  0  0  0  0  0  0
   12.9189  -12.2694  -20.6740 O   0  0  0  0  0  0  0  0  0  0  0  0
   13.4226  -11.6934  -22.8953 C   0  0  1  0  0  0  0  0  0  0  0  0
   13.6070  -13.0298  -23.3649 O   0  0  0  0  0  0  0  0  0  0  0  0
   11.9376  -11.4211  -22.6693 C   0  0  1  0  0  0  0  0  0  0  0  0
   11.1991  -11.9550  -23.7696 O   0  0  0  0  0  0  0  0  0  0  0  0
   11.7009  -12.2985  -21.4393 C   0  0  2  0  0  0  0  0  0  0  0  0
   17.1486   -5.6655  -17.4508 O   0  0  0  0  0  0  0  0  0  0  0  0
    7.7272  -13.6499  -18.4347 N   0  0  0  0  0  0  0  0  0  0  0  0
    8.6339  -14.4236  -19.0063 C   0  0  0  0  0  0  0  0  0  0  0  0
    9.6028  -13.9254  -19.7546 N   0  0  0  0  0  0  0  0  0  0  0  0
    9.6979  -12.6024  -19.9559 C   0  0  0  0  0  0  0  0  0  0  0  0
    8.7630  -11.7582  -19.3735 C   0  0  0  0  0  0  0  0  0  0  0  0
    7.7571  -12.3209  -18.5967 C   0  0  0  0  0  0  0  0  0  0  0  0
    6.8211  -11.5485  -18.0542 N   0  0  0  0  0  0  0  0  0  0  0  0
    9.0715  -10.5140  -19.7216 N   0  0  0  0  0  0  0  0  0  0  0  0
   10.1553  -10.5695  -20.4920 C   0  0  0  0  0  0  0  0  0  0  0  0
   10.5426  -11.8367  -20.6389 N   0  0  0  0  0  0  0  0  0  0  0  0
  2  1  1  6  0  0  0
  2  5  1  0  0  0  0
  2  3  1  0  0  0  0
  3 17  1  0  0  0  0
  3  4  1  0  0  0  0
  5  6  1  0  0  0  0
  7  8  1  0  0  0  0
  8  6  1  1  0  0  0
  8  9  1  0  0  0  0
 10  9  1  1  0  0  0
 10 11  1  0  0  0  0
 10 12  1  0  0  0  0
 11 16  1  0  0  0  0
 12 13  1  1  0  0  0
 12 14  1  0  0  0  0
 14 15  1  6  0  0  0
 14 16  1  0  0  0  0
 16 27  1  1  0  0  0
 18 23  2  0  0  0  0
 18 19  1  0  0  0  0
 19 20  2  0  0  0  0
 20 21  1  0  0  0  0
 21 22  2  0  0  0  0
 21 27  1  0  0  0  0
 22 23  1  0  0  0  0
 22 25  1  0  0  0  0
 23 24  1  0  0  0  0
 25 26  2  0  0  0  0
 26 27  1  0  0  0  0
M  END
>  <CHROM.1>
-62.80615600,-37.51658494,172.70635186,-152.20872504,-172.95103684,176.49829033
-94.39666195,13.04283827,-10.05176190,-20.76069429,0.35062540,0.58665893
0.92433248

>  <Name>
ligand

>  <RI>
0

>  <Rbt.Current_Directory>
/home/itssahil/PROJECTS/Mol_Feturizer/New_Systems/rnas/3E5F

>  <Rbt.Executable>
rbdock ($Id: //depot/dev/client3/rdock/2013.1/src/exe/rbdock.cxx#4 $)

>  <Rbt.Library>
libRbt.so (2013.1, Build901 2013/11/27)

>  <Rbt.Parameter_File>
/export/apps/rDock/src/rDock_2013.1_src/data/scripts/dock_solv.prm

>  <Rbt.Receptor>
prm/blind_docking_40.prm

>  <SCORE>
-16.6712

>  <SCORE.INTER>
-17.6202

>  <SCORE.INTER.CONST>
1

>  <SCORE.INTER.POLAR>
0

>  <SCORE.INTER.ROT>
7

>  <SCORE.INTER.SOLV>
7.13719

>  <SCORE.INTER.VDW>
-22.3925

>  <SCORE.INTER.norm>
-0.652599

>  <SCORE.INTRA>
0.949002

>  <SCORE.INTRA.DIHEDRAL>
0.0427534

>  <SCORE.INTRA.DIHEDRAL.0>
4.89803

>  <SCORE.INTRA.POLAR>
0

>  <SCORE.INTRA.POLAR.0>
0

>  <SCORE.INTRA.REPUL>
0

>  <SCORE.INTRA.REPUL.0>
0

>  <SCORE.INTRA.SOLV>
0.694555

>  <SCORE.INTRA.SOLV.lig_0>
-48.5832

>  <SCORE.INTRA.VDW>
0.580347

>  <SCORE.INTRA.VDW.0>
-2.39056

>  <SCORE.INTRA.norm>
0.0351482

>  <SCORE.RESTR>
0

>  <SCORE.RESTR.CAVITY>
0

>  <SCORE.RESTR.norm>
0

>  <SCORE.SYSTEM>
0

>  <SCORE.SYSTEM.CONST>
0

>  <SCORE.SYSTEM.DIHEDRAL>
0

>  <SCORE.SYSTEM.SOLV>
0

>  <SCORE.SYSTEM.norm>
0

>  <SCORE.heavy>
27

>  <SCORE.norm>
-0.617451

>  <RMSD>
6.026

$$$$
ligand
 OpenBabel11021811473D
libRbt.so/2013.1/901 2013/11/27
 27 29  0  0  0  0  0  0  0  0999 V2000
   14.2854   -7.8472  -18.8292 N   0  0  0  0  0  0  0  0  0  0  0  0
   15.6026   -8.1393  -19.4137 C   0  0  2  0  0  0  0  0  0  0  0  0
   16.6887   -8.0188  -18.3404 C   0  0  0  0  0  0  0  0  0  0  0  0
   17.8589   -8.2939  -18.6847 O   0  0  0  0  0  0  0  0  0  0  0  0
   15.8820   -7.1304  -20.5291 C   0  0  0  0  0  0  0  0  0  0  0  0
   14.9392   -7.3158  -21.7207 C   0  0  0  0  0  0  0  0  0  0  0  0
   14.2006   -8.8224  -24.0131 C   0  0  0  0  0  0  0  0  0  0  0  0
   15.0388   -9.0489  -22.3847 Se  0  0  2  0  0  0  0  0  0  0  0  0
   13.7938  -10.0756  -21.4616 C   0  0  0  0  0  0  0  0  0  0  0  0
   13.9195  -11.5761  -21.7281 C   0  0  1  0  0  0  0  0  0  0  0  0
   12.9498  -12.2627  -20.9183 O   0  0  0  0  0  0  0  0  0  0  0  0
   13.4649  -11.8206  -23.1675 C   0  0  1  0  0  0  0  0  0  0  0  0
   13.7390  -13.1738  -23.5336 O   0  0  0  0  0  0  0  0  0  0  0  0
   11.9617  -11.6242  -22.9871 C   0  0  1  0  0  0  0  0  0  0  0  0
   11.2800  -12.2813  -24.0569 O   0  0  0  0  0  0  0  0  0  0  0  0
   11.7522  -12.4223  -21.6995 C   0  0  2  0  0  0  0  0  0  0  0  0
   16.3250   -7.6638  -17.1976 O   0  0  0  0  0  0  0  0  0  0  0  0
    8.0424  -13.6952  -18.3437 N   0  0  0  0  0  0  0  0  0  0  0  0
    9.0399  -14.4355  -18.7957 C   0  0  0  0  0  0  0  0  0  0  0  0
    9.9209  -13.9641  -19.6608 N   0  0  0  0  0  0  0  0  0  0  0  0
    9.8297  -12.7029  -20.1089 C   0  0  0  0  0  0  0  0  0  0  0  0
    8.7947  -11.8956  -19.6583 C   0  0  0  0  0  0  0  0  0  0  0  0
    7.8863  -12.4293  -18.7518 C   0  0  0  0  0  0  0  0  0  0  0  0
    6.8595  -11.6996  -18.3270 N   0  0  0  0  0  0  0  0  0  0  0  0
    8.9237  -10.7105  -20.2442 N   0  0  0  0  0  0  0  0  0  0  0  0
    9.9948  -10.7664  -21.0322 C   0  0  0  0  0  0  0  0  0  0  0  0
   10.5516  -11.9753  -20.9550 N   0  0  0  0  0  0  0  0  0  0  0  0
  2  1  1  1  0  0  0
  2  5  1  0  0  0  0
  2  3  1  0  0  0  0
  3 17  1  0  0  0  0
  3  4  1  0  0  0  0
  5  6  1  0  0  0  0
  7  8  1  0  0  0  0
  8  6  1  1  0  0  0
  8  9  1  0  0  0  0
 10  9  1  1  0  0  0
 10 11  1  0  0  0  0
 10 12  1  0  0  0  0
 11 16  1  0  0  0  0
 12 13  1  1  0  0  0
 12 14  1  0  0  0  0
 14 15  1  6  0  0  0
 14 16  1  0  0  0  0
 16 27  1  1  0  0  0
 18 23  2  0  0  0  0
 18 19  1  0  0  0  0
 19 20  2  0  0  0  0
 20 21  1  0  0  0  0
 21 22  2  0  0  0  0
 21 27  1  0  0  0  0
 22 23  1  0  0  0  0
 22 25  1  0  0  0  0
 23 24  1  0  0  0  0
 25 26  2  0  0  0  0
 26 27  1  0  0  0  0
M  END
>  <CHROM.1>
-67.25609297,177.19676065,-56.39322953,-165.21239305,-170.18649050,177.46757187
-86.02013554,12.84690452,-10.51109712,-20.90856508,0.09396992,0.58097544
1.22073994

>  <Name>
ligand

>  <RI>
0

>  <Rbt.Current_Directory>
/home/itssahil/PROJECTS/Mol_Feturizer/New_Systems/rnas/3E5F

>  <Rbt.Executable>
rbdock ($Id: //depot/dev/client3/rdock/2013.1/src/exe/rbdock.cxx#4 $)

>  <Rbt.Library>
libRbt.so (2013.1, Build901 2013/11/27)

>  <Rbt.Parameter_File>
/export/apps/rDock/src/rDock_2013.1_src/data/scripts/dock_solv.prm

>  <Rbt.Receptor>
prm/pocket_docking_8.prm

>  <SCORE>
-15.9458

>  <SCORE.INTER>
-16.893

>  <SCORE.INTER.CONST>
1

>  <SCORE.INTER.POLAR>
0

>  <SCORE.INTER.ROT>
7

>  <SCORE.INTER.SOLV>
8.64274

>  <SCORE.INTER.VDW>
-22.4095

>  <SCORE.INTER.norm>
-0.625665

>  <SCORE.INTRA>
0.947189

>  <SCORE.INTRA.DIHEDRAL>
-0.551522

>  <SCORE.INTRA.DIHEDRAL.0>
4.89803

>  <SCORE.INTRA.POLAR>
0

>  <SCORE.INTRA.POLAR.0>
0

>  <SCORE.INTRA.REPUL>
0

>  <SCORE.INTRA.REPUL.0>
0

>  <SCORE.INTRA.SOLV>
1.72056

>  <SCORE.INTRA.SOLV.lig_0>
-48.5832

>  <SCORE.INTRA.VDW>
0.36267

>  <SCORE.INTRA.VDW.0>
-2.39056

>  <SCORE.INTRA.norm>
0.0350811

>  <SCORE.RESTR>
0

>  <SCORE.RESTR.CAVITY>
0

>  <SCORE.RESTR.norm>
0

>  <SCORE.SYSTEM>
0

>  <SCORE.SYSTEM.CONST>
0

>  <SCORE.SYSTEM.DIHEDRAL>
0

>  <SCORE.SYSTEM.SOLV>
0

>  <SCORE.SYSTEM.norm>
0

>  <SCORE.heavy>
27

>  <SCORE.norm>
-0.590584

>  <RMSD>
6.031

$$$$
ligand
 OpenBabel11021811473D
libRbt.so/2013.1/901 2013/11/27
 27 29  0  0  0  0  0  0  0  0999 V2000
   11.6153  -12.0741  -24.4255 N   0  0  0  0  0  0  0  0  0  0  0  0
   11.3915  -12.6923  -23.1104 C   0  0  2  0  0  0  0  0  0  0  0  0
    9.9141  -13.0646  -22.9529 C   0  0  0  0  0  0  0  0  0  0  0  0
    9.6201  -13.8317  -22.0101 O   0  0  0  0  0  0  0  0  0  0  0  0
   11.7773  -11.6894  -22.0217 C   0  0  0  0  0  0  0  0  0  0  0  0
   11.8946  -12.3514  -20.6464 C   0  0  0  0  0  0  0  0  0  0  0  0
   10.8846  -10.0554  -19.3127 C   0  0  0  0  0  0  0  0  0  0  0  0
   12.3955  -11.1142  -19.3529 Se  0  0  2  0  0  0  0  0  0  0  0  0
   13.6374   -9.9667  -20.1255 C   0  0  0  0  0  0  0  0  0  0  0  0
   14.1783   -8.9108  -19.1607 C   0  0  1  0  0  0  0  0  0  0  0  0
   15.2610   -8.2193  -19.8066 O   0  0  0  0  0  0  0  0  0  0  0  0
   13.0887   -7.8514  -18.9906 C   0  0  1  0  0  0  0  0  0  0  0  0
   13.4630   -6.9405  -17.9559 O   0  0  0  0  0  0  0  0  0  0  0  0
   13.1968   -7.1673  -20.3510 C   0  0  1  0  0  0  0  0  0  0  0  0
   12.6446   -5.8535  -20.2506 O   0  0  0  0  0  0  0  0  0  0  0  0
   14.7181   -7.0598  -20.4632 C   0  0  2  0  0  0  0  0  0  0  0  0
    9.1123  -12.5826  -23.7831 O   0  0  0  0  0  0  0  0  0  0  0  0
   14.5900   -9.1724  -25.1712 N   0  0  0  0  0  0  0  0  0  0  0  0
   13.9909   -9.5780  -24.0649 C   0  0  0  0  0  0  0  0  0  0  0  0
   14.1188   -8.9240  -22.9235 N   0  0  0  0  0  0  0  0  0  0  0  0
   14.8674   -7.8128  -22.8539 C   0  0  0  0  0  0  0  0  0  0  0  0
   15.5133   -7.3570  -23.9945 C   0  0  0  0  0  0  0  0  0  0  0  0
   15.3571   -8.0747  -25.1745 C   0  0  0  0  0  0  0  0  0  0  0  0
   15.9910   -7.6913  -26.2783 N   0  0  0  0  0  0  0  0  0  0  0  0
   16.1819   -6.2570  -23.6666 N   0  0  0  0  0  0  0  0  0  0  0  0
   15.9678   -6.0275  -22.3732 C   0  0  0  0  0  0  0  0  0  0  0  0
   15.1688   -6.9696  -21.8719 N   0  0  0  0  0  0  0  0  0  0  0  0
  2  1  1  6  0  0  0
  2  5  1  0  0  0  0
  2  3  1  0  0  0  0
  3 17  1  0  0  0  0
  3  4  1  0  0  0  0
  5  6  1  0  0  0  0
  7  8  1  0  0  0  0
  8  6  1  6  0  0  0
  8  9  1  0  0  0  0
 10  9  1  6  0  0  0
 10 11  1  0  0  0  0
 10 12  1  0  0  0  0
 11 16  1  0  0  0  0
 12 13  1  1  0  0  0
 12 14  1  0  0  0  0
 14 15  1  1  0  0  0
 14 16  1  0  0  0  0
 16 27  1  6  0  0  0
 18 23  2  0  0  0  0
 18 19  1  0  0  0  0
 19 20  2  0  0  0  0
 20 21  1  0  0  0  0
 21 22  2  0  0  0  0
 21 27  1  0  0  0  0
 22 23  1  0  0  0  0
 22 25  1  0  0  0  0
 23 24  1  0  0  0  0
 25 26  2  0  0  0  0
 26 27  1  0  0  0  0
M  END
>  <CHROM.1>
-166.37590810,166.13196743,178.92280663,67.31256712,-178.22722992,171.61643356
65.70385118,13.15010939,-9.54186386,-21.51796051,-3.10116252,0.89778590,1.30321427

>  <Name>
ligand

>  <RI>
0

>  <Rbt.Current_Directory>
/home/itssahil/PROJECTS/Mol_Feturizer/New_Systems/rnas/3E5F

>  <Rbt.Executable>
rbdock ($Id: //depot/dev/client3/rdock/2013.1/src/exe/rbdock.cxx#4 $)

>  <Rbt.Library>
libRbt.so (2013.1, Build901 2013/11/27)

>  <Rbt.Parameter_File>
/export/apps/rDock/src/rDock_2013.1_src/data/scripts/dock_solv.prm

>  <Rbt.Receptor>
prm/blind_docking_40.prm

>  <SCORE>
-11.6217

>  <SCORE.INTER>
-11.8469

>  <SCORE.INTER.CONST>
1

>  <SCORE.INTER.POLAR>
0

>  <SCORE.INTER.ROT>
7

>  <SCORE.INTER.SOLV>
23.0271

>  <SCORE.INTER.VDW>
-23.8403

>  <SCORE.INTER.norm>
-0.438776

>  <SCORE.INTRA>
0.195732

>  <SCORE.INTRA.DIHEDRAL>
-0.565556

>  <SCORE.INTRA.DIHEDRAL.0>
4.89803

>  <SCORE.INTRA.POLAR>
0

>  <SCORE.INTRA.POLAR.0>
0

>  <SCORE.INTRA.REPUL>
0

>  <SCORE.INTRA.REPUL.0>
0

>  <SCORE.INTRA.SOLV>
0.357303

>  <SCORE.INTRA.SOLV.lig_0>
-48.5832

>  <SCORE.INTRA.VDW>
0.299858

>  <SCORE.INTRA.VDW.0>
-2.39056

>  <SCORE.INTRA.norm>
0.00724932

>  <SCORE.RESTR>
0.0294906

>  <SCORE.RESTR.CAVITY>
0.0294906

>  <SCORE.RESTR.norm>
0.00109225

>  <SCORE.SYSTEM>
0

>  <SCORE.SYSTEM.CONST>
0

>  <SCORE.SYSTEM.DIHEDRAL>
0

>  <SCORE.SYSTEM.SOLV>
0

>  <SCORE.SYSTEM.norm>
0

>  <SCORE.heavy>
27

>  <SCORE.norm>
-0.430434

>  <RMSD>
6.041

$$$$
ligand
 OpenBabel11021811473D
libRbt.so/2013.1/901 2013/11/27
 27 29  0  0  0  0  0  0  0  0999 V2000
   15.1143   -6.2353  -17.5475 N   0  0  0  0  0  0  0  0  0  0  0  0
   16.4477   -6.7100  -17.9456 C   0  0  2  0  0  0  0  0  0  0  0  0
   17.1648   -5.6297  -18.7611 C   0  0  0  0  0  0  0  0  0  0  0  0
   16.4461   -4.8419  -19.4142 O   0  0  0  0  0  0  0  0  0  0  0  0
   16.2883   -7.9664  -18.8035 C   0  0  0  0  0  0  0  0  0  0  0  0
   15.4060   -7.7168  -20.0293 C   0  0  0  0  0  0  0  0  0  0  0  0
   14.5298   -8.5266  -22.6075 C   0  0  0  0  0  0  0  0  0  0  0  0
   15.2834   -9.2430  -21.0829 Se  0  0  2  0  0  0  0  0  0  0  0  0
   13.8835  -10.2711  -20.4200 C   0  0  0  0  0  0  0  0  0  0  0  0
   13.8890  -11.7133  -20.9284 C   0  0  1  0  0  0  0  0  0  0  0  0
   12.7882  -12.4116  -20.3216 O   0  0  0  0  0  0  0  0  0  0  0  0
   13.5465  -11.6702  -22.4181 C   0  0  1  0  0  0  0  0  0  0  0  0
   13.7224  -12.9681  -22.9881 O   0  0  0  0  0  0  0  0  0  0  0  0
   12.0589  -11.3423  -22.3187 C   0  0  1  0  0  0  0  0  0  0  0  0
   11.4181  -11.7389  -23.5325 O   0  0  0  0  0  0  0  0  0  0  0  0
   11.6573  -12.3105  -21.2052 C   0  0  2  0  0  0  0  0  0  0  0  0
   18.4148   -5.6204  -18.7218 O   0  0  0  0  0  0  0  0  0  0  0  0
    7.5426  -13.6978  -18.4142 N   0  0  0  0  0  0  0  0  0  0  0  0
    8.5006  -14.4603  -18.9127 C   0  0  0  0  0  0  0  0  0  0  0  0
    9.5007  -13.9538  -19.6126 N   0  0  0  0  0  0  0  0  0  0  0  0
    9.5761  -12.6334  -19.8381 C   0  0  0  0  0  0  0  0  0  0  0  0
    8.5877  -11.8010  -19.3321 C   0  0  0  0  0  0  0  0  0  0  0  0
    7.5504  -12.3722  -18.6044 C   0  0  0  0  0  0  0  0  0  0  0  0
    6.5649  -11.6124  -18.1368 N   0  0  0  0  0  0  0  0  0  0  0  0
    8.8866  -10.5570  -19.6895 N   0  0  0  0  0  0  0  0  0  0  0  0
   10.0162  -10.6014  -20.3920 C   0  0  0  0  0  0  0  0  0  0  0  0
   10.4419  -11.8613  -20.4865 N   0  0  0  0  0  0  0  0  0  0  0  0
  2  1  1  6  0  0  0
  2  5  1  0  0  0  0
  2  3  1  0  0  0  0
  3 17  1  0  0  0  0
  3  4  1  0  0  0  0
  5  6  1  0  0  0  0
  7  8  1  0  0  0  0
  8  6  1  1  0  0  0
  8  9  1  0  0  0  0
 10  9  1  1  0  0  0
 10 11  1  0  0  0  0
 10 12  1  0  0  0  0
 11 16  1  0  0  0  0
 12 13  1  1  0  0  0
 12 14  1  0  0  0  0
 14 15  1  6  0  0  0
 14 16  1  0  0  0  0
 16 27  1  1  0  0  0
 18 23  2  0  0  0  0
 18 19  1  0  0  0  0
 19 20  2  0  0  0  0
 20 21  1  0  0  0  0
 21 22  2  0  0  0  0
 21 27  1  0  0  0  0
 22 23  1  0  0  0  0
 22 25  1  0  0  0  0
 23 24  1  0  0  0  0
 25 26  2  0  0  0  0
 26 27  1  0  0  0  0
M  END
>  <CHROM.1>
56.87085378,-28.29995508,177.90430824,-167.43490172,-164.49978840,178.46415409
-86.36547126,12.94325509,-10.16547268,-20.27668996,0.43493080,0.50369777
0.82852677

>  <Name>
ligand

>  <RI>
0

>  <Rbt.Current_Directory>
/home/itssahil/PROJECTS/Mol_Feturizer/New_Systems/rnas/3E5F

>  <Rbt.Executable>
rbdock ($Id: //depot/dev/client3/rdock/2013.1/src/exe/rbdock.cxx#4 $)

>  <Rbt.Library>
libRbt.so (2013.1, Build901 2013/11/27)

>  <Rbt.Parameter_File>
/export/apps/rDock/src/rDock_2013.1_src/data/scripts/dock_solv.prm

>  <Rbt.Receptor>
prm/blind_docking_40.prm

>  <SCORE>
-17.2078

>  <SCORE.INTER>
-18.1113

>  <SCORE.INTER.CONST>
1

>  <SCORE.INTER.POLAR>
0

>  <SCORE.INTER.ROT>
7

>  <SCORE.INTER.SOLV>
6.90167

>  <SCORE.INTER.VDW>
-22.6415

>  <SCORE.INTER.norm>
-0.670791

>  <SCORE.INTRA>
0.903508

>  <SCORE.INTRA.DIHEDRAL>
-0.615444

>  <SCORE.INTRA.DIHEDRAL.0>
4.89803

>  <SCORE.INTRA.POLAR>
0

>  <SCORE.INTRA.POLAR.0>
0

>  <SCORE.INTRA.REPUL>
0

>  <SCORE.INTRA.REPUL.0>
0

>  <SCORE.INTRA.SOLV>
0.726064

>  <SCORE.INTRA.SOLV.lig_0>
-48.5832

>  <SCORE.INTRA.VDW>
0.848199

>  <SCORE.INTRA.VDW.0>
-2.39056

>  <SCORE.INTRA.norm>
0.0334633

>  <SCORE.RESTR>
0

>  <SCORE.RESTR.CAVITY>
0

>  <SCORE.RESTR.norm>
0

>  <SCORE.SYSTEM>
0

>  <SCORE.SYSTEM.CONST>
0

>  <SCORE.SYSTEM.DIHEDRAL>
0

>  <SCORE.SYSTEM.SOLV>
0

>  <SCORE.SYSTEM.norm>
0

>  <SCORE.heavy>
27

>  <SCORE.norm>
-0.637327

>  <RMSD>
6.046

$$$$
ligand
 OpenBabel11021811473D
libRbt.so/2013.1/901 2013/11/27
 27 29  0  0  0  0  0  0  0  0999 V2000
   17.8172   -6.6578  -21.2986 N   0  0  0  0  0  0  0  0  0  0  0  0
   16.8592   -7.0300  -20.2471 C   0  0  2  0  0  0  0  0  0  0  0  0
   17.4779   -8.0868  -19.3270 C   0  0  0  0  0  0  0  0  0  0  0  0
   18.2993   -8.8763  -19.8424 O   0  0  0  0  0  0  0  0  0  0  0  0
   15.6043   -7.6068  -20.9047 C   0  0  0  0  0  0  0  0  0  0  0  0
   14.4746   -7.8239  -19.8947 C   0  0  0  0  0  0  0  0  0  0  0  0
   11.7092   -7.1748  -19.8559 C   0  0  0  0  0  0  0  0  0  0  0  0
   12.8894   -8.2718  -20.7555 Se  0  0  2  0  0  0  0  0  0  0  0  0
   12.3768   -9.9524  -20.1478 C   0  0  0  0  0  0  0  0  0  0  0  0
   12.9431  -11.1033  -20.9805 C   0  0  1  0  0  0  0  0  0  0  0  0
   12.4112  -12.3372  -20.4685 O   0  0  0  0  0  0  0  0  0  0  0  0
   12.3522  -10.9800  -22.3854 C   0  0  1  0  0  0  0  0  0  0  0  0
   12.9902  -11.9142  -23.2575 O   0  0  0  0  0  0  0  0  0  0  0  0
   10.9242  -11.4330  -22.0919 C   0  0  1  0  0  0  0  0  0  0  0  0
   10.3232  -11.8782  -23.3092 O   0  0  0  0  0  0  0  0  0  0  0  0
   11.2172  -12.6470  -21.2092 C   0  0  2  0  0  0  0  0  0  0  0  0
   17.1099   -8.0889  -18.1317 O   0  0  0  0  0  0  0  0  0  0  0  0
    7.2980  -10.8169  -18.3923 N   0  0  0  0  0  0  0  0  0  0  0  0
    8.1617  -10.1520  -19.1402 C   0  0  0  0  0  0  0  0  0  0  0  0
    9.1201  -10.7668  -19.8113 N   0  0  0  0  0  0  0  0  0  0  0  0
    9.2442  -12.1015  -19.7552 C   0  0  0  0  0  0  0  0  0  0  0  0
    8.3569  -12.8336  -18.9789 C   0  0  0  0  0  0  0  0  0  0  0  0
    7.3653  -12.1500  -18.2852 C   0  0  0  0  0  0  0  0  0  0  0  0
    6.5210  -12.8127  -17.5008 N   0  0  0  0  0  0  0  0  0  0  0  0
    8.6885  -14.1152  -19.0882 N   0  0  0  0  0  0  0  0  0  0  0  0
    9.7413  -14.1900  -19.8991 C   0  0  0  0  0  0  0  0  0  0  0  0
   10.0850  -12.9689  -20.3092 N   0  0  0  0  0  0  0  0  0  0  0  0
  2  1  1  6  0  0  0
  2  5  1  0  0  0  0
  2  3  1  0  0  0  0
  3 17  1  0  0  0  0
  3  4  1  0  0  0  0
  5  6  1  0  0  0  0
  7  8  1  0  0  0  0
  8  6  1  1  0  0  0
  8  9  1  0  0  0  0
 10  9  1  1  0  0  0
 10 11  1  0  0  0  0
 10 12  1  0  0  0  0
 11 16  1  0  0  0  0
 12 13  1  6  0  0  0
 12 14  1  0  0  0  0
 14 15  1  6  0  0  0
 14 16  1  0  0  0  0
 16 27  1  1  0  0  0
 18 23  2  0  0  0  0
 18 19  1  0  0  0  0
 19 20  2  0  0  0  0
 20 21  1  0  0  0  0
 21 22  2  0  0  0  0
 21 27  1  0  0  0  0
 22 23  1  0  0  0  0
 22 25  1  0  0  0  0
 23 24  1  0  0  0  0
 25 26  2  0  0  0  0
 26 27  1  0  0  0  0
M  END
>  <CHROM.1>
-171.39465765,-31.09552600,171.20797354,-134.66481135,-89.79999809,-176.36981612
86.23089168,12.17345383,-10.17302924,-20.30893547,-0.36268518,-0.42366992
-2.47675810

>  <Name>
ligand

>  <RI>
0

>  <Rbt.Current_Directory>
/home/itssahil/PROJECTS/Mol_Feturizer/New_Systems/rnas/3E5F

>  <Rbt.Executable>
rbdock ($Id: //depot/dev/client3/rdock/2013.1/src/exe/rbdock.cxx#4 $)

>  <Rbt.Library>
libRbt.so (2013.1, Build901 2013/11/27)

>  <Rbt.Parameter_File>
/export/apps/rDock/src/rDock_2013.1_src/data/scripts/dock_solv.prm

>  <Rbt.Receptor>
prm/pocket_docking_6.prm

>  <SCORE>
-12.5312

>  <SCORE.INTER>
-12.9964

>  <SCORE.INTER.CONST>
1

>  <SCORE.INTER.POLAR>
0

>  <SCORE.INTER.ROT>
7

>  <SCORE.INTER.SOLV>
9.9656

>  <SCORE.INTER.VDW>
-20.2528

>  <SCORE.INTER.norm>
-0.481349

>  <SCORE.INTRA>
0.465179

>  <SCORE.INTRA.DIHEDRAL>
1.45852

>  <SCORE.INTRA.DIHEDRAL.0>
4.89803

>  <SCORE.INTRA.POLAR>
0

>  <SCORE.INTRA.POLAR.0>
0

>  <SCORE.INTRA.REPUL>
0

>  <SCORE.INTRA.REPUL.0>
0

>  <SCORE.INTRA.SOLV>
-0.0373301

>  <SCORE.INTRA.SOLV.lig_0>
-48.5832

>  <SCORE.INTRA.VDW>
-0.245415

>  <SCORE.INTRA.VDW.0>
-2.39056

>  <SCORE.INTRA.norm>
0.0172289

>  <SCORE.RESTR>
0

>  <SCORE.RESTR.CAVITY>
0

>  <SCORE.RESTR.norm>
0

>  <SCORE.SYSTEM>
0

>  <SCORE.SYSTEM.CONST>
0

>  <SCORE.SYSTEM.DIHEDRAL>
0

>  <SCORE.SYSTEM.SOLV>
0

>  <SCORE.SYSTEM.norm>
0

>  <SCORE.heavy>
27

>  <SCORE.norm>
-0.46412

>  <RMSD>
6.048

$$$$
ligand
 OpenBabel11021811473D
libRbt.so/2013.1/901 2013/11/27
 27 29  0  0  0  0  0  0  0  0999 V2000
    7.6169  -10.9013  -17.1390 N   0  0  0  0  0  0  0  0  0  0  0  0
    7.3155  -10.4869  -18.5171 C   0  0  2  0  0  0  0  0  0  0  0  0
    5.8722  -10.8588  -18.8705 C   0  0  0  0  0  0  0  0  0  0  0  0
    5.1439   -9.9447  -19.3151 O   0  0  0  0  0  0  0  0  0  0  0  0
    8.2697  -11.2096  -19.4695 C   0  0  0  0  0  0  0  0  0  0  0  0
    9.7275  -10.8028  -19.2400 C   0  0  0  0  0  0  0  0  0  0  0  0
   12.4654  -11.4598  -19.6180 C   0  0  0  0  0  0  0  0  0  0  0  0
   10.8460  -11.6008  -20.4917 Se  0  0  2  0  0  0  0  0  0  0  0  0
   11.0692  -10.3981  -21.8917 C   0  0  0  0  0  0  0  0  0  0  0  0
   11.0364  -11.0537  -23.2730 C   0  0  1  0  0  0  0  0  0  0  0  0
   11.7461  -10.2068  -24.1931 O   0  0  0  0  0  0  0  0  0  0  0  0
   11.8784  -12.3275  -23.1904 C   0  0  1  0  0  0  0  0  0  0  0  0
   11.7296  -13.0794  -24.3957 O   0  0  0  0  0  0  0  0  0  0  0  0
   13.2689  -11.6997  -23.1364 C   0  0  1  0  0  0  0  0  0  0  0  0
   14.2288  -12.6707  -23.5567 O   0  0  0  0  0  0  0  0  0  0  0  0
   13.1161  -10.6448  -24.2330 C   0  0  2  0  0  0  0  0  0  0  0  0
    5.5254  -12.0452  -18.6799 O   0  0  0  0  0  0  0  0  0  0  0  0
   15.8383   -7.7916  -20.9023 N   0  0  0  0  0  0  0  0  0  0  0  0
   15.0500   -8.8241  -20.6572 C   0  0  0  0  0  0  0  0  0  0  0  0
   14.4144   -9.4606  -21.6254 N   0  0  0  0  0  0  0  0  0  0  0  0
   14.5548   -9.0748  -22.9027 C   0  0  0  0  0  0  0  0  0  0  0  0
   15.3728   -7.9936  -23.1991 C   0  0  0  0  0  0  0  0  0  0  0  0
   16.0210   -7.3482  -22.1527 C   0  0  0  0  0  0  0  0  0  0  0  0
   16.7821   -6.2850  -22.3927 N   0  0  0  0  0  0  0  0  0  0  0  0
   15.3423   -7.8141  -24.5149 N   0  0  0  0  0  0  0  0  0  0  0  0
   14.5386   -8.7424  -25.0284 C   0  0  0  0  0  0  0  0  0  0  0  0
   14.0559   -9.5134  -24.0538 N   0  0  0  0  0  0  0  0  0  0  0  0
  2  1  1  1  0  0  0
  2  5  1  0  0  0  0
  2  3  1  0  0  0  0
  3 17  1  0  0  0  0
  3  4  1  0  0  0  0
  5  6  1  0  0  0  0
  7  8  1  0  0  0  0
  8  6  1  1  0  0  0
  8  9  1  0  0  0  0
 10  9  1  1  0  0  0
 10 11  1  0  0  0  0
 10 12  1  0  0  0  0
 11 16  1  0  0  0  0
 12 13  1  6  0  0  0
 12 14  1  0  0  0  0
 14 15  1  6  0  0  0
 14 16  1  0  0  0  0
 16 27  1  1  0  0  0
 18 23  2  0  0  0  0
 18 19  1  0  0  0  0
 19 20  2  0  0  0  0
 20 21  1  0  0  0  0
 21 22  2  0  0  0  0
 21 27  1  0  0  0  0
 22 23  1  0  0  0  0
 22 25  1  0  0  0  0
 23 24  1  0  0  0  0
 25 26  2  0  0  0  0
 26 27  1  0  0  0  0
M  END
>  <CHROM.1>
-64.20187531,126.98530392,-175.82652802,-160.02224281,-138.92568512,-156.24738298
91.07185398,11.70347805,-10.43193481,-21.52599703,-2.96111015,-0.52763137
-2.27590592

>  <Name>
ligand

>  <RI>
0

>  <Rbt.Current_Directory>
/home/itssahil/PROJECTS/Mol_Feturizer/New_Systems/rnas/3E5F

>  <Rbt.Executable>
rbdock ($Id: //depot/dev/client3/rdock/2013.1/src/exe/rbdock.cxx#4 $)

>  <Rbt.Library>
libRbt.so (2013.1, Build901 2013/11/27)

>  <Rbt.Parameter_File>
/export/apps/rDock/src/rDock_2013.1_src/data/scripts/dock_solv.prm

>  <Rbt.Receptor>
prm/blind_docking_40.prm

>  <SCORE>
-18.5507

>  <SCORE.INTER>
-19.6663

>  <SCORE.INTER.CONST>
1

>  <SCORE.INTER.POLAR>
0

>  <SCORE.INTER.ROT>
7

>  <SCORE.INTER.SOLV>
14.1545

>  <SCORE.INTER.VDW>
-26.0957

>  <SCORE.INTER.norm>
-0.728382

>  <SCORE.INTRA>
1.11565

>  <SCORE.INTRA.DIHEDRAL>
2.88624

>  <SCORE.INTRA.DIHEDRAL.0>
4.89803

>  <SCORE.INTRA.POLAR>
0

>  <SCORE.INTRA.POLAR.0>
0

>  <SCORE.INTRA.REPUL>
0

>  <SCORE.INTRA.REPUL.0>
0

>  <SCORE.INTRA.SOLV>
0.680133

>  <SCORE.INTRA.SOLV.lig_0>
-48.5832

>  <SCORE.INTRA.VDW>
-0.667538

>  <SCORE.INTRA.VDW.0>
-2.39056

>  <SCORE.INTRA.norm>
0.0413203

>  <SCORE.RESTR>
0

>  <SCORE.RESTR.CAVITY>
0

>  <SCORE.RESTR.norm>
0

>  <SCORE.SYSTEM>
0

>  <SCORE.SYSTEM.CONST>
0

>  <SCORE.SYSTEM.DIHEDRAL>
0

>  <SCORE.SYSTEM.SOLV>
0

>  <SCORE.SYSTEM.norm>
0

>  <SCORE.heavy>
27

>  <SCORE.norm>
-0.687062

>  <RMSD>
6.049

$$$$
ligand
 OpenBabel11021811473D
libRbt.so/2013.1/901 2013/11/27
 27 29  0  0  0  0  0  0  0  0999 V2000
   17.9321   -4.9282  -21.0763 N   0  0  0  0  0  0  0  0  0  0  0  0
   16.7444   -5.2020  -21.8986 C   0  0  2  0  0  0  0  0  0  0  0  0
   15.5236   -4.4919  -21.3057 C   0  0  0  0  0  0  0  0  0  0  0  0
   14.8505   -3.7786  -22.0814 O   0  0  0  0  0  0  0  0  0  0  0  0
   16.4920   -6.7107  -21.9137 C   0  0  0  0  0  0  0  0  0  0  0  0
   15.4087   -7.1017  -22.9222 C   0  0  0  0  0  0  0  0  0  0  0  0
   14.2443   -9.0863  -24.5882 C   0  0  0  0  0  0  0  0  0  0  0  0
   15.2538   -8.9495  -23.0495 Se  0  0  2  0  0  0  0  0  0  0  0  0
   14.0398   -9.5010  -21.7540 C   0  0  0  0  0  0  0  0  0  0  0  0
   13.7501  -11.0022  -21.7862 C   0  0  1  0  0  0  0  0  0  0  0  0
   13.1535  -11.3753  -20.5322 O   0  0  0  0  0  0  0  0  0  0  0  0
   12.6485  -11.2293  -22.8222 C   0  0  1  0  0  0  0  0  0  0  0  0
   12.4692  -12.6308  -23.0319 O   0  0  0  0  0  0  0  0  0  0  0  0
   11.4617  -10.6627  -22.0468 C   0  0  1  0  0  0  0  0  0  0  0  0
   10.2566  -11.2083  -22.5865 O   0  0  0  0  0  0  0  0  0  0  0  0
   11.7245  -11.2944  -20.6792 C   0  0  2  0  0  0  0  0  0  0  0  0
   15.2951   -4.6695  -20.0889 O   0  0  0  0  0  0  0  0  0  0  0  0
    7.3462   -9.8487  -18.3586 N   0  0  0  0  0  0  0  0  0  0  0  0
    7.5061  -10.6341  -19.4099 C   0  0  0  0  0  0  0  0  0  0  0  0
    8.7035  -10.9165  -19.8927 N   0  0  0  0  0  0  0  0  0  0  0  0
    9.8066  -10.4106  -19.3206 C   0  0  0  0  0  0  0  0  0  0  0  0
    9.6786   -9.5804  -18.2159 C   0  0  0  0  0  0  0  0  0  0  0  0
    8.4021   -9.3043  -17.7406 C   0  0  0  0  0  0  0  0  0  0  0  0
    8.2368   -8.4827  -16.7086 N   0  0  0  0  0  0  0  0  0  0  0  0
   10.8999   -9.2152  -17.8426 N   0  0  0  0  0  0  0  0  0  0  0  0
   11.7635   -9.7900  -18.6765 C   0  0  0  0  0  0  0  0  0  0  0  0
   11.1060  -10.5191  -19.5783 N   0  0  0  0  0  0  0  0  0  0  0  0
  2  1  1  1  0  0  0
  2  5  1  0  0  0  0
  2  3  1  0  0  0  0
  3 17  1  0  0  0  0
  3  4  1  0  0  0  0
  5  6  1  0  0  0  0
  7  8  1  0  0  0  0
  8  6  1  1  0  0  0
  8  9  1  0  0  0  0
 10  9  1  1  0  0  0
 10 11  1  0  0  0  0
 10 12  1  0  0  0  0
 11 16  1  0  0  0  0
 12 13  1  1  0  0  0
 12 14  1  0  0  0  0
 14 15  1  6  0  0  0
 14 16  1  0  0  0  0
 16 27  1  1  0  0  0
 18 23  2  0  0  0  0
 18 19  1  0  0  0  0
 19 20  2  0  0  0  0
 20 21  1  0  0  0  0
 21 22  2  0  0  0  0
 21 27  1  0  0  0  0
 22 23  1  0  0  0  0
 22 25  1  0  0  0  0
 23 24  1  0  0  0  0
 25 26  2  0  0  0  0
 26 27  1  0  0  0  0
M  END
>  <CHROM.1>
-171.01002409,128.43873995,173.88934606,-166.10982942,176.89542778,162.50717332
-170.32817405,12.88741706,-8.96030808,-21.14314194,0.16056978,0.61668715
0.59375760

>  <Name>
ligand

>  <RI>
0

>  <Rbt.Current_Directory>
/home/itssahil/PROJECTS/Mol_Feturizer/New_Systems/rnas/3E5F

>  <Rbt.Executable>
rbdock ($Id: //depot/dev/client3/rdock/2013.1/src/exe/rbdock.cxx#4 $)

>  <Rbt.Library>
libRbt.so (2013.1, Build901 2013/11/27)

>  <Rbt.Parameter_File>
/export/apps/rDock/src/rDock_2013.1_src/data/scripts/dock_solv.prm

>  <Rbt.Receptor>
prm/pocket_docking_6.prm

>  <SCORE>
-16.7402

>  <SCORE.INTER>
-17.0163

>  <SCORE.INTER.CONST>
1

>  <SCORE.INTER.POLAR>
0

>  <SCORE.INTER.ROT>
7

>  <SCORE.INTER.SOLV>
8.87499

>  <SCORE.INTER.VDW>
-22.5692

>  <SCORE.INTER.norm>
-0.630235

>  <SCORE.INTRA>
0.276095

>  <SCORE.INTRA.DIHEDRAL>
0.0942201

>  <SCORE.INTRA.DIHEDRAL.0>
4.89803

>  <SCORE.INTRA.POLAR>
0

>  <SCORE.INTRA.POLAR.0>
0

>  <SCORE.INTRA.REPUL>
0

>  <SCORE.INTRA.REPUL.0>
0

>  <SCORE.INTRA.SOLV>
0.111236

>  <SCORE.INTRA.SOLV.lig_0>
-48.5832

>  <SCORE.INTRA.VDW>
0.173367

>  <SCORE.INTRA.VDW.0>
-2.39056

>  <SCORE.INTRA.norm>
0.0102257

>  <SCORE.RESTR>
0

>  <SCORE.RESTR.CAVITY>
0

>  <SCORE.RESTR.norm>
0

>  <SCORE.SYSTEM>
0

>  <SCORE.SYSTEM.CONST>
0

>  <SCORE.SYSTEM.DIHEDRAL>
0

>  <SCORE.SYSTEM.SOLV>
0

>  <SCORE.SYSTEM.norm>
0

>  <SCORE.heavy>
27

>  <SCORE.norm>
-0.620009

>  <RMSD>
6.050

$$$$
ligand
 OpenBabel11021811473D
libRbt.so/2013.1/901 2013/11/27
 27 29  0  0  0  0  0  0  0  0999 V2000
    9.1114  -10.1650  -18.5032 N   0  0  0  0  0  0  0  0  0  0  0  0
    8.1848  -10.7177  -19.5020 C   0  0  2  0  0  0  0  0  0  0  0  0
    6.7562  -10.7108  -18.9495 C   0  0  0  0  0  0  0  0  0  0  0  0
    6.6240  -10.5124  -17.7220 O   0  0  0  0  0  0  0  0  0  0  0  0
    8.5973  -12.1572  -19.8145 C   0  0  0  0  0  0  0  0  0  0  0  0
    9.9082  -12.2208  -20.6025 C   0  0  0  0  0  0  0  0  0  0  0  0
    9.9702  -12.9369  -23.3509 C   0  0  0  0  0  0  0  0  0  0  0  0
    9.7117  -11.4536  -22.2840 Se  0  0  2  0  0  0  0  0  0  0  0  0
   11.2486  -10.4676  -22.6335 C   0  0  0  0  0  0  0  0  0  0  0  0
   12.5146  -11.3203  -22.7275 C   0  0  1  0  0  0  0  0  0  0  0  0
   13.6479  -10.4398  -22.8166 O   0  0  0  0  0  0  0  0  0  0  0  0
   12.6821  -12.0327  -21.3848 C   0  0  1  0  0  0  0  0  0  0  0  0
   13.7403  -12.9876  -21.4776 O   0  0  0  0  0  0  0  0  0  0  0  0
   13.1240  -10.8468  -20.5310 C   0  0  1  0  0  0  0  0  0  0  0  0
   13.8141  -11.3395  -19.3811 O   0  0  0  0  0  0  0  0  0  0  0  0
   14.1368  -10.2094  -21.4832 C   0  0  2  0  0  0  0  0  0  0  0  0
    5.8284  -10.9132  -19.7635 O   0  0  0  0  0  0  0  0  0  0  0  0
   15.9189   -5.6938  -23.2379 N   0  0  0  0  0  0  0  0  0  0  0  0
   15.9221   -6.8736  -23.8342 C   0  0  0  0  0  0  0  0  0  0  0  0
   15.4226   -7.9498  -23.2520 N   0  0  0  0  0  0  0  0  0  0  0  0
   14.8875   -7.8751  -22.0240 C   0  0  0  0  0  0  0  0  0  0  0  0
   14.8677   -6.6537  -21.3654 C   0  0  0  0  0  0  0  0  0  0  0  0
   15.4062   -5.5461  -22.0096 C   0  0  0  0  0  0  0  0  0  0  0  0
   15.4404   -4.3675  -21.3957 N   0  0  0  0  0  0  0  0  0  0  0  0
   14.2951   -6.8433  -20.1819 N   0  0  0  0  0  0  0  0  0  0  0  0
   13.9672   -8.1304  -20.0959 C   0  0  0  0  0  0  0  0  0  0  0  0
   14.3241   -8.7646  -21.2129 N   0  0  0  0  0  0  0  0  0  0  0  0
  2  1  1  1  0  0  0
  2  5  1  0  0  0  0
  2  3  1  0  0  0  0
  3 17  1  0  0  0  0
  3  4  1  0  0  0  0
  5  6  1  0  0  0  0
  7  8  1  0  0  0  0
  8  6  1  1  0  0  0
  8  9  1  0  0  0  0
 10  9  1  1  0  0  0
 10 11  1  0  0  0  0
 10 12  1  0  0  0  0
 11 16  1  0  0  0  0
 12 13  1  6  0  0  0
 12 14  1  0  0  0  0
 14 15  1  1  0  0  0
 14 16  1  0  0  0  0
 16 27  1  1  0  0  0
 18 23  2  0  0  0  0
 18 19  1  0  0  0  0
 19 20  2  0  0  0  0
 20 21  1  0  0  0  0
 21 22  2  0  0  0  0
 21 27  1  0  0  0  0
 22 23  1  0  0  0  0
 22 25  1  0  0  0  0
 23 24  1  0  0  0  0
 25 26  2  0  0  0  0
 26 27  1  0  0  0  0
M  END
>  <CHROM.1>
-70.33116455,-13.55458048,-64.94445478,-114.95964180,64.01387905,-172.28587435
-44.46932859,11.77376698,-9.98835875,-21.31225576,2.77847461,-0.48315175
-2.63963200

>  <Name>
ligand

>  <RI>
0

>  <Rbt.Current_Directory>
/home/itssahil/PROJECTS/Mol_Feturizer/New_Systems/rnas/3E5F

>  <Rbt.Executable>
rbdock ($Id: //depot/dev/client3/rdock/2013.1/src/exe/rbdock.cxx#4 $)

>  <Rbt.Library>
libRbt.so (2013.1, Build901 2013/11/27)

>  <Rbt.Parameter_File>
/export/apps/rDock/src/rDock_2013.1_src/data/scripts/dock_solv.prm

>  <Rbt.Receptor>
prm/blind_docking_40.prm

>  <SCORE>
-12.2224

>  <SCORE.INTER>
-14.7756

>  <SCORE.INTER.CONST>
1

>  <SCORE.INTER.POLAR>
0

>  <SCORE.INTER.ROT>
7

>  <SCORE.INTER.SOLV>
12.3177

>  <SCORE.INTER.VDW>
-22.223

>  <SCORE.INTER.norm>
-0.547245

>  <SCORE.INTRA>
2.55319

>  <SCORE.INTRA.DIHEDRAL>
0.971433

>  <SCORE.INTRA.DIHEDRAL.0>
4.89803

>  <SCORE.INTRA.POLAR>
0

>  <SCORE.INTRA.POLAR.0>
0

>  <SCORE.INTRA.REPUL>
0

>  <SCORE.INTRA.REPUL.0>
0

>  <SCORE.INTRA.SOLV>
1.03103

>  <SCORE.INTRA.SOLV.lig_0>
-48.5832

>  <SCORE.INTRA.VDW>
1.55196

>  <SCORE.INTRA.VDW.0>
-2.39056

>  <SCORE.INTRA.norm>
0.0945627

>  <SCORE.RESTR>
0

>  <SCORE.RESTR.CAVITY>
0

>  <SCORE.RESTR.norm>
0

>  <SCORE.SYSTEM>
0

>  <SCORE.SYSTEM.CONST>
0

>  <SCORE.SYSTEM.DIHEDRAL>
0

>  <SCORE.SYSTEM.SOLV>
0

>  <SCORE.SYSTEM.norm>
0

>  <SCORE.heavy>
27

>  <SCORE.norm>
-0.452682

>  <RMSD>
6.054

$$$$
ligand
 OpenBabel11021811473D
libRbt.so/2013.1/901 2013/11/27
 27 29  0  0  0  0  0  0  0  0999 V2000
   15.7755   -6.3874  -18.1016 N   0  0  0  0  0  0  0  0  0  0  0  0
   15.6783   -7.2530  -19.2862 C   0  0  2  0  0  0  0  0  0  0  0  0
   16.8942   -8.1819  -19.3555 C   0  0  0  0  0  0  0  0  0  0  0  0
   17.7029   -8.1291  -18.4032 O   0  0  0  0  0  0  0  0  0  0  0  0
   15.6434   -6.3743  -20.5378 C   0  0  0  0  0  0  0  0  0  0  0  0
   14.6853   -6.9230  -21.5983 C   0  0  0  0  0  0  0  0  0  0  0  0
   14.4958   -8.7987  -23.7233 C   0  0  0  0  0  0  0  0  0  0  0  0
   15.0512   -8.7078  -21.9658 Se  0  0  2  0  0  0  0  0  0  0  0  0
   13.7577   -9.7331  -21.1102 C   0  0  0  0  0  0  0  0  0  0  0  0
   14.0464  -11.2345  -21.1430 C   0  0  1  0  0  0  0  0  0  0  0  0
   13.1091  -11.8949  -20.2753 O   0  0  0  0  0  0  0  0  0  0  0  0
   13.6942  -11.7333  -22.5450 C   0  0  1  0  0  0  0  0  0  0  0  0
   14.1208  -13.0885  -22.6928 O   0  0  0  0  0  0  0  0  0  0  0  0
   12.1716  -11.6739  -22.4515 C   0  0  1  0  0  0  0  0  0  0  0  0
   11.6158  -12.5489  -23.4347 O   0  0  0  0  0  0  0  0  0  0  0  0
   11.9758  -12.2933  -21.0672 C   0  0  2  0  0  0  0  0  0  0  0  0
   16.9941   -8.9172  -20.3623 O   0  0  0  0  0  0  0  0  0  0  0  0
    7.6983  -13.7770  -18.5881 N   0  0  0  0  0  0  0  0  0  0  0  0
    8.7092  -14.5164  -19.0107 C   0  0  0  0  0  0  0  0  0  0  0  0
    9.7465  -13.9867  -19.6354 N   0  0  0  0  0  0  0  0  0  0  0  0
    9.8064  -12.6652  -19.8589 C   0  0  0  0  0  0  0  0  0  0  0  0
    8.7628  -11.8564  -19.4313 C   0  0  0  0  0  0  0  0  0  0  0  0
    7.6880  -12.4519  -18.7816 C   0  0  0  0  0  0  0  0  0  0  0  0
    6.6521  -11.7157  -18.3917 N   0  0  0  0  0  0  0  0  0  0  0  0
    9.0574  -10.6061  -19.7694 N   0  0  0  0  0  0  0  0  0  0  0  0
   10.2372  -10.6238  -20.3851 C   0  0  0  0  0  0  0  0  0  0  0  0
   10.6994  -11.8729  -20.4431 N   0  0  0  0  0  0  0  0  0  0  0  0
  2  1  1  1  0  0  0
  2  5  1  0  0  0  0
  2  3  1  0  0  0  0
  3 17  1  0  0  0  0
  3  4  1  0  0  0  0
  5  6  1  0  0  0  0
  7  8  1  0  0  0  0
  8  6  1  1  0  0  0
  8  9  1  0  0  0  0
 10  9  1  6  0  0  0
 10 11  1  0  0  0  0
 10 12  1  0  0  0  0
 11 16  1  0  0  0  0
 12 13  1  1  0  0  0
 12 14  1  0  0  0  0
 14 15  1  6  0  0  0
 14 16  1  0  0  0  0
 16 27  1  1  0  0  0
 18 23  2  0  0  0  0
 18 19  1  0  0  0  0
 19 20  2  0  0  0  0
 20 21  1  0  0  0  0
 21 22  2  0  0  0  0
 21 27  1  0  0  0  0
 22 23  1  0  0  0  0
 22 25  1  0  0  0  0
 23 24  1  0  0  0  0
 25 26  2  0  0  0  0
 26 27  1  0  0  0  0
M  END
>  <CHROM.1>
-141.79352341,4.14188080,-52.35432231,-150.83763459,-171.21268388,170.75513694
-108.19435157,12.94869536,-10.34413357,-20.71984930,0.24124534,0.56573311
0.91961859

>  <Name>
ligand

>  <RI>
0

>  <Rbt.Current_Directory>
/home/itssahil/PROJECTS/Mol_Feturizer/New_Systems/rnas/3E5F

>  <Rbt.Executable>
rbdock ($Id: //depot/dev/client3/rdock/2013.1/src/exe/rbdock.cxx#4 $)

>  <Rbt.Library>
libRbt.so (2013.1, Build901 2013/11/27)

>  <Rbt.Parameter_File>
/export/apps/rDock/src/rDock_2013.1_src/data/scripts/dock_solv.prm

>  <Rbt.Receptor>
prm/blind_docking_40.prm

>  <SCORE>
-14.5956

>  <SCORE.INTER>
-16.2574

>  <SCORE.INTER.CONST>
1

>  <SCORE.INTER.POLAR>
0

>  <SCORE.INTER.ROT>
7

>  <SCORE.INTER.SOLV>
7.58718

>  <SCORE.INTER.VDW>
-21.634

>  <SCORE.INTER.norm>
-0.602126

>  <SCORE.INTRA>
1.66178

>  <SCORE.INTRA.DIHEDRAL>
4.58884

>  <SCORE.INTRA.DIHEDRAL.0>
4.89803

>  <SCORE.INTRA.POLAR>
0

>  <SCORE.INTRA.POLAR.0>
0

>  <SCORE.INTRA.REPUL>
0

>  <SCORE.INTRA.REPUL.0>
0

>  <SCORE.INTRA.SOLV>
0.111938

>  <SCORE.INTRA.SOLV.lig_0>
-48.5832

>  <SCORE.INTRA.VDW>
-0.688609

>  <SCORE.INTRA.VDW.0>
-2.39056

>  <SCORE.INTRA.norm>
0.0615474

>  <SCORE.RESTR>
0

>  <SCORE.RESTR.CAVITY>
0

>  <SCORE.RESTR.norm>
0

>  <SCORE.SYSTEM>
0

>  <SCORE.SYSTEM.CONST>
0

>  <SCORE.SYSTEM.DIHEDRAL>
0

>  <SCORE.SYSTEM.SOLV>
0

>  <SCORE.SYSTEM.norm>
0

>  <SCORE.heavy>
27

>  <SCORE.norm>
-0.540579

>  <RMSD>
6.065

$$$$
ligand
 OpenBabel11021811473D
libRbt.so/2013.1/901 2013/11/27
 27 29  0  0  0  0  0  0  0  0999 V2000
   17.5821   -7.2841  -19.8181 N   0  0  0  0  0  0  0  0  0  0  0  0
   16.4937   -6.8756  -20.7183 C   0  0  2  0  0  0  0  0  0  0  0  0
   15.5500   -5.9115  -19.9930 C   0  0  0  0  0  0  0  0  0  0  0  0
   14.4817   -5.6196  -20.5737 O   0  0  0  0  0  0  0  0  0  0  0  0
   15.7128   -8.1200  -21.1446 C   0  0  0  0  0  0  0  0  0  0  0  0
   15.1360   -8.8752  -19.9444 C   0  0  0  0  0  0  0  0  0  0  0  0
   12.9264  -10.4167  -19.0435 C   0  0  0  0  0  0  0  0  0  0  0  0
   13.2778   -8.8687  -19.9845 Se  0  0  2  0  0  0  0  0  0  0  0  0
   12.7523   -9.3465  -21.7026 C   0  0  0  0  0  0  0  0  0  0  0  0
   13.5656  -10.4990  -22.2932 C   0  0  1  0  0  0  0  0  0  0  0  0
   13.1781  -11.7139  -21.6287 O   0  0  0  0  0  0  0  0  0  0  0  0
   13.1049  -10.6846  -23.7394 C   0  0  1  0  0  0  0  0  0  0  0  0
   13.9600  -11.6198  -24.3986 O   0  0  0  0  0  0  0  0  0  0  0  0
   11.7398  -11.3180  -23.4830 C   0  0  1  0  0  0  0  0  0  0  0  0
   11.3365  -12.0317  -24.6531 O   0  0  0  0  0  0  0  0  0  0  0  0
   12.1240  -12.3225  -22.3958 C   0  0  2  0  0  0  0  0  0  0  0  0
   15.9205   -5.4799  -18.8791 O   0  0  0  0  0  0  0  0  0  0  0  0
    8.2451  -15.6300  -21.5837 N   0  0  0  0  0  0  0  0  0  0  0  0
    9.1602  -15.6448  -22.5376 C   0  0  0  0  0  0  0  0  0  0  0  0
   10.1013  -14.7201  -22.6145 N   0  0  0  0  0  0  0  0  0  0  0  0
   10.1585  -13.7281  -21.7131 C   0  0  0  0  0  0  0  0  0  0  0  0
    9.2137  -13.6781  -20.6978 C   0  0  0  0  0  0  0  0  0  0  0  0
    8.2378  -14.6668  -20.6534 C   0  0  0  0  0  0  0  0  0  0  0  0
    7.2928  -14.6310  -19.7190 N   0  0  0  0  0  0  0  0  0  0  0  0
    9.4832  -12.6150  -19.9485 N   0  0  0  0  0  0  0  0  0  0  0  0
   10.5531  -12.0179  -20.4684 C   0  0  0  0  0  0  0  0  0  0  0  0
   10.9699  -12.6894  -21.5420 N   0  0  0  0  0  0  0  0  0  0  0  0
  2  1  1  1  0  0  0
  2  5  1  0  0  0  0
  2  3  1  0  0  0  0
  3 17  1  0  0  0  0
  3  4  1  0  0  0  0
  5  6  1  0  0  0  0
  7  8  1  0  0  0  0
  8  6  1  6  0  0  0
  8  9  1  0  0  0  0
 10  9  1  1  0  0  0
 10 11  1  0  0  0  0
 10 12  1  0  0  0  0
 11 16  1  0  0  0  0
 12 13  1  6  0  0  0
 12 14  1  0  0  0  0
 14 15  1  6  0  0  0
 14 16  1  0  0  0  0
 16 27  1  1  0  0  0
 18 23  2  0  0  0  0
 18 19  1  0  0  0  0
 19 20  2  0  0  0  0
 20 21  1  0  0  0  0
 21 22  2  0  0  0  0
 21 27  1  0  0  0  0
 22 23  1  0  0  0  0
 22 25  1  0  0  0  0
 23 24  1  0  0  0  0
 25 26  2  0  0  0  0
 26 27  1  0  0  0  0
M  END
>  <CHROM.1>
58.44423668,-170.74084439,115.98324878,153.46170850,42.24392847,72.62274921
-147.09466000,12.52307721,-10.60652263,-21.13458948,-0.54092215,-0.72815287
-2.09334118

>  <Name>
ligand

>  <RI>
0

>  <Rbt.Current_Directory>
/home/itssahil/PROJECTS/Mol_Feturizer/New_Systems/rnas/3E5F

>  <Rbt.Executable>
rbdock ($Id: //depot/dev/client3/rdock/2013.1/src/exe/rbdock.cxx#4 $)

>  <Rbt.Library>
libRbt.so (2013.1, Build901 2013/11/27)

>  <Rbt.Parameter_File>
/export/apps/rDock/src/rDock_2013.1_src/data/scripts/dock_solv.prm

>  <Rbt.Receptor>
prm/blind_docking_60.prm

>  <SCORE>
-5.99268

>  <SCORE.INTER>
-10.2185

>  <SCORE.INTER.CONST>
1

>  <SCORE.INTER.POLAR>
0

>  <SCORE.INTER.ROT>
7

>  <SCORE.INTER.SOLV>
10.9359

>  <SCORE.INTER.VDW>
-18.7243

>  <SCORE.INTER.norm>
-0.378463

>  <SCORE.INTRA>
3.78818

>  <SCORE.INTRA.DIHEDRAL>
4.72588

>  <SCORE.INTRA.DIHEDRAL.0>
4.89803

>  <SCORE.INTRA.POLAR>
0

>  <SCORE.INTRA.POLAR.0>
0

>  <SCORE.INTRA.REPUL>
0

>  <SCORE.INTRA.REPUL.0>
0

>  <SCORE.INTRA.SOLV>
0.932897

>  <SCORE.INTRA.SOLV.lig_0>
-48.5832

>  <SCORE.INTRA.VDW>
0.958796

>  <SCORE.INTRA.VDW.0>
-2.39056

>  <SCORE.INTRA.norm>
0.140303

>  <SCORE.RESTR>
0.437632

>  <SCORE.RESTR.CAVITY>
0.437632

>  <SCORE.RESTR.norm>
0.0162086

>  <SCORE.SYSTEM>
0

>  <SCORE.SYSTEM.CONST>
0

>  <SCORE.SYSTEM.DIHEDRAL>
0

>  <SCORE.SYSTEM.SOLV>
0

>  <SCORE.SYSTEM.norm>
0

>  <SCORE.heavy>
27

>  <SCORE.norm>
-0.221951

>  <RMSD>
6.070

$$$$
ligand
 OpenBabel11021811473D
libRbt.so/2013.1/901 2013/11/27
 27 29  0  0  0  0  0  0  0  0999 V2000
   17.6423   -7.4324  -20.5625 N   0  0  0  0  0  0  0  0  0  0  0  0
   16.5704   -6.7296  -19.8422 C   0  0  2  0  0  0  0  0  0  0  0  0
   17.0194   -6.4188  -18.4111 C   0  0  0  0  0  0  0  0  0  0  0  0
   17.6278   -7.3235  -17.7987 O   0  0  0  0  0  0  0  0  0  0  0  0
   15.3336   -7.6286  -19.7984 C   0  0  0  0  0  0  0  0  0  0  0  0
   14.7999   -7.9398  -21.1990 C   0  0  0  0  0  0  0  0  0  0  0  0
   12.1384   -7.8112  -20.2140 C   0  0  0  0  0  0  0  0  0  0  0  0
   13.2579   -8.9736  -21.1090 Se  0  0  2  0  0  0  0  0  0  0  0  0
   13.5382  -10.2881  -19.8245 C   0  0  0  0  0  0  0  0  0  0  0  0
   13.5938  -11.7039  -20.3996 C   0  0  1  0  0  0  0  0  0  0  0  0
   12.4576  -12.4366  -19.9099 O   0  0  0  0  0  0  0  0  0  0  0  0
   13.3613  -11.5905  -21.9067 C   0  0  1  0  0  0  0  0  0  0  0  0
   13.5900  -12.8583  -22.5238 O   0  0  0  0  0  0  0  0  0  0  0  0
   11.8675  -11.2756  -21.9018 C   0  0  1  0  0  0  0  0  0  0  0  0
   11.3212  -11.6164  -23.1772 O   0  0  0  0  0  0  0  0  0  0  0  0
   11.3938  -12.2988  -20.8687 C   0  0  2  0  0  0  0  0  0  0  0  0
   16.7367   -5.2882  -17.9570 O   0  0  0  0  0  0  0  0  0  0  0  0
    7.1425  -13.8336  -18.3756 N   0  0  0  0  0  0  0  0  0  0  0  0
    8.1477  -14.5644  -18.8262 C   0  0  0  0  0  0  0  0  0  0  0  0
    9.1785  -14.0217  -19.4504 N   0  0  0  0  0  0  0  0  0  0  0  0
    9.2376  -12.6956  -19.6447 C   0  0  0  0  0  0  0  0  0  0  0  0
    8.1999  -11.8956  -19.1872 C   0  0  0  0  0  0  0  0  0  0  0  0
    7.1318  -12.5045  -18.5390 C   0  0  0  0  0  0  0  0  0  0  0  0
    6.1012  -11.7763  -18.1209 N   0  0  0  0  0  0  0  0  0  0  0  0
    8.4923  -10.6383  -19.5002 N   0  0  0  0  0  0  0  0  0  0  0  0
    9.6651  -10.6433  -20.1295 C   0  0  0  0  0  0  0  0  0  0  0  0
   10.1249  -11.8913  -20.2210 N   0  0  0  0  0  0  0  0  0  0  0  0
  2  1  1  6  0  0  0
  2  5  1  0  0  0  0
  2  3  1  0  0  0  0
  3 17  1  0  0  0  0
  3  4  1  0  0  0  0
  5  6  1  0  0  0  0
  7  8  1  0  0  0  0
  8  6  1  1  0  0  0
  8  9  1  0  0  0  0
 10  9  1  1  0  0  0
 10 11  1  0  0  0  0
 10 12  1  0  0  0  0
 11 16  1  0  0  0  0
 12 13  1  6  0  0  0
 12 14  1  0  0  0  0
 14 15  1  6  0  0  0
 14 16  1  0  0  0  0
 16 27  1  1  0  0  0
 18 23  2  0  0  0  0
 18 19  1  0  0  0  0
 19 20  2  0  0  0  0
 20 21  1  0  0  0  0
 21 22  2  0  0  0  0
 21 27  1  0  0  0  0
 22 23  1  0  0  0  0
 22 25  1  0  0  0  0
 23 24  1  0  0  0  0
 25 26  2  0  0  0  0
 26 27  1  0  0  0  0
M  END
>  <CHROM.1>
-61.97611543,-42.75162523,-177.62367737,62.56694922,-113.31827430,-113.75745173
-84.45446517,12.33670337,-10.24306476,-20.16514841,-0.40220156,-0.48771197
-2.34529434

>  <Name>
ligand

>  <RI>
0

>  <Rbt.Current_Directory>
/home/itssahil/PROJECTS/Mol_Feturizer/New_Systems/rnas/3E5F

>  <Rbt.Executable>
rbdock ($Id: //depot/dev/client3/rdock/2013.1/src/exe/rbdock.cxx#4 $)

>  <Rbt.Library>
libRbt.so (2013.1, Build901 2013/11/27)

>  <Rbt.Parameter_File>
/export/apps/rDock/src/rDock_2013.1_src/data/scripts/dock_solv.prm

>  <Rbt.Receptor>
prm/blind_docking_40.prm

>  <SCORE>
-11.6863

>  <SCORE.INTER>
-14.8722

>  <SCORE.INTER.CONST>
1

>  <SCORE.INTER.POLAR>
0

>  <SCORE.INTER.ROT>
7

>  <SCORE.INTER.SOLV>
6.84875

>  <SCORE.INTER.VDW>
-20.4644

>  <SCORE.INTER.norm>
-0.550822

>  <SCORE.INTRA>
3.18587

>  <SCORE.INTRA.DIHEDRAL>
5.01726

>  <SCORE.INTRA.DIHEDRAL.0>
4.89803

>  <SCORE.INTRA.POLAR>
0

>  <SCORE.INTRA.POLAR.0>
0

>  <SCORE.INTRA.REPUL>
0

>  <SCORE.INTRA.REPUL.0>
0

>  <SCORE.INTRA.SOLV>
0.703571

>  <SCORE.INTRA.SOLV.lig_0>
-48.5832

>  <SCORE.INTRA.VDW>
0.325453

>  <SCORE.INTRA.VDW.0>
-2.39056

>  <SCORE.INTRA.norm>
0.117995

>  <SCORE.RESTR>
0

>  <SCORE.RESTR.CAVITY>
0

>  <SCORE.RESTR.norm>
0

>  <SCORE.SYSTEM>
0

>  <SCORE.SYSTEM.CONST>
0

>  <SCORE.SYSTEM.DIHEDRAL>
0

>  <SCORE.SYSTEM.SOLV>
0

>  <SCORE.SYSTEM.norm>
0

>  <SCORE.heavy>
27

>  <SCORE.norm>
-0.432826

>  <RMSD>
6.076

$$$$
ligand
 OpenBabel11021811473D
libRbt.so/2013.1/901 2013/11/27
 27 29  0  0  0  0  0  0  0  0999 V2000
   17.0375   -6.7394  -17.6313 N   0  0  0  0  0  0  0  0  0  0  0  0
   17.2348   -6.2456  -19.0020 C   0  0  2  0  0  0  0  0  0  0  0  0
   16.2304   -5.1295  -19.3048 C   0  0  0  0  0  0  0  0  0  0  0  0
   15.1410   -5.1657  -18.6921 O   0  0  0  0  0  0  0  0  0  0  0  0
   17.0138   -7.4014  -19.9794 C   0  0  0  0  0  0  0  0  0  0  0  0
   15.6427   -8.0564  -19.7936 C   0  0  0  0  0  0  0  0  0  0  0  0
   14.7147   -8.4843  -22.4443 C   0  0  0  0  0  0  0  0  0  0  0  0
   15.3927   -9.4348  -21.0152 Se  0  0  2  0  0  0  0  0  0  0  0  0
   13.9035  -10.4046  -20.4693 C   0  0  0  0  0  0  0  0  0  0  0  0
   13.8451  -11.8168  -21.0531 C   0  0  1  0  0  0  0  0  0  0  0  0
   12.7305  -12.5059  -20.4610 O   0  0  0  0  0  0  0  0  0  0  0  0
   13.4763  -11.6816  -22.5309 C   0  0  1  0  0  0  0  0  0  0  0  0
   13.5923  -12.9527  -23.1722 O   0  0  0  0  0  0  0  0  0  0  0  0
   12.0042  -11.3053  -22.3832 C   0  0  1  0  0  0  0  0  0  0  0  0
   11.3260  -11.6127  -23.6025 O   0  0  0  0  0  0  0  0  0  0  0  0
   11.5876  -12.3164  -21.3142 C   0  0  2  0  0  0  0  0  0  0  0  0
   16.5689   -4.2704  -20.1485 O   0  0  0  0  0  0  0  0  0  0  0  0
    7.5352  -13.6937  -18.4289 N   0  0  0  0  0  0  0  0  0  0  0  0
    8.4624  -14.4616  -18.9748 C   0  0  0  0  0  0  0  0  0  0  0  0
    9.4500  -13.9572  -19.6937 N   0  0  0  0  0  0  0  0  0  0  0  0
    9.5438  -12.6334  -19.8904 C   0  0  0  0  0  0  0  0  0  0  0  0
    8.5877  -11.7951  -19.3345 C   0  0  0  0  0  0  0  0  0  0  0  0
    7.5626  -12.3644  -18.5882 C   0  0  0  0  0  0  0  0  0  0  0  0
    6.6068  -11.5978  -18.0723 N   0  0  0  0  0  0  0  0  0  0  0  0
    8.8993  -10.5487  -19.6719 N   0  0  0  0  0  0  0  0  0  0  0  0
   10.0056  -10.5972  -20.4103 C   0  0  0  0  0  0  0  0  0  0  0  0
   10.4039  -11.8620  -20.5474 N   0  0  0  0  0  0  0  0  0  0  0  0
  2  1  1  1  0  0  0
  2  5  1  0  0  0  0
  2  3  1  0  0  0  0
  3 17  1  0  0  0  0
  3  4  1  0  0  0  0
  5  6  1  0  0  0  0
  7  8  1  0  0  0  0
  8  6  1  1  0  0  0
  8  9  1  0  0  0  0
 10  9  1  1  0  0  0
 10 11  1  0  0  0  0
 10 12  1  0  0  0  0
 11 16  1  0  0  0  0
 12 13  1  6  0  0  0
 12 14  1  0  0  0  0
 14 15  1  6  0  0  0
 14 16  1  0  0  0  0
 16 27  1  1  0  0  0
 18 23  2  0  0  0  0
 18 19  1  0  0  0  0
 19 20  2  0  0  0  0
 20 21  1  0  0  0  0
 21 22  2  0  0  0  0
 21 27  1  0  0  0  0
 22 23  1  0  0  0  0
 22 25  1  0  0  0  0
 23 24  1  0  0  0  0
 25 26  2  0  0  0  0
 26 27  1  0  0  0  0
M  END
>  <CHROM.1>
55.41651289,-28.25241745,178.95123225,-86.97864140,-159.83100300,174.47341417
-84.27855840,12.92436926,-10.14631053,-20.39774283,0.48454509,0.48699046
0.70075698

>  <Name>
ligand

>  <RI>
0

>  <Rbt.Current_Directory>
/home/itssahil/PROJECTS/Mol_Feturizer/New_Systems/rnas/3E5F

>  <Rbt.Executable>
rbdock ($Id: //depot/dev/client3/rdock/2013.1/src/exe/rbdock.cxx#4 $)

>  <Rbt.Library>
libRbt.so (2013.1, Build901 2013/11/27)

>  <Rbt.Parameter_File>
/export/apps/rDock/src/rDock_2013.1_src/data/scripts/dock_solv.prm

>  <Rbt.Receptor>
prm/blind_docking_100.prm

>  <SCORE>
-17.2233

>  <SCORE.INTER>
-18.3109

>  <SCORE.INTER.CONST>
1

>  <SCORE.INTER.POLAR>
0

>  <SCORE.INTER.ROT>
7

>  <SCORE.INTER.SOLV>
7.0612

>  <SCORE.INTER.VDW>
-22.8277

>  <SCORE.INTER.norm>
-0.678183

>  <SCORE.INTRA>
1.08759

>  <SCORE.INTRA.DIHEDRAL>
-0.226222

>  <SCORE.INTRA.DIHEDRAL.0>
4.89803

>  <SCORE.INTRA.POLAR>
0

>  <SCORE.INTRA.POLAR.0>
0

>  <SCORE.INTRA.REPUL>
0

>  <SCORE.INTRA.REPUL.0>
0

>  <SCORE.INTRA.SOLV>
0.701149

>  <SCORE.INTRA.SOLV.lig_0>
-48.5832

>  <SCORE.INTRA.VDW>
0.850129

>  <SCORE.INTRA.VDW.0>
-2.39056

>  <SCORE.INTRA.norm>
0.0402812

>  <SCORE.RESTR>
0

>  <SCORE.RESTR.CAVITY>
0

>  <SCORE.RESTR.norm>
0

>  <SCORE.SYSTEM>
0

>  <SCORE.SYSTEM.CONST>
0

>  <SCORE.SYSTEM.DIHEDRAL>
0

>  <SCORE.SYSTEM.SOLV>
0

>  <SCORE.SYSTEM.norm>
0

>  <SCORE.heavy>
27

>  <SCORE.norm>
-0.637902

>  <RMSD>
6.081

$$$$
ligand
 OpenBabel11021811473D
libRbt.so/2013.1/901 2013/11/27
 27 29  0  0  0  0  0  0  0  0999 V2000
   17.0407   -6.7192  -17.5294 N   0  0  0  0  0  0  0  0  0  0  0  0
   17.2895   -6.2472  -18.8995 C   0  0  2  0  0  0  0  0  0  0  0  0
   16.3287   -5.1041  -19.2407 C   0  0  0  0  0  0  0  0  0  0  0  0
   15.2292   -5.0909  -18.6451 O   0  0  0  0  0  0  0  0  0  0  0  0
   17.0585   -7.4065  -19.8703 C   0  0  0  0  0  0  0  0  0  0  0  0
   15.6665   -8.0225  -19.7085 C   0  0  0  0  0  0  0  0  0  0  0  0
   14.7175   -8.4202  -22.3564 C   0  0  0  0  0  0  0  0  0  0  0  0
   15.3961   -9.3885  -20.9396 Se  0  0  2  0  0  0  0  0  0  0  0  0
   13.9017  -10.3493  -20.3919 C   0  0  0  0  0  0  0  0  0  0  0  0
   13.8502  -11.7720  -20.9505 C   0  0  1  0  0  0  0  0  0  0  0  0
   12.7385  -12.4556  -20.3467 O   0  0  0  0  0  0  0  0  0  0  0  0
   13.4815  -11.6647  -22.4307 C   0  0  1  0  0  0  0  0  0  0  0  0
   13.6038  -12.9465  -23.0492 O   0  0  0  0  0  0  0  0  0  0  0  0
   12.0076  -11.2927  -22.2903 C   0  0  1  0  0  0  0  0  0  0  0  0
   11.3315  -11.6249  -23.5042 O   0  0  0  0  0  0  0  0  0  0  0  0
   11.5952  -12.2865  -21.2036 C   0  0  2  0  0  0  0  0  0  0  0  0
   16.7094   -4.2744  -20.0956 O   0  0  0  0  0  0  0  0  0  0  0  0
    7.4540  -13.6418  -18.4363 N   0  0  0  0  0  0  0  0  0  0  0  0
    8.3716  -14.4173  -18.9878 C   0  0  0  0  0  0  0  0  0  0  0  0
    9.3854  -13.9179  -19.6729 N   0  0  0  0  0  0  0  0  0  0  0  0
    9.5169  -12.5918  -19.8280 C   0  0  0  0  0  0  0  0  0  0  0  0
    8.5721  -11.7455  -19.2649 C   0  0  0  0  0  0  0  0  0  0  0  0
    7.5185  -12.3095  -18.5551 C   0  0  0  0  0  0  0  0  0  0  0  0
    6.5730  -11.5338  -18.0341 N   0  0  0  0  0  0  0  0  0  0  0  0
    8.9220  -10.4983  -19.5589 N   0  0  0  0  0  0  0  0  0  0  0  0
   10.0407  -10.5539  -20.2779 C   0  0  0  0  0  0  0  0  0  0  0  0
   10.4089  -11.8242  -20.4456 N   0  0  0  0  0  0  0  0  0  0  0  0
  2  1  1  1  0  0  0
  2  5  1  0  0  0  0
  2  3  1  0  0  0  0
  3 17  1  0  0  0  0
  3  4  1  0  0  0  0
  5  6  1  0  0  0  0
  7  8  1  0  0  0  0
  8  6  1  1  0  0  0
  8  9  1  0  0  0  0
 10  9  1  1  0  0  0
 10 11  1  0  0  0  0
 10 12  1  0  0  0  0
 11 16  1  0  0  0  0
 12 13  1  6  0  0  0
 12 14  1  0  0  0  0
 14 15  1  6  0  0  0
 14 16  1  0  0  0  0
 16 27  1  1  0  0  0
 18 23  2  0  0  0  0
 18 19  1  0  0  0  0
 19 20  2  0  0  0  0
 20 21  1  0  0  0  0
 21 22  2  0  0  0  0
 21 27  1  0  0  0  0
 22 23  1  0  0  0  0
 22 25  1  0  0  0  0
 23 24  1  0  0  0  0
 25 26  2  0  0  0  0
 26 27  1  0  0  0  0
M  END
>  <CHROM.1>
55.05424798,-27.41987153,178.06787427,-88.68535918,-157.95046083,173.85211029
-87.68567657,12.93277952,-10.11021692,-20.31990254,0.48397423,0.47814597
0.69777862

>  <Name>
ligand

>  <RI>
0

>  <Rbt.Current_Directory>
/home/itssahil/PROJECTS/Mol_Feturizer/New_Systems/rnas/3E5F

>  <Rbt.Executable>
rbdock ($Id: //depot/dev/client3/rdock/2013.1/src/exe/rbdock.cxx#4 $)

>  <Rbt.Library>
libRbt.so (2013.1, Build901 2013/11/27)

>  <Rbt.Parameter_File>
/export/apps/rDock/src/rDock_2013.1_src/data/scripts/dock_solv.prm

>  <Rbt.Receptor>
prm/blind_docking_40.prm

>  <SCORE>
-17.3364

>  <SCORE.INTER>
-18.478

>  <SCORE.INTER.CONST>
1

>  <SCORE.INTER.POLAR>
0

>  <SCORE.INTER.ROT>
7

>  <SCORE.INTER.SOLV>
7.12073

>  <SCORE.INTER.VDW>
-22.9589

>  <SCORE.INTER.norm>
-0.684371

>  <SCORE.INTRA>
1.14157

>  <SCORE.INTRA.DIHEDRAL>
0.0186322

>  <SCORE.INTRA.DIHEDRAL.0>
4.89803

>  <SCORE.INTRA.POLAR>
0

>  <SCORE.INTRA.POLAR.0>
0

>  <SCORE.INTRA.REPUL>
0

>  <SCORE.INTRA.REPUL.0>
0

>  <SCORE.INTRA.SOLV>
0.691022

>  <SCORE.INTRA.SOLV.lig_0>
-48.5832

>  <SCORE.INTRA.VDW>
0.786742

>  <SCORE.INTRA.VDW.0>
-2.39056

>  <SCORE.INTRA.norm>
0.0422804

>  <SCORE.RESTR>
0

>  <SCORE.RESTR.CAVITY>
0

>  <SCORE.RESTR.norm>
0

>  <SCORE.SYSTEM>
0

>  <SCORE.SYSTEM.CONST>
0

>  <SCORE.SYSTEM.DIHEDRAL>
0

>  <SCORE.SYSTEM.SOLV>
0

>  <SCORE.SYSTEM.norm>
0

>  <SCORE.heavy>
27

>  <SCORE.norm>
-0.642091

>  <RMSD>
6.081

$$$$
ligand
 OpenBabel11021811473D
libRbt.so/2013.1/901 2013/11/27
 27 29  0  0  0  0  0  0  0  0999 V2000
   17.1313   -4.2418  -21.5760 N   0  0  0  0  0  0  0  0  0  0  0  0
   16.3884   -5.1808  -20.7227 C   0  0  2  0  0  0  0  0  0  0  0  0
   17.0929   -5.3273  -19.3705 C   0  0  0  0  0  0  0  0  0  0  0  0
   18.3426   -5.3699  -19.3841 O   0  0  0  0  0  0  0  0  0  0  0  0
   16.3390   -6.5437  -21.4155 C   0  0  0  0  0  0  0  0  0  0  0  0
   15.3637   -7.5026  -20.7278 C   0  0  0  0  0  0  0  0  0  0  0  0
   14.4788   -8.6043  -23.1923 C   0  0  0  0  0  0  0  0  0  0  0  0
   15.2905   -9.1310  -21.6209 Se  0  0  2  0  0  0  0  0  0  0  0  0
   13.9497  -10.1456  -20.8279 C   0  0  0  0  0  0  0  0  0  0  0  0
   13.9517  -11.6112  -21.2646 C   0  0  1  0  0  0  0  0  0  0  0  0
   12.9321  -12.3054  -20.5256 O   0  0  0  0  0  0  0  0  0  0  0  0
   13.4737  -11.6523  -22.7165 C   0  0  1  0  0  0  0  0  0  0  0  0
   13.6354  -12.9725  -23.2373 O   0  0  0  0  0  0  0  0  0  0  0  0
   11.9922  -11.3573  -22.4958 C   0  0  1  0  0  0  0  0  0  0  0  0
   11.2555  -11.8310  -23.6245 O   0  0  0  0  0  0  0  0  0  0  0  0
   11.7228  -12.2777  -21.3046 C   0  0  2  0  0  0  0  0  0  0  0  0
   16.3678   -5.4031  -18.3543 O   0  0  0  0  0  0  0  0  0  0  0  0
    7.6183  -13.6629  -18.4976 N   0  0  0  0  0  0  0  0  0  0  0  0
    8.5053  -14.4332  -19.1038 C   0  0  0  0  0  0  0  0  0  0  0  0
    9.5137  -13.9263  -19.7914 N   0  0  0  0  0  0  0  0  0  0  0  0
    9.6710  -12.5978  -19.8931 C   0  0  0  0  0  0  0  0  0  0  0  0
    8.7586  -11.7568  -19.2716 C   0  0  0  0  0  0  0  0  0  0  0  0
    7.7097  -12.3284  -18.5611 C   0  0  0  0  0  0  0  0  0  0  0  0
    6.7941  -11.5559  -17.9847 N   0  0  0  0  0  0  0  0  0  0  0  0
    9.1293  -10.5058  -19.5206 N   0  0  0  0  0  0  0  0  0  0  0  0
   10.2293  -10.5540  -20.2684 C   0  0  0  0  0  0  0  0  0  0  0  0
   10.5652  -11.8234  -20.4989 N   0  0  0  0  0  0  0  0  0  0  0  0
  2  1  1  6  0  0  0
  2  5  1  0  0  0  0
  2  3  1  0  0  0  0
  3 17  1  0  0  0  0
  3  4  1  0  0  0  0
  5  6  1  0  0  0  0
  7  8  1  0  0  0  0
  8  6  1  1  0  0  0
  8  9  1  0  0  0  0
 10  9  1  1  0  0  0
 10 11  1  0  0  0  0
 10 12  1  0  0  0  0
 11 16  1  0  0  0  0
 12 13  1  1  0  0  0
 12 14  1  0  0  0  0
 14 15  1  6  0  0  0
 14 16  1  0  0  0  0
 16 27  1  1  0  0  0
 18 23  2  0  0  0  0
 18 19  1  0  0  0  0
 19 20  2  0  0  0  0
 20 21  1  0  0  0  0
 21 22  2  0  0  0  0
 21 27  1  0  0  0  0
 22 23  1  0  0  0  0
 22 25  1  0  0  0  0
 23 24  1  0  0  0  0
 25 26  2  0  0  0  0
 26 27  1  0  0  0  0
M  END
>  <CHROM.1>
-169.11555898,-39.76960054,178.38162091,-68.00282395,-168.46120167,176.41464293
-96.80534223,13.03587898,-9.96849029,-20.77325463,0.42220790,0.57897911,0.73080482

>  <Name>
ligand

>  <RI>
0

>  <Rbt.Current_Directory>
/home/itssahil/PROJECTS/Mol_Feturizer/New_Systems/rnas/3E5F

>  <Rbt.Executable>
rbdock ($Id: //depot/dev/client3/rdock/2013.1/src/exe/rbdock.cxx#4 $)

>  <Rbt.Library>
libRbt.so (2013.1, Build901 2013/11/27)

>  <Rbt.Parameter_File>
/export/apps/rDock/src/rDock_2013.1_src/data/scripts/dock_solv.prm

>  <Rbt.Receptor>
prm/blind_docking_100.prm

>  <SCORE>
-17.2825

>  <SCORE.INTER>
-17.4832

>  <SCORE.INTER.CONST>
1

>  <SCORE.INTER.POLAR>
0

>  <SCORE.INTER.ROT>
7

>  <SCORE.INTER.SOLV>
9.13631

>  <SCORE.INTER.VDW>
-22.9676

>  <SCORE.INTER.norm>
-0.647525

>  <SCORE.INTRA>
0.200736

>  <SCORE.INTRA.DIHEDRAL>
-0.911186

>  <SCORE.INTRA.DIHEDRAL.0>
4.89803

>  <SCORE.INTRA.POLAR>
0

>  <SCORE.INTRA.POLAR.0>
0

>  <SCORE.INTRA.REPUL>
0

>  <SCORE.INTRA.REPUL.0>
0

>  <SCORE.INTRA.SOLV>
-0.0164558

>  <SCORE.INTRA.SOLV.lig_0>
-48.5832

>  <SCORE.INTRA.VDW>
0.664557

>  <SCORE.INTRA.VDW.0>
-2.39056

>  <SCORE.INTRA.norm>
0.00743467

>  <SCORE.RESTR>
0

>  <SCORE.RESTR.CAVITY>
0

>  <SCORE.RESTR.norm>
0

>  <SCORE.SYSTEM>
0

>  <SCORE.SYSTEM.CONST>
0

>  <SCORE.SYSTEM.DIHEDRAL>
0

>  <SCORE.SYSTEM.SOLV>
0

>  <SCORE.SYSTEM.norm>
0

>  <SCORE.heavy>
27

>  <SCORE.norm>
-0.640091

>  <RMSD>
6.088

$$$$
ligand
 OpenBabel11021811473D
libRbt.so/2013.1/901 2013/11/27
 27 29  0  0  0  0  0  0  0  0999 V2000
   17.8521   -5.7733  -19.9513 N   0  0  0  0  0  0  0  0  0  0  0  0
   16.6505   -6.6046  -20.1152 C   0  0  2  0  0  0  0  0  0  0  0  0
   17.0284   -8.0875  -20.0507 C   0  0  0  0  0  0  0  0  0  0  0  0
   16.1337   -8.8857  -19.6958 O   0  0  0  0  0  0  0  0  0  0  0  0
   16.0240   -6.3029  -21.4777 C   0  0  0  0  0  0  0  0  0  0  0  0
   14.7205   -7.0759  -21.6943 C   0  0  0  0  0  0  0  0  0  0  0  0
   14.5801   -8.8055  -23.9435 C   0  0  0  0  0  0  0  0  0  0  0  0
   15.0639   -8.8414  -22.1630 Se  0  0  2  0  0  0  0  0  0  0  0  0
   13.7150   -9.8890  -21.4288 C   0  0  0  0  0  0  0  0  0  0  0  0
   13.9313  -11.3903  -21.6236 C   0  0  1  0  0  0  0  0  0  0  0  0
   12.9762  -12.0946  -20.8117 O   0  0  0  0  0  0  0  0  0  0  0  0
   13.5358  -11.7223  -23.0629 C   0  0  1  0  0  0  0  0  0  0  0  0
   13.8952  -13.0725  -23.3596 O   0  0  0  0  0  0  0  0  0  0  0  0
   12.0192  -11.6033  -22.9345 C   0  0  1  0  0  0  0  0  0  0  0  0
   11.4083  -12.3437  -23.9927 O   0  0  0  0  0  0  0  0  0  0  0  0
   11.8141  -12.3552  -21.6188 C   0  0  2  0  0  0  0  0  0  0  0  0
   18.2050   -8.3902  -20.3480 O   0  0  0  0  0  0  0  0  0  0  0  0
    7.9976  -13.7389  -18.4305 N   0  0  0  0  0  0  0  0  0  0  0  0
    9.0366  -14.4487  -18.8359 C   0  0  0  0  0  0  0  0  0  0  0  0
    9.9408  -13.9511  -19.6614 N   0  0  0  0  0  0  0  0  0  0  0  0
    9.8315  -12.6935  -20.1156 C   0  0  0  0  0  0  0  0  0  0  0  0
    8.7531  -11.9179  -19.7136 C   0  0  0  0  0  0  0  0  0  0  0  0
    7.8216  -12.4786  -18.8477 C   0  0  0  0  0  0  0  0  0  0  0  0
    6.7550  -11.7803  -18.4709 N   0  0  0  0  0  0  0  0  0  0  0  0
    8.8721  -10.7297  -20.2953 N   0  0  0  0  0  0  0  0  0  0  0  0
    9.9788  -10.7534  -21.0344 C   0  0  0  0  0  0  0  0  0  0  0  0
   10.5681  -11.9447  -20.9299 N   0  0  0  0  0  0  0  0  0  0  0  0
  2  1  1  6  0  0  0
  2  5  1  0  0  0  0
  2  3  1  0  0  0  0
  3 17  1  0  0  0  0
  3  4  1  0  0  0  0
  5  6  1  0  0  0  0
  7  8  1  0  0  0  0
  8  6  1  1  0  0  0
  8  9  1  0  0  0  0
 10  9  1  6  0  0  0
 10 11  1  0  0  0  0
 10 12  1  0  0  0  0
 11 16  1  0  0  0  0
 12 13  1  1  0  0  0
 12 14  1  0  0  0  0
 14 15  1  6  0  0  0
 14 16  1  0  0  0  0
 16 27  1  1  0  0  0
 18 23  2  0  0  0  0
 18 19  1  0  0  0  0
 19 20  2  0  0  0  0
 20 21  1  0  0  0  0
 21 22  2  0  0  0  0
 21 27  1  0  0  0  0
 22 23  1  0  0  0  0
 22 25  1  0  0  0  0
 23 24  1  0  0  0  0
 25 26  2  0  0  0  0
 26 27  1  0  0  0  0
M  END
>  <CHROM.1>
-176.90476098,155.00817256,-78.48883896,-108.18328864,-174.74171985,169.40443706
-89.00836102,13.02866324,-10.35707736,-21.14167640,0.20351959,0.58419634
0.93867251

>  <Name>
ligand

>  <RI>
0

>  <Rbt.Current_Directory>
/home/itssahil/PROJECTS/Mol_Feturizer/New_Systems/rnas/3E5F

>  <Rbt.Executable>
rbdock ($Id: //depot/dev/client3/rdock/2013.1/src/exe/rbdock.cxx#4 $)

>  <Rbt.Library>
libRbt.so (2013.1, Build901 2013/11/27)

>  <Rbt.Parameter_File>
/export/apps/rDock/src/rDock_2013.1_src/data/scripts/dock_solv.prm

>  <Rbt.Receptor>
prm/blind_docking_80.prm

>  <SCORE>
-16.7978

>  <SCORE.INTER>
-17.3924

>  <SCORE.INTER.CONST>
1

>  <SCORE.INTER.POLAR>
0

>  <SCORE.INTER.ROT>
7

>  <SCORE.INTER.SOLV>
8.52305

>  <SCORE.INTER.VDW>
-22.7026

>  <SCORE.INTER.norm>
-0.644163

>  <SCORE.INTRA>
0.594627

>  <SCORE.INTRA.DIHEDRAL>
1.65897

>  <SCORE.INTRA.DIHEDRAL.0>
4.89803

>  <SCORE.INTRA.POLAR>
0

>  <SCORE.INTRA.POLAR.0>
0

>  <SCORE.INTRA.REPUL>
0

>  <SCORE.INTRA.REPUL.0>
0

>  <SCORE.INTRA.SOLV>
0.0172543

>  <SCORE.INTRA.SOLV.lig_0>
-48.5832

>  <SCORE.INTRA.VDW>
-0.243485

>  <SCORE.INTRA.VDW.0>
-2.39056

>  <SCORE.INTRA.norm>
0.0220232

>  <SCORE.RESTR>
0

>  <SCORE.RESTR.CAVITY>
0

>  <SCORE.RESTR.norm>
0

>  <SCORE.SYSTEM>
0

>  <SCORE.SYSTEM.CONST>
0

>  <SCORE.SYSTEM.DIHEDRAL>
0

>  <SCORE.SYSTEM.SOLV>
0

>  <SCORE.SYSTEM.norm>
0

>  <SCORE.heavy>
27

>  <SCORE.norm>
-0.62214

>  <RMSD>
6.090

$$$$
ligand
 OpenBabel11021811473D
libRbt.so/2013.1/901 2013/11/27
 27 29  0  0  0  0  0  0  0  0999 V2000
   17.5766   -7.7140  -20.5124 N   0  0  0  0  0  0  0  0  0  0  0  0
   17.0003   -6.3873  -20.7763 C   0  0  2  0  0  0  0  0  0  0  0  0
   17.7170   -5.3292  -19.9319 C   0  0  0  0  0  0  0  0  0  0  0  0
   17.9304   -4.2219  -20.4722 O   0  0  0  0  0  0  0  0  0  0  0  0
   15.5172   -6.4104  -20.4027 C   0  0  0  0  0  0  0  0  0  0  0  0
   14.6461   -6.9454  -21.5421 C   0  0  0  0  0  0  0  0  0  0  0  0
   14.4405   -8.8604  -23.6304 C   0  0  0  0  0  0  0  0  0  0  0  0
   15.0214   -8.7335  -21.8834 Se  0  0  2  0  0  0  0  0  0  0  0  0
   13.7497   -9.7538  -20.9902 C   0  0  0  0  0  0  0  0  0  0  0  0
   13.9942  -11.2602  -21.0888 C   0  0  1  0  0  0  0  0  0  0  0  0
   13.0553  -11.9286  -20.2290 O   0  0  0  0  0  0  0  0  0  0  0  0
   13.6006  -11.6919  -22.5020 C   0  0  1  0  0  0  0  0  0  0  0  0
   13.9850  -13.0514  -22.7125 O   0  0  0  0  0  0  0  0  0  0  0  0
   12.0825  -11.5936  -22.3750 C   0  0  1  0  0  0  0  0  0  0  0  0
   11.4826  -12.4122  -23.3806 O   0  0  0  0  0  0  0  0  0  0  0  0
   11.8958  -12.2628  -21.0126 C   0  0  2  0  0  0  0  0  0  0  0  0
   18.0445   -5.6527  -18.7690 O   0  0  0  0  0  0  0  0  0  0  0  0
    7.5389  -13.7319  -18.6667 N   0  0  0  0  0  0  0  0  0  0  0  0
    8.5071  -14.4836  -19.1617 C   0  0  0  0  0  0  0  0  0  0  0  0
    9.5732  -13.9562  -19.7379 N   0  0  0  0  0  0  0  0  0  0  0  0
    9.7076  -12.6249  -19.8357 C   0  0  0  0  0  0  0  0  0  0  0  0
    8.7107  -11.8030  -19.3291 C   0  0  0  0  0  0  0  0  0  0  0  0
    7.6035  -12.3960  -18.7340 C   0  0  0  0  0  0  0  0  0  0  0  0
    6.6101  -11.6430  -18.2719 N   0  0  0  0  0  0  0  0  0  0  0  0
    9.0755  -10.5448  -19.5487 N   0  0  0  0  0  0  0  0  0  0  0  0
   10.2532  -10.5703  -20.1684 C   0  0  0  0  0  0  0  0  0  0  0  0
   10.6444  -11.8323  -20.3462 N   0  0  0  0  0  0  0  0  0  0  0  0
  2  1  1  1  0  0  0
  2  5  1  0  0  0  0
  2  3  1  0  0  0  0
  3 17  1  0  0  0  0
  3  4  1  0  0  0  0
  5  6  1  0  0  0  0
  7  8  1  0  0  0  0
  8  6  1  1  0  0  0
  8  9  1  0  0  0  0
 10  9  1  6  0  0  0
 10 11  1  0  0  0  0
 10 12  1  0  0  0  0
 11 16  1  0  0  0  0
 12 13  1  1  0  0  0
 12 14  1  0  0  0  0
 14 15  1  6  0  0  0
 14 16  1  0  0  0  0
 16 27  1  1  0  0  0
 18 23  2  0  0  0  0
 18 19  1  0  0  0  0
 19 20  2  0  0  0  0
 20 21  1  0  0  0  0
 21 22  2  0  0  0  0
 21 27  1  0  0  0  0
 22 23  1  0  0  0  0
 22 25  1  0  0  0  0
 23 24  1  0  0  0  0
 25 26  2  0  0  0  0
 26 27  1  0  0  0  0
M  END
>  <CHROM.1>
-84.78221681,141.43077247,65.39030829,-156.78335093,-175.49474667,172.86322150
-111.86144447,13.05632118,-10.00601628,-20.82211028,0.40289132,0.55902702
0.71017193

>  <Name>
ligand

>  <RI>
0

>  <Rbt.Current_Directory>
/home/itssahil/PROJECTS/Mol_Feturizer/New_Systems/rnas/3E5F

>  <Rbt.Executable>
rbdock ($Id: //depot/dev/client3/rdock/2013.1/src/exe/rbdock.cxx#4 $)

>  <Rbt.Library>
libRbt.so (2013.1, Build901 2013/11/27)

>  <Rbt.Parameter_File>
/export/apps/rDock/src/rDock_2013.1_src/data/scripts/dock_solv.prm

>  <Rbt.Receptor>
prm/blind_docking_100.prm

>  <SCORE>
-14.4943

>  <SCORE.INTER>
-15.9137

>  <SCORE.INTER.CONST>
1

>  <SCORE.INTER.POLAR>
0

>  <SCORE.INTER.ROT>
7

>  <SCORE.INTER.SOLV>
8.62642

>  <SCORE.INTER.VDW>
-21.7513

>  <SCORE.INTER.norm>
-0.589398

>  <SCORE.INTRA>
1.41948

>  <SCORE.INTRA.DIHEDRAL>
1.85076

>  <SCORE.INTRA.DIHEDRAL.0>
4.89803

>  <SCORE.INTRA.POLAR>
0

>  <SCORE.INTRA.POLAR.0>
0

>  <SCORE.INTRA.REPUL>
0

>  <SCORE.INTRA.REPUL.0>
0

>  <SCORE.INTRA.SOLV>
1.42758

>  <SCORE.INTRA.SOLV.lig_0>
-48.5832

>  <SCORE.INTRA.VDW>
-0.219696

>  <SCORE.INTRA.VDW.0>
-2.39056

>  <SCORE.INTRA.norm>
0.0525732

>  <SCORE.RESTR>
0

>  <SCORE.RESTR.CAVITY>
0

>  <SCORE.RESTR.norm>
0

>  <SCORE.SYSTEM>
0

>  <SCORE.SYSTEM.CONST>
0

>  <SCORE.SYSTEM.DIHEDRAL>
0

>  <SCORE.SYSTEM.SOLV>
0

>  <SCORE.SYSTEM.norm>
0

>  <SCORE.heavy>
27

>  <SCORE.norm>
-0.536824

>  <RMSD>
6.114

$$$$
ligand
 OpenBabel11021811473D
libRbt.so/2013.1/901 2013/11/27
 27 29  0  0  0  0  0  0  0  0999 V2000
   19.0372   -6.6990  -18.8191 N   0  0  0  0  0  0  0  0  0  0  0  0
   17.6177   -7.0455  -18.6560 C   0  0  2  0  0  0  0  0  0  0  0  0
   17.3939   -7.7022  -17.2904 C   0  0  0  0  0  0  0  0  0  0  0  0
   16.2778   -7.5287  -16.7540 O   0  0  0  0  0  0  0  0  0  0  0  0
   17.2198   -8.0279  -19.7589 C   0  0  0  0  0  0  0  0  0  0  0  0
   15.7255   -8.3580  -19.7225 C   0  0  0  0  0  0  0  0  0  0  0  0
   14.5226   -8.5021  -22.2920 C   0  0  0  0  0  0  0  0  0  0  0  0
   15.2878   -9.6070  -21.0275 Se  0  0  2  0  0  0  0  0  0  0  0  0
   13.8118  -10.5597  -20.4193 C   0  0  0  0  0  0  0  0  0  0  0  0
   13.6762  -11.9464  -21.0496 C   0  0  1  0  0  0  0  0  0  0  0  0
   12.5524  -12.6102  -20.4461 O   0  0  0  0  0  0  0  0  0  0  0  0
   13.2680  -11.7430  -22.5092 C   0  0  1  0  0  0  0  0  0  0  0  0
   13.3107  -12.9939  -23.1976 O   0  0  0  0  0  0  0  0  0  0  0  0
   11.8182  -11.3124  -22.3010 C   0  0  1  0  0  0  0  0  0  0  0  0
   11.0905  -11.5477  -23.5077 O   0  0  0  0  0  0  0  0  0  0  0  0
   11.3927  -12.3435  -21.2549 C   0  0  2  0  0  0  0  0  0  0  0  0
   18.3456   -8.3550  -16.8081 O   0  0  0  0  0  0  0  0  0  0  0  0
    7.3036  -13.6573  -18.3917 N   0  0  0  0  0  0  0  0  0  0  0  0
    8.1700  -14.4428  -19.0079 C   0  0  0  0  0  0  0  0  0  0  0  0
    9.1773  -13.9535  -19.7097 N   0  0  0  0  0  0  0  0  0  0  0  0
    9.3547  -12.6280  -19.8160 C   0  0  0  0  0  0  0  0  0  0  0  0
    8.4643  -11.7712  -19.1843 C   0  0  0  0  0  0  0  0  0  0  0  0
    7.4157  -12.3245  -18.4590 C   0  0  0  0  0  0  0  0  0  0  0  0
    6.5204  -11.5363  -17.8721 N   0  0  0  0  0  0  0  0  0  0  0  0
    8.8518  -10.5268  -19.4405 N   0  0  0  0  0  0  0  0  0  0  0  0
    9.9410  -10.5941  -20.2025 C   0  0  0  0  0  0  0  0  0  0  0  0
   10.2533  -11.8692  -20.4350 N   0  0  0  0  0  0  0  0  0  0  0  0
  2  1  1  6  0  0  0
  2  5  1  0  0  0  0
  2  3  1  0  0  0  0
  3 17  1  0  0  0  0
  3  4  1  0  0  0  0
  5  6  1  0  0  0  0
  7  8  1  0  0  0  0
  8  6  1  1  0  0  0
  8  9  1  0  0  0  0
 10  9  1  1  0  0  0
 10 11  1  0  0  0  0
 10 12  1  0  0  0  0
 11 16  1  0  0  0  0
 12 13  1  6  0  0  0
 12 14  1  0  0  0  0
 14 15  1  6  0  0  0
 14 16  1  0  0  0  0
 16 27  1  1  0  0  0
 18 23  2  0  0  0  0
 18 19  1  0  0  0  0
 19 20  2  0  0  0  0
 20 21  1  0  0  0  0
 21 22  2  0  0  0  0
 21 27  1  0  0  0  0
 22 23  1  0  0  0  0
 22 25  1  0  0  0  0
 23 24  1  0  0  0  0
 25 26  2  0  0  0  0
 26 27  1  0  0  0  0
M  END
>  <CHROM.1>
-175.69694828,149.51086460,-177.60746780,-102.32681753,-156.11471694,176.66124833
-86.80797397,13.02345063,-10.54529075,-20.12237313,0.23607394,0.44459545
1.18888163

>  <Name>
ligand

>  <RI>
0

>  <Rbt.Current_Directory>
/home/itssahil/PROJECTS/Mol_Feturizer/New_Systems/rnas/3E5F

>  <Rbt.Executable>
rbdock ($Id: //depot/dev/client3/rdock/2013.1/src/exe/rbdock.cxx#4 $)

>  <Rbt.Library>
libRbt.so (2013.1, Build901 2013/11/27)

>  <Rbt.Parameter_File>
/export/apps/rDock/src/rDock_2013.1_src/data/scripts/dock_solv.prm

>  <Rbt.Receptor>
prm/pocket_docking_6.prm

>  <SCORE>
-16.5376

>  <SCORE.INTER>
-17.3954

>  <SCORE.INTER.CONST>
1

>  <SCORE.INTER.POLAR>
0

>  <SCORE.INTER.ROT>
7

>  <SCORE.INTER.SOLV>
8.1323

>  <SCORE.INTER.VDW>
-22.5744

>  <SCORE.INTER.norm>
-0.644274

>  <SCORE.INTRA>
0.857786

>  <SCORE.INTRA.DIHEDRAL>
0.840273

>  <SCORE.INTRA.DIHEDRAL.0>
4.89803

>  <SCORE.INTRA.POLAR>
0

>  <SCORE.INTRA.POLAR.0>
0

>  <SCORE.INTRA.REPUL>
0

>  <SCORE.INTRA.REPUL.0>
0

>  <SCORE.INTRA.SOLV>
-0.0540903

>  <SCORE.INTRA.SOLV.lig_0>
-48.5832

>  <SCORE.INTRA.VDW>
0.464695

>  <SCORE.INTRA.VDW.0>
-2.39056

>  <SCORE.INTRA.norm>
0.0317698

>  <SCORE.RESTR>
0

>  <SCORE.RESTR.CAVITY>
0

>  <SCORE.RESTR.norm>
0

>  <SCORE.SYSTEM>
0

>  <SCORE.SYSTEM.CONST>
0

>  <SCORE.SYSTEM.DIHEDRAL>
0

>  <SCORE.SYSTEM.SOLV>
0

>  <SCORE.SYSTEM.norm>
0

>  <SCORE.heavy>
27

>  <SCORE.norm>
-0.612504

>  <RMSD>
6.114

$$$$
ligand
 OpenBabel11021811473D
libRbt.so/2013.1/901 2013/11/27
 27 29  0  0  0  0  0  0  0  0999 V2000
   17.0537   -3.9747  -22.0794 N   0  0  0  0  0  0  0  0  0  0  0  0
   15.8776   -4.8562  -22.0387 C   0  0  2  0  0  0  0  0  0  0  0  0
   15.3204   -4.9182  -20.6133 C   0  0  0  0  0  0  0  0  0  0  0  0
   16.1466   -5.0745  -19.6879 O   0  0  0  0  0  0  0  0  0  0  0  0
   16.2980   -6.2602  -22.4770 C   0  0  0  0  0  0  0  0  0  0  0  0
   15.1473   -7.2641  -22.3694 C   0  0  0  0  0  0  0  0  0  0  0  0
   16.0619   -8.4276  -19.9446 C   0  0  0  0  0  0  0  0  0  0  0  0
   14.6187   -7.4834  -20.6011 Se  0  0  2  0  0  0  0  0  0  0  0  0
   13.2811   -8.7742  -20.5716 C   0  0  0  0  0  0  0  0  0  0  0  0
   13.6947  -10.0989  -21.2141 C   0  0  1  0  0  0  0  0  0  0  0  0
   12.9709  -11.1607  -20.5687 O   0  0  0  0  0  0  0  0  0  0  0  0
   13.1699  -10.0895  -22.6503 C   0  0  1  0  0  0  0  0  0  0  0  0
   13.6876  -11.2177  -23.3573 O   0  0  0  0  0  0  0  0  0  0  0  0
   11.6825  -10.2886  -22.3697 C   0  0  1  0  0  0  0  0  0  0  0  0
   11.0580  -10.8086  -23.5447 O   0  0  0  0  0  0  0  0  0  0  0  0
   11.7664  -11.3969  -21.3194 C   0  0  2  0  0  0  0  0  0  0  0  0
   14.0808   -4.8176  -20.4801 O   0  0  0  0  0  0  0  0  0  0  0  0
    8.0415  -14.2770  -19.2039 N   0  0  0  0  0  0  0  0  0  0  0  0
    9.0277  -14.6528  -20.0000 C   0  0  0  0  0  0  0  0  0  0  0  0
    9.9147  -13.7904  -20.4650 N   0  0  0  0  0  0  0  0  0  0  0  0
    9.8415  -12.4919  -20.1359 C   0  0  0  0  0  0  0  0  0  0  0  0
    8.8189  -12.0592  -19.3035 C   0  0  0  0  0  0  0  0  0  0  0  0
    7.9036  -12.9961  -18.8384 C   0  0  0  0  0  0  0  0  0  0  0  0
    6.8880  -12.6137  -18.0705 N   0  0  0  0  0  0  0  0  0  0  0  0
    8.9646  -10.7499  -19.1331 N   0  0  0  0  0  0  0  0  0  0  0  0
   10.0341  -10.3709  -19.8288 C   0  0  0  0  0  0  0  0  0  0  0  0
   10.5731  -11.4252  -20.4414 N   0  0  0  0  0  0  0  0  0  0  0  0
  2  1  1  1  0  0  0
  2  5  1  0  0  0  0
  2  3  1  0  0  0  0
  3 17  1  0  0  0  0
  3  4  1  0  0  0  0
  5  6  1  0  0  0  0
  7  8  1  0  0  0  0
  8  6  1  6  0  0  0
  8  9  1  0  0  0  0
 10  9  1  1  0  0  0
 10 11  1  0  0  0  0
 10 12  1  0  0  0  0
 11 16  1  0  0  0  0
 12 13  1  6  0  0  0
 12 14  1  0  0  0  0
 14 15  1  6  0  0  0
 14 16  1  0  0  0  0
 16 27  1  1  0  0  0
 18 23  2  0  0  0  0
 18 19  1  0  0  0  0
 19 20  2  0  0  0  0
 20 21  1  0  0  0  0
 21 22  2  0  0  0  0
 21 27  1  0  0  0  0
 22 23  1  0  0  0  0
 22 25  1  0  0  0  0
 23 24  1  0  0  0  0
 25 26  2  0  0  0  0
 26 27  1  0  0  0  0
M  END
>  <CHROM.1>
176.06292777,-45.46023982,-64.19344152,-71.57492829,55.47936022,150.34966641
-109.84447865,12.72541141,-9.31838475,-20.79091307,0.46532532,0.69601971
0.71221233

>  <Name>
ligand

>  <RI>
0

>  <Rbt.Current_Directory>
/home/itssahil/PROJECTS/Mol_Feturizer/New_Systems/rnas/3E5F

>  <Rbt.Executable>
rbdock ($Id: //depot/dev/client3/rdock/2013.1/src/exe/rbdock.cxx#4 $)

>  <Rbt.Library>
libRbt.so (2013.1, Build901 2013/11/27)

>  <Rbt.Parameter_File>
/export/apps/rDock/src/rDock_2013.1_src/data/scripts/dock_solv.prm

>  <Rbt.Receptor>
prm/blind_docking_60.prm

>  <SCORE>
-12.0009

>  <SCORE.INTER>
-11.9939

>  <SCORE.INTER.CONST>
1

>  <SCORE.INTER.POLAR>
0

>  <SCORE.INTER.ROT>
7

>  <SCORE.INTER.SOLV>
10.7578

>  <SCORE.INTER.VDW>
-19.8486

>  <SCORE.INTER.norm>
-0.444219

>  <SCORE.INTRA>
-0.00694916

>  <SCORE.INTRA.DIHEDRAL>
0.642092

>  <SCORE.INTRA.DIHEDRAL.0>
4.89803

>  <SCORE.INTRA.POLAR>
0

>  <SCORE.INTRA.POLAR.0>
0

>  <SCORE.INTRA.REPUL>
0

>  <SCORE.INTRA.REPUL.0>
0

>  <SCORE.INTRA.SOLV>
0.00192702

>  <SCORE.INTRA.SOLV.lig_0>
-48.5832

>  <SCORE.INTRA.VDW>
-0.328959

>  <SCORE.INTRA.VDW.0>
-2.39056

>  <SCORE.INTRA.norm>
-0.000257376

>  <SCORE.RESTR>
0

>  <SCORE.RESTR.CAVITY>
0

>  <SCORE.RESTR.norm>
0

>  <SCORE.SYSTEM>
0

>  <SCORE.SYSTEM.CONST>
0

>  <SCORE.SYSTEM.DIHEDRAL>
0

>  <SCORE.SYSTEM.SOLV>
0

>  <SCORE.SYSTEM.norm>
0

>  <SCORE.heavy>
27

>  <SCORE.norm>
-0.444476

>  <RMSD>
6.122

$$$$
ligand
 OpenBabel11021811473D
libRbt.so/2013.1/901 2013/11/27
 27 29  0  0  0  0  0  0  0  0999 V2000
   13.0163   -3.7485  -18.8141 N   0  0  0  0  0  0  0  0  0  0  0  0
   13.9962   -4.6867  -19.3811 C   0  0  2  0  0  0  0  0  0  0  0  0
   15.1475   -3.9114  -20.0289 C   0  0  0  0  0  0  0  0  0  0  0  0
   16.3068   -4.3165  -19.7937 O   0  0  0  0  0  0  0  0  0  0  0  0
   13.3032   -5.5414  -20.4438 C   0  0  0  0  0  0  0  0  0  0  0  0
   14.2660   -6.5346  -21.0995 C   0  0  0  0  0  0  0  0  0  0  0  0
   16.0371   -8.6060  -20.2978 C   0  0  0  0  0  0  0  0  0  0  0  0
   14.2470   -8.1662  -20.2095 Se  0  0  2  0  0  0  0  0  0  0  0  0
   13.4953   -9.4217  -21.3560 C   0  0  0  0  0  0  0  0  0  0  0  0
   13.9605  -10.8532  -21.0860 C   0  0  1  0  0  0  0  0  0  0  0  0
   13.1156  -11.4199  -20.0698 O   0  0  0  0  0  0  0  0  0  0  0  0
   13.6592  -11.6724  -22.3415 C   0  0  1  0  0  0  0  0  0  0  0  0
   14.2431  -12.9702  -22.2188 O   0  0  0  0  0  0  0  0  0  0  0  0
   12.1411  -11.7700  -22.2126 C   0  0  1  0  0  0  0  0  0  0  0  0
   11.6857  -12.8898  -22.9740 O   0  0  0  0  0  0  0  0  0  0  0  0
   12.0317  -12.1032  -20.7241 C   0  0  2  0  0  0  0  0  0  0  0  0
   14.8448   -2.9257  -20.7368 O   0  0  0  0  0  0  0  0  0  0  0  0
    7.5175  -13.7035  -18.7990 N   0  0  0  0  0  0  0  0  0  0  0  0
    8.5392  -14.4262  -19.2248 C   0  0  0  0  0  0  0  0  0  0  0  0
    9.6406  -13.8667  -19.6942 N   0  0  0  0  0  0  0  0  0  0  0  0
    9.7573  -12.5314  -19.7501 C   0  0  0  0  0  0  0  0  0  0  0  0
    8.7047  -11.7392  -19.3137 C   0  0  0  0  0  0  0  0  0  0  0  0
    7.5618  -12.3654  -18.8305 C   0  0  0  0  0  0  0  0  0  0  0  0
    6.5179  -11.6411  -18.4396 N   0  0  0  0  0  0  0  0  0  0  0  0
    9.0627  -10.4699  -19.4725 N   0  0  0  0  0  0  0  0  0  0  0  0
   10.2898  -10.4602  -19.9880 C   0  0  0  0  0  0  0  0  0  0  0  0
   10.7192  -11.7107  -20.1594 N   0  0  0  0  0  0  0  0  0  0  0  0
  2  1  1  6  0  0  0
  2  5  1  0  0  0  0
  2  3  1  0  0  0  0
  3 17  1  0  0  0  0
  3  4  1  0  0  0  0
  5  6  1  0  0  0  0
  7  8  1  0  0  0  0
  8  6  1  6  0  0  0
  8  9  1  0  0  0  0
 10  9  1  6  0  0  0
 10 11  1  0  0  0  0
 10 12  1  0  0  0  0
 11 16  1  0  0  0  0
 12 13  1  1  0  0  0
 12 14  1  0  0  0  0
 14 15  1  6  0  0  0
 14 16  1  0  0  0  0
 16 27  1  1  0  0  0
 18 23  2  0  0  0  0
 18 19  1  0  0  0  0
 19 20  2  0  0  0  0
 20 21  1  0  0  0  0
 21 22  2  0  0  0  0
 21 27  1  0  0  0  0
 22 23  1  0  0  0  0
 22 25  1  0  0  0  0
 23 24  1  0  0  0  0
 25 26  2  0  0  0  0
 26 27  1  0  0  0  0
M  END
>  <CHROM.1>
179.15928225,135.48341093,91.85750215,-141.77543643,153.57931414,86.16727305
-129.90875740,12.42549754,-9.49399767,-20.29739623,0.86983263,0.41983633
0.29380897

>  <Name>
ligand

>  <RI>
0

>  <Rbt.Current_Directory>
/home/itssahil/PROJECTS/Mol_Feturizer/New_Systems/rnas/3E5F

>  <Rbt.Executable>
rbdock ($Id: //depot/dev/client3/rdock/2013.1/src/exe/rbdock.cxx#4 $)

>  <Rbt.Library>
libRbt.so (2013.1, Build901 2013/11/27)

>  <Rbt.Parameter_File>
/export/apps/rDock/src/rDock_2013.1_src/data/scripts/dock_solv.prm

>  <Rbt.Receptor>
prm/blind_docking_80.prm

>  <SCORE>
-11.0117

>  <SCORE.INTER>
-14.3057

>  <SCORE.INTER.CONST>
1

>  <SCORE.INTER.POLAR>
0

>  <SCORE.INTER.ROT>
7

>  <SCORE.INTER.SOLV>
9.51398

>  <SCORE.INTER.VDW>
-20.9751

>  <SCORE.INTER.norm>
-0.52984

>  <SCORE.INTRA>
3.29336

>  <SCORE.INTRA.DIHEDRAL>
5.55159

>  <SCORE.INTRA.DIHEDRAL.0>
4.89803

>  <SCORE.INTRA.POLAR>
0

>  <SCORE.INTRA.POLAR.0>
0

>  <SCORE.INTRA.REPUL>
0

>  <SCORE.INTRA.REPUL.0>
0

>  <SCORE.INTRA.SOLV>
-0.0247889

>  <SCORE.INTRA.SOLV.lig_0>
-48.5832

>  <SCORE.INTRA.VDW>
0.529964

>  <SCORE.INTRA.VDW.0>
-2.39056

>  <SCORE.INTRA.norm>
0.121976

>  <SCORE.RESTR>
0.000592227

>  <SCORE.RESTR.CAVITY>
0.000592227

>  <SCORE.RESTR.norm>
2.19343e-05

>  <SCORE.SYSTEM>
0

>  <SCORE.SYSTEM.CONST>
0

>  <SCORE.SYSTEM.DIHEDRAL>
0

>  <SCORE.SYSTEM.SOLV>
0

>  <SCORE.SYSTEM.norm>
0

>  <SCORE.heavy>
27

>  <SCORE.norm>
-0.407841

>  <RMSD>
6.122

$$$$
ligand
 OpenBabel11021811473D
libRbt.so/2013.1/901 2013/11/27
 27 29  0  0  0  0  0  0  0  0999 V2000
   15.0690   -5.5029  -20.4286 N   0  0  0  0  0  0  0  0  0  0  0  0
   15.4624   -6.9041  -20.2194 C   0  0  2  0  0  0  0  0  0  0  0  0
   16.5897   -7.2800  -21.1858 C   0  0  0  0  0  0  0  0  0  0  0  0
   17.6149   -7.7948  -20.6883 O   0  0  0  0  0  0  0  0  0  0  0  0
   14.2519   -7.8011  -20.4836 C   0  0  0  0  0  0  0  0  0  0  0  0
   14.5796   -9.2826  -20.2807 C   0  0  0  0  0  0  0  0  0  0  0  0
   12.5598  -10.6944  -18.8675 C   0  0  0  0  0  0  0  0  0  0  0  0
   13.0878  -10.3441  -20.6007 Se  0  0  2  0  0  0  0  0  0  0  0  0
   13.6947  -12.0125  -21.1524 C   0  0  0  0  0  0  0  0  0  0  0  0
   13.4958  -12.2729  -22.6461 C   0  0  1  0  0  0  0  0  0  0  0  0
   12.4831  -13.2822  -22.7990 O   0  0  0  0  0  0  0  0  0  0  0  0
   12.8784  -11.0102  -23.2482 C   0  0  1  0  0  0  0  0  0  0  0  0
   12.8452  -11.1246  -24.6717 O   0  0  0  0  0  0  0  0  0  0  0  0
   11.4658  -11.1338  -22.6827 C   0  0  1  0  0  0  0  0  0  0  0  0
   10.5768  -10.3624  -23.4925 O   0  0  0  0  0  0  0  0  0  0  0  0
   11.2144  -12.6193  -22.9447 C   0  0  2  0  0  0  0  0  0  0  0  0
   16.4066   -7.0362  -22.3988 O   0  0  0  0  0  0  0  0  0  0  0  0
    8.0889  -11.7627  -18.9270 N   0  0  0  0  0  0  0  0  0  0  0  0
    8.9199  -10.9251  -19.5231 C   0  0  0  0  0  0  0  0  0  0  0  0
    9.6616  -11.2945  -20.5528 N   0  0  0  0  0  0  0  0  0  0  0  0
    9.5896  -12.5456  -21.0318 C   0  0  0  0  0  0  0  0  0  0  0  0
    8.7296  -13.4540  -20.4308 C   0  0  0  0  0  0  0  0  0  0  0  0
    7.9693  -13.0283  -19.3480 C   0  0  0  0  0  0  0  0  0  0  0  0
    7.1631  -13.8799  -18.7218 N   0  0  0  0  0  0  0  0  0  0  0  0
    8.8433  -14.6071  -21.0804 N   0  0  0  0  0  0  0  0  0  0  0  0
    9.7377  -14.4348  -22.0509 C   0  0  0  0  0  0  0  0  0  0  0  0
   10.1959  -13.1831  -22.0279 N   0  0  0  0  0  0  0  0  0  0  0  0
  2  1  1  6  0  0  0
  2  5  1  0  0  0  0
  2  3  1  0  0  0  0
  3 17  1  0  0  0  0
  3  4  1  0  0  0  0
  5  6  1  0  0  0  0
  7  8  1  0  0  0  0
  8  6  1  1  0  0  0
  8  9  1  0  0  0  0
 10  9  1  1  0  0  0
 10 11  1  0  0  0  0
 10 12  1  0  0  0  0
 11 16  1  0  0  0  0
 12 13  1  6  0  0  0
 12 14  1  0  0  0  0
 14 15  1  6  0  0  0
 14 16  1  0  0  0  0
 16 27  1  1  0  0  0
 18 23  2  0  0  0  0
 18 19  1  0  0  0  0
 19 20  2  0  0  0  0
 20 21  1  0  0  0  0
 21 22  2  0  0  0  0
 21 27  1  0  0  0  0
 22 23  1  0  0  0  0
 22 25  1  0  0  0  0
 23 24  1  0  0  0  0
 25 26  2  0  0  0  0
 26 27  1  0  0  0  0
M  END
>  <CHROM.1>
-179.77891162,127.81610008,179.71192459,-101.53453489,-106.55893191,-110.56232680
116.06823354,12.21956460,-10.80788495,-21.14843384,0.33652513,0.60769594
0.94830078

>  <Name>
ligand

>  <RI>
0

>  <Rbt.Current_Directory>
/home/itssahil/PROJECTS/Mol_Feturizer/New_Systems/rnas/3E5F

>  <Rbt.Executable>
rbdock ($Id: //depot/dev/client3/rdock/2013.1/src/exe/rbdock.cxx#4 $)

>  <Rbt.Library>
libRbt.so (2013.1, Build901 2013/11/27)

>  <Rbt.Parameter_File>
/export/apps/rDock/src/rDock_2013.1_src/data/scripts/dock_solv.prm

>  <Rbt.Receptor>
prm/blind_docking_60.prm

>  <SCORE>
-10.292

>  <SCORE.INTER>
-12.6984

>  <SCORE.INTER.CONST>
1

>  <SCORE.INTER.POLAR>
0

>  <SCORE.INTER.ROT>
7

>  <SCORE.INTER.SOLV>
11.2906

>  <SCORE.INTER.VDW>
-20.4958

>  <SCORE.INTER.norm>
-0.470312

>  <SCORE.INTRA>
2.40637

>  <SCORE.INTRA.DIHEDRAL>
5.72047

>  <SCORE.INTRA.DIHEDRAL.0>
4.89803

>  <SCORE.INTRA.POLAR>
0

>  <SCORE.INTRA.POLAR.0>
0

>  <SCORE.INTRA.REPUL>
0

>  <SCORE.INTRA.REPUL.0>
0

>  <SCORE.INTRA.SOLV>
0.101719

>  <SCORE.INTRA.SOLV.lig_0>
-48.5832

>  <SCORE.INTRA.VDW>
-0.504728

>  <SCORE.INTRA.VDW.0>
-2.39056

>  <SCORE.INTRA.norm>
0.0891247

>  <SCORE.RESTR>
0

>  <SCORE.RESTR.CAVITY>
0

>  <SCORE.RESTR.norm>
0

>  <SCORE.SYSTEM>
0

>  <SCORE.SYSTEM.CONST>
0

>  <SCORE.SYSTEM.DIHEDRAL>
0

>  <SCORE.SYSTEM.SOLV>
0

>  <SCORE.SYSTEM.norm>
0

>  <SCORE.heavy>
27

>  <SCORE.norm>
-0.381187

>  <RMSD>
6.131

$$$$
ligand
 OpenBabel11021811473D
libRbt.so/2013.1/901 2013/11/27
 27 29  0  0  0  0  0  0  0  0999 V2000
   16.7111   -5.5498  -20.1861 N   0  0  0  0  0  0  0  0  0  0  0  0
   16.3371   -5.0491  -21.5169 C   0  0  2  0  0  0  0  0  0  0  0  0
   14.9493   -4.4033  -21.4610 C   0  0  0  0  0  0  0  0  0  0  0  0
   14.6740   -3.5731  -22.3546 O   0  0  0  0  0  0  0  0  0  0  0  0
   16.3071   -6.2243  -22.4957 C   0  0  0  0  0  0  0  0  0  0  0  0
   15.1204   -7.1564  -22.2378 C   0  0  0  0  0  0  0  0  0  0  0  0
   16.5284   -8.5470  -20.1996 C   0  0  0  0  0  0  0  0  0  0  0  0
   14.9798   -7.5705  -20.4313 Se  0  0  2  0  0  0  0  0  0  0  0  0
   13.6774   -8.8856  -20.2572 C   0  0  0  0  0  0  0  0  0  0  0  0
   13.9945  -10.1671  -21.0291 C   0  0  1  0  0  0  0  0  0  0  0  0
   13.1826  -11.2284  -20.4980 O   0  0  0  0  0  0  0  0  0  0  0  0
   13.4896   -9.9716  -22.4592 C   0  0  1  0  0  0  0  0  0  0  0  0
   13.9267  -11.0598  -23.2748 O   0  0  0  0  0  0  0  0  0  0  0  0
   11.9880  -10.0805  -22.2065 C   0  0  1  0  0  0  0  0  0  0  0  0
   11.3394  -10.4286  -23.4310 O   0  0  0  0  0  0  0  0  0  0  0  0
   11.9726  -11.2923  -21.2739 C   0  0  2  0  0  0  0  0  0  0  0  0
   14.1977   -4.7459  -20.5218 O   0  0  0  0  0  0  0  0  0  0  0  0
    8.3713  -14.1916  -18.9784 N   0  0  0  0  0  0  0  0  0  0  0  0
    9.3866  -14.5755  -19.7329 C   0  0  0  0  0  0  0  0  0  0  0  0
   10.2346  -13.7064  -20.2546 N   0  0  0  0  0  0  0  0  0  0  0  0
   10.0901  -12.3919  -20.0283 C   0  0  0  0  0  0  0  0  0  0  0  0
    9.0349  -11.9504  -19.2424 C   0  0  0  0  0  0  0  0  0  0  0  0
    8.1626  -12.8953  -18.7150 C   0  0  0  0  0  0  0  0  0  0  0  0
    7.1179  -12.5085  -17.9895 N   0  0  0  0  0  0  0  0  0  0  0  0
    9.1107  -10.6261  -19.1729 N   0  0  0  0  0  0  0  0  0  0  0  0
   10.1690  -10.2465  -19.8852 C   0  0  0  0  0  0  0  0  0  0  0  0
   10.7701  -11.3152  -20.4084 N   0  0  0  0  0  0  0  0  0  0  0  0
  2  1  1  1  0  0  0
  2  5  1  0  0  0  0
  2  3  1  0  0  0  0
  3 17  1  0  0  0  0
  3  4  1  0  0  0  0
  5  6  1  0  0  0  0
  7  8  1  0  0  0  0
  8  6  1  6  0  0  0
  8  9  1  0  0  0  0
 10  9  1  1  0  0  0
 10 11  1  0  0  0  0
 10 12  1  0  0  0  0
 11 16  1  0  0  0  0
 12 13  1  6  0  0  0
 12 14  1  0  0  0  0
 14 15  1  6  0  0  0
 14 16  1  0  0  0  0
 16 27  1  1  0  0  0
 18 23  2  0  0  0  0
 18 19  1  0  0  0  0
 19 20  2  0  0  0  0
 20 21  1  0  0  0  0
 21 22  2  0  0  0  0
 21 27  1  0  0  0  0
 22 23  1  0  0  0  0
 22 25  1  0  0  0  0
 23 24  1  0  0  0  0
 25 26  2  0  0  0  0
 26 27  1  0  0  0  0
M  END
>  <CHROM.1>
71.13903263,157.54090987,-47.60310358,-66.23792028,59.73607249,161.79542495
-97.15146267,12.89478566,-9.26336053,-20.74419725,0.64863078,0.57348378,0.38761037

>  <Name>
ligand

>  <RI>
0

>  <Rbt.Current_Directory>
/home/itssahil/PROJECTS/Mol_Feturizer/New_Systems/rnas/3E5F

>  <Rbt.Executable>
rbdock ($Id: //depot/dev/client3/rdock/2013.1/src/exe/rbdock.cxx#4 $)

>  <Rbt.Library>
libRbt.so (2013.1, Build901 2013/11/27)

>  <Rbt.Parameter_File>
/export/apps/rDock/src/rDock_2013.1_src/data/scripts/dock_solv.prm

>  <Rbt.Receptor>
prm/blind_docking_80.prm

>  <SCORE>
-10.0144

>  <SCORE.INTER>
-12.5005

>  <SCORE.INTER.CONST>
1

>  <SCORE.INTER.POLAR>
0

>  <SCORE.INTER.ROT>
7

>  <SCORE.INTER.SOLV>
8.02489

>  <SCORE.INTER.VDW>
-19.2753

>  <SCORE.INTER.norm>
-0.462983

>  <SCORE.INTRA>
2.48619

>  <SCORE.INTRA.DIHEDRAL>
0.244976

>  <SCORE.INTRA.DIHEDRAL.0>
4.89803

>  <SCORE.INTRA.POLAR>
0

>  <SCORE.INTRA.POLAR.0>
0

>  <SCORE.INTRA.REPUL>
0

>  <SCORE.INTRA.REPUL.0>
0

>  <SCORE.INTRA.SOLV>
2.82021

>  <SCORE.INTRA.SOLV.lig_0>
-48.5832

>  <SCORE.INTRA.VDW>
0.953596

>  <SCORE.INTRA.VDW.0>
-2.39056

>  <SCORE.INTRA.norm>
0.092081

>  <SCORE.RESTR>
0

>  <SCORE.RESTR.CAVITY>
0

>  <SCORE.RESTR.norm>
0

>  <SCORE.SYSTEM>
0

>  <SCORE.SYSTEM.CONST>
0

>  <SCORE.SYSTEM.DIHEDRAL>
0

>  <SCORE.SYSTEM.SOLV>
0

>  <SCORE.SYSTEM.norm>
0

>  <SCORE.heavy>
27

>  <SCORE.norm>
-0.370902

>  <RMSD>
6.137

$$$$
ligand
 OpenBabel11021811473D
libRbt.so/2013.1/901 2013/11/27
 27 29  0  0  0  0  0  0  0  0999 V2000
   16.5665   -5.8435  -21.9235 N   0  0  0  0  0  0  0  0  0  0  0  0
   16.3770   -4.3934  -22.0759 C   0  0  2  0  0  0  0  0  0  0  0  0
   17.3634   -3.6406  -21.1779 C   0  0  0  0  0  0  0  0  0  0  0  0
   17.6612   -4.1770  -20.0883 O   0  0  0  0  0  0  0  0  0  0  0  0
   14.9476   -4.0367  -21.6644 C   0  0  0  0  0  0  0  0  0  0  0  0
   14.6563   -4.4179  -20.2107 C   0  0  0  0  0  0  0  0  0  0  0  0
   12.8001   -4.9020  -18.1152 C   0  0  0  0  0  0  0  0  0  0  0  0
   12.8388   -4.7071  -19.9499 Se  0  0  2  0  0  0  0  0  0  0  0  0
   12.4587   -6.4357  -20.5189 C   0  0  0  0  0  0  0  0  0  0  0  0
   13.6620   -7.3777  -20.4608 C   0  0  1  0  0  0  0  0  0  0  0  0
   13.8745   -7.7569  -19.0902 O   0  0  0  0  0  0  0  0  0  0  0  0
   13.2571   -8.6742  -21.1632 C   0  0  1  0  0  0  0  0  0  0  0  0
   14.4000   -9.5189  -21.3065 O   0  0  0  0  0  0  0  0  0  0  0  0
   12.3176   -9.2444  -20.1036 C   0  0  1  0  0  0  0  0  0  0  0  0
   12.2075  -10.6556  -20.2977 O   0  0  0  0  0  0  0  0  0  0  0  0
   13.1534   -8.9787  -18.8509 C   0  0  2  0  0  0  0  0  0  0  0  0
   17.7908   -2.5417  -21.5950 O   0  0  0  0  0  0  0  0  0  0  0  0
    8.7081   -7.3620  -16.7844 N   0  0  0  0  0  0  0  0  0  0  0  0
    9.1262   -7.2593  -18.0342 C   0  0  0  0  0  0  0  0  0  0  0  0
   10.3012   -7.7282  -18.4165 N   0  0  0  0  0  0  0  0  0  0  0  0
   11.1136   -8.3331  -17.5367 C   0  0  0  0  0  0  0  0  0  0  0  0
   10.7099   -8.4581  -16.2148 C   0  0  0  0  0  0  0  0  0  0  0  0
    9.4688   -7.9488  -15.8514 C   0  0  0  0  0  0  0  0  0  0  0  0
    9.0638   -8.0151  -14.5869 N   0  0  0  0  0  0  0  0  0  0  0  0
   11.6787   -9.0830  -15.5550 N   0  0  0  0  0  0  0  0  0  0  0  0
   12.6538   -9.3416  -16.4231 C   0  0  0  0  0  0  0  0  0  0  0  0
   12.3172   -8.8887  -17.6309 N   0  0  0  0  0  0  0  0  0  0  0  0
  2  1  1  1  0  0  0
  2  5  1  0  0  0  0
  2  3  1  0  0  0  0
  3 17  1  0  0  0  0
  3  4  1  0  0  0  0
  5  6  1  0  0  0  0
  7  8  1  0  0  0  0
  8  6  1  6  0  0  0
  8  9  1  0  0  0  0
 10  9  1  1  0  0  0
 10 11  1  0  0  0  0
 10 12  1  0  0  0  0
 11 16  1  0  0  0  0
 12 13  1  1  0  0  0
 12 14  1  0  0  0  0
 14 15  1  6  0  0  0
 14 16  1  0  0  0  0
 16 27  1  1  0  0  0
 18 23  2  0  0  0  0
 18 19  1  0  0  0  0
 19 20  2  0  0  0  0
 20 21  1  0  0  0  0
 21 22  2  0  0  0  0
 21 27  1  0  0  0  0
 22 23  1  0  0  0  0
 22 25  1  0  0  0  0
 23 24  1  0  0  0  0
 25 26  2  0  0  0  0
 26 27  1  0  0  0  0
M  END
>  <CHROM.1>
59.86825409,-33.50707622,-154.45309985,-172.51313670,25.44628817,76.51923092
81.66851416,13.06675753,-6.65376305,-19.27972650,-0.46048555,-0.70917448
-3.01038157

>  <Name>
ligand

>  <RI>
0

>  <Rbt.Current_Directory>
/home/itssahil/PROJECTS/Mol_Feturizer/New_Systems/rnas/3E5F

>  <Rbt.Executable>
rbdock ($Id: //depot/dev/client3/rdock/2013.1/src/exe/rbdock.cxx#4 $)

>  <Rbt.Library>
libRbt.so (2013.1, Build901 2013/11/27)

>  <Rbt.Parameter_File>
/export/apps/rDock/src/rDock_2013.1_src/data/scripts/dock_solv.prm

>  <Rbt.Receptor>
prm/pocket_docking_6.prm

>  <SCORE>
-8.83856

>  <SCORE.INTER>
-10.5754

>  <SCORE.INTER.CONST>
1

>  <SCORE.INTER.POLAR>
0

>  <SCORE.INTER.ROT>
7

>  <SCORE.INTER.SOLV>
6.25644

>  <SCORE.INTER.VDW>
-17.4024

>  <SCORE.INTER.norm>
-0.391682

>  <SCORE.INTRA>
1.73684

>  <SCORE.INTRA.DIHEDRAL>
2.28808

>  <SCORE.INTRA.DIHEDRAL.0>
4.89803

>  <SCORE.INTRA.POLAR>
0

>  <SCORE.INTRA.POLAR.0>
0

>  <SCORE.INTRA.REPUL>
0

>  <SCORE.INTRA.REPUL.0>
0

>  <SCORE.INTRA.SOLV>
1.91223

>  <SCORE.INTRA.SOLV.lig_0>
-48.5832

>  <SCORE.INTRA.VDW>
-0.363316

>  <SCORE.INTRA.VDW.0>
-2.39056

>  <SCORE.INTRA.norm>
0.0643275

>  <SCORE.RESTR>
0

>  <SCORE.RESTR.CAVITY>
0

>  <SCORE.RESTR.norm>
0

>  <SCORE.SYSTEM>
0

>  <SCORE.SYSTEM.CONST>
0

>  <SCORE.SYSTEM.DIHEDRAL>
0

>  <SCORE.SYSTEM.SOLV>
0

>  <SCORE.SYSTEM.norm>
0

>  <SCORE.heavy>
27

>  <SCORE.norm>
-0.327354

>  <RMSD>
6.137

$$$$
ligand
 OpenBabel11021811473D
libRbt.so/2013.1/901 2013/11/27
 27 29  0  0  0  0  0  0  0  0999 V2000
   17.4373   -5.2413  -21.4272 N   0  0  0  0  0  0  0  0  0  0  0  0
   17.0946   -6.6302  -21.7668 C   0  0  2  0  0  0  0  0  0  0  0  0
   16.0225   -6.6513  -22.8606 C   0  0  0  0  0  0  0  0  0  0  0  0
   15.6173   -5.5446  -23.2786 O   0  0  0  0  0  0  0  0  0  0  0  0
   16.5524   -7.3245  -20.5162 C   0  0  0  0  0  0  0  0  0  0  0  0
   15.3605   -6.5756  -19.9146 C   0  0  0  0  0  0  0  0  0  0  0  0
   12.7792   -5.4390  -20.2546 C   0  0  0  0  0  0  0  0  0  0  0  0
   13.8564   -6.7425  -20.9936 Se  0  0  2  0  0  0  0  0  0  0  0  0
   12.9700   -8.2951  -20.4838 C   0  0  0  0  0  0  0  0  0  0  0  0
   13.6079   -9.5723  -21.0320 C   0  0  1  0  0  0  0  0  0  0  0  0
   12.9993  -10.6991  -20.3783 O   0  0  0  0  0  0  0  0  0  0  0  0
   13.1843   -9.6983  -22.4959 C   0  0  1  0  0  0  0  0  0  0  0  0
   13.9017  -10.7688  -23.1120 O   0  0  0  0  0  0  0  0  0  0  0  0
   11.7243  -10.0971  -22.2956 C   0  0  1  0  0  0  0  0  0  0  0  0
   11.2593  -10.7501  -23.4782 O   0  0  0  0  0  0  0  0  0  0  0  0
   11.8930  -11.1372  -21.1872 C   0  0  2  0  0  0  0  0  0  0  0  0
   15.6245   -7.7718  -23.2482 O   0  0  0  0  0  0  0  0  0  0  0  0
    8.2538  -14.3800  -19.4887 N   0  0  0  0  0  0  0  0  0  0  0  0
    9.3023  -14.6378  -20.2513 C   0  0  0  0  0  0  0  0  0  0  0  0
   10.1556  -13.6926  -20.6051 N   0  0  0  0  0  0  0  0  0  0  0  0
    9.9825  -12.4278  -20.1926 C   0  0  0  0  0  0  0  0  0  0  0  0
    8.8920  -12.1182  -19.3920 C   0  0  0  0  0  0  0  0  0  0  0  0
    8.0153  -13.1393  -19.0448 C   0  0  0  0  0  0  0  0  0  0  0  0
    6.9385  -12.8746  -18.3116 N   0  0  0  0  0  0  0  0  0  0  0  0
    8.9447  -10.8182  -19.1245 N   0  0  0  0  0  0  0  0  0  0  0  0
   10.0228  -10.3267  -19.7308 C   0  0  0  0  0  0  0  0  0  0  0  0
   10.6595  -11.3000  -20.3824 N   0  0  0  0  0  0  0  0  0  0  0  0
  2  1  1  1  0  0  0
  2  5  1  0  0  0  0
  2  3  1  0  0  0  0
  3 17  1  0  0  0  0
  3  4  1  0  0  0  0
  5  6  1  0  0  0  0
  7  8  1  0  0  0  0
  8  6  1  1  0  0  0
  8  9  1  0  0  0  0
 10  9  1  1  0  0  0
 10 11  1  0  0  0  0
 10 12  1  0  0  0  0
 11 16  1  0  0  0  0
 12 13  1  1  0  0  0
 12 14  1  0  0  0  0
 14 15  1  6  0  0  0
 14 16  1  0  0  0  0
 16 27  1  1  0  0  0
 18 23  2  0  0  0  0
 18 19  1  0  0  0  0
 19 20  2  0  0  0  0
 20 21  1  0  0  0  0
 21 22  2  0  0  0  0
 21 27  1  0  0  0  0
 22 23  1  0  0  0  0
 22 25  1  0  0  0  0
 23 24  1  0  0  0  0
 25 26  2  0  0  0  0
 26 27  1  0  0  0  0
M  END
>  <CHROM.1>
55.85733783,-0.12432498,71.02941163,-166.65198760,-78.43473263,169.39898331
-117.99060661,12.63838699,-9.27748277,-20.99191158,0.49581613,0.66005071
0.56769806

>  <Name>
ligand

>  <RI>
0

>  <Rbt.Current_Directory>
/home/itssahil/PROJECTS/Mol_Feturizer/New_Systems/rnas/3E5F

>  <Rbt.Executable>
rbdock ($Id: //depot/dev/client3/rdock/2013.1/src/exe/rbdock.cxx#4 $)

>  <Rbt.Library>
libRbt.so (2013.1, Build901 2013/11/27)

>  <Rbt.Parameter_File>
/export/apps/rDock/src/rDock_2013.1_src/data/scripts/dock_solv.prm

>  <Rbt.Receptor>
prm/blind_docking_100.prm

>  <SCORE>
-13.7832

>  <SCORE.INTER>
-12.9902

>  <SCORE.INTER.CONST>
1

>  <SCORE.INTER.POLAR>
0

>  <SCORE.INTER.ROT>
7

>  <SCORE.INTER.SOLV>
7.20468

>  <SCORE.INTER.VDW>
-19.3284

>  <SCORE.INTER.norm>
-0.481119

>  <SCORE.INTRA>
-0.792974

>  <SCORE.INTRA.DIHEDRAL>
-0.3173

>  <SCORE.INTRA.DIHEDRAL.0>
4.89803

>  <SCORE.INTRA.POLAR>
0

>  <SCORE.INTRA.POLAR.0>
0

>  <SCORE.INTRA.REPUL>
0

>  <SCORE.INTRA.REPUL.0>
0

>  <SCORE.INTRA.SOLV>
0.820651

>  <SCORE.INTRA.SOLV.lig_0>
-48.5832

>  <SCORE.INTRA.VDW>
-1.04465

>  <SCORE.INTRA.VDW.0>
-2.39056

>  <SCORE.INTRA.norm>
-0.0293694

>  <SCORE.RESTR>
0

>  <SCORE.RESTR.CAVITY>
0

>  <SCORE.RESTR.norm>
0

>  <SCORE.SYSTEM>
0

>  <SCORE.SYSTEM.CONST>
0

>  <SCORE.SYSTEM.DIHEDRAL>
0

>  <SCORE.SYSTEM.SOLV>
0

>  <SCORE.SYSTEM.norm>
0

>  <SCORE.heavy>
27

>  <SCORE.norm>
-0.510488

>  <RMSD>
6.151

$$$$
ligand
 OpenBabel11021811473D
libRbt.so/2013.1/901 2013/11/27
 27 29  0  0  0  0  0  0  0  0999 V2000
   14.6668   -5.3446  -20.7377 N   0  0  0  0  0  0  0  0  0  0  0  0
   16.0438   -5.4800  -21.2350 C   0  0  2  0  0  0  0  0  0  0  0  0
   16.6349   -4.0958  -21.5194 C   0  0  0  0  0  0  0  0  0  0  0  0
   17.8800   -3.9905  -21.4721 O   0  0  0  0  0  0  0  0  0  0  0  0
   16.0229   -6.2948  -22.5295 C   0  0  0  0  0  0  0  0  0  0  0  0
   15.6116   -7.7491  -22.2862 C   0  0  0  0  0  0  0  0  0  0  0  0
   14.0926   -8.4109  -19.9786 C   0  0  0  0  0  0  0  0  0  0  0  0
   13.8442   -7.8551  -21.7207 Se  0  0  2  0  0  0  0  0  0  0  0  0
   13.0976   -9.3712  -22.4953 C   0  0  0  0  0  0  0  0  0  0  0  0
   13.7781  -10.6735  -22.0714 C   0  0  1  0  0  0  0  0  0  0  0  0
   13.1872  -11.1119  -20.8360 O   0  0  0  0  0  0  0  0  0  0  0  0
   13.3842  -11.7434  -23.0904 C   0  0  1  0  0  0  0  0  0  0  0  0
   14.1401  -12.9321  -22.8539 O   0  0  0  0  0  0  0  0  0  0  0  0
   11.9317  -11.9580  -22.6723 C   0  0  1  0  0  0  0  0  0  0  0  0
   11.5050  -13.2413  -23.1329 O   0  0  0  0  0  0  0  0  0  0  0  0
   12.1073  -12.0079  -21.1539 C   0  0  2  0  0  0  0  0  0  0  0  0
   15.8299   -3.1716  -21.7684 O   0  0  0  0  0  0  0  0  0  0  0  0
    7.8809  -13.6941  -18.7170 N   0  0  0  0  0  0  0  0  0  0  0  0
    8.8574  -14.3973  -19.2643 C   0  0  0  0  0  0  0  0  0  0  0  0
    9.8858  -13.8168  -19.8578 N   0  0  0  0  0  0  0  0  0  0  0  0
    9.9719  -12.4795  -19.9202 C   0  0  0  0  0  0  0  0  0  0  0  0
    8.9647  -11.7075  -19.3583 C   0  0  0  0  0  0  0  0  0  0  0  0
    7.8980  -12.3554  -18.7466 C   0  0  0  0  0  0  0  0  0  0  0  0
    6.8953  -11.6510  -18.2312 N   0  0  0  0  0  0  0  0  0  0  0  0
    9.2795  -10.4316  -19.5517 N   0  0  0  0  0  0  0  0  0  0  0  0
   10.4366  -10.3985  -20.2085 C   0  0  0  0  0  0  0  0  0  0  0  0
   10.8643  -11.6405  -20.4360 N   0  0  0  0  0  0  0  0  0  0  0  0
  2  1  1  6  0  0  0
  2  5  1  0  0  0  0
  2  3  1  0  0  0  0
  3 17  1  0  0  0  0
  3  4  1  0  0  0  0
  5  6  1  0  0  0  0
  7  8  1  0  0  0  0
  8  6  1  6  0  0  0
  8  9  1  0  0  0  0
 10  9  1  6  0  0  0
 10 11  1  0  0  0  0
 10 12  1  0  0  0  0
 11 16  1  0  0  0  0
 12 13  1  1  0  0  0
 12 14  1  0  0  0  0
 14 15  1  6  0  0  0
 14 16  1  0  0  0  0
 16 27  1  1  0  0  0
 18 23  2  0  0  0  0
 18 19  1  0  0  0  0
 19 20  2  0  0  0  0
 20 21  1  0  0  0  0
 21 22  2  0  0  0  0
 21 27  1  0  0  0  0
 22 23  1  0  0  0  0
 22 25  1  0  0  0  0
 23 24  1  0  0  0  0
 25 26  2  0  0  0  0
 26 27  1  0  0  0  0
M  END
>  <CHROM.1>
-67.27572249,154.67305422,66.25858958,-111.50000546,61.94074566,85.36205570
-142.42174024,12.70471317,-9.55910763,-21.11100312,0.65012314,0.60740308
0.39835650

>  <Name>
ligand

>  <RI>
0

>  <Rbt.Current_Directory>
/home/itssahil/PROJECTS/Mol_Feturizer/New_Systems/rnas/3E5F

>  <Rbt.Executable>
rbdock ($Id: //depot/dev/client3/rdock/2013.1/src/exe/rbdock.cxx#4 $)

>  <Rbt.Library>
libRbt.so (2013.1, Build901 2013/11/27)

>  <Rbt.Parameter_File>
/export/apps/rDock/src/rDock_2013.1_src/data/scripts/dock_solv.prm

>  <Rbt.Receptor>
prm/blind_docking_80.prm

>  <SCORE>
-14.2942

>  <SCORE.INTER>
-16.9814

>  <SCORE.INTER.CONST>
1

>  <SCORE.INTER.POLAR>
0

>  <SCORE.INTER.ROT>
7

>  <SCORE.INTER.SOLV>
7.65386

>  <SCORE.INTER.VDW>
-22.1389

>  <SCORE.INTER.norm>
-0.62894

>  <SCORE.INTRA>
2.68719

>  <SCORE.INTRA.DIHEDRAL>
2.37096

>  <SCORE.INTRA.DIHEDRAL.0>
4.89803

>  <SCORE.INTRA.POLAR>
0

>  <SCORE.INTRA.POLAR.0>
0

>  <SCORE.INTRA.REPUL>
0

>  <SCORE.INTRA.REPUL.0>
0

>  <SCORE.INTRA.SOLV>
2.61146

>  <SCORE.INTRA.SOLV.lig_0>
-48.5832

>  <SCORE.INTRA.VDW>
0.195983

>  <SCORE.INTRA.VDW.0>
-2.39056

>  <SCORE.INTRA.norm>
0.0995257

>  <SCORE.RESTR>
0

>  <SCORE.RESTR.CAVITY>
0

>  <SCORE.RESTR.norm>
0

>  <SCORE.SYSTEM>
0

>  <SCORE.SYSTEM.CONST>
0

>  <SCORE.SYSTEM.DIHEDRAL>
0

>  <SCORE.SYSTEM.SOLV>
0

>  <SCORE.SYSTEM.norm>
0

>  <SCORE.heavy>
27

>  <SCORE.norm>
-0.529414

>  <RMSD>
6.154

$$$$
ligand
 OpenBabel11021811473D
libRbt.so/2013.1/901 2013/11/27
 27 29  0  0  0  0  0  0  0  0999 V2000
    8.3789  -14.8020  -20.1929 N   0  0  0  0  0  0  0  0  0  0  0  0
    8.8952  -13.6483  -19.4418 C   0  0  2  0  0  0  0  0  0  0  0  0
    7.8803  -13.2218  -18.3768 C   0  0  0  0  0  0  0  0  0  0  0  0
    8.2177  -12.2914  -17.6125 O   0  0  0  0  0  0  0  0  0  0  0  0
    9.1234  -12.4891  -20.4134 C   0  0  0  0  0  0  0  0  0  0  0  0
   10.0055  -11.3954  -19.8057 C   0  0  0  0  0  0  0  0  0  0  0  0
   12.5472  -10.4732  -18.9340 C   0  0  0  0  0  0  0  0  0  0  0  0
   11.7183  -12.0332  -19.4680 Se  0  0  2  0  0  0  0  0  0  0  0  0
   12.5332  -12.3481  -21.1090 C   0  0  0  0  0  0  0  0  0  0  0  0
   11.6740  -11.9417  -22.3070 C   0  0  1  0  0  0  0  0  0  0  0  0
   11.6458  -10.5058  -22.3778 O   0  0  0  0  0  0  0  0  0  0  0  0
   12.4202  -12.3772  -23.5687 C   0  0  1  0  0  0  0  0  0  0  0  0
   11.5804  -12.1944  -24.7096 O   0  0  0  0  0  0  0  0  0  0  0  0
   13.5333  -11.3323  -23.5686 C   0  0  1  0  0  0  0  0  0  0  0  0
   14.0555  -11.2162  -24.8934 O   0  0  0  0  0  0  0  0  0  0  0  0
   12.7117  -10.0833  -23.2470 C   0  0  2  0  0  0  0  0  0  0  0  0
    6.7939  -13.8406  -18.3433 O   0  0  0  0  0  0  0  0  0  0  0  0
   16.1134   -6.2738  -23.9960 N   0  0  0  0  0  0  0  0  0  0  0  0
   15.5470   -7.0661  -24.8899 C   0  0  0  0  0  0  0  0  0  0  0  0
   14.6845   -8.0049  -24.5415 N   0  0  0  0  0  0  0  0  0  0  0  0
   14.3512   -8.1816  -23.2540 C   0  0  0  0  0  0  0  0  0  0  0  0
   14.9266   -7.3700  -22.2864 C   0  0  0  0  0  0  0  0  0  0  0  0
   15.8320   -6.3968  -22.6925 C   0  0  0  0  0  0  0  0  0  0  0  0
   16.4330   -5.6260  -21.7915 N   0  0  0  0  0  0  0  0  0  0  0  0
   14.4405   -7.7418  -21.1075 N   0  0  0  0  0  0  0  0  0  0  0  0
   13.5939   -8.7464  -21.3208 C   0  0  0  0  0  0  0  0  0  0  0  0
   13.5340   -9.0195  -22.6244 N   0  0  0  0  0  0  0  0  0  0  0  0
  2  1  1  6  0  0  0
  2  5  1  0  0  0  0
  2  3  1  0  0  0  0
  3 17  1  0  0  0  0
  3  4  1  0  0  0  0
  5  6  1  0  0  0  0
  7  8  1  0  0  0  0
  8  6  1  6  0  0  0
  8  9  1  0  0  0  0
 10  9  1  1  0  0  0
 10 11  1  0  0  0  0
 10 12  1  0  0  0  0
 11 16  1  0  0  0  0
 12 13  1  6  0  0  0
 12 14  1  0  0  0  0
 14 15  1  6  0  0  0
 14 16  1  0  0  0  0
 16 27  1  1  0  0  0
 18 23  2  0  0  0  0
 18 19  1  0  0  0  0
 19 20  2  0  0  0  0
 20 21  1  0  0  0  0
 21 22  2  0  0  0  0
 21 27  1  0  0  0  0
 22 23  1  0  0  0  0
 22 25  1  0  0  0  0
 23 24  1  0  0  0  0
 25 26  2  0  0  0  0
 26 27  1  0  0  0  0
M  END
>  <CHROM.1>
-164.30763466,176.38255025,64.52269959,174.22308866,3.56724471,72.58027893
-161.28355581,12.17336757,-10.70937234,-21.37024234,2.96577679,0.83844531
1.15091797

>  <Name>
ligand

>  <RI>
0

>  <Rbt.Current_Directory>
/home/itssahil/PROJECTS/Mol_Feturizer/New_Systems/rnas/3E5F

>  <Rbt.Executable>
rbdock ($Id: //depot/dev/client3/rdock/2013.1/src/exe/rbdock.cxx#4 $)

>  <Rbt.Library>
libRbt.so (2013.1, Build901 2013/11/27)

>  <Rbt.Parameter_File>
/export/apps/rDock/src/rDock_2013.1_src/data/scripts/dock_solv.prm

>  <Rbt.Receptor>
prm/pocket_docking_6.prm

>  <SCORE>
-15.6987

>  <SCORE.INTER>
-16.6513

>  <SCORE.INTER.CONST>
1

>  <SCORE.INTER.POLAR>
0

>  <SCORE.INTER.ROT>
7

>  <SCORE.INTER.SOLV>
12.9604

>  <SCORE.INTER.VDW>
-23.6877

>  <SCORE.INTER.norm>
-0.616714

>  <SCORE.INTRA>
0.952591

>  <SCORE.INTRA.DIHEDRAL>
1.63134

>  <SCORE.INTRA.DIHEDRAL.0>
4.89803

>  <SCORE.INTRA.POLAR>
0

>  <SCORE.INTRA.POLAR.0>
0

>  <SCORE.INTRA.REPUL>
0

>  <SCORE.INTRA.REPUL.0>
0

>  <SCORE.INTRA.SOLV>
0.363527

>  <SCORE.INTRA.SOLV.lig_0>
-48.5832

>  <SCORE.INTRA.VDW>
-0.0448408

>  <SCORE.INTRA.VDW.0>
-2.39056

>  <SCORE.INTRA.norm>
0.0352811

>  <SCORE.RESTR>
0

>  <SCORE.RESTR.CAVITY>
0

>  <SCORE.RESTR.norm>
0

>  <SCORE.SYSTEM>
0

>  <SCORE.SYSTEM.CONST>
0

>  <SCORE.SYSTEM.DIHEDRAL>
0

>  <SCORE.SYSTEM.SOLV>
0

>  <SCORE.SYSTEM.norm>
0

>  <SCORE.heavy>
27

>  <SCORE.norm>
-0.581433

>  <RMSD>
6.154

$$$$
ligand
 OpenBabel11021811473D
libRbt.so/2013.1/901 2013/11/27
 27 29  0  0  0  0  0  0  0  0999 V2000
   13.3372   -5.8779  -17.6917 N   0  0  0  0  0  0  0  0  0  0  0  0
   14.6303   -6.3291  -18.2264 C   0  0  2  0  0  0  0  0  0  0  0  0
   15.3333   -5.1704  -18.9402 C   0  0  0  0  0  0  0  0  0  0  0  0
   14.6168   -4.4083  -19.6253 O   0  0  0  0  0  0  0  0  0  0  0  0
   14.3834   -7.4609  -19.2254 C   0  0  0  0  0  0  0  0  0  0  0  0
   15.6874   -8.1246  -19.6754 C   0  0  0  0  0  0  0  0  0  0  0  0
   14.6211   -8.4779  -22.2847 C   0  0  0  0  0  0  0  0  0  0  0  0
   15.3562   -9.4706  -20.9136 Se  0  0  2  0  0  0  0  0  0  0  0  0
   13.8825  -10.4329  -20.3152 C   0  0  0  0  0  0  0  0  0  0  0  0
   13.8015  -11.8481  -20.8889 C   0  0  1  0  0  0  0  0  0  0  0  0
   12.6777  -12.5160  -20.2899 O   0  0  0  0  0  0  0  0  0  0  0  0
   13.4320  -11.7178  -22.3670 C   0  0  1  0  0  0  0  0  0  0  0  0
   13.5276  -12.9950  -22.9994 O   0  0  0  0  0  0  0  0  0  0  0  0
   11.9661  -11.3181  -22.2193 C   0  0  1  0  0  0  0  0  0  0  0  0
   11.2811  -11.6238  -23.4352 O   0  0  0  0  0  0  0  0  0  0  0  0
   11.5362  -12.3151  -21.1424 C   0  0  2  0  0  0  0  0  0  0  0  0
   16.5719   -5.0770  -18.7936 O   0  0  0  0  0  0  0  0  0  0  0  0
    7.3553  -13.6178  -18.4097 N   0  0  0  0  0  0  0  0  0  0  0  0
    8.2534  -14.4056  -18.9756 C   0  0  0  0  0  0  0  0  0  0  0  0
    9.2814  -13.9190  -19.6488 N   0  0  0  0  0  0  0  0  0  0  0  0
    9.4479  -12.5939  -19.7765 C   0  0  0  0  0  0  0  0  0  0  0  0
    8.5243  -11.7349  -19.1976 C   0  0  0  0  0  0  0  0  0  0  0  0
    7.4550  -12.2855  -18.5011 C   0  0  0  0  0  0  0  0  0  0  0  0
    6.5290  -11.4960  -17.9658 N   0  0  0  0  0  0  0  0  0  0  0  0
    8.9074  -10.4915  -19.4654 N   0  0  0  0  0  0  0  0  0  0  0  0
   10.0257  -10.5617  -20.1837 C   0  0  0  0  0  0  0  0  0  0  0  0
   10.3609  -11.8374  -20.3768 N   0  0  0  0  0  0  0  0  0  0  0  0
  2  1  1  6  0  0  0
  2  5  1  0  0  0  0
  2  3  1  0  0  0  0
  3 17  1  0  0  0  0
  3  4  1  0  0  0  0
  5  6  1  0  0  0  0
  7  8  1  0  0  0  0
  8  6  1  1  0  0  0
  8  9  1  0  0  0  0
 10  9  1  1  0  0  0
 10 11  1  0  0  0  0
 10 12  1  0  0  0  0
 11 16  1  0  0  0  0
 12 13  1  6  0  0  0
 12 14  1  0  0  0  0
 14 15  1  6  0  0  0
 14 16  1  0  0  0  0
 16 27  1  1  0  0  0
 18 23  2  0  0  0  0
 18 19  1  0  0  0  0
 19 20  2  0  0  0  0
 20 21  1  0  0  0  0
 21 22  2  0  0  0  0
 21 27  1  0  0  0  0
 22 23  1  0  0  0  0
 22 25  1  0  0  0  0
 23 24  1  0  0  0  0
 25 26  2  0  0  0  0
 26 27  1  0  0  0  0
M  END
>  <CHROM.1>
-171.66777795,-39.52020950,-178.83307772,62.99311598,-157.77173506,176.33389005
-88.39081004,12.55263941,-10.12307682,-20.22290780,0.57339909,0.46897738
0.58369604

>  <Name>
ligand

>  <RI>
0

>  <Rbt.Current_Directory>
/home/itssahil/PROJECTS/Mol_Feturizer/New_Systems/rnas/3E5F

>  <Rbt.Executable>
rbdock ($Id: //depot/dev/client3/rdock/2013.1/src/exe/rbdock.cxx#4 $)

>  <Rbt.Library>
libRbt.so (2013.1, Build901 2013/11/27)

>  <Rbt.Parameter_File>
/export/apps/rDock/src/rDock_2013.1_src/data/scripts/dock_solv.prm

>  <Rbt.Receptor>
prm/pocket_docking_7.prm

>  <SCORE>
-16.1253

>  <SCORE.INTER>
-16.7679

>  <SCORE.INTER.CONST>
1

>  <SCORE.INTER.POLAR>
0

>  <SCORE.INTER.ROT>
7

>  <SCORE.INTER.SOLV>
6.02609

>  <SCORE.INTER.VDW>
-21.454

>  <SCORE.INTER.norm>
-0.621035

>  <SCORE.INTRA>
0.642652

>  <SCORE.INTRA.DIHEDRAL>
-0.364727

>  <SCORE.INTRA.DIHEDRAL.0>
4.89803

>  <SCORE.INTRA.POLAR>
0

>  <SCORE.INTRA.POLAR.0>
0

>  <SCORE.INTRA.REPUL>
0

>  <SCORE.INTRA.REPUL.0>
0

>  <SCORE.INTRA.SOLV>
-0.057378

>  <SCORE.INTRA.SOLV.lig_0>
-48.5832

>  <SCORE.INTRA.VDW>
0.853705

>  <SCORE.INTRA.VDW.0>
-2.39056

>  <SCORE.INTRA.norm>
0.0238019

>  <SCORE.RESTR>
0

>  <SCORE.RESTR.CAVITY>
0

>  <SCORE.RESTR.norm>
0

>  <SCORE.SYSTEM>
0

>  <SCORE.SYSTEM.CONST>
0

>  <SCORE.SYSTEM.DIHEDRAL>
0

>  <SCORE.SYSTEM.SOLV>
0

>  <SCORE.SYSTEM.norm>
0

>  <SCORE.heavy>
27

>  <SCORE.norm>
-0.597233

>  <RMSD>
6.157

$$$$
ligand
 OpenBabel11021811473D
libRbt.so/2013.1/901 2013/11/27
 27 29  0  0  0  0  0  0  0  0999 V2000
   17.0445   -4.0146  -22.0771 N   0  0  0  0  0  0  0  0  0  0  0  0
   15.8552   -4.7615  -21.6420 C   0  0  2  0  0  0  0  0  0  0  0  0
   15.6678   -4.6101  -20.1293 C   0  0  0  0  0  0  0  0  0  0  0  0
   14.5130   -4.3538  -19.7240 O   0  0  0  0  0  0  0  0  0  0  0  0
   16.0503   -6.2405  -21.9802 C   0  0  0  0  0  0  0  0  0  0  0  0
   14.8232   -7.0799  -21.6154 C   0  0  0  0  0  0  0  0  0  0  0  0
   14.3841   -8.8408  -23.8009 C   0  0  0  0  0  0  0  0  0  0  0  0
   15.0704   -8.8603  -22.0880 Se  0  0  2  0  0  0  0  0  0  0  0  0
   13.7929   -9.8632  -21.1834 C   0  0  0  0  0  0  0  0  0  0  0  0
   14.0046  -11.3732  -21.3006 C   0  0  1  0  0  0  0  0  0  0  0  0
   13.0719  -12.0305  -20.4255 O   0  0  0  0  0  0  0  0  0  0  0  0
   13.5708  -11.7840  -22.7082 C   0  0  1  0  0  0  0  0  0  0  0  0
   13.9228  -13.1490  -22.9390 O   0  0  0  0  0  0  0  0  0  0  0  0
   12.0581  -11.6565  -22.5460 C   0  0  1  0  0  0  0  0  0  0  0  0
   11.4194  -12.4538  -23.5448 O   0  0  0  0  0  0  0  0  0  0  0  0
   11.8886  -12.3343  -21.1856 C   0  0  2  0  0  0  0  0  0  0  0  0
   16.6836   -4.7442  -19.4121 O   0  0  0  0  0  0  0  0  0  0  0  0
    7.6576  -13.7323  -18.5802 N   0  0  0  0  0  0  0  0  0  0  0  0
    8.6136  -14.4970  -19.0789 C   0  0  0  0  0  0  0  0  0  0  0  0
    9.6465  -13.9873  -19.7270 N   0  0  0  0  0  0  0  0  0  0  0  0
    9.7584  -12.6613  -19.8972 C   0  0  0  0  0  0  0  0  0  0  0  0
    8.7733  -11.8261  -19.3892 C   0  0  0  0  0  0  0  0  0  0  0  0
    7.7010  -12.4009  -18.7171 C   0  0  0  0  0  0  0  0  0  0  0  0
    6.7184  -11.6368  -18.2502 N   0  0  0  0  0  0  0  0  0  0  0  0
    9.1111  -10.5766  -19.6874 N   0  0  0  0  0  0  0  0  0  0  0  0
   10.2611  -10.6201  -20.3560 C   0  0  0  0  0  0  0  0  0  0  0  0
   10.6614  -11.8849  -20.4874 N   0  0  0  0  0  0  0  0  0  0  0  0
  2  1  1  1  0  0  0
  2  5  1  0  0  0  0
  2  3  1  0  0  0  0
  3 17  1  0  0  0  0
  3  4  1  0  0  0  0
  5  6  1  0  0  0  0
  7  8  1  0  0  0  0
  8  6  1  1  0  0  0
  8  9  1  0  0  0  0
 10  9  1  6  0  0  0
 10 11  1  0  0  0  0
 10 12  1  0  0  0  0
 11 16  1  0  0  0  0
 12 13  1  1  0  0  0
 12 14  1  0  0  0  0
 14 15  1  6  0  0  0
 14 16  1  0  0  0  0
 16 27  1  1  0  0  0
 18 23  2  0  0  0  0
 18 19  1  0  0  0  0
 19 20  2  0  0  0  0
 20 21  1  0  0  0  0
 21 22  2  0  0  0  0
 21 27  1  0  0  0  0
 22 23  1  0  0  0  0
 22 25  1  0  0  0  0
 23 24  1  0  0  0  0
 25 26  2  0  0  0  0
 26 27  1  0  0  0  0
M  END
>  <CHROM.1>
-177.37121196,134.21348419,178.18227815,-90.49902830,-171.02923417,172.52219201
-107.79942521,12.81988009,-9.84148797,-21.05661428,0.57890511,0.60188222
0.47894087

>  <Name>
ligand

>  <RI>
0

>  <Rbt.Current_Directory>
/home/itssahil/PROJECTS/Mol_Feturizer/New_Systems/rnas/3E5F

>  <Rbt.Executable>
rbdock ($Id: //depot/dev/client3/rdock/2013.1/src/exe/rbdock.cxx#4 $)

>  <Rbt.Library>
libRbt.so (2013.1, Build901 2013/11/27)

>  <Rbt.Parameter_File>
/export/apps/rDock/src/rDock_2013.1_src/data/scripts/dock_solv.prm

>  <Rbt.Receptor>
prm/pocket_docking_6.prm

>  <SCORE>
-17.0206

>  <SCORE.INTER>
-17.1807

>  <SCORE.INTER.CONST>
1

>  <SCORE.INTER.POLAR>
0

>  <SCORE.INTER.ROT>
7

>  <SCORE.INTER.SOLV>
11.0979

>  <SCORE.INTER.VDW>
-23.4197

>  <SCORE.INTER.norm>
-0.636321

>  <SCORE.INTRA>
0.160085

>  <SCORE.INTRA.DIHEDRAL>
-0.571271

>  <SCORE.INTRA.DIHEDRAL.0>
4.89803

>  <SCORE.INTRA.POLAR>
0

>  <SCORE.INTRA.POLAR.0>
0

>  <SCORE.INTRA.REPUL>
0

>  <SCORE.INTRA.REPUL.0>
0

>  <SCORE.INTRA.SOLV>
-0.0537634

>  <SCORE.INTRA.SOLV.lig_0>
-48.5832

>  <SCORE.INTRA.VDW>
0.472602

>  <SCORE.INTRA.VDW.0>
-2.39056

>  <SCORE.INTRA.norm>
0.00592907

>  <SCORE.RESTR>
0

>  <SCORE.RESTR.CAVITY>
0

>  <SCORE.RESTR.norm>
0

>  <SCORE.SYSTEM>
0

>  <SCORE.SYSTEM.CONST>
0

>  <SCORE.SYSTEM.DIHEDRAL>
0

>  <SCORE.SYSTEM.SOLV>
0

>  <SCORE.SYSTEM.norm>
0

>  <SCORE.heavy>
27

>  <SCORE.norm>
-0.630392

>  <RMSD>
6.169

$$$$
ligand
 OpenBabel11021811473D
libRbt.so/2013.1/901 2013/11/27
 27 29  0  0  0  0  0  0  0  0999 V2000
   11.6836  -10.5479  -22.9234 N   0  0  0  0  0  0  0  0  0  0  0  0
   12.9491   -9.8586  -22.6317 C   0  0  2  0  0  0  0  0  0  0  0  0
   13.6963   -9.5642  -23.9360 C   0  0  0  0  0  0  0  0  0  0  0  0
   13.7924  -10.5015  -24.7582 O   0  0  0  0  0  0  0  0  0  0  0  0
   13.8117  -10.7631  -21.7498 C   0  0  0  0  0  0  0  0  0  0  0  0
   13.1950  -10.9717  -20.3643 C   0  0  0  0  0  0  0  0  0  0  0  0
   12.3913   -9.8862  -17.8651 C   0  0  0  0  0  0  0  0  0  0  0  0
   13.5560   -9.5279  -19.2509 Se  0  0  2  0  0  0  0  0  0  0  0  0
   12.7781   -8.0222  -20.0151 C   0  0  0  0  0  0  0  0  0  0  0  0
   12.5255   -6.8908  -19.0177 C   0  0  1  0  0  0  0  0  0  0  0  0
   13.7940   -6.4450  -18.5079 O   0  0  0  0  0  0  0  0  0  0  0  0
   11.9863   -5.6996  -19.8105 C   0  0  1  0  0  0  0  0  0  0  0  0
   11.5545   -4.6795  -18.9086 O   0  0  0  0  0  0  0  0  0  0  0  0
   13.2730   -5.2667  -20.5089 C   0  0  1  0  0  0  0  0  0  0  0  0
   13.1448   -3.8996  -20.9035 O   0  0  0  0  0  0  0  0  0  0  0  0
   14.2452   -5.3553  -19.3318 C   0  0  2  0  0  0  0  0  0  0  0  0
   14.1633   -8.4128  -24.0791 O   0  0  0  0  0  0  0  0  0  0  0  0
   18.3012   -3.3389  -21.8073 N   0  0  0  0  0  0  0  0  0  0  0  0
   17.1155   -2.7990  -21.5832 C   0  0  0  0  0  0  0  0  0  0  0  0
   16.1688   -3.4455  -20.9256 N   0  0  0  0  0  0  0  0  0  0  0  0
   16.3870   -4.6835  -20.4571 C   0  0  0  0  0  0  0  0  0  0  0  0
   17.6191   -5.2841  -20.6743 C   0  0  0  0  0  0  0  0  0  0  0  0
   18.5874   -4.5731  -21.3735 C   0  0  0  0  0  0  0  0  0  0  0  0
   19.7661   -5.1294  -21.6348 N   0  0  0  0  0  0  0  0  0  0  0  0
   17.5822   -6.4912  -20.1212 N   0  0  0  0  0  0  0  0  0  0  0  0
   16.3774   -6.6472  -19.5776 C   0  0  0  0  0  0  0  0  0  0  0  0
   15.6447   -5.5516  -19.7776 N   0  0  0  0  0  0  0  0  0  0  0  0
  2  1  1  6  0  0  0
  2  5  1  0  0  0  0
  2  3  1  0  0  0  0
  3 17  1  0  0  0  0
  3  4  1  0  0  0  0
  5  6  1  0  0  0  0
  7  8  1  0  0  0  0
  8  6  1  6  0  0  0
  8  9  1  0  0  0  0
 10  9  1  6  0  0  0
 10 11  1  0  0  0  0
 10 12  1  0  0  0  0
 11 16  1  0  0  0  0
 12 13  1  1  0  0  0
 12 14  1  0  0  0  0
 14 15  1  1  0  0  0
 14 16  1  0  0  0  0
 16 27  1  6  0  0  0
 18 23  2  0  0  0  0
 18 19  1  0  0  0  0
 19 20  2  0  0  0  0
 20 21  1  0  0  0  0
 21 22  2  0  0  0  0
 21 27  1  0  0  0  0
 22 23  1  0  0  0  0
 22 25  1  0  0  0  0
 23 24  1  0  0  0  0
 25 26  2  0  0  0  0
 26 27  1  0  0  0  0
M  END
>  <CHROM.1>
-66.34005455,-47.10522370,-80.77567506,167.48443303,158.43866598,63.37277157
-174.29365868,14.43273585,-7.26815883,-20.59935166,-2.44680054,0.70552906
0.66387119

>  <Name>
ligand

>  <RI>
0

>  <Rbt.Current_Directory>
/home/itssahil/PROJECTS/Mol_Feturizer/New_Systems/rnas/3E5F

>  <Rbt.Executable>
rbdock ($Id: //depot/dev/client3/rdock/2013.1/src/exe/rbdock.cxx#4 $)

>  <Rbt.Library>
libRbt.so (2013.1, Build901 2013/11/27)

>  <Rbt.Parameter_File>
/export/apps/rDock/src/rDock_2013.1_src/data/scripts/dock_solv.prm

>  <Rbt.Receptor>
prm/blind_docking_100.prm

>  <SCORE>
-14.5134

>  <SCORE.INTER>
-15.1069

>  <SCORE.INTER.CONST>
1

>  <SCORE.INTER.POLAR>
0

>  <SCORE.INTER.ROT>
7

>  <SCORE.INTER.SOLV>
14.6757

>  <SCORE.INTER.VDW>
-23.2298

>  <SCORE.INTER.norm>
-0.559515

>  <SCORE.INTRA>
0.57148

>  <SCORE.INTRA.DIHEDRAL>
0.0468643

>  <SCORE.INTRA.DIHEDRAL.0>
4.89803

>  <SCORE.INTRA.POLAR>
0

>  <SCORE.INTRA.POLAR.0>
0

>  <SCORE.INTRA.REPUL>
0

>  <SCORE.INTRA.REPUL.0>
0

>  <SCORE.INTRA.SOLV>
1.343

>  <SCORE.INTRA.SOLV.lig_0>
-48.5832

>  <SCORE.INTRA.VDW>
-0.123451

>  <SCORE.INTRA.VDW.0>
-2.39056

>  <SCORE.INTRA.norm>
0.0211659

>  <SCORE.RESTR>
0.0220655

>  <SCORE.RESTR.CAVITY>
0.0220655

>  <SCORE.RESTR.norm>
0.000817242

>  <SCORE.SYSTEM>
0

>  <SCORE.SYSTEM.CONST>
0

>  <SCORE.SYSTEM.DIHEDRAL>
0

>  <SCORE.SYSTEM.SOLV>
0

>  <SCORE.SYSTEM.norm>
0

>  <SCORE.heavy>
27

>  <SCORE.norm>
-0.537532

>  <RMSD>
6.176

$$$$
ligand
 OpenBabel11021811473D
libRbt.so/2013.1/901 2013/11/27
 27 29  0  0  0  0  0  0  0  0999 V2000
    6.7718  -12.3609  -17.1922 N   0  0  0  0  0  0  0  0  0  0  0  0
    7.2269  -11.3326  -18.1394 C   0  0  2  0  0  0  0  0  0  0  0  0
    6.1048  -10.9993  -19.1273 C   0  0  0  0  0  0  0  0  0  0  0  0
    5.7727  -11.8969  -19.9321 O   0  0  0  0  0  0  0  0  0  0  0  0
    8.4334  -11.8712  -18.9102 C   0  0  0  0  0  0  0  0  0  0  0  0
    9.1351  -10.7757  -19.7171 C   0  0  0  0  0  0  0  0  0  0  0  0
   11.9517  -11.0485  -19.4662 C   0  0  0  0  0  0  0  0  0  0  0  0
   10.5926  -11.4621  -20.6441 Se  0  0  2  0  0  0  0  0  0  0  0  0
   10.9544  -10.3069  -22.0550 C   0  0  0  0  0  0  0  0  0  0  0  0
   10.9826  -10.9970  -23.4193 C   0  0  1  0  0  0  0  0  0  0  0  0
   11.7715  -10.1960  -24.3158 O   0  0  0  0  0  0  0  0  0  0  0  0
   11.7781  -12.2927  -23.2556 C   0  0  1  0  0  0  0  0  0  0  0  0
   11.6773  -13.0711  -24.4491 O   0  0  0  0  0  0  0  0  0  0  0  0
   13.1819  -11.7053  -23.1340 C   0  0  1  0  0  0  0  0  0  0  0  0
   14.1342  -12.7151  -23.4725 O   0  0  0  0  0  0  0  0  0  0  0  0
   13.1270  -10.6753  -24.2631 C   0  0  2  0  0  0  0  0  0  0  0  0
    5.6100   -9.8523  -19.0633 O   0  0  0  0  0  0  0  0  0  0  0  0
   15.8267   -7.8960  -20.8526 N   0  0  0  0  0  0  0  0  0  0  0  0
   15.0064   -8.9087  -20.6314 C   0  0  0  0  0  0  0  0  0  0  0  0
   14.3820   -9.5277  -21.6182 N   0  0  0  0  0  0  0  0  0  0  0  0
   14.5672   -9.1437  -22.8903 C   0  0  0  0  0  0  0  0  0  0  0  0
   15.4198   -8.0829  -23.1618 C   0  0  0  0  0  0  0  0  0  0  0  0
   16.0549   -7.4554  -22.0965 C   0  0  0  0  0  0  0  0  0  0  0  0
   16.8486   -6.4113  -22.3132 N   0  0  0  0  0  0  0  0  0  0  0  0
   15.4302   -7.9008  -24.4775 N   0  0  0  0  0  0  0  0  0  0  0  0
   14.6180   -8.8079  -25.0150 C   0  0  0  0  0  0  0  0  0  0  0  0
   14.0895   -9.5680  -24.0557 N   0  0  0  0  0  0  0  0  0  0  0  0
  2  1  1  1  0  0  0
  2  5  1  0  0  0  0
  2  3  1  0  0  0  0
  3 17  1  0  0  0  0
  3  4  1  0  0  0  0
  5  6  1  0  0  0  0
  7  8  1  0  0  0  0
  8  6  1  1  0  0  0
  8  9  1  0  0  0  0
 10  9  1  1  0  0  0
 10 11  1  0  0  0  0
 10 12  1  0  0  0  0
 11 16  1  0  0  0  0
 12 13  1  6  0  0  0
 12 14  1  0  0  0  0
 14 15  1  6  0  0  0
 14 16  1  0  0  0  0
 16 27  1  1  0  0  0
 18 23  2  0  0  0  0
 18 19  1  0  0  0  0
 19 20  2  0  0  0  0
 20 21  1  0  0  0  0
 21 22  2  0  0  0  0
 21 27  1  0  0  0  0
 22 23  1  0  0  0  0
 22 25  1  0  0  0  0
 23 24  1  0  0  0  0
 25 26  2  0  0  0  0
 26 27  1  0  0  0  0
M  END
>  <CHROM.1>
-168.86846302,-67.23806894,-179.86831552,-96.14895849,-125.33963447,-156.90088723
93.48411316,11.62226277,-10.50192089,-21.58598507,-2.94579082,-0.52495315
-2.18236632

>  <Name>
ligand

>  <RI>
0

>  <Rbt.Current_Directory>
/home/itssahil/PROJECTS/Mol_Feturizer/New_Systems/rnas/3E5F

>  <Rbt.Executable>
rbdock ($Id: //depot/dev/client3/rdock/2013.1/src/exe/rbdock.cxx#4 $)

>  <Rbt.Library>
libRbt.so (2013.1, Build901 2013/11/27)

>  <Rbt.Parameter_File>
/export/apps/rDock/src/rDock_2013.1_src/data/scripts/dock_solv.prm

>  <Rbt.Receptor>
prm/pocket_docking_8.prm

>  <SCORE>
-16.511

>  <SCORE.INTER>
-17.8319

>  <SCORE.INTER.CONST>
1

>  <SCORE.INTER.POLAR>
0

>  <SCORE.INTER.ROT>
7

>  <SCORE.INTER.SOLV>
14.9653

>  <SCORE.INTER.VDW>
-25.1431

>  <SCORE.INTER.norm>
-0.660442

>  <SCORE.INTRA>
1.32097

>  <SCORE.INTRA.DIHEDRAL>
3.44602

>  <SCORE.INTRA.DIHEDRAL.0>
4.89803

>  <SCORE.INTRA.POLAR>
0

>  <SCORE.INTRA.POLAR.0>
0

>  <SCORE.INTRA.REPUL>
0

>  <SCORE.INTRA.REPUL.0>
0

>  <SCORE.INTRA.SOLV>
-0.0346185

>  <SCORE.INTRA.SOLV.lig_0>
-48.5832

>  <SCORE.INTRA.VDW>
-0.384735

>  <SCORE.INTRA.VDW.0>
-2.39056

>  <SCORE.INTRA.norm>
0.0489247

>  <SCORE.RESTR>
0

>  <SCORE.RESTR.CAVITY>
0

>  <SCORE.RESTR.norm>
0

>  <SCORE.SYSTEM>
0

>  <SCORE.SYSTEM.CONST>
0

>  <SCORE.SYSTEM.DIHEDRAL>
0

>  <SCORE.SYSTEM.SOLV>
0

>  <SCORE.SYSTEM.norm>
0

>  <SCORE.heavy>
27

>  <SCORE.norm>
-0.611517

>  <RMSD>
6.176

$$$$
ligand
 OpenBabel11021811473D
libRbt.so/2013.1/901 2013/11/27
 27 29  0  0  0  0  0  0  0  0999 V2000
   14.5799   -6.1155  -19.8279 N   0  0  0  0  0  0  0  0  0  0  0  0
   15.0218   -6.0365  -18.4278 C   0  0  2  0  0  0  0  0  0  0  0  0
   16.3728   -5.3195  -18.3461 C   0  0  0  0  0  0  0  0  0  0  0  0
   16.7958   -5.0355  -17.2041 O   0  0  0  0  0  0  0  0  0  0  0  0
   15.1702   -7.4557  -17.8764 C   0  0  0  0  0  0  0  0  0  0  0  0
   13.8138   -8.1091  -17.5997 C   0  0  0  0  0  0  0  0  0  0  0  0
   11.4089   -7.2115  -18.8168 C   0  0  0  0  0  0  0  0  0  0  0  0
   12.8429   -8.3179  -19.1708 Se  0  0  2  0  0  0  0  0  0  0  0  0
   12.0441   -9.9958  -19.1177 C   0  0  0  0  0  0  0  0  0  0  0  0
   12.8965  -11.0996  -19.7451 C   0  0  1  0  0  0  0  0  0  0  0  0
   12.1749  -12.3396  -19.6477 O   0  0  0  0  0  0  0  0  0  0  0  0
   12.9754  -10.8141  -21.2452 C   0  0  1  0  0  0  0  0  0  0  0  0
   13.9130  -11.7034  -21.8538 O   0  0  0  0  0  0  0  0  0  0  0  0
   11.5541  -11.2030  -21.6444 C   0  0  1  0  0  0  0  0  0  0  0  0
   11.5332  -11.4988  -23.0420 O   0  0  0  0  0  0  0  0  0  0  0  0
   11.4154  -12.5073  -20.8581 C   0  0  2  0  0  0  0  0  0  0  0  0
   16.9488   -5.0623  -19.4261 O   0  0  0  0  0  0  0  0  0  0  0  0
    7.5257  -15.8134  -21.6229 N   0  0  0  0  0  0  0  0  0  0  0  0
    8.7647  -15.8722  -22.0801 C   0  0  0  0  0  0  0  0  0  0  0  0
    9.6577  -14.9409  -21.7939 N   0  0  0  0  0  0  0  0  0  0  0  0
    9.3300  -13.8966  -21.0180 C   0  0  0  0  0  0  0  0  0  0  0  0
    8.0380  -13.7996  -20.5207 C   0  0  0  0  0  0  0  0  0  0  0  0
    7.1269  -14.7971  -20.8474 C   0  0  0  0  0  0  0  0  0  0  0  0
    5.8699  -14.7190  -20.4220 N   0  0  0  0  0  0  0  0  0  0  0  0
    7.9685  -12.6905  -19.7930 N   0  0  0  0  0  0  0  0  0  0  0  0
    9.1660  -12.1107  -19.8292 C   0  0  0  0  0  0  0  0  0  0  0  0
    9.9997  -12.8387  -20.5723 N   0  0  0  0  0  0  0  0  0  0  0  0
  2  1  1  6  0  0  0
  2  5  1  0  0  0  0
  2  3  1  0  0  0  0
  3 17  1  0  0  0  0
  3  4  1  0  0  0  0
  5  6  1  0  0  0  0
  7  8  1  0  0  0  0
  8  6  1  1  0  0  0
  8  9  1  0  0  0  0
 10  9  1  1  0  0  0
 10 11  1  0  0  0  0
 10 12  1  0  0  0  0
 11 16  1  0  0  0  0
 12 13  1  6  0  0  0
 12 14  1  0  0  0  0
 14 15  1  6  0  0  0
 14 16  1  0  0  0  0
 16 27  1  1  0  0  0
 18 23  2  0  0  0  0
 18 19  1  0  0  0  0
 19 20  2  0  0  0  0
 20 21  1  0  0  0  0
 21 22  2  0  0  0  0
 21 27  1  0  0  0  0
 22 23  1  0  0  0  0
 22 25  1  0  0  0  0
 23 24  1  0  0  0  0
 25 26  2  0  0  0  0
 26 27  1  0  0  0  0
M  END
>  <CHROM.1>
-74.25469042,171.59204083,63.55294534,-116.08249159,-91.04718088,-179.81217309
-124.37146102,11.93615995,-10.33008019,-19.93800767,-0.81530403,-0.42530495
-2.46199209

>  <Name>
ligand

>  <RI>
0

>  <Rbt.Current_Directory>
/home/itssahil/PROJECTS/Mol_Feturizer/New_Systems/rnas/3E5F

>  <Rbt.Executable>
rbdock ($Id: //depot/dev/client3/rdock/2013.1/src/exe/rbdock.cxx#4 $)

>  <Rbt.Library>
libRbt.so (2013.1, Build901 2013/11/27)

>  <Rbt.Parameter_File>
/export/apps/rDock/src/rDock_2013.1_src/data/scripts/dock_solv.prm

>  <Rbt.Receptor>
prm/pocket_docking_8.prm

>  <SCORE>
-8.85108

>  <SCORE.INTER>
-10.2565

>  <SCORE.INTER.CONST>
1

>  <SCORE.INTER.POLAR>
0

>  <SCORE.INTER.ROT>
7

>  <SCORE.INTER.SOLV>
5.58227

>  <SCORE.INTER.VDW>
-16.9651

>  <SCORE.INTER.norm>
-0.379872

>  <SCORE.INTRA>
1.40546

>  <SCORE.INTRA.DIHEDRAL>
1.67366

>  <SCORE.INTRA.DIHEDRAL.0>
4.89803

>  <SCORE.INTRA.POLAR>
0

>  <SCORE.INTRA.POLAR.0>
0

>  <SCORE.INTRA.REPUL>
0

>  <SCORE.INTRA.REPUL.0>
0

>  <SCORE.INTRA.SOLV>
2.09636

>  <SCORE.INTRA.SOLV.lig_0>
-48.5832

>  <SCORE.INTRA.VDW>
-0.479547

>  <SCORE.INTRA.VDW.0>
-2.39056

>  <SCORE.INTRA.norm>
0.052054

>  <SCORE.RESTR>
0

>  <SCORE.RESTR.CAVITY>
0

>  <SCORE.RESTR.norm>
0

>  <SCORE.SYSTEM>
0

>  <SCORE.SYSTEM.CONST>
0

>  <SCORE.SYSTEM.DIHEDRAL>
0

>  <SCORE.SYSTEM.SOLV>
0

>  <SCORE.SYSTEM.norm>
0

>  <SCORE.heavy>
27

>  <SCORE.norm>
-0.327818

>  <RMSD>
6.179

$$$$
ligand
 OpenBabel11021811473D
libRbt.so/2013.1/901 2013/11/27
 27 29  0  0  0  0  0  0  0  0999 V2000
   15.5734   -5.9317  -22.1681 N   0  0  0  0  0  0  0  0  0  0  0  0
   16.1361   -7.2399  -22.5339 C   0  0  2  0  0  0  0  0  0  0  0  0
   15.3556   -7.8337  -23.7105 C   0  0  0  0  0  0  0  0  0  0  0  0
   15.9602   -7.9300  -24.8009 O   0  0  0  0  0  0  0  0  0  0  0  0
   16.0257   -8.1783  -21.3309 C   0  0  0  0  0  0  0  0  0  0  0  0
   14.8577   -7.8033  -20.4153 C   0  0  0  0  0  0  0  0  0  0  0  0
   12.1413   -6.9890  -20.2455 C   0  0  0  0  0  0  0  0  0  0  0  0
   13.2292   -8.0717  -21.2701 Se  0  0  2  0  0  0  0  0  0  0  0  0
   12.6220   -9.7651  -20.8010 C   0  0  0  0  0  0  0  0  0  0  0  0
   13.3789  -10.8999  -21.4922 C   0  0  1  0  0  0  0  0  0  0  0  0
   12.7700  -12.1465  -21.1141 O   0  0  0  0  0  0  0  0  0  0  0  0
   13.1097  -10.7766  -22.9924 C   0  0  1  0  0  0  0  0  0  0  0  0
   13.9412  -11.6933  -23.7056 O   0  0  0  0  0  0  0  0  0  0  0  0
   11.6607  -11.2562  -23.0222 C   0  0  1  0  0  0  0  0  0  0  0  0
   11.3508  -11.7028  -24.3435 O   0  0  0  0  0  0  0  0  0  0  0  0
   11.7744  -12.4714  -22.1007 C   0  0  2  0  0  0  0  0  0  0  0  0
   14.1698   -8.1694  -23.4976 O   0  0  0  0  0  0  0  0  0  0  0  0
    8.0471  -11.0346  -18.8316 N   0  0  0  0  0  0  0  0  0  0  0  0
    9.1473  -10.3847  -19.1706 C   0  0  0  0  0  0  0  0  0  0  0  0
   10.0153  -10.8865  -20.0316 N   0  0  0  0  0  0  0  0  0  0  0  0
    9.8012  -12.0842  -20.5970 C   0  0  0  0  0  0  0  0  0  0  0  0
    8.6579  -12.7971  -20.2644 C   0  0  0  0  0  0  0  0  0  0  0  0
    7.7713  -12.2372  -19.3521 C   0  0  0  0  0  0  0  0  0  0  0  0
    6.6849  -12.9066  -18.9794 N   0  0  0  0  0  0  0  0  0  0  0  0
    8.6800  -13.9358  -20.9480 N   0  0  0  0  0  0  0  0  0  0  0  0
    9.7907  -13.9426  -21.6813 C   0  0  0  0  0  0  0  0  0  0  0  0
   10.4779  -12.8193  -21.4734 N   0  0  0  0  0  0  0  0  0  0  0  0
  2  1  1  1  0  0  0
  2  5  1  0  0  0  0
  2  3  1  0  0  0  0
  3 17  1  0  0  0  0
  3  4  1  0  0  0  0
  5  6  1  0  0  0  0
  7  8  1  0  0  0  0
  8  6  1  1  0  0  0
  8  9  1  0  0  0  0
 10  9  1  1  0  0  0
 10 11  1  0  0  0  0
 10 12  1  0  0  0  0
 11 16  1  0  0  0  0
 12 13  1  6  0  0  0
 12 14  1  0  0  0  0
 14 15  1  6  0  0  0
 14 16  1  0  0  0  0
 16 27  1  1  0  0  0
 18 23  2  0  0  0  0
 18 19  1  0  0  0  0
 19 20  2  0  0  0  0
 20 21  1  0  0  0  0
 21 22  2  0  0  0  0
 21 27  1  0  0  0  0
 22 23  1  0  0  0  0
 22 25  1  0  0  0  0
 23 24  1  0  0  0  0
 25 26  2  0  0  0  0
 26 27  1  0  0  0  0
M  END
>  <CHROM.1>
27.27706937,112.15006300,66.56914459,-159.78813127,-74.10480537,-176.59526586
53.57744919,12.23143219,-10.04622979,-21.52898083,0.32310233,0.64950069,0.64451930

>  <Name>
ligand

>  <RI>
0

>  <Rbt.Current_Directory>
/home/itssahil/PROJECTS/Mol_Feturizer/New_Systems/rnas/3E5F

>  <Rbt.Executable>
rbdock ($Id: //depot/dev/client3/rdock/2013.1/src/exe/rbdock.cxx#4 $)

>  <Rbt.Library>
libRbt.so (2013.1, Build901 2013/11/27)

>  <Rbt.Parameter_File>
/export/apps/rDock/src/rDock_2013.1_src/data/scripts/dock_solv.prm

>  <Rbt.Receptor>
prm/pocket_docking_7.prm

>  <SCORE>
-13.9732

>  <SCORE.INTER>
-15.783

>  <SCORE.INTER.CONST>
1

>  <SCORE.INTER.POLAR>
0

>  <SCORE.INTER.ROT>
7

>  <SCORE.INTER.SOLV>
8.55557

>  <SCORE.INTER.VDW>
-21.6405

>  <SCORE.INTER.norm>
-0.584556

>  <SCORE.INTRA>
1.80984

>  <SCORE.INTRA.DIHEDRAL>
2.64984

>  <SCORE.INTRA.DIHEDRAL.0>
4.89803

>  <SCORE.INTRA.POLAR>
0

>  <SCORE.INTRA.POLAR.0>
0

>  <SCORE.INTRA.REPUL>
0

>  <SCORE.INTRA.REPUL.0>
0

>  <SCORE.INTRA.SOLV>
1.92382

>  <SCORE.INTRA.SOLV.lig_0>
-48.5832

>  <SCORE.INTRA.VDW>
-0.476993

>  <SCORE.INTRA.VDW.0>
-2.39056

>  <SCORE.INTRA.norm>
0.0670309

>  <SCORE.RESTR>
0

>  <SCORE.RESTR.CAVITY>
0

>  <SCORE.RESTR.norm>
0

>  <SCORE.SYSTEM>
0

>  <SCORE.SYSTEM.CONST>
0

>  <SCORE.SYSTEM.DIHEDRAL>
0

>  <SCORE.SYSTEM.SOLV>
0

>  <SCORE.SYSTEM.norm>
0

>  <SCORE.heavy>
27

>  <SCORE.norm>
-0.517525

>  <RMSD>
6.180

$$$$
ligand
 OpenBabel11021811473D
libRbt.so/2013.1/901 2013/11/27
 27 29  0  0  0  0  0  0  0  0999 V2000
    7.4533  -10.1527  -17.9704 N   0  0  0  0  0  0  0  0  0  0  0  0
    7.4082  -10.7231  -19.3248 C   0  0  2  0  0  0  0  0  0  0  0  0
    6.1567  -11.5918  -19.4843 C   0  0  0  0  0  0  0  0  0  0  0  0
    5.2534  -11.1530  -20.2294 O   0  0  0  0  0  0  0  0  0  0  0  0
    8.6522  -11.5876  -19.5376 C   0  0  0  0  0  0  0  0  0  0  0  0
    9.9214  -10.7432  -19.6767 C   0  0  0  0  0  0  0  0  0  0  0  0
   12.6266  -10.4421  -18.8630 C   0  0  0  0  0  0  0  0  0  0  0  0
   11.4397  -11.7663  -19.3564 Se  0  0  2  0  0  0  0  0  0  0  0  0
   12.1230  -12.2872  -21.0051 C   0  0  0  0  0  0  0  0  0  0  0  0
   11.5393  -11.5070  -22.1837 C   0  0  1  0  0  0  0  0  0  0  0  0
   11.9894  -10.1443  -22.0921 O   0  0  0  0  0  0  0  0  0  0  0  0
   12.1959  -12.0472  -23.4547 C   0  0  1  0  0  0  0  0  0  0  0  0
   11.5526  -11.4885  -24.6012 O   0  0  0  0  0  0  0  0  0  0  0  0
   13.5867  -11.4396  -23.2900 C   0  0  1  0  0  0  0  0  0  0  0  0
   14.2181  -11.3817  -24.5703 O   0  0  0  0  0  0  0  0  0  0  0  0
   13.1982  -10.0235  -22.8629 C   0  0  2  0  0  0  0  0  0  0  0  0
    6.1258  -12.6700  -18.8513 O   0  0  0  0  0  0  0  0  0  0  0  0
   16.7030   -6.2360  -22.7373 N   0  0  0  0  0  0  0  0  0  0  0  0
   15.8329   -6.5280  -23.6887 C   0  0  0  0  0  0  0  0  0  0  0  0
   14.9891   -7.5387  -23.5746 N   0  0  0  0  0  0  0  0  0  0  0  0
   14.9883   -8.3062  -22.4741 C   0  0  0  0  0  0  0  0  0  0  0  0
   15.8887   -8.0315  -21.4544 C   0  0  0  0  0  0  0  0  0  0  0  0
   16.7624   -6.9624  -21.6138 C   0  0  0  0  0  0  0  0  0  0  0  0
   17.6651   -6.6919  -20.6761 N   0  0  0  0  0  0  0  0  0  0  0  0
   15.6903   -8.9235  -20.4904 N   0  0  0  0  0  0  0  0  0  0  0  0
   14.7062   -9.7284  -20.8844 C   0  0  0  0  0  0  0  0  0  0  0  0
   14.2738   -9.3589  -22.0901 N   0  0  0  0  0  0  0  0  0  0  0  0
  2  1  1  1  0  0  0
  2  5  1  0  0  0  0
  2  3  1  0  0  0  0
  3 17  1  0  0  0  0
  3  4  1  0  0  0  0
  5  6  1  0  0  0  0
  7  8  1  0  0  0  0
  8  6  1  6  0  0  0
  8  9  1  0  0  0  0
 10  9  1  1  0  0  0
 10 11  1  0  0  0  0
 10 12  1  0  0  0  0
 11 16  1  0  0  0  0
 12 13  1  6  0  0  0
 12 14  1  0  0  0  0
 14 15  1  6  0  0  0
 14 16  1  0  0  0  0
 16 27  1  1  0  0  0
 18 23  2  0  0  0  0
 18 19  1  0  0  0  0
 19 20  2  0  0  0  0
 20 21  1  0  0  0  0
 21 22  2  0  0  0  0
 21 27  1  0  0  0  0
 22 23  1  0  0  0  0
 22 25  1  0  0  0  0
 23 24  1  0  0  0  0
 25 26  2  0  0  0  0
 26 27  1  0  0  0  0
M  END
>  <CHROM.1>
-71.61444081,109.54074719,160.73697213,-156.30683609,14.42264496,67.48832995
-127.41379347,12.10326277,-10.30472621,-21.06634839,-2.97316655,-0.50524831
-1.92990090

>  <Name>
ligand

>  <RI>
0

>  <Rbt.Current_Directory>
/home/itssahil/PROJECTS/Mol_Feturizer/New_Systems/rnas/3E5F

>  <Rbt.Executable>
rbdock ($Id: //depot/dev/client3/rdock/2013.1/src/exe/rbdock.cxx#4 $)

>  <Rbt.Library>
libRbt.so (2013.1, Build901 2013/11/27)

>  <Rbt.Parameter_File>
/export/apps/rDock/src/rDock_2013.1_src/data/scripts/dock_solv.prm

>  <Rbt.Receptor>
prm/blind_docking_60.prm

>  <SCORE>
-13.7775

>  <SCORE.INTER>
-15.95

>  <SCORE.INTER.CONST>
1

>  <SCORE.INTER.POLAR>
0

>  <SCORE.INTER.ROT>
7

>  <SCORE.INTER.SOLV>
11.3758

>  <SCORE.INTER.VDW>
-22.692

>  <SCORE.INTER.norm>
-0.590741

>  <SCORE.INTRA>
2.17247

>  <SCORE.INTRA.DIHEDRAL>
2.77736

>  <SCORE.INTRA.DIHEDRAL.0>
4.89803

>  <SCORE.INTRA.POLAR>
0

>  <SCORE.INTRA.POLAR.0>
0

>  <SCORE.INTRA.REPUL>
0

>  <SCORE.INTRA.REPUL.0>
0

>  <SCORE.INTRA.SOLV>
0.723989

>  <SCORE.INTRA.SOLV.lig_0>
-48.5832

>  <SCORE.INTRA.VDW>
0.421796

>  <SCORE.INTRA.VDW.0>
-2.39056

>  <SCORE.INTRA.norm>
0.080462

>  <SCORE.RESTR>
0

>  <SCORE.RESTR.CAVITY>
0

>  <SCORE.RESTR.norm>
0

>  <SCORE.SYSTEM>
0

>  <SCORE.SYSTEM.CONST>
0

>  <SCORE.SYSTEM.DIHEDRAL>
0

>  <SCORE.SYSTEM.SOLV>
0

>  <SCORE.SYSTEM.norm>
0

>  <SCORE.heavy>
27

>  <SCORE.norm>
-0.510279

>  <RMSD>
6.191

$$$$
ligand
 OpenBabel11021811473D
libRbt.so/2013.1/901 2013/11/27
 27 29  0  0  0  0  0  0  0  0999 V2000
   15.9501   -6.6535  -24.7723 N   0  0  0  0  0  0  0  0  0  0  0  0
   15.3551   -6.7155  -23.4292 C   0  0  2  0  0  0  0  0  0  0  0  0
   16.0065   -5.6686  -22.5205 C   0  0  0  0  0  0  0  0  0  0  0  0
   17.1733   -5.8999  -22.1349 O   0  0  0  0  0  0  0  0  0  0  0  0
   15.5966   -8.1091  -22.8465 C   0  0  0  0  0  0  0  0  0  0  0  0
   14.8944   -8.2979  -21.4994 C   0  0  0  0  0  0  0  0  0  0  0  0
   12.5137   -7.1940  -20.4113 C   0  0  0  0  0  0  0  0  0  0  0  0
   13.0504   -8.3832  -21.7164 Se  0  0  2  0  0  0  0  0  0  0  0  0
   12.4766  -10.0029  -21.0068 C   0  0  0  0  0  0  0  0  0  0  0  0
   13.1933  -11.2180  -21.5971 C   0  0  1  0  0  0  0  0  0  0  0  0
   12.5392  -12.4060  -21.1192 O   0  0  0  0  0  0  0  0  0  0  0  0
   12.9316  -11.2110  -23.1037 C   0  0  1  0  0  0  0  0  0  0  0  0
   13.7309  -12.2134  -23.7338 O   0  0  0  0  0  0  0  0  0  0  0  0
   11.4663  -11.6393  -23.1004 C   0  0  1  0  0  0  0  0  0  0  0  0
   11.1430  -12.1834  -24.3813 O   0  0  0  0  0  0  0  0  0  0  0  0
   11.5344  -12.7764  -22.0801 C   0  0  2  0  0  0  0  0  0  0  0  0
   15.3214   -4.6652  -22.2232 O   0  0  0  0  0  0  0  0  0  0  0  0
    7.9516  -11.0294  -18.8004 N   0  0  0  0  0  0  0  0  0  0  0  0
    9.0889  -10.4619  -19.1639 C   0  0  0  0  0  0  0  0  0  0  0  0
    9.9108  -11.0374  -20.0240 N   0  0  0  0  0  0  0  0  0  0  0  0
    9.6099  -12.2284  -20.5634 C   0  0  0  0  0  0  0  0  0  0  0  0
    8.4252  -12.8560  -20.2047 C   0  0  0  0  0  0  0  0  0  0  0  0
    7.5893  -12.2203  -19.2942 C   0  0  0  0  0  0  0  0  0  0  0  0
    6.4649  -12.8077  -18.8968 N   0  0  0  0  0  0  0  0  0  0  0  0
    8.3624  -14.0064  -20.8658 N   0  0  0  0  0  0  0  0  0  0  0  0
    9.4613  -14.1021  -21.6107 C   0  0  0  0  0  0  0  0  0  0  0  0
   10.2250  -13.0240  -21.4323 N   0  0  0  0  0  0  0  0  0  0  0  0
  2  1  1  6  0  0  0
  2  5  1  0  0  0  0
  2  3  1  0  0  0  0
  3 17  1  0  0  0  0
  3  4  1  0  0  0  0
  5  6  1  0  0  0  0
  7  8  1  0  0  0  0
  8  6  1  1  0  0  0
  8  9  1  0  0  0  0
 10  9  1  1  0  0  0
 10 11  1  0  0  0  0
 10 12  1  0  0  0  0
 11 16  1  0  0  0  0
 12 13  1  6  0  0  0
 12 14  1  0  0  0  0
 14 15  1  6  0  0  0
 14 16  1  0  0  0  0
 16 27  1  1  0  0  0
 18 23  2  0  0  0  0
 18 19  1  0  0  0  0
 19 20  2  0  0  0  0
 20 21  1  0  0  0  0
 21 22  2  0  0  0  0
 21 27  1  0  0  0  0
 22 23  1  0  0  0  0
 22 25  1  0  0  0  0
 23 24  1  0  0  0  0
 25 26  2  0  0  0  0
 26 27  1  0  0  0  0
M  END
>  <CHROM.1>
-174.71144051,-73.15871371,70.16693879,-131.83990733,-54.75719196,-171.86315567
49.38762863,12.18138629,-9.98728624,-21.63511730,-0.46286097,-0.64164275
-2.61929019

>  <Name>
ligand

>  <RI>
0

>  <Rbt.Current_Directory>
/home/itssahil/PROJECTS/Mol_Feturizer/New_Systems/rnas/3E5F

>  <Rbt.Executable>
rbdock ($Id: //depot/dev/client3/rdock/2013.1/src/exe/rbdock.cxx#4 $)

>  <Rbt.Library>
libRbt.so (2013.1, Build901 2013/11/27)

>  <Rbt.Parameter_File>
/export/apps/rDock/src/rDock_2013.1_src/data/scripts/dock_solv.prm

>  <Rbt.Receptor>
prm/blind_docking_80.prm

>  <SCORE>
-12.1042

>  <SCORE.INTER>
-12.1256

>  <SCORE.INTER.CONST>
1

>  <SCORE.INTER.POLAR>
0

>  <SCORE.INTER.ROT>
7

>  <SCORE.INTER.SOLV>
13.8587

>  <SCORE.INTER.VDW>
-20.9699

>  <SCORE.INTER.norm>
-0.449095

>  <SCORE.INTRA>
0.0214234

>  <SCORE.INTRA.DIHEDRAL>
1.26192

>  <SCORE.INTRA.DIHEDRAL.0>
4.89803

>  <SCORE.INTRA.POLAR>
0

>  <SCORE.INTRA.POLAR.0>
0

>  <SCORE.INTRA.REPUL>
0

>  <SCORE.INTRA.REPUL.0>
0

>  <SCORE.INTRA.SOLV>
0.0200116

>  <SCORE.INTRA.SOLV.lig_0>
-48.5832

>  <SCORE.INTRA.VDW>
-0.619541

>  <SCORE.INTRA.VDW.0>
-2.39056

>  <SCORE.INTRA.norm>
0.000793461

>  <SCORE.RESTR>
0

>  <SCORE.RESTR.CAVITY>
0

>  <SCORE.RESTR.norm>
0

>  <SCORE.SYSTEM>
0

>  <SCORE.SYSTEM.CONST>
0

>  <SCORE.SYSTEM.DIHEDRAL>
0

>  <SCORE.SYSTEM.SOLV>
0

>  <SCORE.SYSTEM.norm>
0

>  <SCORE.heavy>
27

>  <SCORE.norm>
-0.448302

>  <RMSD>
6.203

$$$$
ligand
 OpenBabel11021811473D
libRbt.so/2013.1/901 2013/11/27
 27 29  0  0  0  0  0  0  0  0999 V2000
   14.9331   -4.3168  -20.9010 N   0  0  0  0  0  0  0  0  0  0  0  0
   16.1700   -5.0334  -20.5572 C   0  0  2  0  0  0  0  0  0  0  0  0
   17.3874   -4.2180  -21.0037 C   0  0  0  0  0  0  0  0  0  0  0  0
   18.5010   -4.5716  -20.5583 O   0  0  0  0  0  0  0  0  0  0  0  0
   16.1752   -6.3826  -21.2781 C   0  0  0  0  0  0  0  0  0  0  0  0
   15.1046   -7.3302  -20.7310 C   0  0  0  0  0  0  0  0  0  0  0  0
   14.5837   -8.6310  -23.2022 C   0  0  0  0  0  0  0  0  0  0  0  0
   15.2367   -9.0088  -21.5181 Se  0  0  2  0  0  0  0  0  0  0  0  0
   13.8773  -10.0655  -20.8170 C   0  0  0  0  0  0  0  0  0  0  0  0
   13.9937  -11.5427  -21.1947 C   0  0  1  0  0  0  0  0  0  0  0  0
   12.9405  -12.2638  -20.5325 O   0  0  0  0  0  0  0  0  0  0  0  0
   13.6647  -11.6572  -22.6837 C   0  0  1  0  0  0  0  0  0  0  0  0
   13.9410  -12.9840  -23.1350 O   0  0  0  0  0  0  0  0  0  0  0  0
   12.1561  -11.4324  -22.6199 C   0  0  1  0  0  0  0  0  0  0  0  0
   11.5589  -11.9812  -23.7960 O   0  0  0  0  0  0  0  0  0  0  0  0
   11.8146  -12.3251  -21.4261 C   0  0  2  0  0  0  0  0  0  0  0  0
   17.1778   -3.2538  -21.7723 O   0  0  0  0  0  0  0  0  0  0  0  0
    7.8689  -13.7192  -18.4041 N   0  0  0  0  0  0  0  0  0  0  0  0
    8.8976  -14.4436  -18.8098 C   0  0  0  0  0  0  0  0  0  0  0  0
    9.8395  -13.9409  -19.5888 N   0  0  0  0  0  0  0  0  0  0  0  0
    9.7805  -12.6631  -19.9933 C   0  0  0  0  0  0  0  0  0  0  0  0
    8.7145  -11.8717  -19.5892 C   0  0  0  0  0  0  0  0  0  0  0  0
    7.7423  -12.4382  -18.7733 C   0  0  0  0  0  0  0  0  0  0  0  0
    6.6865  -11.7233  -18.3972 N   0  0  0  0  0  0  0  0  0  0  0  0
    8.8853  -10.6651  -20.1176 N   0  0  0  0  0  0  0  0  0  0  0  0
   10.0116  -10.6927  -20.8263 C   0  0  0  0  0  0  0  0  0  0  0  0
   10.5621  -11.9048  -20.7552 N   0  0  0  0  0  0  0  0  0  0  0  0
  2  1  1  6  0  0  0
  2  5  1  0  0  0  0
  2  3  1  0  0  0  0
  3 17  1  0  0  0  0
  3  4  1  0  0  0  0
  5  6  1  0  0  0  0
  7  8  1  0  0  0  0
  8  6  1  1  0  0  0
  8  9  1  0  0  0  0
 10  9  1  1  0  0  0
 10 11  1  0  0  0  0
 10 12  1  0  0  0  0
 11 16  1  0  0  0  0
 12 13  1  1  0  0  0
 12 14  1  0  0  0  0
 14 15  1  6  0  0  0
 14 16  1  0  0  0  0
 16 27  1  1  0  0  0
 18 23  2  0  0  0  0
 18 19  1  0  0  0  0
 19 20  2  0  0  0  0
 20 21  1  0  0  0  0
 21 22  2  0  0  0  0
 21 27  1  0  0  0  0
 22 23  1  0  0  0  0
 22 25  1  0  0  0  0
 23 24  1  0  0  0  0
 25 26  2  0  0  0  0
 26 27  1  0  0  0  0
M  END
>  <CHROM.1>
-68.32180295,166.80042813,-174.85478873,-73.00904744,-170.48999905,176.58691200
-83.04050936,13.03222658,-9.82733453,-20.99936200,0.60362122,0.52252071,0.42441317

>  <Name>
ligand

>  <RI>
0

>  <Rbt.Current_Directory>
/home/itssahil/PROJECTS/Mol_Feturizer/New_Systems/rnas/3E5F

>  <Rbt.Executable>
rbdock ($Id: //depot/dev/client3/rdock/2013.1/src/exe/rbdock.cxx#4 $)

>  <Rbt.Library>
libRbt.so (2013.1, Build901 2013/11/27)

>  <Rbt.Parameter_File>
/export/apps/rDock/src/rDock_2013.1_src/data/scripts/dock_solv.prm

>  <Rbt.Receptor>
prm/blind_docking_100.prm

>  <SCORE>
-18.3686

>  <SCORE.INTER>
-19.1498

>  <SCORE.INTER.CONST>
1

>  <SCORE.INTER.POLAR>
0

>  <SCORE.INTER.ROT>
7

>  <SCORE.INTER.SOLV>
8.54578

>  <SCORE.INTER.VDW>
-23.8818

>  <SCORE.INTER.norm>
-0.709252

>  <SCORE.INTRA>
0.78121

>  <SCORE.INTRA.DIHEDRAL>
-1.03122

>  <SCORE.INTRA.DIHEDRAL.0>
4.89803

>  <SCORE.INTRA.POLAR>
0

>  <SCORE.INTRA.POLAR.0>
0

>  <SCORE.INTRA.REPUL>
0

>  <SCORE.INTRA.REPUL.0>
0

>  <SCORE.INTRA.SOLV>
0.667405

>  <SCORE.INTRA.SOLV.lig_0>
-48.5832

>  <SCORE.INTRA.VDW>
0.963118

>  <SCORE.INTRA.VDW.0>
-2.39056

>  <SCORE.INTRA.norm>
0.0289337

>  <SCORE.RESTR>
0

>  <SCORE.RESTR.CAVITY>
0

>  <SCORE.RESTR.norm>
0

>  <SCORE.SYSTEM>
0

>  <SCORE.SYSTEM.CONST>
0

>  <SCORE.SYSTEM.DIHEDRAL>
0

>  <SCORE.SYSTEM.SOLV>
0

>  <SCORE.SYSTEM.norm>
0

>  <SCORE.heavy>
27

>  <SCORE.norm>
-0.680319

>  <RMSD>
6.206

$$$$
ligand
 OpenBabel11021811473D
libRbt.so/2013.1/901 2013/11/27
 27 29  0  0  0  0  0  0  0  0999 V2000
   16.3607   -5.3544  -19.4415 N   0  0  0  0  0  0  0  0  0  0  0  0
   16.2999   -5.0617  -20.8811 C   0  0  2  0  0  0  0  0  0  0  0  0
   15.0545   -4.2260  -21.1921 C   0  0  0  0  0  0  0  0  0  0  0  0
   14.0131   -4.5029  -20.5578 O   0  0  0  0  0  0  0  0  0  0  0  0
   16.2259   -6.3819  -21.6503 C   0  0  0  0  0  0  0  0  0  0  0  0
   15.0474   -7.2465  -21.1953 C   0  0  0  0  0  0  0  0  0  0  0  0
   14.4642   -8.6572  -23.5911 C   0  0  0  0  0  0  0  0  0  0  0  0
   15.1630   -8.9583  -21.9099 Se  0  0  2  0  0  0  0  0  0  0  0  0
   13.8256   -9.9847  -21.1261 C   0  0  0  0  0  0  0  0  0  0  0  0
   13.9900  -11.4868  -21.3606 C   0  0  1  0  0  0  0  0  0  0  0  0
   12.9861  -12.1770  -20.5969 O   0  0  0  0  0  0  0  0  0  0  0  0
   13.6233  -11.7608  -22.8196 C   0  0  1  0  0  0  0  0  0  0  0  0
   13.9394  -13.1147  -23.1473 O   0  0  0  0  0  0  0  0  0  0  0  0
   12.1093  -11.5867  -22.7292 C   0  0  1  0  0  0  0  0  0  0  0  0
   11.5010  -12.2713  -23.8257 O   0  0  0  0  0  0  0  0  0  0  0  0
   11.8383  -12.3684  -21.4431 C   0  0  2  0  0  0  0  0  0  0  0  0
   15.1675   -3.3355  -22.0630 O   0  0  0  0  0  0  0  0  0  0  0  0
    7.8380  -13.7178  -18.4730 N   0  0  0  0  0  0  0  0  0  0  0  0
    8.8538  -14.4589  -18.8809 C   0  0  0  0  0  0  0  0  0  0  0  0
    9.8130  -13.9661  -19.6450 N   0  0  0  0  0  0  0  0  0  0  0  0
    9.7854  -12.6817  -20.0316 C   0  0  0  0  0  0  0  0  0  0  0  0
    8.7337  -11.8728  -19.6247 C   0  0  0  0  0  0  0  0  0  0  0  0
    7.7426  -12.4292  -18.8248 C   0  0  0  0  0  0  0  0  0  0  0  0
    6.6996  -11.6967  -18.4470 N   0  0  0  0  0  0  0  0  0  0  0  0
    8.9353  -10.6629  -20.1344 N   0  0  0  0  0  0  0  0  0  0  0  0
   10.0666  -10.7053  -20.8343 C   0  0  0  0  0  0  0  0  0  0  0  0
   10.5898  -11.9301  -20.7763 N   0  0  0  0  0  0  0  0  0  0  0  0
  2  1  1  1  0  0  0
  2  5  1  0  0  0  0
  2  3  1  0  0  0  0
  3 17  1  0  0  0  0
  3  4  1  0  0  0  0
  5  6  1  0  0  0  0
  7  8  1  0  0  0  0
  8  6  1  1  0  0  0
  8  9  1  0  0  0  0
 10  9  1  6  0  0  0
 10 11  1  0  0  0  0
 10 12  1  0  0  0  0
 11 16  1  0  0  0  0
 12 13  1  1  0  0  0
 12 14  1  0  0  0  0
 14 15  1  6  0  0  0
 14 16  1  0  0  0  0
 16 27  1  1  0  0  0
 18 23  2  0  0  0  0
 18 19  1  0  0  0  0
 19 20  2  0  0  0  0
 20 21  1  0  0  0  0
 21 22  2  0  0  0  0
 21 27  1  0  0  0  0
 22 23  1  0  0  0  0
 22 25  1  0  0  0  0
 23 24  1  0  0  0  0
 25 26  2  0  0  0  0
 26 27  1  0  0  0  0
M  END
>  <CHROM.1>
55.84364473,-37.93103591,-169.45037416,-81.57849998,-166.52122405,174.07288583
-90.72748797,12.76018998,-9.86981754,-21.12798023,0.66807511,0.54313149,0.34941602

>  <Name>
ligand

>  <RI>
0

>  <Rbt.Current_Directory>
/home/itssahil/PROJECTS/Mol_Feturizer/New_Systems/rnas/3E5F

>  <Rbt.Executable>
rbdock ($Id: //depot/dev/client3/rdock/2013.1/src/exe/rbdock.cxx#4 $)

>  <Rbt.Library>
libRbt.so (2013.1, Build901 2013/11/27)

>  <Rbt.Parameter_File>
/export/apps/rDock/src/rDock_2013.1_src/data/scripts/dock_solv.prm

>  <Rbt.Receptor>
prm/blind_docking_100.prm

>  <SCORE>
-16.891

>  <SCORE.INTER>
-18.0877

>  <SCORE.INTER.CONST>
1

>  <SCORE.INTER.POLAR>
0

>  <SCORE.INTER.ROT>
7

>  <SCORE.INTER.SOLV>
8.91868

>  <SCORE.INTER.VDW>
-23.298

>  <SCORE.INTER.norm>
-0.669914

>  <SCORE.INTRA>
1.19671

>  <SCORE.INTRA.DIHEDRAL>
-0.433069

>  <SCORE.INTRA.DIHEDRAL.0>
4.89803

>  <SCORE.INTRA.POLAR>
0

>  <SCORE.INTRA.POLAR.0>
0

>  <SCORE.INTRA.REPUL>
0

>  <SCORE.INTRA.REPUL.0>
0

>  <SCORE.INTRA.SOLV>
0.703908

>  <SCORE.INTRA.SOLV.lig_0>
-48.5832

>  <SCORE.INTRA.VDW>
1.06129

>  <SCORE.INTRA.VDW.0>
-2.39056

>  <SCORE.INTRA.norm>
0.0443228

>  <SCORE.RESTR>
0

>  <SCORE.RESTR.CAVITY>
0

>  <SCORE.RESTR.norm>
0

>  <SCORE.SYSTEM>
0

>  <SCORE.SYSTEM.CONST>
0

>  <SCORE.SYSTEM.DIHEDRAL>
0

>  <SCORE.SYSTEM.SOLV>
0

>  <SCORE.SYSTEM.norm>
0

>  <SCORE.heavy>
27

>  <SCORE.norm>
-0.625592

>  <RMSD>
6.214

$$$$
ligand
 OpenBabel11021811473D
libRbt.so/2013.1/901 2013/11/27
 27 29  0  0  0  0  0  0  0  0999 V2000
   16.7116   -6.2198  -19.6333 N   0  0  0  0  0  0  0  0  0  0  0  0
   17.1454   -6.4649  -21.0166 C   0  0  2  0  0  0  0  0  0  0  0  0
   18.3184   -5.5442  -21.3671 C   0  0  0  0  0  0  0  0  0  0  0  0
   18.1898   -4.3317  -21.0897 O   0  0  0  0  0  0  0  0  0  0  0  0
   15.9766   -6.1732  -21.9593 C   0  0  0  0  0  0  0  0  0  0  0  0
   14.7588   -7.0485  -21.6522 C   0  0  0  0  0  0  0  0  0  0  0  0
   14.5002   -8.7555  -23.9082 C   0  0  0  0  0  0  0  0  0  0  0  0
   15.0642   -8.8124  -22.1520 Se  0  0  2  0  0  0  0  0  0  0  0  0
   13.7404   -9.8550  -21.3665 C   0  0  0  0  0  0  0  0  0  0  0  0
   13.9882  -11.3585  -21.4957 C   0  0  1  0  0  0  0  0  0  0  0  0
   13.0276  -12.0477  -20.6773 O   0  0  0  0  0  0  0  0  0  0  0  0
   13.6318  -11.7553  -22.9288 C   0  0  1  0  0  0  0  0  0  0  0  0
   14.0223  -13.1092  -23.1626 O   0  0  0  0  0  0  0  0  0  0  0  0
   12.1108  -11.6600  -22.8390 C   0  0  1  0  0  0  0  0  0  0  0  0
   11.5378  -12.4536  -23.8797 O   0  0  0  0  0  0  0  0  0  0  0  0
   11.8892  -12.3625  -21.4988 C   0  0  2  0  0  0  0  0  0  0  0  0
   19.3134   -6.0700  -21.9128 O   0  0  0  0  0  0  0  0  0  0  0  0
    7.9704  -13.7270  -18.4287 N   0  0  0  0  0  0  0  0  0  0  0  0
    9.0231  -14.4385  -18.7938 C   0  0  0  0  0  0  0  0  0  0  0  0
    9.9537  -13.9460  -19.5926 N   0  0  0  0  0  0  0  0  0  0  0  0
    9.8581  -12.6920  -20.0598 C   0  0  0  0  0  0  0  0  0  0  0  0
    8.7661  -11.9149  -19.6998 C   0  0  0  0  0  0  0  0  0  0  0  0
    7.8069  -12.4702  -18.8611 C   0  0  0  0  0  0  0  0  0  0  0  0
    6.7276  -11.7706  -18.5253 N   0  0  0  0  0  0  0  0  0  0  0  0
    8.9031  -10.7310  -20.2864 N   0  0  0  0  0  0  0  0  0  0  0  0
   10.0337  -10.7588  -20.9880 C   0  0  0  0  0  0  0  0  0  0  0  0
   10.6205  -11.9484  -20.8549 N   0  0  0  0  0  0  0  0  0  0  0  0
  2  1  1  1  0  0  0
  2  5  1  0  0  0  0
  2  3  1  0  0  0  0
  3 17  1  0  0  0  0
  3  4  1  0  0  0  0
  5  6  1  0  0  0  0
  7  8  1  0  0  0  0
  8  6  1  1  0  0  0
  8  9  1  0  0  0  0
 10  9  1  6  0  0  0
 10 11  1  0  0  0  0
 10 12  1  0  0  0  0
 11 16  1  0  0  0  0
 12 13  1  1  0  0  0
 12 14  1  0  0  0  0
 14 15  1  6  0  0  0
 14 16  1  0  0  0  0
 16 27  1  1  0  0  0
 18 23  2  0  0  0  0
 18 19  1  0  0  0  0
 19 20  2  0  0  0  0
 20 21  1  0  0  0  0
 21 22  2  0  0  0  0
 21 27  1  0  0  0  0
 22 23  1  0  0  0  0
 22 25  1  0  0  0  0
 23 24  1  0  0  0  0
 25 26  2  0  0  0  0
 26 27  1  0  0  0  0
M  END
>  <CHROM.1>
-59.20885697,-48.49523469,-71.46384078,-88.21808281,-170.47594109,170.93381250
-91.20911940,13.17985121,-10.03717216,-21.27397140,0.37636576,0.58839735
0.67122251

>  <Name>
ligand

>  <RI>
0

>  <Rbt.Current_Directory>
/home/itssahil/PROJECTS/Mol_Feturizer/New_Systems/rnas/3E5F

>  <Rbt.Executable>
rbdock ($Id: //depot/dev/client3/rdock/2013.1/src/exe/rbdock.cxx#4 $)

>  <Rbt.Library>
libRbt.so (2013.1, Build901 2013/11/27)

>  <Rbt.Parameter_File>
/export/apps/rDock/src/rDock_2013.1_src/data/scripts/dock_solv.prm

>  <Rbt.Receptor>
prm/blind_docking_40.prm

>  <SCORE>
-16.932

>  <SCORE.INTER>
-17.6311

>  <SCORE.INTER.CONST>
1

>  <SCORE.INTER.POLAR>
0

>  <SCORE.INTER.ROT>
7

>  <SCORE.INTER.SOLV>
8.01565

>  <SCORE.INTER.VDW>
-22.6926

>  <SCORE.INTER.norm>
-0.653004

>  <SCORE.INTRA>
0.699062

>  <SCORE.INTRA.DIHEDRAL>
-0.153814

>  <SCORE.INTRA.DIHEDRAL.0>
4.89803

>  <SCORE.INTRA.POLAR>
0

>  <SCORE.INTRA.POLAR.0>
0

>  <SCORE.INTRA.REPUL>
0

>  <SCORE.INTRA.REPUL.0>
0

>  <SCORE.INTRA.SOLV>
0.726418

>  <SCORE.INTRA.SOLV.lig_0>
-48.5832

>  <SCORE.INTRA.VDW>
0.41276

>  <SCORE.INTRA.VDW.0>
-2.39056

>  <SCORE.INTRA.norm>
0.0258912

>  <SCORE.RESTR>
0

>  <SCORE.RESTR.CAVITY>
0

>  <SCORE.RESTR.norm>
0

>  <SCORE.SYSTEM>
0

>  <SCORE.SYSTEM.CONST>
0

>  <SCORE.SYSTEM.DIHEDRAL>
0

>  <SCORE.SYSTEM.SOLV>
0

>  <SCORE.SYSTEM.norm>
0

>  <SCORE.heavy>
27

>  <SCORE.norm>
-0.627113

>  <RMSD>
6.214

$$$$
ligand
 OpenBabel11021811473D
libRbt.so/2013.1/901 2013/11/27
 27 29  0  0  0  0  0  0  0  0999 V2000
   16.2923   -4.5221  -21.1293 N   0  0  0  0  0  0  0  0  0  0  0  0
   15.9905   -5.8773  -20.6454 C   0  0  2  0  0  0  0  0  0  0  0  0
   16.8342   -6.9039  -21.4072 C   0  0  0  0  0  0  0  0  0  0  0  0
   17.4967   -7.7136  -20.7222 O   0  0  0  0  0  0  0  0  0  0  0  0
   14.5076   -6.1674  -20.8834 C   0  0  0  0  0  0  0  0  0  0  0  0
   14.0885   -7.5238  -20.3108 C   0  0  0  0  0  0  0  0  0  0  0  0
   11.4180   -6.7909  -19.6772 C   0  0  0  0  0  0  0  0  0  0  0  0
   12.3411   -7.9374  -20.7903 Se  0  0  2  0  0  0  0  0  0  0  0  0
   11.9322   -9.5917  -20.0472 C   0  0  0  0  0  0  0  0  0  0  0  0
   12.7703  -10.7399  -20.6111 C   0  0  1  0  0  0  0  0  0  0  0  0
   12.3157  -11.9673  -20.0156 O   0  0  0  0  0  0  0  0  0  0  0  0
   12.4169  -10.8740  -22.0928 C   0  0  1  0  0  0  0  0  0  0  0  0
   13.3049  -11.8038  -22.7151 O   0  0  0  0  0  0  0  0  0  0  0  0
   11.0270  -11.4911  -21.9589 C   0  0  1  0  0  0  0  0  0  0  0  0
   10.7021  -12.1623  -23.1776 O   0  0  0  0  0  0  0  0  0  0  0  0
   11.3132  -12.5343  -20.8780 C   0  0  2  0  0  0  0  0  0  0  0  0
   16.8064   -6.8513  -22.6565 O   0  0  0  0  0  0  0  0  0  0  0  0
    7.0279  -10.8751  -18.5267 N   0  0  0  0  0  0  0  0  0  0  0  0
    7.9525  -10.1710  -19.1567 C   0  0  0  0  0  0  0  0  0  0  0  0
    9.0037  -10.7442  -19.7163 N   0  0  0  0  0  0  0  0  0  0  0  0
    9.1639  -12.0752  -19.6637 C   0  0  0  0  0  0  0  0  0  0  0  0
    8.2147  -12.8478  -19.0093 C   0  0  0  0  0  0  0  0  0  0  0  0
    7.1255  -12.2072  -18.4303 C   0  0  0  0  0  0  0  0  0  0  0  0
    6.2158  -12.9091  -17.7618 N   0  0  0  0  0  0  0  0  0  0  0  0
    8.5988  -14.1165  -19.0954 N   0  0  0  0  0  0  0  0  0  0  0  0
    9.7427  -14.1446  -19.7752 C   0  0  0  0  0  0  0  0  0  0  0  0
   10.0927  -12.9065  -20.1246 N   0  0  0  0  0  0  0  0  0  0  0  0
  2  1  1  6  0  0  0
  2  5  1  0  0  0  0
  2  3  1  0  0  0  0
  3 17  1  0  0  0  0
  3  4  1  0  0  0  0
  5  6  1  0  0  0  0
  7  8  1  0  0  0  0
  8  6  1  1  0  0  0
  8  9  1  0  0  0  0
 10  9  1  1  0  0  0
 10 11  1  0  0  0  0
 10 12  1  0  0  0  0
 11 16  1  0  0  0  0
 12 13  1  6  0  0  0
 12 14  1  0  0  0  0
 14 15  1  6  0  0  0
 14 16  1  0  0  0  0
 16 27  1  1  0  0  0
 18 23  2  0  0  0  0
 18 19  1  0  0  0  0
 19 20  2  0  0  0  0
 20 21  1  0  0  0  0
 21 22  2  0  0  0  0
 21 27  1  0  0  0  0
 22 23  1  0  0  0  0
 22 25  1  0  0  0  0
 23 24  1  0  0  0  0
 25 26  2  0  0  0  0
 26 27  1  0  0  0  0
M  END
>  <CHROM.1>
-175.75225981,127.81920540,-173.22873497,-74.14340207,-64.67313733,-176.96600381
75.56034032,11.85113270,-9.78902621,-20.50838758,0.56291894,0.46558445,0.31539214

>  <Name>
ligand

>  <RI>
0

>  <Rbt.Current_Directory>
/home/itssahil/PROJECTS/Mol_Feturizer/New_Systems/rnas/3E5F

>  <Rbt.Executable>
rbdock ($Id: //depot/dev/client3/rdock/2013.1/src/exe/rbdock.cxx#4 $)

>  <Rbt.Library>
libRbt.so (2013.1, Build901 2013/11/27)

>  <Rbt.Parameter_File>
/export/apps/rDock/src/rDock_2013.1_src/data/scripts/dock_solv.prm

>  <Rbt.Receptor>
prm/blind_docking_100.prm

>  <SCORE>
-13.4379

>  <SCORE.INTER>
-12.5181

>  <SCORE.INTER.CONST>
1

>  <SCORE.INTER.POLAR>
0

>  <SCORE.INTER.ROT>
7

>  <SCORE.INTER.SOLV>
7.71273

>  <SCORE.INTER.VDW>
-19.183

>  <SCORE.INTER.norm>
-0.463632

>  <SCORE.INTRA>
-0.919819

>  <SCORE.INTRA.DIHEDRAL>
-1.58516

>  <SCORE.INTRA.DIHEDRAL.0>
4.89803

>  <SCORE.INTRA.POLAR>
0

>  <SCORE.INTRA.POLAR.0>
0

>  <SCORE.INTRA.REPUL>
0

>  <SCORE.INTRA.REPUL.0>
0

>  <SCORE.INTRA.SOLV>
-0.0647768

>  <SCORE.INTRA.SOLV.lig_0>
-48.5832

>  <SCORE.INTRA.VDW>
-0.0948495

>  <SCORE.INTRA.VDW.0>
-2.39056

>  <SCORE.INTRA.norm>
-0.0340674

>  <SCORE.RESTR>
0

>  <SCORE.RESTR.CAVITY>
0

>  <SCORE.RESTR.norm>
0

>  <SCORE.SYSTEM>
0

>  <SCORE.SYSTEM.CONST>
0

>  <SCORE.SYSTEM.DIHEDRAL>
0

>  <SCORE.SYSTEM.SOLV>
0

>  <SCORE.SYSTEM.norm>
0

>  <SCORE.heavy>
27

>  <SCORE.norm>
-0.4977

>  <RMSD>
6.215

$$$$
ligand
 OpenBabel11021811473D
libRbt.so/2013.1/901 2013/11/27
 27 29  0  0  0  0  0  0  0  0999 V2000
   10.8039  -12.9687  -23.4850 N   0  0  0  0  0  0  0  0  0  0  0  0
   12.0826  -12.2754  -23.6995 C   0  0  2  0  0  0  0  0  0  0  0  0
   13.0489  -12.5958  -22.5551 C   0  0  0  0  0  0  0  0  0  0  0  0
   12.5972  -12.5139  -21.3920 O   0  0  0  0  0  0  0  0  0  0  0  0
   11.8263  -10.7677  -23.7356 C   0  0  0  0  0  0  0  0  0  0  0  0
   13.0868   -9.9795  -24.1007 C   0  0  0  0  0  0  0  0  0  0  0  0
   15.1629   -8.1761  -23.3878 C   0  0  0  0  0  0  0  0  0  0  0  0
   13.5503   -8.7990  -22.7419 Se  0  0  2  0  0  0  0  0  0  0  0  0
   14.0971   -9.8116  -21.2817 C   0  0  0  0  0  0  0  0  0  0  0  0
   13.6065   -9.2656  -19.9402 C   0  0  1  0  0  0  0  0  0  0  0  0
   14.6500   -8.4557  -19.3720 O   0  0  0  0  0  0  0  0  0  0  0  0
   12.4726   -8.2838  -20.2375 C   0  0  1  0  0  0  0  0  0  0  0  0
   11.8499   -7.8861  -19.0151 O   0  0  0  0  0  0  0  0  0  0  0  0
   13.2916   -7.1272  -20.8051 C   0  0  1  0  0  0  0  0  0  0  0  0
   12.5302   -5.9239  -20.6895 O   0  0  0  0  0  0  0  0  0  0  0  0
   14.4301   -7.0950  -19.7846 C   0  0  2  0  0  0  0  0  0  0  0  0
   14.2198  -12.9061  -22.8667 O   0  0  0  0  0  0  0  0  0  0  0  0
   16.7254   -2.7955  -21.4848 N   0  0  0  0  0  0  0  0  0  0  0  0
   15.5015   -2.9484  -21.0092 C   0  0  0  0  0  0  0  0  0  0  0  0
   15.0523   -4.1245  -20.6072 N   0  0  0  0  0  0  0  0  0  0  0  0
   15.8364   -5.2115  -20.6676 C   0  0  0  0  0  0  0  0  0  0  0  0
   17.1271   -5.0906  -21.1628 C   0  0  0  0  0  0  0  0  0  0  0  0
   17.5612   -3.8376  -21.5791 C   0  0  0  0  0  0  0  0  0  0  0  0
   18.7774   -3.6894  -22.0950 N   0  0  0  0  0  0  0  0  0  0  0  0
   17.6893   -6.2934  -21.1204 N   0  0  0  0  0  0  0  0  0  0  0  0
   16.7915   -7.1389  -20.6199 C   0  0  0  0  0  0  0  0  0  0  0  0
   15.6618   -6.4881  -20.3417 N   0  0  0  0  0  0  0  0  0  0  0  0
  2  1  1  1  0  0  0
  2  5  1  0  0  0  0
  2  3  1  0  0  0  0
  3 17  1  0  0  0  0
  3  4  1  0  0  0  0
  5  6  1  0  0  0  0
  7  8  1  0  0  0  0
  8  6  1  6  0  0  0
  8  9  1  0  0  0  0
 10  9  1  6  0  0  0
 10 11  1  0  0  0  0
 10 12  1  0  0  0  0
 11 16  1  0  0  0  0
 12 13  1  1  0  0  0
 12 14  1  0  0  0  0
 14 15  1  1  0  0  0
 14 16  1  0  0  0  0
 16 27  1  6  0  0  0
 18 23  2  0  0  0  0
 18 19  1  0  0  0  0
 19 20  2  0  0  0  0
 20 21  1  0  0  0  0
 21 22  2  0  0  0  0
 21 27  1  0  0  0  0
 22 23  1  0  0  0  0
 22 25  1  0  0  0  0
 23 24  1  0  0  0  0
 25 26  2  0  0  0  0
 26 27  1  0  0  0  0
M  END
>  <CHROM.1>
-174.05560340,-46.79913878,-119.98766049,173.75774352,-139.80255437,-96.00070586
-171.74326882,14.25737870,-8.08255976,-21.66027751,-2.21442052,0.64517215
0.65880878

>  <Name>
ligand

>  <RI>
0

>  <Rbt.Current_Directory>
/home/itssahil/PROJECTS/Mol_Feturizer/New_Systems/rnas/3E5F

>  <Rbt.Executable>
rbdock ($Id: //depot/dev/client3/rdock/2013.1/src/exe/rbdock.cxx#4 $)

>  <Rbt.Library>
libRbt.so (2013.1, Build901 2013/11/27)

>  <Rbt.Parameter_File>
/export/apps/rDock/src/rDock_2013.1_src/data/scripts/dock_solv.prm

>  <Rbt.Receptor>
prm/pocket_docking_6.prm

>  <SCORE>
-12.402

>  <SCORE.INTER>
-15.4949

>  <SCORE.INTER.CONST>
1

>  <SCORE.INTER.POLAR>
0

>  <SCORE.INTER.ROT>
7

>  <SCORE.INTER.SOLV>
18.2946

>  <SCORE.INTER.VDW>
-24.6948

>  <SCORE.INTER.norm>
-0.573887

>  <SCORE.INTRA>
3.09293

>  <SCORE.INTRA.DIHEDRAL>
8.92075

>  <SCORE.INTRA.DIHEDRAL.0>
4.89803

>  <SCORE.INTRA.POLAR>
0

>  <SCORE.INTRA.POLAR.0>
0

>  <SCORE.INTRA.REPUL>
0

>  <SCORE.INTRA.REPUL.0>
0

>  <SCORE.INTRA.SOLV>
0.267709

>  <SCORE.INTRA.SOLV.lig_0>
-48.5832

>  <SCORE.INTRA.VDW>
-1.5013

>  <SCORE.INTRA.VDW.0>
-2.39056

>  <SCORE.INTRA.norm>
0.114553

>  <SCORE.RESTR>
0

>  <SCORE.RESTR.CAVITY>
0

>  <SCORE.RESTR.norm>
0

>  <SCORE.SYSTEM>
0

>  <SCORE.SYSTEM.CONST>
0

>  <SCORE.SYSTEM.DIHEDRAL>
0

>  <SCORE.SYSTEM.SOLV>
0

>  <SCORE.SYSTEM.norm>
0

>  <SCORE.heavy>
27

>  <SCORE.norm>
-0.459334

>  <RMSD>
6.215

$$$$
ligand
 OpenBabel11021811473D
libRbt.so/2013.1/901 2013/11/27
 27 29  0  0  0  0  0  0  0  0999 V2000
   14.9757   -4.4719  -20.6709 N   0  0  0  0  0  0  0  0  0  0  0  0
   16.2935   -5.1151  -20.5639 C   0  0  2  0  0  0  0  0  0  0  0  0
   17.3644   -4.2201  -21.1952 C   0  0  0  0  0  0  0  0  0  0  0  0
   18.5427   -4.6376  -21.1638 O   0  0  0  0  0  0  0  0  0  0  0  0
   16.2519   -6.4518  -21.3065 C   0  0  0  0  0  0  0  0  0  0  0  0
   15.2351   -7.4180  -20.6935 C   0  0  0  0  0  0  0  0  0  0  0  0
   14.5701   -8.5868  -23.1959 C   0  0  0  0  0  0  0  0  0  0  0  0
   15.2749   -9.0628  -21.5582 Se  0  0  2  0  0  0  0  0  0  0  0  0
   13.9067  -10.1025  -20.8488 C   0  0  0  0  0  0  0  0  0  0  0  0
   14.0099  -11.5834  -21.2163 C   0  0  1  0  0  0  0  0  0  0  0  0
   12.9549  -12.2916  -20.5431 O   0  0  0  0  0  0  0  0  0  0  0  0
   13.6721  -11.7064  -22.7025 C   0  0  1  0  0  0  0  0  0  0  0  0
   13.9359  -13.0385  -23.1455 O   0  0  0  0  0  0  0  0  0  0  0  0
   12.1655  -11.4696  -22.6324 C   0  0  1  0  0  0  0  0  0  0  0  0
   11.5579  -12.0226  -23.8012 O   0  0  0  0  0  0  0  0  0  0  0  0
   11.8238  -12.3509  -21.4302 C   0  0  2  0  0  0  0  0  0  0  0  0
   16.9841   -3.1347  -21.6865 O   0  0  0  0  0  0  0  0  0  0  0  0
    7.8757  -13.6970  -18.3896 N   0  0  0  0  0  0  0  0  0  0  0  0
    8.8955  -14.4328  -18.7973 C   0  0  0  0  0  0  0  0  0  0  0  0
    9.8394  -13.9418  -19.5811 N   0  0  0  0  0  0  0  0  0  0  0  0
    9.7918  -12.6645  -19.9889 C   0  0  0  0  0  0  0  0  0  0  0  0
    8.7354  -11.8613  -19.5828 C   0  0  0  0  0  0  0  0  0  0  0  0
    7.7606  -12.4158  -18.7618 C   0  0  0  0  0  0  0  0  0  0  0  0
    6.7135  -11.6893  -18.3837 N   0  0  0  0  0  0  0  0  0  0  0  0
    8.9164  -10.6579  -20.1152 N   0  0  0  0  0  0  0  0  0  0  0  0
   10.0396  -10.6988  -20.8280 C   0  0  0  0  0  0  0  0  0  0  0  0
   10.5781  -11.9162  -20.7557 N   0  0  0  0  0  0  0  0  0  0  0  0
  2  1  1  6  0  0  0
  2  5  1  0  0  0  0
  2  3  1  0  0  0  0
  3 17  1  0  0  0  0
  3  4  1  0  0  0  0
  5  6  1  0  0  0  0
  7  8  1  0  0  0  0
  8  6  1  1  0  0  0
  8  9  1  0  0  0  0
 10  9  1  1  0  0  0
 10 11  1  0  0  0  0
 10 12  1  0  0  0  0
 11 16  1  0  0  0  0
 12 13  1  1  0  0  0
 12 14  1  0  0  0  0
 14 15  1  6  0  0  0
 14 16  1  0  0  0  0
 16 27  1  1  0  0  0
 18 23  2  0  0  0  0
 18 19  1  0  0  0  0
 19 20  2  0  0  0  0
 20 21  1  0  0  0  0
 21 22  2  0  0  0  0
 21 27  1  0  0  0  0
 22 23  1  0  0  0  0
 22 25  1  0  0  0  0
 23 24  1  0  0  0  0
 25 26  2  0  0  0  0
 26 27  1  0  0  0  0
M  END
>  <CHROM.1>
-62.06036889,179.29644750,-176.88286700,-69.11455203,-166.45758635,176.30351260
-83.36068516,13.05135352,-9.85373938,-21.02475945,0.60248608,0.52097936,0.40944487

>  <Name>
ligand

>  <RI>
0

>  <Rbt.Current_Directory>
/home/itssahil/PROJECTS/Mol_Feturizer/New_Systems/rnas/3E5F

>  <Rbt.Executable>
rbdock ($Id: //depot/dev/client3/rdock/2013.1/src/exe/rbdock.cxx#4 $)

>  <Rbt.Library>
libRbt.so (2013.1, Build901 2013/11/27)

>  <Rbt.Parameter_File>
/export/apps/rDock/src/rDock_2013.1_src/data/scripts/dock_solv.prm

>  <Rbt.Receptor>
prm/blind_docking_100.prm

>  <SCORE>
-18.384

>  <SCORE.INTER>
-19.2944

>  <SCORE.INTER.CONST>
1

>  <SCORE.INTER.POLAR>
0

>  <SCORE.INTER.ROT>
7

>  <SCORE.INTER.SOLV>
8.43001

>  <SCORE.INTER.VDW>
-23.9396

>  <SCORE.INTER.norm>
-0.714607

>  <SCORE.INTRA>
0.910399

>  <SCORE.INTRA.DIHEDRAL>
-1.20697

>  <SCORE.INTRA.DIHEDRAL.0>
4.89803

>  <SCORE.INTRA.POLAR>
0

>  <SCORE.INTRA.POLAR.0>
0

>  <SCORE.INTRA.REPUL>
0

>  <SCORE.INTRA.REPUL.0>
0

>  <SCORE.INTRA.SOLV>
0.70127

>  <SCORE.INTRA.SOLV.lig_0>
-48.5832

>  <SCORE.INTRA.VDW>
1.16325

>  <SCORE.INTRA.VDW.0>
-2.39056

>  <SCORE.INTRA.norm>
0.0337185

>  <SCORE.RESTR>
0

>  <SCORE.RESTR.CAVITY>
0

>  <SCORE.RESTR.norm>
0

>  <SCORE.SYSTEM>
0

>  <SCORE.SYSTEM.CONST>
0

>  <SCORE.SYSTEM.DIHEDRAL>
0

>  <SCORE.SYSTEM.SOLV>
0

>  <SCORE.SYSTEM.norm>
0

>  <SCORE.heavy>
27

>  <SCORE.norm>
-0.680888

>  <RMSD>
6.219

$$$$
ligand
 OpenBabel11021811473D
libRbt.so/2013.1/901 2013/11/27
 27 29  0  0  0  0  0  0  0  0999 V2000
    7.0975  -13.6027  -19.5621 N   0  0  0  0  0  0  0  0  0  0  0  0
    8.2172  -12.8952  -18.9239 C   0  0  2  0  0  0  0  0  0  0  0  0
    7.6920  -11.9799  -17.8137 C   0  0  0  0  0  0  0  0  0  0  0  0
    8.1215  -12.1869  -16.6577 O   0  0  0  0  0  0  0  0  0  0  0  0
    8.9316  -12.0488  -19.9790 C   0  0  0  0  0  0  0  0  0  0  0  0
    9.4866  -12.9034  -21.1215 C   0  0  0  0  0  0  0  0  0  0  0  0
   10.2329  -13.1844  -23.8481 C   0  0  0  0  0  0  0  0  0  0  0  0
    9.8324  -11.8638  -22.6229 Se  0  0  2  0  0  0  0  0  0  0  0  0
   11.4919  -11.0619  -22.3796 C   0  0  0  0  0  0  0  0  0  0  0  0
   12.4783  -11.9237  -21.5905 C   0  0  1  0  0  0  0  0  0  0  0  0
   13.8038  -11.4111  -21.8101 O   0  0  0  0  0  0  0  0  0  0  0  0
   12.2087  -11.6772  -20.1056 C   0  0  1  0  0  0  0  0  0  0  0  0
   12.9707  -12.5959  -19.3211 O   0  0  0  0  0  0  0  0  0  0  0  0
   12.7950  -10.2733  -19.9793 C   0  0  1  0  0  0  0  0  0  0  0  0
   13.1132  -10.0292  -18.6080 O   0  0  0  0  0  0  0  0  0  0  0  0
   14.0933  -10.4667  -20.7640 C   0  0  2  0  0  0  0  0  0  0  0  0
    6.8661  -11.1000  -18.1423 O   0  0  0  0  0  0  0  0  0  0  0  0
   17.8355   -6.9149  -20.6026 N   0  0  0  0  0  0  0  0  0  0  0  0
   17.7209   -8.0297  -19.9015 C   0  0  0  0  0  0  0  0  0  0  0  0
   16.6949   -8.8482  -20.0571 N   0  0  0  0  0  0  0  0  0  0  0  0
   15.7286   -8.5699  -20.9452 C   0  0  0  0  0  0  0  0  0  0  0  0
   15.8134   -7.4075  -21.6986 C   0  0  0  0  0  0  0  0  0  0  0  0
   16.9059   -6.5708  -21.5030 C   0  0  0  0  0  0  0  0  0  0  0  0
   17.0025   -5.4296  -22.1780 N   0  0  0  0  0  0  0  0  0  0  0  0
   14.7485   -7.3625  -22.4913 N   0  0  0  0  0  0  0  0  0  0  0  0
   14.0210   -8.4503  -22.2488 C   0  0  0  0  0  0  0  0  0  0  0  0
   14.6110   -9.1900  -21.3096 N   0  0  0  0  0  0  0  0  0  0  0  0
  2  1  1  6  0  0  0
  2  5  1  0  0  0  0
  2  3  1  0  0  0  0
  3 17  1  0  0  0  0
  3  4  1  0  0  0  0
  5  6  1  0  0  0  0
  7  8  1  0  0  0  0
  8  6  1  1  0  0  0
  8  9  1  0  0  0  0
 10  9  1  6  0  0  0
 10 11  1  0  0  0  0
 10 12  1  0  0  0  0
 11 16  1  0  0  0  0
 12 13  1  1  0  0  0
 12 14  1  0  0  0  0
 14 15  1  1  0  0  0
 14 16  1  0  0  0  0
 16 27  1  6  0  0  0
 18 23  2  0  0  0  0
 18 19  1  0  0  0  0
 19 20  2  0  0  0  0
 20 21  1  0  0  0  0
 21 22  2  0  0  0  0
 21 27  1  0  0  0  0
 22 23  1  0  0  0  0
 22 25  1  0  0  0  0
 23 24  1  0  0  0  0
 25 26  2  0  0  0  0
 26 27  1  0  0  0  0
M  END
>  <CHROM.1>
-60.09429527,120.76279859,161.17731590,-172.16232474,32.99598632,162.72217894
-127.58212021,12.10720903,-10.59820912,-20.86987798,-3.09836739,-0.55837914
-1.71600763

>  <Name>
ligand

>  <RI>
0

>  <Rbt.Current_Directory>
/home/itssahil/PROJECTS/Mol_Feturizer/New_Systems/rnas/3E5F

>  <Rbt.Executable>
rbdock ($Id: //depot/dev/client3/rdock/2013.1/src/exe/rbdock.cxx#4 $)

>  <Rbt.Library>
libRbt.so (2013.1, Build901 2013/11/27)

>  <Rbt.Parameter_File>
/export/apps/rDock/src/rDock_2013.1_src/data/scripts/dock_solv.prm

>  <Rbt.Receptor>
prm/blind_docking_100.prm

>  <SCORE>
-13.0725

>  <SCORE.INTER>
-14.1795

>  <SCORE.INTER.CONST>
1

>  <SCORE.INTER.POLAR>
0

>  <SCORE.INTER.ROT>
7

>  <SCORE.INTER.SOLV>
12.0405

>  <SCORE.INTER.VDW>
-21.7332

>  <SCORE.INTER.norm>
-0.525167

>  <SCORE.INTRA>
1.10696

>  <SCORE.INTRA.DIHEDRAL>
1.04951

>  <SCORE.INTRA.DIHEDRAL.0>
4.89803

>  <SCORE.INTRA.POLAR>
0

>  <SCORE.INTRA.POLAR.0>
0

>  <SCORE.INTRA.REPUL>
0

>  <SCORE.INTRA.REPUL.0>
0

>  <SCORE.INTRA.SOLV>
0.868985

>  <SCORE.INTRA.SOLV.lig_0>
-48.5832

>  <SCORE.INTRA.VDW>
0.147709

>  <SCORE.INTRA.VDW.0>
-2.39056

>  <SCORE.INTRA.norm>
0.0409984

>  <SCORE.RESTR>
0

>  <SCORE.RESTR.CAVITY>
0

>  <SCORE.RESTR.norm>
0

>  <SCORE.SYSTEM>
0

>  <SCORE.SYSTEM.CONST>
0

>  <SCORE.SYSTEM.DIHEDRAL>
0

>  <SCORE.SYSTEM.SOLV>
0

>  <SCORE.SYSTEM.norm>
0

>  <SCORE.heavy>
27

>  <SCORE.norm>
-0.484168

>  <RMSD>
6.219

$$$$
ligand
 OpenBabel11021811473D
libRbt.so/2013.1/901 2013/11/27
 27 29  0  0  0  0  0  0  0  0999 V2000
   13.8858   -5.4417  -20.1405 N   0  0  0  0  0  0  0  0  0  0  0  0
   12.5579   -5.2325  -19.5450 C   0  0  2  0  0  0  0  0  0  0  0  0
   12.6558   -4.2337  -18.3879 C   0  0  0  0  0  0  0  0  0  0  0  0
   13.5576   -4.4300  -17.5443 O   0  0  0  0  0  0  0  0  0  0  0  0
   12.0392   -6.5699  -19.0138 C   0  0  0  0  0  0  0  0  0  0  0  0
   11.5625   -7.4897  -20.1408 C   0  0  0  0  0  0  0  0  0  0  0  0
    9.7516   -8.3165  -18.1142 C   0  0  0  0  0  0  0  0  0  0  0  0
   10.7930   -9.0370  -19.4565 Se  0  0  2  0  0  0  0  0  0  0  0  0
   12.0997   -9.9285  -18.4798 C   0  0  0  0  0  0  0  0  0  0  0  0
   12.9964  -10.8260  -19.3337 C   0  0  1  0  0  0  0  0  0  0  0  0
   12.4713  -12.1639  -19.2899 O   0  0  0  0  0  0  0  0  0  0  0  0
   12.8220  -10.3888  -20.7885 C   0  0  1  0  0  0  0  0  0  0  0  0
   13.7758  -11.0642  -21.6097 O   0  0  0  0  0  0  0  0  0  0  0  0
   11.4246  -10.9467  -21.0468 C   0  0  1  0  0  0  0  0  0  0  0  0
   11.2459  -11.1063  -22.4553 O   0  0  0  0  0  0  0  0  0  0  0  0
   11.5775  -12.3266  -20.4056 C   0  0  2  0  0  0  0  0  0  0  0  0
   11.8220   -3.3017  -18.3662 O   0  0  0  0  0  0  0  0  0  0  0  0
    6.6970  -11.3529  -19.0357 N   0  0  0  0  0  0  0  0  0  0  0  0
    7.6439  -10.5006  -19.3887 C   0  0  0  0  0  0  0  0  0  0  0  0
    8.8581  -10.9056  -19.7177 N   0  0  0  0  0  0  0  0  0  0  0  0
    9.1688  -12.2107  -19.7062 C   0  0  0  0  0  0  0  0  0  0  0  0
    8.2012  -13.1355  -19.3393 C   0  0  0  0  0  0  0  0  0  0  0  0
    6.9374  -12.6697  -18.9964 C   0  0  0  0  0  0  0  0  0  0  0  0
    5.9958  -13.5214  -18.6024 N   0  0  0  0  0  0  0  0  0  0  0  0
    8.7516  -14.3425  -19.4060 N   0  0  0  0  0  0  0  0  0  0  0  0
   10.0140  -14.1872  -19.7982 C   0  0  0  0  0  0  0  0  0  0  0  0
   10.2751  -12.8930  -19.9832 N   0  0  0  0  0  0  0  0  0  0  0  0
  2  1  1  1  0  0  0
  2  5  1  0  0  0  0
  2  3  1  0  0  0  0
  3 17  1  0  0  0  0
  3  4  1  0  0  0  0
  5  6  1  0  0  0  0
  7  8  1  0  0  0  0
  8  6  1  6  0  0  0
  8  9  1  0  0  0  0
 10  9  1  1  0  0  0
 10 11  1  0  0  0  0
 10 12  1  0  0  0  0
 11 16  1  0  0  0  0
 12 13  1  6  0  0  0
 12 14  1  0  0  0  0
 14 15  1  6  0  0  0
 14 16  1  0  0  0  0
 16 27  1  1  0  0  0
 18 23  2  0  0  0  0
 18 19  1  0  0  0  0
 19 20  2  0  0  0  0
 20 21  1  0  0  0  0
 21 22  2  0  0  0  0
 21 27  1  0  0  0  0
 22 23  1  0  0  0  0
 22 25  1  0  0  0  0
 23 24  1  0  0  0  0
 25 26  2  0  0  0  0
 26 27  1  0  0  0  0
M  END
>  <CHROM.1>
-75.24146762,-48.51291401,-174.68039432,44.31811237,-84.71612699,-95.23824248
96.02669161,10.80222320,-9.73821879,-19.54743971,-1.05655940,-0.34918133
-2.86056837

>  <Name>
ligand

>  <RI>
0

>  <Rbt.Current_Directory>
/home/itssahil/PROJECTS/Mol_Feturizer/New_Systems/rnas/3E5F

>  <Rbt.Executable>
rbdock ($Id: //depot/dev/client3/rdock/2013.1/src/exe/rbdock.cxx#4 $)

>  <Rbt.Library>
libRbt.so (2013.1, Build901 2013/11/27)

>  <Rbt.Parameter_File>
/export/apps/rDock/src/rDock_2013.1_src/data/scripts/dock_solv.prm

>  <Rbt.Receptor>
prm/blind_docking_100.prm

>  <SCORE>
-11.5891

>  <SCORE.INTER>
-13.6968

>  <SCORE.INTER.CONST>
1

>  <SCORE.INTER.POLAR>
0

>  <SCORE.INTER.ROT>
7

>  <SCORE.INTER.SOLV>
8.14259

>  <SCORE.INTER.VDW>
-20.112

>  <SCORE.INTER.norm>
-0.507287

>  <SCORE.INTRA>
2.10762

>  <SCORE.INTRA.DIHEDRAL>
2.67372

>  <SCORE.INTRA.DIHEDRAL.0>
4.89803

>  <SCORE.INTRA.POLAR>
0

>  <SCORE.INTRA.POLAR.0>
0

>  <SCORE.INTRA.REPUL>
0

>  <SCORE.INTRA.REPUL.0>
0

>  <SCORE.INTRA.SOLV>
0.728664

>  <SCORE.INTRA.SOLV.lig_0>
-48.5832

>  <SCORE.INTRA.VDW>
0.40643

>  <SCORE.INTRA.VDW.0>
-2.39056

>  <SCORE.INTRA.norm>
0.07806

>  <SCORE.RESTR>
0

>  <SCORE.RESTR.CAVITY>
0

>  <SCORE.RESTR.norm>
0

>  <SCORE.SYSTEM>
0

>  <SCORE.SYSTEM.CONST>
0

>  <SCORE.SYSTEM.DIHEDRAL>
0

>  <SCORE.SYSTEM.SOLV>
0

>  <SCORE.SYSTEM.norm>
0

>  <SCORE.heavy>
27

>  <SCORE.norm>
-0.429227

>  <RMSD>
6.225

$$$$
ligand
 OpenBabel11021811473D
libRbt.so/2013.1/901 2013/11/27
 27 29  0  0  0  0  0  0  0  0999 V2000
    7.6443   -9.8735  -15.9187 N   0  0  0  0  0  0  0  0  0  0  0  0
    8.3829   -8.8328  -16.6488 C   0  0  2  0  0  0  0  0  0  0  0  0
    7.5511   -8.3370  -17.8356 C   0  0  0  0  0  0  0  0  0  0  0  0
    7.5766   -7.1095  -18.0723 O   0  0  0  0  0  0  0  0  0  0  0  0
    9.6935   -9.4286  -17.1658 C   0  0  0  0  0  0  0  0  0  0  0  0
   10.5728   -8.3774  -17.8479 C   0  0  0  0  0  0  0  0  0  0  0  0
   13.0591   -9.0071  -16.6264 C   0  0  0  0  0  0  0  0  0  0  0  0
   12.2387   -9.0806  -18.2778 Se  0  0  2  0  0  0  0  0  0  0  0  0
   13.1720   -7.7768  -19.2186 C   0  0  0  0  0  0  0  0  0  0  0  0
   14.5038   -8.2679  -19.7876 C   0  0  1  0  0  0  0  0  0  0  0  0
   14.4899   -9.7058  -19.7960 O   0  0  0  0  0  0  0  0  0  0  0  0
   14.5394   -7.8722  -21.2642 C   0  0  1  0  0  0  0  0  0  0  0  0
   15.8368   -8.1366  -21.8002 O   0  0  0  0  0  0  0  0  0  0  0  0
   13.5336   -8.8809  -21.8132 C   0  0  1  0  0  0  0  0  0  0  0  0
   13.7648   -9.0458  -23.2134 O   0  0  0  0  0  0  0  0  0  0  0  0
   14.0053  -10.1374  -21.0801 C   0  0  2  0  0  0  0  0  0  0  0  0
    6.9008   -9.1935  -18.4743 O   0  0  0  0  0  0  0  0  0  0  0  0
    9.7316  -12.1718  -23.1396 N   0  0  0  0  0  0  0  0  0  0  0  0
   10.4959  -11.2007  -23.6091 C   0  0  0  0  0  0  0  0  0  0  0  0
   11.5707  -10.7854  -22.9617 N   0  0  0  0  0  0  0  0  0  0  0  0
   11.9243  -11.3467  -21.7956 C   0  0  0  0  0  0  0  0  0  0  0  0
   11.1455  -12.3680  -21.2701 C   0  0  0  0  0  0  0  0  0  0  0  0
   10.0209  -12.7739  -21.9790 C   0  0  0  0  0  0  0  0  0  0  0  0
    9.2288  -13.7224  -21.4890 N   0  0  0  0  0  0  0  0  0  0  0  0
   11.6990  -12.7480  -20.1239 N   0  0  0  0  0  0  0  0  0  0  0  0
   12.7819  -11.9981  -19.9328 C   0  0  0  0  0  0  0  0  0  0  0  0
   12.9258  -11.1434  -20.9458 N   0  0  0  0  0  0  0  0  0  0  0  0
  2  1  1  6  0  0  0
  2  5  1  0  0  0  0
  2  3  1  0  0  0  0
  3 17  1  0  0  0  0
  3  4  1  0  0  0  0
  5  6  1  0  0  0  0
  7  8  1  0  0  0  0
  8  6  1  1  0  0  0
  8  9  1  0  0  0  0
 10  9  1  6  0  0  0
 10 11  1  0  0  0  0
 10 12  1  0  0  0  0
 11 16  1  0  0  0  0
 12 13  1  6  0  0  0
 12 14  1  0  0  0  0
 14 15  1  6  0  0  0
 14 16  1  0  0  0  0
 16 27  1  1  0  0  0
 18 23  2  0  0  0  0
 18 19  1  0  0  0  0
 19 20  2  0  0  0  0
 20 21  1  0  0  0  0
 21 22  2  0  0  0  0
 21 27  1  0  0  0  0
 22 23  1  0  0  0  0
 22 25  1  0  0  0  0
 23 24  1  0  0  0  0
 25 26  2  0  0  0  0
 26 27  1  0  0  0  0
M  END
>  <CHROM.1>
-175.64387764,140.28289995,173.04735792,-78.75752181,-173.10386755,17.56989058
150.63549673,11.57616193,-9.78509216,-19.77837347,2.47979356,0.34633230,0.92712006

>  <Name>
ligand

>  <RI>
0

>  <Rbt.Current_Directory>
/home/itssahil/PROJECTS/Mol_Feturizer/New_Systems/rnas/3E5F

>  <Rbt.Executable>
rbdock ($Id: //depot/dev/client3/rdock/2013.1/src/exe/rbdock.cxx#4 $)

>  <Rbt.Library>
libRbt.so (2013.1, Build901 2013/11/27)

>  <Rbt.Parameter_File>
/export/apps/rDock/src/rDock_2013.1_src/data/scripts/dock_solv.prm

>  <Rbt.Receptor>
prm/pocket_docking_7.prm

>  <SCORE>
-11.646

>  <SCORE.INTER>
-12.6402

>  <SCORE.INTER.CONST>
1

>  <SCORE.INTER.POLAR>
0

>  <SCORE.INTER.ROT>
7

>  <SCORE.INTER.SOLV>
8.28287

>  <SCORE.INTER.VDW>
-19.4544

>  <SCORE.INTER.norm>
-0.468156

>  <SCORE.INTRA>
0.994223

>  <SCORE.INTRA.DIHEDRAL>
2.8457

>  <SCORE.INTRA.DIHEDRAL.0>
4.89803

>  <SCORE.INTRA.POLAR>
0

>  <SCORE.INTRA.POLAR.0>
0

>  <SCORE.INTRA.REPUL>
0

>  <SCORE.INTRA.REPUL.0>
0

>  <SCORE.INTRA.SOLV>
0.22778

>  <SCORE.INTRA.SOLV.lig_0>
-48.5832

>  <SCORE.INTRA.VDW>
-0.542517

>  <SCORE.INTRA.VDW.0>
-2.39056

>  <SCORE.INTRA.norm>
0.0368231

>  <SCORE.RESTR>
0

>  <SCORE.RESTR.CAVITY>
0

>  <SCORE.RESTR.norm>
0

>  <SCORE.SYSTEM>
0

>  <SCORE.SYSTEM.CONST>
0

>  <SCORE.SYSTEM.DIHEDRAL>
0

>  <SCORE.SYSTEM.SOLV>
0

>  <SCORE.SYSTEM.norm>
0

>  <SCORE.heavy>
27

>  <SCORE.norm>
-0.431333

>  <RMSD>
6.226

$$$$
ligand
 OpenBabel11021811473D
libRbt.so/2013.1/901 2013/11/27
 27 29  0  0  0  0  0  0  0  0999 V2000
   15.6002   -6.4627  -25.0183 N   0  0  0  0  0  0  0  0  0  0  0  0
   15.6576   -7.7917  -24.3920 C   0  0  2  0  0  0  0  0  0  0  0  0
   14.6119   -8.7138  -25.0266 C   0  0  0  0  0  0  0  0  0  0  0  0
   14.0312   -8.2923  -26.0506 O   0  0  0  0  0  0  0  0  0  0  0  0
   15.3613   -7.6464  -22.8984 C   0  0  0  0  0  0  0  0  0  0  0  0
   16.3666   -6.7270  -22.2002 C   0  0  0  0  0  0  0  0  0  0  0  0
   17.0386   -8.2541  -19.9009 C   0  0  0  0  0  0  0  0  0  0  0  0
   16.1048   -6.7301  -20.3601 Se  0  0  2  0  0  0  0  0  0  0  0  0
   14.3499   -7.2560  -20.0442 C   0  0  0  0  0  0  0  0  0  0  0  0
   13.6769   -6.4899  -18.9046 C   0  0  1  0  0  0  0  0  0  0  0  0
   12.2978   -6.8919  -18.8410 O   0  0  0  0  0  0  0  0  0  0  0  0
   14.2881   -6.9937  -17.5966 C   0  0  1  0  0  0  0  0  0  0  0  0
   13.8355   -6.1819  -16.5120 O   0  0  0  0  0  0  0  0  0  0  0  0
   13.6267   -8.3680  -17.5298 C   0  0  1  0  0  0  0  0  0  0  0  0
   13.6432   -8.8213  -16.1751 O   0  0  0  0  0  0  0  0  0  0  0  0
   12.1960   -7.9820  -17.9075 C   0  0  2  0  0  0  0  0  0  0  0  0
   14.4089   -9.8151  -24.4695 O   0  0  0  0  0  0  0  0  0  0  0  0
   12.4506  -12.5010  -20.3891 N   0  0  0  0  0  0  0  0  0  0  0  0
   13.4379  -11.7103  -20.0050 C   0  0  0  0  0  0  0  0  0  0  0  0
   13.2129  -10.5729  -19.3706 N   0  0  0  0  0  0  0  0  0  0  0  0
   11.9597  -10.1838  -19.0912 C   0  0  0  0  0  0  0  0  0  0  0  0
   10.8969  -10.9869  -19.4802 C   0  0  0  0  0  0  0  0  0  0  0  0
   11.1746  -12.1735  -20.1486 C   0  0  0  0  0  0  0  0  0  0  0  0
   10.1820  -12.9502  -20.5712 N   0  0  0  0  0  0  0  0  0  0  0  0
    9.7763  -10.3876  -19.0937 N   0  0  0  0  0  0  0  0  0  0  0  0
   10.1164   -9.2532  -18.4863 C   0  0  0  0  0  0  0  0  0  0  0  0
   11.4431   -9.1224  -18.4805 N   0  0  0  0  0  0  0  0  0  0  0  0
  2  1  1  6  0  0  0
  2  5  1  0  0  0  0
  2  3  1  0  0  0  0
  3 17  1  0  0  0  0
  3  4  1  0  0  0  0
  5  6  1  0  0  0  0
  7  8  1  0  0  0  0
  8  6  1  6  0  0  0
  8  9  1  0  0  0  0
 10  9  1  6  0  0  0
 10 11  1  0  0  0  0
 10 12  1  0  0  0  0
 11 16  1  0  0  0  0
 12 13  1  1  0  0  0
 12 14  1  0  0  0  0
 14 15  1  1  0  0  0
 14 16  1  0  0  0  0
 16 27  1  6  0  0  0
 18 23  2  0  0  0  0
 18 19  1  0  0  0  0
 19 20  2  0  0  0  0
 20 21  1  0  0  0  0
 21 22  2  0  0  0  0
 21 27  1  0  0  0  0
 22 23  1  0  0  0  0
 22 25  1  0  0  0  0
 23 24  1  0  0  0  0
 25 26  2  0  0  0  0
 26 27  1  0  0  0  0
M  END
>  <CHROM.1>
-59.59913834,9.54678777,-173.25689722,82.91149066,-140.91747586,174.61659967
94.64295217,13.84630518,-8.49372768,-20.34738361,0.53535326,-0.78472690,-1.90083836

>  <Name>
ligand

>  <RI>
0

>  <Rbt.Current_Directory>
/home/itssahil/PROJECTS/Mol_Feturizer/New_Systems/rnas/3E5F

>  <Rbt.Executable>
rbdock ($Id: //depot/dev/client3/rdock/2013.1/src/exe/rbdock.cxx#4 $)

>  <Rbt.Library>
libRbt.so (2013.1, Build901 2013/11/27)

>  <Rbt.Parameter_File>
/export/apps/rDock/src/rDock_2013.1_src/data/scripts/dock_solv.prm

>  <Rbt.Receptor>
prm/pocket_docking_4.prm

>  <SCORE>
-9.03689

>  <SCORE.INTER>
-11.2966

>  <SCORE.INTER.CONST>
1

>  <SCORE.INTER.POLAR>
0

>  <SCORE.INTER.ROT>
7

>  <SCORE.INTER.SOLV>
15.3422

>  <SCORE.INTER.VDW>
-20.9118

>  <SCORE.INTER.norm>
-0.418392

>  <SCORE.INTRA>
2.25969

>  <SCORE.INTRA.DIHEDRAL>
1.36958

>  <SCORE.INTRA.DIHEDRAL.0>
4.89803

>  <SCORE.INTRA.POLAR>
0

>  <SCORE.INTRA.POLAR.0>
0

>  <SCORE.INTRA.REPUL>
0

>  <SCORE.INTRA.REPUL.0>
0

>  <SCORE.INTRA.SOLV>
0.707374

>  <SCORE.INTRA.SOLV.lig_0>
-48.5832

>  <SCORE.INTRA.VDW>
1.22122

>  <SCORE.INTRA.VDW.0>
-2.39056

>  <SCORE.INTRA.norm>
0.0836924

>  <SCORE.RESTR>
0

>  <SCORE.RESTR.CAVITY>
0

>  <SCORE.RESTR.norm>
0

>  <SCORE.SYSTEM>
0

>  <SCORE.SYSTEM.CONST>
0

>  <SCORE.SYSTEM.DIHEDRAL>
0

>  <SCORE.SYSTEM.SOLV>
0

>  <SCORE.SYSTEM.norm>
0

>  <SCORE.heavy>
27

>  <SCORE.norm>
-0.3347

>  <RMSD>
6.230

$$$$
ligand
 OpenBabel11021811473D
libRbt.so/2013.1/901 2013/11/27
 27 29  0  0  0  0  0  0  0  0999 V2000
   12.4932  -12.2936  -23.4250 N   0  0  0  0  0  0  0  0  0  0  0  0
   12.6983  -11.0171  -22.7249 C   0  0  2  0  0  0  0  0  0  0  0  0
   13.0763   -9.9249  -23.7302 C   0  0  0  0  0  0  0  0  0  0  0  0
   13.5768   -8.8768  -23.2670 O   0  0  0  0  0  0  0  0  0  0  0  0
   13.8334  -11.1859  -21.7135 C   0  0  0  0  0  0  0  0  0  0  0  0
   13.5552  -12.3181  -20.7216 C   0  0  0  0  0  0  0  0  0  0  0  0
   10.7323  -12.4757  -20.4451 C   0  0  0  0  0  0  0  0  0  0  0  0
   12.2072  -11.8450  -19.5327 Se  0  0  2  0  0  0  0  0  0  0  0  0
   11.9682  -10.0056  -19.6590 C   0  0  0  0  0  0  0  0  0  0  0  0
   11.3042   -9.3886  -18.4273 C   0  0  1  0  0  0  0  0  0  0  0  0
   12.3138   -9.1816  -17.4246 O   0  0  0  0  0  0  0  0  0  0  0  0
   10.8488   -7.9813  -18.8150 C   0  0  1  0  0  0  0  0  0  0  0  0
   10.0550   -7.4279  -17.7642 O   0  0  0  0  0  0  0  0  0  0  0  0
   12.2079   -7.2875  -18.8616 C   0  0  1  0  0  0  0  0  0  0  0  0
   12.0117   -5.8805  -18.7096 O   0  0  0  0  0  0  0  0  0  0  0  0
   12.8240   -7.8451  -17.5778 C   0  0  2  0  0  0  0  0  0  0  0  0
   12.8483  -10.1569  -24.9378 O   0  0  0  0  0  0  0  0  0  0  0  0
   17.0684   -8.5744  -20.4234 N   0  0  0  0  0  0  0  0  0  0  0  0
   15.8012   -8.6856  -20.7828 C   0  0  0  0  0  0  0  0  0  0  0  0
   14.8139   -8.4630  -19.9327 N   0  0  0  0  0  0  0  0  0  0  0  0
   15.0720   -8.1098  -18.6645 C   0  0  0  0  0  0  0  0  0  0  0  0
   16.3904   -7.9847  -18.2496 C   0  0  0  0  0  0  0  0  0  0  0  0
   17.4003   -8.2310  -19.1723 C   0  0  0  0  0  0  0  0  0  0  0  0
   18.6752   -8.1590  -18.8023 N   0  0  0  0  0  0  0  0  0  0  0  0
   16.3782   -7.6322  -16.9690 N   0  0  0  0  0  0  0  0  0  0  0  0
   15.1057   -7.5388  -16.5902 C   0  0  0  0  0  0  0  0  0  0  0  0
   14.3051   -7.8276  -17.6163 N   0  0  0  0  0  0  0  0  0  0  0  0
  2  1  1  6  0  0  0
  2  5  1  0  0  0  0
  2  3  1  0  0  0  0
  3 17  1  0  0  0  0
  3  4  1  0  0  0  0
  5  6  1  0  0  0  0
  7  8  1  0  0  0  0
  8  6  1  6  0  0  0
  8  9  1  0  0  0  0
 10  9  1  6  0  0  0
 10 11  1  0  0  0  0
 10 12  1  0  0  0  0
 11 16  1  0  0  0  0
 12 13  1  1  0  0  0
 12 14  1  0  0  0  0
 14 15  1  1  0  0  0
 14 16  1  0  0  0  0
 16 27  1  6  0  0  0
 18 23  2  0  0  0  0
 18 19  1  0  0  0  0
 19 20  2  0  0  0  0
 20 21  1  0  0  0  0
 21 22  2  0  0  0  0
 21 27  1  0  0  0  0
 22 23  1  0  0  0  0
 22 25  1  0  0  0  0
 23 24  1  0  0  0  0
 25 26  2  0  0  0  0
 26 27  1  0  0  0  0
M  END
>  <CHROM.1>
-56.83505119,-163.97896436,-71.28516052,90.90363440,-158.34734367,81.98557440
80.17197506,13.39627987,-9.54029689,-19.80017927,-2.11381308,0.33862862,0.97588512

>  <Name>
ligand

>  <RI>
0

>  <Rbt.Current_Directory>
/home/itssahil/PROJECTS/Mol_Feturizer/New_Systems/rnas/3E5F

>  <Rbt.Executable>
rbdock ($Id: //depot/dev/client3/rdock/2013.1/src/exe/rbdock.cxx#4 $)

>  <Rbt.Library>
libRbt.so (2013.1, Build901 2013/11/27)

>  <Rbt.Parameter_File>
/export/apps/rDock/src/rDock_2013.1_src/data/scripts/dock_solv.prm

>  <Rbt.Receptor>
prm/pocket_docking_3.prm

>  <SCORE>
-10.3478

>  <SCORE.INTER>
-12.9207

>  <SCORE.INTER.CONST>
1

>  <SCORE.INTER.POLAR>
0

>  <SCORE.INTER.ROT>
7

>  <SCORE.INTER.SOLV>
10.7297

>  <SCORE.INTER.VDW>
-20.457

>  <SCORE.INTER.norm>
-0.478544

>  <SCORE.INTRA>
2.57286

>  <SCORE.INTRA.DIHEDRAL>
2.68904

>  <SCORE.INTRA.DIHEDRAL.0>
4.89803

>  <SCORE.INTRA.POLAR>
0

>  <SCORE.INTRA.POLAR.0>
0

>  <SCORE.INTRA.REPUL>
0

>  <SCORE.INTRA.REPUL.0>
0

>  <SCORE.INTRA.SOLV>
1.93453

>  <SCORE.INTRA.SOLV.lig_0>
-48.5832

>  <SCORE.INTRA.VDW>
0.261074

>  <SCORE.INTRA.VDW.0>
-2.39056

>  <SCORE.INTRA.norm>
0.0952909

>  <SCORE.RESTR>
0

>  <SCORE.RESTR.CAVITY>
0

>  <SCORE.RESTR.norm>
0

>  <SCORE.SYSTEM>
0

>  <SCORE.SYSTEM.CONST>
0

>  <SCORE.SYSTEM.DIHEDRAL>
0

>  <SCORE.SYSTEM.SOLV>
0

>  <SCORE.SYSTEM.norm>
0

>  <SCORE.heavy>
27

>  <SCORE.norm>
-0.383253

>  <RMSD>
6.235

$$$$
ligand
 OpenBabel11021811473D
libRbt.so/2013.1/901 2013/11/27
 27 29  0  0  0  0  0  0  0  0999 V2000
   14.0585   -5.0123  -19.6591 N   0  0  0  0  0  0  0  0  0  0  0  0
   15.4803   -5.1565  -20.0049 C   0  0  2  0  0  0  0  0  0  0  0  0
   15.8383   -4.2049  -21.1505 C   0  0  0  0  0  0  0  0  0  0  0  0
   14.8884   -3.7267  -21.8082 O   0  0  0  0  0  0  0  0  0  0  0  0
   15.7364   -6.5979  -20.4481 C   0  0  0  0  0  0  0  0  0  0  0  0
   14.8386   -7.0071  -21.6185 C   0  0  0  0  0  0  0  0  0  0  0  0
   14.4532   -8.7844  -23.8010 C   0  0  0  0  0  0  0  0  0  0  0  0
   15.1140   -8.7869  -22.0779 Se  0  0  2  0  0  0  0  0  0  0  0  0
   13.8350   -9.8004  -21.1872 C   0  0  0  0  0  0  0  0  0  0  0  0
   14.0132  -11.3082  -21.3694 C   0  0  1  0  0  0  0  0  0  0  0  0
   13.0857  -11.9820  -20.5013 O   0  0  0  0  0  0  0  0  0  0  0  0
   13.5417  -11.6530  -22.7825 C   0  0  1  0  0  0  0  0  0  0  0  0
   13.8607  -13.0142  -23.0756 O   0  0  0  0  0  0  0  0  0  0  0  0
   12.0357  -11.5025  -22.5825 C   0  0  1  0  0  0  0  0  0  0  0  0
   11.3600  -12.2460  -23.5984 O   0  0  0  0  0  0  0  0  0  0  0  0
   11.8809  -12.2314  -21.2471 C   0  0  2  0  0  0  0  0  0  0  0  0
   17.0530   -3.9837  -21.3503 O   0  0  0  0  0  0  0  0  0  0  0  0
    7.7677  -13.6436  -18.4664 N   0  0  0  0  0  0  0  0  0  0  0  0
    8.7102  -14.4043  -18.9960 C   0  0  0  0  0  0  0  0  0  0  0  0
    9.7124  -13.8912  -19.6882 N   0  0  0  0  0  0  0  0  0  0  0  0
    9.8058  -12.5657  -19.8734 C   0  0  0  0  0  0  0  0  0  0  0  0
    8.8339  -11.7348  -19.3339 C   0  0  0  0  0  0  0  0  0  0  0  0
    7.7939  -12.3130  -18.6156 C   0  0  0  0  0  0  0  0  0  0  0  0
    6.8236  -11.5535  -18.1167 N   0  0  0  0  0  0  0  0  0  0  0  0
    9.1487  -10.4850  -19.6552 N   0  0  0  0  0  0  0  0  0  0  0  0
   10.2720  -10.5242  -20.3681 C   0  0  0  0  0  0  0  0  0  0  0  0
   10.6780  -11.7867  -20.5048 N   0  0  0  0  0  0  0  0  0  0  0  0
  2  1  1  6  0  0  0
  2  5  1  0  0  0  0
  2  3  1  0  0  0  0
  3 17  1  0  0  0  0
  3  4  1  0  0  0  0
  5  6  1  0  0  0  0
  7  8  1  0  0  0  0
  8  6  1  1  0  0  0
  8  9  1  0  0  0  0
 10  9  1  6  0  0  0
 10 11  1  0  0  0  0
 10 12  1  0  0  0  0
 11 16  1  0  0  0  0
 12 13  1  1  0  0  0
 12 14  1  0  0  0  0
 14 15  1  6  0  0  0
 14 16  1  0  0  0  0
 16 27  1  1  0  0  0
 18 23  2  0  0  0  0
 18 19  1  0  0  0  0
 19 20  2  0  0  0  0
 20 21  1  0  0  0  0
 21 22  2  0  0  0  0
 21 27  1  0  0  0  0
 22 23  1  0  0  0  0
 22 25  1  0  0  0  0
 23 24  1  0  0  0  0
 25 26  2  0  0  0  0
 26 27  1  0  0  0  0
M  END
>  <CHROM.1>
56.66339443,-16.58066979,-177.19098514,-159.40452954,-174.82845058,172.50026489
-104.40644971,12.76079401,-9.76002959,-21.05526540,0.61593402,0.59949798
0.41710371

>  <Name>
ligand

>  <RI>
0

>  <Rbt.Current_Directory>
/home/itssahil/PROJECTS/Mol_Feturizer/New_Systems/rnas/3E5F

>  <Rbt.Executable>
rbdock ($Id: //depot/dev/client3/rdock/2013.1/src/exe/rbdock.cxx#4 $)

>  <Rbt.Library>
libRbt.so (2013.1, Build901 2013/11/27)

>  <Rbt.Parameter_File>
/export/apps/rDock/src/rDock_2013.1_src/data/scripts/dock_solv.prm

>  <Rbt.Receptor>
prm/blind_docking_40.prm

>  <SCORE>
-16.6983

>  <SCORE.INTER>
-17.7896

>  <SCORE.INTER.CONST>
1

>  <SCORE.INTER.POLAR>
0

>  <SCORE.INTER.ROT>
7

>  <SCORE.INTER.SOLV>
6.77273

>  <SCORE.INTER.VDW>
-22.3839

>  <SCORE.INTER.norm>
-0.658872

>  <SCORE.INTRA>
1.09126

>  <SCORE.INTRA.DIHEDRAL>
-0.466144

>  <SCORE.INTRA.DIHEDRAL.0>
4.89803

>  <SCORE.INTRA.POLAR>
0

>  <SCORE.INTRA.POLAR.0>
0

>  <SCORE.INTRA.REPUL>
0

>  <SCORE.INTRA.REPUL.0>
0

>  <SCORE.INTRA.SOLV>
0.712608

>  <SCORE.INTRA.SOLV.lig_0>
-48.5832

>  <SCORE.INTRA.VDW>
0.968028

>  <SCORE.INTRA.VDW.0>
-2.39056

>  <SCORE.INTRA.norm>
0.0404171

>  <SCORE.RESTR>
0

>  <SCORE.RESTR.CAVITY>
0

>  <SCORE.RESTR.norm>
0

>  <SCORE.SYSTEM>
0

>  <SCORE.SYSTEM.CONST>
0

>  <SCORE.SYSTEM.DIHEDRAL>
0

>  <SCORE.SYSTEM.SOLV>
0

>  <SCORE.SYSTEM.norm>
0

>  <SCORE.heavy>
27

>  <SCORE.norm>
-0.618455

>  <RMSD>
6.240

$$$$
ligand
 OpenBabel11021811473D
libRbt.so/2013.1/901 2013/11/27
 27 29  0  0  0  0  0  0  0  0999 V2000
   18.6405   -6.3133  -21.3667 N   0  0  0  0  0  0  0  0  0  0  0  0
   17.2033   -6.6045  -21.2598 C   0  0  2  0  0  0  0  0  0  0  0  0
   16.3986   -5.3045  -21.3520 C   0  0  0  0  0  0  0  0  0  0  0  0
   15.4522   -5.2803  -22.1688 O   0  0  0  0  0  0  0  0  0  0  0  0
   16.9338   -7.2694  -19.9088 C   0  0  0  0  0  0  0  0  0  0  0  0
   15.5277   -7.8702  -19.8346 C   0  0  0  0  0  0  0  0  0  0  0  0
   14.7124   -8.5128  -22.4790 C   0  0  0  0  0  0  0  0  0  0  0  0
   15.3705   -9.3373  -20.9648 Se  0  0  2  0  0  0  0  0  0  0  0  0
   13.8970  -10.3222  -20.4035 C   0  0  0  0  0  0  0  0  0  0  0  0
   13.8908  -11.7620  -20.9188 C   0  0  1  0  0  0  0  0  0  0  0  0
   12.7772  -12.4508  -20.3245 O   0  0  0  0  0  0  0  0  0  0  0  0
   13.5612  -11.7080  -22.4110 C   0  0  1  0  0  0  0  0  0  0  0  0
   13.7274  -13.0050  -22.9859 O   0  0  0  0  0  0  0  0  0  0  0  0
   12.0765  -11.3639  -22.3224 C   0  0  1  0  0  0  0  0  0  0  0  0
   11.4416  -11.7476  -23.5434 O   0  0  0  0  0  0  0  0  0  0  0  0
   11.6549  -12.3329  -21.2170 C   0  0  2  0  0  0  0  0  0  0  0  0
   16.7524   -4.3605  -20.6117 O   0  0  0  0  0  0  0  0  0  0  0  0
    7.5563  -13.6762  -18.3812 N   0  0  0  0  0  0  0  0  0  0  0  0
    8.5177  -14.4448  -18.8634 C   0  0  0  0  0  0  0  0  0  0  0  0
    9.5128  -13.9496  -19.5784 N   0  0  0  0  0  0  0  0  0  0  0  0
    9.5793  -12.6348  -19.8365 C   0  0  0  0  0  0  0  0  0  0  0  0
    8.5871  -11.7962  -19.3486 C   0  0  0  0  0  0  0  0  0  0  0  0
    7.5553  -12.3557  -18.6041 C   0  0  0  0  0  0  0  0  0  0  0  0
    6.5664  -11.5906  -18.1526 N   0  0  0  0  0  0  0  0  0  0  0  0
    8.8773  -10.5596  -19.7374 N   0  0  0  0  0  0  0  0  0  0  0  0
   10.0053  -10.6144  -20.4418 C   0  0  0  0  0  0  0  0  0  0  0  0
   10.4386  -11.8735  -20.5062 N   0  0  0  0  0  0  0  0  0  0  0  0
  2  1  1  1  0  0  0
  2  5  1  0  0  0  0
  2  3  1  0  0  0  0
  3 17  1  0  0  0  0
  3  4  1  0  0  0  0
  5  6  1  0  0  0  0
  7  8  1  0  0  0  0
  8  6  1  1  0  0  0
  8  9  1  0  0  0  0
 10  9  1  1  0  0  0
 10 11  1  0  0  0  0
 10 12  1  0  0  0  0
 11 16  1  0  0  0  0
 12 13  1  1  0  0  0
 12 14  1  0  0  0  0
 14 15  1  6  0  0  0
 14 16  1  0  0  0  0
 16 27  1  1  0  0  0
 18 23  2  0  0  0  0
 18 19  1  0  0  0  0
 19 20  2  0  0  0  0
 20 21  1  0  0  0  0
 21 22  2  0  0  0  0
 21 27  1  0  0  0  0
 22 23  1  0  0  0  0
 22 25  1  0  0  0  0
 23 24  1  0  0  0  0
 25 26  2  0  0  0  0
 26 27  1  0  0  0  0
M  END
>  <CHROM.1>
-167.94876478,129.58730575,68.77301996,-93.07444695,-161.32273306,174.87615232
-84.30581992,13.00993113,-10.13190987,-20.74308003,-0.50304284,-0.46116362
-2.72575852

>  <Name>
ligand

>  <RI>
0

>  <Rbt.Current_Directory>
/home/itssahil/PROJECTS/Mol_Feturizer/New_Systems/rnas/3E5F

>  <Rbt.Executable>
rbdock ($Id: //depot/dev/client3/rdock/2013.1/src/exe/rbdock.cxx#4 $)

>  <Rbt.Library>
libRbt.so (2013.1, Build901 2013/11/27)

>  <Rbt.Parameter_File>
/export/apps/rDock/src/rDock_2013.1_src/data/scripts/dock_solv.prm

>  <Rbt.Receptor>
prm/blind_docking_100.prm

>  <SCORE>
-16.8295

>  <SCORE.INTER>
-17.221

>  <SCORE.INTER.CONST>
1

>  <SCORE.INTER.POLAR>
0

>  <SCORE.INTER.ROT>
7

>  <SCORE.INTER.SOLV>
9.60917

>  <SCORE.INTER.VDW>
-22.9504

>  <SCORE.INTER.norm>
-0.637815

>  <SCORE.INTRA>
0.39149

>  <SCORE.INTRA.DIHEDRAL>
0.797441

>  <SCORE.INTRA.DIHEDRAL.0>
4.89803

>  <SCORE.INTRA.POLAR>
0

>  <SCORE.INTRA.POLAR.0>
0

>  <SCORE.INTRA.REPUL>
0

>  <SCORE.INTRA.REPUL.0>
0

>  <SCORE.INTRA.SOLV>
0.123853

>  <SCORE.INTRA.SOLV.lig_0>
-48.5832

>  <SCORE.INTRA.VDW>
-0.0691567

>  <SCORE.INTRA.VDW.0>
-2.39056

>  <SCORE.INTRA.norm>
0.0144996

>  <SCORE.RESTR>
0

>  <SCORE.RESTR.CAVITY>
0

>  <SCORE.RESTR.norm>
0

>  <SCORE.SYSTEM>
0

>  <SCORE.SYSTEM.CONST>
0

>  <SCORE.SYSTEM.DIHEDRAL>
0

>  <SCORE.SYSTEM.SOLV>
0

>  <SCORE.SYSTEM.norm>
0

>  <SCORE.heavy>
27

>  <SCORE.norm>
-0.623316

>  <RMSD>
6.256

$$$$
ligand
 OpenBabel11021811473D
libRbt.so/2013.1/901 2013/11/27
 27 29  0  0  0  0  0  0  0  0999 V2000
   15.0909   -5.2806  -20.5482 N   0  0  0  0  0  0  0  0  0  0  0  0
   16.2294   -5.4222  -21.4677 C   0  0  2  0  0  0  0  0  0  0  0  0
   16.8096   -4.0434  -21.7970 C   0  0  0  0  0  0  0  0  0  0  0  0
   16.0180   -3.0756  -21.7762 O   0  0  0  0  0  0  0  0  0  0  0  0
   15.7425   -6.0852  -22.7574 C   0  0  0  0  0  0  0  0  0  0  0  0
   15.3182   -7.5385  -22.5314 C   0  0  0  0  0  0  0  0  0  0  0  0
   15.1771   -8.3474  -19.8118 C   0  0  0  0  0  0  0  0  0  0  0  0
   14.0925   -7.6652  -21.1398 Se  0  0  2  0  0  0  0  0  0  0  0  0
   12.9836   -9.1134  -21.4993 C   0  0  0  0  0  0  0  0  0  0  0  0
   13.7253  -10.3284  -22.0581 C   0  0  1  0  0  0  0  0  0  0  0  0
   13.2503  -11.5019  -21.3762 O   0  0  0  0  0  0  0  0  0  0  0  0
   13.2699  -10.5109  -23.5064 C   0  0  1  0  0  0  0  0  0  0  0  0
   14.0685  -11.5133  -24.1373 O   0  0  0  0  0  0  0  0  0  0  0  0
   11.8629  -11.0475  -23.2557 C   0  0  1  0  0  0  0  0  0  0  0  0
   11.4265  -11.7553  -24.4175 O   0  0  0  0  0  0  0  0  0  0  0  0
   12.1669  -12.0541  -22.1454 C   0  0  2  0  0  0  0  0  0  0  0  0
   18.0285   -3.9877  -22.0714 O   0  0  0  0  0  0  0  0  0  0  0  0
    8.1991  -15.2113  -21.1796 N   0  0  0  0  0  0  0  0  0  0  0  0
    9.1409  -15.3226  -22.1005 C   0  0  0  0  0  0  0  0  0  0  0  0
   10.1027  -14.4247  -22.2254 N   0  0  0  0  0  0  0  0  0  0  0  0
   10.1541  -13.3617  -21.4084 C   0  0  0  0  0  0  0  0  0  0  0  0
    9.1814  -13.2097  -20.4303 C   0  0  0  0  0  0  0  0  0  0  0  0
    8.1845  -14.1734  -20.3335 C   0  0  0  0  0  0  0  0  0  0  0  0
    7.2138  -14.0424  -19.4347 N   0  0  0  0  0  0  0  0  0  0  0  0
    9.4509  -12.0926  -19.7641 N   0  0  0  0  0  0  0  0  0  0  0  0
   10.5474  -11.5606  -20.2990 C   0  0  0  0  0  0  0  0  0  0  0  0
   10.9813  -12.3272  -21.2997 N   0  0  0  0  0  0  0  0  0  0  0  0
  2  1  1  1  0  0  0
  2  5  1  0  0  0  0
  2  3  1  0  0  0  0
  3 17  1  0  0  0  0
  3  4  1  0  0  0  0
  5  6  1  0  0  0  0
  7  8  1  0  0  0  0
  8  6  1  6  0  0  0
  8  9  1  0  0  0  0
 10  9  1  1  0  0  0
 10 11  1  0  0  0  0
 10 12  1  0  0  0  0
 11 16  1  0  0  0  0
 12 13  1  1  0  0  0
 12 14  1  0  0  0  0
 14 15  1  6  0  0  0
 14 16  1  0  0  0  0
 16 27  1  1  0  0  0
 18 23  2  0  0  0  0
 18 19  1  0  0  0  0
 19 20  2  0  0  0  0
 20 21  1  0  0  0  0
 21 22  2  0  0  0  0
 21 27  1  0  0  0  0
 22 23  1  0  0  0  0
 22 25  1  0  0  0  0
 23 24  1  0  0  0  0
 25 26  2  0  0  0  0
 26 27  1  0  0  0  0
M  END
>  <CHROM.1>
-67.44374605,-29.43691943,52.56376420,-104.56777716,40.94273152,134.99913661
-142.39590677,12.85880209,-9.71996378,-21.60896219,0.54851539,0.76153775
0.79817737

>  <Name>
ligand

>  <RI>
0

>  <Rbt.Current_Directory>
/home/itssahil/PROJECTS/Mol_Feturizer/New_Systems/rnas/3E5F

>  <Rbt.Executable>
rbdock ($Id: //depot/dev/client3/rdock/2013.1/src/exe/rbdock.cxx#4 $)

>  <Rbt.Library>
libRbt.so (2013.1, Build901 2013/11/27)

>  <Rbt.Parameter_File>
/export/apps/rDock/src/rDock_2013.1_src/data/scripts/dock_solv.prm

>  <Rbt.Receptor>
prm/pocket_docking_8.prm

>  <SCORE>
-11.9977

>  <SCORE.INTER>
-15.2102

>  <SCORE.INTER.CONST>
1

>  <SCORE.INTER.POLAR>
0

>  <SCORE.INTER.ROT>
7

>  <SCORE.INTER.SOLV>
9.86446

>  <SCORE.INTER.VDW>
-21.695

>  <SCORE.INTER.norm>
-0.563341

>  <SCORE.INTRA>
3.21252

>  <SCORE.INTRA.DIHEDRAL>
4.41409

>  <SCORE.INTRA.DIHEDRAL.0>
4.89803

>  <SCORE.INTRA.POLAR>
0

>  <SCORE.INTRA.POLAR.0>
0

>  <SCORE.INTRA.REPUL>
0

>  <SCORE.INTRA.REPUL.0>
0

>  <SCORE.INTRA.SOLV>
2.77618

>  <SCORE.INTRA.SOLV.lig_0>
-48.5832

>  <SCORE.INTRA.VDW>
-0.382622

>  <SCORE.INTRA.VDW.0>
-2.39056

>  <SCORE.INTRA.norm>
0.118982

>  <SCORE.RESTR>
0

>  <SCORE.RESTR.CAVITY>
0

>  <SCORE.RESTR.norm>
0

>  <SCORE.SYSTEM>
0

>  <SCORE.SYSTEM.CONST>
0

>  <SCORE.SYSTEM.DIHEDRAL>
0

>  <SCORE.SYSTEM.SOLV>
0

>  <SCORE.SYSTEM.norm>
0

>  <SCORE.heavy>
27

>  <SCORE.norm>
-0.444359

>  <RMSD>
6.256

$$$$
ligand
 OpenBabel11021811473D
libRbt.so/2013.1/901 2013/11/27
 27 29  0  0  0  0  0  0  0  0999 V2000
   14.1228   -5.2619  -18.2136 N   0  0  0  0  0  0  0  0  0  0  0  0
   14.2900   -5.3509  -19.6716 C   0  0  2  0  0  0  0  0  0  0  0  0
   13.0371   -4.8194  -20.3744 C   0  0  0  0  0  0  0  0  0  0  0  0
   11.9687   -5.4370  -20.1725 O   0  0  0  0  0  0  0  0  0  0  0  0
   14.4998   -6.8166  -20.0556 C   0  0  0  0  0  0  0  0  0  0  0  0
   14.7234   -6.9899  -21.5601 C   0  0  0  0  0  0  0  0  0  0  0  0
   14.5082   -8.7906  -23.7468 C   0  0  0  0  0  0  0  0  0  0  0  0
   15.0519   -8.7696  -21.9834 Se  0  0  2  0  0  0  0  0  0  0  0  0
   13.7293   -9.7927  -21.1709 C   0  0  0  0  0  0  0  0  0  0  0  0
   13.9815  -11.2986  -21.2560 C   0  0  1  0  0  0  0  0  0  0  0  0
   13.0289  -11.9658  -20.4104 O   0  0  0  0  0  0  0  0  0  0  0  0
   13.6167  -11.7399  -22.6739 C   0  0  1  0  0  0  0  0  0  0  0  0
   14.0104  -13.0991  -22.8690 O   0  0  0  0  0  0  0  0  0  0  0  0
   12.0961  -11.6470  -22.5765 C   0  0  1  0  0  0  0  0  0  0  0  0
   11.5187  -12.4738  -23.5886 O   0  0  0  0  0  0  0  0  0  0  0  0
   11.8860  -12.3091  -21.2141 C   0  0  2  0  0  0  0  0  0  0  0  0
   13.1757   -3.8139  -21.1053 O   0  0  0  0  0  0  0  0  0  0  0  0
    7.7257  -13.7335  -18.5108 N   0  0  0  0  0  0  0  0  0  0  0  0
    8.7400  -14.4749  -18.9219 C   0  0  0  0  0  0  0  0  0  0  0  0
    9.7440  -13.9613  -19.6110 N   0  0  0  0  0  0  0  0  0  0  0  0
    9.7654  -12.6546  -19.9147 C   0  0  0  0  0  0  0  0  0  0  0  0
    8.7170  -11.8446  -19.5017 C   0  0  0  0  0  0  0  0  0  0  0  0
    7.6779  -12.4231  -18.7824 C   0  0  0  0  0  0  0  0  0  0  0  0
    6.6376  -11.6875  -18.4029 N   0  0  0  0  0  0  0  0  0  0  0  0
    8.9709  -10.6107  -19.9231 N   0  0  0  0  0  0  0  0  0  0  0  0
   10.1307  -10.6398  -20.5754 C   0  0  0  0  0  0  0  0  0  0  0  0
   10.6203  -11.8798  -20.5743 N   0  0  0  0  0  0  0  0  0  0  0  0
  2  1  1  1  0  0  0
  2  5  1  0  0  0  0
  2  3  1  0  0  0  0
  3 17  1  0  0  0  0
  3  4  1  0  0  0  0
  5  6  1  0  0  0  0
  7  8  1  0  0  0  0
  8  6  1  1  0  0  0
  8  9  1  0  0  0  0
 10  9  1  6  0  0  0
 10 11  1  0  0  0  0
 10 12  1  0  0  0  0
 11 16  1  0  0  0  0
 12 13  1  1  0  0  0
 12 14  1  0  0  0  0
 14 15  1  6  0  0  0
 14 16  1  0  0  0  0
 16 27  1  1  0  0  0
 18 23  2  0  0  0  0
 18 19  1  0  0  0  0
 19 20  2  0  0  0  0
 20 21  1  0  0  0  0
 21 22  2  0  0  0  0
 21 27  1  0  0  0  0
 22 23  1  0  0  0  0
 22 25  1  0  0  0  0
 23 24  1  0  0  0  0
 25 26  2  0  0  0  0
 26 27  1  0  0  0  0
M  END
>  <CHROM.1>
-178.33512903,-62.87605854,177.40791464,155.18189861,-171.45343633,170.41190344
-101.87981006,12.33373592,-9.90015240,-20.88889018,0.72356236,0.55745010
0.32715745

>  <Name>
ligand

>  <RI>
0

>  <Rbt.Current_Directory>
/home/itssahil/PROJECTS/Mol_Feturizer/New_Systems/rnas/3E5F

>  <Rbt.Executable>
rbdock ($Id: //depot/dev/client3/rdock/2013.1/src/exe/rbdock.cxx#4 $)

>  <Rbt.Library>
libRbt.so (2013.1, Build901 2013/11/27)

>  <Rbt.Parameter_File>
/export/apps/rDock/src/rDock_2013.1_src/data/scripts/dock_solv.prm

>  <Rbt.Receptor>
prm/blind_docking_40.prm

>  <SCORE>
-17.5383

>  <SCORE.INTER>
-17.8535

>  <SCORE.INTER.CONST>
1

>  <SCORE.INTER.POLAR>
0

>  <SCORE.INTER.ROT>
7

>  <SCORE.INTER.SOLV>
7.18746

>  <SCORE.INTER.VDW>
-22.5648

>  <SCORE.INTER.norm>
-0.66124

>  <SCORE.INTRA>
0.315176

>  <SCORE.INTRA.DIHEDRAL>
-0.774886

>  <SCORE.INTRA.DIHEDRAL.0>
4.89803

>  <SCORE.INTRA.POLAR>
0

>  <SCORE.INTRA.POLAR.0>
0

>  <SCORE.INTRA.REPUL>
0

>  <SCORE.INTRA.REPUL.0>
0

>  <SCORE.INTRA.SOLV>
-0.0637083

>  <SCORE.INTRA.SOLV.lig_0>
-48.5832

>  <SCORE.INTRA.VDW>
0.734473

>  <SCORE.INTRA.VDW.0>
-2.39056

>  <SCORE.INTRA.norm>
0.0116732

>  <SCORE.RESTR>
0

>  <SCORE.RESTR.CAVITY>
0

>  <SCORE.RESTR.norm>
0

>  <SCORE.SYSTEM>
0

>  <SCORE.SYSTEM.CONST>
0

>  <SCORE.SYSTEM.DIHEDRAL>
0

>  <SCORE.SYSTEM.SOLV>
0

>  <SCORE.SYSTEM.norm>
0

>  <SCORE.heavy>
27

>  <SCORE.norm>
-0.649566

>  <RMSD>
6.257

$$$$
ligand
 OpenBabel11021811473D
libRbt.so/2013.1/901 2013/11/27
 27 29  0  0  0  0  0  0  0  0999 V2000
   14.9917   -4.4505  -20.8334 N   0  0  0  0  0  0  0  0  0  0  0  0
   16.2833   -5.1197  -20.6198 C   0  0  2  0  0  0  0  0  0  0  0  0
   17.4169   -4.2612  -21.1891 C   0  0  0  0  0  0  0  0  0  0  0  0
   18.5813   -4.6955  -21.0505 O   0  0  0  0  0  0  0  0  0  0  0  0
   16.2640   -6.4700  -21.3383 C   0  0  0  0  0  0  0  0  0  0  0  0
   15.2058   -7.4132  -20.7604 C   0  0  0  0  0  0  0  0  0  0  0  0
   14.5788   -8.6322  -23.2486 C   0  0  0  0  0  0  0  0  0  0  0  0
   15.2673   -9.0732  -21.5941 Se  0  0  2  0  0  0  0  0  0  0  0  0
   13.8979  -10.1094  -20.8820 C   0  0  0  0  0  0  0  0  0  0  0  0
   13.9653  -11.5803  -21.2949 C   0  0  1  0  0  0  0  0  0  0  0  0
   12.9365  -12.2961  -20.5900 O   0  0  0  0  0  0  0  0  0  0  0  0
   13.5532  -11.6579  -22.7654 C   0  0  1  0  0  0  0  0  0  0  0  0
   13.7792  -12.9797  -23.2575 O   0  0  0  0  0  0  0  0  0  0  0  0
   12.0549  -11.4075  -22.6141 C   0  0  1  0  0  0  0  0  0  0  0  0
   11.3839  -11.9209  -23.7662 O   0  0  0  0  0  0  0  0  0  0  0  0
   11.7624  -12.3187  -21.4213 C   0  0  2  0  0  0  0  0  0  0  0  0
   17.0964   -3.1859  -21.7415 O   0  0  0  0  0  0  0  0  0  0  0  0
    7.8579  -13.7440  -18.3606 N   0  0  0  0  0  0  0  0  0  0  0  0
    8.8339  -14.4845  -18.8571 C   0  0  0  0  0  0  0  0  0  0  0  0
    9.7726  -13.9707  -19.6327 N   0  0  0  0  0  0  0  0  0  0  0  0
    9.7645  -12.6649  -19.9403 C   0  0  0  0  0  0  0  0  0  0  0  0
    8.7545  -11.8557  -19.4391 C   0  0  0  0  0  0  0  0  0  0  0  0
    7.7836  -12.4344  -18.6302 C   0  0  0  0  0  0  0  0  0  0  0  0
    6.7790  -11.6998  -18.1629 N   0  0  0  0  0  0  0  0  0  0  0  0
    8.9679  -10.6226  -19.8842 N   0  0  0  0  0  0  0  0  0  0  0  0
   10.0661  -10.6511  -20.6355 C   0  0  0  0  0  0  0  0  0  0  0  0
   10.5567  -11.8901  -20.6742 N   0  0  0  0  0  0  0  0  0  0  0  0
  2  1  1  6  0  0  0
  2  5  1  0  0  0  0
  2  3  1  0  0  0  0
  3 17  1  0  0  0  0
  3  4  1  0  0  0  0
  5  6  1  0  0  0  0
  7  8  1  0  0  0  0
  8  6  1  1  0  0  0
  8  9  1  0  0  0  0
 10  9  1  1  0  0  0
 10 11  1  0  0  0  0
 10 12  1  0  0  0  0
 11 16  1  0  0  0  0
 12 13  1  1  0  0  0
 12 14  1  0  0  0  0
 14 15  1  6  0  0  0
 14 16  1  0  0  0  0
 16 27  1  1  0  0  0
 18 23  2  0  0  0  0
 18 19  1  0  0  0  0
 19 20  2  0  0  0  0
 20 21  1  0  0  0  0
 21 22  2  0  0  0  0
 21 27  1  0  0  0  0
 22 23  1  0  0  0  0
 22 25  1  0  0  0  0
 23 24  1  0  0  0  0
 25 26  2  0  0  0  0
 26 27  1  0  0  0  0
M  END
>  <CHROM.1>
-63.38993511,178.43473347,-177.04759079,-71.54622632,-170.16890818,174.81123995
-86.74283546,13.03362868,-9.85362800,-21.02091245,0.57535792,0.54622215,0.44387927

>  <Name>
ligand

>  <RI>
0

>  <Rbt.Current_Directory>
/home/itssahil/PROJECTS/Mol_Feturizer/New_Systems/rnas/3E5F

>  <Rbt.Executable>
rbdock ($Id: //depot/dev/client3/rdock/2013.1/src/exe/rbdock.cxx#4 $)

>  <Rbt.Library>
libRbt.so (2013.1, Build901 2013/11/27)

>  <Rbt.Parameter_File>
/export/apps/rDock/src/rDock_2013.1_src/data/scripts/dock_solv.prm

>  <Rbt.Receptor>
prm/blind_docking_60.prm

>  <SCORE>
-18.3404

>  <SCORE.INTER>
-19.1906

>  <SCORE.INTER.CONST>
1

>  <SCORE.INTER.POLAR>
0

>  <SCORE.INTER.ROT>
7

>  <SCORE.INTER.SOLV>
7.93916

>  <SCORE.INTER.VDW>
-23.7068

>  <SCORE.INTER.norm>
-0.710762

>  <SCORE.INTRA>
0.850198

>  <SCORE.INTRA.DIHEDRAL>
-1.29586

>  <SCORE.INTRA.DIHEDRAL.0>
4.89803

>  <SCORE.INTRA.POLAR>
0

>  <SCORE.INTRA.POLAR.0>
0

>  <SCORE.INTRA.REPUL>
0

>  <SCORE.INTRA.REPUL.0>
0

>  <SCORE.INTRA.SOLV>
0.69209

>  <SCORE.INTRA.SOLV.lig_0>
-48.5832

>  <SCORE.INTRA.VDW>
1.15209

>  <SCORE.INTRA.VDW.0>
-2.39056

>  <SCORE.INTRA.norm>
0.0314888

>  <SCORE.RESTR>
0

>  <SCORE.RESTR.CAVITY>
0

>  <SCORE.RESTR.norm>
0

>  <SCORE.SYSTEM>
0

>  <SCORE.SYSTEM.CONST>
0

>  <SCORE.SYSTEM.DIHEDRAL>
0

>  <SCORE.SYSTEM.SOLV>
0

>  <SCORE.SYSTEM.norm>
0

>  <SCORE.heavy>
27

>  <SCORE.norm>
-0.679273

>  <RMSD>
6.261

$$$$
ligand
 OpenBabel11021811473D
libRbt.so/2013.1/901 2013/11/27
 27 29  0  0  0  0  0  0  0  0999 V2000
   15.3485   -4.5439  -20.7347 N   0  0  0  0  0  0  0  0  0  0  0  0
   16.5717   -5.3091  -20.4515 C   0  0  2  0  0  0  0  0  0  0  0  0
   17.7986   -4.5315  -20.9376 C   0  0  0  0  0  0  0  0  0  0  0  0
   18.9179   -4.9533  -20.5732 O   0  0  0  0  0  0  0  0  0  0  0  0
   16.4984   -6.6473  -21.1890 C   0  0  0  0  0  0  0  0  0  0  0  0
   15.3513   -7.5227  -20.6779 C   0  0  0  0  0  0  0  0  0  0  0  0
   14.5583   -8.5874  -23.1894 C   0  0  0  0  0  0  0  0  0  0  0  0
   15.2924   -9.1414  -21.5895 Se  0  0  2  0  0  0  0  0  0  0  0  0
   13.9028  -10.1423  -20.8658 C   0  0  0  0  0  0  0  0  0  0  0  0
   13.9137  -11.6084  -21.3004 C   0  0  1  0  0  0  0  0  0  0  0  0
   12.8916  -12.3055  -20.5675 O   0  0  0  0  0  0  0  0  0  0  0  0
   13.4460  -11.6535  -22.7555 C   0  0  1  0  0  0  0  0  0  0  0  0
   13.6165  -12.9739  -23.2732 O   0  0  0  0  0  0  0  0  0  0  0  0
   11.9619  -11.3640  -22.5456 C   0  0  1  0  0  0  0  0  0  0  0  0
   11.2350  -11.8422  -23.6789 O   0  0  0  0  0  0  0  0  0  0  0  0
   11.6877  -12.2837  -21.3550 C   0  0  2  0  0  0  0  0  0  0  0  0
   17.5911   -3.5277  -21.6543 O   0  0  0  0  0  0  0  0  0  0  0  0
    7.6475  -13.6790  -18.4611 N   0  0  0  0  0  0  0  0  0  0  0  0
    8.5530  -14.4458  -19.0439 C   0  0  0  0  0  0  0  0  0  0  0  0
    9.5406  -13.9365  -19.7594 N   0  0  0  0  0  0  0  0  0  0  0  0
    9.6568  -12.6090  -19.9148 C   0  0  0  0  0  0  0  0  0  0  0  0
    8.7239  -11.7717  -19.3193 C   0  0  0  0  0  0  0  0  0  0  0  0
    7.6979  -12.3459  -18.5780 C   0  0  0  0  0  0  0  0  0  0  0  0
    6.7635  -11.5790  -18.0249 N   0  0  0  0  0  0  0  0  0  0  0  0
    9.0546  -10.5210  -19.6206 N   0  0  0  0  0  0  0  0  0  0  0  0
   10.1501  -10.5659  -20.3751 C   0  0  0  0  0  0  0  0  0  0  0  0
   10.5227  -11.8328  -20.5582 N   0  0  0  0  0  0  0  0  0  0  0  0
  2  1  1  6  0  0  0
  2  5  1  0  0  0  0
  2  3  1  0  0  0  0
  3 17  1  0  0  0  0
  3  4  1  0  0  0  0
  5  6  1  0  0  0  0
  7  8  1  0  0  0  0
  8  6  1  1  0  0  0
  8  9  1  0  0  0  0
 10  9  1  1  0  0  0
 10 11  1  0  0  0  0
 10 12  1  0  0  0  0
 11 16  1  0  0  0  0
 12 13  1  1  0  0  0
 12 14  1  0  0  0  0
 14 15  1  6  0  0  0
 14 16  1  0  0  0  0
 16 27  1  1  0  0  0
 18 23  2  0  0  0  0
 18 19  1  0  0  0  0
 19 20  2  0  0  0  0
 20 21  1  0  0  0  0
 21 22  2  0  0  0  0
 21 27  1  0  0  0  0
 22 23  1  0  0  0  0
 22 25  1  0  0  0  0
 23 24  1  0  0  0  0
 25 26  2  0  0  0  0
 26 27  1  0  0  0  0
M  END
>  <CHROM.1>
-64.15939968,168.73040532,-179.83537253,-75.74931686,-167.60864521,173.74249128
-94.01816273,13.06341663,-9.88646378,-20.95000230,0.50881840,0.54397832,0.52796709

>  <Name>
ligand

>  <RI>
0

>  <Rbt.Current_Directory>
/home/itssahil/PROJECTS/Mol_Feturizer/New_Systems/rnas/3E5F

>  <Rbt.Executable>
rbdock ($Id: //depot/dev/client3/rdock/2013.1/src/exe/rbdock.cxx#4 $)

>  <Rbt.Library>
libRbt.so (2013.1, Build901 2013/11/27)

>  <Rbt.Parameter_File>
/export/apps/rDock/src/rDock_2013.1_src/data/scripts/dock_solv.prm

>  <Rbt.Receptor>
prm/blind_docking_100.prm

>  <SCORE>
-18.2716

>  <SCORE.INTER>
-18.8523

>  <SCORE.INTER.CONST>
1

>  <SCORE.INTER.POLAR>
0

>  <SCORE.INTER.ROT>
7

>  <SCORE.INTER.SOLV>
7.31745

>  <SCORE.INTER.VDW>
-23.274

>  <SCORE.INTER.norm>
-0.698234

>  <SCORE.INTRA>
0.580717

>  <SCORE.INTRA.DIHEDRAL>
-1.05213

>  <SCORE.INTRA.DIHEDRAL.0>
4.89803

>  <SCORE.INTRA.POLAR>
0

>  <SCORE.INTRA.POLAR.0>
0

>  <SCORE.INTRA.REPUL>
0

>  <SCORE.INTRA.REPUL.0>
0

>  <SCORE.INTRA.SOLV>
0.655793

>  <SCORE.INTRA.SOLV.lig_0>
-48.5832

>  <SCORE.INTRA.VDW>
0.778887

>  <SCORE.INTRA.VDW.0>
-2.39056

>  <SCORE.INTRA.norm>
0.021508

>  <SCORE.RESTR>
0

>  <SCORE.RESTR.CAVITY>
0

>  <SCORE.RESTR.norm>
0

>  <SCORE.SYSTEM>
0

>  <SCORE.SYSTEM.CONST>
0

>  <SCORE.SYSTEM.DIHEDRAL>
0

>  <SCORE.SYSTEM.SOLV>
0

>  <SCORE.SYSTEM.norm>
0

>  <SCORE.heavy>
27

>  <SCORE.norm>
-0.676726

>  <RMSD>
6.268

$$$$
ligand
 OpenBabel11021811473D
libRbt.so/2013.1/901 2013/11/27
 27 29  0  0  0  0  0  0  0  0999 V2000
    5.7106  -12.0141  -17.2994 N   0  0  0  0  0  0  0  0  0  0  0  0
    6.3060  -11.2237  -18.3868 C   0  0  2  0  0  0  0  0  0  0  0  0
    5.6360  -11.5784  -19.7178 C   0  0  0  0  0  0  0  0  0  0  0  0
    5.8035  -12.7418  -20.1445 O   0  0  0  0  0  0  0  0  0  0  0  0
    7.7986  -11.5476  -18.4720 C   0  0  0  0  0  0  0  0  0  0  0  0
    8.4957  -10.7561  -19.5815 C   0  0  0  0  0  0  0  0  0  0  0  0
   10.8214   -9.6078  -18.4227 C   0  0  0  0  0  0  0  0  0  0  0  0
   10.3363  -11.0078  -19.5227 Se  0  0  2  0  0  0  0  0  0  0  0  0
   11.0299  -10.4580  -21.1576 C   0  0  0  0  0  0  0  0  0  0  0  0
   10.5872  -11.3286  -22.3343 C   0  0  1  0  0  0  0  0  0  0  0  0
   10.9472  -10.6582  -23.5543 O   0  0  0  0  0  0  0  0  0  0  0  0
   11.4516  -12.5899  -22.3156 C   0  0  1  0  0  0  0  0  0  0  0  0
   10.9567  -13.5245  -23.2758 O   0  0  0  0  0  0  0  0  0  0  0  0
   12.7692  -11.9918  -22.8020 C   0  0  1  0  0  0  0  0  0  0  0  0
   13.5791  -13.0387  -23.3397 O   0  0  0  0  0  0  0  0  0  0  0  0
   12.2488  -11.1263  -23.9504 C   0  0  2  0  0  0  0  0  0  0  0  0
    4.9793  -10.6772  -20.2843 O   0  0  0  0  0  0  0  0  0  0  0  0
   15.7787   -7.8215  -22.1438 N   0  0  0  0  0  0  0  0  0  0  0  0
   15.1376   -8.7821  -21.5005 C   0  0  0  0  0  0  0  0  0  0  0  0
   14.2535   -9.5559  -22.1056 N   0  0  0  0  0  0  0  0  0  0  0  0
   13.9793   -9.3895  -23.4083 C   0  0  0  0  0  0  0  0  0  0  0  0
   14.6312   -8.3899  -24.1168 C   0  0  0  0  0  0  0  0  0  0  0  0
   15.5512   -7.5947  -23.4439 C   0  0  0  0  0  0  0  0  0  0  0  0
   16.1671   -6.6024  -24.0789 N   0  0  0  0  0  0  0  0  0  0  0  0
   14.1891   -8.4295  -25.3688 N   0  0  0  0  0  0  0  0  0  0  0  0
   13.2951   -9.4124  -25.4482 C   0  0  0  0  0  0  0  0  0  0  0  0
   13.1623  -10.0013  -24.2595 N   0  0  0  0  0  0  0  0  0  0  0  0
  2  1  1  1  0  0  0
  2  5  1  0  0  0  0
  2  3  1  0  0  0  0
  3 17  1  0  0  0  0
  3  4  1  0  0  0  0
  5  6  1  0  0  0  0
  7  8  1  0  0  0  0
  8  6  1  6  0  0  0
  8  9  1  0  0  0  0
 10  9  1  1  0  0  0
 10 11  1  0  0  0  0
 10 12  1  0  0  0  0
 11 16  1  0  0  0  0
 12 13  1  6  0  0  0
 12 14  1  0  0  0  0
 14 15  1  6  0  0  0
 14 16  1  0  0  0  0
 16 27  1  1  0  0  0
 18 23  2  0  0  0  0
 18 19  1  0  0  0  0
 19 20  2  0  0  0  0
 20 21  1  0  0  0  0
 21 22  2  0  0  0  0
 21 27  1  0  0  0  0
 22 23  1  0  0  0  0
 22 25  1  0  0  0  0
 23 24  1  0  0  0  0
 25 26  2  0  0  0  0
 26 27  1  0  0  0  0
M  END
>  <CHROM.1>
-179.73112681,-65.45787564,172.89392727,-91.04596396,-66.05041833,168.20509141
90.85004567,11.08435110,-10.58045072,-21.48661595,-2.86462708,-0.55033077
-2.12937242

>  <Name>
ligand

>  <RI>
0

>  <Rbt.Current_Directory>
/home/itssahil/PROJECTS/Mol_Feturizer/New_Systems/rnas/3E5F

>  <Rbt.Executable>
rbdock ($Id: //depot/dev/client3/rdock/2013.1/src/exe/rbdock.cxx#4 $)

>  <Rbt.Library>
libRbt.so (2013.1, Build901 2013/11/27)

>  <Rbt.Parameter_File>
/export/apps/rDock/src/rDock_2013.1_src/data/scripts/dock_solv.prm

>  <Rbt.Receptor>
prm/blind_docking_40.prm

>  <SCORE>
-18.1899

>  <SCORE.INTER>
-18.3071

>  <SCORE.INTER.CONST>
1

>  <SCORE.INTER.POLAR>
0

>  <SCORE.INTER.ROT>
7

>  <SCORE.INTER.SOLV>
17.3148

>  <SCORE.INTER.VDW>
-26.243

>  <SCORE.INTER.norm>
-0.67804

>  <SCORE.INTRA>
0.10438

>  <SCORE.INTRA.DIHEDRAL>
-0.568938

>  <SCORE.INTRA.DIHEDRAL.0>
4.89803

>  <SCORE.INTRA.POLAR>
0

>  <SCORE.INTRA.POLAR.0>
0

>  <SCORE.INTRA.REPUL>
0

>  <SCORE.INTRA.REPUL.0>
0

>  <SCORE.INTRA.SOLV>
-0.0605318

>  <SCORE.INTRA.SOLV.lig_0>
-48.5832

>  <SCORE.INTRA.VDW>
0.419115

>  <SCORE.INTRA.VDW.0>
-2.39056

>  <SCORE.INTRA.norm>
0.00386594

>  <SCORE.RESTR>
0.0128583

>  <SCORE.RESTR.CAVITY>
0.0128583

>  <SCORE.RESTR.norm>
0.000476232

>  <SCORE.SYSTEM>
0

>  <SCORE.SYSTEM.CONST>
0

>  <SCORE.SYSTEM.DIHEDRAL>
0

>  <SCORE.SYSTEM.SOLV>
0

>  <SCORE.SYSTEM.norm>
0

>  <SCORE.heavy>
27

>  <SCORE.norm>
-0.673698

>  <RMSD>
6.271

$$$$
ligand
 OpenBabel11021811473D
libRbt.so/2013.1/901 2013/11/27
 27 29  0  0  0  0  0  0  0  0999 V2000
   17.1818   -6.5229  -22.1080 N   0  0  0  0  0  0  0  0  0  0  0  0
   16.3979   -5.3177  -21.8001 C   0  0  2  0  0  0  0  0  0  0  0  0
   17.3373   -4.1545  -21.4674 C   0  0  0  0  0  0  0  0  0  0  0  0
   16.9024   -2.9994  -21.6682 O   0  0  0  0  0  0  0  0  0  0  0  0
   15.5045   -5.6054  -20.5923 C   0  0  0  0  0  0  0  0  0  0  0  0
   14.3237   -6.5101  -20.9537 C   0  0  0  0  0  0  0  0  0  0  0  0
   14.7421   -8.3066  -23.1143 C   0  0  0  0  0  0  0  0  0  0  0  0
   14.8927   -8.2500  -21.2759 Se  0  0  2  0  0  0  0  0  0  0  0  0
   13.5239   -9.3937  -20.7520 C   0  0  0  0  0  0  0  0  0  0  0  0
   13.8648  -10.8747  -20.9226 C   0  0  1  0  0  0  0  0  0  0  0  0
   12.9569  -11.6442  -20.1154 O   0  0  0  0  0  0  0  0  0  0  0  0
   13.5210  -11.2560  -22.3629 C   0  0  1  0  0  0  0  0  0  0  0  0
   13.9939  -12.5762  -22.6351 O   0  0  0  0  0  0  0  0  0  0  0  0
   11.9979  -11.2594  -22.2593 C   0  0  1  0  0  0  0  0  0  0  0  0
   11.4666  -12.0606  -23.3162 O   0  0  0  0  0  0  0  0  0  0  0  0
   11.8332  -12.0089  -20.9365 C   0  0  2  0  0  0  0  0  0  0  0  0
   18.4721   -4.4447  -21.0290 O   0  0  0  0  0  0  0  0  0  0  0  0
    7.5292  -13.8665  -18.7755 N   0  0  0  0  0  0  0  0  0  0  0  0
    8.5486  -14.5298  -19.2937 C   0  0  0  0  0  0  0  0  0  0  0  0
    9.5919  -13.9077  -19.8146 N   0  0  0  0  0  0  0  0  0  0  0  0
    9.6494  -12.5674  -19.8301 C   0  0  0  0  0  0  0  0  0  0  0  0
    8.5971  -11.8366  -19.2968 C   0  0  0  0  0  0  0  0  0  0  0  0
    7.5163  -12.5275  -18.7618 C   0  0  0  0  0  0  0  0  0  0  0  0
    6.4723  -11.8626  -18.2768 N   0  0  0  0  0  0  0  0  0  0  0  0
    8.8911  -10.5484  -19.4332 N   0  0  0  0  0  0  0  0  0  0  0  0
   10.0790  -10.4684  -20.0281 C   0  0  0  0  0  0  0  0  0  0  0  0
   10.5469  -11.6926  -20.2724 N   0  0  0  0  0  0  0  0  0  0  0  0
  2  1  1  1  0  0  0
  2  5  1  0  0  0  0
  2  3  1  0  0  0  0
  3 17  1  0  0  0  0
  3  4  1  0  0  0  0
  5  6  1  0  0  0  0
  7  8  1  0  0  0  0
  8  6  1  1  0  0  0
  8  9  1  0  0  0  0
 10  9  1  6  0  0  0
 10 11  1  0  0  0  0
 10 12  1  0  0  0  0
 11 16  1  0  0  0  0
 12 13  1  1  0  0  0
 12 14  1  0  0  0  0
 14 15  1  6  0  0  0
 14 16  1  0  0  0  0
 16 27  1  1  0  0  0
 18 23  2  0  0  0  0
 18 19  1  0  0  0  0
 19 20  2  0  0  0  0
 20 21  1  0  0  0  0
 21 22  2  0  0  0  0
 21 27  1  0  0  0  0
 22 23  1  0  0  0  0
 22 25  1  0  0  0  0
 23 24  1  0  0  0  0
 25 26  2  0  0  0  0
 26 27  1  0  0  0  0
M  END
>  <CHROM.1>
-73.87803158,154.20059611,71.54774306,-105.98858389,-178.37664127,161.78294338
-112.44612572,12.92411330,-9.58135087,-20.89984021,-0.58432642,-0.53034320
-2.74631111

>  <Name>
ligand

>  <RI>
0

>  <Rbt.Current_Directory>
/home/itssahil/PROJECTS/Mol_Feturizer/New_Systems/rnas/3E5F

>  <Rbt.Executable>
rbdock ($Id: //depot/dev/client3/rdock/2013.1/src/exe/rbdock.cxx#4 $)

>  <Rbt.Library>
libRbt.so (2013.1, Build901 2013/11/27)

>  <Rbt.Parameter_File>
/export/apps/rDock/src/rDock_2013.1_src/data/scripts/dock_solv.prm

>  <Rbt.Receptor>
prm/blind_docking_60.prm

>  <SCORE>
-13.9826

>  <SCORE.INTER>
-15.9435

>  <SCORE.INTER.CONST>
1

>  <SCORE.INTER.POLAR>
0

>  <SCORE.INTER.ROT>
7

>  <SCORE.INTER.SOLV>
8.55883

>  <SCORE.INTER.VDW>
-21.7486

>  <SCORE.INTER.norm>
-0.590501

>  <SCORE.INTRA>
1.96088

>  <SCORE.INTRA.DIHEDRAL>
2.08096

>  <SCORE.INTRA.DIHEDRAL.0>
4.89803

>  <SCORE.INTRA.POLAR>
0

>  <SCORE.INTRA.POLAR.0>
0

>  <SCORE.INTRA.REPUL>
0

>  <SCORE.INTRA.REPUL.0>
0

>  <SCORE.INTRA.SOLV>
2.31517

>  <SCORE.INTRA.SOLV.lig_0>
-48.5832

>  <SCORE.INTRA.VDW>
-0.237185

>  <SCORE.INTRA.VDW.0>
-2.39056

>  <SCORE.INTRA.norm>
0.0726254

>  <SCORE.RESTR>
0

>  <SCORE.RESTR.CAVITY>
0

>  <SCORE.RESTR.norm>
0

>  <SCORE.SYSTEM>
0

>  <SCORE.SYSTEM.CONST>
0

>  <SCORE.SYSTEM.DIHEDRAL>
0

>  <SCORE.SYSTEM.SOLV>
0

>  <SCORE.SYSTEM.norm>
0

>  <SCORE.heavy>
27

>  <SCORE.norm>
-0.517876

>  <RMSD>
6.272

$$$$
ligand
 OpenBabel11021811473D
libRbt.so/2013.1/901 2013/11/27
 27 29  0  0  0  0  0  0  0  0999 V2000
   10.1385   -7.2068  -18.6175 N   0  0  0  0  0  0  0  0  0  0  0  0
   11.4259   -6.7191  -18.1013 C   0  0  2  0  0  0  0  0  0  0  0  0
   11.1895   -5.7566  -16.9334 C   0  0  0  0  0  0  0  0  0  0  0  0
   10.1876   -5.0120  -17.0063 O   0  0  0  0  0  0  0  0  0  0  0  0
   12.1592   -5.9807  -19.2224 C   0  0  0  0  0  0  0  0  0  0  0  0
   12.3782   -6.8703  -20.4488 C   0  0  0  0  0  0  0  0  0  0  0  0
   14.9929   -7.7610  -19.7854 C   0  0  0  0  0  0  0  0  0  0  0  0
   13.2838   -8.4268  -19.9886 Se  0  0  2  0  0  0  0  0  0  0  0  0
   13.4606   -9.4495  -21.5310 C   0  0  0  0  0  0  0  0  0  0  0  0
   13.9527  -10.8734  -21.2682 C   0  0  1  0  0  0  0  0  0  0  0  0
   13.1436  -11.4473  -20.2272 O   0  0  0  0  0  0  0  0  0  0  0  0
   13.6286  -11.7019  -22.5119 C   0  0  1  0  0  0  0  0  0  0  0  0
   14.2335  -12.9911  -22.4001 O   0  0  0  0  0  0  0  0  0  0  0  0
   12.1161  -11.8197  -22.3413 C   0  0  1  0  0  0  0  0  0  0  0  0
   11.6556  -12.9489  -23.0856 O   0  0  0  0  0  0  0  0  0  0  0  0
   12.0518  -12.1481  -20.8491 C   0  0  2  0  0  0  0  0  0  0  0  0
   12.0197   -5.7791  -15.9982 O   0  0  0  0  0  0  0  0  0  0  0  0
    7.6188  -13.8017  -18.7853 N   0  0  0  0  0  0  0  0  0  0  0  0
    8.6391  -14.5122  -19.2345 C   0  0  0  0  0  0  0  0  0  0  0  0
    9.7182  -13.9397  -19.7390 N   0  0  0  0  0  0  0  0  0  0  0  0
    9.8126  -12.6032  -19.8080 C   0  0  0  0  0  0  0  0  0  0  0  0
    8.7607  -11.8237  -19.3478 C   0  0  0  0  0  0  0  0  0  0  0  0
    7.6417  -12.4634  -18.8278 C   0  0  0  0  0  0  0  0  0  0  0  0
    6.5981  -11.7520  -18.4128 N   0  0  0  0  0  0  0  0  0  0  0  0
    9.0945  -10.5504  -19.5259 N   0  0  0  0  0  0  0  0  0  0  0  0
   10.3063  -10.5261  -20.0760 C   0  0  0  0  0  0  0  0  0  0  0  0
   10.7499  -11.7711  -20.2504 N   0  0  0  0  0  0  0  0  0  0  0  0
  2  1  1  6  0  0  0
  2  5  1  0  0  0  0
  2  3  1  0  0  0  0
  3 17  1  0  0  0  0
  3  4  1  0  0  0  0
  5  6  1  0  0  0  0
  7  8  1  0  0  0  0
  8  6  1  6  0  0  0
  8  9  1  0  0  0  0
 10  9  1  6  0  0  0
 10 11  1  0  0  0  0
 10 12  1  0  0  0  0
 11 16  1  0  0  0  0
 12 13  1  1  0  0  0
 12 14  1  0  0  0  0
 14 15  1  6  0  0  0
 14 16  1  0  0  0  0
 16 27  1  1  0  0  0
 18 23  2  0  0  0  0
 18 19  1  0  0  0  0
 19 20  2  0  0  0  0
 20 21  1  0  0  0  0
 21 22  2  0  0  0  0
 21 27  1  0  0  0  0
 22 23  1  0  0  0  0
 22 25  1  0  0  0  0
 23 24  1  0  0  0  0
 25 26  2  0  0  0  0
 26 27  1  0  0  0  0
M  END
>  <CHROM.1>
-57.62479781,-35.85737999,-55.80250422,-75.59992616,-169.22837654,49.86668296
-129.68100524,11.52963918,-9.92250136,-19.82508311,1.18641004,0.50342508
0.47724833

>  <Name>
ligand

>  <RI>
0

>  <Rbt.Current_Directory>
/home/itssahil/PROJECTS/Mol_Feturizer/New_Systems/rnas/3E5F

>  <Rbt.Executable>
rbdock ($Id: //depot/dev/client3/rdock/2013.1/src/exe/rbdock.cxx#4 $)

>  <Rbt.Library>
libRbt.so (2013.1, Build901 2013/11/27)

>  <Rbt.Parameter_File>
/export/apps/rDock/src/rDock_2013.1_src/data/scripts/dock_solv.prm

>  <Rbt.Receptor>
prm/pocket_docking_7.prm

>  <SCORE>
-12.7835

>  <SCORE.INTER>
-12.3285

>  <SCORE.INTER.CONST>
1

>  <SCORE.INTER.POLAR>
0

>  <SCORE.INTER.ROT>
7

>  <SCORE.INTER.SOLV>
9.75808

>  <SCORE.INTER.VDW>
-19.7384

>  <SCORE.INTER.norm>
-0.456611

>  <SCORE.INTRA>
-0.454946

>  <SCORE.INTRA.DIHEDRAL>
-0.980881

>  <SCORE.INTRA.DIHEDRAL.0>
4.89803

>  <SCORE.INTRA.POLAR>
0

>  <SCORE.INTRA.POLAR.0>
0

>  <SCORE.INTRA.REPUL>
0

>  <SCORE.INTRA.REPUL.0>
0

>  <SCORE.INTRA.SOLV>
1.37348

>  <SCORE.INTRA.SOLV.lig_0>
-48.5832

>  <SCORE.INTRA.VDW>
-0.651247

>  <SCORE.INTRA.VDW.0>
-2.39056

>  <SCORE.INTRA.norm>
-0.0168498

>  <SCORE.RESTR>
0

>  <SCORE.RESTR.CAVITY>
0

>  <SCORE.RESTR.norm>
0

>  <SCORE.SYSTEM>
0

>  <SCORE.SYSTEM.CONST>
0

>  <SCORE.SYSTEM.DIHEDRAL>
0

>  <SCORE.SYSTEM.SOLV>
0

>  <SCORE.SYSTEM.norm>
0

>  <SCORE.heavy>
27

>  <SCORE.norm>
-0.473461

>  <RMSD>
6.272

$$$$
ligand
 OpenBabel11021811473D
libRbt.so/2013.1/901 2013/11/27
 27 29  0  0  0  0  0  0  0  0999 V2000
   15.0260   -4.4914  -20.7786 N   0  0  0  0  0  0  0  0  0  0  0  0
   16.3359   -5.1543  -20.6976 C   0  0  2  0  0  0  0  0  0  0  0  0
   17.4109   -4.2660  -21.3312 C   0  0  0  0  0  0  0  0  0  0  0  0
   17.0472   -3.1435  -21.7450 O   0  0  0  0  0  0  0  0  0  0  0  0
   16.2656   -6.4802  -21.4573 C   0  0  0  0  0  0  0  0  0  0  0  0
   15.2205   -7.4279  -20.8631 C   0  0  0  0  0  0  0  0  0  0  0  0
   14.5498   -8.5987  -23.3631 C   0  0  0  0  0  0  0  0  0  0  0  0
   15.2503   -9.0751  -21.7236 Se  0  0  2  0  0  0  0  0  0  0  0  0
   13.8748  -10.1041  -21.0127 C   0  0  0  0  0  0  0  0  0  0  0  0
   13.9467  -11.5795  -21.4085 C   0  0  1  0  0  0  0  0  0  0  0  0
   12.9288  -12.2925  -20.6851 O   0  0  0  0  0  0  0  0  0  0  0  0
   13.5209  -11.6771  -22.8739 C   0  0  1  0  0  0  0  0  0  0  0  0
   13.7497  -13.0034  -23.3522 O   0  0  0  0  0  0  0  0  0  0  0  0
   12.0227  -11.4333  -22.7111 C   0  0  1  0  0  0  0  0  0  0  0  0
   11.3436  -11.9644  -23.8504 O   0  0  0  0  0  0  0  0  0  0  0  0
   11.7469  -12.3317  -21.5046 C   0  0  2  0  0  0  0  0  0  0  0  0
   18.5700   -4.7314  -21.3970 O   0  0  0  0  0  0  0  0  0  0  0  0
    7.8833  -13.7409  -18.3851 N   0  0  0  0  0  0  0  0  0  0  0  0
    8.8591  -14.4817  -18.8816 C   0  0  0  0  0  0  0  0  0  0  0  0
    9.7865  -13.9723  -19.6736 N   0  0  0  0  0  0  0  0  0  0  0  0
    9.7665  -12.6709  -19.9987 C   0  0  0  0  0  0  0  0  0  0  0  0
    8.7563  -11.8616  -19.4981 C   0  0  0  0  0  0  0  0  0  0  0  0
    7.7976  -12.4356  -18.6716 C   0  0  0  0  0  0  0  0  0  0  0  0
    6.7928  -11.7013  -18.2039 N   0  0  0  0  0  0  0  0  0  0  0  0
    8.9569  -10.6332  -19.9620 N   0  0  0  0  0  0  0  0  0  0  0  0
   10.0477  -10.6647  -20.7240 C   0  0  0  0  0  0  0  0  0  0  0  0
   10.5460  -11.9009  -20.7510 N   0  0  0  0  0  0  0  0  0  0  0  0
  2  1  1  6  0  0  0
  2  5  1  0  0  0  0
  2  3  1  0  0  0  0
  3 17  1  0  0  0  0
  3  4  1  0  0  0  0
  5  6  1  0  0  0  0
  7  8  1  0  0  0  0
  8  6  1  1  0  0  0
  8  9  1  0  0  0  0
 10  9  1  1  0  0  0
 10 11  1  0  0  0  0
 10 12  1  0  0  0  0
 11 16  1  0  0  0  0
 12 13  1  1  0  0  0
 12 14  1  0  0  0  0
 14 15  1  6  0  0  0
 14 16  1  0  0  0  0
 16 27  1  1  0  0  0
 18 23  2  0  0  0  0
 18 19  1  0  0  0  0
 19 20  2  0  0  0  0
 20 21  1  0  0  0  0
 21 22  2  0  0  0  0
 21 27  1  0  0  0  0
 22 23  1  0  0  0  0
 22 25  1  0  0  0  0
 23 24  1  0  0  0  0
 25 26  2  0  0  0  0
 26 27  1  0  0  0  0
M  END
>  <CHROM.1>
-60.74683481,3.07178733,-175.63988160,-70.37779076,-168.07418617,173.68420454
-86.64055253,13.02553923,-9.86104833,-21.11463095,0.56678279,0.55764449,0.45340370

>  <Name>
ligand

>  <RI>
0

>  <Rbt.Current_Directory>
/home/itssahil/PROJECTS/Mol_Feturizer/New_Systems/rnas/3E5F

>  <Rbt.Executable>
rbdock ($Id: //depot/dev/client3/rdock/2013.1/src/exe/rbdock.cxx#4 $)

>  <Rbt.Library>
libRbt.so (2013.1, Build901 2013/11/27)

>  <Rbt.Parameter_File>
/export/apps/rDock/src/rDock_2013.1_src/data/scripts/dock_solv.prm

>  <Rbt.Receptor>
prm/blind_docking_60.prm

>  <SCORE>
-18.2511

>  <SCORE.INTER>
-19.2505

>  <SCORE.INTER.CONST>
1

>  <SCORE.INTER.POLAR>
0

>  <SCORE.INTER.ROT>
7

>  <SCORE.INTER.SOLV>
8.05467

>  <SCORE.INTER.VDW>
-23.7852

>  <SCORE.INTER.norm>
-0.712981

>  <SCORE.INTRA>
0.999373

>  <SCORE.INTRA.DIHEDRAL>
-1.17155

>  <SCORE.INTRA.DIHEDRAL.0>
4.89803

>  <SCORE.INTRA.POLAR>
0

>  <SCORE.INTRA.POLAR.0>
0

>  <SCORE.INTRA.REPUL>
0

>  <SCORE.INTRA.REPUL.0>
0

>  <SCORE.INTRA.SOLV>
0.699533

>  <SCORE.INTRA.SOLV.lig_0>
-48.5832

>  <SCORE.INTRA.VDW>
1.23538

>  <SCORE.INTRA.VDW.0>
-2.39056

>  <SCORE.INTRA.norm>
0.0370138

>  <SCORE.RESTR>
0

>  <SCORE.RESTR.CAVITY>
0

>  <SCORE.RESTR.norm>
0

>  <SCORE.SYSTEM>
0

>  <SCORE.SYSTEM.CONST>
0

>  <SCORE.SYSTEM.DIHEDRAL>
0

>  <SCORE.SYSTEM.SOLV>
0

>  <SCORE.SYSTEM.norm>
0

>  <SCORE.heavy>
27

>  <SCORE.norm>
-0.675968

>  <RMSD>
6.274

$$$$
ligand
 OpenBabel11021811473D
libRbt.so/2013.1/901 2013/11/27
 27 29  0  0  0  0  0  0  0  0999 V2000
   12.6997   -5.5430  -18.8179 N   0  0  0  0  0  0  0  0  0  0  0  0
   14.0229   -5.8050  -19.4031 C   0  0  2  0  0  0  0  0  0  0  0  0
   14.3805   -4.7000  -20.4017 C   0  0  0  0  0  0  0  0  0  0  0  0
   15.5929   -4.4221  -20.5295 O   0  0  0  0  0  0  0  0  0  0  0  0
   13.9825   -7.1493  -20.1319 C   0  0  0  0  0  0  0  0  0  0  0  0
   15.3849   -7.6625  -20.4684 C   0  0  0  0  0  0  0  0  0  0  0  0
   14.5645   -8.6326  -23.0093 C   0  0  0  0  0  0  0  0  0  0  0  0
   15.2993   -9.2491  -21.4328 Se  0  0  2  0  0  0  0  0  0  0  0  0
   13.9001  -10.2547  -20.7348 C   0  0  0  0  0  0  0  0  0  0  0  0
   13.8892  -11.7059  -21.2170 C   0  0  1  0  0  0  0  0  0  0  0  0
   12.8302  -12.4012  -20.5369 O   0  0  0  0  0  0  0  0  0  0  0  0
   13.4632  -11.6925  -22.6856 C   0  0  1  0  0  0  0  0  0  0  0  0
   13.6177  -12.9992  -23.2415 O   0  0  0  0  0  0  0  0  0  0  0  0
   11.9808  -11.3738  -22.5084 C   0  0  1  0  0  0  0  0  0  0  0  0
   11.2762  -11.7972  -23.6769 O   0  0  0  0  0  0  0  0  0  0  0  0
   11.6506  -12.3246  -21.3570 C   0  0  2  0  0  0  0  0  0  0  0  0
   13.4346   -4.1508  -21.0083 O   0  0  0  0  0  0  0  0  0  0  0  0
    7.6036  -13.7085  -18.4672 N   0  0  0  0  0  0  0  0  0  0  0  0
    8.5230  -14.4762  -19.0266 C   0  0  0  0  0  0  0  0  0  0  0  0
    9.5103  -13.9699  -19.7447 N   0  0  0  0  0  0  0  0  0  0  0  0
    9.6119  -12.6446  -19.9266 C   0  0  0  0  0  0  0  0  0  0  0  0
    8.6642  -11.8065  -19.3562 C   0  0  0  0  0  0  0  0  0  0  0  0
    7.6391  -12.3776  -18.6113 C   0  0  0  0  0  0  0  0  0  0  0  0
    6.6910  -11.6108  -18.0817 N   0  0  0  0  0  0  0  0  0  0  0  0
    8.9824  -10.5584  -19.6807 N   0  0  0  0  0  0  0  0  0  0  0  0
   10.0846  -10.6056  -20.4253 C   0  0  0  0  0  0  0  0  0  0  0  0
   10.4738  -11.8714  -20.5791 N   0  0  0  0  0  0  0  0  0  0  0  0
  2  1  1  6  0  0  0
  2  5  1  0  0  0  0
  2  3  1  0  0  0  0
  3 17  1  0  0  0  0
  3  4  1  0  0  0  0
  5  6  1  0  0  0  0
  7  8  1  0  0  0  0
  8  6  1  1  0  0  0
  8  9  1  0  0  0  0
 10  9  1  1  0  0  0
 10 11  1  0  0  0  0
 10 12  1  0  0  0  0
 11 16  1  0  0  0  0
 12 13  1  1  0  0  0
 12 14  1  0  0  0  0
 14 15  1  6  0  0  0
 14 16  1  0  0  0  0
 16 27  1  1  0  0  0
 18 23  2  0  0  0  0
 18 19  1  0  0  0  0
 19 20  2  0  0  0  0
 20 21  1  0  0  0  0
 21 22  2  0  0  0  0
 21 27  1  0  0  0  0
 22 23  1  0  0  0  0
 22 25  1  0  0  0  0
 23 24  1  0  0  0  0
 25 26  2  0  0  0  0
 26 27  1  0  0  0  0
M  END
>  <CHROM.1>
-165.81586402,149.10667800,-176.93455776,67.47117198,-167.57649746,175.77741323
-90.14431511,12.43965974,-10.00497269,-20.73744507,0.67024217,0.50892224
0.36194533

>  <Name>
ligand

>  <RI>
0

>  <Rbt.Current_Directory>
/home/itssahil/PROJECTS/Mol_Feturizer/New_Systems/rnas/3E5F

>  <Rbt.Executable>
rbdock ($Id: //depot/dev/client3/rdock/2013.1/src/exe/rbdock.cxx#4 $)

>  <Rbt.Library>
libRbt.so (2013.1, Build901 2013/11/27)

>  <Rbt.Parameter_File>
/export/apps/rDock/src/rDock_2013.1_src/data/scripts/dock_solv.prm

>  <Rbt.Receptor>
prm/pocket_docking_7.prm

>  <SCORE>
-16.3027

>  <SCORE.INTER>
-17.0887

>  <SCORE.INTER.CONST>
1

>  <SCORE.INTER.POLAR>
0

>  <SCORE.INTER.ROT>
7

>  <SCORE.INTER.SOLV>
6.16626

>  <SCORE.INTER.VDW>
-21.7145

>  <SCORE.INTER.norm>
-0.632914

>  <SCORE.INTRA>
0.786019

>  <SCORE.INTRA.DIHEDRAL>
-0.170787

>  <SCORE.INTRA.DIHEDRAL.0>
4.89803

>  <SCORE.INTRA.POLAR>
0

>  <SCORE.INTRA.POLAR.0>
0

>  <SCORE.INTRA.REPUL>
0

>  <SCORE.INTRA.REPUL.0>
0

>  <SCORE.INTRA.SOLV>
0.000258842

>  <SCORE.INTRA.SOLV.lig_0>
-48.5832

>  <SCORE.INTRA.VDW>
0.871284

>  <SCORE.INTRA.VDW.0>
-2.39056

>  <SCORE.INTRA.norm>
0.0291118

>  <SCORE.RESTR>
0

>  <SCORE.RESTR.CAVITY>
0

>  <SCORE.RESTR.norm>
0

>  <SCORE.SYSTEM>
0

>  <SCORE.SYSTEM.CONST>
0

>  <SCORE.SYSTEM.DIHEDRAL>
0

>  <SCORE.SYSTEM.SOLV>
0

>  <SCORE.SYSTEM.norm>
0

>  <SCORE.heavy>
27

>  <SCORE.norm>
-0.603802

>  <RMSD>
6.274

$$$$
ligand
 OpenBabel11021811473D
libRbt.so/2013.1/901 2013/11/27
 27 29  0  0  0  0  0  0  0  0999 V2000
    6.0387  -11.4882  -19.0633 N   0  0  0  0  0  0  0  0  0  0  0  0
    7.1143  -12.4510  -19.3423 C   0  0  2  0  0  0  0  0  0  0  0  0
    7.3418  -13.3483  -18.1220 C   0  0  0  0  0  0  0  0  0  0  0  0
    7.2098  -12.8191  -16.9967 O   0  0  0  0  0  0  0  0  0  0  0  0
    8.3997  -11.6800  -19.6477 C   0  0  0  0  0  0  0  0  0  0  0  0
    9.5485  -12.6118  -20.0420 C   0  0  0  0  0  0  0  0  0  0  0  0
   11.1913  -10.3760  -19.4311 C   0  0  0  0  0  0  0  0  0  0  0  0
   10.9730  -11.6496  -20.7487 Se  0  0  2  0  0  0  0  0  0  0  0  0
   10.3159  -10.6260  -22.1546 C   0  0  0  0  0  0  0  0  0  0  0  0
   10.6936  -11.1667  -23.5343 C   0  0  1  0  0  0  0  0  0  0  0  0
   11.6966  -10.3051  -24.0994 O   0  0  0  0  0  0  0  0  0  0  0  0
   11.4070  -12.5019  -23.3182 C   0  0  1  0  0  0  0  0  0  0  0  0
   11.6147  -13.1437  -24.5773 O   0  0  0  0  0  0  0  0  0  0  0  0
   12.7354  -11.9850  -22.7717 C   0  0  1  0  0  0  0  0  0  0  0  0
   13.7339  -12.9884  -22.9643 O   0  0  0  0  0  0  0  0  0  0  0  0
   12.9868  -10.8388  -23.7523 C   0  0  2  0  0  0  0  0  0  0  0  0
    7.6519  -14.5402  -18.3397 O   0  0  0  0  0  0  0  0  0  0  0  0
   16.1512   -6.8728  -24.7025 N   0  0  0  0  0  0  0  0  0  0  0  0
   15.4721   -7.6146  -25.5605 C   0  0  0  0  0  0  0  0  0  0  0  0
   14.6933   -8.6049  -25.1613 N   0  0  0  0  0  0  0  0  0  0  0  0
   14.5647   -8.8883  -23.8563 C   0  0  0  0  0  0  0  0  0  0  0  0
   15.2635   -8.1325  -22.9255 C   0  0  0  0  0  0  0  0  0  0  0  0
   16.0750   -7.1021  -23.3853 C   0  0  0  0  0  0  0  0  0  0  0  0
   16.7899   -6.3812  -22.5272 N   0  0  0  0  0  0  0  0  0  0  0  0
   14.9714   -8.6074  -21.7198 N   0  0  0  0  0  0  0  0  0  0  0  0
   14.1240   -9.6209  -21.8817 C   0  0  0  0  0  0  0  0  0  0  0  0
   13.8715   -9.7977  -23.1788 N   0  0  0  0  0  0  0  0  0  0  0  0
  2  1  1  1  0  0  0
  2  5  1  0  0  0  0
  2  3  1  0  0  0  0
  3 17  1  0  0  0  0
  3  4  1  0  0  0  0
  5  6  1  0  0  0  0
  7  8  1  0  0  0  0
  8  6  1  1  0  0  0
  8  9  1  0  0  0  0
 10  9  1  1  0  0  0
 10 11  1  0  0  0  0
 10 12  1  0  0  0  0
 11 16  1  0  0  0  0
 12 13  1  6  0  0  0
 12 14  1  0  0  0  0
 14 15  1  6  0  0  0
 14 16  1  0  0  0  0
 16 27  1  1  0  0  0
 18 23  2  0  0  0  0
 18 19  1  0  0  0  0
 19 20  2  0  0  0  0
 20 21  1  0  0  0  0
 21 22  2  0  0  0  0
 21 27  1  0  0  0  0
 22 23  1  0  0  0  0
 22 25  1  0  0  0  0
 23 24  1  0  0  0  0
 25 26  2  0  0  0  0
 26 27  1  0  0  0  0
M  END
>  <CHROM.1>
-176.16809692,-35.77632305,167.98496206,50.99999114,-105.16495702,-107.01305489
-80.13503077,11.72636270,-10.83003487,-21.76469443,-3.01181952,-0.73116141
-2.20637376

>  <Name>
ligand

>  <RI>
0

>  <Rbt.Current_Directory>
/home/itssahil/PROJECTS/Mol_Feturizer/New_Systems/rnas/3E5F

>  <Rbt.Executable>
rbdock ($Id: //depot/dev/client3/rdock/2013.1/src/exe/rbdock.cxx#4 $)

>  <Rbt.Library>
libRbt.so (2013.1, Build901 2013/11/27)

>  <Rbt.Parameter_File>
/export/apps/rDock/src/rDock_2013.1_src/data/scripts/dock_solv.prm

>  <Rbt.Receptor>
prm/blind_docking_80.prm

>  <SCORE>
-16.9186

>  <SCORE.INTER>
-20.036

>  <SCORE.INTER.CONST>
1

>  <SCORE.INTER.POLAR>
0

>  <SCORE.INTER.ROT>
7

>  <SCORE.INTER.SOLV>
15.168

>  <SCORE.INTER.VDW>
-26.68

>  <SCORE.INTER.norm>
-0.742074

>  <SCORE.INTRA>
3.11741

>  <SCORE.INTRA.DIHEDRAL>
4.60389

>  <SCORE.INTRA.DIHEDRAL.0>
4.89803

>  <SCORE.INTRA.POLAR>
0

>  <SCORE.INTRA.POLAR.0>
0

>  <SCORE.INTRA.REPUL>
0

>  <SCORE.INTRA.REPUL.0>
0

>  <SCORE.INTRA.SOLV>
0.0376865

>  <SCORE.INTRA.SOLV.lig_0>
-48.5832

>  <SCORE.INTRA.VDW>
0.796619

>  <SCORE.INTRA.VDW.0>
-2.39056

>  <SCORE.INTRA.norm>
0.115459

>  <SCORE.RESTR>
0

>  <SCORE.RESTR.CAVITY>
0

>  <SCORE.RESTR.norm>
0

>  <SCORE.SYSTEM>
0

>  <SCORE.SYSTEM.CONST>
0

>  <SCORE.SYSTEM.DIHEDRAL>
0

>  <SCORE.SYSTEM.SOLV>
0

>  <SCORE.SYSTEM.norm>
0

>  <SCORE.heavy>
27

>  <SCORE.norm>
-0.626614

>  <RMSD>
6.282

$$$$
ligand
 OpenBabel11021811473D
libRbt.so/2013.1/901 2013/11/27
 27 29  0  0  0  0  0  0  0  0999 V2000
    9.8443  -14.0023  -19.3975 N   0  0  0  0  0  0  0  0  0  0  0  0
    8.4729  -13.9889  -18.8674 C   0  0  2  0  0  0  0  0  0  0  0  0
    7.5044  -14.5558  -19.9099 C   0  0  0  0  0  0  0  0  0  0  0  0
    7.8801  -14.5365  -21.1024 O   0  0  0  0  0  0  0  0  0  0  0  0
    8.0814  -12.5451  -18.5483 C   0  0  0  0  0  0  0  0  0  0  0  0
    8.4891  -11.5794  -19.6639 C   0  0  0  0  0  0  0  0  0  0  0  0
   10.4941   -9.9305  -18.5100 C   0  0  0  0  0  0  0  0  0  0  0  0
   10.3316  -11.3369  -19.6937 Se  0  0  2  0  0  0  0  0  0  0  0  0
   10.7638  -10.5210  -21.3073 C   0  0  0  0  0  0  0  0  0  0  0  0
   10.4453  -11.3796  -22.5320 C   0  0  1  0  0  0  0  0  0  0  0  0
   10.9223  -10.6937  -23.7024 O   0  0  0  0  0  0  0  0  0  0  0  0
   11.3098  -12.6376  -22.4410 C   0  0  1  0  0  0  0  0  0  0  0  0
   10.9181  -13.5629  -23.4563 O   0  0  0  0  0  0  0  0  0  0  0  0
   12.6665  -12.0289  -22.7864 C   0  0  1  0  0  0  0  0  0  0  0  0
   13.5313  -13.0664  -23.2520 O   0  0  0  0  0  0  0  0  0  0  0  0
   12.2593  -11.1521  -23.9714 C   0  0  2  0  0  0  0  0  0  0  0  0
    6.4065  -14.9872  -19.4940 O   0  0  0  0  0  0  0  0  0  0  0  0
   15.7005   -7.9651  -21.8160 N   0  0  0  0  0  0  0  0  0  0  0  0
   15.0208   -8.9511  -21.2563 C   0  0  0  0  0  0  0  0  0  0  0  0
   14.1674   -9.6881  -21.9457 N   0  0  0  0  0  0  0  0  0  0  0  0
   13.9656   -9.4564  -23.2517 C   0  0  0  0  0  0  0  0  0  0  0  0
   14.6598   -8.4284  -23.8739 C   0  0  0  0  0  0  0  0  0  0  0  0
   15.5455   -7.6736  -23.1138 C   0  0  0  0  0  0  0  0  0  0  0  0
   16.1997   -6.6561  -23.6651 N   0  0  0  0  0  0  0  0  0  0  0  0
   14.2866   -8.4038  -25.1485 N   0  0  0  0  0  0  0  0  0  0  0  0
   13.3938   -9.3751  -25.3244 C   0  0  0  0  0  0  0  0  0  0  0  0
   13.1935  -10.0201  -24.1750 N   0  0  0  0  0  0  0  0  0  0  0  0
  2  1  1  6  0  0  0
  2  5  1  0  0  0  0
  2  3  1  0  0  0  0
  3 17  1  0  0  0  0
  3  4  1  0  0  0  0
  5  6  1  0  0  0  0
  7  8  1  0  0  0  0
  8  6  1  6  0  0  0
  8  9  1  0  0  0  0
 10  9  1  1  0  0  0
 10 11  1  0  0  0  0
 10 12  1  0  0  0  0
 11 16  1  0  0  0  0
 12 13  1  6  0  0  0
 12 14  1  0  0  0  0
 14 15  1  6  0  0  0
 14 16  1  0  0  0  0
 16 27  1  1  0  0  0
 18 23  2  0  0  0  0
 18 19  1  0  0  0  0
 19 20  2  0  0  0  0
 20 21  1  0  0  0  0
 21 22  2  0  0  0  0
 21 27  1  0  0  0  0
 22 23  1  0  0  0  0
 22 25  1  0  0  0  0
 23 24  1  0  0  0  0
 25 26  2  0  0  0  0
 26 27  1  0  0  0  0
M  END
>  <CHROM.1>
44.43910915,-21.69951455,-71.94289539,-88.35119363,-63.66275695,-175.29269345
94.28667354,11.43340854,-11.19011292,-21.57312475,-3.01251311,-0.76379400
-2.07908329

>  <Name>
ligand

>  <RI>
0

>  <Rbt.Current_Directory>
/home/itssahil/PROJECTS/Mol_Feturizer/New_Systems/rnas/3E5F

>  <Rbt.Executable>
rbdock ($Id: //depot/dev/client3/rdock/2013.1/src/exe/rbdock.cxx#4 $)

>  <Rbt.Library>
libRbt.so (2013.1, Build901 2013/11/27)

>  <Rbt.Parameter_File>
/export/apps/rDock/src/rDock_2013.1_src/data/scripts/dock_solv.prm

>  <Rbt.Receptor>
prm/blind_docking_60.prm

>  <SCORE>
-15.6885

>  <SCORE.INTER>
-17.0255

>  <SCORE.INTER.CONST>
1

>  <SCORE.INTER.POLAR>
0

>  <SCORE.INTER.ROT>
7

>  <SCORE.INTER.SOLV>
20.4683

>  <SCORE.INTER.VDW>
-26.4398

>  <SCORE.INTER.norm>
-0.630574

>  <SCORE.INTRA>
1.33703

>  <SCORE.INTRA.DIHEDRAL>
0.191873

>  <SCORE.INTRA.DIHEDRAL.0>
4.89803

>  <SCORE.INTRA.POLAR>
0

>  <SCORE.INTRA.POLAR.0>
0

>  <SCORE.INTRA.REPUL>
0

>  <SCORE.INTRA.REPUL.0>
0

>  <SCORE.INTRA.SOLV>
3.30523

>  <SCORE.INTRA.SOLV.lig_0>
-48.5832

>  <SCORE.INTRA.VDW>
-0.41152

>  <SCORE.INTRA.VDW.0>
-2.39056

>  <SCORE.INTRA.norm>
0.0495196

>  <SCORE.RESTR>
0

>  <SCORE.RESTR.CAVITY>
0

>  <SCORE.RESTR.norm>
0

>  <SCORE.SYSTEM>
0

>  <SCORE.SYSTEM.CONST>
0

>  <SCORE.SYSTEM.DIHEDRAL>
0

>  <SCORE.SYSTEM.SOLV>
0

>  <SCORE.SYSTEM.norm>
0

>  <SCORE.heavy>
27

>  <SCORE.norm>
-0.581054

>  <RMSD>
6.285

$$$$
ligand
 OpenBabel11021811473D
libRbt.so/2013.1/901 2013/11/27
 27 29  0  0  0  0  0  0  0  0999 V2000
   15.0248   -4.4082  -20.8344 N   0  0  0  0  0  0  0  0  0  0  0  0
   16.3347   -5.0544  -20.6663 C   0  0  2  0  0  0  0  0  0  0  0  0
   17.4297   -4.1866  -21.2941 C   0  0  0  0  0  0  0  0  0  0  0  0
   18.5907   -4.6509  -21.2941 O   0  0  0  0  0  0  0  0  0  0  0  0
   16.3071   -6.4148  -21.3651 C   0  0  0  0  0  0  0  0  0  0  0  0
   15.2825   -7.3627  -20.7366 C   0  0  0  0  0  0  0  0  0  0  0  0
   14.5962   -8.5626  -23.2184 C   0  0  0  0  0  0  0  0  0  0  0  0
   15.3058   -9.0201  -21.5775 Se  0  0  2  0  0  0  0  0  0  0  0  0
   13.9336  -10.0392  -20.8463 C   0  0  0  0  0  0  0  0  0  0  0  0
   13.9768  -11.5108  -21.2599 C   0  0  1  0  0  0  0  0  0  0  0  0
   12.9674  -12.2190  -20.5202 O   0  0  0  0  0  0  0  0  0  0  0  0
   13.5149  -11.5864  -22.7157 C   0  0  1  0  0  0  0  0  0  0  0  0
   13.7149  -12.9100  -23.2140 O   0  0  0  0  0  0  0  0  0  0  0  0
   12.0243  -11.3255  -22.5142 C   0  0  1  0  0  0  0  0  0  0  0  0
   11.3113  -11.8350  -23.6426 O   0  0  0  0  0  0  0  0  0  0  0  0
   11.7658  -12.2339  -21.3114 C   0  0  2  0  0  0  0  0  0  0  0  0
   17.0848   -3.0748  -21.7516 O   0  0  0  0  0  0  0  0  0  0  0  0
    7.7037  -13.6770  -18.4722 N   0  0  0  0  0  0  0  0  0  0  0  0
    8.6209  -14.4335  -19.0502 C   0  0  0  0  0  0  0  0  0  0  0  0
    9.6128  -13.9125  -19.7512 N   0  0  0  0  0  0  0  0  0  0  0  0
    9.7214  -12.5832  -19.8961 C   0  0  0  0  0  0  0  0  0  0  0  0
    8.7762  -11.7565  -19.3052 C   0  0  0  0  0  0  0  0  0  0  0  0
    7.7462  -12.3429  -18.5793 C   0  0  0  0  0  0  0  0  0  0  0  0
    6.8004  -11.5863  -18.0312 N   0  0  0  0  0  0  0  0  0  0  0  0
    9.1015  -10.5015  -19.5941 N   0  0  0  0  0  0  0  0  0  0  0  0
   10.2056  -10.5335  -20.3367 C   0  0  0  0  0  0  0  0  0  0  0  0
   10.5890  -11.7965  -20.5244 N   0  0  0  0  0  0  0  0  0  0  0  0
  2  1  1  6  0  0  0
  2  5  1  0  0  0  0
  2  3  1  0  0  0  0
  3 17  1  0  0  0  0
  3  4  1  0  0  0  0
  5  6  1  0  0  0  0
  7  8  1  0  0  0  0
  8  6  1  1  0  0  0
  8  9  1  0  0  0  0
 10  9  1  1  0  0  0
 10 11  1  0  0  0  0
 10 12  1  0  0  0  0
 11 16  1  0  0  0  0
 12 13  1  1  0  0  0
 12 14  1  0  0  0  0
 14 15  1  6  0  0  0
 14 16  1  0  0  0  0
 16 27  1  1  0  0  0
 18 23  2  0  0  0  0
 18 19  1  0  0  0  0
 19 20  2  0  0  0  0
 20 21  1  0  0  0  0
 21 22  2  0  0  0  0
 21 27  1  0  0  0  0
 22 23  1  0  0  0  0
 22 25  1  0  0  0  0
 23 24  1  0  0  0  0
 25 26  2  0  0  0  0
 26 27  1  0  0  0  0
M  END
>  <CHROM.1>
-63.00750407,-175.97180343,-178.46709327,-69.33220381,-169.86995504,173.63102936
-95.55017524,13.03586659,-9.78065327,-20.99182221,0.57127542,0.54269828,0.43099928

>  <Name>
ligand

>  <RI>
0

>  <Rbt.Current_Directory>
/home/itssahil/PROJECTS/Mol_Feturizer/New_Systems/rnas/3E5F

>  <Rbt.Executable>
rbdock ($Id: //depot/dev/client3/rdock/2013.1/src/exe/rbdock.cxx#4 $)

>  <Rbt.Library>
libRbt.so (2013.1, Build901 2013/11/27)

>  <Rbt.Parameter_File>
/export/apps/rDock/src/rDock_2013.1_src/data/scripts/dock_solv.prm

>  <Rbt.Receptor>
prm/pocket_docking_7.prm

>  <SCORE>
-18.4031

>  <SCORE.INTER>
-19.2566

>  <SCORE.INTER.CONST>
1

>  <SCORE.INTER.POLAR>
0

>  <SCORE.INTER.ROT>
7

>  <SCORE.INTER.SOLV>
7.73799

>  <SCORE.INTER.VDW>
-23.6837

>  <SCORE.INTER.norm>
-0.713208

>  <SCORE.INTRA>
0.853477

>  <SCORE.INTRA.DIHEDRAL>
-1.30088

>  <SCORE.INTRA.DIHEDRAL.0>
4.89803

>  <SCORE.INTRA.POLAR>
0

>  <SCORE.INTRA.POLAR.0>
0

>  <SCORE.INTRA.REPUL>
0

>  <SCORE.INTRA.REPUL.0>
0

>  <SCORE.INTRA.SOLV>
0.669551

>  <SCORE.INTRA.SOLV.lig_0>
-48.5832

>  <SCORE.INTRA.VDW>
1.16914

>  <SCORE.INTRA.VDW.0>
-2.39056

>  <SCORE.INTRA.norm>
0.0316102

>  <SCORE.RESTR>
0

>  <SCORE.RESTR.CAVITY>
0

>  <SCORE.RESTR.norm>
0

>  <SCORE.SYSTEM>
0

>  <SCORE.SYSTEM.CONST>
0

>  <SCORE.SYSTEM.DIHEDRAL>
0

>  <SCORE.SYSTEM.SOLV>
0

>  <SCORE.SYSTEM.norm>
0

>  <SCORE.heavy>
27

>  <SCORE.norm>
-0.681598

>  <RMSD>
6.285

$$$$
ligand
 OpenBabel11021811473D
libRbt.so/2013.1/901 2013/11/27
 27 29  0  0  0  0  0  0  0  0999 V2000
   17.1594   -7.2981  -19.8414 N   0  0  0  0  0  0  0  0  0  0  0  0
   16.4768   -7.0740  -21.1242 C   0  0  2  0  0  0  0  0  0  0  0  0
   16.5141   -5.5852  -21.4827 C   0  0  0  0  0  0  0  0  0  0  0  0
   16.8155   -4.7890  -20.5669 O   0  0  0  0  0  0  0  0  0  0  0  0
   15.0208   -7.5245  -20.9936 C   0  0  0  0  0  0  0  0  0  0  0  0
   14.9023   -9.0406  -20.8176 C   0  0  0  0  0  0  0  0  0  0  0  0
   12.9756   -9.4846  -18.7777 C   0  0  0  0  0  0  0  0  0  0  0  0
   13.1263   -9.5502  -20.6158 Se  0  0  2  0  0  0  0  0  0  0  0  0
   13.0279  -11.3790  -20.9352 C   0  0  0  0  0  0  0  0  0  0  0  0
   13.1252  -11.7478  -22.4161 C   0  0  1  0  0  0  0  0  0  0  0  0
   12.4616  -13.0081  -22.6134 O   0  0  0  0  0  0  0  0  0  0  0  0
   12.2779  -10.7382  -23.1914 C   0  0  1  0  0  0  0  0  0  0  0  0
   12.4824  -10.9174  -24.5937 O   0  0  0  0  0  0  0  0  0  0  0  0
   10.8876  -11.2329  -22.8005 C   0  0  1  0  0  0  0  0  0  0  0  0
    9.9469  -10.7798  -23.7757 O   0  0  0  0  0  0  0  0  0  0  0  0
   11.0943  -12.7385  -22.9711 C   0  0  2  0  0  0  0  0  0  0  0  0
   16.2317   -5.2745  -22.6608 O   0  0  0  0  0  0  0  0  0  0  0  0
    7.9795  -12.8021  -18.8555 N   0  0  0  0  0  0  0  0  0  0  0  0
    8.7191  -11.8093  -19.3192 C   0  0  0  0  0  0  0  0  0  0  0  0
    9.4719  -11.9460  -20.3967 N   0  0  0  0  0  0  0  0  0  0  0  0
    9.5057  -13.1102  -21.0625 C   0  0  0  0  0  0  0  0  0  0  0  0
    8.7439  -14.1762  -20.6048 C   0  0  0  0  0  0  0  0  0  0  0  0
    7.9683  -13.9939  -19.4659 C   0  0  0  0  0  0  0  0  0  0  0  0
    7.2553  -15.0028  -18.9749 N   0  0  0  0  0  0  0  0  0  0  0  0
    8.9504  -15.2005  -21.4249 N   0  0  0  0  0  0  0  0  0  0  0  0
    9.8069  -14.7991  -22.3612 C   0  0  0  0  0  0  0  0  0  0  0  0
   10.1491  -13.5284  -22.1476 N   0  0  0  0  0  0  0  0  0  0  0  0
  2  1  1  1  0  0  0
  2  5  1  0  0  0  0
  2  3  1  0  0  0  0
  3 17  1  0  0  0  0
  3  4  1  0  0  0  0
  5  6  1  0  0  0  0
  7  8  1  0  0  0  0
  8  6  1  1  0  0  0
  8  9  1  0  0  0  0
 10  9  1  1  0  0  0
 10 11  1  0  0  0  0
 10 12  1  0  0  0  0
 11 16  1  0  0  0  0
 12 13  1  6  0  0  0
 12 14  1  0  0  0  0
 14 15  1  6  0  0  0
 14 16  1  0  0  0  0
 16 27  1  1  0  0  0
 18 23  2  0  0  0  0
 18 19  1  0  0  0  0
 19 20  2  0  0  0  0
 20 21  1  0  0  0  0
 21 22  2  0  0  0  0
 21 27  1  0  0  0  0
 22 23  1  0  0  0  0
 22 25  1  0  0  0  0
 23 24  1  0  0  0  0
 25 26  2  0  0  0  0
 26 27  1  0  0  0  0
M  END
>  <CHROM.1>
-67.45976765,-15.23706272,178.45941103,-91.40038867,-75.37759926,-154.35913325
97.45836132,12.21680578,-10.62433652,-21.22006390,0.21269677,0.76539860,1.23358621

>  <Name>
ligand

>  <RI>
0

>  <Rbt.Current_Directory>
/home/itssahil/PROJECTS/Mol_Feturizer/New_Systems/rnas/3E5F

>  <Rbt.Executable>
rbdock ($Id: //depot/dev/client3/rdock/2013.1/src/exe/rbdock.cxx#4 $)

>  <Rbt.Library>
libRbt.so (2013.1, Build901 2013/11/27)

>  <Rbt.Parameter_File>
/export/apps/rDock/src/rDock_2013.1_src/data/scripts/dock_solv.prm

>  <Rbt.Receptor>
prm/blind_docking_40.prm

>  <SCORE>
-12.0965

>  <SCORE.INTER>
-12.8371

>  <SCORE.INTER.CONST>
1

>  <SCORE.INTER.POLAR>
0

>  <SCORE.INTER.ROT>
7

>  <SCORE.INTER.SOLV>
13.926

>  <SCORE.INTER.VDW>
-21.4667

>  <SCORE.INTER.norm>
-0.475446

>  <SCORE.INTRA>
0.740531

>  <SCORE.INTRA.DIHEDRAL>
1.10746

>  <SCORE.INTRA.DIHEDRAL.0>
4.89803

>  <SCORE.INTRA.POLAR>
0

>  <SCORE.INTRA.POLAR.0>
0

>  <SCORE.INTRA.REPUL>
0

>  <SCORE.INTRA.REPUL.0>
0

>  <SCORE.INTRA.SOLV>
0.661715

>  <SCORE.INTRA.SOLV.lig_0>
-48.5832

>  <SCORE.INTRA.VDW>
-0.144059

>  <SCORE.INTRA.VDW.0>
-2.39056

>  <SCORE.INTRA.norm>
0.0274271

>  <SCORE.RESTR>
0

>  <SCORE.RESTR.CAVITY>
0

>  <SCORE.RESTR.norm>
0

>  <SCORE.SYSTEM>
0

>  <SCORE.SYSTEM.CONST>
0

>  <SCORE.SYSTEM.DIHEDRAL>
0

>  <SCORE.SYSTEM.SOLV>
0

>  <SCORE.SYSTEM.norm>
0

>  <SCORE.heavy>
27

>  <SCORE.norm>
-0.448019

>  <RMSD>
6.289

$$$$
ligand
 OpenBabel11021811473D
libRbt.so/2013.1/901 2013/11/27
 27 29  0  0  0  0  0  0  0  0999 V2000
    5.3037  -12.1405  -17.3722 N   0  0  0  0  0  0  0  0  0  0  0  0
    6.6888  -11.7333  -17.6502 C   0  0  2  0  0  0  0  0  0  0  0  0
    6.8701  -10.2461  -17.3314 C   0  0  0  0  0  0  0  0  0  0  0  0
    8.0132   -9.8757  -16.9856 O   0  0  0  0  0  0  0  0  0  0  0  0
    6.9849  -11.9707  -19.1321 C   0  0  0  0  0  0  0  0  0  0  0  0
    8.3466  -11.4053  -19.5436 C   0  0  0  0  0  0  0  0  0  0  0  0
   10.1111  -13.5307  -20.2066 C   0  0  0  0  0  0  0  0  0  0  0  0
    9.0151  -12.2962  -21.0315 Se  0  0  2  0  0  0  0  0  0  0  0  0
   10.2566  -11.1766  -21.8447 C   0  0  0  0  0  0  0  0  0  0  0  0
   10.4624  -11.4684  -23.3317 C   0  0  1  0  0  0  0  0  0  0  0  0
   11.3075  -10.4433  -23.8816 O   0  0  0  0  0  0  0  0  0  0  0  0
   11.2917  -12.7492  -23.4318 C   0  0  1  0  0  0  0  0  0  0  0  0
   11.3547  -13.1742  -24.7940 O   0  0  0  0  0  0  0  0  0  0  0  0
   12.6470  -12.1991  -22.9946 C   0  0  1  0  0  0  0  0  0  0  0  0
   13.6737  -13.0661  -23.4796 O   0  0  0  0  0  0  0  0  0  0  0  0
   12.6692  -10.9013  -23.8031 C   0  0  2  0  0  0  0  0  0  0  0  0
    5.8609   -9.5139  -17.4307 O   0  0  0  0  0  0  0  0  0  0  0  0
   16.0259   -7.0677  -24.6280 N   0  0  0  0  0  0  0  0  0  0  0  0
   15.3743   -7.8026  -25.5127 C   0  0  0  0  0  0  0  0  0  0  0  0
   14.5376   -8.7571  -25.1444 N   0  0  0  0  0  0  0  0  0  0  0  0
   14.3194   -9.0093  -23.8449 C   0  0  0  0  0  0  0  0  0  0  0  0
   14.9868   -8.2595  -22.8866 C   0  0  0  0  0  0  0  0  0  0  0  0
   15.8614   -7.2674  -23.3141 C   0  0  0  0  0  0  0  0  0  0  0  0
   16.5479   -6.5544  -22.4266 N   0  0  0  0  0  0  0  0  0  0  0  0
   14.6048   -8.6993  -21.6928 N   0  0  0  0  0  0  0  0  0  0  0  0
   13.7331   -9.6859  -21.8883 C   0  0  0  0  0  0  0  0  0  0  0  0
   13.5540   -9.8801  -23.1951 N   0  0  0  0  0  0  0  0  0  0  0  0
  2  1  1  6  0  0  0
  2  5  1  0  0  0  0
  2  3  1  0  0  0  0
  3 17  1  0  0  0  0
  3  4  1  0  0  0  0
  5  6  1  0  0  0  0
  7  8  1  0  0  0  0
  8  6  1  1  0  0  0
  8  9  1  0  0  0  0
 10  9  1  1  0  0  0
 10 11  1  0  0  0  0
 10 12  1  0  0  0  0
 11 16  1  0  0  0  0
 12 13  1  6  0  0  0
 12 14  1  0  0  0  0
 14 15  1  6  0  0  0
 14 16  1  0  0  0  0
 16 27  1  1  0  0  0
 18 23  2  0  0  0  0
 18 19  1  0  0  0  0
 19 20  2  0  0  0  0
 20 21  1  0  0  0  0
 21 22  2  0  0  0  0
 21 27  1  0  0  0  0
 22 23  1  0  0  0  0
 22 25  1  0  0  0  0
 23 24  1  0  0  0  0
 25 26  2  0  0  0  0
 26 27  1  0  0  0  0
M  END
>  <CHROM.1>
172.63273237,151.51029826,155.12331895,-96.11661400,-155.89840505,172.90438800
-96.97839874,11.04388877,-10.74040881,-21.65336763,-3.02692241,-0.65107937
-2.46319901

>  <Name>
ligand

>  <RI>
0

>  <Rbt.Current_Directory>
/home/itssahil/PROJECTS/Mol_Feturizer/New_Systems/rnas/3E5F

>  <Rbt.Executable>
rbdock ($Id: //depot/dev/client3/rdock/2013.1/src/exe/rbdock.cxx#4 $)

>  <Rbt.Library>
libRbt.so (2013.1, Build901 2013/11/27)

>  <Rbt.Parameter_File>
/export/apps/rDock/src/rDock_2013.1_src/data/scripts/dock_solv.prm

>  <Rbt.Receptor>
prm/blind_docking_60.prm

>  <SCORE>
-17.2903

>  <SCORE.INTER>
-19.5372

>  <SCORE.INTER.CONST>
1

>  <SCORE.INTER.POLAR>
0

>  <SCORE.INTER.ROT>
7

>  <SCORE.INTER.SOLV>
14.158

>  <SCORE.INTER.VDW>
-26.0108

>  <SCORE.INTER.norm>
-0.723601

>  <SCORE.INTRA>
2.19914

>  <SCORE.INTRA.DIHEDRAL>
2.76458

>  <SCORE.INTRA.DIHEDRAL.0>
4.89803

>  <SCORE.INTRA.POLAR>
0

>  <SCORE.INTRA.POLAR.0>
0

>  <SCORE.INTRA.REPUL>
0

>  <SCORE.INTRA.REPUL.0>
0

>  <SCORE.INTRA.SOLV>
-0.0673944

>  <SCORE.INTRA.SOLV.lig_0>
-48.5832

>  <SCORE.INTRA.VDW>
0.850546

>  <SCORE.INTRA.VDW.0>
-2.39056

>  <SCORE.INTRA.norm>
0.0814496

>  <SCORE.RESTR>
0.0477312

>  <SCORE.RESTR.CAVITY>
0.0477312

>  <SCORE.RESTR.norm>
0.00176782

>  <SCORE.SYSTEM>
0

>  <SCORE.SYSTEM.CONST>
0

>  <SCORE.SYSTEM.DIHEDRAL>
0

>  <SCORE.SYSTEM.SOLV>
0

>  <SCORE.SYSTEM.norm>
0

>  <SCORE.heavy>
27

>  <SCORE.norm>
-0.640383

>  <RMSD>
6.298

$$$$
ligand
 OpenBabel11021811473D
libRbt.so/2013.1/901 2013/11/27
 27 29  0  0  0  0  0  0  0  0999 V2000
   16.1559   -7.2143  -24.3452 N   0  0  0  0  0  0  0  0  0  0  0  0
   15.4235   -6.8825  -23.1142 C   0  0  2  0  0  0  0  0  0  0  0  0
   16.0504   -5.6536  -22.4486 C   0  0  0  0  0  0  0  0  0  0  0  0
   15.3139   -4.6551  -22.2938 O   0  0  0  0  0  0  0  0  0  0  0  0
   15.5054   -8.0717  -22.1556 C   0  0  0  0  0  0  0  0  0  0  0  0
   14.6782   -7.8453  -20.8876 C   0  0  0  0  0  0  0  0  0  0  0  0
   12.2341   -6.7460  -19.9453 C   0  0  0  0  0  0  0  0  0  0  0  0
   12.8588   -7.8733  -21.2661 Se  0  0  2  0  0  0  0  0  0  0  0  0
   12.1940   -9.5156  -20.7030 C   0  0  0  0  0  0  0  0  0  0  0  0
   12.7984  -10.7078  -21.4458 C   0  0  1  0  0  0  0  0  0  0  0  0
   12.3637  -11.9143  -20.7953 O   0  0  0  0  0  0  0  0  0  0  0  0
   12.1480  -10.7574  -22.8288 C   0  0  1  0  0  0  0  0  0  0  0  0
   12.8090  -11.7341  -23.6347 O   0  0  0  0  0  0  0  0  0  0  0  0
   10.7629  -11.2614  -22.4309 C   0  0  1  0  0  0  0  0  0  0  0  0
   10.1448  -11.8579  -23.5726 O   0  0  0  0  0  0  0  0  0  0  0  0
   11.1639  -12.3639  -21.4499 C   0  0  2  0  0  0  0  0  0  0  0  0
   17.2538   -5.7353  -22.1178 O   0  0  0  0  0  0  0  0  0  0  0  0
    7.8086  -10.4561  -18.0226 N   0  0  0  0  0  0  0  0  0  0  0  0
    8.6791   -9.8088  -18.7781 C   0  0  0  0  0  0  0  0  0  0  0  0
    9.4788  -10.4423  -19.6183 N   0  0  0  0  0  0  0  0  0  0  0  0
    9.4278  -11.7780  -19.7332 C   0  0  0  0  0  0  0  0  0  0  0  0
    8.5278  -12.4923  -18.9550 C   0  0  0  0  0  0  0  0  0  0  0  0
    7.7066  -11.7901  -18.0807 C   0  0  0  0  0  0  0  0  0  0  0  0
    6.8590  -12.4423  -17.2911 N   0  0  0  0  0  0  0  0  0  0  0  0
    8.6730  -13.7793  -19.2498 N   0  0  0  0  0  0  0  0  0  0  0  0
    9.6250  -13.8745  -20.1751 C   0  0  0  0  0  0  0  0  0  0  0  0
   10.0889  -12.6610  -20.4745 N   0  0  0  0  0  0  0  0  0  0  0  0
  2  1  1  6  0  0  0
  2  5  1  0  0  0  0
  2  3  1  0  0  0  0
  3 17  1  0  0  0  0
  3  4  1  0  0  0  0
  5  6  1  0  0  0  0
  7  8  1  0  0  0  0
  8  6  1  1  0  0  0
  8  9  1  0  0  0  0
 10  9  1  1  0  0  0
 10 11  1  0  0  0  0
 10 12  1  0  0  0  0
 11 16  1  0  0  0  0
 12 13  1  6  0  0  0
 12 14  1  0  0  0  0
 14 15  1  6  0  0  0
 14 16  1  0  0  0  0
 16 27  1  1  0  0  0
 18 23  2  0  0  0  0
 18 19  1  0  0  0  0
 19 20  2  0  0  0  0
 20 21  1  0  0  0  0
 21 22  2  0  0  0  0
 21 27  1  0  0  0  0
 22 23  1  0  0  0  0
 22 25  1  0  0  0  0
 23 24  1  0  0  0  0
 25 26  2  0  0  0  0
 26 27  1  0  0  0  0
M  END
>  <CHROM.1>
-175.78160258,120.29367070,69.52999522,-150.88790515,-62.97441500,171.52148194
69.17718765,11.98108215,-9.63851101,-21.05444121,-0.34720428,-0.70445318
-2.56815443

>  <Name>
ligand

>  <RI>
0

>  <Rbt.Current_Directory>
/home/itssahil/PROJECTS/Mol_Feturizer/New_Systems/rnas/3E5F

>  <Rbt.Executable>
rbdock ($Id: //depot/dev/client3/rdock/2013.1/src/exe/rbdock.cxx#4 $)

>  <Rbt.Library>
libRbt.so (2013.1, Build901 2013/11/27)

>  <Rbt.Parameter_File>
/export/apps/rDock/src/rDock_2013.1_src/data/scripts/dock_solv.prm

>  <Rbt.Receptor>
prm/blind_docking_100.prm

>  <SCORE>
-13.3414

>  <SCORE.INTER>
-12.6971

>  <SCORE.INTER.CONST>
1

>  <SCORE.INTER.POLAR>
0

>  <SCORE.INTER.ROT>
7

>  <SCORE.INTER.SOLV>
13.6812

>  <SCORE.INTER.VDW>
-21.2918

>  <SCORE.INTER.norm>
-0.470263

>  <SCORE.INTRA>
-0.644308

>  <SCORE.INTRA.DIHEDRAL>
0.183217

>  <SCORE.INTRA.DIHEDRAL.0>
4.89803

>  <SCORE.INTRA.POLAR>
0

>  <SCORE.INTRA.POLAR.0>
0

>  <SCORE.INTRA.REPUL>
0

>  <SCORE.INTRA.REPUL.0>
0

>  <SCORE.INTRA.SOLV>
-0.0212936

>  <SCORE.INTRA.SOLV.lig_0>
-48.5832

>  <SCORE.INTRA.VDW>
-0.725269

>  <SCORE.INTRA.VDW.0>
-2.39056

>  <SCORE.INTRA.norm>
-0.0238632

>  <SCORE.RESTR>
0

>  <SCORE.RESTR.CAVITY>
0

>  <SCORE.RESTR.norm>
0

>  <SCORE.SYSTEM>
0

>  <SCORE.SYSTEM.CONST>
0

>  <SCORE.SYSTEM.DIHEDRAL>
0

>  <SCORE.SYSTEM.SOLV>
0

>  <SCORE.SYSTEM.norm>
0

>  <SCORE.heavy>
27

>  <SCORE.norm>
-0.494126

>  <RMSD>
6.299

$$$$
ligand
 OpenBabel11021811473D
libRbt.so/2013.1/901 2013/11/27
 27 29  0  0  0  0  0  0  0  0999 V2000
   14.2284   -5.7170  -18.4882 N   0  0  0  0  0  0  0  0  0  0  0  0
   14.1729   -5.5089  -19.9426 C   0  0  2  0  0  0  0  0  0  0  0  0
   12.9223   -4.7033  -20.3077 C   0  0  0  0  0  0  0  0  0  0  0  0
   11.8325   -5.1090  -19.8481 O   0  0  0  0  0  0  0  0  0  0  0  0
   14.1141   -6.8720  -20.6342 C   0  0  0  0  0  0  0  0  0  0  0  0
   15.4535   -7.6100  -20.5641 C   0  0  0  0  0  0  0  0  0  0  0  0
   14.7244   -8.6089  -23.1216 C   0  0  0  0  0  0  0  0  0  0  0  0
   15.3812   -9.2109  -21.5056 Se  0  0  2  0  0  0  0  0  0  0  0  0
   13.9366  -10.1813  -20.8516 C   0  0  0  0  0  0  0  0  0  0  0  0
   13.9269  -11.6428  -21.3016 C   0  0  1  0  0  0  0  0  0  0  0  0
   12.8935  -12.3327  -20.5779 O   0  0  0  0  0  0  0  0  0  0  0  0
   13.4613  -11.6657  -22.7580 C   0  0  1  0  0  0  0  0  0  0  0  0
   13.6135  -12.9828  -23.2893 O   0  0  0  0  0  0  0  0  0  0  0  0
   11.9811  -11.3568  -22.5474 C   0  0  1  0  0  0  0  0  0  0  0  0
   11.2494  -11.8124  -23.6869 O   0  0  0  0  0  0  0  0  0  0  0  0
   11.6915  -12.2850  -21.3671 C   0  0  2  0  0  0  0  0  0  0  0  0
   13.0811   -3.7059  -21.0454 O   0  0  0  0  0  0  0  0  0  0  0  0
    7.6502  -13.6508  -18.4606 N   0  0  0  0  0  0  0  0  0  0  0  0
    8.5490  -14.4240  -19.0452 C   0  0  0  0  0  0  0  0  0  0  0  0
    9.5379  -13.9220  -19.7640 N   0  0  0  0  0  0  0  0  0  0  0  0
    9.6625  -12.5955  -19.9209 C   0  0  0  0  0  0  0  0  0  0  0  0
    8.7368  -11.7515  -19.3236 C   0  0  0  0  0  0  0  0  0  0  0  0
    7.7091  -12.3181  -18.5789 C   0  0  0  0  0  0  0  0  0  0  0  0
    6.7814  -11.5445  -18.0238 N   0  0  0  0  0  0  0  0  0  0  0  0
    9.0749  -10.5033  -19.6270 N   0  0  0  0  0  0  0  0  0  0  0  0
   10.1680  -10.5561  -20.3845 C   0  0  0  0  0  0  0  0  0  0  0  0
   10.5317  -11.8256  -20.5674 N   0  0  0  0  0  0  0  0  0  0  0  0
  2  1  1  1  0  0  0
  2  5  1  0  0  0  0
  2  3  1  0  0  0  0
  3 17  1  0  0  0  0
  3  4  1  0  0  0  0
  5  6  1  0  0  0  0
  7  8  1  0  0  0  0
  8  6  1  1  0  0  0
  8  9  1  0  0  0  0
 10  9  1  1  0  0  0
 10 11  1  0  0  0  0
 10 12  1  0  0  0  0
 11 16  1  0  0  0  0
 12 13  1  1  0  0  0
 12 14  1  0  0  0  0
 14 15  1  6  0  0  0
 14 16  1  0  0  0  0
 16 27  1  1  0  0  0
 18 23  2  0  0  0  0
 18 19  1  0  0  0  0
 19 20  2  0  0  0  0
 20 21  1  0  0  0  0
 21 22  2  0  0  0  0
 21 27  1  0  0  0  0
 22 23  1  0  0  0  0
 22 25  1  0  0  0  0
 23 24  1  0  0  0  0
 25 26  2  0  0  0  0
 26 27  1  0  0  0  0
M  END
>  <CHROM.1>
-72.24698034,-50.65254614,-176.35147534,51.51809082,-167.12886762,171.34429091
-93.17624631,12.35226667,-9.96709727,-20.76037836,0.70587504,0.49301859,0.30190081

>  <Name>
ligand

>  <RI>
0

>  <Rbt.Current_Directory>
/home/itssahil/PROJECTS/Mol_Feturizer/New_Systems/rnas/3E5F

>  <Rbt.Executable>
rbdock ($Id: //depot/dev/client3/rdock/2013.1/src/exe/rbdock.cxx#4 $)

>  <Rbt.Library>
libRbt.so (2013.1, Build901 2013/11/27)

>  <Rbt.Parameter_File>
/export/apps/rDock/src/rDock_2013.1_src/data/scripts/dock_solv.prm

>  <Rbt.Receptor>
prm/blind_docking_40.prm

>  <SCORE>
-17.24

>  <SCORE.INTER>
-18.542

>  <SCORE.INTER.CONST>
1

>  <SCORE.INTER.POLAR>
0

>  <SCORE.INTER.ROT>
7

>  <SCORE.INTER.SOLV>
6.39001

>  <SCORE.INTER.VDW>
-22.758

>  <SCORE.INTER.norm>
-0.686739

>  <SCORE.INTRA>
1.30197

>  <SCORE.INTRA.DIHEDRAL>
-0.47733

>  <SCORE.INTRA.DIHEDRAL.0>
4.89803

>  <SCORE.INTRA.POLAR>
0

>  <SCORE.INTRA.POLAR.0>
0

>  <SCORE.INTRA.REPUL>
0

>  <SCORE.INTRA.REPUL.0>
0

>  <SCORE.INTRA.SOLV>
0.550502

>  <SCORE.INTRA.SOLV.lig_0>
-48.5832

>  <SCORE.INTRA.VDW>
1.26538

>  <SCORE.INTRA.VDW.0>
-2.39056

>  <SCORE.INTRA.norm>
0.048221

>  <SCORE.RESTR>
0

>  <SCORE.RESTR.CAVITY>
0

>  <SCORE.RESTR.norm>
0

>  <SCORE.SYSTEM>
0

>  <SCORE.SYSTEM.CONST>
0

>  <SCORE.SYSTEM.DIHEDRAL>
0

>  <SCORE.SYSTEM.SOLV>
0

>  <SCORE.SYSTEM.norm>
0

>  <SCORE.heavy>
27

>  <SCORE.norm>
-0.638518

>  <RMSD>
6.299

$$$$
ligand
 OpenBabel11021811473D
libRbt.so/2013.1/901 2013/11/27
 27 29  0  0  0  0  0  0  0  0999 V2000
    6.5736  -11.2543  -18.3631 N   0  0  0  0  0  0  0  0  0  0  0  0
    7.1251  -12.0793  -19.4481 C   0  0  2  0  0  0  0  0  0  0  0  0
    6.5353  -13.4913  -19.3821 C   0  0  0  0  0  0  0  0  0  0  0  0
    6.2987  -13.9543  -18.2449 O   0  0  0  0  0  0  0  0  0  0  0  0
    8.6438  -12.1593  -19.2838 C   0  0  0  0  0  0  0  0  0  0  0  0
    9.3152  -10.7975  -19.4794 C   0  0  0  0  0  0  0  0  0  0  0  0
   11.6522   -9.1832  -19.5327 C   0  0  0  0  0  0  0  0  0  0  0  0
   11.1110  -10.8667  -19.0051 Se  0  0  2  0  0  0  0  0  0  0  0  0
   11.9777  -11.9456  -20.2465 C   0  0  0  0  0  0  0  0  0  0  0  0
   11.4264  -11.8095  -21.6664 C   0  0  1  0  0  0  0  0  0  0  0  0
   11.7855  -10.5110  -22.1690 O   0  0  0  0  0  0  0  0  0  0  0  0
   12.1969  -12.7929  -22.5481 C   0  0  1  0  0  0  0  0  0  0  0  0
   11.5977  -12.8462  -23.8437 O   0  0  0  0  0  0  0  0  0  0  0  0
   13.5342  -12.0602  -22.6226 C   0  0  1  0  0  0  0  0  0  0  0  0
   14.2438  -12.5139  -23.7766 O   0  0  0  0  0  0  0  0  0  0  0  0
   13.0328  -10.6376  -22.8747 C   0  0  2  0  0  0  0  0  0  0  0  0
    6.3426  -14.0808  -20.4683 O   0  0  0  0  0  0  0  0  0  0  0  0
   16.0400   -6.6810  -24.2699 N   0  0  0  0  0  0  0  0  0  0  0  0
   15.2190   -7.4004  -25.0155 C   0  0  0  0  0  0  0  0  0  0  0  0
   14.5063   -8.3917  -24.5093 N   0  0  0  0  0  0  0  0  0  0  0  0
   14.5936   -8.6989  -23.2063 C   0  0  0  0  0  0  0  0  0  0  0  0
   15.4463   -7.9670  -22.3920 C   0  0  0  0  0  0  0  0  0  0  0  0
   16.1817   -6.9348  -22.9627 C   0  0  0  0  0  0  0  0  0  0  0  0
   17.0378   -6.2364  -22.2233 N   0  0  0  0  0  0  0  0  0  0  0  0
   15.3537   -8.4623  -21.1630 N   0  0  0  0  0  0  0  0  0  0  0  0
   14.4796   -9.4654  -21.1990 C   0  0  0  0  0  0  0  0  0  0  0  0
   14.0126   -9.6152  -22.4387 N   0  0  0  0  0  0  0  0  0  0  0  0
  2  1  1  1  0  0  0
  2  5  1  0  0  0  0
  2  3  1  0  0  0  0
  3 17  1  0  0  0  0
  3  4  1  0  0  0  0
  5  6  1  0  0  0  0
  7  8  1  0  0  0  0
  8  6  1  6  0  0  0
  8  9  1  0  0  0  0
 10  9  1  1  0  0  0
 10 11  1  0  0  0  0
 10 12  1  0  0  0  0
 11 16  1  0  0  0  0
 12 13  1  6  0  0  0
 12 14  1  0  0  0  0
 14 15  1  6  0  0  0
 14 16  1  0  0  0  0
 16 27  1  1  0  0  0
 18 23  2  0  0  0  0
 18 19  1  0  0  0  0
 19 20  2  0  0  0  0
 20 21  1  0  0  0  0
 21 22  2  0  0  0  0
 21 27  1  0  0  0  0
 22 23  1  0  0  0  0
 22 25  1  0  0  0  0
 23 24  1  0  0  0  0
 25 26  2  0  0  0  0
 26 27  1  0  0  0  0
M  END
>  <CHROM.1>
-65.68090026,-34.69721616,170.76282956,173.69687166,35.72582213,69.80244682
-120.79326100,11.85333729,-10.60799258,-21.16057278,-3.10548531,-0.66680121
-2.24555332

>  <Name>
ligand

>  <RI>
0

>  <Rbt.Current_Directory>
/home/itssahil/PROJECTS/Mol_Feturizer/New_Systems/rnas/3E5F

>  <Rbt.Executable>
rbdock ($Id: //depot/dev/client3/rdock/2013.1/src/exe/rbdock.cxx#4 $)

>  <Rbt.Library>
libRbt.so (2013.1, Build901 2013/11/27)

>  <Rbt.Parameter_File>
/export/apps/rDock/src/rDock_2013.1_src/data/scripts/dock_solv.prm

>  <Rbt.Receptor>
prm/blind_docking_40.prm

>  <SCORE>
-18.2271

>  <SCORE.INTER>
-18.2522

>  <SCORE.INTER.CONST>
1

>  <SCORE.INTER.POLAR>
0

>  <SCORE.INTER.ROT>
7

>  <SCORE.INTER.SOLV>
11.9857

>  <SCORE.INTER.VDW>
-24.43

>  <SCORE.INTER.norm>
-0.676006

>  <SCORE.INTRA>
0.0250293

>  <SCORE.INTRA.DIHEDRAL>
-0.777091

>  <SCORE.INTRA.DIHEDRAL.0>
4.89803

>  <SCORE.INTRA.POLAR>
0

>  <SCORE.INTRA.POLAR.0>
0

>  <SCORE.INTRA.REPUL>
0

>  <SCORE.INTRA.REPUL.0>
0

>  <SCORE.INTRA.SOLV>
0.77385

>  <SCORE.INTRA.SOLV.lig_0>
-48.5832

>  <SCORE.INTRA.VDW>
0.0266499

>  <SCORE.INTRA.VDW.0>
-2.39056

>  <SCORE.INTRA.norm>
0.000927012

>  <SCORE.RESTR>
0

>  <SCORE.RESTR.CAVITY>
0

>  <SCORE.RESTR.norm>
0

>  <SCORE.SYSTEM>
0

>  <SCORE.SYSTEM.CONST>
0

>  <SCORE.SYSTEM.DIHEDRAL>
0

>  <SCORE.SYSTEM.SOLV>
0

>  <SCORE.SYSTEM.norm>
0

>  <SCORE.heavy>
27

>  <SCORE.norm>
-0.675079

>  <RMSD>
6.315

$$$$
ligand
 OpenBabel11021811473D
libRbt.so/2013.1/901 2013/11/27
 27 29  0  0  0  0  0  0  0  0999 V2000
   17.6270   -6.5446  -18.7336 N   0  0  0  0  0  0  0  0  0  0  0  0
   17.9421   -6.9484  -20.1117 C   0  0  2  0  0  0  0  0  0  0  0  0
   18.5741   -5.7760  -20.8681 C   0  0  0  0  0  0  0  0  0  0  0  0
   19.4587   -6.0535  -21.7072 O   0  0  0  0  0  0  0  0  0  0  0  0
   16.6469   -7.3613  -20.8132 C   0  0  0  0  0  0  0  0  0  0  0  0
   15.9175   -8.4779  -20.0619 C   0  0  0  0  0  0  0  0  0  0  0  0
   13.4171   -7.2203  -20.5486 C   0  0  0  0  0  0  0  0  0  0  0  0
   14.2661   -8.8332  -20.8373 Se  0  0  2  0  0  0  0  0  0  0  0  0
   13.3362   -9.9580  -19.6857 C   0  0  0  0  0  0  0  0  0  0  0  0
   13.5693  -11.4441  -19.9610 C   0  0  1  0  0  0  0  0  0  0  0  0
   12.4424  -12.1805  -19.4555 O   0  0  0  0  0  0  0  0  0  0  0  0
   13.5112  -11.6391  -21.4765 C   0  0  1  0  0  0  0  0  0  0  0  0
   13.9092  -12.9712  -21.8041 O   0  0  0  0  0  0  0  0  0  0  0  0
   12.0078  -11.4780  -21.6874 C   0  0  1  0  0  0  0  0  0  0  0  0
   11.6463  -12.1043  -22.9196 O   0  0  0  0  0  0  0  0  0  0  0  0
   11.4938  -12.3309  -20.5268 C   0  0  2  0  0  0  0  0  0  0  0  0
   18.1667   -4.6279  -20.5848 O   0  0  0  0  0  0  0  0  0  0  0  0
    6.9461  -13.8891  -18.6467 N   0  0  0  0  0  0  0  0  0  0  0  0
    8.0284  -14.6058  -18.8968 C   0  0  0  0  0  0  0  0  0  0  0  0
    9.1296  -14.0587  -19.3810 N   0  0  0  0  0  0  0  0  0  0  0  0
    9.1836  -12.7421  -19.6332 C   0  0  0  0  0  0  0  0  0  0  0  0
    8.0664  -11.9571  -19.3849 C   0  0  0  0  0  0  0  0  0  0  0  0
    6.9263  -12.5705  -18.8793 C   0  0  0  0  0  0  0  0  0  0  0  0
    5.8241  -11.8587  -18.6651 N   0  0  0  0  0  0  0  0  0  0  0  0
    8.3711  -10.7069  -19.7144 N   0  0  0  0  0  0  0  0  0  0  0  0
    9.6277  -10.7019  -20.1529 C   0  0  0  0  0  0  0  0  0  0  0  0
   10.1289  -11.9364  -20.1061 N   0  0  0  0  0  0  0  0  0  0  0  0
  2  1  1  1  0  0  0
  2  5  1  0  0  0  0
  2  3  1  0  0  0  0
  3 17  1  0  0  0  0
  3  4  1  0  0  0  0
  5  6  1  0  0  0  0
  7  8  1  0  0  0  0
  8  6  1  1  0  0  0
  8  9  1  0  0  0  0
 10  9  1  6  0  0  0
 10 11  1  0  0  0  0
 10 12  1  0  0  0  0
 11 16  1  0  0  0  0
 12 13  1  1  0  0  0
 12 14  1  0  0  0  0
 14 15  1  6  0  0  0
 14 16  1  0  0  0  0
 16 27  1  1  0  0  0
 18 23  2  0  0  0  0
 18 19  1  0  0  0  0
 19 20  2  0  0  0  0
 20 21  1  0  0  0  0
 21 22  2  0  0  0  0
 21 27  1  0  0  0  0
 22 23  1  0  0  0  0
 22 25  1  0  0  0  0
 23 24  1  0  0  0  0
 25 26  2  0  0  0  0
 26 27  1  0  0  0  0
M  END
>  <CHROM.1>
-56.61328222,145.07285917,174.05404249,-63.87885817,-90.30830171,-155.83554865
-93.70737647,12.83491005,-10.11534081,-20.32461620,0.50320317,0.34978090
0.36923762

>  <Name>
ligand

>  <RI>
0

>  <Rbt.Current_Directory>
/home/itssahil/PROJECTS/Mol_Feturizer/New_Systems/rnas/3E5F

>  <Rbt.Executable>
rbdock ($Id: //depot/dev/client3/rdock/2013.1/src/exe/rbdock.cxx#4 $)

>  <Rbt.Library>
libRbt.so (2013.1, Build901 2013/11/27)

>  <Rbt.Parameter_File>
/export/apps/rDock/src/rDock_2013.1_src/data/scripts/dock_solv.prm

>  <Rbt.Receptor>
prm/blind_docking_100.prm

>  <SCORE>
-14.9451

>  <SCORE.INTER>
-16.2734

>  <SCORE.INTER.CONST>
1

>  <SCORE.INTER.POLAR>
0

>  <SCORE.INTER.ROT>
7

>  <SCORE.INTER.SOLV>
7.7309

>  <SCORE.INTER.VDW>
-21.6925

>  <SCORE.INTER.norm>
-0.602717

>  <SCORE.INTRA>
1.32822

>  <SCORE.INTRA.DIHEDRAL>
0.78134

>  <SCORE.INTRA.DIHEDRAL.0>
4.89803

>  <SCORE.INTRA.POLAR>
0

>  <SCORE.INTRA.POLAR.0>
0

>  <SCORE.INTRA.REPUL>
0

>  <SCORE.INTRA.REPUL.0>
0

>  <SCORE.INTRA.SOLV>
0.797699

>  <SCORE.INTRA.SOLV.lig_0>
-48.5832

>  <SCORE.INTRA.VDW>
0.538697

>  <SCORE.INTRA.VDW.0>
-2.39056

>  <SCORE.INTRA.norm>
0.0491932

>  <SCORE.RESTR>
0

>  <SCORE.RESTR.CAVITY>
0

>  <SCORE.RESTR.norm>
0

>  <SCORE.SYSTEM>
0

>  <SCORE.SYSTEM.CONST>
0

>  <SCORE.SYSTEM.DIHEDRAL>
0

>  <SCORE.SYSTEM.SOLV>
0

>  <SCORE.SYSTEM.norm>
0

>  <SCORE.heavy>
27

>  <SCORE.norm>
-0.553524

>  <RMSD>
6.318

$$$$
ligand
 OpenBabel11021811473D
libRbt.so/2013.1/901 2013/11/27
 27 29  0  0  0  0  0  0  0  0999 V2000
   13.0566   -5.1104  -19.1222 N   0  0  0  0  0  0  0  0  0  0  0  0
   12.0668   -6.0089  -19.7344 C   0  0  2  0  0  0  0  0  0  0  0  0
   11.0479   -6.4581  -18.6825 C   0  0  0  0  0  0  0  0  0  0  0  0
   11.1926   -6.0082  -17.5248 O   0  0  0  0  0  0  0  0  0  0  0  0
   12.7916   -7.2360  -20.2901 C   0  0  0  0  0  0  0  0  0  0  0  0
   13.5005   -8.0312  -19.1908 C   0  0  0  0  0  0  0  0  0  0  0  0
   15.9596   -8.4025  -20.5639 C   0  0  0  0  0  0  0  0  0  0  0  0
   14.5407   -9.3894  -19.9173 Se  0  0  2  0  0  0  0  0  0  0  0  0
   13.7206   -9.9429  -21.4913 C   0  0  0  0  0  0  0  0  0  0  0  0
   13.8314  -11.4472  -21.7430 C   0  0  1  0  0  0  0  0  0  0  0  0
   12.9412  -12.1244  -20.8394 O   0  0  0  0  0  0  0  0  0  0  0  0
   13.2530  -11.7182  -23.1324 C   0  0  1  0  0  0  0  0  0  0  0  0
   13.5020  -13.0761  -23.4988 O   0  0  0  0  0  0  0  0  0  0  0  0
   11.7705  -11.5257  -22.8230 C   0  0  1  0  0  0  0  0  0  0  0  0
   11.0010  -12.2041  -23.8174 O   0  0  0  0  0  0  0  0  0  0  0  0
   11.6803  -12.3028  -21.5090 C   0  0  2  0  0  0  0  0  0  0  0  0
   10.1529   -7.2481  -19.0555 O   0  0  0  0  0  0  0  0  0  0  0  0
    7.7612  -13.6867  -18.4479 N   0  0  0  0  0  0  0  0  0  0  0  0
    8.6440  -14.4556  -19.0620 C   0  0  0  0  0  0  0  0  0  0  0  0
    9.6013  -13.9492  -19.8194 N   0  0  0  0  0  0  0  0  0  0  0  0
    9.7091  -12.6224  -19.9868 C   0  0  0  0  0  0  0  0  0  0  0  0
    8.7995  -11.7830  -19.3593 C   0  0  0  0  0  0  0  0  0  0  0  0
    7.8049  -12.3542  -18.5742 C   0  0  0  0  0  0  0  0  0  0  0  0
    6.8922  -11.5854  -17.9885 N   0  0  0  0  0  0  0  0  0  0  0  0
    9.1159  -10.5336  -19.6807 N   0  0  0  0  0  0  0  0  0  0  0  0
   10.1805  -10.5813  -20.4781 C   0  0  0  0  0  0  0  0  0  0  0  0
   10.5474  -11.8487  -20.6687 N   0  0  0  0  0  0  0  0  0  0  0  0
  2  1  1  1  0  0  0
  2  5  1  0  0  0  0
  2  3  1  0  0  0  0
  3 17  1  0  0  0  0
  3  4  1  0  0  0  0
  5  6  1  0  0  0  0
  7  8  1  0  0  0  0
  8  6  1  1  0  0  0
  8  9  1  0  0  0  0
 10  9  1  1  0  0  0
 10 11  1  0  0  0  0
 10 12  1  0  0  0  0
 11 16  1  0  0  0  0
 12 13  1  1  0  0  0
 12 14  1  0  0  0  0
 14 15  1  6  0  0  0
 14 16  1  0  0  0  0
 16 27  1  1  0  0  0
 18 23  2  0  0  0  0
 18 19  1  0  0  0  0
 19 20  2  0  0  0  0
 20 21  1  0  0  0  0
 21 22  2  0  0  0  0
 21 27  1  0  0  0  0
 22 23  1  0  0  0  0
 22 25  1  0  0  0  0
 23 24  1  0  0  0  0
 25 26  2  0  0  0  0
 26 27  1  0  0  0  0
M  END
>  <CHROM.1>
61.82174761,0.65785281,-173.00792105,75.08808025,-143.57667859,73.65172089
-102.92382783,11.84115266,-10.23654740,-20.23234263,0.74350066,0.45470176
0.48407482

>  <Name>
ligand

>  <RI>
0

>  <Rbt.Current_Directory>
/home/itssahil/PROJECTS/Mol_Feturizer/New_Systems/rnas/3E5F

>  <Rbt.Executable>
rbdock ($Id: //depot/dev/client3/rdock/2013.1/src/exe/rbdock.cxx#4 $)

>  <Rbt.Library>
libRbt.so (2013.1, Build901 2013/11/27)

>  <Rbt.Parameter_File>
/export/apps/rDock/src/rDock_2013.1_src/data/scripts/dock_solv.prm

>  <Rbt.Receptor>
prm/pocket_docking_7.prm

>  <SCORE>
-14.1562

>  <SCORE.INTER>
-16.41

>  <SCORE.INTER.CONST>
1

>  <SCORE.INTER.POLAR>
0

>  <SCORE.INTER.ROT>
7

>  <SCORE.INTER.SOLV>
7.15972

>  <SCORE.INTER.VDW>
-21.5932

>  <SCORE.INTER.norm>
-0.607777

>  <SCORE.INTRA>
2.25376

>  <SCORE.INTRA.DIHEDRAL>
1.43975

>  <SCORE.INTRA.DIHEDRAL.0>
4.89803

>  <SCORE.INTRA.POLAR>
0

>  <SCORE.INTRA.POLAR.0>
0

>  <SCORE.INTRA.REPUL>
0

>  <SCORE.INTRA.REPUL.0>
0

>  <SCORE.INTRA.SOLV>
0.742919

>  <SCORE.INTRA.SOLV.lig_0>
-48.5832

>  <SCORE.INTRA.VDW>
1.16243

>  <SCORE.INTRA.VDW.0>
-2.39056

>  <SCORE.INTRA.norm>
0.0834727

>  <SCORE.RESTR>
0

>  <SCORE.RESTR.CAVITY>
0

>  <SCORE.RESTR.norm>
0

>  <SCORE.SYSTEM>
0

>  <SCORE.SYSTEM.CONST>
0

>  <SCORE.SYSTEM.DIHEDRAL>
0

>  <SCORE.SYSTEM.SOLV>
0

>  <SCORE.SYSTEM.norm>
0

>  <SCORE.heavy>
27

>  <SCORE.norm>
-0.524304

>  <RMSD>
6.330

$$$$
ligand
 OpenBabel11021811473D
libRbt.so/2013.1/901 2013/11/27
 27 29  0  0  0  0  0  0  0  0999 V2000
   12.9564   -4.0732  -17.5779 N   0  0  0  0  0  0  0  0  0  0  0  0
   13.2226   -4.8436  -18.8015 C   0  0  2  0  0  0  0  0  0  0  0  0
   13.7215   -3.9098  -19.9085 C   0  0  0  0  0  0  0  0  0  0  0  0
   13.4922   -2.6888  -19.7663 O   0  0  0  0  0  0  0  0  0  0  0  0
   11.9246   -5.5141  -19.2547 C   0  0  0  0  0  0  0  0  0  0  0  0
   12.1658   -6.5431  -20.3621 C   0  0  0  0  0  0  0  0  0  0  0  0
   14.7409   -7.5480  -19.7069 C   0  0  0  0  0  0  0  0  0  0  0  0
   12.9722   -8.0741  -19.6837 Se  0  0  2  0  0  0  0  0  0  0  0  0
   12.9465   -9.3623  -21.0239 C   0  0  0  0  0  0  0  0  0  0  0  0
   13.4798  -10.7234  -20.5749 C   0  0  1  0  0  0  0  0  0  0  0  0
   12.5612  -11.2761  -19.6166 O   0  0  0  0  0  0  0  0  0  0  0  0
   13.3957  -11.6628  -21.7786 C   0  0  1  0  0  0  0  0  0  0  0  0
   14.0546  -12.8929  -21.4736 O   0  0  0  0  0  0  0  0  0  0  0  0
   11.8847  -11.8771  -21.8177 C   0  0  1  0  0  0  0  0  0  0  0  0
   11.6099  -13.0886  -22.5233 O   0  0  0  0  0  0  0  0  0  0  0  0
   11.6190  -12.0983  -20.3280 C   0  0  2  0  0  0  0  0  0  0  0  0
   14.3122   -4.4369  -20.8768 O   0  0  0  0  0  0  0  0  0  0  0  0
    7.0351  -13.9133  -18.7989 N   0  0  0  0  0  0  0  0  0  0  0  0
    8.1520  -14.5792  -19.0370 C   0  0  0  0  0  0  0  0  0  0  0  0
    9.2579  -13.9684  -19.4251 N   0  0  0  0  0  0  0  0  0  0  0  0
    9.2809  -12.6369  -19.5878 C   0  0  0  0  0  0  0  0  0  0  0  0
    8.1270  -11.9038  -19.3490 C   0  0  0  0  0  0  0  0  0  0  0  0
    6.9834  -12.5833  -18.9460 C   0  0  0  0  0  0  0  0  0  0  0  0
    5.8486  -11.9205  -18.7451 N   0  0  0  0  0  0  0  0  0  0  0  0
    8.4064  -10.6259  -19.5797 N   0  0  0  0  0  0  0  0  0  0  0  0
    9.6831  -10.5543  -19.9492 C   0  0  0  0  0  0  0  0  0  0  0  0
   10.2219  -11.7737  -19.9561 N   0  0  0  0  0  0  0  0  0  0  0  0
  2  1  1  1  0  0  0
  2  5  1  0  0  0  0
  2  3  1  0  0  0  0
  3 17  1  0  0  0  0
  3  4  1  0  0  0  0
  5  6  1  0  0  0  0
  7  8  1  0  0  0  0
  8  6  1  6  0  0  0
  8  9  1  0  0  0  0
 10  9  1  6  0  0  0
 10 11  1  0  0  0  0
 10 12  1  0  0  0  0
 11 16  1  0  0  0  0
 12 13  1  1  0  0  0
 12 14  1  0  0  0  0
 14 15  1  6  0  0  0
 14 16  1  0  0  0  0
 16 27  1  6  0  0  0
 18 23  2  0  0  0  0
 18 19  1  0  0  0  0
 19 20  2  0  0  0  0
 20 21  1  0  0  0  0
 21 22  2  0  0  0  0
 21 27  1  0  0  0  0
 22 23  1  0  0  0  0
 22 25  1  0  0  0  0
 23 24  1  0  0  0  0
 25 26  2  0  0  0  0
 26 27  1  0  0  0  0
M  END
>  <CHROM.1>
-169.17805202,-18.60690113,73.23802459,-84.08784252,-175.39337804,67.60945335
-129.84224619,11.60467848,-9.49345342,-19.92931462,0.99177808,0.38842362
0.26044569

>  <Name>
ligand

>  <RI>
0

>  <Rbt.Current_Directory>
/home/itssahil/PROJECTS/Mol_Feturizer/New_Systems/rnas/3E5F

>  <Rbt.Executable>
rbdock ($Id: //depot/dev/client3/rdock/2013.1/src/exe/rbdock.cxx#4 $)

>  <Rbt.Library>
libRbt.so (2013.1, Build901 2013/11/27)

>  <Rbt.Parameter_File>
/export/apps/rDock/src/rDock_2013.1_src/data/scripts/dock_solv.prm

>  <Rbt.Receptor>
prm/pocket_docking_8.prm

>  <SCORE>
-15.4019

>  <SCORE.INTER>
-15.4955

>  <SCORE.INTER.CONST>
1

>  <SCORE.INTER.POLAR>
0

>  <SCORE.INTER.ROT>
7

>  <SCORE.INTER.SOLV>
6.42302

>  <SCORE.INTER.VDW>
-20.738

>  <SCORE.INTER.norm>
-0.573908

>  <SCORE.INTRA>
0.0936547

>  <SCORE.INTRA.DIHEDRAL>
-0.0291602

>  <SCORE.INTRA.DIHEDRAL.0>
4.89803

>  <SCORE.INTRA.POLAR>
0

>  <SCORE.INTRA.POLAR.0>
0

>  <SCORE.INTRA.REPUL>
0

>  <SCORE.INTRA.REPUL.0>
0

>  <SCORE.INTRA.SOLV>
0.256003

>  <SCORE.INTRA.SOLV.lig_0>
-48.5832

>  <SCORE.INTRA.VDW>
-0.0197669

>  <SCORE.INTRA.VDW.0>
-2.39056

>  <SCORE.INTRA.norm>
0.00346869

>  <SCORE.RESTR>
0

>  <SCORE.RESTR.CAVITY>
0

>  <SCORE.RESTR.norm>
0

>  <SCORE.SYSTEM>
0

>  <SCORE.SYSTEM.CONST>
0

>  <SCORE.SYSTEM.DIHEDRAL>
0

>  <SCORE.SYSTEM.SOLV>
0

>  <SCORE.SYSTEM.norm>
0

>  <SCORE.heavy>
27

>  <SCORE.norm>
-0.570439

>  <RMSD>
6.330

$$$$
ligand
 OpenBabel11021811473D
libRbt.so/2013.1/901 2013/11/27
 27 29  0  0  0  0  0  0  0  0999 V2000
    6.3059  -12.1935  -16.3890 N   0  0  0  0  0  0  0  0  0  0  0  0
    7.0399  -11.2607  -17.2567 C   0  0  2  0  0  0  0  0  0  0  0  0
    6.0861  -10.1928  -17.8008 C   0  0  0  0  0  0  0  0  0  0  0  0
    6.5701   -9.0619  -18.0255 O   0  0  0  0  0  0  0  0  0  0  0  0
    7.6402  -12.0432  -18.4261 C   0  0  0  0  0  0  0  0  0  0  0  0
    8.5553  -11.1721  -19.2905 C   0  0  0  0  0  0  0  0  0  0  0  0
   10.0490  -13.4348  -20.1387 C   0  0  0  0  0  0  0  0  0  0  0  0
    9.0424  -12.0607  -20.8487 Se  0  0  2  0  0  0  0  0  0  0  0  0
   10.3456  -11.0385  -21.6931 C   0  0  0  0  0  0  0  0  0  0  0  0
   10.5184  -11.3706  -23.1758 C   0  0  1  0  0  0  0  0  0  0  0  0
   11.3751  -10.3775  -23.7654 O   0  0  0  0  0  0  0  0  0  0  0  0
   11.3186  -12.6711  -23.2588 C   0  0  1  0  0  0  0  0  0  0  0  0
   11.3482  -13.1302  -24.6111 O   0  0  0  0  0  0  0  0  0  0  0  0
   12.6928  -12.1398  -22.8589 C   0  0  1  0  0  0  0  0  0  0  0  0
   13.6922  -13.0402  -23.3403 O   0  0  0  0  0  0  0  0  0  0  0  0
   12.7280  -10.8628  -23.6994 C   0  0  2  0  0  0  0  0  0  0  0  0
    4.8929  -10.5267  -17.9711 O   0  0  0  0  0  0  0  0  0  0  0  0
   16.1017   -7.0802  -24.6766 N   0  0  0  0  0  0  0  0  0  0  0  0
   15.4121   -7.8161  -25.5312 C   0  0  0  0  0  0  0  0  0  0  0  0
   14.5766   -8.7561  -25.1251 N   0  0  0  0  0  0  0  0  0  0  0  0
   14.3988   -8.9921  -23.8164 C   0  0  0  0  0  0  0  0  0  0  0  0
   15.1068   -8.2408  -22.8889 C   0  0  0  0  0  0  0  0  0  0  0  0
   15.9786   -7.2642  -23.3559 C   0  0  0  0  0  0  0  0  0  0  0  0
   16.7030   -6.5507  -22.4995 N   0  0  0  0  0  0  0  0  0  0  0  0
   14.7595   -8.6634  -21.6784 N   0  0  0  0  0  0  0  0  0  0  0  0
   13.8697   -9.6409  -21.8342 C   0  0  0  0  0  0  0  0  0  0  0  0
   13.6449   -9.8464  -23.1321 N   0  0  0  0  0  0  0  0  0  0  0  0
  2  1  1  1  0  0  0
  2  5  1  0  0  0  0
  2  3  1  0  0  0  0
  3 17  1  0  0  0  0
  3  4  1  0  0  0  0
  5  6  1  0  0  0  0
  7  8  1  0  0  0  0
  8  6  1  1  0  0  0
  8  9  1  0  0  0  0
 10  9  1  1  0  0  0
 10 11  1  0  0  0  0
 10 12  1  0  0  0  0
 11 16  1  0  0  0  0
 12 13  1  6  0  0  0
 12 14  1  0  0  0  0
 14 15  1  6  0  0  0
 14 16  1  0  0  0  0
 16 27  1  1  0  0  0
 18 23  2  0  0  0  0
 18 19  1  0  0  0  0
 19 20  2  0  0  0  0
 20 21  1  0  0  0  0
 21 22  2  0  0  0  0
 21 27  1  0  0  0  0
 22 23  1  0  0  0  0
 22 25  1  0  0  0  0
 23 24  1  0  0  0  0
 25 26  2  0  0  0  0
 26 27  1  0  0  0  0
M  END
>  <CHROM.1>
-173.44366809,149.02954133,-170.60120430,-65.71530512,-160.88107008,170.37136257
-95.67871514,11.04853758,-10.66141612,-21.57720137,-3.07615426,-0.64356899
-2.56192757

>  <Name>
ligand

>  <RI>
0

>  <Rbt.Current_Directory>
/home/itssahil/PROJECTS/Mol_Feturizer/New_Systems/rnas/3E5F

>  <Rbt.Executable>
rbdock ($Id: //depot/dev/client3/rdock/2013.1/src/exe/rbdock.cxx#4 $)

>  <Rbt.Library>
libRbt.so (2013.1, Build901 2013/11/27)

>  <Rbt.Parameter_File>
/export/apps/rDock/src/rDock_2013.1_src/data/scripts/dock_solv.prm

>  <Rbt.Receptor>
prm/blind_docking_80.prm

>  <SCORE>
-20.7104

>  <SCORE.INTER>
-21.3449

>  <SCORE.INTER.CONST>
1

>  <SCORE.INTER.POLAR>
0

>  <SCORE.INTER.ROT>
7

>  <SCORE.INTER.SOLV>
16.3679

>  <SCORE.INTER.VDW>
-27.9526

>  <SCORE.INTER.norm>
-0.790552

>  <SCORE.INTRA>
0.634545

>  <SCORE.INTRA.DIHEDRAL>
-0.188741

>  <SCORE.INTRA.DIHEDRAL.0>
4.89803

>  <SCORE.INTRA.POLAR>
0

>  <SCORE.INTRA.POLAR.0>
0

>  <SCORE.INTRA.REPUL>
0

>  <SCORE.INTRA.REPUL.0>
0

>  <SCORE.INTRA.SOLV>
-0.0665889

>  <SCORE.INTRA.SOLV.lig_0>
-48.5832

>  <SCORE.INTRA.VDW>
0.76221

>  <SCORE.INTRA.VDW.0>
-2.39056

>  <SCORE.INTRA.norm>
0.0235017

>  <SCORE.RESTR>
0

>  <SCORE.RESTR.CAVITY>
0

>  <SCORE.RESTR.norm>
0

>  <SCORE.SYSTEM>
0

>  <SCORE.SYSTEM.CONST>
0

>  <SCORE.SYSTEM.DIHEDRAL>
0

>  <SCORE.SYSTEM.SOLV>
0

>  <SCORE.SYSTEM.norm>
0

>  <SCORE.heavy>
27

>  <SCORE.norm>
-0.76705

>  <RMSD>
6.334

$$$$
ligand
 OpenBabel11021811473D
libRbt.so/2013.1/901 2013/11/27
 27 29  0  0  0  0  0  0  0  0999 V2000
   14.7415   -8.9676  -23.7956 N   0  0  0  0  0  0  0  0  0  0  0  0
   13.9739  -10.2107  -23.6302 C   0  0  2  0  0  0  0  0  0  0  0  0
   12.9739  -10.3641  -24.7802 C   0  0  0  0  0  0  0  0  0  0  0  0
   13.0186   -9.5059  -25.6886 O   0  0  0  0  0  0  0  0  0  0  0  0
   13.2122  -10.1475  -22.3051 C   0  0  0  0  0  0  0  0  0  0  0  0
   12.7977  -11.5370  -21.8141 C   0  0  0  0  0  0  0  0  0  0  0  0
   10.5654  -10.6023  -20.3263 C   0  0  0  0  0  0  0  0  0  0  0  0
   12.1751  -11.4660  -20.0643 Se  0  0  2  0  0  0  0  0  0  0  0  0
   13.1580  -10.1647  -19.1716 C   0  0  0  0  0  0  0  0  0  0  0  0
   12.4482   -9.5979  -17.9414 C   0  0  1  0  0  0  0  0  0  0  0  0
   13.4423   -9.0599  -17.0527 O   0  0  0  0  0  0  0  0  0  0  0  0
   11.6425   -8.3828  -18.4026 C   0  0  1  0  0  0  0  0  0  0  0  0
   10.8103   -7.9262  -17.3352 O   0  0  0  0  0  0  0  0  0  0  0  0
   12.7883   -7.3992  -18.6269 C   0  0  1  0  0  0  0  0  0  0  0  0
   12.2696   -6.0690  -18.5754 O   0  0  0  0  0  0  0  0  0  0  0  0
   13.6043   -7.6639  -17.3609 C   0  0  2  0  0  0  0  0  0  0  0  0
   12.1808  -11.3294  -24.7221 O   0  0  0  0  0  0  0  0  0  0  0  0
   17.8534   -8.1534  -20.2505 N   0  0  0  0  0  0  0  0  0  0  0  0
   16.6509   -8.6638  -20.4529 C   0  0  0  0  0  0  0  0  0  0  0  0
   15.6519   -8.4461  -19.6155 N   0  0  0  0  0  0  0  0  0  0  0  0
   15.8300   -7.6882  -18.5230 C   0  0  0  0  0  0  0  0  0  0  0  0
   17.0792   -7.1365  -18.2759 C   0  0  0  0  0  0  0  0  0  0  0  0
   18.1052   -7.3918  -19.1782 C   0  0  0  0  0  0  0  0  0  0  0  0
   19.3251   -6.9129  -18.9555 N   0  0  0  0  0  0  0  0  0  0  0  0
   16.9963   -6.4402  -17.1477 N   0  0  0  0  0  0  0  0  0  0  0  0
   15.7474   -6.5476  -16.7003 C   0  0  0  0  0  0  0  0  0  0  0  0
   15.0317   -7.3050  -17.5318 N   0  0  0  0  0  0  0  0  0  0  0  0
  2  1  1  6  0  0  0
  2  5  1  0  0  0  0
  2  3  1  0  0  0  0
  3 17  1  0  0  0  0
  3  4  1  0  0  0  0
  5  6  1  0  0  0  0
  7  8  1  0  0  0  0
  8  6  1  6  0  0  0
  8  9  1  0  0  0  0
 10  9  1  6  0  0  0
 10 11  1  0  0  0  0
 10 12  1  0  0  0  0
 11 16  1  0  0  0  0
 12 13  1  1  0  0  0
 12 14  1  0  0  0  0
 14 15  1  1  0  0  0
 14 16  1  0  0  0  0
 16 27  1  6  0  0  0
 18 23  2  0  0  0  0
 18 19  1  0  0  0  0
 19 20  2  0  0  0  0
 20 21  1  0  0  0  0
 21 22  2  0  0  0  0
 21 27  1  0  0  0  0
 22 23  1  0  0  0  0
 22 25  1  0  0  0  0
 23 24  1  0  0  0  0
 25 26  2  0  0  0  0
 26 27  1  0  0  0  0
M  END
>  <CHROM.1>
-159.86828818,4.55671718,168.98902405,71.12686010,157.33971495,156.58343526
68.71395738,13.83353073,-9.14379875,-19.98762467,-2.19162364,0.43702199,1.20328406

>  <Name>
ligand

>  <RI>
0

>  <Rbt.Current_Directory>
/home/itssahil/PROJECTS/Mol_Feturizer/New_Systems/rnas/3E5F

>  <Rbt.Executable>
rbdock ($Id: //depot/dev/client3/rdock/2013.1/src/exe/rbdock.cxx#4 $)

>  <Rbt.Library>
libRbt.so (2013.1, Build901 2013/11/27)

>  <Rbt.Parameter_File>
/export/apps/rDock/src/rDock_2013.1_src/data/scripts/dock_solv.prm

>  <Rbt.Receptor>
prm/pocket_docking_3.prm

>  <SCORE>
-6.63872

>  <SCORE.INTER>
-8.95923

>  <SCORE.INTER.CONST>
1

>  <SCORE.INTER.POLAR>
0

>  <SCORE.INTER.ROT>
7

>  <SCORE.INTER.SOLV>
10.1332

>  <SCORE.INTER.VDW>
-17.6172

>  <SCORE.INTER.norm>
-0.331823

>  <SCORE.INTRA>
2.31206

>  <SCORE.INTRA.DIHEDRAL>
2.39262

>  <SCORE.INTRA.DIHEDRAL.0>
4.89803

>  <SCORE.INTRA.POLAR>
0

>  <SCORE.INTRA.POLAR.0>
0

>  <SCORE.INTRA.REPUL>
0

>  <SCORE.INTRA.REPUL.0>
0

>  <SCORE.INTRA.SOLV>
0.170178

>  <SCORE.INTRA.SOLV.lig_0>
-48.5832

>  <SCORE.INTRA.VDW>
1.03067

>  <SCORE.INTRA.VDW.0>
-2.39056

>  <SCORE.INTRA.norm>
0.0856319

>  <SCORE.RESTR>
0.00844792

>  <SCORE.RESTR.CAVITY>
0.00844792

>  <SCORE.RESTR.norm>
0.000312886

>  <SCORE.SYSTEM>
0

>  <SCORE.SYSTEM.CONST>
0

>  <SCORE.SYSTEM.DIHEDRAL>
0

>  <SCORE.SYSTEM.SOLV>
0

>  <SCORE.SYSTEM.norm>
0

>  <SCORE.heavy>
27

>  <SCORE.norm>
-0.245879

>  <RMSD>
6.339

$$$$
ligand
 OpenBabel11021811473D
libRbt.so/2013.1/901 2013/11/27
 27 29  0  0  0  0  0  0  0  0999 V2000
   14.7036   -5.6302  -21.1078 N   0  0  0  0  0  0  0  0  0  0  0  0
   14.1801   -5.7619  -19.7402 C   0  0  2  0  0  0  0  0  0  0  0  0
   15.2550   -5.3540  -18.7280 C   0  0  0  0  0  0  0  0  0  0  0  0
   14.9628   -5.4608  -17.5169 O   0  0  0  0  0  0  0  0  0  0  0  0
   13.7893   -7.2211  -19.4999 C   0  0  0  0  0  0  0  0  0  0  0  0
   12.7206   -7.6994  -20.4861 C   0  0  0  0  0  0  0  0  0  0  0  0
   13.8921  -10.2831  -20.3366 C   0  0  0  0  0  0  0  0  0  0  0  0
   12.2482   -9.4654  -20.1507 Se  0  0  2  0  0  0  0  0  0  0  0  0
   11.3435  -10.0977  -21.6466 C   0  0  0  0  0  0  0  0  0  0  0  0
   11.9494  -11.3726  -22.2349 C   0  0  1  0  0  0  0  0  0  0  0  0
   11.7729  -12.4379  -21.2854 O   0  0  0  0  0  0  0  0  0  0  0  0
   11.0869  -11.7739  -23.4321 C   0  0  1  0  0  0  0  0  0  0  0  0
   11.7127  -12.8485  -24.1351 O   0  0  0  0  0  0  0  0  0  0  0  0
    9.8561  -12.2854  -22.6877 C   0  0  1  0  0  0  0  0  0  0  0  0
    9.1292  -13.1634  -23.5490 O   0  0  0  0  0  0  0  0  0  0  0  0
   10.5411  -13.1120  -21.5985 C   0  0  2  0  0  0  0  0  0  0  0  0
   16.3410   -4.9358  -19.1860 O   0  0  0  0  0  0  0  0  0  0  0  0
    7.3979  -10.8123  -18.2109 N   0  0  0  0  0  0  0  0  0  0  0  0
    8.0188  -10.2872  -19.2532 C   0  0  0  0  0  0  0  0  0  0  0  0
    8.7981  -11.0116  -20.0373 N   0  0  0  0  0  0  0  0  0  0  0  0
    8.9817  -12.3187  -19.7975 C   0  0  0  0  0  0  0  0  0  0  0  0
    8.3477  -12.9052  -18.7112 C   0  0  0  0  0  0  0  0  0  0  0  0
    7.5394  -12.1090  -17.9082 C   0  0  0  0  0  0  0  0  0  0  0  0
    6.9464  -12.6259  -16.8366 N   0  0  0  0  0  0  0  0  0  0  0  0
    8.6880  -14.1890  -18.6908 N   0  0  0  0  0  0  0  0  0  0  0  0
    9.5031  -14.4048  -19.7205 C   0  0  0  0  0  0  0  0  0  0  0  0
    9.6863  -13.2718  -20.3987 N   0  0  0  0  0  0  0  0  0  0  0  0
  2  1  1  6  0  0  0
  2  5  1  0  0  0  0
  2  3  1  0  0  0  0
  3 17  1  0  0  0  0
  3  4  1  0  0  0  0
  5  6  1  0  0  0  0
  7  8  1  0  0  0  0
  8  6  1  6  0  0  0
  8  9  1  0  0  0  0
 10  9  1  1  0  0  0
 10 11  1  0  0  0  0
 10 12  1  0  0  0  0
 11 16  1  0  0  0  0
 12 13  1  1  0  0  0
 12 14  1  0  0  0  0
 14 15  1  6  0  0  0
 14 16  1  0  0  0  0
 16 27  1  1  0  0  0
 18 23  2  0  0  0  0
 18 19  1  0  0  0  0
 19 20  2  0  0  0  0
 20 21  1  0  0  0  0
 21 22  2  0  0  0  0
 21 27  1  0  0  0  0
 22 23  1  0  0  0  0
 22 25  1  0  0  0  0
 23 24  1  0  0  0  0
 25 26  2  0  0  0  0
 26 27  1  0  0  0  0
M  END
>  <CHROM.1>
-59.61667594,-177.60262142,-179.08354754,-58.39409807,125.00643091,66.57858310
74.51987307,11.34192296,-10.28361448,-20.27462973,-0.54544746,-0.70018661
-2.21432114

>  <Name>
ligand

>  <RI>
0

>  <Rbt.Current_Directory>
/home/itssahil/PROJECTS/Mol_Feturizer/New_Systems/rnas/3E5F

>  <Rbt.Executable>
rbdock ($Id: //depot/dev/client3/rdock/2013.1/src/exe/rbdock.cxx#4 $)

>  <Rbt.Library>
libRbt.so (2013.1, Build901 2013/11/27)

>  <Rbt.Parameter_File>
/export/apps/rDock/src/rDock_2013.1_src/data/scripts/dock_solv.prm

>  <Rbt.Receptor>
prm/blind_docking_80.prm

>  <SCORE>
-6.23705

>  <SCORE.INTER>
-8.9214

>  <SCORE.INTER.CONST>
1

>  <SCORE.INTER.POLAR>
0

>  <SCORE.INTER.ROT>
7

>  <SCORE.INTER.SOLV>
10.555

>  <SCORE.INTER.VDW>
-17.7326

>  <SCORE.INTER.norm>
-0.330422

>  <SCORE.INTRA>
2.67268

>  <SCORE.INTRA.DIHEDRAL>
0.292295

>  <SCORE.INTRA.DIHEDRAL.0>
4.89803

>  <SCORE.INTRA.POLAR>
0

>  <SCORE.INTRA.POLAR.0>
0

>  <SCORE.INTRA.REPUL>
0

>  <SCORE.INTRA.REPUL.0>
0

>  <SCORE.INTRA.SOLV>
0.795807

>  <SCORE.INTRA.SOLV.lig_0>
-48.5832

>  <SCORE.INTRA.VDW>
2.12863

>  <SCORE.INTRA.VDW.0>
-2.39056

>  <SCORE.INTRA.norm>
0.0989882

>  <SCORE.RESTR>
0.0116755

>  <SCORE.RESTR.CAVITY>
0.0116755

>  <SCORE.RESTR.norm>
0.000432424

>  <SCORE.SYSTEM>
0

>  <SCORE.SYSTEM.CONST>
0

>  <SCORE.SYSTEM.DIHEDRAL>
0

>  <SCORE.SYSTEM.SOLV>
0

>  <SCORE.SYSTEM.norm>
0

>  <SCORE.heavy>
27

>  <SCORE.norm>
-0.231002

>  <RMSD>
6.340

$$$$
ligand
 OpenBabel11021811473D
libRbt.so/2013.1/901 2013/11/27
 27 29  0  0  0  0  0  0  0  0999 V2000
    5.9371  -11.1749  -18.3060 N   0  0  0  0  0  0  0  0  0  0  0  0
    6.5223  -12.3140  -19.0283 C   0  0  2  0  0  0  0  0  0  0  0  0
    6.0279  -13.6291  -18.4181 C   0  0  0  0  0  0  0  0  0  0  0  0
    6.3386  -14.6831  -19.0149 O   0  0  0  0  0  0  0  0  0  0  0  0
    8.0457  -12.2442  -18.9086 C   0  0  0  0  0  0  0  0  0  0  0  0
    8.6042  -10.9244  -19.4469 C   0  0  0  0  0  0  0  0  0  0  0  0
   10.8234   -9.4719  -18.4292 C   0  0  0  0  0  0  0  0  0  0  0  0
   10.4625  -10.9498  -19.4737 Se  0  0  2  0  0  0  0  0  0  0  0  0
   11.0071  -10.3650  -21.1523 C   0  0  0  0  0  0  0  0  0  0  0  0
   10.5775  -11.2899  -22.2918 C   0  0  1  0  0  0  0  0  0  0  0  0
   10.9411  -10.6718  -23.5382 O   0  0  0  0  0  0  0  0  0  0  0  0
   11.4498  -12.5432  -22.2119 C   0  0  1  0  0  0  0  0  0  0  0  0
   10.9670  -13.5227  -23.1328 O   0  0  0  0  0  0  0  0  0  0  0  0
   12.7667  -11.9585  -22.7164 C   0  0  1  0  0  0  0  0  0  0  0  0
   13.5866  -13.0229  -23.2021 O   0  0  0  0  0  0  0  0  0  0  0  0
   12.2481  -11.1483  -23.9052 C   0  0  2  0  0  0  0  0  0  0  0  0
    5.3428  -13.5522  -17.3746 O   0  0  0  0  0  0  0  0  0  0  0  0
   15.8055   -7.7978  -22.2426 N   0  0  0  0  0  0  0  0  0  0  0  0
   15.1749   -8.7410  -21.5641 C   0  0  0  0  0  0  0  0  0  0  0  0
   14.2814   -9.5303  -22.1345 N   0  0  0  0  0  0  0  0  0  0  0  0
   13.9866   -9.3982  -23.4366 C   0  0  0  0  0  0  0  0  0  0  0  0
   14.6270   -8.4178  -24.1815 C   0  0  0  0  0  0  0  0  0  0  0  0
   15.5575   -7.6053  -23.5444 C   0  0  0  0  0  0  0  0  0  0  0  0
   16.1630   -6.6302  -24.2151 N   0  0  0  0  0  0  0  0  0  0  0  0
   14.1651   -8.4903  -25.4248 N   0  0  0  0  0  0  0  0  0  0  0  0
   13.2702   -9.4747  -25.4641 C   0  0  0  0  0  0  0  0  0  0  0  0
   13.1563  -10.0320  -24.2583 N   0  0  0  0  0  0  0  0  0  0  0  0
  2  1  1  1  0  0  0
  2  5  1  0  0  0  0
  2  3  1  0  0  0  0
  3 17  1  0  0  0  0
  3  4  1  0  0  0  0
  5  6  1  0  0  0  0
  7  8  1  0  0  0  0
  8  6  1  6  0  0  0
  8  9  1  0  0  0  0
 10  9  1  1  0  0  0
 10 11  1  0  0  0  0
 10 12  1  0  0  0  0
 11 16  1  0  0  0  0
 12 13  1  6  0  0  0
 12 14  1  0  0  0  0
 14 15  1  6  0  0  0
 14 16  1  0  0  0  0
 16 27  1  1  0  0  0
 18 23  2  0  0  0  0
 18 19  1  0  0  0  0
 19 20  2  0  0  0  0
 20 21  1  0  0  0  0
 21 22  2  0  0  0  0
 21 27  1  0  0  0  0
 22 23  1  0  0  0  0
 22 25  1  0  0  0  0
 23 24  1  0  0  0  0
 25 26  2  0  0  0  0
 26 27  1  0  0  0  0
M  END
>  <CHROM.1>
-57.53199225,173.07745872,-173.30874165,-122.93252193,-64.02937681,174.55799571
92.52539731,11.17646617,-10.82931719,-21.35395729,-2.96558537,-0.68866951
-2.23717696

>  <Name>
ligand

>  <RI>
0

>  <Rbt.Current_Directory>
/home/itssahil/PROJECTS/Mol_Feturizer/New_Systems/rnas/3E5F

>  <Rbt.Executable>
rbdock ($Id: //depot/dev/client3/rdock/2013.1/src/exe/rbdock.cxx#4 $)

>  <Rbt.Library>
libRbt.so (2013.1, Build901 2013/11/27)

>  <Rbt.Parameter_File>
/export/apps/rDock/src/rDock_2013.1_src/data/scripts/dock_solv.prm

>  <Rbt.Receptor>
prm/pocket_docking_8.prm

>  <SCORE>
-16.986

>  <SCORE.INTER>
-17.9232

>  <SCORE.INTER.CONST>
1

>  <SCORE.INTER.POLAR>
0

>  <SCORE.INTER.ROT>
7

>  <SCORE.INTER.SOLV>
17.2936

>  <SCORE.INTER.VDW>
-25.98

>  <SCORE.INTER.norm>
-0.663822

>  <SCORE.INTRA>
0.937151

>  <SCORE.INTRA.DIHEDRAL>
0.544153

>  <SCORE.INTRA.DIHEDRAL.0>
4.89803

>  <SCORE.INTRA.POLAR>
0

>  <SCORE.INTRA.POLAR.0>
0

>  <SCORE.INTRA.REPUL>
0

>  <SCORE.INTRA.REPUL.0>
0

>  <SCORE.INTRA.SOLV>
0.721724

>  <SCORE.INTRA.SOLV.lig_0>
-48.5832

>  <SCORE.INTRA.VDW>
0.304213

>  <SCORE.INTRA.VDW.0>
-2.39056

>  <SCORE.INTRA.norm>
0.0347093

>  <SCORE.RESTR>
0

>  <SCORE.RESTR.CAVITY>
0

>  <SCORE.RESTR.norm>
0

>  <SCORE.SYSTEM>
0

>  <SCORE.SYSTEM.CONST>
0

>  <SCORE.SYSTEM.DIHEDRAL>
0

>  <SCORE.SYSTEM.SOLV>
0

>  <SCORE.SYSTEM.norm>
0

>  <SCORE.heavy>
27

>  <SCORE.norm>
-0.629112

>  <RMSD>
6.343

$$$$
ligand
 OpenBabel11021811473D
libRbt.so/2013.1/901 2013/11/27
 27 29  0  0  0  0  0  0  0  0999 V2000
   10.1285   -7.2783  -17.1774 N   0  0  0  0  0  0  0  0  0  0  0  0
   10.7874   -7.8546  -18.3588 C   0  0  2  0  0  0  0  0  0  0  0  0
   11.6720   -9.0331  -17.9406 C   0  0  0  0  0  0  0  0  0  0  0  0
   12.5403   -8.8089  -17.0692 O   0  0  0  0  0  0  0  0  0  0  0  0
   11.6566   -6.7791  -19.0127 C   0  0  0  0  0  0  0  0  0  0  0  0
   12.2741   -7.2609  -20.3280 C   0  0  0  0  0  0  0  0  0  0  0  0
   14.8915   -8.1844  -19.7226 C   0  0  0  0  0  0  0  0  0  0  0  0
   13.2079   -8.8490  -20.0823 Se  0  0  2  0  0  0  0  0  0  0  0  0
   13.4578   -9.6173  -21.7567 C   0  0  0  0  0  0  0  0  0  0  0  0
   13.8594  -11.0918  -21.6997 C   0  0  1  0  0  0  0  0  0  0  0  0
   13.0161  -11.7542  -20.7418 O   0  0  0  0  0  0  0  0  0  0  0  0
   13.4835  -11.7163  -23.0440 C   0  0  1  0  0  0  0  0  0  0  0  0
   14.0060  -13.0436  -23.1188 O   0  0  0  0  0  0  0  0  0  0  0  0
   11.9666  -11.7624  -22.8778 C   0  0  1  0  0  0  0  0  0  0  0  0
   11.4358  -12.7454  -23.7683 O   0  0  0  0  0  0  0  0  0  0  0  0
   11.8821  -12.2917  -21.4455 C   0  0  2  0  0  0  0  0  0  0  0  0
   11.4679  -10.1292  -18.5072 O   0  0  0  0  0  0  0  0  0  0  0  0
    7.9906  -13.8264  -18.4214 N   0  0  0  0  0  0  0  0  0  0  0  0
    9.0556  -14.5065  -18.8097 C   0  0  0  0  0  0  0  0  0  0  0  0
    9.9767  -13.9714  -19.5920 N   0  0  0  0  0  0  0  0  0  0  0  0
    9.8583  -12.7047  -20.0179 C   0  0  0  0  0  0  0  0  0  0  0  0
    8.7527  -11.9596  -19.6325 C   0  0  0  0  0  0  0  0  0  0  0  0
    7.8042  -12.5593  -18.8124 C   0  0  0  0  0  0  0  0  0  0  0  0
    6.7127  -11.8905  -18.4538 N   0  0  0  0  0  0  0  0  0  0  0  0
    8.8680  -10.7549  -20.1801 N   0  0  0  0  0  0  0  0  0  0  0  0
    9.9985  -10.7393  -20.8823 C   0  0  0  0  0  0  0  0  0  0  0  0
   10.6067  -11.9219  -20.7882 N   0  0  0  0  0  0  0  0  0  0  0  0
  2  1  1  1  0  0  0
  2  5  1  0  0  0  0
  2  3  1  0  0  0  0
  3 17  1  0  0  0  0
  3  4  1  0  0  0  0
  5  6  1  0  0  0  0
  7  8  1  0  0  0  0
  8  6  1  6  0  0  0
  8  9  1  0  0  0  0
 10  9  1  6  0  0  0
 10 11  1  0  0  0  0
 10 12  1  0  0  0  0
 11 16  1  0  0  0  0
 12 13  1  1  0  0  0
 12 14  1  0  0  0  0
 14 15  1  6  0  0  0
 14 16  1  0  0  0  0
 16 27  1  1  0  0  0
 18 23  2  0  0  0  0
 18 19  1  0  0  0  0
 19 20  2  0  0  0  0
 20 21  1  0  0  0  0
 21 22  2  0  0  0  0
 21 27  1  0  0  0  0
 22 23  1  0  0  0  0
 22 25  1  0  0  0  0
 23 24  1  0  0  0  0
 25 26  2  0  0  0  0
 26 27  1  0  0  0  0
M  END
>  <CHROM.1>
-174.55540663,-55.58051513,-54.21733836,-91.49399807,-164.02475407,45.04694626
-102.47153587,11.53559826,-10.52869596,-20.09909522,0.62562451,0.58625434
0.64068918

>  <Name>
ligand

>  <RI>
0

>  <Rbt.Current_Directory>
/home/itssahil/PROJECTS/Mol_Feturizer/New_Systems/rnas/3E5F

>  <Rbt.Executable>
rbdock ($Id: //depot/dev/client3/rdock/2013.1/src/exe/rbdock.cxx#4 $)

>  <Rbt.Library>
libRbt.so (2013.1, Build901 2013/11/27)

>  <Rbt.Parameter_File>
/export/apps/rDock/src/rDock_2013.1_src/data/scripts/dock_solv.prm

>  <Rbt.Receptor>
prm/pocket_docking_8.prm

>  <SCORE>
-16.7876

>  <SCORE.INTER>
-14.4233

>  <SCORE.INTER.CONST>
1

>  <SCORE.INTER.POLAR>
0

>  <SCORE.INTER.ROT>
7

>  <SCORE.INTER.SOLV>
6.8828

>  <SCORE.INTER.VDW>
-20.1765

>  <SCORE.INTER.norm>
-0.534197

>  <SCORE.INTRA>
-2.36426

>  <SCORE.INTRA.DIHEDRAL>
0.550197

>  <SCORE.INTRA.DIHEDRAL.0>
4.89803

>  <SCORE.INTRA.POLAR>
0

>  <SCORE.INTRA.POLAR.0>
0

>  <SCORE.INTRA.REPUL>
0

>  <SCORE.INTRA.REPUL.0>
0

>  <SCORE.INTRA.SOLV>
0.0389256

>  <SCORE.INTRA.SOLV.lig_0>
-48.5832

>  <SCORE.INTRA.VDW>
-2.65882

>  <SCORE.INTRA.VDW.0>
-2.39056

>  <SCORE.INTRA.norm>
-0.0875651

>  <SCORE.RESTR>
0

>  <SCORE.RESTR.CAVITY>
0

>  <SCORE.RESTR.norm>
0

>  <SCORE.SYSTEM>
0

>  <SCORE.SYSTEM.CONST>
0

>  <SCORE.SYSTEM.DIHEDRAL>
0

>  <SCORE.SYSTEM.SOLV>
0

>  <SCORE.SYSTEM.norm>
0

>  <SCORE.heavy>
27

>  <SCORE.norm>
-0.621762

>  <RMSD>
6.361

$$$$
ligand
 OpenBabel11021811473D
libRbt.so/2013.1/901 2013/11/27
 27 29  0  0  0  0  0  0  0  0999 V2000
   15.1033   -6.4857  -19.4881 N   0  0  0  0  0  0  0  0  0  0  0  0
   14.1364   -6.5329  -20.5948 C   0  0  2  0  0  0  0  0  0  0  0  0
   12.7104   -6.6032  -20.0398 C   0  0  0  0  0  0  0  0  0  0  0  0
   11.7983   -6.1426  -20.7606 O   0  0  0  0  0  0  0  0  0  0  0  0
   14.4113   -7.7797  -21.4373 C   0  0  0  0  0  0  0  0  0  0  0  0
   14.3290   -9.0634  -20.6074 C   0  0  0  0  0  0  0  0  0  0  0  0
   12.8068  -11.0096  -19.2053 C   0  0  0  0  0  0  0  0  0  0  0  0
   12.5873   -9.3785  -20.0402 Se  0  0  2  0  0  0  0  0  0  0  0  0
   11.5882   -9.8534  -21.5343 C   0  0  0  0  0  0  0  0  0  0  0  0
   12.1830  -11.0211  -22.3225 C   0  0  1  0  0  0  0  0  0  0  0  0
   11.9162  -12.2364  -21.6018 O   0  0  0  0  0  0  0  0  0  0  0  0
   11.3771  -11.1525  -23.6154 C   0  0  1  0  0  0  0  0  0  0  0  0
   12.0051  -12.1031  -24.4771 O   0  0  0  0  0  0  0  0  0  0  0  0
   10.0891  -11.7393  -23.0435 C   0  0  1  0  0  0  0  0  0  0  0  0
    9.3831  -12.4075  -24.0905 O   0  0  0  0  0  0  0  0  0  0  0  0
   10.6820  -12.7848  -22.0979 C   0  0  2  0  0  0  0  0  0  0  0  0
   12.5640   -7.1065  -18.9042 O   0  0  0  0  0  0  0  0  0  0  0  0
    7.7117  -11.0243  -18.2609 N   0  0  0  0  0  0  0  0  0  0  0  0
    8.4484  -10.3397  -19.1189 C   0  0  0  0  0  0  0  0  0  0  0  0
    9.1613  -10.9379  -20.0573 N   0  0  0  0  0  0  0  0  0  0  0  0
    9.1558  -12.2747  -20.1704 C   0  0  0  0  0  0  0  0  0  0  0  0
    8.3956  -13.0276  -19.2864 C   0  0  0  0  0  0  0  0  0  0  0  0
    7.6627  -12.3616  -18.3112 C   0  0  0  0  0  0  0  0  0  0  0  0
    6.9532  -13.0500  -17.4224 N   0  0  0  0  0  0  0  0  0  0  0  0
    8.5592  -14.3072  -19.6030 N   0  0  0  0  0  0  0  0  0  0  0  0
    9.3881  -14.3610  -20.6429 C   0  0  0  0  0  0  0  0  0  0  0  0
    9.7551  -13.1284  -20.9941 N   0  0  0  0  0  0  0  0  0  0  0  0
  2  1  1  1  0  0  0
  2  5  1  0  0  0  0
  2  3  1  0  0  0  0
  3 17  1  0  0  0  0
  3  4  1  0  0  0  0
  5  6  1  0  0  0  0
  7  8  1  0  0  0  0
  8  6  1  6  0  0  0
  8  9  1  0  0  0  0
 10  9  1  1  0  0  0
 10 11  1  0  0  0  0
 10 12  1  0  0  0  0
 11 16  1  0  0  0  0
 12 13  1  6  0  0  0
 12 14  1  0  0  0  0
 14 15  1  6  0  0  0
 14 16  1  0  0  0  0
 16 27  1  1  0  0  0
 18 23  2  0  0  0  0
 18 19  1  0  0  0  0
 19 20  2  0  0  0  0
 20 21  1  0  0  0  0
 21 22  2  0  0  0  0
 21 27  1  0  0  0  0
 22 23  1  0  0  0  0
 22 25  1  0  0  0  0
 23 24  1  0  0  0  0
 25 26  2  0  0  0  0
 26 27  1  0  0  0  0
M  END
>  <CHROM.1>
57.86076765,153.08287757,67.39754128,176.02771854,54.04395309,75.80370475
67.12000634,11.22291214,-10.44503689,-20.60167431,0.44917745,0.72927431,0.92613858

>  <Name>
ligand

>  <RI>
0

>  <Rbt.Current_Directory>
/home/itssahil/PROJECTS/Mol_Feturizer/New_Systems/rnas/3E5F

>  <Rbt.Executable>
rbdock ($Id: //depot/dev/client3/rdock/2013.1/src/exe/rbdock.cxx#4 $)

>  <Rbt.Library>
libRbt.so (2013.1, Build901 2013/11/27)

>  <Rbt.Parameter_File>
/export/apps/rDock/src/rDock_2013.1_src/data/scripts/dock_solv.prm

>  <Rbt.Receptor>
prm/blind_docking_40.prm

>  <SCORE>
-12.7141

>  <SCORE.INTER>
-12.1254

>  <SCORE.INTER.CONST>
1

>  <SCORE.INTER.POLAR>
0

>  <SCORE.INTER.ROT>
7

>  <SCORE.INTER.SOLV>
10.7194

>  <SCORE.INTER.VDW>
-19.9234

>  <SCORE.INTER.norm>
-0.44909

>  <SCORE.INTRA>
-0.588685

>  <SCORE.INTRA.DIHEDRAL>
-0.850422

>  <SCORE.INTRA.DIHEDRAL.0>
4.89803

>  <SCORE.INTRA.POLAR>
0

>  <SCORE.INTRA.POLAR.0>
0

>  <SCORE.INTRA.REPUL>
0

>  <SCORE.INTRA.REPUL.0>
0

>  <SCORE.INTRA.SOLV>
0.951303

>  <SCORE.INTRA.SOLV.lig_0>
-48.5832

>  <SCORE.INTRA.VDW>
-0.639126

>  <SCORE.INTRA.VDW.0>
-2.39056

>  <SCORE.INTRA.norm>
-0.0218031

>  <SCORE.RESTR>
0

>  <SCORE.RESTR.CAVITY>
0

>  <SCORE.RESTR.norm>
0

>  <SCORE.SYSTEM>
0

>  <SCORE.SYSTEM.CONST>
0

>  <SCORE.SYSTEM.DIHEDRAL>
0

>  <SCORE.SYSTEM.SOLV>
0

>  <SCORE.SYSTEM.norm>
0

>  <SCORE.heavy>
27

>  <SCORE.norm>
-0.470893

>  <RMSD>
6.369

$$$$
ligand
 OpenBabel11021811473D
libRbt.so/2013.1/901 2013/11/27
 27 29  0  0  0  0  0  0  0  0999 V2000
   17.9855   -5.7622  -21.4272 N   0  0  0  0  0  0  0  0  0  0  0  0
   17.0823   -6.9180  -21.5282 C   0  0  2  0  0  0  0  0  0  0  0  0
   16.0312   -6.6663  -22.6136 C   0  0  0  0  0  0  0  0  0  0  0  0
   15.7116   -7.6401  -23.3300 O   0  0  0  0  0  0  0  0  0  0  0  0
   16.3808   -7.1150  -20.1833 C   0  0  0  0  0  0  0  0  0  0  0  0
   15.5079   -8.3725  -20.1695 C   0  0  0  0  0  0  0  0  0  0  0  0
   13.0733   -6.9278  -20.4050 C   0  0  0  0  0  0  0  0  0  0  0  0
   14.0600   -8.1902  -21.3205 Se  0  0  2  0  0  0  0  0  0  0  0  0
   12.9991   -9.7050  -21.1314 C   0  0  0  0  0  0  0  0  0  0  0  0
   13.6243  -10.9682  -21.7247 C   0  0  1  0  0  0  0  0  0  0  0  0
   12.9259  -12.1095  -21.1981 O   0  0  0  0  0  0  0  0  0  0  0  0
   13.3035  -10.9737  -23.2198 C   0  0  1  0  0  0  0  0  0  0  0  0
   14.0211  -12.0297  -23.8602 O   0  0  0  0  0  0  0  0  0  0  0  0
   11.8183  -11.3201  -23.1510 C   0  0  1  0  0  0  0  0  0  0  0  0
   11.4150  -11.8683  -24.4072 O   0  0  0  0  0  0  0  0  0  0  0  0
   11.8649  -12.4409  -22.1116 C   0  0  2  0  0  0  0  0  0  0  0  0
   15.5772   -5.5049  -22.7101 O   0  0  0  0  0  0  0  0  0  0  0  0
    7.7405  -15.4421  -21.3201 N   0  0  0  0  0  0  0  0  0  0  0  0
    8.7954  -15.6688  -22.0838 C   0  0  0  0  0  0  0  0  0  0  0  0
    9.7830  -14.7963  -22.1843 N   0  0  0  0  0  0  0  0  0  0  0  0
    9.7452  -13.6413  -21.5028 C   0  0  0  0  0  0  0  0  0  0  0  0
    8.6528  -13.3671  -20.6919 C   0  0  0  0  0  0  0  0  0  0  0  0
    7.6329  -14.3082  -20.6158 C   0  0  0  0  0  0  0  0  0  0  0  0
    6.5527  -14.0646  -19.8802 N   0  0  0  0  0  0  0  0  0  0  0  0
    8.8524  -12.1775  -20.1356 N   0  0  0  0  0  0  0  0  0  0  0  0
   10.0215  -11.7190  -20.5766 C   0  0  0  0  0  0  0  0  0  0  0  0
   10.5708  -12.6041  -21.4085 N   0  0  0  0  0  0  0  0  0  0  0  0
  2  1  1  1  0  0  0
  2  5  1  0  0  0  0
  2  3  1  0  0  0  0
  3 17  1  0  0  0  0
  3  4  1  0  0  0  0
  5  6  1  0  0  0  0
  7  8  1  0  0  0  0
  8  6  1  1  0  0  0
  8  9  1  0  0  0  0
 10  9  1  1  0  0  0
 10 11  1  0  0  0  0
 10 12  1  0  0  0  0
 11 16  1  0  0  0  0
 12 13  1  6  0  0  0
 12 14  1  0  0  0  0
 14 15  1  6  0  0  0
 14 16  1  0  0  0  0
 16 27  1  1  0  0  0
 18 23  2  0  0  0  0
 18 19  1  0  0  0  0
 19 20  2  0  0  0  0
 20 21  1  0  0  0  0
 21 22  2  0  0  0  0
 21 27  1  0  0  0  0
 22 23  1  0  0  0  0
 22 25  1  0  0  0  0
 23 24  1  0  0  0  0
 25 26  2  0  0  0  0
 26 27  1  0  0  0  0
M  END
>  <CHROM.1>
-175.23375551,141.30171003,-67.28452256,-69.90755870,-71.30796041,163.77582831
-128.36333647,12.63386414,-10.35816206,-21.64237812,0.51539631,0.62895426
0.75738155

>  <Name>
ligand

>  <RI>
0

>  <Rbt.Current_Directory>
/home/itssahil/PROJECTS/Mol_Feturizer/New_Systems/rnas/3E5F

>  <Rbt.Executable>
rbdock ($Id: //depot/dev/client3/rdock/2013.1/src/exe/rbdock.cxx#4 $)

>  <Rbt.Library>
libRbt.so (2013.1, Build901 2013/11/27)

>  <Rbt.Parameter_File>
/export/apps/rDock/src/rDock_2013.1_src/data/scripts/dock_solv.prm

>  <Rbt.Receptor>
prm/pocket_docking_8.prm

>  <SCORE>
-14.2859

>  <SCORE.INTER>
-12.9265

>  <SCORE.INTER.CONST>
1

>  <SCORE.INTER.POLAR>
0

>  <SCORE.INTER.ROT>
7

>  <SCORE.INTER.SOLV>
9.44487

>  <SCORE.INTER.VDW>
-20.0326

>  <SCORE.INTER.norm>
-0.478758

>  <SCORE.INTRA>
-1.35948

>  <SCORE.INTRA.DIHEDRAL>
-0.800546

>  <SCORE.INTRA.DIHEDRAL.0>
4.89803

>  <SCORE.INTRA.POLAR>
0

>  <SCORE.INTRA.POLAR.0>
0

>  <SCORE.INTRA.REPUL>
0

>  <SCORE.INTRA.REPUL.0>
0

>  <SCORE.INTRA.SOLV>
-0.0855318

>  <SCORE.INTRA.SOLV.lig_0>
-48.5832

>  <SCORE.INTRA.VDW>
-0.916439

>  <SCORE.INTRA.VDW.0>
-2.39056

>  <SCORE.INTRA.norm>
-0.050351

>  <SCORE.RESTR>
0

>  <SCORE.RESTR.CAVITY>
0

>  <SCORE.RESTR.norm>
0

>  <SCORE.SYSTEM>
0

>  <SCORE.SYSTEM.CONST>
0

>  <SCORE.SYSTEM.DIHEDRAL>
0

>  <SCORE.SYSTEM.SOLV>
0

>  <SCORE.SYSTEM.norm>
0

>  <SCORE.heavy>
27

>  <SCORE.norm>
-0.529109

>  <RMSD>
6.389

$$$$
ligand
 OpenBabel11021811473D
libRbt.so/2013.1/901 2013/11/27
 27 29  0  0  0  0  0  0  0  0999 V2000
   12.9832  -11.3149  -21.8681 N   0  0  0  0  0  0  0  0  0  0  0  0
   12.5536  -12.0523  -20.6709 C   0  0  2  0  0  0  0  0  0  0  0  0
   11.0273  -12.0082  -20.5499 C   0  0  0  0  0  0  0  0  0  0  0  0
   10.4687  -13.0112  -20.0545 O   0  0  0  0  0  0  0  0  0  0  0  0
   13.1761  -11.3958  -19.4373 C   0  0  0  0  0  0  0  0  0  0  0  0
   12.8486   -9.9028  -19.3543 C   0  0  0  0  0  0  0  0  0  0  0  0
   15.2812   -8.7410  -20.2504 C   0  0  0  0  0  0  0  0  0  0  0  0
   13.5418   -8.9872  -20.8157 Se  0  0  2  0  0  0  0  0  0  0  0  0
   12.8787   -7.2514  -20.7559 C   0  0  0  0  0  0  0  0  0  0  0  0
   12.4215   -6.8184  -19.3623 C   0  0  1  0  0  0  0  0  0  0  0  0
   13.5304   -6.9595  -18.4578 O   0  0  0  0  0  0  0  0  0  0  0  0
   12.1570   -5.3134  -19.4192 C   0  0  1  0  0  0  0  0  0  0  0  0
   11.5472   -4.8875  -18.1997 O   0  0  0  0  0  0  0  0  0  0  0  0
   13.5978   -4.8131  -19.4835 C   0  0  1  0  0  0  0  0  0  0  0  0
   13.6332   -3.4543  -19.0433 O   0  0  0  0  0  0  0  0  0  0  0  0
   14.2252   -5.7006  -18.4077 C   0  0  2  0  0  0  0  0  0  0  0  0
   10.4515  -10.9778  -20.9636 O   0  0  0  0  0  0  0  0  0  0  0  0
   18.3937   -4.3308  -21.1266 N   0  0  0  0  0  0  0  0  0  0  0  0
   17.1478   -3.9066  -21.2506 C   0  0  0  0  0  0  0  0  0  0  0  0
   16.1788   -4.3539  -20.4711 N   0  0  0  0  0  0  0  0  0  0  0  0
   16.4348   -5.2610  -19.5164 C   0  0  0  0  0  0  0  0  0  0  0  0
   17.7307   -5.7315  -19.3571 C   0  0  0  0  0  0  0  0  0  0  0  0
   18.7211   -5.2395  -20.1990 C   0  0  0  0  0  0  0  0  0  0  0  0
   19.9664   -5.6945  -20.1026 N   0  0  0  0  0  0  0  0  0  0  0  0
   17.7208   -6.6102  -18.3609 N   0  0  0  0  0  0  0  0  0  0  0  0
   16.4713   -6.6919  -17.9099 C   0  0  0  0  0  0  0  0  0  0  0  0
   15.6831   -5.8739  -18.6076 N   0  0  0  0  0  0  0  0  0  0  0  0
  2  1  1  6  0  0  0
  2  5  1  0  0  0  0
  2  3  1  0  0  0  0
  3 17  1  0  0  0  0
  3  4  1  0  0  0  0
  5  6  1  0  0  0  0
  7  8  1  0  0  0  0
  8  6  1  1  0  0  0
  8  9  1  0  0  0  0
 10  9  1  6  0  0  0
 10 11  1  0  0  0  0
 10 12  1  0  0  0  0
 11 16  1  0  0  0  0
 12 13  1  1  0  0  0
 12 14  1  0  0  0  0
 14 15  1  1  0  0  0
 14 16  1  0  0  0  0
 16 27  1  6  0  0  0
 18 23  2  0  0  0  0
 18 19  1  0  0  0  0
 19 20  2  0  0  0  0
 20 21  1  0  0  0  0
 21 22  2  0  0  0  0
 21 27  1  0  0  0  0
 22 23  1  0  0  0  0
 22 25  1  0  0  0  0
 23 24  1  0  0  0  0
 25 26  2  0  0  0  0
 26 27  1  0  0  0  0
M  END
>  <CHROM.1>
54.98324460,146.76307787,-62.08548553,-82.61724723,22.13959887,57.09627065
125.47766440,14.24627170,-7.59960435,-19.92601885,-2.26666570,0.15500938
0.25828246

>  <Name>
ligand

>  <RI>
0

>  <Rbt.Current_Directory>
/home/itssahil/PROJECTS/Mol_Feturizer/New_Systems/rnas/3E5F

>  <Rbt.Executable>
rbdock ($Id: //depot/dev/client3/rdock/2013.1/src/exe/rbdock.cxx#4 $)

>  <Rbt.Library>
libRbt.so (2013.1, Build901 2013/11/27)

>  <Rbt.Parameter_File>
/export/apps/rDock/src/rDock_2013.1_src/data/scripts/dock_solv.prm

>  <Rbt.Receptor>
prm/pocket_docking_4.prm

>  <SCORE>
-10.5037

>  <SCORE.INTER>
-11.5873

>  <SCORE.INTER.CONST>
1

>  <SCORE.INTER.POLAR>
0

>  <SCORE.INTER.ROT>
7

>  <SCORE.INTER.SOLV>
10.046

>  <SCORE.INTER.VDW>
-19.3402

>  <SCORE.INTER.norm>
-0.429158

>  <SCORE.INTRA>
1.08354

>  <SCORE.INTRA.DIHEDRAL>
-0.311058

>  <SCORE.INTRA.DIHEDRAL.0>
4.89803

>  <SCORE.INTRA.POLAR>
0

>  <SCORE.INTRA.POLAR.0>
0

>  <SCORE.INTRA.REPUL>
0

>  <SCORE.INTRA.REPUL.0>
0

>  <SCORE.INTRA.SOLV>
2.83116

>  <SCORE.INTRA.SOLV.lig_0>
-48.5832

>  <SCORE.INTRA.VDW>
-0.176508

>  <SCORE.INTRA.VDW.0>
-2.39056

>  <SCORE.INTRA.norm>
0.0401312

>  <SCORE.RESTR>
0

>  <SCORE.RESTR.CAVITY>
0

>  <SCORE.RESTR.norm>
0

>  <SCORE.SYSTEM>
0

>  <SCORE.SYSTEM.CONST>
0

>  <SCORE.SYSTEM.DIHEDRAL>
0

>  <SCORE.SYSTEM.SOLV>
0

>  <SCORE.SYSTEM.norm>
0

>  <SCORE.heavy>
27

>  <SCORE.norm>
-0.389027

>  <RMSD>
6.422

$$$$
ligand
 OpenBabel11021811473D
libRbt.so/2013.1/901 2013/11/27
 27 29  0  0  0  0  0  0  0  0999 V2000
   15.4151   -6.6357  -20.6672 N   0  0  0  0  0  0  0  0  0  0  0  0
   15.7983   -7.8011  -21.4776 C   0  0  2  0  0  0  0  0  0  0  0  0
   15.5064   -7.5279  -22.9562 C   0  0  0  0  0  0  0  0  0  0  0  0
   15.3535   -8.5235  -23.6972 O   0  0  0  0  0  0  0  0  0  0  0  0
   14.9831   -9.0111  -21.0181 C   0  0  0  0  0  0  0  0  0  0  0  0
   13.4763   -8.7591  -21.1154 C   0  0  0  0  0  0  0  0  0  0  0  0
   12.7992  -10.4065  -18.9023 C   0  0  0  0  0  0  0  0  0  0  0  0
   12.5168  -10.3018  -20.7230 Se  0  0  2  0  0  0  0  0  0  0  0  0
   13.5063  -11.7497  -21.3399 C   0  0  0  0  0  0  0  0  0  0  0  0
   13.4025  -11.9628  -22.8507 C   0  0  1  0  0  0  0  0  0  0  0  0
   12.5718  -13.1119  -23.0899 O   0  0  0  0  0  0  0  0  0  0  0  0
   12.6097  -10.7862  -23.4211 C   0  0  1  0  0  0  0  0  0  0  0  0
   12.6433  -10.8326  -24.8484 O   0  0  0  0  0  0  0  0  0  0  0  0
   11.2174  -11.1623  -22.9204 C   0  0  1  0  0  0  0  0  0  0  0  0
   10.2432  -10.5031  -23.7312 O   0  0  0  0  0  0  0  0  0  0  0  0
   11.2183  -12.6538  -23.2582 C   0  0  2  0  0  0  0  0  0  0  0  0
   15.4518   -6.3312  -23.3157 O   0  0  0  0  0  0  0  0  0  0  0  0
    8.1747  -12.6205  -19.0893 N   0  0  0  0  0  0  0  0  0  0  0  0
    8.9231  -11.6456  -19.5762 C   0  0  0  0  0  0  0  0  0  0  0  0
    9.6547  -11.8065  -20.6650 N   0  0  0  0  0  0  0  0  0  0  0  0
    9.6569  -12.9780  -21.3187 C   0  0  0  0  0  0  0  0  0  0  0  0
    8.8850  -14.0258  -20.8366 C   0  0  0  0  0  0  0  0  0  0  0  0
    8.1325  -13.8182  -19.6867 C   0  0  0  0  0  0  0  0  0  0  0  0
    7.4109  -14.8094  -19.1727 N   0  0  0  0  0  0  0  0  0  0  0  0
    9.0596  -15.0620  -21.6491 N   0  0  0  0  0  0  0  0  0  0  0  0
    9.9065  -14.6853  -22.6043 C   0  0  0  0  0  0  0  0  0  0  0  0
   10.2741  -13.4186  -22.4102 N   0  0  0  0  0  0  0  0  0  0  0  0
  2  1  1  1  0  0  0
  2  5  1  0  0  0  0
  2  3  1  0  0  0  0
  3 17  1  0  0  0  0
  3  4  1  0  0  0  0
  5  6  1  0  0  0  0
  7  8  1  0  0  0  0
  8  6  1  6  0  0  0
  8  9  1  0  0  0  0
 10  9  1  1  0  0  0
 10 11  1  0  0  0  0
 10 12  1  0  0  0  0
 11 16  1  0  0  0  0
 12 13  1  6  0  0  0
 12 14  1  0  0  0  0
 14 15  1  6  0  0  0
 14 16  1  0  0  0  0
 16 27  1  1  0  0  0
 18 23  2  0  0  0  0
 18 19  1  0  0  0  0
 19 20  2  0  0  0  0
 20 21  1  0  0  0  0
 21 22  2  0  0  0  0
 21 27  1  0  0  0  0
 22 23  1  0  0  0  0
 22 25  1  0  0  0  0
 23 24  1  0  0  0  0
 25 26  2  0  0  0  0
 26 27  1  0  0  0  0
M  END
>  <CHROM.1>
57.37397818,-156.98833134,174.01951047,71.87826404,-78.20334589,-106.29882594
107.70604587,11.98117783,-11.02052642,-21.61119743,0.11466899,0.76261126
1.15690667

>  <Name>
ligand

>  <RI>
0

>  <Rbt.Current_Directory>
/home/itssahil/PROJECTS/Mol_Feturizer/New_Systems/rnas/3E5F

>  <Rbt.Executable>
rbdock ($Id: //depot/dev/client3/rdock/2013.1/src/exe/rbdock.cxx#4 $)

>  <Rbt.Library>
libRbt.so (2013.1, Build901 2013/11/27)

>  <Rbt.Parameter_File>
/export/apps/rDock/src/rDock_2013.1_src/data/scripts/dock_solv.prm

>  <Rbt.Receptor>
prm/blind_docking_60.prm

>  <SCORE>
-13.0553

>  <SCORE.INTER>
-15.9124

>  <SCORE.INTER.CONST>
1

>  <SCORE.INTER.POLAR>
0

>  <SCORE.INTER.ROT>
7

>  <SCORE.INTER.SOLV>
13.3724

>  <SCORE.INTER.VDW>
-23.3324

>  <SCORE.INTER.norm>
-0.589349

>  <SCORE.INTRA>
2.85715

>  <SCORE.INTRA.DIHEDRAL>
3.21657

>  <SCORE.INTRA.DIHEDRAL.0>
4.89803

>  <SCORE.INTRA.POLAR>
0

>  <SCORE.INTRA.POLAR.0>
0

>  <SCORE.INTRA.REPUL>
0

>  <SCORE.INTRA.REPUL.0>
0

>  <SCORE.INTRA.SOLV>
0.947681

>  <SCORE.INTRA.SOLV.lig_0>
-48.5832

>  <SCORE.INTRA.VDW>
0.775027

>  <SCORE.INTRA.VDW.0>
-2.39056

>  <SCORE.INTRA.norm>
0.10582

>  <SCORE.RESTR>
0

>  <SCORE.RESTR.CAVITY>
0

>  <SCORE.RESTR.norm>
0

>  <SCORE.SYSTEM>
0

>  <SCORE.SYSTEM.CONST>
0

>  <SCORE.SYSTEM.DIHEDRAL>
0

>  <SCORE.SYSTEM.SOLV>
0

>  <SCORE.SYSTEM.norm>
0

>  <SCORE.heavy>
27

>  <SCORE.norm>
-0.483529

>  <RMSD>
6.455

$$$$
ligand
 OpenBabel11021811473D
libRbt.so/2013.1/901 2013/11/27
 27 29  0  0  0  0  0  0  0  0999 V2000
    6.5516  -13.4257  -17.5753 N   0  0  0  0  0  0  0  0  0  0  0  0
    6.6944  -13.6757  -19.0172 C   0  0  2  0  0  0  0  0  0  0  0  0
    8.1275  -14.1154  -19.3316 C   0  0  0  0  0  0  0  0  0  0  0  0
    8.3737  -14.4429  -20.5130 O   0  0  0  0  0  0  0  0  0  0  0  0
    6.3860  -12.3832  -19.7749 C   0  0  0  0  0  0  0  0  0  0  0  0
    7.0549  -11.1662  -19.1307 C   0  0  0  0  0  0  0  0  0  0  0  0
    8.9587  -10.4542  -17.1461 C   0  0  0  0  0  0  0  0  0  0  0  0
    8.7967  -11.5594  -18.6150 Se  0  0  2  0  0  0  0  0  0  0  0  0
    9.9400  -10.7388  -19.8297 C   0  0  0  0  0  0  0  0  0  0  0  0
    9.8236  -11.2927  -21.2504 C   0  0  1  0  0  0  0  0  0  0  0  0
   10.4562  -10.3671  -22.1507 O   0  0  0  0  0  0  0  0  0  0  0  0
   10.6886  -12.5518  -21.3183 C   0  0  1  0  0  0  0  0  0  0  0  0
   10.4700  -13.2170  -22.5633 O   0  0  0  0  0  0  0  0  0  0  0  0
   12.0698  -11.9016  -21.3108 C   0  0  1  0  0  0  0  0  0  0  0  0
   13.0138  -12.8199  -21.8646 O   0  0  0  0  0  0  0  0  0  0  0  0
   11.8268  -10.7731  -22.3139 C   0  0  2  0  0  0  0  0  0  0  0  0
    8.9431  -14.1239  -18.3834 O   0  0  0  0  0  0  0  0  0  0  0  0
   15.4820   -7.7834  -24.3985 N   0  0  0  0  0  0  0  0  0  0  0  0
   14.8135   -8.7811  -24.9508 C   0  0  0  0  0  0  0  0  0  0  0  0
   13.8962   -9.4590  -24.2832 N   0  0  0  0  0  0  0  0  0  0  0  0
   13.6102   -9.1484  -23.0098 C   0  0  0  0  0  0  0  0  0  0  0  0
   14.2927   -8.1079  -22.3952 C   0  0  0  0  0  0  0  0  0  0  0  0
   15.2528   -7.4217  -23.1296 C   0  0  0  0  0  0  0  0  0  0  0  0
   15.9544   -6.4447  -22.5636 N   0  0  0  0  0  0  0  0  0  0  0  0
   13.8340   -8.0032  -21.1530 N   0  0  0  0  0  0  0  0  0  0  0  0
   12.9012   -8.9383  -20.9892 C   0  0  0  0  0  0  0  0  0  0  0  0
   12.7592   -9.6389  -22.1145 N   0  0  0  0  0  0  0  0  0  0  0  0
  2  1  1  1  0  0  0
  2  5  1  0  0  0  0
  2  3  1  0  0  0  0
  3 17  1  0  0  0  0
  3  4  1  0  0  0  0
  5  6  1  0  0  0  0
  7  8  1  0  0  0  0
  8  6  1  6  0  0  0
  8  9  1  0  0  0  0
 10  9  1  1  0  0  0
 10 11  1  0  0  0  0
 10 12  1  0  0  0  0
 11 16  1  0  0  0  0
 12 13  1  6  0  0  0
 12 14  1  0  0  0  0
 14 15  1  6  0  0  0
 14 16  1  0  0  0  0
 16 27  1  1  0  0  0
 18 23  2  0  0  0  0
 18 19  1  0  0  0  0
 19 20  2  0  0  0  0
 20 21  1  0  0  0  0
 21 22  2  0  0  0  0
 21 27  1  0  0  0  0
 22 23  1  0  0  0  0
 22 25  1  0  0  0  0
 23 24  1  0  0  0  0
 25 26  2  0  0  0  0
 26 27  1  0  0  0  0
M  END
>  <CHROM.1>
44.44100851,175.71809948,42.36695096,-148.81761837,-64.71268012,164.41358702
-119.08045434,10.72711158,-11.02225571,-20.73311126,3.06364771,-0.74331348
-2.47995811

>  <Name>
ligand

>  <RI>
0

>  <Rbt.Current_Directory>
/home/itssahil/PROJECTS/Mol_Feturizer/New_Systems/rnas/3E5F

>  <Rbt.Executable>
rbdock ($Id: //depot/dev/client3/rdock/2013.1/src/exe/rbdock.cxx#4 $)

>  <Rbt.Library>
libRbt.so (2013.1, Build901 2013/11/27)

>  <Rbt.Parameter_File>
/export/apps/rDock/src/rDock_2013.1_src/data/scripts/dock_solv.prm

>  <Rbt.Receptor>
prm/blind_docking_40.prm

>  <SCORE>
-13.8837

>  <SCORE.INTER>
-14.6246

>  <SCORE.INTER.CONST>
1

>  <SCORE.INTER.POLAR>
0

>  <SCORE.INTER.ROT>
7

>  <SCORE.INTER.SOLV>
13.0745

>  <SCORE.INTER.VDW>
-22.3746

>  <SCORE.INTER.norm>
-0.541653

>  <SCORE.INTRA>
0.73432

>  <SCORE.INTRA.DIHEDRAL>
2.4362

>  <SCORE.INTRA.DIHEDRAL.0>
4.89803

>  <SCORE.INTRA.POLAR>
0

>  <SCORE.INTRA.POLAR.0>
0

>  <SCORE.INTRA.REPUL>
0

>  <SCORE.INTRA.REPUL.0>
0

>  <SCORE.INTRA.SOLV>
2.09211

>  <SCORE.INTRA.SOLV.lig_0>
-48.5832

>  <SCORE.INTRA.VDW>
-1.52984

>  <SCORE.INTRA.VDW.0>
-2.39056

>  <SCORE.INTRA.norm>
0.027197

>  <SCORE.RESTR>
0.00661588

>  <SCORE.RESTR.CAVITY>
0.00661588

>  <SCORE.RESTR.norm>
0.000245033

>  <SCORE.SYSTEM>
0

>  <SCORE.SYSTEM.CONST>
0

>  <SCORE.SYSTEM.DIHEDRAL>
0

>  <SCORE.SYSTEM.SOLV>
0

>  <SCORE.SYSTEM.norm>
0

>  <SCORE.heavy>
27

>  <SCORE.norm>
-0.514211

>  <RMSD>
6.466

$$$$
ligand
 OpenBabel11021811473D
libRbt.so/2013.1/901 2013/11/27
 27 29  0  0  0  0  0  0  0  0999 V2000
   17.0395   -8.1657  -18.7992 N   0  0  0  0  0  0  0  0  0  0  0  0
   17.0788   -8.0391  -20.2635 C   0  0  2  0  0  0  0  0  0  0  0  0
   17.6181   -6.6597  -20.6543 C   0  0  0  0  0  0  0  0  0  0  0  0
   17.6172   -5.7785  -19.7671 O   0  0  0  0  0  0  0  0  0  0  0  0
   15.6593   -8.1987  -20.8108 C   0  0  0  0  0  0  0  0  0  0  0  0
   14.7058   -7.1394  -20.2521 C   0  0  0  0  0  0  0  0  0  0  0  0
   12.1575   -5.8844  -20.2142 C   0  0  0  0  0  0  0  0  0  0  0  0
   12.9842   -7.3804  -20.9099 Se  0  0  2  0  0  0  0  0  0  0  0  0
   12.1916   -8.7409  -19.9215 C   0  0  0  0  0  0  0  0  0  0  0  0
   12.7043  -10.1364  -20.2798 C   0  0  1  0  0  0  0  0  0  0  0  0
   11.8945  -11.1064  -19.5935 O   0  0  0  0  0  0  0  0  0  0  0  0
   12.4061  -10.3621  -21.7625 C   0  0  1  0  0  0  0  0  0  0  0  0
   13.0309  -11.5704  -22.1985 O   0  0  0  0  0  0  0  0  0  0  0  0
   10.8942  -10.5573  -21.6819 C   0  0  1  0  0  0  0  0  0  0  0  0
   10.4596  -11.2687  -22.8422 O   0  0  0  0  0  0  0  0  0  0  0  0
   10.8205  -11.4886  -20.4712 C   0  0  2  0  0  0  0  0  0  0  0  0
   18.0106   -6.5132  -21.8328 O   0  0  0  0  0  0  0  0  0  0  0  0
    6.8324  -14.1137  -18.5094 N   0  0  0  0  0  0  0  0  0  0  0  0
    7.9313  -14.5794  -19.0777 C   0  0  0  0  0  0  0  0  0  0  0  0
    8.8740  -13.7739  -19.5352 N   0  0  0  0  0  0  0  0  0  0  0  0
    8.7434  -12.4427  -19.4320 C   0  0  0  0  0  0  0  0  0  0  0  0
    7.6024  -11.9163  -18.8429 C   0  0  0  0  0  0  0  0  0  0  0  0
    6.6322  -12.7961  -18.3777 C   0  0  0  0  0  0  0  0  0  0  0  0
    5.5085  -12.3292  -17.8424 N   0  0  0  0  0  0  0  0  0  0  0  0
    7.7124  -10.5927  -18.8633 N   0  0  0  0  0  0  0  0  0  0  0  0
    8.8737  -10.2950  -19.4414 C   0  0  0  0  0  0  0  0  0  0  0  0
    9.5068  -11.4153  -19.7898 N   0  0  0  0  0  0  0  0  0  0  0  0
  2  1  1  1  0  0  0
  2  5  1  0  0  0  0
  2  3  1  0  0  0  0
  3 17  1  0  0  0  0
  3  4  1  0  0  0  0
  5  6  1  0  0  0  0
  7  8  1  0  0  0  0
  8  6  1  1  0  0  0
  8  9  1  0  0  0  0
 10  9  1  1  0  0  0
 10 11  1  0  0  0  0
 10 12  1  0  0  0  0
 11 16  1  0  0  0  0
 12 13  1  1  0  0  0
 12 14  1  0  0  0  0
 14 15  1  6  0  0  0
 14 16  1  0  0  0  0
 16 27  1  1  0  0  0
 18 23  2  0  0  0  0
 18 19  1  0  0  0  0
 19 20  2  0  0  0  0
 20 21  1  0  0  0  0
 21 22  2  0  0  0  0
 21 27  1  0  0  0  0
 22 23  1  0  0  0  0
 22 25  1  0  0  0  0
 23 24  1  0  0  0  0
 25 26  2  0  0  0  0
 26 27  1  0  0  0  0
M  END
>  <CHROM.1>
59.78370260,-17.17896260,-178.90338993,-174.24552184,-74.73214156,-172.08047813
-109.61852487,11.98226691,-9.64672616,-20.23610467,-0.55047250,-0.29129838
-2.95846012

>  <Name>
ligand

>  <RI>
0

>  <Rbt.Current_Directory>
/home/itssahil/PROJECTS/Mol_Feturizer/New_Systems/rnas/3E5F

>  <Rbt.Executable>
rbdock ($Id: //depot/dev/client3/rdock/2013.1/src/exe/rbdock.cxx#4 $)

>  <Rbt.Library>
libRbt.so (2013.1, Build901 2013/11/27)

>  <Rbt.Parameter_File>
/export/apps/rDock/src/rDock_2013.1_src/data/scripts/dock_solv.prm

>  <Rbt.Receptor>
prm/blind_docking_100.prm

>  <SCORE>
-12.0798

>  <SCORE.INTER>
-12.0482

>  <SCORE.INTER.CONST>
1

>  <SCORE.INTER.POLAR>
0

>  <SCORE.INTER.ROT>
7

>  <SCORE.INTER.SOLV>
8.06087

>  <SCORE.INTER.VDW>
-18.9857

>  <SCORE.INTER.norm>
-0.446228

>  <SCORE.INTRA>
-0.0316238

>  <SCORE.INTRA.DIHEDRAL>
-1.38823

>  <SCORE.INTRA.DIHEDRAL.0>
4.89803

>  <SCORE.INTRA.POLAR>
0

>  <SCORE.INTRA.POLAR.0>
0

>  <SCORE.INTRA.REPUL>
0

>  <SCORE.INTRA.REPUL.0>
0

>  <SCORE.INTRA.SOLV>
0.662414

>  <SCORE.INTRA.SOLV.lig_0>
-48.5832

>  <SCORE.INTRA.VDW>
0.331284

>  <SCORE.INTRA.VDW.0>
-2.39056

>  <SCORE.INTRA.norm>
-0.00117125

>  <SCORE.RESTR>
0

>  <SCORE.RESTR.CAVITY>
0

>  <SCORE.RESTR.norm>
0

>  <SCORE.SYSTEM>
0

>  <SCORE.SYSTEM.CONST>
0

>  <SCORE.SYSTEM.DIHEDRAL>
0

>  <SCORE.SYSTEM.SOLV>
0

>  <SCORE.SYSTEM.norm>
0

>  <SCORE.heavy>
27

>  <SCORE.norm>
-0.4474

>  <RMSD>
6.483

$$$$
ligand
 OpenBabel11021811473D
libRbt.so/2013.1/901 2013/11/27
 27 29  0  0  0  0  0  0  0  0999 V2000
    9.8765   -8.9146  -16.9705 N   0  0  0  0  0  0  0  0  0  0  0  0
   10.9525   -7.9151  -16.9003 C   0  0  2  0  0  0  0  0  0  0  0  0
   10.6597   -6.7636  -17.8669 C   0  0  0  0  0  0  0  0  0  0  0  0
    9.8939   -7.0082  -18.8247 O   0  0  0  0  0  0  0  0  0  0  0  0
   12.2715   -8.5816  -17.2951 C   0  0  0  0  0  0  0  0  0  0  0  0
   12.2365   -9.1206  -18.7275 C   0  0  0  0  0  0  0  0  0  0  0  0
   14.6862   -7.8654  -19.4302 C   0  0  0  0  0  0  0  0  0  0  0  0
   13.9452   -9.5518  -19.3182 Se  0  0  2  0  0  0  0  0  0  0  0  0
   13.8159  -10.0246  -21.1115 C   0  0  0  0  0  0  0  0  0  0  0  0
   13.9566  -11.5269  -21.3601 C   0  0  1  0  0  0  0  0  0  0  0  0
   12.9501  -12.2092  -20.5926 O   0  0  0  0  0  0  0  0  0  0  0  0
   13.5722  -11.7832  -22.8178 C   0  0  1  0  0  0  0  0  0  0  0  0
   13.8657  -13.1386  -23.1598 O   0  0  0  0  0  0  0  0  0  0  0  0
   12.0618  -11.5883  -22.7114 C   0  0  1  0  0  0  0  0  0  0  0  0
   11.4334  -12.2549  -23.8077 O   0  0  0  0  0  0  0  0  0  0  0  0
   11.7917  -12.3770  -21.4293 C   0  0  2  0  0  0  0  0  0  0  0  0
   11.2146   -5.6672  -17.6335 O   0  0  0  0  0  0  0  0  0  0  0  0
    7.7895  -13.6993  -18.4497 N   0  0  0  0  0  0  0  0  0  0  0  0
    8.7892  -14.4521  -18.8758 C   0  0  0  0  0  0  0  0  0  0  0  0
    9.7514  -13.9651  -19.6398 N   0  0  0  0  0  0  0  0  0  0  0  0
    9.7438  -12.6748  -20.0073 C   0  0  0  0  0  0  0  0  0  0  0  0
    8.7095  -11.8536  -19.5809 C   0  0  0  0  0  0  0  0  0  0  0  0
    7.7144  -12.4042  -18.7819 C   0  0  0  0  0  0  0  0  0  0  0  0
    6.6873  -11.6590  -18.3856 N   0  0  0  0  0  0  0  0  0  0  0  0
    8.9289  -10.6400  -20.0743 N   0  0  0  0  0  0  0  0  0  0  0  0
   10.0542  -10.6921  -20.7832 C   0  0  0  0  0  0  0  0  0  0  0  0
   10.5560  -11.9266  -20.7469 N   0  0  0  0  0  0  0  0  0  0  0  0
  2  1  1  6  0  0  0
  2  5  1  0  0  0  0
  2  3  1  0  0  0  0
  3 17  1  0  0  0  0
  3  4  1  0  0  0  0
  5  6  1  0  0  0  0
  7  8  1  0  0  0  0
  8  6  1  6  0  0  0
  8  9  1  0  0  0  0
 10  9  1  1  0  0  0
 10 11  1  0  0  0  0
 10 12  1  0  0  0  0
 11 16  1  0  0  0  0
 12 13  1  1  0  0  0
 12 14  1  0  0  0  0
 14 15  1  6  0  0  0
 14 16  1  0  0  0  0
 16 27  1  1  0  0  0
 18 23  2  0  0  0  0
 18 19  1  0  0  0  0
 19 20  2  0  0  0  0
 20 21  1  0  0  0  0
 21 22  2  0  0  0  0
 21 27  1  0  0  0  0
 22 23  1  0  0  0  0
 22 25  1  0  0  0  0
 23 24  1  0  0  0  0
 25 26  2  0  0  0  0
 26 27  1  0  0  0  0
M  END
>  <CHROM.1>
61.26677537,-22.80605050,166.47939596,-68.46913423,-106.17914049,57.16494438
-91.15294474,11.52590080,-10.52636990,-19.77140433,1.00928798,0.42405506
0.62825759

>  <Name>
ligand

>  <RI>
0

>  <Rbt.Current_Directory>
/home/itssahil/PROJECTS/Mol_Feturizer/New_Systems/rnas/3E5F

>  <Rbt.Executable>
rbdock ($Id: //depot/dev/client3/rdock/2013.1/src/exe/rbdock.cxx#4 $)

>  <Rbt.Library>
libRbt.so (2013.1, Build901 2013/11/27)

>  <Rbt.Parameter_File>
/export/apps/rDock/src/rDock_2013.1_src/data/scripts/dock_solv.prm

>  <Rbt.Receptor>
prm/pocket_docking_6.prm

>  <SCORE>
-13.1386

>  <SCORE.INTER>
-13.8019

>  <SCORE.INTER.CONST>
1

>  <SCORE.INTER.POLAR>
0

>  <SCORE.INTER.ROT>
7

>  <SCORE.INTER.SOLV>
6.96539

>  <SCORE.INTER.VDW>
-19.7897

>  <SCORE.INTER.norm>
-0.511181

>  <SCORE.INTRA>
0.663294

>  <SCORE.INTRA.DIHEDRAL>
0.342838

>  <SCORE.INTRA.DIHEDRAL.0>
4.89803

>  <SCORE.INTRA.POLAR>
0

>  <SCORE.INTRA.POLAR.0>
0

>  <SCORE.INTRA.REPUL>
0

>  <SCORE.INTRA.REPUL.0>
0

>  <SCORE.INTRA.SOLV>
0.897201

>  <SCORE.INTRA.SOLV.lig_0>
-48.5832

>  <SCORE.INTRA.VDW>
0.0432745

>  <SCORE.INTRA.VDW.0>
-2.39056

>  <SCORE.INTRA.norm>
0.0245664

>  <SCORE.RESTR>
0

>  <SCORE.RESTR.CAVITY>
0

>  <SCORE.RESTR.norm>
0

>  <SCORE.SYSTEM>
0

>  <SCORE.SYSTEM.CONST>
0

>  <SCORE.SYSTEM.DIHEDRAL>
0

>  <SCORE.SYSTEM.SOLV>
0

>  <SCORE.SYSTEM.norm>
0

>  <SCORE.heavy>
27

>  <SCORE.norm>
-0.486615

>  <RMSD>
6.484

$$$$
ligand
 OpenBabel11021811473D
libRbt.so/2013.1/901 2013/11/27
 27 29  0  0  0  0  0  0  0  0999 V2000
    6.2695  -11.5627  -17.3145 N   0  0  0  0  0  0  0  0  0  0  0  0
    6.2847  -10.6824  -18.4921 C   0  0  2  0  0  0  0  0  0  0  0  0
    5.8597  -11.4675  -19.7367 C   0  0  0  0  0  0  0  0  0  0  0  0
    5.0337  -10.9188  -20.4984 O   0  0  0  0  0  0  0  0  0  0  0  0
    7.7050  -10.1507  -18.6922 C   0  0  0  0  0  0  0  0  0  0  0  0
    8.7338  -11.2805  -18.7830 C   0  0  0  0  0  0  0  0  0  0  0  0
    9.5881  -13.6039  -20.1767 C   0  0  0  0  0  0  0  0  0  0  0  0
    8.8306  -11.9549  -20.5123 Se  0  0  2  0  0  0  0  0  0  0  0  0
   10.2186  -11.0742  -21.3807 C   0  0  0  0  0  0  0  0  0  0  0  0
   10.3190  -11.4085  -22.8696 C   0  0  1  0  0  0  0  0  0  0  0  0
   11.1016  -10.3870  -23.5113 O   0  0  0  0  0  0  0  0  0  0  0  0
   11.1626  -12.6779  -22.9934 C   0  0  1  0  0  0  0  0  0  0  0  0
   11.1324  -13.1438  -24.3434 O   0  0  0  0  0  0  0  0  0  0  0  0
   12.5359  -12.0921  -22.6751 C   0  0  1  0  0  0  0  0  0  0  0  0
   13.5400  -12.9566  -23.2097 O   0  0  0  0  0  0  0  0  0  0  0  0
   12.4737  -10.8198  -23.5212 C   0  0  2  0  0  0  0  0  0  0  0  0
    6.3618  -12.6021  -19.8950 O   0  0  0  0  0  0  0  0  0  0  0  0
   16.0333   -7.2675  -24.6853 N   0  0  0  0  0  0  0  0  0  0  0  0
   15.3815   -8.0835  -25.4958 C   0  0  0  0  0  0  0  0  0  0  0  0
   14.4883   -8.9467  -25.0446 N   0  0  0  0  0  0  0  0  0  0  0  0
   14.2105   -9.0189  -23.7340 C   0  0  0  0  0  0  0  0  0  0  0  0
   14.8759   -8.1793  -22.8518 C   0  0  0  0  0  0  0  0  0  0  0  0
   15.8109   -7.2881  -23.3649 C   0  0  0  0  0  0  0  0  0  0  0  0
   16.4964   -6.4949  -22.5474 N   0  0  0  0  0  0  0  0  0  0  0  0
   14.4298   -8.4444  -21.6291 N   0  0  0  0  0  0  0  0  0  0  0  0
   13.5210   -9.4112  -21.7339 C   0  0  0  0  0  0  0  0  0  0  0  0
   13.3818   -9.7657  -23.0115 N   0  0  0  0  0  0  0  0  0  0  0  0
  2  1  1  1  0  0  0
  2  5  1  0  0  0  0
  2  3  1  0  0  0  0
  3 17  1  0  0  0  0
  3  4  1  0  0  0  0
  5  6  1  0  0  0  0
  7  8  1  0  0  0  0
  8  6  1  1  0  0  0
  8  9  1  0  0  0  0
 10  9  1  1  0  0  0
 10 11  1  0  0  0  0
 10 12  1  0  0  0  0
 11 16  1  0  0  0  0
 12 13  1  6  0  0  0
 12 14  1  0  0  0  0
 14 15  1  6  0  0  0
 14 16  1  0  0  0  0
 16 27  1  1  0  0  0
 18 23  2  0  0  0  0
 18 19  1  0  0  0  0
 19 20  2  0  0  0  0
 20 21  1  0  0  0  0
 21 22  2  0  0  0  0
 21 27  1  0  0  0  0
 22 23  1  0  0  0  0
 22 25  1  0  0  0  0
 23 24  1  0  0  0  0
 25 26  2  0  0  0  0
 26 27  1  0  0  0  0
M  END
>  <CHROM.1>
54.58645954,134.67798682,84.00546758,-159.60426641,-173.35030225,161.58908017
-106.34826701,10.86239145,-10.73138444,-21.71583601,3.10561350,-0.59140733
-2.55778208

>  <Name>
ligand

>  <RI>
0

>  <Rbt.Current_Directory>
/home/itssahil/PROJECTS/Mol_Feturizer/New_Systems/rnas/3E5F

>  <Rbt.Executable>
rbdock ($Id: //depot/dev/client3/rdock/2013.1/src/exe/rbdock.cxx#4 $)

>  <Rbt.Library>
libRbt.so (2013.1, Build901 2013/11/27)

>  <Rbt.Parameter_File>
/export/apps/rDock/src/rDock_2013.1_src/data/scripts/dock_solv.prm

>  <Rbt.Receptor>
prm/blind_docking_80.prm

>  <SCORE>
-20.8797

>  <SCORE.INTER>
-22.3333

>  <SCORE.INTER.CONST>
1

>  <SCORE.INTER.POLAR>
0

>  <SCORE.INTER.ROT>
7

>  <SCORE.INTER.SOLV>
13.506

>  <SCORE.INTER.VDW>
-27.6576

>  <SCORE.INTER.norm>
-0.82716

>  <SCORE.INTRA>
1.45367

>  <SCORE.INTRA.DIHEDRAL>
2.41886

>  <SCORE.INTRA.DIHEDRAL.0>
4.89803

>  <SCORE.INTRA.POLAR>
0

>  <SCORE.INTRA.POLAR.0>
0

>  <SCORE.INTRA.REPUL>
0

>  <SCORE.INTRA.REPUL.0>
0

>  <SCORE.INTRA.SOLV>
0.696579

>  <SCORE.INTRA.SOLV.lig_0>
-48.5832

>  <SCORE.INTRA.VDW>
-0.104046

>  <SCORE.INTRA.VDW.0>
-2.39056

>  <SCORE.INTRA.norm>
0.0538398

>  <SCORE.RESTR>
0

>  <SCORE.RESTR.CAVITY>
0

>  <SCORE.RESTR.norm>
0

>  <SCORE.SYSTEM>
0

>  <SCORE.SYSTEM.CONST>
0

>  <SCORE.SYSTEM.DIHEDRAL>
0

>  <SCORE.SYSTEM.SOLV>
0

>  <SCORE.SYSTEM.norm>
0

>  <SCORE.heavy>
27

>  <SCORE.norm>
-0.773321

>  <RMSD>
6.496

$$$$
ligand
 OpenBabel11021811473D
libRbt.so/2013.1/901 2013/11/27
 27 29  0  0  0  0  0  0  0  0999 V2000
    5.0116  -12.0845  -19.0338 N   0  0  0  0  0  0  0  0  0  0  0  0
    6.4720  -12.1928  -18.9017 C   0  0  2  0  0  0  0  0  0  0  0  0
    6.8307  -12.7760  -17.5315 C   0  0  0  0  0  0  0  0  0  0  0  0
    8.0470  -12.8972  -17.2677 O   0  0  0  0  0  0  0  0  0  0  0  0
    7.0839  -10.7968  -19.0311 C   0  0  0  0  0  0  0  0  0  0  0  0
    8.5940  -10.8521  -19.2760 C   0  0  0  0  0  0  0  0  0  0  0  0
    9.7198  -13.3444  -20.0449 C   0  0  0  0  0  0  0  0  0  0  0  0
    8.9846  -11.8325  -20.8059 Se  0  0  2  0  0  0  0  0  0  0  0  0
   10.4714  -11.0545  -21.6061 C   0  0  0  0  0  0  0  0  0  0  0  0
   10.5958  -11.3645  -23.0984 C   0  0  1  0  0  0  0  0  0  0  0  0
   11.4242  -10.3565  -23.7028 O   0  0  0  0  0  0  0  0  0  0  0  0
   11.4024  -12.6572  -23.2273 C   0  0  1  0  0  0  0  0  0  0  0  0
   11.3890  -13.0972  -24.5862 O   0  0  0  0  0  0  0  0  0  0  0  0
   12.7855  -12.1207  -22.8671 C   0  0  1  0  0  0  0  0  0  0  0  0
   13.7744  -13.0063  -23.3952 O   0  0  0  0  0  0  0  0  0  0  0  0
   12.7822  -10.8318  -23.6901 C   0  0  2  0  0  0  0  0  0  0  0  0
    5.8824  -13.0967  -16.7816 O   0  0  0  0  0  0  0  0  0  0  0  0
   16.0632   -6.9839  -24.7262 N   0  0  0  0  0  0  0  0  0  0  0  0
   15.3460   -7.7098  -25.5667 C   0  0  0  0  0  0  0  0  0  0  0  0
   14.5407   -8.6696  -25.1462 N   0  0  0  0  0  0  0  0  0  0  0  0
   14.4231   -8.9369  -23.8367 C   0  0  0  0  0  0  0  0  0  0  0  0
   15.1616   -8.1970  -22.9239 C   0  0  0  0  0  0  0  0  0  0  0  0
   16.0001   -7.1988  -23.4060 C   0  0  0  0  0  0  0  0  0  0  0  0
   16.7523   -6.4949  -22.5657 N   0  0  0  0  0  0  0  0  0  0  0  0
   14.8727   -8.6510  -21.7095 N   0  0  0  0  0  0  0  0  0  0  0  0
   13.9891   -9.6365  -21.8488 C   0  0  0  0  0  0  0  0  0  0  0  0
   13.7104   -9.8162  -23.1401 N   0  0  0  0  0  0  0  0  0  0  0  0
  2  1  1  1  0  0  0
  2  5  1  0  0  0  0
  2  3  1  0  0  0  0
  3 17  1  0  0  0  0
  3  4  1  0  0  0  0
  5  6  1  0  0  0  0
  7  8  1  0  0  0  0
  8  6  1  1  0  0  0
  8  9  1  0  0  0  0
 10  9  1  1  0  0  0
 10 11  1  0  0  0  0
 10 12  1  0  0  0  0
 11 16  1  0  0  0  0
 12 13  1  6  0  0  0
 12 14  1  0  0  0  0
 14 15  1  6  0  0  0
 14 16  1  0  0  0  0
 16 27  1  1  0  0  0
 18 23  2  0  0  0  0
 18 19  1  0  0  0  0
 19 20  2  0  0  0  0
 20 21  1  0  0  0  0
 21 22  2  0  0  0  0
 21 27  1  0  0  0  0
 22 23  1  0  0  0  0
 22 25  1  0  0  0  0
 23 24  1  0  0  0  0
 25 26  2  0  0  0  0
 26 27  1  0  0  0  0
M  END
>  <CHROM.1>
-164.88485184,-178.44128116,57.73792089,-108.61827760,-157.39006776,158.45119509
-94.90554608,11.09118050,-10.87507335,-21.64287485,-3.05056613,-0.67389783
-2.34638185

>  <Name>
ligand

>  <RI>
0

>  <Rbt.Current_Directory>
/home/itssahil/PROJECTS/Mol_Feturizer/New_Systems/rnas/3E5F

>  <Rbt.Executable>
rbdock ($Id: //depot/dev/client3/rdock/2013.1/src/exe/rbdock.cxx#4 $)

>  <Rbt.Library>
libRbt.so (2013.1, Build901 2013/11/27)

>  <Rbt.Parameter_File>
/export/apps/rDock/src/rDock_2013.1_src/data/scripts/dock_solv.prm

>  <Rbt.Receptor>
prm/blind_docking_80.prm

>  <SCORE>
-20.1855

>  <SCORE.INTER>
-22.068

>  <SCORE.INTER.CONST>
1

>  <SCORE.INTER.POLAR>
0

>  <SCORE.INTER.ROT>
7

>  <SCORE.INTER.SOLV>
14.4181

>  <SCORE.INTER.VDW>
-27.7847

>  <SCORE.INTER.norm>
-0.817335

>  <SCORE.INTRA>
1.88256

>  <SCORE.INTRA.DIHEDRAL>
3.23388

>  <SCORE.INTRA.DIHEDRAL.0>
4.89803

>  <SCORE.INTRA.POLAR>
0

>  <SCORE.INTRA.POLAR.0>
0

>  <SCORE.INTRA.REPUL>
0

>  <SCORE.INTRA.REPUL.0>
0

>  <SCORE.INTRA.SOLV>
-0.0202624

>  <SCORE.INTRA.SOLV.lig_0>
-48.5832

>  <SCORE.INTRA.VDW>
0.275753

>  <SCORE.INTRA.VDW.0>
-2.39056

>  <SCORE.INTRA.norm>
0.0697245

>  <SCORE.RESTR>
0

>  <SCORE.RESTR.CAVITY>
0

>  <SCORE.RESTR.norm>
0

>  <SCORE.SYSTEM>
0

>  <SCORE.SYSTEM.CONST>
0

>  <SCORE.SYSTEM.DIHEDRAL>
0

>  <SCORE.SYSTEM.SOLV>
0

>  <SCORE.SYSTEM.norm>
0

>  <SCORE.heavy>
27

>  <SCORE.norm>
-0.74761

>  <RMSD>
6.499

$$$$
ligand
 OpenBabel11021811473D
libRbt.so/2013.1/901 2013/11/27
 27 29  0  0  0  0  0  0  0  0999 V2000
   11.6563  -12.5523  -20.5162 N   0  0  0  0  0  0  0  0  0  0  0  0
   12.6190  -11.6704  -21.1924 C   0  0  2  0  0  0  0  0  0  0  0  0
   13.7777  -12.4976  -21.7575 C   0  0  0  0  0  0  0  0  0  0  0  0
   14.5021  -13.0961  -20.9325 O   0  0  0  0  0  0  0  0  0  0  0  0
   13.1654  -10.6656  -20.1767 C   0  0  0  0  0  0  0  0  0  0  0  0
   12.0457   -9.9588  -19.4085 C   0  0  0  0  0  0  0  0  0  0  0  0
   11.3633   -8.3866  -17.1429 C   0  0  0  0  0  0  0  0  0  0  0  0
   12.7209   -8.5657  -18.3800 Se  0  0  2  0  0  0  0  0  0  0  0  0
   12.5382   -7.0006  -19.3666 C   0  0  0  0  0  0  0  0  0  0  0  0
   12.4879   -5.7372  -18.5065 C   0  0  1  0  0  0  0  0  0  0  0  0
   13.8211   -5.4434  -18.0548 O   0  0  0  0  0  0  0  0  0  0  0  0
   12.1268   -4.5736  -19.4306 C   0  0  1  0  0  0  0  0  0  0  0  0
   11.8799   -3.4018  -18.6520 O   0  0  0  0  0  0  0  0  0  0  0  0
   13.4507   -4.4333  -20.1776 C   0  0  1  0  0  0  0  0  0  0  0  0
   13.5314   -3.1172  -20.7277 O   0  0  0  0  0  0  0  0  0  0  0  0
   14.4212   -4.5404  -19.0006 C   0  0  2  0  0  0  0  0  0  0  0  0
   13.9202  -12.5062  -23.0000 O   0  0  0  0  0  0  0  0  0  0  0  0
   18.6066   -3.5863  -21.8671 N   0  0  0  0  0  0  0  0  0  0  0  0
   17.5138   -2.8556  -21.7281 C   0  0  0  0  0  0  0  0  0  0  0  0
   16.5166   -3.2351  -20.9482 N   0  0  0  0  0  0  0  0  0  0  0  0
   16.5862   -4.3865  -20.2631 C   0  0  0  0  0  0  0  0  0  0  0  0
   17.7172   -5.1815  -20.3849 C   0  0  0  0  0  0  0  0  0  0  0  0
   18.7426   -4.7496  -21.2178 C   0  0  0  0  0  0  0  0  0  0  0  0
   19.8248   -5.5021  -21.3903 N   0  0  0  0  0  0  0  0  0  0  0  0
   17.5417   -6.2521  -19.6184 N   0  0  0  0  0  0  0  0  0  0  0  0
   16.3498   -6.1388  -19.0370 C   0  0  0  0  0  0  0  0  0  0  0  0
   15.7626   -5.0062  -19.4240 N   0  0  0  0  0  0  0  0  0  0  0  0
  2  1  1  1  0  0  0
  2  5  1  0  0  0  0
  2  3  1  0  0  0  0
  3 17  1  0  0  0  0
  3  4  1  0  0  0  0
  5  6  1  0  0  0  0
  7  8  1  0  0  0  0
  8  6  1  6  0  0  0
  8  9  1  0  0  0  0
 10  9  1  6  0  0  0
 10 11  1  0  0  0  0
 10 12  1  0  0  0  0
 11 16  1  0  0  0  0
 12 13  1  1  0  0  0
 12 14  1  0  0  0  0
 14 15  1  1  0  0  0
 14 16  1  0  0  0  0
 16 27  1  6  0  0  0
 18 23  2  0  0  0  0
 18 19  1  0  0  0  0
 19 20  2  0  0  0  0
 20 21  1  0  0  0  0
 21 22  2  0  0  0  0
 21 27  1  0  0  0  0
 22 23  1  0  0  0  0
 22 25  1  0  0  0  0
 23 24  1  0  0  0  0
 25 26  2  0  0  0  0
 26 27  1  0  0  0  0
M  END
>  <CHROM.1>
-50.86715841,-64.11300614,-171.16629901,-158.67175905,155.94008101,75.89845953
-178.49561593,14.27843808,-7.15838102,-19.81636781,-2.13976918,0.49242097
0.24461608

>  <Name>
ligand

>  <RI>
0

>  <Rbt.Current_Directory>
/home/itssahil/PROJECTS/Mol_Feturizer/New_Systems/rnas/3E5F

>  <Rbt.Executable>
rbdock ($Id: //depot/dev/client3/rdock/2013.1/src/exe/rbdock.cxx#4 $)

>  <Rbt.Library>
libRbt.so (2013.1, Build901 2013/11/27)

>  <Rbt.Parameter_File>
/export/apps/rDock/src/rDock_2013.1_src/data/scripts/dock_solv.prm

>  <Rbt.Receptor>
prm/pocket_docking_6.prm

>  <SCORE>
-14.6606

>  <SCORE.INTER>
-16.4155

>  <SCORE.INTER.CONST>
1

>  <SCORE.INTER.POLAR>
0

>  <SCORE.INTER.ROT>
7

>  <SCORE.INTER.SOLV>
14.4486

>  <SCORE.INTER.VDW>
-24.0266

>  <SCORE.INTER.norm>
-0.607982

>  <SCORE.INTRA>
1.75493

>  <SCORE.INTRA.DIHEDRAL>
0.939906

>  <SCORE.INTRA.DIHEDRAL.0>
4.89803

>  <SCORE.INTRA.POLAR>
0

>  <SCORE.INTRA.POLAR.0>
0

>  <SCORE.INTRA.REPUL>
0

>  <SCORE.INTRA.REPUL.0>
0

>  <SCORE.INTRA.SOLV>
0.899164

>  <SCORE.INTRA.SOLV.lig_0>
-48.5832

>  <SCORE.INTRA.VDW>
0.835398

>  <SCORE.INTRA.VDW.0>
-2.39056

>  <SCORE.INTRA.norm>
0.0649975

>  <SCORE.RESTR>
0

>  <SCORE.RESTR.CAVITY>
0

>  <SCORE.RESTR.norm>
0

>  <SCORE.SYSTEM>
0

>  <SCORE.SYSTEM.CONST>
0

>  <SCORE.SYSTEM.DIHEDRAL>
0

>  <SCORE.SYSTEM.SOLV>
0

>  <SCORE.SYSTEM.norm>
0

>  <SCORE.heavy>
27

>  <SCORE.norm>
-0.542985

>  <RMSD>
6.506

$$$$
ligand
 OpenBabel11021811473D
libRbt.so/2013.1/901 2013/11/27
 27 29  0  0  0  0  0  0  0  0999 V2000
   22.3839   -8.8172  -22.1713 N   0  0  0  0  0  0  0  0  0  0  0  0
   22.5789   -7.6014  -21.3678 C   0  0  2  0  0  0  0  0  0  0  0  0
   23.6474   -7.8478  -20.2984 C   0  0  0  0  0  0  0  0  0  0  0  0
   24.4793   -6.9341  -20.1070 O   0  0  0  0  0  0  0  0  0  0  0  0
   21.2571   -7.2430  -20.6864 C   0  0  0  0  0  0  0  0  0  0  0  0
   21.3608   -5.9479  -19.8769 C   0  0  0  0  0  0  0  0  0  0  0  0
   19.8194   -7.1475  -17.8141 C   0  0  0  0  0  0  0  0  0  0  0  0
   19.8112   -5.6514  -18.8944 Se  0  0  2  0  0  0  0  0  0  0  0  0
   18.3650   -6.0014  -20.0089 C   0  0  0  0  0  0  0  0  0  0  0  0
   18.1682   -4.9524  -21.1041 C   0  0  1  0  0  0  0  0  0  0  0  0
   17.4412   -5.5586  -22.1865 O   0  0  0  0  0  0  0  0  0  0  0  0
   17.2202   -3.8890  -20.5483 C   0  0  1  0  0  0  0  0  0  0  0  0
   17.1494   -2.7884  -21.4560 O   0  0  0  0  0  0  0  0  0  0  0  0
   15.9150   -4.6799  -20.5858 C   0  0  1  0  0  0  0  0  0  0  0  0
   14.8205   -3.7616  -20.5921 O   0  0  0  0  0  0  0  0  0  0  0  0
   16.0397   -5.3140  -21.9718 C   0  0  2  0  0  0  0  0  0  0  0  0
   23.6157   -8.9469  -19.7024 O   0  0  0  0  0  0  0  0  0  0  0  0
   14.5966   -9.2335  -25.0049 N   0  0  0  0  0  0  0  0  0  0  0  0
   15.4073   -8.2268  -25.2820 C   0  0  0  0  0  0  0  0  0  0  0  0
   15.6851   -7.2906  -24.3915 N   0  0  0  0  0  0  0  0  0  0  0  0
   15.1481   -7.3366  -23.1629 C   0  0  0  0  0  0  0  0  0  0  0  0
   14.2906   -8.3775  -22.8355 C   0  0  0  0  0  0  0  0  0  0  0  0
   14.0205   -9.3404  -23.8008 C   0  0  0  0  0  0  0  0  0  0  0  0
   13.1741  -10.3311  -23.5374 N   0  0  0  0  0  0  0  0  0  0  0  0
   13.8977   -8.1961  -21.5796 N   0  0  0  0  0  0  0  0  0  0  0  0
   14.4819   -7.0871  -21.1322 C   0  0  0  0  0  0  0  0  0  0  0  0
   15.2444   -6.5587  -22.0897 N   0  0  0  0  0  0  0  0  0  0  0  0
  2  1  1  1  0  0  0
  2  5  1  0  0  0  0
  2  3  1  0  0  0  0
  3 17  1  0  0  0  0
  3  4  1  0  0  0  0
  5  6  1  0  0  0  0
  7  8  1  0  0  0  0
  8  6  1  6  0  0  0
  8  9  1  0  0  0  0
 10  9  1  1  0  0  0
 10 11  1  0  0  0  0
 10 12  1  0  0  0  0
 11 16  1  0  0  0  0
 12 13  1  6  0  0  0
 12 14  1  0  0  0  0
 14 15  1  6  0  0  0
 14 16  1  0  0  0  0
 16 27  1  1  0  0  0
 18 23  2  0  0  0  0
 18 19  1  0  0  0  0
 19 20  2  0  0  0  0
 20 21  1  0  0  0  0
 21 22  2  0  0  0  0
 21 27  1  0  0  0  0
 22 23  1  0  0  0  0
 22 25  1  0  0  0  0
 23 24  1  0  0  0  0
 25 26  2  0  0  0  0
 26 27  1  0  0  0  0
M  END
>  <CHROM.1>
-177.45815434,137.88088281,-172.95148732,61.45501784,-71.12846945,156.54489252
-60.46756713,18.16665413,-6.63278520,-21.11252122,-0.31019492,0.29906545
-2.52620320

>  <Name>
ligand

>  <RI>
0

>  <Rbt.Current_Directory>
/home/itssahil/PROJECTS/Mol_Feturizer/New_Systems/rnas/3E5F

>  <Rbt.Executable>
rbdock ($Id: //depot/dev/client3/rdock/2013.1/src/exe/rbdock.cxx#4 $)

>  <Rbt.Library>
libRbt.so (2013.1, Build901 2013/11/27)

>  <Rbt.Parameter_File>
/export/apps/rDock/src/rDock_2013.1_src/data/scripts/dock_solv.prm

>  <Rbt.Receptor>
prm/pocket_docking_8.prm

>  <SCORE>
-12.0084

>  <SCORE.INTER>
-13.2377

>  <SCORE.INTER.CONST>
1

>  <SCORE.INTER.POLAR>
0

>  <SCORE.INTER.ROT>
7

>  <SCORE.INTER.SOLV>
13.3557

>  <SCORE.INTER.VDW>
-21.5437

>  <SCORE.INTER.norm>
-0.490286

>  <SCORE.INTRA>
1.22929

>  <SCORE.INTRA.DIHEDRAL>
0.0310717

>  <SCORE.INTRA.DIHEDRAL.0>
4.89803

>  <SCORE.INTRA.POLAR>
0

>  <SCORE.INTRA.POLAR.0>
0

>  <SCORE.INTRA.REPUL>
0

>  <SCORE.INTRA.REPUL.0>
0

>  <SCORE.INTRA.SOLV>
-0.00913293

>  <SCORE.INTRA.SOLV.lig_0>
-48.5832

>  <SCORE.INTRA.VDW>
1.21832

>  <SCORE.INTRA.VDW.0>
-2.39056

>  <SCORE.INTRA.norm>
0.0455291

>  <SCORE.RESTR>
0

>  <SCORE.RESTR.CAVITY>
0

>  <SCORE.RESTR.norm>
0

>  <SCORE.SYSTEM>
0

>  <SCORE.SYSTEM.CONST>
0

>  <SCORE.SYSTEM.DIHEDRAL>
0

>  <SCORE.SYSTEM.SOLV>
0

>  <SCORE.SYSTEM.norm>
0

>  <SCORE.heavy>
27

>  <SCORE.norm>
-0.444756

>  <RMSD>
6.511

$$$$
ligand
 OpenBabel11021811473D
libRbt.so/2013.1/901 2013/11/27
 27 29  0  0  0  0  0  0  0  0999 V2000
    5.3874  -12.1173  -16.9708 N   0  0  0  0  0  0  0  0  0  0  0  0
    6.4713  -11.3433  -17.5936 C   0  0  2  0  0  0  0  0  0  0  0  0
    5.9064  -10.0655  -18.2217 C   0  0  0  0  0  0  0  0  0  0  0  0
    4.8866  -10.1874  -18.9349 O   0  0  0  0  0  0  0  0  0  0  0  0
    7.1226  -12.1956  -18.6842 C   0  0  0  0  0  0  0  0  0  0  0  0
    8.3358  -11.5011  -19.3080 C   0  0  0  0  0  0  0  0  0  0  0  0
    9.8833  -13.7470  -20.1027 C   0  0  0  0  0  0  0  0  0  0  0  0
    8.8885  -12.3831  -20.8479 Se  0  0  2  0  0  0  0  0  0  0  0  0
   10.2104  -11.3464  -21.6441 C   0  0  0  0  0  0  0  0  0  0  0  0
   10.3662  -11.5994  -23.1442 C   0  0  1  0  0  0  0  0  0  0  0  0
   11.0977  -10.5009  -23.7151 O   0  0  0  0  0  0  0  0  0  0  0  0
   11.2906  -12.8066  -23.3068 C   0  0  1  0  0  0  0  0  0  0  0  0
   11.3211  -13.2057  -24.6780 O   0  0  0  0  0  0  0  0  0  0  0  0
   12.6166  -12.1537  -22.9247 C   0  0  1  0  0  0  0  0  0  0  0  0
   13.6853  -12.9269  -23.4737 O   0  0  0  0  0  0  0  0  0  0  0  0
   12.4941  -10.8471  -23.7099 C   0  0  2  0  0  0  0  0  0  0  0  0
    6.5111   -8.9969  -17.9835 O   0  0  0  0  0  0  0  0  0  0  0  0
   16.0885   -7.2400  -24.5549 N   0  0  0  0  0  0  0  0  0  0  0  0
   15.5430   -8.0831  -25.4146 C   0  0  0  0  0  0  0  0  0  0  0  0
   14.6234   -8.9574  -25.0449 N   0  0  0  0  0  0  0  0  0  0  0  0
   14.2086   -9.0137  -23.7703 C   0  0  0  0  0  0  0  0  0  0  0  0
   14.7596   -8.1456  -22.8382 C   0  0  0  0  0  0  0  0  0  0  0  0
   15.7268   -7.2434  -23.2655 C   0  0  0  0  0  0  0  0  0  0  0  0
   16.3055   -6.4224  -22.3947 N   0  0  0  0  0  0  0  0  0  0  0  0
   14.1906   -8.3996  -21.6652 N   0  0  0  0  0  0  0  0  0  0  0  0
   13.3170   -9.3870  -21.8480 C   0  0  0  0  0  0  0  0  0  0  0  0
   13.3221   -9.7657  -23.1262 N   0  0  0  0  0  0  0  0  0  0  0  0
  2  1  1  6  0  0  0
  2  5  1  0  0  0  0
  2  3  1  0  0  0  0
  3 17  1  0  0  0  0
  3  4  1  0  0  0  0
  5  6  1  0  0  0  0
  7  8  1  0  0  0  0
  8  6  1  1  0  0  0
  8  9  1  0  0  0  0
 10  9  1  1  0  0  0
 10 11  1  0  0  0  0
 10 12  1  0  0  0  0
 11 16  1  0  0  0  0
 12 13  1  6  0  0  0
 12 14  1  0  0  0  0
 14 15  1  6  0  0  0
 14 16  1  0  0  0  0
 16 27  1  1  0  0  0
 18 23  2  0  0  0  0
 18 19  1  0  0  0  0
 19 20  2  0  0  0  0
 20 21  1  0  0  0  0
 21 22  2  0  0  0  0
 21 27  1  0  0  0  0
 22 23  1  0  0  0  0
 22 25  1  0  0  0  0
 23 24  1  0  0  0  0
 25 26  2  0  0  0  0
 26 27  1  0  0  0  0
M  END
>  <CHROM.1>
-175.48016719,-47.55126302,-168.23646462,-81.50032647,-156.42124510,162.98488718
-112.87414874,10.83392017,-10.74551090,-21.64689839,3.12702881,-0.61873437
-2.65271897

>  <Name>
ligand

>  <RI>
0

>  <Rbt.Current_Directory>
/home/itssahil/PROJECTS/Mol_Feturizer/New_Systems/rnas/3E5F

>  <Rbt.Executable>
rbdock ($Id: //depot/dev/client3/rdock/2013.1/src/exe/rbdock.cxx#4 $)

>  <Rbt.Library>
libRbt.so (2013.1, Build901 2013/11/27)

>  <Rbt.Parameter_File>
/export/apps/rDock/src/rDock_2013.1_src/data/scripts/dock_solv.prm

>  <Rbt.Receptor>
prm/blind_docking_80.prm

>  <SCORE>
-21.0396

>  <SCORE.INTER>
-21.7404

>  <SCORE.INTER.CONST>
1

>  <SCORE.INTER.POLAR>
0

>  <SCORE.INTER.ROT>
7

>  <SCORE.INTER.SOLV>
14.0256

>  <SCORE.INTER.VDW>
-27.4354

>  <SCORE.INTER.norm>
-0.805198

>  <SCORE.INTRA>
0.700726

>  <SCORE.INTRA.DIHEDRAL>
1.01589

>  <SCORE.INTRA.DIHEDRAL.0>
4.89803

>  <SCORE.INTRA.POLAR>
0

>  <SCORE.INTRA.POLAR.0>
0

>  <SCORE.INTRA.REPUL>
0

>  <SCORE.INTRA.REPUL.0>
0

>  <SCORE.INTRA.SOLV>
-0.117696

>  <SCORE.INTRA.SOLV.lig_0>
-48.5832

>  <SCORE.INTRA.VDW>
0.25163

>  <SCORE.INTRA.VDW.0>
-2.39056

>  <SCORE.INTRA.norm>
0.0259528

>  <SCORE.RESTR>
0

>  <SCORE.RESTR.CAVITY>
0

>  <SCORE.RESTR.norm>
0

>  <SCORE.SYSTEM>
0

>  <SCORE.SYSTEM.CONST>
0

>  <SCORE.SYSTEM.DIHEDRAL>
0

>  <SCORE.SYSTEM.SOLV>
0

>  <SCORE.SYSTEM.norm>
0

>  <SCORE.heavy>
27

>  <SCORE.norm>
-0.779245

>  <RMSD>
6.525

$$$$
ligand
 OpenBabel11021811473D
libRbt.so/2013.1/901 2013/11/27
 27 29  0  0  0  0  0  0  0  0999 V2000
   11.2857  -10.5938  -20.1098 N   0  0  0  0  0  0  0  0  0  0  0  0
   12.6412  -10.4651  -19.5549 C   0  0  2  0  0  0  0  0  0  0  0  0
   12.9684   -8.9885  -19.3127 C   0  0  0  0  0  0  0  0  0  0  0  0
   12.2790   -8.1466  -19.9287 O   0  0  0  0  0  0  0  0  0  0  0  0
   13.6414  -11.0453  -20.5564 C   0  0  0  0  0  0  0  0  0  0  0  0
   13.6236  -10.2911  -21.8884 C   0  0  0  0  0  0  0  0  0  0  0  0
   14.9541   -8.3095  -23.4291 C   0  0  0  0  0  0  0  0  0  0  0  0
   14.3655   -8.5969  -21.7038 Se  0  0  2  0  0  0  0  0  0  0  0  0
   15.9713   -8.7849  -20.7860 C   0  0  0  0  0  0  0  0  0  0  0  0
   16.8878   -7.5660  -20.9000 C   0  0  1  0  0  0  0  0  0  0  0  0
   16.1672   -6.4125  -20.4335 O   0  0  0  0  0  0  0  0  0  0  0  0
   18.0181   -7.7525  -19.8872 C   0  0  1  0  0  0  0  0  0  0  0  0
   19.0064   -6.7392  -20.0799 O   0  0  0  0  0  0  0  0  0  0  0  0
   17.2416   -7.4846  -18.6004 C   0  0  1  0  0  0  0  0  0  0  0  0
   18.1641   -7.1097  -17.5759 O   0  0  0  0  0  0  0  0  0  0  0  0
   16.4494   -6.2498  -19.0320 C   0  0  2  0  0  0  0  0  0  0  0  0
   13.9060   -8.7333  -18.5252 O   0  0  0  0  0  0  0  0  0  0  0  0
   11.3855   -5.2532  -19.1262 N   0  0  0  0  0  0  0  0  0  0  0  0
   12.2312   -5.3417  -20.1384 C   0  0  0  0  0  0  0  0  0  0  0  0
   13.5126   -5.6077  -19.9543 N   0  0  0  0  0  0  0  0  0  0  0  0
   13.9986   -5.8018  -18.7190 C   0  0  0  0  0  0  0  0  0  0  0  0
   13.1415   -5.7151  -17.6310 C   0  0  0  0  0  0  0  0  0  0  0  0
   11.8016   -5.4297  -17.8657 C   0  0  0  0  0  0  0  0  0  0  0  0
   10.9578   -5.3004  -16.8466 N   0  0  0  0  0  0  0  0  0  0  0  0
   13.8571   -5.9421  -16.5352 N   0  0  0  0  0  0  0  0  0  0  0  0
   15.1137   -6.1626  -16.9145 C   0  0  0  0  0  0  0  0  0  0  0  0
   15.2076   -6.0792  -18.2417 N   0  0  0  0  0  0  0  0  0  0  0  0
  2  1  1  6  0  0  0
  2  5  1  0  0  0  0
  2  3  1  0  0  0  0
  3 17  1  0  0  0  0
  3  4  1  0  0  0  0
  5  6  1  0  0  0  0
  7  8  1  0  0  0  0
  8  6  1  6  0  0  0
  8  9  1  0  0  0  0
 10  9  1  1  0  0  0
 10 11  1  0  0  0  0
 10 12  1  0  0  0  0
 11 16  1  0  0  0  0
 12 13  1  6  0  0  0
 12 14  1  0  0  0  0
 14 15  1  1  0  0  0
 14 16  1  0  0  0  0
 16 27  1  1  0  0  0
 18 23  2  0  0  0  0
 18 19  1  0  0  0  0
 19 20  2  0  0  0  0
 20 21  1  0  0  0  0
 21 22  2  0  0  0  0
 21 27  1  0  0  0  0
 22 23  1  0  0  0  0
 22 25  1  0  0  0  0
 23 24  1  0  0  0  0
 25 26  2  0  0  0  0
 26 27  1  0  0  0  0
M  END
>  <CHROM.1>
61.62556005,-19.48950489,70.83909941,153.61643288,163.46359294,56.51657059
-14.50343880,14.44150139,-7.61031438,-19.78944521,1.08042208,-0.11011117
-2.34733284

>  <Name>
ligand

>  <RI>
0

>  <Rbt.Current_Directory>
/home/itssahil/PROJECTS/Mol_Feturizer/New_Systems/rnas/3E5F

>  <Rbt.Executable>
rbdock ($Id: //depot/dev/client3/rdock/2013.1/src/exe/rbdock.cxx#4 $)

>  <Rbt.Library>
libRbt.so (2013.1, Build901 2013/11/27)

>  <Rbt.Parameter_File>
/export/apps/rDock/src/rDock_2013.1_src/data/scripts/dock_solv.prm

>  <Rbt.Receptor>
prm/pocket_docking_3.prm

>  <SCORE>
-10.5874

>  <SCORE.INTER>
-7.53095

>  <SCORE.INTER.CONST>
1

>  <SCORE.INTER.POLAR>
0

>  <SCORE.INTER.ROT>
7

>  <SCORE.INTER.SOLV>
6.78007

>  <SCORE.INTER.VDW>
-15.5473

>  <SCORE.INTER.norm>
-0.278924

>  <SCORE.INTRA>
-3.05649

>  <SCORE.INTRA.DIHEDRAL>
-0.861372

>  <SCORE.INTRA.DIHEDRAL.0>
4.89803

>  <SCORE.INTRA.POLAR>
0

>  <SCORE.INTRA.POLAR.0>
0

>  <SCORE.INTRA.REPUL>
0

>  <SCORE.INTRA.REPUL.0>
0

>  <SCORE.INTRA.SOLV>
0.865517

>  <SCORE.INTRA.SOLV.lig_0>
-48.5832

>  <SCORE.INTRA.VDW>
-3.05856

>  <SCORE.INTRA.VDW.0>
-2.39056

>  <SCORE.INTRA.norm>
-0.113203

>  <SCORE.RESTR>
0

>  <SCORE.RESTR.CAVITY>
0

>  <SCORE.RESTR.norm>
0

>  <SCORE.SYSTEM>
0

>  <SCORE.SYSTEM.CONST>
0

>  <SCORE.SYSTEM.DIHEDRAL>
0

>  <SCORE.SYSTEM.SOLV>
0

>  <SCORE.SYSTEM.norm>
0

>  <SCORE.heavy>
27

>  <SCORE.norm>
-0.392128

>  <RMSD>
6.526

$$$$
ligand
 OpenBabel11021811473D
libRbt.so/2013.1/901 2013/11/27
 27 29  0  0  0  0  0  0  0  0999 V2000
   12.4321  -10.6333  -24.2327 N   0  0  0  0  0  0  0  0  0  0  0  0
   13.3985  -10.8683  -23.1498 C   0  0  2  0  0  0  0  0  0  0  0  0
   13.3274  -12.3289  -22.6941 C   0  0  0  0  0  0  0  0  0  0  0  0
   14.3983  -12.9746  -22.6911 O   0  0  0  0  0  0  0  0  0  0  0  0
   13.0515   -9.9555  -21.9723 C   0  0  0  0  0  0  0  0  0  0  0  0
   14.1037  -10.0247  -20.8625 C   0  0  0  0  0  0  0  0  0  0  0  0
   12.0829   -9.9037  -18.8695 C   0  0  0  0  0  0  0  0  0  0  0  0
   13.5980   -8.9939  -19.4009 Se  0  0  2  0  0  0  0  0  0  0  0  0
   12.8750   -7.4107  -20.0544 C   0  0  0  0  0  0  0  0  0  0  0  0
   12.6783   -6.3389  -18.9815 C   0  0  1  0  0  0  0  0  0  0  0  0
   13.9627   -6.0197  -18.4194 O   0  0  0  0  0  0  0  0  0  0  0  0
   12.2385   -5.0595  -19.6941 C   0  0  1  0  0  0  0  0  0  0  0  0
   11.8574   -4.0792  -18.7276 O   0  0  0  0  0  0  0  0  0  0  0  0
   13.5663   -4.6678  -20.3375 C   0  0  1  0  0  0  0  0  0  0  0  0
   13.5399   -3.2704  -20.6334 O   0  0  0  0  0  0  0  0  0  0  0  0
   14.5046   -4.9076  -19.1540 C   0  0  2  0  0  0  0  0  0  0  0  0
   12.2038  -12.7711  -22.3680 O   0  0  0  0  0  0  0  0  0  0  0  0
   18.5147   -3.2790  -21.9668 N   0  0  0  0  0  0  0  0  0  0  0  0
   17.3318   -2.7115  -21.8047 C   0  0  0  0  0  0  0  0  0  0  0  0
   16.3975   -3.2539  -21.0434 N   0  0  0  0  0  0  0  0  0  0  0  0
   16.6260   -4.4096  -20.4016 C   0  0  0  0  0  0  0  0  0  0  0  0
   17.8556   -5.0361  -20.5488 C   0  0  0  0  0  0  0  0  0  0  0  0
   18.8105   -4.4361  -21.3611 C   0  0  0  0  0  0  0  0  0  0  0  0
   19.9859   -5.0254  -21.5575 N   0  0  0  0  0  0  0  0  0  0  0  0
   17.8303   -6.1488  -19.8236 N   0  0  0  0  0  0  0  0  0  0  0  0
   16.6350   -6.2226  -19.2429 C   0  0  0  0  0  0  0  0  0  0  0  0
   15.8968   -5.1680  -19.5894 N   0  0  0  0  0  0  0  0  0  0  0  0
  2  1  1  6  0  0  0
  2  5  1  0  0  0  0
  2  3  1  0  0  0  0
  3 17  1  0  0  0  0
  3  4  1  0  0  0  0
  5  6  1  0  0  0  0
  7  8  1  0  0  0  0
  8  6  1  6  0  0  0
  8  9  1  0  0  0  0
 10  9  1  6  0  0  0
 10 11  1  0  0  0  0
 10 12  1  0  0  0  0
 11 16  1  0  0  0  0
 12 13  1  1  0  0  0
 12 14  1  0  0  0  0
 14 15  1  1  0  0  0
 14 16  1  0  0  0  0
 16 27  1  6  0  0  0
 18 23  2  0  0  0  0
 18 19  1  0  0  0  0
 19 20  2  0  0  0  0
 20 21  1  0  0  0  0
 21 22  2  0  0  0  0
 21 27  1  0  0  0  0
 22 23  1  0  0  0  0
 22 25  1  0  0  0  0
 23 24  1  0  0  0  0
 25 26  2  0  0  0  0
 26 27  1  0  0  0  0
M  END
>  <CHROM.1>
-173.57421590,126.00192489,-176.22255008,64.44497906,-168.01679423,60.99001669
172.32615516,14.54492967,-7.26113719,-20.51808276,-2.11368758,0.46443169
0.40748263

>  <Name>
ligand

>  <RI>
0

>  <Rbt.Current_Directory>
/home/itssahil/PROJECTS/Mol_Feturizer/New_Systems/rnas/3E5F

>  <Rbt.Executable>
rbdock ($Id: //depot/dev/client3/rdock/2013.1/src/exe/rbdock.cxx#4 $)

>  <Rbt.Library>
libRbt.so (2013.1, Build901 2013/11/27)

>  <Rbt.Parameter_File>
/export/apps/rDock/src/rDock_2013.1_src/data/scripts/dock_solv.prm

>  <Rbt.Receptor>
prm/blind_docking_100.prm

>  <SCORE>
-15.9148

>  <SCORE.INTER>
-16.0471

>  <SCORE.INTER.CONST>
1

>  <SCORE.INTER.POLAR>
0

>  <SCORE.INTER.ROT>
7

>  <SCORE.INTER.SOLV>
16.6291

>  <SCORE.INTER.VDW>
-24.5078

>  <SCORE.INTER.norm>
-0.594337

>  <SCORE.INTRA>
0.132302

>  <SCORE.INTRA.DIHEDRAL>
-0.970485

>  <SCORE.INTRA.DIHEDRAL.0>
4.89803

>  <SCORE.INTRA.POLAR>
0

>  <SCORE.INTRA.POLAR.0>
0

>  <SCORE.INTRA.REPUL>
0

>  <SCORE.INTRA.REPUL.0>
0

>  <SCORE.INTRA.SOLV>
0.111741

>  <SCORE.INTRA.SOLV.lig_0>
-48.5832

>  <SCORE.INTRA.VDW>
0.561674

>  <SCORE.INTRA.VDW.0>
-2.39056

>  <SCORE.INTRA.norm>
0.00490007

>  <SCORE.RESTR>
0

>  <SCORE.RESTR.CAVITY>
0

>  <SCORE.RESTR.norm>
0

>  <SCORE.SYSTEM>
0

>  <SCORE.SYSTEM.CONST>
0

>  <SCORE.SYSTEM.DIHEDRAL>
0

>  <SCORE.SYSTEM.SOLV>
0

>  <SCORE.SYSTEM.norm>
0

>  <SCORE.heavy>
27

>  <SCORE.norm>
-0.589437

>  <RMSD>
6.530

$$$$
ligand
 OpenBabel11021811473D
libRbt.so/2013.1/901 2013/11/27
 27 29  0  0  0  0  0  0  0  0999 V2000
   16.2299   -7.1810  -24.2367 N   0  0  0  0  0  0  0  0  0  0  0  0
   15.4767   -6.8014  -23.0324 C   0  0  2  0  0  0  0  0  0  0  0  0
   16.0740   -5.5300  -22.4218 C   0  0  0  0  0  0  0  0  0  0  0  0
   15.3184   -4.5383  -22.3256 O   0  0  0  0  0  0  0  0  0  0  0  0
   15.5672   -7.9398  -22.0146 C   0  0  0  0  0  0  0  0  0  0  0  0
   14.6960   -7.6798  -20.7830 C   0  0  0  0  0  0  0  0  0  0  0  0
   12.1593   -6.7843  -19.8700 C   0  0  0  0  0  0  0  0  0  0  0  0
   12.8913   -7.8337  -21.1999 Se  0  0  2  0  0  0  0  0  0  0  0  0
   12.3394   -9.5323  -20.6837 C   0  0  0  0  0  0  0  0  0  0  0  0
   13.1411  -10.6604  -21.3344 C   0  0  1  0  0  0  0  0  0  0  0  0
   12.5965  -11.9159  -20.8930 O   0  0  0  0  0  0  0  0  0  0  0  0
   12.8487  -10.6174  -22.8347 C   0  0  1  0  0  0  0  0  0  0  0  0
   13.7144  -11.5253  -23.5180 O   0  0  0  0  0  0  0  0  0  0  0  0
   11.4239  -11.1653  -22.8231 C   0  0  1  0  0  0  0  0  0  0  0  0
   11.1200  -11.6848  -24.1188 O   0  0  0  0  0  0  0  0  0  0  0  0
   11.6060  -12.3311  -21.8503 C   0  0  2  0  0  0  0  0  0  0  0  0
   17.2744   -5.5735  -22.0734 O   0  0  0  0  0  0  0  0  0  0  0  0
    7.7894  -15.7907  -21.5191 N   0  0  0  0  0  0  0  0  0  0  0  0
    8.8597  -15.8099  -22.2947 C   0  0  0  0  0  0  0  0  0  0  0  0
    9.7590  -14.8419  -22.2650 N   0  0  0  0  0  0  0  0  0  0  0  0
    9.6122  -13.7994  -21.4335 C   0  0  0  0  0  0  0  0  0  0  0  0
    8.5002  -13.7433  -20.6050 C   0  0  0  0  0  0  0  0  0  0  0  0
    7.5752  -14.7787  -20.6686 C   0  0  0  0  0  0  0  0  0  0  0  0
    6.4782  -14.7413  -19.9187 N   0  0  0  0  0  0  0  0  0  0  0  0
    8.5862  -12.6270  -19.8902 N   0  0  0  0  0  0  0  0  0  0  0  0
    9.7051  -12.0036  -20.2519 C   0  0  0  0  0  0  0  0  0  0  0  0
   10.3349  -12.7108  -21.1902 N   0  0  0  0  0  0  0  0  0  0  0  0
  2  1  1  6  0  0  0
  2  5  1  0  0  0  0
  2  3  1  0  0  0  0
  3 17  1  0  0  0  0
  3  4  1  0  0  0  0
  5  6  1  0  0  0  0
  7  8  1  0  0  0  0
  8  6  1  1  0  0  0
  8  9  1  0  0  0  0
 10  9  1  1  0  0  0
 10 11  1  0  0  0  0
 10 12  1  0  0  0  0
 11 16  1  0  0  0  0
 12 13  1  6  0  0  0
 12 14  1  0  0  0  0
 14 15  1  6  0  0  0
 14 16  1  0  0  0  0
 16 27  1  1  0  0  0
 18 23  2  0  0  0  0
 18 19  1  0  0  0  0
 19 20  2  0  0  0  0
 20 21  1  0  0  0  0
 21 22  2  0  0  0  0
 21 27  1  0  0  0  0
 22 23  1  0  0  0  0
 22 25  1  0  0  0  0
 23 24  1  0  0  0  0
 25 26  2  0  0  0  0
 26 27  1  0  0  0  0
M  END
>  <CHROM.1>
-174.50470513,120.29453032,71.16988069,-155.89750523,-57.20663720,-178.19895004
-133.40094982,12.14747628,-10.21883082,-21.65023706,-0.63871143,-0.65359387
-2.56678287

>  <Name>
ligand

>  <RI>
0

>  <Rbt.Current_Directory>
/home/itssahil/PROJECTS/Mol_Feturizer/New_Systems/rnas/3E5F

>  <Rbt.Executable>
rbdock ($Id: //depot/dev/client3/rdock/2013.1/src/exe/rbdock.cxx#4 $)

>  <Rbt.Library>
libRbt.so (2013.1, Build901 2013/11/27)

>  <Rbt.Parameter_File>
/export/apps/rDock/src/rDock_2013.1_src/data/scripts/dock_solv.prm

>  <Rbt.Receptor>
prm/pocket_docking_7.prm

>  <SCORE>
-12.9373

>  <SCORE.INTER>
-12.3811

>  <SCORE.INTER.CONST>
1

>  <SCORE.INTER.POLAR>
0

>  <SCORE.INTER.ROT>
7

>  <SCORE.INTER.SOLV>
13.819

>  <SCORE.INTER.VDW>
-21.1271

>  <SCORE.INTER.norm>
-0.45856

>  <SCORE.INTRA>
-0.556185

>  <SCORE.INTRA.DIHEDRAL>
-0.0152571

>  <SCORE.INTRA.DIHEDRAL.0>
4.89803

>  <SCORE.INTRA.POLAR>
0

>  <SCORE.INTRA.POLAR.0>
0

>  <SCORE.INTRA.REPUL>
0

>  <SCORE.INTRA.REPUL.0>
0

>  <SCORE.INTRA.SOLV>
0.0243023

>  <SCORE.INTRA.SOLV.lig_0>
-48.5832

>  <SCORE.INTRA.VDW>
-0.560708

>  <SCORE.INTRA.VDW.0>
-2.39056

>  <SCORE.INTRA.norm>
-0.0205994

>  <SCORE.RESTR>
0

>  <SCORE.RESTR.CAVITY>
0

>  <SCORE.RESTR.norm>
0

>  <SCORE.SYSTEM>
0

>  <SCORE.SYSTEM.CONST>
0

>  <SCORE.SYSTEM.DIHEDRAL>
0

>  <SCORE.SYSTEM.SOLV>
0

>  <SCORE.SYSTEM.norm>
0

>  <SCORE.heavy>
27

>  <SCORE.norm>
-0.479159

>  <RMSD>
6.539

$$$$
ligand
 OpenBabel11021811473D
libRbt.so/2013.1/901 2013/11/27
 27 29  0  0  0  0  0  0  0  0999 V2000
    7.3645  -15.1049  -20.2744 N   0  0  0  0  0  0  0  0  0  0  0  0
    8.0258  -14.5461  -19.0861 C   0  0  2  0  0  0  0  0  0  0  0  0
    7.1142  -13.5116  -18.4189 C   0  0  0  0  0  0  0  0  0  0  0  0
    5.9340  -13.4491  -18.8271 O   0  0  0  0  0  0  0  0  0  0  0  0
    9.3265  -13.8671  -19.5188 C   0  0  0  0  0  0  0  0  0  0  0  0
    9.0899  -12.8082  -20.5987 C   0  0  0  0  0  0  0  0  0  0  0  0
   10.3063  -10.5678  -19.3452 C   0  0  0  0  0  0  0  0  0  0  0  0
   10.5705  -11.6992  -20.7790 Se  0  0  2  0  0  0  0  0  0  0  0  0
   10.2495  -10.5645  -22.2162 C   0  0  0  0  0  0  0  0  0  0  0  0
   10.6706  -11.1504  -23.5646 C   0  0  1  0  0  0  0  0  0  0  0  0
   11.7043  -10.3175  -24.1173 O   0  0  0  0  0  0  0  0  0  0  0  0
   11.3587  -12.4866  -23.2832 C   0  0  1  0  0  0  0  0  0  0  0  0
   11.6042  -13.1680  -24.5145 O   0  0  0  0  0  0  0  0  0  0  0  0
   12.6727  -11.9690  -22.7035 C   0  0  1  0  0  0  0  0  0  0  0  0
   13.6649  -12.9891  -22.8297 O   0  0  0  0  0  0  0  0  0  0  0  0
   12.9742  -10.8555  -23.7074 C   0  0  2  0  0  0  0  0  0  0  0  0
    7.6187  -12.7998  -17.5228 O   0  0  0  0  0  0  0  0  0  0  0  0
   16.0627   -6.8281  -24.6487 N   0  0  0  0  0  0  0  0  0  0  0  0
   15.3835   -7.5694  -25.5070 C   0  0  0  0  0  0  0  0  0  0  0  0
   14.6259   -8.5770  -25.1102 N   0  0  0  0  0  0  0  0  0  0  0  0
   14.5198   -8.8791  -23.8074 C   0  0  0  0  0  0  0  0  0  0  0  0
   15.2195   -8.1245  -22.8764 C   0  0  0  0  0  0  0  0  0  0  0  0
   16.0084   -7.0755  -23.3337 C   0  0  0  0  0  0  0  0  0  0  0  0
   16.7238   -6.3545  -22.4760 N   0  0  0  0  0  0  0  0  0  0  0  0
   14.9516   -8.6193  -21.6731 N   0  0  0  0  0  0  0  0  0  0  0  0
   14.1180   -9.6439  -21.8367 C   0  0  0  0  0  0  0  0  0  0  0  0
   13.8504   -9.8079  -23.1324 N   0  0  0  0  0  0  0  0  0  0  0  0
  2  1  1  6  0  0  0
  2  5  1  0  0  0  0
  2  3  1  0  0  0  0
  3 17  1  0  0  0  0
  3  4  1  0  0  0  0
  5  6  1  0  0  0  0
  7  8  1  0  0  0  0
  8  6  1  1  0  0  0
  8  9  1  0  0  0  0
 10  9  1  1  0  0  0
 10 11  1  0  0  0  0
 10 12  1  0  0  0  0
 11 16  1  0  0  0  0
 12 13  1  6  0  0  0
 12 14  1  0  0  0  0
 14 15  1  6  0  0  0
 14 16  1  0  0  0  0
 16 27  1  1  0  0  0
 18 23  2  0  0  0  0
 18 19  1  0  0  0  0
 19 20  2  0  0  0  0
 20 21  1  0  0  0  0
 21 22  2  0  0  0  0
 21 27  1  0  0  0  0
 22 23  1  0  0  0  0
 22 25  1  0  0  0  0
 23 24  1  0  0  0  0
 25 26  2  0  0  0  0
 26 27  1  0  0  0  0
M  END
>  <CHROM.1>
55.43657872,10.45486481,164.81387349,-79.65120516,-87.07959253,-117.41902611
-76.03242547,11.62931128,-11.05831581,-21.83444314,3.05511764,0.75931565
1.00018946

>  <Name>
ligand

>  <RI>
0

>  <Rbt.Current_Directory>
/home/itssahil/PROJECTS/Mol_Feturizer/New_Systems/rnas/3E5F

>  <Rbt.Executable>
rbdock ($Id: //depot/dev/client3/rdock/2013.1/src/exe/rbdock.cxx#4 $)

>  <Rbt.Library>
libRbt.so (2013.1, Build901 2013/11/27)

>  <Rbt.Parameter_File>
/export/apps/rDock/src/rDock_2013.1_src/data/scripts/dock_solv.prm

>  <Rbt.Receptor>
prm/blind_docking_60.prm

>  <SCORE>
-16.8056

>  <SCORE.INTER>
-20.2093

>  <SCORE.INTER.CONST>
1

>  <SCORE.INTER.POLAR>
0

>  <SCORE.INTER.ROT>
7

>  <SCORE.INTER.SOLV>
15.8763

>  <SCORE.INTER.VDW>
-27.0317

>  <SCORE.INTER.norm>
-0.748494

>  <SCORE.INTRA>
3.40373

>  <SCORE.INTRA.DIHEDRAL>
4.73069

>  <SCORE.INTRA.DIHEDRAL.0>
4.89803

>  <SCORE.INTRA.POLAR>
0

>  <SCORE.INTRA.POLAR.0>
0

>  <SCORE.INTRA.REPUL>
0

>  <SCORE.INTRA.REPUL.0>
0

>  <SCORE.INTRA.SOLV>
0.779036

>  <SCORE.INTRA.SOLV.lig_0>
-48.5832

>  <SCORE.INTRA.VDW>
0.648864

>  <SCORE.INTRA.VDW.0>
-2.39056

>  <SCORE.INTRA.norm>
0.126064

>  <SCORE.RESTR>
0

>  <SCORE.RESTR.CAVITY>
0

>  <SCORE.RESTR.norm>
0

>  <SCORE.SYSTEM>
0

>  <SCORE.SYSTEM.CONST>
0

>  <SCORE.SYSTEM.DIHEDRAL>
0

>  <SCORE.SYSTEM.SOLV>
0

>  <SCORE.SYSTEM.norm>
0

>  <SCORE.heavy>
27

>  <SCORE.norm>
-0.62243

>  <RMSD>
6.547

$$$$
ligand
 OpenBabel11021811473D
libRbt.so/2013.1/901 2013/11/27
 27 29  0  0  0  0  0  0  0  0999 V2000
   15.9838   -7.4010  -24.3780 N   0  0  0  0  0  0  0  0  0  0  0  0
   15.3714   -7.0612  -23.0852 C   0  0  2  0  0  0  0  0  0  0  0  0
   16.1102   -5.8781  -22.4522 C   0  0  0  0  0  0  0  0  0  0  0  0
   15.4669   -4.8143  -22.3178 O   0  0  0  0  0  0  0  0  0  0  0  0
   15.4727   -8.2732  -22.1576 C   0  0  0  0  0  0  0  0  0  0  0  0
   14.6695   -8.0790  -20.8689 C   0  0  0  0  0  0  0  0  0  0  0  0
   12.3710   -6.5340  -20.2362 C   0  0  0  0  0  0  0  0  0  0  0  0
   12.8461   -8.0187  -21.2240 Se  0  0  2  0  0  0  0  0  0  0  0  0
   12.0408   -9.3865  -20.2562 C   0  0  0  0  0  0  0  0  0  0  0  0
   12.9351  -10.6130  -20.0697 C   0  0  1  0  0  0  0  0  0  0  0  0
   12.1643  -11.6416  -19.4251 O   0  0  0  0  0  0  0  0  0  0  0  0
   13.2369  -11.1698  -21.4615 C   0  0  1  0  0  0  0  0  0  0  0  0
   14.2203  -12.2011  -21.3623 O   0  0  0  0  0  0  0  0  0  0  0  0
   11.8744  -11.7786  -21.7833 C   0  0  1  0  0  0  0  0  0  0  0  0
   12.0428  -12.7760  -22.7923 O   0  0  0  0  0  0  0  0  0  0  0  0
   11.5798  -12.4659  -20.4493 C   0  0  2  0  0  0  0  0  0  0  0  0
   17.3038   -6.0592  -22.1254 O   0  0  0  0  0  0  0  0  0  0  0  0
    7.4301  -15.3817  -21.4096 N   0  0  0  0  0  0  0  0  0  0  0  0
    8.6774  -15.5588  -21.8100 C   0  0  0  0  0  0  0  0  0  0  0  0
    9.6416  -14.7181  -21.4781 N   0  0  0  0  0  0  0  0  0  0  0  0
    9.3802  -13.6480  -20.7122 C   0  0  0  0  0  0  0  0  0  0  0  0
    8.0820  -13.4278  -20.2739 C   0  0  0  0  0  0  0  0  0  0  0  0
    7.0954  -14.3327  -20.6475 C   0  0  0  0  0  0  0  0  0  0  0  0
    5.8334  -14.1346  -20.2796 N   0  0  0  0  0  0  0  0  0  0  0  0
    8.0859  -12.3180  -19.5440 N   0  0  0  0  0  0  0  0  0  0  0  0
    9.3339  -11.8560  -19.5222 C   0  0  0  0  0  0  0  0  0  0  0  0
   10.1272  -12.6600  -20.2304 N   0  0  0  0  0  0  0  0  0  0  0  0
  2  1  1  6  0  0  0
  2  5  1  0  0  0  0
  2  3  1  0  0  0  0
  3 17  1  0  0  0  0
  3  4  1  0  0  0  0
  5  6  1  0  0  0  0
  7  8  1  0  0  0  0
  8  6  1  1  0  0  0
  8  9  1  0  0  0  0
 10  9  1  6  0  0  0
 10 11  1  0  0  0  0
 10 12  1  0  0  0  0
 11 16  1  0  0  0  0
 12 13  1  1  0  0  0
 12 14  1  0  0  0  0
 14 15  1  6  0  0  0
 14 16  1  0  0  0  0
 16 27  1  1  0  0  0
 18 23  2  0  0  0  0
 18 19  1  0  0  0  0
 19 20  2  0  0  0  0
 20 21  1  0  0  0  0
 21 22  2  0  0  0  0
 21 27  1  0  0  0  0
 22 23  1  0  0  0  0
 22 25  1  0  0  0  0
 23 24  1  0  0  0  0
 25 26  2  0  0  0  0
 26 27  1  0  0  0  0
M  END
>  <CHROM.1>
-171.16625981,114.75080227,66.80773412,-132.81186701,-31.65311388,-174.55116481
-158.06735509,12.07930341,-10.32252539,-21.21521081,-0.71934664,-0.45482957
-2.86566473

>  <Name>
ligand

>  <RI>
0

>  <Rbt.Current_Directory>
/home/itssahil/PROJECTS/Mol_Feturizer/New_Systems/rnas/3E5F

>  <Rbt.Executable>
rbdock ($Id: //depot/dev/client3/rdock/2013.1/src/exe/rbdock.cxx#4 $)

>  <Rbt.Library>
libRbt.so (2013.1, Build901 2013/11/27)

>  <Rbt.Parameter_File>
/export/apps/rDock/src/rDock_2013.1_src/data/scripts/dock_solv.prm

>  <Rbt.Receptor>
prm/blind_docking_40.prm

>  <SCORE>
-12.0126

>  <SCORE.INTER>
-12.7062

>  <SCORE.INTER.CONST>
1

>  <SCORE.INTER.POLAR>
0

>  <SCORE.INTER.ROT>
7

>  <SCORE.INTER.SOLV>
13.7011

>  <SCORE.INTER.VDW>
-21.3045

>  <SCORE.INTER.norm>
-0.4706

>  <SCORE.INTRA>
0.693575

>  <SCORE.INTRA.DIHEDRAL>
2.25497

>  <SCORE.INTRA.DIHEDRAL.0>
4.89803

>  <SCORE.INTRA.POLAR>
0

>  <SCORE.INTRA.POLAR.0>
0

>  <SCORE.INTRA.REPUL>
0

>  <SCORE.INTRA.REPUL.0>
0

>  <SCORE.INTRA.SOLV>
0.198974

>  <SCORE.INTRA.SOLV.lig_0>
-48.5832

>  <SCORE.INTRA.VDW>
-0.533398

>  <SCORE.INTRA.VDW.0>
-2.39056

>  <SCORE.INTRA.norm>
0.0256879

>  <SCORE.RESTR>
0

>  <SCORE.RESTR.CAVITY>
0

>  <SCORE.RESTR.norm>
0

>  <SCORE.SYSTEM>
0

>  <SCORE.SYSTEM.CONST>
0

>  <SCORE.SYSTEM.DIHEDRAL>
0

>  <SCORE.SYSTEM.SOLV>
0

>  <SCORE.SYSTEM.norm>
0

>  <SCORE.heavy>
27

>  <SCORE.norm>
-0.444912

>  <RMSD>
6.560

$$$$
ligand
 OpenBabel11021811473D
libRbt.so/2013.1/901 2013/11/27
 27 29  0  0  0  0  0  0  0  0999 V2000
    4.9652  -11.8894  -19.0605 N   0  0  0  0  0  0  0  0  0  0  0  0
    6.4011  -12.1844  -19.1749 C   0  0  2  0  0  0  0  0  0  0  0  0
    6.8307  -13.1326  -18.0512 C   0  0  0  0  0  0  0  0  0  0  0  0
    7.5628  -14.0948  -18.3703 O   0  0  0  0  0  0  0  0  0  0  0  0
    7.1845  -10.8758  -19.0572 C   0  0  0  0  0  0  0  0  0  0  0  0
    8.6904  -11.0905  -19.2292 C   0  0  0  0  0  0  0  0  0  0  0  0
   10.0057  -13.4048  -20.2214 C   0  0  0  0  0  0  0  0  0  0  0  0
    9.0614  -11.9441  -20.8380 Se  0  0  2  0  0  0  0  0  0  0  0  0
   10.3935  -10.9708  -21.6950 C   0  0  0  0  0  0  0  0  0  0  0  0
   10.5665  -11.3370  -23.1697 C   0  0  1  0  0  0  0  0  0  0  0  0
   11.4207  -10.3560  -23.7827 O   0  0  0  0  0  0  0  0  0  0  0  0
   11.3694  -12.6373  -23.2228 C   0  0  1  0  0  0  0  0  0  0  0  0
   11.3995  -13.1276  -24.5641 O   0  0  0  0  0  0  0  0  0  0  0  0
   12.7426  -12.0940  -22.8360 C   0  0  1  0  0  0  0  0  0  0  0  0
   13.7437  -13.0032  -23.2968 O   0  0  0  0  0  0  0  0  0  0  0  0
   12.7747  -10.8367  -23.7060 C   0  0  2  0  0  0  0  0  0  0  0  0
    6.4107  -12.8811  -16.9003 O   0  0  0  0  0  0  0  0  0  0  0  0
   16.0601   -7.0005  -24.7712 N   0  0  0  0  0  0  0  0  0  0  0  0
   15.3602   -7.7478  -25.6075 C   0  0  0  0  0  0  0  0  0  0  0  0
   14.5509   -8.7010  -25.1795 N   0  0  0  0  0  0  0  0  0  0  0  0
   14.4114   -8.9393  -23.8667 C   0  0  0  0  0  0  0  0  0  0  0  0
   15.1314   -8.1764  -22.9580 C   0  0  0  0  0  0  0  0  0  0  0  0
   15.9748   -7.1861  -23.4477 C   0  0  0  0  0  0  0  0  0  0  0  0
   16.7098   -6.4606  -22.6106 N   0  0  0  0  0  0  0  0  0  0  0  0
   14.8228   -8.6041  -21.7389 N   0  0  0  0  0  0  0  0  0  0  0  0
   13.9452   -9.5959  -21.8714 C   0  0  0  0  0  0  0  0  0  0  0  0
   13.6897   -9.8055  -23.1629 N   0  0  0  0  0  0  0  0  0  0  0  0
  2  1  1  1  0  0  0
  2  5  1  0  0  0  0
  2  3  1  0  0  0  0
  3 17  1  0  0  0  0
  3  4  1  0  0  0  0
  5  6  1  0  0  0  0
  7  8  1  0  0  0  0
  8  6  1  1  0  0  0
  8  9  1  0  0  0  0
 10  9  1  1  0  0  0
 10 11  1  0  0  0  0
 10 12  1  0  0  0  0
 11 16  1  0  0  0  0
 12 13  1  6  0  0  0
 12 14  1  0  0  0  0
 14 15  1  6  0  0  0
 14 16  1  0  0  0  0
 16 27  1  1  0  0  0
 18 23  2  0  0  0  0
 18 19  1  0  0  0  0
 19 20  2  0  0  0  0
 20 21  1  0  0  0  0
 21 22  2  0  0  0  0
 21 27  1  0  0  0  0
 22 23  1  0  0  0  0
 22 25  1  0  0  0  0
 23 24  1  0  0  0  0
 25 26  2  0  0  0  0
 26 27  1  0  0  0  0
M  END
>  <CHROM.1>
-177.44975161,134.89381298,55.39035211,-123.97710658,-165.65851166,168.81822309
-93.53568719,11.10642549,-10.94062586,-21.73519753,3.13230579,-0.67927836
-2.45428492

>  <Name>
ligand

>  <RI>
0

>  <Rbt.Current_Directory>
/home/itssahil/PROJECTS/Mol_Feturizer/New_Systems/rnas/3E5F

>  <Rbt.Executable>
rbdock ($Id: //depot/dev/client3/rdock/2013.1/src/exe/rbdock.cxx#4 $)

>  <Rbt.Library>
libRbt.so (2013.1, Build901 2013/11/27)

>  <Rbt.Parameter_File>
/export/apps/rDock/src/rDock_2013.1_src/data/scripts/dock_solv.prm

>  <Rbt.Receptor>
prm/blind_docking_80.prm

>  <SCORE>
-21.9897

>  <SCORE.INTER>
-22.5744

>  <SCORE.INTER.CONST>
1

>  <SCORE.INTER.POLAR>
0

>  <SCORE.INTER.ROT>
7

>  <SCORE.INTER.SOLV>
14.4677

>  <SCORE.INTER.VDW>
-28.1388

>  <SCORE.INTER.norm>
-0.836089

>  <SCORE.INTRA>
0.584697

>  <SCORE.INTRA.DIHEDRAL>
1.46937

>  <SCORE.INTRA.DIHEDRAL.0>
4.89803

>  <SCORE.INTRA.POLAR>
0

>  <SCORE.INTRA.POLAR.0>
0

>  <SCORE.INTRA.REPUL>
0

>  <SCORE.INTRA.REPUL.0>
0

>  <SCORE.INTRA.SOLV>
-0.0242741

>  <SCORE.INTRA.SOLV.lig_0>
-48.5832

>  <SCORE.INTRA.VDW>
-0.137851

>  <SCORE.INTRA.VDW.0>
-2.39056

>  <SCORE.INTRA.norm>
0.0216555

>  <SCORE.RESTR>
0

>  <SCORE.RESTR.CAVITY>
0

>  <SCORE.RESTR.norm>
0

>  <SCORE.SYSTEM>
0

>  <SCORE.SYSTEM.CONST>
0

>  <SCORE.SYSTEM.DIHEDRAL>
0

>  <SCORE.SYSTEM.SOLV>
0

>  <SCORE.SYSTEM.norm>
0

>  <SCORE.heavy>
27

>  <SCORE.norm>
-0.814434

>  <RMSD>
6.567

$$$$
ligand
 OpenBabel11021811473D
libRbt.so/2013.1/901 2013/11/27
 27 29  0  0  0  0  0  0  0  0999 V2000
    9.3845  -13.4432  -22.6314 N   0  0  0  0  0  0  0  0  0  0  0  0
   10.3328  -13.1811  -21.5388 C   0  0  2  0  0  0  0  0  0  0  0  0
    9.6166  -13.2864  -20.1890 C   0  0  0  0  0  0  0  0  0  0  0  0
    9.9561  -14.2275  -19.4390 O   0  0  0  0  0  0  0  0  0  0  0  0
   10.8952  -11.7679  -21.7021 C   0  0  0  0  0  0  0  0  0  0  0  0
   11.6797  -11.6091  -23.0070 C   0  0  0  0  0  0  0  0  0  0  0  0
   13.1872  -10.0178  -24.8141 C   0  0  0  0  0  0  0  0  0  0  0  0
   12.3094   -9.8708  -23.1975 Se  0  0  2  0  0  0  0  0  0  0  0  0
   13.7298   -9.6563  -22.0174 C   0  0  0  0  0  0  0  0  0  0  0  0
   13.2939   -9.3492  -20.5842 C   0  0  1  0  0  0  0  0  0  0  0  0
   14.4581   -8.9776  -19.8265 O   0  0  0  0  0  0  0  0  0  0  0  0
   12.4413   -8.0807  -20.6316 C   0  0  1  0  0  0  0  0  0  0  0  0
   11.8503   -7.8521  -19.3514 O   0  0  0  0  0  0  0  0  0  0  0  0
   13.5421   -7.0544  -20.8878 C   0  0  1  0  0  0  0  0  0  0  0  0
   13.0758   -5.7675  -20.4781 O   0  0  0  0  0  0  0  0  0  0  0  0
   14.5882   -7.5459  -19.8864 C   0  0  2  0  0  0  0  0  0  0  0  0
    8.7392  -12.4305  -19.9400 O   0  0  0  0  0  0  0  0  0  0  0  0
   17.7405   -3.6465  -21.1122 N   0  0  0  0  0  0  0  0  0  0  0  0
   16.4591   -3.6057  -20.7901 C   0  0  0  0  0  0  0  0  0  0  0  0
   15.7794   -4.7005  -20.4965 N   0  0  0  0  0  0  0  0  0  0  0  0
   16.3784   -5.9008  -20.5136 C   0  0  0  0  0  0  0  0  0  0  0  0
   17.7226   -5.9839  -20.8488 C   0  0  0  0  0  0  0  0  0  0  0  0
   18.4016   -4.8104  -21.1549 C   0  0  0  0  0  0  0  0  0  0  0  0
   19.6797   -4.8535  -21.5181 N   0  0  0  0  0  0  0  0  0  0  0  0
   18.0730   -7.2640  -20.7952 N   0  0  0  0  0  0  0  0  0  0  0  0
   16.9956   -7.9608  -20.4414 C   0  0  0  0  0  0  0  0  0  0  0  0
   15.9608   -7.1384  -20.2680 N   0  0  0  0  0  0  0  0  0  0  0  0
  2  1  1  6  0  0  0
  2  5  1  0  0  0  0
  2  3  1  0  0  0  0
  3 17  1  0  0  0  0
  3  4  1  0  0  0  0
  5  6  1  0  0  0  0
  7  8  1  0  0  0  0
  8  6  1  1  0  0  0
  8  9  1  0  0  0  0
 10  9  1  6  0  0  0
 10 11  1  0  0  0  0
 10 12  1  0  0  0  0
 11 16  1  0  0  0  0
 12 13  1  1  0  0  0
 12 14  1  0  0  0  0
 14 15  1  1  0  0  0
 14 16  1  0  0  0  0
 16 27  1  6  0  0  0
 18 23  2  0  0  0  0
 18 19  1  0  0  0  0
 19 20  2  0  0  0  0
 20 21  1  0  0  0  0
 21 22  2  0  0  0  0
 21 27  1  0  0  0  0
 22 23  1  0  0  0  0
 22 25  1  0  0  0  0
 23 24  1  0  0  0  0
 25 26  2  0  0  0  0
 26 27  1  0  0  0  0
M  END
>  <CHROM.1>
-62.47944307,113.34575627,178.44244121,179.75563515,-81.73835542,-170.11177168
174.27376373,13.59726175,-8.79078519,-21.35509798,-2.81123538,0.74314676
1.20841124

>  <Name>
ligand

>  <RI>
0

>  <Rbt.Current_Directory>
/home/itssahil/PROJECTS/Mol_Feturizer/New_Systems/rnas/3E5F

>  <Rbt.Executable>
rbdock ($Id: //depot/dev/client3/rdock/2013.1/src/exe/rbdock.cxx#4 $)

>  <Rbt.Library>
libRbt.so (2013.1, Build901 2013/11/27)

>  <Rbt.Parameter_File>
/export/apps/rDock/src/rDock_2013.1_src/data/scripts/dock_solv.prm

>  <Rbt.Receptor>
prm/blind_docking_40.prm

>  <SCORE>
-13.3742

>  <SCORE.INTER>
-13.1394

>  <SCORE.INTER.CONST>
1

>  <SCORE.INTER.POLAR>
0

>  <SCORE.INTER.ROT>
7

>  <SCORE.INTER.SOLV>
12.023

>  <SCORE.INTER.VDW>
-21.034

>  <SCORE.INTER.norm>
-0.486646

>  <SCORE.INTRA>
-0.234725

>  <SCORE.INTRA.DIHEDRAL>
-1.19809

>  <SCORE.INTRA.DIHEDRAL.0>
4.89803

>  <SCORE.INTRA.POLAR>
0

>  <SCORE.INTRA.POLAR.0>
0

>  <SCORE.INTRA.REPUL>
0

>  <SCORE.INTRA.REPUL.0>
0

>  <SCORE.INTRA.SOLV>
0.797437

>  <SCORE.INTRA.SOLV.lig_0>
-48.5832

>  <SCORE.INTRA.VDW>
-0.0344006

>  <SCORE.INTRA.VDW.0>
-2.39056

>  <SCORE.INTRA.norm>
-0.00869352

>  <SCORE.RESTR>
0

>  <SCORE.RESTR.CAVITY>
0

>  <SCORE.RESTR.norm>
0

>  <SCORE.SYSTEM>
0

>  <SCORE.SYSTEM.CONST>
0

>  <SCORE.SYSTEM.DIHEDRAL>
0

>  <SCORE.SYSTEM.SOLV>
0

>  <SCORE.SYSTEM.norm>
0

>  <SCORE.heavy>
27

>  <SCORE.norm>
-0.49534

>  <RMSD>
6.569

$$$$
ligand
 OpenBabel11021811473D
libRbt.so/2013.1/901 2013/11/27
 27 29  0  0  0  0  0  0  0  0999 V2000
   11.4554   -5.5097  -17.9397 N   0  0  0  0  0  0  0  0  0  0  0  0
   10.6370   -6.5653  -18.5541 C   0  0  2  0  0  0  0  0  0  0  0  0
    9.4550   -6.9073  -17.6419 C   0  0  0  0  0  0  0  0  0  0  0  0
    8.5477   -7.6153  -18.1311 O   0  0  0  0  0  0  0  0  0  0  0  0
   11.5026   -7.8118  -18.7463 C   0  0  0  0  0  0  0  0  0  0  0  0
   12.6770   -7.5550  -19.6940 C   0  0  0  0  0  0  0  0  0  0  0  0
   15.4014   -8.3103  -19.9724 C   0  0  0  0  0  0  0  0  0  0  0  0
   13.7257   -9.0780  -19.8819 Se  0  0  2  0  0  0  0  0  0  0  0  0
   13.5040   -9.7007  -21.6196 C   0  0  0  0  0  0  0  0  0  0  0  0
   13.7460  -11.2034  -21.7669 C   0  0  1  0  0  0  0  0  0  0  0  0
   12.9296  -11.8903  -20.8028 O   0  0  0  0  0  0  0  0  0  0  0  0
   13.1793  -11.6231  -23.1237 C   0  0  1  0  0  0  0  0  0  0  0  0
   13.5447  -12.9765  -23.3979 O   0  0  0  0  0  0  0  0  0  0  0  0
   11.6889  -11.5407  -22.8034 C   0  0  1  0  0  0  0  0  0  0  0  0
   10.9725  -12.3538  -23.7345 O   0  0  0  0  0  0  0  0  0  0  0  0
   11.6826  -12.2267  -21.4367 C   0  0  2  0  0  0  0  0  0  0  0  0
    9.4790   -6.4464  -16.4795 O   0  0  0  0  0  0  0  0  0  0  0  0
    7.7282  -13.7614  -18.4952 N   0  0  0  0  0  0  0  0  0  0  0  0
    8.6397  -14.4976  -19.1074 C   0  0  0  0  0  0  0  0  0  0  0  0
    9.6024  -13.9542  -19.8317 N   0  0  0  0  0  0  0  0  0  0  0  0
    9.6862  -12.6220  -19.9660 C   0  0  0  0  0  0  0  0  0  0  0  0
    8.7460  -11.8161  -19.3394 C   0  0  0  0  0  0  0  0  0  0  0  0
    7.7469  -12.4257  -18.5898 C   0  0  0  0  0  0  0  0  0  0  0  0
    6.8060  -11.6895  -18.0067 N   0  0  0  0  0  0  0  0  0  0  0  0
    9.0433  -10.5534  -19.6249 N   0  0  0  0  0  0  0  0  0  0  0  0
   10.1255  -10.5608  -20.3996 C   0  0  0  0  0  0  0  0  0  0  0  0
   10.5227  -11.8157  -20.6113 N   0  0  0  0  0  0  0  0  0  0  0  0
  2  1  1  1  0  0  0
  2  5  1  0  0  0  0
  2  3  1  0  0  0  0
  3 17  1  0  0  0  0
  3  4  1  0  0  0  0
  5  6  1  0  0  0  0
  7  8  1  0  0  0  0
  8  6  1  6  0  0  0
  8  9  1  0  0  0  0
 10  9  1  1  0  0  0
 10 11  1  0  0  0  0
 10 12  1  0  0  0  0
 11 16  1  0  0  0  0
 12 13  1  1  0  0  0
 12 14  1  0  0  0  0
 14 15  1  6  0  0  0
 14 16  1  0  0  0  0
 16 27  1  1  0  0  0
 18 23  2  0  0  0  0
 18 19  1  0  0  0  0
 19 20  2  0  0  0  0
 20 21  1  0  0  0  0
 21 22  2  0  0  0  0
 21 27  1  0  0  0  0
 22 23  1  0  0  0  0
 22 25  1  0  0  0  0
 23 24  1  0  0  0  0
 25 26  2  0  0  0  0
 26 27  1  0  0  0  0
M  END
>  <CHROM.1>
-62.15927658,167.88980127,178.96573810,-142.95863620,-153.73831132,52.87151967
-109.90837300,11.32180401,-10.23401396,-19.98960593,1.14534873,0.48782124
0.52378590

>  <Name>
ligand

>  <RI>
0

>  <Rbt.Current_Directory>
/home/itssahil/PROJECTS/Mol_Feturizer/New_Systems/rnas/3E5F

>  <Rbt.Executable>
rbdock ($Id: //depot/dev/client3/rdock/2013.1/src/exe/rbdock.cxx#4 $)

>  <Rbt.Library>
libRbt.so (2013.1, Build901 2013/11/27)

>  <Rbt.Parameter_File>
/export/apps/rDock/src/rDock_2013.1_src/data/scripts/dock_solv.prm

>  <Rbt.Receptor>
prm/pocket_docking_7.prm

>  <SCORE>
-13.3699

>  <SCORE.INTER>
-13.7724

>  <SCORE.INTER.CONST>
1

>  <SCORE.INTER.POLAR>
0

>  <SCORE.INTER.ROT>
7

>  <SCORE.INTER.SOLV>
7.23779

>  <SCORE.INTER.VDW>
-19.8609

>  <SCORE.INTER.norm>
-0.510089

>  <SCORE.INTRA>
0.402443

>  <SCORE.INTRA.DIHEDRAL>
1.46186

>  <SCORE.INTRA.DIHEDRAL.0>
4.89803

>  <SCORE.INTRA.POLAR>
0

>  <SCORE.INTRA.POLAR.0>
0

>  <SCORE.INTRA.REPUL>
0

>  <SCORE.INTRA.REPUL.0>
0

>  <SCORE.INTRA.SOLV>
0.636673

>  <SCORE.INTRA.SOLV.lig_0>
-48.5832

>  <SCORE.INTRA.VDW>
-0.646822

>  <SCORE.INTRA.VDW.0>
-2.39056

>  <SCORE.INTRA.norm>
0.0149053

>  <SCORE.RESTR>
0

>  <SCORE.RESTR.CAVITY>
0

>  <SCORE.RESTR.norm>
0

>  <SCORE.SYSTEM>
0

>  <SCORE.SYSTEM.CONST>
0

>  <SCORE.SYSTEM.DIHEDRAL>
0

>  <SCORE.SYSTEM.SOLV>
0

>  <SCORE.SYSTEM.norm>
0

>  <SCORE.heavy>
27

>  <SCORE.norm>
-0.495183

>  <RMSD>
6.570

$$$$
ligand
 OpenBabel11021811473D
libRbt.so/2013.1/901 2013/11/27
 27 29  0  0  0  0  0  0  0  0999 V2000
   10.4539  -12.8106  -21.2656 N   0  0  0  0  0  0  0  0  0  0  0  0
   11.1888  -11.9253  -22.1810 C   0  0  2  0  0  0  0  0  0  0  0  0
   10.2131  -11.2483  -23.1484 C   0  0  0  0  0  0  0  0  0  0  0  0
    9.9180  -10.0560  -22.9140 O   0  0  0  0  0  0  0  0  0  0  0  0
   12.1903  -12.7622  -22.9788 C   0  0  0  0  0  0  0  0  0  0  0  0
   13.3759  -11.9266  -23.4682 C   0  0  0  0  0  0  0  0  0  0  0  0
   13.2591   -9.7433  -25.2820 C   0  0  0  0  0  0  0  0  0  0  0  0
   12.9467  -10.1185  -23.5024 Se  0  0  2  0  0  0  0  0  0  0  0  0
   14.3337   -9.1971  -22.6756 C   0  0  0  0  0  0  0  0  0  0  0  0
   14.5349   -9.5809  -21.2091 C   0  0  1  0  0  0  0  0  0  0  0  0
   15.7674   -8.9972  -20.7532 O   0  0  0  0  0  0  0  0  0  0  0  0
   13.4479   -8.8706  -20.4014 C   0  0  1  0  0  0  0  0  0  0  0  0
   13.4690   -9.3402  -19.0525 O   0  0  0  0  0  0  0  0  0  0  0  0
   13.9875   -7.4440  -20.4647 C   0  0  1  0  0  0  0  0  0  0  0  0
   13.4316   -6.6933  -19.3837 O   0  0  0  0  0  0  0  0  0  0  0  0
   15.4640   -7.7157  -20.1737 C   0  0  2  0  0  0  0  0  0  0  0  0
    9.7762  -11.9391  -24.0951 O   0  0  0  0  0  0  0  0  0  0  0  0
   15.9819   -2.6980  -21.2684 N   0  0  0  0  0  0  0  0  0  0  0  0
   14.9504   -3.3263  -20.7312 C   0  0  0  0  0  0  0  0  0  0  0  0
   14.9674   -4.6288  -20.5079 N   0  0  0  0  0  0  0  0  0  0  0  0
   16.0473   -5.3608  -20.8207 C   0  0  0  0  0  0  0  0  0  0  0  0
   17.1493   -4.7365  -21.3881 C   0  0  0  0  0  0  0  0  0  0  0  0
   17.0911   -3.3658  -21.6107 C   0  0  0  0  0  0  0  0  0  0  0  0
   18.1115   -2.7389  -22.1877 N   0  0  0  0  0  0  0  0  0  0  0  0
   18.0731   -5.6665  -21.6028 N   0  0  0  0  0  0  0  0  0  0  0  0
   17.5758   -6.8297  -21.1890 C   0  0  0  0  0  0  0  0  0  0  0  0
   16.3439   -6.6517  -20.7115 N   0  0  0  0  0  0  0  0  0  0  0  0
  2  1  1  1  0  0  0
  2  5  1  0  0  0  0
  2  3  1  0  0  0  0
  3 17  1  0  0  0  0
  3  4  1  0  0  0  0
  5  6  1  0  0  0  0
  7  8  1  0  0  0  0
  8  6  1  6  0  0  0
  8  9  1  0  0  0  0
 10  9  1  6  0  0  0
 10 11  1  0  0  0  0
 10 12  1  0  0  0  0
 11 16  1  0  0  0  0
 12 13  1  1  0  0  0
 12 14  1  0  0  0  0
 14 15  1  1  0  0  0
 14 16  1  0  0  0  0
 16 27  1  6  0  0  0
 18 23  2  0  0  0  0
 18 19  1  0  0  0  0
 19 20  2  0  0  0  0
 20 21  1  0  0  0  0
 21 22  2  0  0  0  0
 21 27  1  0  0  0  0
 22 23  1  0  0  0  0
 22 25  1  0  0  0  0
 23 24  1  0  0  0  0
 25 26  2  0  0  0  0
 26 27  1  0  0  0  0
M  END
>  <CHROM.1>
-154.78747070,102.74444055,-20.97205453,-122.01789768,-61.80238834,169.64353162
152.03325616,13.96258994,-8.41059014,-21.95114731,2.66727616,-0.86403654
-1.87721007

>  <Name>
ligand

>  <RI>
0

>  <Rbt.Current_Directory>
/home/itssahil/PROJECTS/Mol_Feturizer/New_Systems/rnas/3E5F

>  <Rbt.Executable>
rbdock ($Id: //depot/dev/client3/rdock/2013.1/src/exe/rbdock.cxx#4 $)

>  <Rbt.Library>
libRbt.so (2013.1, Build901 2013/11/27)

>  <Rbt.Parameter_File>
/export/apps/rDock/src/rDock_2013.1_src/data/scripts/dock_solv.prm

>  <Rbt.Receptor>
prm/blind_docking_80.prm

>  <SCORE>
-9.13815

>  <SCORE.INTER>
-12.3507

>  <SCORE.INTER.CONST>
1

>  <SCORE.INTER.POLAR>
0

>  <SCORE.INTER.ROT>
7

>  <SCORE.INTER.SOLV>
22.087

>  <SCORE.INTER.VDW>
-23.8628

>  <SCORE.INTER.norm>
-0.457434

>  <SCORE.INTRA>
2.71367

>  <SCORE.INTRA.DIHEDRAL>
6.87834

>  <SCORE.INTRA.DIHEDRAL.0>
4.89803

>  <SCORE.INTRA.POLAR>
0

>  <SCORE.INTRA.POLAR.0>
0

>  <SCORE.INTRA.REPUL>
0

>  <SCORE.INTRA.REPUL.0>
0

>  <SCORE.INTRA.SOLV>
0.236489

>  <SCORE.INTRA.SOLV.lig_0>
-48.5832

>  <SCORE.INTRA.VDW>
-0.843744

>  <SCORE.INTRA.VDW.0>
-2.39056

>  <SCORE.INTRA.norm>
0.100506

>  <SCORE.RESTR>
0.498906

>  <SCORE.RESTR.CAVITY>
0.498906

>  <SCORE.RESTR.norm>
0.018478

>  <SCORE.SYSTEM>
0

>  <SCORE.SYSTEM.CONST>
0

>  <SCORE.SYSTEM.DIHEDRAL>
0

>  <SCORE.SYSTEM.SOLV>
0

>  <SCORE.SYSTEM.norm>
0

>  <SCORE.heavy>
27

>  <SCORE.norm>
-0.33845

>  <RMSD>
6.574

$$$$
ligand
 OpenBabel11021811473D
libRbt.so/2013.1/901 2013/11/27
 27 29  0  0  0  0  0  0  0  0999 V2000
    5.4109  -11.7795  -17.3346 N   0  0  0  0  0  0  0  0  0  0  0  0
    6.3272  -11.2419  -18.3511 C   0  0  2  0  0  0  0  0  0  0  0  0
    5.8985  -11.7152  -19.7434 C   0  0  0  0  0  0  0  0  0  0  0  0
    5.2254  -10.9168  -20.4311 O   0  0  0  0  0  0  0  0  0  0  0  0
    7.7404  -11.7495  -18.0592 C   0  0  0  0  0  0  0  0  0  0  0  0
    8.7964  -11.0202  -18.8937 C   0  0  0  0  0  0  0  0  0  0  0  0
    9.5736  -13.4066  -20.2246 C   0  0  0  0  0  0  0  0  0  0  0  0
    8.8987  -11.7323  -20.6075 Se  0  0  2  0  0  0  0  0  0  0  0  0
   10.3428  -10.9320  -21.4620 C   0  0  0  0  0  0  0  0  0  0  0  0
   10.4585  -11.2991  -22.9420 C   0  0  1  0  0  0  0  0  0  0  0  0
   11.2924  -10.3214  -23.5873 O   0  0  0  0  0  0  0  0  0  0  0  0
   11.2540  -12.6024  -23.0251 C   0  0  1  0  0  0  0  0  0  0  0  0
   11.2314  -13.0931  -24.3663 O   0  0  0  0  0  0  0  0  0  0  0  0
   12.6429  -12.0640  -22.6908 C   0  0  1  0  0  0  0  0  0  0  0  0
   13.6225  -12.9770  -23.1889 O   0  0  0  0  0  0  0  0  0  0  0  0
   12.6465  -10.8070  -23.5618 C   0  0  2  0  0  0  0  0  0  0  0  0
    6.2442  -12.8673  -20.0862 O   0  0  0  0  0  0  0  0  0  0  0  0
   15.9626   -7.0357  -24.7557 N   0  0  0  0  0  0  0  0  0  0  0  0
   15.2373   -7.7879  -25.5654 C   0  0  0  0  0  0  0  0  0  0  0  0
   14.4235   -8.7222  -25.1057 N   0  0  0  0  0  0  0  0  0  0  0  0
   14.3053   -8.9354  -23.7865 C   0  0  0  0  0  0  0  0  0  0  0  0
   15.0521   -8.1665  -22.9050 C   0  0  0  0  0  0  0  0  0  0  0  0
   15.8994   -7.1966  -23.4278 C   0  0  0  0  0  0  0  0  0  0  0  0
   16.6596   -6.4667  -22.6174 N   0  0  0  0  0  0  0  0  0  0  0  0
   14.7607   -8.5684  -21.6730 N   0  0  0  0  0  0  0  0  0  0  0  0
   13.8675   -9.5503  -21.7715 C   0  0  0  0  0  0  0  0  0  0  0  0
   13.5853   -9.7791  -23.0542 N   0  0  0  0  0  0  0  0  0  0  0  0
  2  1  1  1  0  0  0
  2  5  1  0  0  0  0
  2  3  1  0  0  0  0
  3 17  1  0  0  0  0
  3  4  1  0  0  0  0
  5  6  1  0  0  0  0
  7  8  1  0  0  0  0
  8  6  1  1  0  0  0
  8  9  1  0  0  0  0
 10  9  1  1  0  0  0
 10 11  1  0  0  0  0
 10 12  1  0  0  0  0
 11 16  1  0  0  0  0
 12 13  1  6  0  0  0
 12 14  1  0  0  0  0
 14 15  1  6  0  0  0
 14 16  1  0  0  0  0
 16 27  1  1  0  0  0
 18 23  2  0  0  0  0
 18 19  1  0  0  0  0
 19 20  2  0  0  0  0
 20 21  1  0  0  0  0
 21 22  2  0  0  0  0
 21 27  1  0  0  0  0
 22 23  1  0  0  0  0
 22 25  1  0  0  0  0
 23 24  1  0  0  0  0
 25 26  2  0  0  0  0
 26 27  1  0  0  0  0
M  END
>  <CHROM.1>
-168.54441551,98.48488744,-81.20709317,-67.19544173,-173.31109942,161.20576613
-95.13666234,10.92111480,-10.73199957,-21.74611734,3.12474278,-0.60272634
-2.50087562

>  <Name>
ligand

>  <RI>
0

>  <Rbt.Current_Directory>
/home/itssahil/PROJECTS/Mol_Feturizer/New_Systems/rnas/3E5F

>  <Rbt.Executable>
rbdock ($Id: //depot/dev/client3/rdock/2013.1/src/exe/rbdock.cxx#4 $)

>  <Rbt.Library>
libRbt.so (2013.1, Build901 2013/11/27)

>  <Rbt.Parameter_File>
/export/apps/rDock/src/rDock_2013.1_src/data/scripts/dock_solv.prm

>  <Rbt.Receptor>
prm/blind_docking_60.prm

>  <SCORE>
-20.8558

>  <SCORE.INTER>
-21.8493

>  <SCORE.INTER.CONST>
1

>  <SCORE.INTER.POLAR>
0

>  <SCORE.INTER.ROT>
7

>  <SCORE.INTER.SOLV>
13.5566

>  <SCORE.INTER.VDW>
-27.3518

>  <SCORE.INTER.norm>
-0.809234

>  <SCORE.INTRA>
0.993525

>  <SCORE.INTRA.DIHEDRAL>
1.48852

>  <SCORE.INTRA.DIHEDRAL.0>
4.89803

>  <SCORE.INTRA.POLAR>
0

>  <SCORE.INTRA.POLAR.0>
0

>  <SCORE.INTRA.REPUL>
0

>  <SCORE.INTRA.REPUL.0>
0

>  <SCORE.INTRA.SOLV>
-0.0440233

>  <SCORE.INTRA.SOLV.lig_0>
-48.5832

>  <SCORE.INTRA.VDW>
0.271277

>  <SCORE.INTRA.VDW.0>
-2.39056

>  <SCORE.INTRA.norm>
0.0367972

>  <SCORE.RESTR>
0

>  <SCORE.RESTR.CAVITY>
0

>  <SCORE.RESTR.norm>
0

>  <SCORE.SYSTEM>
0

>  <SCORE.SYSTEM.CONST>
0

>  <SCORE.SYSTEM.DIHEDRAL>
0

>  <SCORE.SYSTEM.SOLV>
0

>  <SCORE.SYSTEM.norm>
0

>  <SCORE.heavy>
27

>  <SCORE.norm>
-0.772436

>  <RMSD>
6.605

$$$$
ligand
 OpenBabel11021811473D
libRbt.so/2013.1/901 2013/11/27
 27 29  0  0  0  0  0  0  0  0999 V2000
   12.4697  -12.9117  -22.5637 N   0  0  0  0  0  0  0  0  0  0  0  0
   13.1118  -12.2153  -21.4391 C   0  0  2  0  0  0  0  0  0  0  0  0
   12.0502  -11.7531  -20.4363 C   0  0  0  0  0  0  0  0  0  0  0  0
   10.8872  -11.6034  -20.8706 O   0  0  0  0  0  0  0  0  0  0  0  0
   13.8616  -10.9955  -21.9774 C   0  0  0  0  0  0  0  0  0  0  0  0
   13.0052  -10.1765  -22.9465 C   0  0  0  0  0  0  0  0  0  0  0  0
   15.1278   -8.3743  -23.5096 C   0  0  0  0  0  0  0  0  0  0  0  0
   13.4127   -8.3669  -22.8283 Se  0  0  2  0  0  0  0  0  0  0  0  0
   13.7223   -7.9776  -21.0370 C   0  0  0  0  0  0  0  0  0  0  0  0
   12.4569   -7.9980  -20.1786 C   0  0  1  0  0  0  0  0  0  0  0  0
   12.8420   -8.2074  -18.8091 O   0  0  0  0  0  0  0  0  0  0  0  0
   11.8689   -6.5867  -20.2042 C   0  0  1  0  0  0  0  0  0  0  0  0
   10.5859   -6.5904  -19.5762 O   0  0  0  0  0  0  0  0  0  0  0  0
   12.8847   -5.8811  -19.3094 C   0  0  1  0  0  0  0  0  0  0  0  0
   12.2873   -4.6958  -18.7807 O   0  0  0  0  0  0  0  0  0  0  0  0
   13.0051   -6.9180  -18.1919 C   0  0  2  0  0  0  0  0  0  0  0  0
   12.4255  -11.5503  -19.2606 O   0  0  0  0  0  0  0  0  0  0  0  0
   18.1520   -7.1057  -18.5353 N   0  0  0  0  0  0  0  0  0  0  0  0
   17.2524   -7.2455  -19.4937 C   0  0  0  0  0  0  0  0  0  0  0  0
   15.9559   -7.1696  -19.2486 N   0  0  0  0  0  0  0  0  0  0  0  0
   15.5088   -6.9421  -18.0043 C   0  0  0  0  0  0  0  0  0  0  0  0
   16.4234   -6.7917  -16.9714 C   0  0  0  0  0  0  0  0  0  0  0  0
   17.7780   -6.8820  -17.2691 C   0  0  0  0  0  0  0  0  0  0  0  0
   18.6829   -6.7819  -16.3004 N   0  0  0  0  0  0  0  0  0  0  0  0
   15.7376   -6.5808  -15.8535 N   0  0  0  0  0  0  0  0  0  0  0  0
   14.4441   -6.5977  -16.1665 C   0  0  0  0  0  0  0  0  0  0  0  0
   14.2970   -6.8167  -17.4733 N   0  0  0  0  0  0  0  0  0  0  0  0
  2  1  1  6  0  0  0
  2  5  1  0  0  0  0
  2  3  1  0  0  0  0
  3 17  1  0  0  0  0
  3  4  1  0  0  0  0
  5  6  1  0  0  0  0
  7  8  1  0  0  0  0
  8  6  1  1  0  0  0
  8  9  1  0  0  0  0
 10  9  1  6  0  0  0
 10 11  1  0  0  0  0
 10 12  1  0  0  0  0
 11 16  1  0  0  0  0
 12 13  1  1  0  0  0
 12 14  1  0  0  0  0
 14 15  1  1  0  0  0
 14 16  1  0  0  0  0
 16 27  1  6  0  0  0
 18 23  2  0  0  0  0
 18 19  1  0  0  0  0
 19 20  2  0  0  0  0
 20 21  1  0  0  0  0
 21 22  2  0  0  0  0
 21 27  1  0  0  0  0
 22 23  1  0  0  0  0
 22 25  1  0  0  0  0
 23 24  1  0  0  0  0
 25 26  2  0  0  0  0
 26 27  1  0  0  0  0
M  END
>  <CHROM.1>
47.20470738,-23.27662264,147.15472217,67.51066734,-71.34438646,157.87699469
60.18369166,13.90891586,-8.25983323,-20.06219340,-2.08967594,-0.18728384
0.79369903

>  <Name>
ligand

>  <RI>
0

>  <Rbt.Current_Directory>
/home/itssahil/PROJECTS/Mol_Feturizer/New_Systems/rnas/3E5F

>  <Rbt.Executable>
rbdock ($Id: //depot/dev/client3/rdock/2013.1/src/exe/rbdock.cxx#4 $)

>  <Rbt.Library>
libRbt.so (2013.1, Build901 2013/11/27)

>  <Rbt.Parameter_File>
/export/apps/rDock/src/rDock_2013.1_src/data/scripts/dock_solv.prm

>  <Rbt.Receptor>
prm/pocket_docking_2.prm

>  <SCORE>
-2.36367

>  <SCORE.INTER>
-5.76986

>  <SCORE.INTER.CONST>
1

>  <SCORE.INTER.POLAR>
0

>  <SCORE.INTER.ROT>
7

>  <SCORE.INTER.SOLV>
11.6036

>  <SCORE.INTER.VDW>
-15.9811

>  <SCORE.INTER.norm>
-0.213699

>  <SCORE.INTRA>
2.33365

>  <SCORE.INTRA.DIHEDRAL>
3.63361

>  <SCORE.INTRA.DIHEDRAL.0>
4.89803

>  <SCORE.INTRA.POLAR>
0

>  <SCORE.INTRA.POLAR.0>
0

>  <SCORE.INTRA.REPUL>
0

>  <SCORE.INTRA.REPUL.0>
0

>  <SCORE.INTRA.SOLV>
0.842666

>  <SCORE.INTRA.SOLV.lig_0>
-48.5832

>  <SCORE.INTRA.VDW>
0.0955117

>  <SCORE.INTRA.VDW.0>
-2.39056

>  <SCORE.INTRA.norm>
0.0864315

>  <SCORE.RESTR>
1.07254

>  <SCORE.RESTR.CAVITY>
1.07254

>  <SCORE.RESTR.norm>
0.0397237

>  <SCORE.SYSTEM>
0

>  <SCORE.SYSTEM.CONST>
0

>  <SCORE.SYSTEM.DIHEDRAL>
0

>  <SCORE.SYSTEM.SOLV>
0

>  <SCORE.SYSTEM.norm>
0

>  <SCORE.heavy>
27

>  <SCORE.norm>
-0.0875434

>  <RMSD>
6.609

$$$$
ligand
 OpenBabel11021811473D
libRbt.so/2013.1/901 2013/11/27
 27 29  0  0  0  0  0  0  0  0999 V2000
    7.3125  -15.2410  -20.0828 N   0  0  0  0  0  0  0  0  0  0  0  0
    8.2144  -14.2658  -19.4525 C   0  0  2  0  0  0  0  0  0  0  0  0
    7.5071  -13.5837  -18.2775 C   0  0  0  0  0  0  0  0  0  0  0  0
    6.3001  -13.8608  -18.1041 O   0  0  0  0  0  0  0  0  0  0  0  0
    8.6017  -13.2100  -20.4893 C   0  0  0  0  0  0  0  0  0  0  0  0
    9.2583  -13.8317  -21.7246 C   0  0  0  0  0  0  0  0  0  0  0  0
    8.6225  -13.5660  -24.4806 C   0  0  0  0  0  0  0  0  0  0  0  0
    9.3808  -12.5949  -23.1066 Se  0  0  2  0  0  0  0  0  0  0  0  0
   11.1610  -12.5215  -23.6372 C   0  0  0  0  0  0  0  0  0  0  0  0
   12.1497  -12.7877  -22.5014 C   0  0  1  0  0  0  0  0  0  0  0  0
   13.4162  -12.2078  -22.8582 O   0  0  0  0  0  0  0  0  0  0  0  0
   11.6799  -11.9780  -21.2922 C   0  0  1  0  0  0  0  0  0  0  0  0
   12.4552  -12.3338  -20.1465 O   0  0  0  0  0  0  0  0  0  0  0  0
   12.0654  -10.5797  -21.7682 C   0  0  1  0  0  0  0  0  0  0  0  0
   12.1881   -9.7239  -20.6307 O   0  0  0  0  0  0  0  0  0  0  0  0
   13.4602  -10.8734  -22.3221 C   0  0  2  0  0  0  0  0  0  0  0  0
    8.1847  -12.7933  -17.5843 O   0  0  0  0  0  0  0  0  0  0  0  0
   16.0958   -6.5506  -23.3281 N   0  0  0  0  0  0  0  0  0  0  0  0
   15.9618   -7.1905  -22.1792 C   0  0  0  0  0  0  0  0  0  0  0  0
   15.2483   -8.2984  -22.0779 N   0  0  0  0  0  0  0  0  0  0  0  0
   14.6337   -8.8149  -23.1529 C   0  0  0  0  0  0  0  0  0  0  0  0
   14.7499   -8.1701  -24.3763 C   0  0  0  0  0  0  0  0  0  0  0  0
   15.5058   -7.0055  -24.4409 C   0  0  0  0  0  0  0  0  0  0  0  0
   15.6087   -6.3387  -25.5864 N   0  0  0  0  0  0  0  0  0  0  0  0
   14.0579   -8.8702  -25.2681 N   0  0  0  0  0  0  0  0  0  0  0  0
   13.5263   -9.9133  -24.6350 C   0  0  0  0  0  0  0  0  0  0  0  0
   13.8724   -9.8867  -23.3478 N   0  0  0  0  0  0  0  0  0  0  0  0
  2  1  1  6  0  0  0
  2  5  1  0  0  0  0
  2  3  1  0  0  0  0
  3 17  1  0  0  0  0
  3  4  1  0  0  0  0
  5  6  1  0  0  0  0
  7  8  1  0  0  0  0
  8  6  1  1  0  0  0
  8  9  1  0  0  0  0
 10  9  1  6  0  0  0
 10 11  1  0  0  0  0
 10 12  1  0  0  0  0
 11 16  1  0  0  0  0
 12 13  1  1  0  0  0
 12 14  1  0  0  0  0
 14 15  1  1  0  0  0
 14 16  1  0  0  0  0
 16 27  1  6  0  0  0
 18 23  2  0  0  0  0
 18 19  1  0  0  0  0
 19 20  2  0  0  0  0
 20 21  1  0  0  0  0
 21 22  2  0  0  0  0
 21 27  1  0  0  0  0
 22 23  1  0  0  0  0
 22 25  1  0  0  0  0
 23 24  1  0  0  0  0
 25 26  2  0  0  0  0
 26 27  1  0  0  0  0
M  END
>  <CHROM.1>
-57.36046997,-5.36097048,167.70997498,-128.73279079,-31.33916898,-157.60154797
-143.54429559,11.43996862,-11.30925023,-22.19578840,2.83084370,0.71366442
1.47112081

>  <Name>
ligand

>  <RI>
0

>  <Rbt.Current_Directory>
/home/itssahil/PROJECTS/Mol_Feturizer/New_Systems/rnas/3E5F

>  <Rbt.Executable>
rbdock ($Id: //depot/dev/client3/rdock/2013.1/src/exe/rbdock.cxx#4 $)

>  <Rbt.Library>
libRbt.so (2013.1, Build901 2013/11/27)

>  <Rbt.Parameter_File>
/export/apps/rDock/src/rDock_2013.1_src/data/scripts/dock_solv.prm

>  <Rbt.Receptor>
prm/blind_docking_80.prm

>  <SCORE>
-15.9283

>  <SCORE.INTER>
-18.6218

>  <SCORE.INTER.CONST>
1

>  <SCORE.INTER.POLAR>
0

>  <SCORE.INTER.ROT>
7

>  <SCORE.INTER.SOLV>
20.5823

>  <SCORE.INTER.VDW>
-27.542

>  <SCORE.INTER.norm>
-0.689697

>  <SCORE.INTRA>
2.67568

>  <SCORE.INTRA.DIHEDRAL>
3.87564

>  <SCORE.INTRA.DIHEDRAL.0>
4.89803

>  <SCORE.INTRA.POLAR>
0

>  <SCORE.INTRA.POLAR.0>
0

>  <SCORE.INTRA.REPUL>
0

>  <SCORE.INTRA.REPUL.0>
0

>  <SCORE.INTRA.SOLV>
0.97052

>  <SCORE.INTRA.SOLV.lig_0>
-48.5832

>  <SCORE.INTRA.VDW>
0.252595

>  <SCORE.INTRA.VDW.0>
-2.39056

>  <SCORE.INTRA.norm>
0.0990991

>  <SCORE.RESTR>
0.0178683

>  <SCORE.RESTR.CAVITY>
0.0178683

>  <SCORE.RESTR.norm>
0.000661791

>  <SCORE.SYSTEM>
0

>  <SCORE.SYSTEM.CONST>
0

>  <SCORE.SYSTEM.DIHEDRAL>
0

>  <SCORE.SYSTEM.SOLV>
0

>  <SCORE.SYSTEM.norm>
0

>  <SCORE.heavy>
27

>  <SCORE.norm>
-0.589936

>  <RMSD>
6.624

$$$$
ligand
 OpenBabel11021811473D
libRbt.so/2013.1/901 2013/11/27
 27 29  0  0  0  0  0  0  0  0999 V2000
   16.9980   -6.1691  -22.3091 N   0  0  0  0  0  0  0  0  0  0  0  0
   16.0521   -7.2657  -22.5632 C   0  0  2  0  0  0  0  0  0  0  0  0
   15.6840   -7.3041  -24.0496 C   0  0  0  0  0  0  0  0  0  0  0  0
   15.5737   -6.2047  -24.6349 O   0  0  0  0  0  0  0  0  0  0  0  0
   14.7871   -7.0275  -21.7367 C   0  0  0  0  0  0  0  0  0  0  0  0
   13.9299   -8.2906  -21.6219 C   0  0  0  0  0  0  0  0  0  0  0  0
   13.0772   -7.4096  -19.0592 C   0  0  0  0  0  0  0  0  0  0  0  0
   12.3674   -7.9504  -20.6745 Se  0  0  2  0  0  0  0  0  0  0  0  0
   11.6164   -9.5903  -20.2240 C   0  0  0  0  0  0  0  0  0  0  0  0
   12.6297  -10.7346  -20.1746 C   0  0  1  0  0  0  0  0  0  0  0  0
   12.0432  -11.8278  -19.4474 O   0  0  0  0  0  0  0  0  0  0  0  0
   12.7898  -11.2603  -21.6016 C   0  0  1  0  0  0  0  0  0  0  0  0
   13.8627  -12.2022  -21.6479 O   0  0  0  0  0  0  0  0  0  0  0  0
   11.4540  -11.9847  -21.7479 C   0  0  1  0  0  0  0  0  0  0  0  0
   11.5713  -12.9616  -22.7838 O   0  0  0  0  0  0  0  0  0  0  0  0
   11.4003  -12.6977  -20.3961 C   0  0  2  0  0  0  0  0  0  0  0  0
   15.5116   -8.4301  -24.5660 O   0  0  0  0  0  0  0  0  0  0  0  0
    6.8325  -10.8596  -18.8463 N   0  0  0  0  0  0  0  0  0  0  0  0
    7.9320  -10.1934  -19.1545 C   0  0  0  0  0  0  0  0  0  0  0  0
    9.0351  -10.8104  -19.5407 N   0  0  0  0  0  0  0  0  0  0  0  0
    9.0712  -12.1481  -19.6358 C   0  0  0  0  0  0  0  0  0  0  0  0
    7.9367  -12.8820  -19.3189 C   0  0  0  0  0  0  0  0  0  0  0  0
    6.7977  -12.1966  -18.9131 C   0  0  0  0  0  0  0  0  0  0  0  0
    5.7038  -12.8666  -18.5642 N   0  0  0  0  0  0  0  0  0  0  0  0
    8.2270  -14.1668  -19.4900 N   0  0  0  0  0  0  0  0  0  0  0  0
    9.4918  -14.2420  -19.8975 C   0  0  0  0  0  0  0  0  0  0  0  0
   10.0120  -13.0179  -19.9889 N   0  0  0  0  0  0  0  0  0  0  0  0
  2  1  1  6  0  0  0
  2  5  1  0  0  0  0
  2  3  1  0  0  0  0
  3 17  1  0  0  0  0
  3  4  1  0  0  0  0
  5  6  1  0  0  0  0
  7  8  1  0  0  0  0
  8  6  1  6  0  0  0
  8  9  1  0  0  0  0
 10  9  1  6  0  0  0
 10 11  1  0  0  0  0
 10 12  1  0  0  0  0
 11 16  1  0  0  0  0
 12 13  1  1  0  0  0
 12 14  1  0  0  0  0
 14 15  1  6  0  0  0
 14 16  1  0  0  0  0
 16 27  1  1  0  0  0
 18 23  2  0  0  0  0
 18 19  1  0  0  0  0
 19 20  2  0  0  0  0
 20 21  1  0  0  0  0
 21 22  2  0  0  0  0
 21 27  1  0  0  0  0
 22 23  1  0  0  0  0
 22 25  1  0  0  0  0
 23 24  1  0  0  0  0
 25 26  2  0  0  0  0
 26 27  1  0  0  0  0
M  END
>  <CHROM.1>
-163.58821214,-36.59631646,-177.58995009,-60.34935425,23.99114871,163.01222108
50.68841521,11.78346770,-10.05343786,-20.86223321,0.47597198,0.57996953,0.26403103

>  <Name>
ligand

>  <RI>
0

>  <Rbt.Current_Directory>
/home/itssahil/PROJECTS/Mol_Feturizer/New_Systems/rnas/3E5F

>  <Rbt.Executable>
rbdock ($Id: //depot/dev/client3/rdock/2013.1/src/exe/rbdock.cxx#4 $)

>  <Rbt.Library>
libRbt.so (2013.1, Build901 2013/11/27)

>  <Rbt.Parameter_File>
/export/apps/rDock/src/rDock_2013.1_src/data/scripts/dock_solv.prm

>  <Rbt.Receptor>
prm/blind_docking_100.prm

>  <SCORE>
-14.0036

>  <SCORE.INTER>
-15.0064

>  <SCORE.INTER.CONST>
1

>  <SCORE.INTER.POLAR>
0

>  <SCORE.INTER.ROT>
7

>  <SCORE.INTER.SOLV>
9.60872

>  <SCORE.INTER.VDW>
-21.4738

>  <SCORE.INTER.norm>
-0.555792

>  <SCORE.INTRA>
1.00274

>  <SCORE.INTRA.DIHEDRAL>
1.06415

>  <SCORE.INTRA.DIHEDRAL.0>
4.89803

>  <SCORE.INTRA.POLAR>
0

>  <SCORE.INTRA.POLAR.0>
0

>  <SCORE.INTRA.REPUL>
0

>  <SCORE.INTRA.REPUL.0>
0

>  <SCORE.INTRA.SOLV>
0.117394

>  <SCORE.INTRA.SOLV.lig_0>
-48.5832

>  <SCORE.INTRA.VDW>
0.41197

>  <SCORE.INTRA.VDW.0>
-2.39056

>  <SCORE.INTRA.norm>
0.0371386

>  <SCORE.RESTR>
0

>  <SCORE.RESTR.CAVITY>
0

>  <SCORE.RESTR.norm>
0

>  <SCORE.SYSTEM>
0

>  <SCORE.SYSTEM.CONST>
0

>  <SCORE.SYSTEM.DIHEDRAL>
0

>  <SCORE.SYSTEM.SOLV>
0

>  <SCORE.SYSTEM.norm>
0

>  <SCORE.heavy>
27

>  <SCORE.norm>
-0.518653

>  <RMSD>
6.625

$$$$
ligand
 OpenBabel11021811473D
libRbt.so/2013.1/901 2013/11/27
 27 29  0  0  0  0  0  0  0  0999 V2000
   16.6680   -7.0040  -21.3480 N   0  0  0  0  0  0  0  0  0  0  0  0
   16.1198   -7.4939  -22.6213 C   0  0  2  0  0  0  0  0  0  0  0  0
   15.5949   -6.3182  -23.4509 C   0  0  0  0  0  0  0  0  0  0  0  0
   15.2606   -6.5615  -24.6310 O   0  0  0  0  0  0  0  0  0  0  0  0
   14.9677   -8.4557  -22.3249 C   0  0  0  0  0  0  0  0  0  0  0  0
   13.9228   -7.8314  -21.3966 C   0  0  0  0  0  0  0  0  0  0  0  0
   11.7367   -8.1153  -19.6047 C   0  0  0  0  0  0  0  0  0  0  0  0
   12.6703   -9.0952  -20.8593 Se  0  0  2  0  0  0  0  0  0  0  0  0
   13.5488  -10.3354  -19.7886 C   0  0  0  0  0  0  0  0  0  0  0  0
   13.5990  -11.7392  -20.3931 C   0  0  1  0  0  0  0  0  0  0  0  0
   12.4519  -12.4726  -19.9307 O   0  0  0  0  0  0  0  0  0  0  0  0
   13.3831  -11.5920  -21.8998 C   0  0  1  0  0  0  0  0  0  0  0  0
   13.6080  -12.8483  -22.5413 O   0  0  0  0  0  0  0  0  0  0  0  0
   11.8919  -11.2649  -21.9034 C   0  0  1  0  0  0  0  0  0  0  0  0
   11.3561  -11.5741  -23.1913 O   0  0  0  0  0  0  0  0  0  0  0  0
   11.3992  -12.3058  -20.8972 C   0  0  2  0  0  0  0  0  0  0  0  0
   15.5480   -5.2006  -22.8912 O   0  0  0  0  0  0  0  0  0  0  0  0
    7.1433  -13.8516  -18.4188 N   0  0  0  0  0  0  0  0  0  0  0  0
    8.1520  -14.5798  -18.8658 C   0  0  0  0  0  0  0  0  0  0  0  0
    9.1836  -14.0344  -19.4865 N   0  0  0  0  0  0  0  0  0  0  0  0
    9.2398  -12.7081  -19.6807 C   0  0  0  0  0  0  0  0  0  0  0  0
    8.1985  -11.9109  -19.2269 C   0  0  0  0  0  0  0  0  0  0  0  0
    7.1297  -12.5226  -18.5824 C   0  0  0  0  0  0  0  0  0  0  0  0
    6.0957  -11.7970  -18.1679 N   0  0  0  0  0  0  0  0  0  0  0  0
    8.4886  -10.6528  -19.5391 N   0  0  0  0  0  0  0  0  0  0  0  0
    9.6636  -10.6548  -20.1642 C   0  0  0  0  0  0  0  0  0  0  0  0
   10.1270  -11.9015  -20.2539 N   0  0  0  0  0  0  0  0  0  0  0  0
  2  1  1  1  0  0  0
  2  5  1  0  0  0  0
  2  3  1  0  0  0  0
  3 17  1  0  0  0  0
  3  4  1  0  0  0  0
  5  6  1  0  0  0  0
  7  8  1  0  0  0  0
  8  6  1  1  0  0  0
  8  9  1  0  0  0  0
 10  9  1  1  0  0  0
 10 11  1  0  0  0  0
 10 12  1  0  0  0  0
 11 16  1  0  0  0  0
 12 13  1  6  0  0  0
 12 14  1  0  0  0  0
 14 15  1  6  0  0  0
 14 16  1  0  0  0  0
 16 27  1  1  0  0  0
 18 23  2  0  0  0  0
 18 19  1  0  0  0  0
 19 20  2  0  0  0  0
 20 21  1  0  0  0  0
 21 22  2  0  0  0  0
 21 27  1  0  0  0  0
 22 23  1  0  0  0  0
 22 25  1  0  0  0  0
 23 24  1  0  0  0  0
 25 26  2  0  0  0  0
 26 27  1  0  0  0  0
M  END
>  <CHROM.1>
53.04539496,170.82938363,-171.81072813,172.37492559,-114.84101158,-91.47870130
-83.03061114,11.96681163,-10.28003696,-20.87627661,0.57966419,0.51682812
0.10396795

>  <Name>
ligand

>  <RI>
0

>  <Rbt.Current_Directory>
/home/itssahil/PROJECTS/Mol_Feturizer/New_Systems/rnas/3E5F

>  <Rbt.Executable>
rbdock ($Id: //depot/dev/client3/rdock/2013.1/src/exe/rbdock.cxx#4 $)

>  <Rbt.Library>
libRbt.so (2013.1, Build901 2013/11/27)

>  <Rbt.Parameter_File>
/export/apps/rDock/src/rDock_2013.1_src/data/scripts/dock_solv.prm

>  <Rbt.Receptor>
prm/blind_docking_40.prm

>  <SCORE>
-15.6379

>  <SCORE.INTER>
-17.9265

>  <SCORE.INTER.CONST>
1

>  <SCORE.INTER.POLAR>
0

>  <SCORE.INTER.ROT>
7

>  <SCORE.INTER.SOLV>
8.0478

>  <SCORE.INTER.VDW>
-22.9003

>  <SCORE.INTER.norm>
-0.663945

>  <SCORE.INTRA>
2.28866

>  <SCORE.INTRA.DIHEDRAL>
3.15508

>  <SCORE.INTRA.DIHEDRAL.0>
4.89803

>  <SCORE.INTRA.POLAR>
0

>  <SCORE.INTRA.POLAR.0>
0

>  <SCORE.INTRA.REPUL>
0

>  <SCORE.INTRA.REPUL.0>
0

>  <SCORE.INTRA.SOLV>
0.890632

>  <SCORE.INTRA.SOLV.lig_0>
-48.5832

>  <SCORE.INTRA.VDW>
0.265803

>  <SCORE.INTRA.VDW.0>
-2.39056

>  <SCORE.INTRA.norm>
0.0847652

>  <SCORE.RESTR>
0

>  <SCORE.RESTR.CAVITY>
0

>  <SCORE.RESTR.norm>
0

>  <SCORE.SYSTEM>
0

>  <SCORE.SYSTEM.CONST>
0

>  <SCORE.SYSTEM.DIHEDRAL>
0

>  <SCORE.SYSTEM.SOLV>
0

>  <SCORE.SYSTEM.norm>
0

>  <SCORE.heavy>
27

>  <SCORE.norm>
-0.57918

>  <RMSD>
6.628

$$$$
ligand
 OpenBabel11021811473D
libRbt.so/2013.1/901 2013/11/27
 27 29  0  0  0  0  0  0  0  0999 V2000
   13.1051   -3.0515  -18.5437 N   0  0  0  0  0  0  0  0  0  0  0  0
   11.8099   -3.3025  -17.8947 C   0  0  2  0  0  0  0  0  0  0  0  0
   11.2080   -1.9828  -17.4023 C   0  0  0  0  0  0  0  0  0  0  0  0
   10.0181   -1.7528  -17.7099 O   0  0  0  0  0  0  0  0  0  0  0  0
   12.0285   -4.2333  -16.7007 C   0  0  0  0  0  0  0  0  0  0  0  0
   10.7099   -4.6248  -16.0287 C   0  0  0  0  0  0  0  0  0  0  0  0
    7.9288   -5.0729  -16.3959 C   0  0  0  0  0  0  0  0  0  0  0  0
    9.5329   -5.3724  -17.2576 Se  0  0  2  0  0  0  0  0  0  0  0  0
    9.6880   -7.2206  -17.1299 C   0  0  0  0  0  0  0  0  0  0  0  0
   11.1344   -7.7165  -17.1516 C   0  0  1  0  0  0  0  0  0  0  0  0
   11.1217   -9.1420  -17.3399 O   0  0  0  0  0  0  0  0  0  0  0  0
   11.7841   -7.1638  -18.4208 C   0  0  1  0  0  0  0  0  0  0  0  0
   13.1861   -7.4365  -18.3994 O   0  0  0  0  0  0  0  0  0  0  0  0
   11.0966   -8.0515  -19.4552 C   0  0  1  0  0  0  0  0  0  0  0  0
   11.8907   -8.0741  -20.6427 O   0  0  0  0  0  0  0  0  0  0  0  0
   11.2161   -9.4040  -18.7515 C   0  0  2  0  0  0  0  0  0  0  0  0
   11.9524   -1.2288  -16.7377 O   0  0  0  0  0  0  0  0  0  0  0  0
    6.1865  -10.5594  -18.8626 N   0  0  0  0  0  0  0  0  0  0  0  0
    6.7834   -9.5093  -18.3256 C   0  0  0  0  0  0  0  0  0  0  0  0
    8.0942   -9.3497  -18.3798 N   0  0  0  0  0  0  0  0  0  0  0  0
    8.8675  -10.2589  -18.9924 C   0  0  0  0  0  0  0  0  0  0  0  0
    8.2771  -11.3759  -19.5665 C   0  0  0  0  0  0  0  0  0  0  0  0
    6.8960  -11.5094  -19.4850 C   0  0  0  0  0  0  0  0  0  0  0  0
    6.2980  -12.5844  -19.9890 N   0  0  0  0  0  0  0  0  0  0  0  0
    9.2442  -12.1134  -20.1005 N   0  0  0  0  0  0  0  0  0  0  0  0
   10.3975  -11.4891  -19.8730 C   0  0  0  0  0  0  0  0  0  0  0  0
   10.1764  -10.3599  -19.1996 N   0  0  0  0  0  0  0  0  0  0  0  0
  2  1  1  1  0  0  0
  2  5  1  0  0  0  0
  2  3  1  0  0  0  0
  3 17  1  0  0  0  0
  3  4  1  0  0  0  0
  5  6  1  0  0  0  0
  7  8  1  0  0  0  0
  8  6  1  1  0  0  0
  8  9  1  0  0  0  0
 10  9  1  6  0  0  0
 10 11  1  0  0  0  0
 10 12  1  0  0  0  0
 11 16  1  0  0  0  0
 12 13  1  1  0  0  0
 12 14  1  0  0  0  0
 14 15  1  6  0  0  0
 14 16  1  0  0  0  0
 16 27  1  6  0  0  0
 18 23  2  0  0  0  0
 18 19  1  0  0  0  0
 19 20  2  0  0  0  0
 20 21  1  0  0  0  0
 21 22  2  0  0  0  0
 21 27  1  0  0  0  0
 22 23  1  0  0  0  0
 22 25  1  0  0  0  0
 23 24  1  0  0  0  0
 25 26  2  0  0  0  0
 26 27  1  0  0  0  0
M  END
>  <CHROM.1>
-175.91479083,130.46159005,55.02338751,-157.49015247,-48.41831371,-167.68326959
52.93981556,10.00199715,-7.13255870,-18.13984070,-1.22807445,-0.22216025
-2.79792564

>  <Name>
ligand

>  <RI>
0

>  <Rbt.Current_Directory>
/home/itssahil/PROJECTS/Mol_Feturizer/New_Systems/rnas/3E5F

>  <Rbt.Executable>
rbdock ($Id: //depot/dev/client3/rdock/2013.1/src/exe/rbdock.cxx#4 $)

>  <Rbt.Library>
libRbt.so (2013.1, Build901 2013/11/27)

>  <Rbt.Parameter_File>
/export/apps/rDock/src/rDock_2013.1_src/data/scripts/dock_solv.prm

>  <Rbt.Receptor>
prm/pocket_docking_8.prm

>  <SCORE>
-9.39589

>  <SCORE.INTER>
-8.38414

>  <SCORE.INTER.CONST>
1

>  <SCORE.INTER.POLAR>
0

>  <SCORE.INTER.ROT>
7

>  <SCORE.INTER.SOLV>
9.07094

>  <SCORE.INTER.VDW>
-16.8797

>  <SCORE.INTER.norm>
-0.310524

>  <SCORE.INTRA>
-1.01175

>  <SCORE.INTRA.DIHEDRAL>
0.376127

>  <SCORE.INTRA.DIHEDRAL.0>
4.89803

>  <SCORE.INTRA.POLAR>
0

>  <SCORE.INTRA.POLAR.0>
0

>  <SCORE.INTRA.REPUL>
0

>  <SCORE.INTRA.REPUL.0>
0

>  <SCORE.INTRA.SOLV>
0.453746

>  <SCORE.INTRA.SOLV.lig_0>
-48.5832

>  <SCORE.INTRA.VDW>
-1.42669

>  <SCORE.INTRA.VDW.0>
-2.39056

>  <SCORE.INTRA.norm>
-0.0374722

>  <SCORE.RESTR>
0

>  <SCORE.RESTR.CAVITY>
0

>  <SCORE.RESTR.norm>
0

>  <SCORE.SYSTEM>
0

>  <SCORE.SYSTEM.CONST>
0

>  <SCORE.SYSTEM.DIHEDRAL>
0

>  <SCORE.SYSTEM.SOLV>
0

>  <SCORE.SYSTEM.norm>
0

>  <SCORE.heavy>
27

>  <SCORE.norm>
-0.347996

>  <RMSD>
6.650

$$$$
ligand
 OpenBabel11021811473D
libRbt.so/2013.1/901 2013/11/27
 27 29  0  0  0  0  0  0  0  0999 V2000
   10.4674  -11.4117  -22.3105 N   0  0  0  0  0  0  0  0  0  0  0  0
   11.0269  -12.4815  -21.4713 C   0  0  2  0  0  0  0  0  0  0  0  0
   10.0900  -12.7652  -20.2932 C   0  0  0  0  0  0  0  0  0  0  0  0
    9.4561  -11.7937  -19.8263 O   0  0  0  0  0  0  0  0  0  0  0  0
   12.3866  -12.0287  -20.9363 C   0  0  0  0  0  0  0  0  0  0  0  0
   13.2816  -11.4672  -22.0439 C   0  0  0  0  0  0  0  0  0  0  0  0
   13.8667   -9.4520  -23.9590 C   0  0  0  0  0  0  0  0  0  0  0  0
   12.7632   -9.7439  -22.5089 Se  0  0  2  0  0  0  0  0  0  0  0  0
   13.4842   -8.5823  -21.2491 C   0  0  0  0  0  0  0  0  0  0  0  0
   12.5210   -8.2376  -20.1124 C   0  0  1  0  0  0  0  0  0  0  0  0
   13.2888   -8.0373  -18.9132 O   0  0  0  0  0  0  0  0  0  0  0  0
   11.9244   -6.8646  -20.4243 C   0  0  1  0  0  0  0  0  0  0  0  0
   10.8777   -6.5748  -19.4966 O   0  0  0  0  0  0  0  0  0  0  0  0
   13.1420   -5.9939  -20.1244 C   0  0  1  0  0  0  0  0  0  0  0  0
   12.7007   -4.6612  -19.8594 O   0  0  0  0  0  0  0  0  0  0  0  0
   13.5991   -6.6360  -18.8138 C   0  0  2  0  0  0  0  0  0  0  0  0
   10.0348  -13.9440  -19.8788 O   0  0  0  0  0  0  0  0  0  0  0  0
   18.4307   -8.2057  -19.7285 N   0  0  0  0  0  0  0  0  0  0  0  0
   17.2969   -8.7002  -20.1948 C   0  0  0  0  0  0  0  0  0  0  0  0
   16.1250   -8.1838  -19.8680 N   0  0  0  0  0  0  0  0  0  0  0  0
   16.0507   -7.1266  -19.0454 C   0  0  0  0  0  0  0  0  0  0  0  0
   17.2198   -6.5808  -18.5342 C   0  0  0  0  0  0  0  0  0  0  0  0
   18.4321   -7.1547  -18.8986 C   0  0  0  0  0  0  0  0  0  0  0  0
   19.5707   -6.6842  -18.3990 N   0  0  0  0  0  0  0  0  0  0  0  0
   16.8809   -5.5591  -17.7559 N   0  0  0  0  0  0  0  0  0  0  0  0
   15.5535   -5.4634  -17.7740 C   0  0  0  0  0  0  0  0  0  0  0  0
   15.0413   -6.4135  -18.5566 N   0  0  0  0  0  0  0  0  0  0  0  0
  2  1  1  6  0  0  0
  2  5  1  0  0  0  0
  2  3  1  0  0  0  0
  3 17  1  0  0  0  0
  3  4  1  0  0  0  0
  5  6  1  0  0  0  0
  7  8  1  0  0  0  0
  8  6  1  1  0  0  0
  8  9  1  0  0  0  0
 10  9  1  6  0  0  0
 10 11  1  0  0  0  0
 10 12  1  0  0  0  0
 11 16  1  0  0  0  0
 12 13  1  1  0  0  0
 12 14  1  0  0  0  0
 14 15  1  1  0  0  0
 14 16  1  0  0  0  0
 16 27  1  6  0  0  0
 18 23  2  0  0  0  0
 18 19  1  0  0  0  0
 19 20  2  0  0  0  0
 20 21  1  0  0  0  0
 21 22  2  0  0  0  0
 21 27  1  0  0  0  0
 22 23  1  0  0  0  0
 22 25  1  0  0  0  0
 23 24  1  0  0  0  0
 25 26  2  0  0  0  0
 26 27  1  0  0  0  0
M  END
>  <CHROM.1>
-48.75845490,-33.38151229,76.95714210,-173.43724541,-95.12141382,147.45308781
36.18583626,13.64301359,-8.75853558,-20.42608240,-2.35182988,-0.00682160
0.46640899

>  <Name>
ligand

>  <RI>
0

>  <Rbt.Current_Directory>
/home/itssahil/PROJECTS/Mol_Feturizer/New_Systems/rnas/3E5F

>  <Rbt.Executable>
rbdock ($Id: //depot/dev/client3/rdock/2013.1/src/exe/rbdock.cxx#4 $)

>  <Rbt.Library>
libRbt.so (2013.1, Build901 2013/11/27)

>  <Rbt.Parameter_File>
/export/apps/rDock/src/rDock_2013.1_src/data/scripts/dock_solv.prm

>  <Rbt.Receptor>
prm/pocket_docking_5.prm

>  <SCORE>
-9.7895

>  <SCORE.INTER>
-12.0633

>  <SCORE.INTER.CONST>
1

>  <SCORE.INTER.POLAR>
0

>  <SCORE.INTER.ROT>
7

>  <SCORE.INTER.SOLV>
9.32184

>  <SCORE.INTER.VDW>
-19.4162

>  <SCORE.INTER.norm>
-0.446789

>  <SCORE.INTRA>
2.27381

>  <SCORE.INTRA.DIHEDRAL>
3.60091

>  <SCORE.INTRA.DIHEDRAL.0>
4.89803

>  <SCORE.INTRA.POLAR>
0

>  <SCORE.INTRA.POLAR.0>
0

>  <SCORE.INTRA.REPUL>
0

>  <SCORE.INTRA.REPUL.0>
0

>  <SCORE.INTRA.SOLV>
2.26349

>  <SCORE.INTRA.SOLV.lig_0>
-48.5832

>  <SCORE.INTRA.VDW>
-0.658389

>  <SCORE.INTRA.VDW.0>
-2.39056

>  <SCORE.INTRA.norm>
0.0842152

>  <SCORE.RESTR>
0

>  <SCORE.RESTR.CAVITY>
0

>  <SCORE.RESTR.norm>
0

>  <SCORE.SYSTEM>
0

>  <SCORE.SYSTEM.CONST>
0

>  <SCORE.SYSTEM.DIHEDRAL>
0

>  <SCORE.SYSTEM.SOLV>
0

>  <SCORE.SYSTEM.norm>
0

>  <SCORE.heavy>
27

>  <SCORE.norm>
-0.362574

>  <RMSD>
6.661

$$$$
ligand
 OpenBabel11021811473D
libRbt.so/2013.1/901 2013/11/27
 27 29  0  0  0  0  0  0  0  0999 V2000
    8.6905  -12.5988  -20.5293 N   0  0  0  0  0  0  0  0  0  0  0  0
    8.2938  -14.0135  -20.5840 C   0  0  2  0  0  0  0  0  0  0  0  0
    8.0324  -14.5378  -19.1687 C   0  0  0  0  0  0  0  0  0  0  0  0
    6.9945  -15.2139  -18.9973 O   0  0  0  0  0  0  0  0  0  0  0  0
    9.4282  -14.8199  -21.2186 C   0  0  0  0  0  0  0  0  0  0  0  0
    9.4127  -14.7287  -22.7466 C   0  0  0  0  0  0  0  0  0  0  0  0
    8.5650  -13.1629  -24.9602 C   0  0  0  0  0  0  0  0  0  0  0  0
    9.3589  -12.9574  -23.3070 Se  0  0  2  0  0  0  0  0  0  0  0  0
   11.0884  -12.4660  -23.7799 C   0  0  0  0  0  0  0  0  0  0  0  0
   12.1262  -12.7597  -22.6958 C   0  0  1  0  0  0  0  0  0  0  0  0
   13.3784  -12.1786  -23.0983 O   0  0  0  0  0  0  0  0  0  0  0  0
   11.7163  -11.9726  -21.4506 C   0  0  1  0  0  0  0  0  0  0  0  0
   12.5409  -12.3551  -20.3487 O   0  0  0  0  0  0  0  0  0  0  0  0
   12.0875  -10.5667  -21.9155 C   0  0  1  0  0  0  0  0  0  0  0  0
   12.2666   -9.7348  -20.7679 O   0  0  0  0  0  0  0  0  0  0  0  0
   13.4541  -10.8556  -22.5381 C   0  0  2  0  0  0  0  0  0  0  0  0
    8.8697  -14.2438  -18.2874 O   0  0  0  0  0  0  0  0  0  0  0  0
   16.1511   -6.5853  -23.6039 N   0  0  0  0  0  0  0  0  0  0  0  0
   16.0777   -7.2565  -22.4674 C   0  0  0  0  0  0  0  0  0  0  0  0
   15.3376   -8.3448  -22.3476 N   0  0  0  0  0  0  0  0  0  0  0  0
   14.6323   -8.8086  -23.3905 C   0  0  0  0  0  0  0  0  0  0  0  0
   14.6828   -8.1297  -24.5998 C   0  0  0  0  0  0  0  0  0  0  0  0
   15.4696   -6.9871  -24.6844 C   0  0  0  0  0  0  0  0  0  0  0  0
   15.5130   -6.2881  -25.8144 N   0  0  0  0  0  0  0  0  0  0  0  0
   13.9072   -8.7802  -25.4599 N   0  0  0  0  0  0  0  0  0  0  0  0
   13.3881   -9.8261  -24.8210 C   0  0  0  0  0  0  0  0  0  0  0  0
   13.8248   -9.8502  -23.5616 N   0  0  0  0  0  0  0  0  0  0  0  0
  2  1  1  1  0  0  0
  2  5  1  0  0  0  0
  2  3  1  0  0  0  0
  3 17  1  0  0  0  0
  3  4  1  0  0  0  0
  5  6  1  0  0  0  0
  7  8  1  0  0  0  0
  8  6  1  6  0  0  0
  8  9  1  0  0  0  0
 10  9  1  6  0  0  0
 10 11  1  0  0  0  0
 10 12  1  0  0  0  0
 11 16  1  0  0  0  0
 12 13  1  1  0  0  0
 12 14  1  0  0  0  0
 14 15  1  1  0  0  0
 14 16  1  0  0  0  0
 16 27  1  6  0  0  0
 18 23  2  0  0  0  0
 18 19  1  0  0  0  0
 19 20  2  0  0  0  0
 20 21  1  0  0  0  0
 21 22  2  0  0  0  0
 21 27  1  0  0  0  0
 22 23  1  0  0  0  0
 22 25  1  0  0  0  0
 23 24  1  0  0  0  0
 25 26  2  0  0  0  0
 26 27  1  0  0  0  0
M  END
>  <CHROM.1>
-80.91948544,134.23017880,51.97946071,-154.38883354,-52.05785363,-172.37469551
-141.36569690,11.57180714,-11.46886859,-22.55277994,-2.72532346,-0.72433863
-1.43083164

>  <Name>
ligand

>  <RI>
0

>  <Rbt.Current_Directory>
/home/itssahil/PROJECTS/Mol_Feturizer/New_Systems/rnas/3E5F

>  <Rbt.Executable>
rbdock ($Id: //depot/dev/client3/rdock/2013.1/src/exe/rbdock.cxx#4 $)

>  <Rbt.Library>
libRbt.so (2013.1, Build901 2013/11/27)

>  <Rbt.Parameter_File>
/export/apps/rDock/src/rDock_2013.1_src/data/scripts/dock_solv.prm

>  <Rbt.Receptor>
prm/pocket_docking_8.prm

>  <SCORE>
-18.9287

>  <SCORE.INTER>
-20.0833

>  <SCORE.INTER.CONST>
1

>  <SCORE.INTER.POLAR>
0

>  <SCORE.INTER.ROT>
7

>  <SCORE.INTER.SOLV>
20.9261

>  <SCORE.INTER.VDW>
-28.6309

>  <SCORE.INTER.norm>
-0.743827

>  <SCORE.INTRA>
1.15462

>  <SCORE.INTRA.DIHEDRAL>
1.71882

>  <SCORE.INTRA.DIHEDRAL.0>
4.89803

>  <SCORE.INTRA.POLAR>
0

>  <SCORE.INTRA.POLAR.0>
0

>  <SCORE.INTRA.REPUL>
0

>  <SCORE.INTRA.REPUL.0>
0

>  <SCORE.INTRA.SOLV>
3.77412

>  <SCORE.INTRA.SOLV.lig_0>
-48.5832

>  <SCORE.INTRA.VDW>
-1.59185

>  <SCORE.INTRA.VDW.0>
-2.39056

>  <SCORE.INTRA.norm>
0.0427639

>  <SCORE.RESTR>
0

>  <SCORE.RESTR.CAVITY>
0

>  <SCORE.RESTR.norm>
0

>  <SCORE.SYSTEM>
0

>  <SCORE.SYSTEM.CONST>
0

>  <SCORE.SYSTEM.DIHEDRAL>
0

>  <SCORE.SYSTEM.SOLV>
0

>  <SCORE.SYSTEM.norm>
0

>  <SCORE.heavy>
27

>  <SCORE.norm>
-0.701063

>  <RMSD>
6.677

$$$$
ligand
 OpenBabel11021811473D
libRbt.so/2013.1/901 2013/11/27
 27 29  0  0  0  0  0  0  0  0999 V2000
    6.3121  -12.2742  -18.4804 N   0  0  0  0  0  0  0  0  0  0  0  0
    7.5087  -12.0519  -19.3053 C   0  0  2  0  0  0  0  0  0  0  0  0
    8.1349  -13.3958  -19.6902 C   0  0  0  0  0  0  0  0  0  0  0  0
    8.1316  -13.6958  -20.9041 O   0  0  0  0  0  0  0  0  0  0  0  0
    8.5205  -11.2373  -18.4975 C   0  0  0  0  0  0  0  0  0  0  0  0
    9.5944  -10.6085  -19.3890 C   0  0  0  0  0  0  0  0  0  0  0  0
   10.4155   -9.1762  -17.0771 C   0  0  0  0  0  0  0  0  0  0  0  0
   11.1304  -10.2289  -18.4136 Se  0  0  2  0  0  0  0  0  0  0  0  0
   12.1170   -8.9862  -19.3825 C   0  0  0  0  0  0  0  0  0  0  0  0
   13.6195   -9.2711  -19.3923 C   0  0  1  0  0  0  0  0  0  0  0  0
   13.8658  -10.3721  -20.2838 O   0  0  0  0  0  0  0  0  0  0  0  0
   14.3034   -8.0750  -20.0556 C   0  0  1  0  0  0  0  0  0  0  0  0
   15.7202   -8.1987  -19.9228 O   0  0  0  0  0  0  0  0  0  0  0  0
   13.8918   -8.3287  -21.5036 C   0  0  1  0  0  0  0  0  0  0  0  0
   14.8043   -7.6484  -22.3673 O   0  0  0  0  0  0  0  0  0  0  0  0
   14.1574   -9.8325  -21.5854 C   0  0  2  0  0  0  0  0  0  0  0  0
    8.5944  -14.0979  -18.7627 O   0  0  0  0  0  0  0  0  0  0  0  0
   10.3233  -13.1173  -22.6599 N   0  0  0  0  0  0  0  0  0  0  0  0
   10.7912  -12.7480  -21.4800 C   0  0  0  0  0  0  0  0  0  0  0  0
   11.7875  -11.8873  -21.3641 N   0  0  0  0  0  0  0  0  0  0  0  0
   12.3585  -11.3535  -22.4544 C   0  0  0  0  0  0  0  0  0  0  0  0
   11.8954  -11.7185  -23.7108 C   0  0  0  0  0  0  0  0  0  0  0  0
   10.8486  -12.6293  -23.7909 C   0  0  0  0  0  0  0  0  0  0  0  0
   10.4034  -13.0326  -24.9768 N   0  0  0  0  0  0  0  0  0  0  0  0
   12.6167  -11.0620  -24.6125 N   0  0  0  0  0  0  0  0  0  0  0  0
   13.4988  -10.3139  -23.9539 C   0  0  0  0  0  0  0  0  0  0  0  0
   13.3477  -10.4856  -22.6405 N   0  0  0  0  0  0  0  0  0  0  0  0
  2  1  1  1  0  0  0
  2  5  1  0  0  0  0
  2  3  1  0  0  0  0
  3 17  1  0  0  0  0
  3  4  1  0  0  0  0
  5  6  1  0  0  0  0
  7  8  1  0  0  0  0
  8  6  1  6  0  0  0
  8  9  1  0  0  0  0
 10  9  1  6  0  0  0
 10 11  1  0  0  0  0
 10 12  1  0  0  0  0
 11 16  1  0  0  0  0
 12 13  1  6  0  0  0
 12 14  1  0  0  0  0
 14 15  1  6  0  0  0
 14 16  1  0  0  0  0
 16 27  1  6  0  0  0
 18 23  2  0  0  0  0
 18 19  1  0  0  0  0
 19 20  2  0  0  0  0
 20 21  1  0  0  0  0
 21 22  2  0  0  0  0
 21 27  1  0  0  0  0
 22 23  1  0  0  0  0
 22 25  1  0  0  0  0
 23 24  1  0  0  0  0
 25 26  2  0  0  0  0
 26 27  1  0  0  0  0
M  END
>  <CHROM.1>
-162.93070477,114.81136509,-157.25353423,-55.36142713,-138.04430614,75.08950244
7.27742261,11.39415620,-10.82769832,-20.54846063,-3.06094069,-0.60515202
-2.01363446

>  <Name>
ligand

>  <RI>
0

>  <Rbt.Current_Directory>
/home/itssahil/PROJECTS/Mol_Feturizer/New_Systems/rnas/3E5F

>  <Rbt.Executable>
rbdock ($Id: //depot/dev/client3/rdock/2013.1/src/exe/rbdock.cxx#4 $)

>  <Rbt.Library>
libRbt.so (2013.1, Build901 2013/11/27)

>  <Rbt.Parameter_File>
/export/apps/rDock/src/rDock_2013.1_src/data/scripts/dock_solv.prm

>  <Rbt.Receptor>
prm/blind_docking_100.prm

>  <SCORE>
-8.97549

>  <SCORE.INTER>
-10.427

>  <SCORE.INTER.CONST>
1

>  <SCORE.INTER.POLAR>
0

>  <SCORE.INTER.ROT>
7

>  <SCORE.INTER.SOLV>
10.7342

>  <SCORE.INTER.VDW>
-18.7961

>  <SCORE.INTER.norm>
-0.386186

>  <SCORE.INTRA>
1.45154

>  <SCORE.INTRA.DIHEDRAL>
3.92683

>  <SCORE.INTRA.DIHEDRAL.0>
4.89803

>  <SCORE.INTRA.POLAR>
0

>  <SCORE.INTRA.POLAR.0>
0

>  <SCORE.INTRA.REPUL>
0

>  <SCORE.INTRA.REPUL.0>
0

>  <SCORE.INTRA.SOLV>
0.0322465

>  <SCORE.INTRA.SOLV.lig_0>
-48.5832

>  <SCORE.INTRA.VDW>
-0.527993

>  <SCORE.INTRA.VDW.0>
-2.39056

>  <SCORE.INTRA.norm>
0.0537609

>  <SCORE.RESTR>
0

>  <SCORE.RESTR.CAVITY>
0

>  <SCORE.RESTR.norm>
0

>  <SCORE.SYSTEM>
0

>  <SCORE.SYSTEM.CONST>
0

>  <SCORE.SYSTEM.DIHEDRAL>
0

>  <SCORE.SYSTEM.SOLV>
0

>  <SCORE.SYSTEM.norm>
0

>  <SCORE.heavy>
27

>  <SCORE.norm>
-0.332425

>  <RMSD>
6.680

$$$$
ligand
 OpenBabel11021811473D
libRbt.so/2013.1/901 2013/11/27
 27 29  0  0  0  0  0  0  0  0999 V2000
    9.5830  -12.0787  -20.1596 N   0  0  0  0  0  0  0  0  0  0  0  0
   10.4781  -11.4742  -21.1572 C   0  0  2  0  0  0  0  0  0  0  0  0
   10.0947  -11.9527  -22.5609 C   0  0  0  0  0  0  0  0  0  0  0  0
   10.3579  -11.1858  -23.5128 O   0  0  0  0  0  0  0  0  0  0  0  0
   11.9151  -11.9018  -20.8540 C   0  0  0  0  0  0  0  0  0  0  0  0
   12.4739  -11.1992  -19.6140 C   0  0  0  0  0  0  0  0  0  0  0  0
   13.2835   -9.1583  -21.4166 C   0  0  0  0  0  0  0  0  0  0  0  0
   12.4023   -9.3520  -19.8068 Se  0  0  2  0  0  0  0  0  0  0  0  0
   13.6273   -8.6161  -18.6177 C   0  0  0  0  0  0  0  0  0  0  0  0
   13.1417   -7.3236  -17.9604 C   0  0  1  0  0  0  0  0  0  0  0  0
   14.2765   -6.4636  -17.7594 O   0  0  0  0  0  0  0  0  0  0  0  0
   12.2768   -6.5903  -18.9864 C   0  0  1  0  0  0  0  0  0  0  0  0
   11.6421   -5.4711  -18.3660 O   0  0  0  0  0  0  0  0  0  0  0  0
   13.3737   -6.1084  -19.9326 C   0  0  1  0  0  0  0  0  0  0  0  0
   12.8799   -4.9961  -20.6810 O   0  0  0  0  0  0  0  0  0  0  0  0
   14.3923   -5.6058  -18.9087 C   0  0  2  0  0  0  0  0  0  0  0  0
    9.5386  -13.0694  -22.6513 O   0  0  0  0  0  0  0  0  0  0  0  0
   17.8515   -3.1747  -21.8698 N   0  0  0  0  0  0  0  0  0  0  0  0
   16.6059   -2.8269  -21.5956 C   0  0  0  0  0  0  0  0  0  0  0  0
   15.8351   -3.5590  -20.8103 N   0  0  0  0  0  0  0  0  0  0  0  0
   16.3010   -4.6896  -20.2585 C   0  0  0  0  0  0  0  0  0  0  0  0
   17.6034   -5.0882  -20.5246 C   0  0  0  0  0  0  0  0  0  0  0  0
   18.3811   -4.2933  -21.3584 C   0  0  0  0  0  0  0  0  0  0  0  0
   19.6203   -4.6621  -21.6676 N   0  0  0  0  0  0  0  0  0  0  0  0
   17.8188   -6.2241  -19.8705 N   0  0  0  0  0  0  0  0  0  0  0  0
   16.6996   -6.5307  -19.2187 C   0  0  0  0  0  0  0  0  0  0  0  0
   15.7718   -5.6017  -19.4496 N   0  0  0  0  0  0  0  0  0  0  0  0
  2  1  1  1  0  0  0
  2  5  1  0  0  0  0
  2  3  1  0  0  0  0
  3 17  1  0  0  0  0
  3  4  1  0  0  0  0
  5  6  1  0  0  0  0
  7  8  1  0  0  0  0
  8  6  1  1  0  0  0
  8  9  1  0  0  0  0
 10  9  1  6  0  0  0
 10 11  1  0  0  0  0
 10 12  1  0  0  0  0
 11 16  1  0  0  0  0
 12 13  1  1  0  0  0
 12 14  1  0  0  0  0
 14 15  1  6  0  0  0
 14 16  1  0  0  0  0
 16 27  1  6  0  0  0
 18 23  2  0  0  0  0
 18 19  1  0  0  0  0
 19 20  2  0  0  0  0
 20 21  1  0  0  0  0
 21 22  2  0  0  0  0
 21 27  1  0  0  0  0
 22 23  1  0  0  0  0
 22 25  1  0  0  0  0
 23 24  1  0  0  0  0
 25 26  2  0  0  0  0
 26 27  1  0  0  0  0
M  END
>  <CHROM.1>
-72.77841723,152.35372420,-57.19811119,-53.45228380,-141.83517818,-145.88184385
-161.41084766,13.67748662,-7.73522099,-20.27637376,2.56201640,-0.64874141
-2.30900247

>  <Name>
ligand

>  <RI>
0

>  <Rbt.Current_Directory>
/home/itssahil/PROJECTS/Mol_Feturizer/New_Systems/rnas/3E5F

>  <Rbt.Executable>
rbdock ($Id: //depot/dev/client3/rdock/2013.1/src/exe/rbdock.cxx#4 $)

>  <Rbt.Library>
libRbt.so (2013.1, Build901 2013/11/27)

>  <Rbt.Parameter_File>
/export/apps/rDock/src/rDock_2013.1_src/data/scripts/dock_solv.prm

>  <Rbt.Receptor>
prm/blind_docking_100.prm

>  <SCORE>
-9.24011

>  <SCORE.INTER>
-11.5059

>  <SCORE.INTER.CONST>
1

>  <SCORE.INTER.POLAR>
0

>  <SCORE.INTER.ROT>
7

>  <SCORE.INTER.SOLV>
11.8527

>  <SCORE.INTER.VDW>
-19.8882

>  <SCORE.INTER.norm>
-0.426146

>  <SCORE.INTRA>
2.26583

>  <SCORE.INTRA.DIHEDRAL>
3.99186

>  <SCORE.INTRA.DIHEDRAL.0>
4.89803

>  <SCORE.INTRA.POLAR>
0

>  <SCORE.INTRA.POLAR.0>
0

>  <SCORE.INTRA.REPUL>
0

>  <SCORE.INTRA.REPUL.0>
0

>  <SCORE.INTRA.SOLV>
0.807097

>  <SCORE.INTRA.SOLV.lig_0>
-48.5832

>  <SCORE.INTRA.VDW>
-0.13365

>  <SCORE.INTRA.VDW.0>
-2.39056

>  <SCORE.INTRA.norm>
0.0839196

>  <SCORE.RESTR>
0

>  <SCORE.RESTR.CAVITY>
0

>  <SCORE.RESTR.norm>
0

>  <SCORE.SYSTEM>
0

>  <SCORE.SYSTEM.CONST>
0

>  <SCORE.SYSTEM.DIHEDRAL>
0

>  <SCORE.SYSTEM.SOLV>
0

>  <SCORE.SYSTEM.norm>
0

>  <SCORE.heavy>
27

>  <SCORE.norm>
-0.342226

>  <RMSD>
6.684

$$$$
ligand
 OpenBabel11021811473D
libRbt.so/2013.1/901 2013/11/27
 27 29  0  0  0  0  0  0  0  0999 V2000
   11.2119  -12.9270  -21.7953 N   0  0  0  0  0  0  0  0  0  0  0  0
   12.2250  -11.8838  -22.0125 C   0  0  2  0  0  0  0  0  0  0  0  0
   13.6162  -12.5180  -22.1051 C   0  0  0  0  0  0  0  0  0  0  0  0
   14.1429  -12.5665  -23.2382 O   0  0  0  0  0  0  0  0  0  0  0  0
   12.1922  -10.9109  -20.8326 C   0  0  0  0  0  0  0  0  0  0  0  0
   12.7257   -9.5276  -21.2138 C   0  0  0  0  0  0  0  0  0  0  0  0
   11.0897   -8.6799  -19.0516 C   0  0  0  0  0  0  0  0  0  0  0  0
   12.7824   -8.4051  -19.7334 Se  0  0  2  0  0  0  0  0  0  0  0  0
   12.6587   -6.6559  -20.3509 C   0  0  0  0  0  0  0  0  0  0  0  0
   12.4030   -5.6326  -19.2437 C   0  0  1  0  0  0  0  0  0  0  0  0
   13.4264   -5.7813  -18.2445 O   0  0  0  0  0  0  0  0  0  0  0  0
   12.6450   -4.2466  -19.8427 C   0  0  1  0  0  0  0  0  0  0  0  0
   12.2387   -3.2438  -18.9102 O   0  0  0  0  0  0  0  0  0  0  0  0
   14.1682   -4.2827  -19.9379 C   0  0  1  0  0  0  0  0  0  0  0  0
   14.6577   -2.9416  -19.9936 O   0  0  0  0  0  0  0  0  0  0  0  0
   14.4963   -4.8750  -18.5667 C   0  0  2  0  0  0  0  0  0  0  0  0
   14.1188  -12.9490  -21.0440 O   0  0  0  0  0  0  0  0  0  0  0  0
   17.3313   -8.8002  -20.3557 N   0  0  0  0  0  0  0  0  0  0  0  0
   16.0781   -8.4878  -20.6374 C   0  0  0  0  0  0  0  0  0  0  0  0
   15.4827   -7.4398  -20.0953 N   0  0  0  0  0  0  0  0  0  0  0  0
   16.1422   -6.6498  -19.2346 C   0  0  0  0  0  0  0  0  0  0  0  0
   17.4591   -6.9469  -18.9129 C   0  0  0  0  0  0  0  0  0  0  0  0
   18.0486   -8.0598  -19.5010 C   0  0  0  0  0  0  0  0  0  0  0  0
   19.2954   -8.3988  -19.1883 N   0  0  0  0  0  0  0  0  0  0  0  0
   17.8807   -6.0279  -18.0515 N   0  0  0  0  0  0  0  0  0  0  0  0
   16.8727   -5.1857  -17.8373 C   0  0  0  0  0  0  0  0  0  0  0  0
   15.8116   -5.5573  -18.5538 N   0  0  0  0  0  0  0  0  0  0  0  0
  2  1  1  1  0  0  0
  2  5  1  0  0  0  0
  2  3  1  0  0  0  0
  3 17  1  0  0  0  0
  3  4  1  0  0  0  0
  5  6  1  0  0  0  0
  7  8  1  0  0  0  0
  8  6  1  6  0  0  0
  8  9  1  0  0  0  0
 10  9  1  6  0  0  0
 10 11  1  0  0  0  0
 10 12  1  0  0  0  0
 11 16  1  0  0  0  0
 12 13  1  1  0  0  0
 12 14  1  0  0  0  0
 14 15  1  1  0  0  0
 14 16  1  0  0  0  0
 16 27  1  6  0  0  0
 18 23  2  0  0  0  0
 18 19  1  0  0  0  0
 19 20  2  0  0  0  0
 20 21  1  0  0  0  0
 21 22  2  0  0  0  0
 21 27  1  0  0  0  0
 22 23  1  0  0  0  0
 22 25  1  0  0  0  0
 23 24  1  0  0  0  0
 25 26  2  0  0  0  0
 26 27  1  0  0  0  0
M  END
>  <CHROM.1>
-155.28569853,106.78630717,-176.09404618,-48.46612443,168.11302691,54.78507422
54.20660778,14.17279140,-7.86604226,-19.92524260,1.86441523,0.10721669,-2.81332117

>  <Name>
ligand

>  <RI>
0

>  <Rbt.Current_Directory>
/home/itssahil/PROJECTS/Mol_Feturizer/New_Systems/rnas/3E5F

>  <Rbt.Executable>
rbdock ($Id: //depot/dev/client3/rdock/2013.1/src/exe/rbdock.cxx#4 $)

>  <Rbt.Library>
libRbt.so (2013.1, Build901 2013/11/27)

>  <Rbt.Parameter_File>
/export/apps/rDock/src/rDock_2013.1_src/data/scripts/dock_solv.prm

>  <Rbt.Receptor>
prm/pocket_docking_4.prm

>  <SCORE>
-11.0764

>  <SCORE.INTER>
-11.6749

>  <SCORE.INTER.CONST>
1

>  <SCORE.INTER.POLAR>
0

>  <SCORE.INTER.ROT>
7

>  <SCORE.INTER.SOLV>
11.922

>  <SCORE.INTER.VDW>
-20.0239

>  <SCORE.INTER.norm>
-0.432402

>  <SCORE.INTRA>
0.598459

>  <SCORE.INTRA.DIHEDRAL>
0.845723

>  <SCORE.INTRA.DIHEDRAL.0>
4.89803

>  <SCORE.INTRA.POLAR>
0

>  <SCORE.INTRA.POLAR.0>
0

>  <SCORE.INTRA.REPUL>
0

>  <SCORE.INTRA.REPUL.0>
0

>  <SCORE.INTRA.SOLV>
0.0433197

>  <SCORE.INTRA.SOLV.lig_0>
-48.5832

>  <SCORE.INTRA.VDW>
0.153938

>  <SCORE.INTRA.VDW.0>
-2.39056

>  <SCORE.INTRA.norm>
0.0221652

>  <SCORE.RESTR>
0

>  <SCORE.RESTR.CAVITY>
0

>  <SCORE.RESTR.norm>
0

>  <SCORE.SYSTEM>
0

>  <SCORE.SYSTEM.CONST>
0

>  <SCORE.SYSTEM.DIHEDRAL>
0

>  <SCORE.SYSTEM.SOLV>
0

>  <SCORE.SYSTEM.norm>
0

>  <SCORE.heavy>
27

>  <SCORE.norm>
-0.410237

>  <RMSD>
6.692

$$$$
ligand
 OpenBabel11021811473D
libRbt.so/2013.1/901 2013/11/27
 27 29  0  0  0  0  0  0  0  0999 V2000
   12.6864   -9.7447  -20.6341 N   0  0  0  0  0  0  0  0  0  0  0  0
   12.4622  -11.1015  -21.1544 C   0  0  2  0  0  0  0  0  0  0  0  0
   12.4405  -12.1069  -19.9990 C   0  0  0  0  0  0  0  0  0  0  0  0
   11.4129  -12.8090  -19.8778 O   0  0  0  0  0  0  0  0  0  0  0  0
   13.6015  -11.4576  -22.1110 C   0  0  0  0  0  0  0  0  0  0  0  0
   13.4883  -10.7104  -23.4423 C   0  0  0  0  0  0  0  0  0  0  0  0
   14.7048   -8.5141  -24.7715 C   0  0  0  0  0  0  0  0  0  0  0  0
   13.7923   -8.8913  -23.2124 Se  0  0  2  0  0  0  0  0  0  0  0  0
   15.1331   -8.7034  -21.9384 C   0  0  0  0  0  0  0  0  0  0  0  0
   15.7820   -7.3187  -21.9323 C   0  0  1  0  0  0  0  0  0  0  0  0
   14.7553   -6.3385  -21.7030 O   0  0  0  0  0  0  0  0  0  0  0  0
   16.6747   -7.2418  -20.6931 C   0  0  1  0  0  0  0  0  0  0  0  0
   17.4517   -6.0439  -20.7356 O   0  0  0  0  0  0  0  0  0  0  0  0
   15.5955   -7.1248  -19.6198 C   0  0  1  0  0  0  0  0  0  0  0  0
   16.1722   -6.5440  -18.4488 O   0  0  0  0  0  0  0  0  0  0  0  0
   14.6819   -6.0957  -20.2867 C   0  0  2  0  0  0  0  0  0  0  0  0
   13.4464  -12.1454  -19.2568 O   0  0  0  0  0  0  0  0  0  0  0  0
   11.5971   -6.9129  -16.2295 N   0  0  0  0  0  0  0  0  0  0  0  0
   12.9181   -6.9058  -16.2774 C   0  0  0  0  0  0  0  0  0  0  0  0
   13.5732   -6.6771  -17.4022 N   0  0  0  0  0  0  0  0  0  0  0  0
   12.9082   -6.4389  -18.5428 C   0  0  0  0  0  0  0  0  0  0  0  0
   11.5205   -6.4399  -18.5324 C   0  0  0  0  0  0  0  0  0  0  0  0
   10.8684   -6.6883  -17.3303 C   0  0  0  0  0  0  0  0  0  0  0  0
    9.5405   -6.7357  -17.2882 N   0  0  0  0  0  0  0  0  0  0  0  0
   11.1080   -6.1840  -19.7688 N   0  0  0  0  0  0  0  0  0  0  0  0
   12.1894   -6.0282  -20.5289 C   0  0  0  0  0  0  0  0  0  0  0  0
   13.2885   -6.1816  -19.7900 N   0  0  0  0  0  0  0  0  0  0  0  0
  2  1  1  1  0  0  0
  2  5  1  0  0  0  0
  2  3  1  0  0  0  0
  3 17  1  0  0  0  0
  3  4  1  0  0  0  0
  5  6  1  0  0  0  0
  7  8  1  0  0  0  0
  8  6  1  6  0  0  0
  8  9  1  0  0  0  0
 10  9  1  1  0  0  0
 10 11  1  0  0  0  0
 10 12  1  0  0  0  0
 11 16  1  0  0  0  0
 12 13  1  6  0  0  0
 12 14  1  0  0  0  0
 14 15  1  1  0  0  0
 14 16  1  0  0  0  0
 16 27  1  1  0  0  0
 18 23  2  0  0  0  0
 18 19  1  0  0  0  0
 19 20  2  0  0  0  0
 20 21  1  0  0  0  0
 21 22  2  0  0  0  0
 21 27  1  0  0  0  0
 22 23  1  0  0  0  0
 22 25  1  0  0  0  0
 23 24  1  0  0  0  0
 25 26  2  0  0  0  0
 26 27  1  0  0  0  0
M  END
>  <CHROM.1>
-73.28254365,122.85400776,68.46506109,143.07995411,162.97299309,57.85093544
156.74352320,13.56968816,-8.23637534,-20.56891347,1.16703632,-0.78278049
-2.41109005

>  <Name>
ligand

>  <RI>
0

>  <Rbt.Current_Directory>
/home/itssahil/PROJECTS/Mol_Feturizer/New_Systems/rnas/3E5F

>  <Rbt.Executable>
rbdock ($Id: //depot/dev/client3/rdock/2013.1/src/exe/rbdock.cxx#4 $)

>  <Rbt.Library>
libRbt.so (2013.1, Build901 2013/11/27)

>  <Rbt.Parameter_File>
/export/apps/rDock/src/rDock_2013.1_src/data/scripts/dock_solv.prm

>  <Rbt.Receptor>
prm/pocket_docking_4.prm

>  <SCORE>
-11.7421

>  <SCORE.INTER>
-13.5616

>  <SCORE.INTER.CONST>
1

>  <SCORE.INTER.POLAR>
0

>  <SCORE.INTER.ROT>
7

>  <SCORE.INTER.SOLV>
6.82302

>  <SCORE.INTER.VDW>
-19.5821

>  <SCORE.INTER.norm>
-0.502281

>  <SCORE.INTRA>
1.81945

>  <SCORE.INTRA.DIHEDRAL>
0.282367

>  <SCORE.INTRA.DIHEDRAL.0>
4.89803

>  <SCORE.INTRA.POLAR>
0

>  <SCORE.INTRA.POLAR.0>
0

>  <SCORE.INTRA.REPUL>
0

>  <SCORE.INTRA.REPUL.0>
0

>  <SCORE.INTRA.SOLV>
3.96304

>  <SCORE.INTRA.SOLV.lig_0>
-48.5832

>  <SCORE.INTRA.VDW>
-0.303251

>  <SCORE.INTRA.VDW.0>
-2.39056

>  <SCORE.INTRA.norm>
0.0673871

>  <SCORE.RESTR>
0

>  <SCORE.RESTR.CAVITY>
0

>  <SCORE.RESTR.norm>
0

>  <SCORE.SYSTEM>
0

>  <SCORE.SYSTEM.CONST>
0

>  <SCORE.SYSTEM.DIHEDRAL>
0

>  <SCORE.SYSTEM.SOLV>
0

>  <SCORE.SYSTEM.norm>
0

>  <SCORE.heavy>
27

>  <SCORE.norm>
-0.434894

>  <RMSD>
6.693

$$$$
ligand
 OpenBabel11021811473D
libRbt.so/2013.1/901 2013/11/27
 27 29  0  0  0  0  0  0  0  0999 V2000
   15.6852   -6.0378  -22.2191 N   0  0  0  0  0  0  0  0  0  0  0  0
   16.0183   -7.3783  -22.7229 C   0  0  2  0  0  0  0  0  0  0  0  0
   15.6604   -7.4817  -24.2087 C   0  0  0  0  0  0  0  0  0  0  0  0
   15.5247   -8.6318  -24.6804 O   0  0  0  0  0  0  0  0  0  0  0  0
   15.2131   -8.4148  -21.9372 C   0  0  0  0  0  0  0  0  0  0  0  0
   13.7139   -8.3215  -22.2323 C   0  0  0  0  0  0  0  0  0  0  0  0
   12.5414   -8.0948  -19.6547 C   0  0  0  0  0  0  0  0  0  0  0  0
   12.7323   -9.3266  -21.0154 Se  0  0  2  0  0  0  0  0  0  0  0  0
   13.8897  -10.5606  -20.2446 C   0  0  0  0  0  0  0  0  0  0  0  0
   13.8188  -11.9483  -20.8833 C   0  0  1  0  0  0  0  0  0  0  0  0
   12.6684  -12.6311  -20.3561 O   0  0  0  0  0  0  0  0  0  0  0  0
   13.5051  -11.7492  -22.3666 C   0  0  1  0  0  0  0  0  0  0  0  0
   13.6137  -12.9980  -23.0514 O   0  0  0  0  0  0  0  0  0  0  0  0
   12.0379  -11.3424  -22.2549 C   0  0  1  0  0  0  0  0  0  0  0  0
   11.3958  -11.5874  -23.5075 O   0  0  0  0  0  0  0  0  0  0  0  0
   11.5607  -12.3819  -21.2399 C   0  0  2  0  0  0  0  0  0  0  0  0
   15.5397   -6.4104  -24.8426 O   0  0  0  0  0  0  0  0  0  0  0  0
    7.5104  -13.7485  -18.3464 N   0  0  0  0  0  0  0  0  0  0  0  0
    8.4570  -14.5146  -18.8607 C   0  0  0  0  0  0  0  0  0  0  0  0
    9.4410  -14.0134  -19.5868 N   0  0  0  0  0  0  0  0  0  0  0  0
    9.5110  -12.6947  -19.8237 C   0  0  0  0  0  0  0  0  0  0  0  0
    8.5342  -11.8585  -19.3017 C   0  0  0  0  0  0  0  0  0  0  0  0
    7.5137  -12.4244  -18.5465 C   0  0  0  0  0  0  0  0  0  0  0  0
    6.5390  -11.6610  -18.0623 N   0  0  0  0  0  0  0  0  0  0  0  0
    8.8248  -10.6172  -19.6749 N   0  0  0  0  0  0  0  0  0  0  0  0
    9.9381  -10.6668  -20.4025 C   0  0  0  0  0  0  0  0  0  0  0  0
   10.3618  -11.9273  -20.4972 N   0  0  0  0  0  0  0  0  0  0  0  0
  2  1  1  1  0  0  0
  2  5  1  0  0  0  0
  2  3  1  0  0  0  0
  3 17  1  0  0  0  0
  3  4  1  0  0  0  0
  5  6  1  0  0  0  0
  7  8  1  0  0  0  0
  8  6  1  6  0  0  0
  8  9  1  0  0  0  0
 10  9  1  1  0  0  0
 10 11  1  0  0  0  0
 10 12  1  0  0  0  0
 11 16  1  0  0  0  0
 12 13  1  6  0  0  0
 12 14  1  0  0  0  0
 14 15  1  6  0  0  0
 14 16  1  0  0  0  0
 16 27  1  1  0  0  0
 18 23  2  0  0  0  0
 18 19  1  0  0  0  0
 19 20  2  0  0  0  0
 20 21  1  0  0  0  0
 21 22  2  0  0  0  0
 21 27  1  0  0  0  0
 22 23  1  0  0  0  0
 22 25  1  0  0  0  0
 23 24  1  0  0  0  0
 25 26  2  0  0  0  0
 26 27  1  0  0  0  0
M  END
>  <CHROM.1>
67.73918739,-160.25518931,-167.92572900,86.05076121,-97.96303578,-79.60694944
-79.40057955,12.11899419,-10.47297745,-21.17616317,0.42481899,0.65536940
0.25920821

>  <Name>
ligand

>  <RI>
0

>  <Rbt.Current_Directory>
/home/itssahil/PROJECTS/Mol_Feturizer/New_Systems/rnas/3E5F

>  <Rbt.Executable>
rbdock ($Id: //depot/dev/client3/rdock/2013.1/src/exe/rbdock.cxx#4 $)

>  <Rbt.Library>
libRbt.so (2013.1, Build901 2013/11/27)

>  <Rbt.Parameter_File>
/export/apps/rDock/src/rDock_2013.1_src/data/scripts/dock_solv.prm

>  <Rbt.Receptor>
prm/blind_docking_100.prm

>  <SCORE>
-14.7909

>  <SCORE.INTER>
-18.5715

>  <SCORE.INTER.CONST>
1

>  <SCORE.INTER.POLAR>
0

>  <SCORE.INTER.ROT>
7

>  <SCORE.INTER.SOLV>
9.31679

>  <SCORE.INTER.VDW>
-23.7533

>  <SCORE.INTER.norm>
-0.687833

>  <SCORE.INTRA>
3.78062

>  <SCORE.INTRA.DIHEDRAL>
2.42828

>  <SCORE.INTRA.DIHEDRAL.0>
4.89803

>  <SCORE.INTRA.POLAR>
0

>  <SCORE.INTRA.POLAR.0>
0

>  <SCORE.INTRA.REPUL>
0

>  <SCORE.INTRA.REPUL.0>
0

>  <SCORE.INTRA.SOLV>
1.01265

>  <SCORE.INTRA.SOLV.lig_0>
-48.5832

>  <SCORE.INTRA.VDW>
2.06016

>  <SCORE.INTRA.VDW.0>
-2.39056

>  <SCORE.INTRA.norm>
0.140023

>  <SCORE.RESTR>
0

>  <SCORE.RESTR.CAVITY>
0

>  <SCORE.RESTR.norm>
0

>  <SCORE.SYSTEM>
0

>  <SCORE.SYSTEM.CONST>
0

>  <SCORE.SYSTEM.DIHEDRAL>
0

>  <SCORE.SYSTEM.SOLV>
0

>  <SCORE.SYSTEM.norm>
0

>  <SCORE.heavy>
27

>  <SCORE.norm>
-0.54781

>  <RMSD>
6.696

$$$$
ligand
 OpenBabel11021811473D
libRbt.so/2013.1/901 2013/11/27
 27 29  0  0  0  0  0  0  0  0999 V2000
   15.5939   -7.9751  -21.9477 N   0  0  0  0  0  0  0  0  0  0  0  0
   15.0199   -8.3247  -20.6400 C   0  0  2  0  0  0  0  0  0  0  0  0
   16.1218   -8.3517  -19.5763 C   0  0  0  0  0  0  0  0  0  0  0  0
   15.7851   -8.0752  -18.4042 O   0  0  0  0  0  0  0  0  0  0  0  0
   14.3790   -9.7103  -20.7370 C   0  0  0  0  0  0  0  0  0  0  0  0
   13.1958   -9.7291  -21.7080 C   0  0  0  0  0  0  0  0  0  0  0  0
   14.1421   -9.1575  -24.3249 C   0  0  0  0  0  0  0  0  0  0  0  0
   13.6447  -10.6002  -23.2873 Se  0  0  2  0  0  0  0  0  0  0  0  0
   12.0612  -11.1245  -24.1082 C   0  0  0  0  0  0  0  0  0  0  0  0
   11.8279  -12.6356  -24.0791 C   0  0  1  0  0  0  0  0  0  0  0  0
   11.5207  -13.0205  -22.7281 O   0  0  0  0  0  0  0  0  0  0  0  0
   10.5435  -12.9111  -24.8620 C   0  0  1  0  0  0  0  0  0  0  0  0
   10.3772  -14.3199  -25.0296 O   0  0  0  0  0  0  0  0  0  0  0  0
    9.5244  -12.3825  -23.8558 C   0  0  1  0  0  0  0  0  0  0  0  0
    8.2546  -12.9763  -24.1318 O   0  0  0  0  0  0  0  0  0  0  0  0
   10.0905  -12.9933  -22.5733 C   0  0  2  0  0  0  0  0  0  0  0  0
   17.2775   -8.6385  -19.9588 O   0  0  0  0  0  0  0  0  0  0  0  0
    7.8320  -13.1534  -17.9345 N   0  0  0  0  0  0  0  0  0  0  0  0
    8.0342  -14.1392  -18.7917 C   0  0  0  0  0  0  0  0  0  0  0  0
    8.6347  -13.9410  -19.9522 N   0  0  0  0  0  0  0  0  0  0  0  0
    9.0654  -12.7183  -20.2977 C   0  0  0  0  0  0  0  0  0  0  0  0
    8.8694  -11.6577  -19.4243 C   0  0  0  0  0  0  0  0  0  0  0  0
    8.2305  -11.9061  -18.2152 C   0  0  0  0  0  0  0  0  0  0  0  0
    7.9902  -10.9089  -17.3695 N   0  0  0  0  0  0  0  0  0  0  0  0
    9.3767  -10.5692  -19.9919 N   0  0  0  0  0  0  0  0  0  0  0  0
    9.8722  -10.9266  -21.1744 C   0  0  0  0  0  0  0  0  0  0  0  0
    9.6868  -12.2326  -21.3674 N   0  0  0  0  0  0  0  0  0  0  0  0
  2  1  1  6  0  0  0
  2  5  1  0  0  0  0
  2  3  1  0  0  0  0
  3 17  1  0  0  0  0
  3  4  1  0  0  0  0
  5  6  1  0  0  0  0
  7  8  1  0  0  0  0
  8  6  1  1  0  0  0
  8  9  1  0  0  0  0
 10  9  1  1  0  0  0
 10 11  1  0  0  0  0
 10 12  1  0  0  0  0
 11 16  1  0  0  0  0
 12 13  1  1  0  0  0
 12 14  1  0  0  0  0
 14 15  1  6  0  0  0
 14 16  1  0  0  0  0
 16 27  1  1  0  0  0
 18 23  2  0  0  0  0
 18 19  1  0  0  0  0
 19 20  2  0  0  0  0
 20 21  1  0  0  0  0
 21 22  2  0  0  0  0
 21 27  1  0  0  0  0
 22 23  1  0  0  0  0
 22 25  1  0  0  0  0
 23 24  1  0  0  0  0
 25 26  2  0  0  0  0
 26 27  1  0  0  0  0
M  END
>  <CHROM.1>
-64.29749774,150.82444558,106.29977130,-94.71752303,-109.34230016,70.97978243
-115.82059509,11.77872764,-11.17772914,-21.68907279,0.06370702,0.53600628
1.26650373

>  <Name>
ligand

>  <RI>
0

>  <Rbt.Current_Directory>
/home/itssahil/PROJECTS/Mol_Feturizer/New_Systems/rnas/3E5F

>  <Rbt.Executable>
rbdock ($Id: //depot/dev/client3/rdock/2013.1/src/exe/rbdock.cxx#4 $)

>  <Rbt.Library>
libRbt.so (2013.1, Build901 2013/11/27)

>  <Rbt.Parameter_File>
/export/apps/rDock/src/rDock_2013.1_src/data/scripts/dock_solv.prm

>  <Rbt.Receptor>
prm/blind_docking_40.prm

>  <SCORE>
-12.0307

>  <SCORE.INTER>
-15.922

>  <SCORE.INTER.CONST>
1

>  <SCORE.INTER.POLAR>
0

>  <SCORE.INTER.ROT>
7

>  <SCORE.INTER.SOLV>
11.5711

>  <SCORE.INTER.VDW>
-22.7384

>  <SCORE.INTER.norm>
-0.589704

>  <SCORE.INTRA>
3.89134

>  <SCORE.INTRA.DIHEDRAL>
6.14152

>  <SCORE.INTRA.DIHEDRAL.0>
4.89803

>  <SCORE.INTRA.POLAR>
0

>  <SCORE.INTRA.POLAR.0>
0

>  <SCORE.INTRA.REPUL>
0

>  <SCORE.INTRA.REPUL.0>
0

>  <SCORE.INTRA.SOLV>
2.21398

>  <SCORE.INTRA.SOLV.lig_0>
-48.5832

>  <SCORE.INTRA.VDW>
-0.286405

>  <SCORE.INTRA.VDW.0>
-2.39056

>  <SCORE.INTRA.norm>
0.144124

>  <SCORE.RESTR>
0

>  <SCORE.RESTR.CAVITY>
0

>  <SCORE.RESTR.norm>
0

>  <SCORE.SYSTEM>
0

>  <SCORE.SYSTEM.CONST>
0

>  <SCORE.SYSTEM.DIHEDRAL>
0

>  <SCORE.SYSTEM.SOLV>
0

>  <SCORE.SYSTEM.norm>
0

>  <SCORE.heavy>
27

>  <SCORE.norm>
-0.44558

>  <RMSD>
6.704

$$$$
ligand
 OpenBabel11021811473D
libRbt.so/2013.1/901 2013/11/27
 27 29  0  0  0  0  0  0  0  0999 V2000
    7.3192   -8.6884  -16.4237 N   0  0  0  0  0  0  0  0  0  0  0  0
    7.5979   -9.1044  -17.8061 C   0  0  2  0  0  0  0  0  0  0  0  0
    6.4960  -10.0468  -18.3001 C   0  0  0  0  0  0  0  0  0  0  0  0
    6.6454  -10.5473  -19.4362 O   0  0  0  0  0  0  0  0  0  0  0  0
    8.9402   -9.8372  -17.8398 C   0  0  0  0  0  0  0  0  0  0  0  0
   10.1031   -8.9242  -17.4428 C   0  0  0  0  0  0  0  0  0  0  0  0
   12.9004   -8.4308  -17.4907 C   0  0  0  0  0  0  0  0  0  0  0  0
   11.7164   -9.8463  -17.4815 Se  0  0  2  0  0  0  0  0  0  0  0  0
   11.9321  -10.5270  -19.1980 C   0  0  0  0  0  0  0  0  0  0  0  0
   13.3945  -10.7295  -19.5968 C   0  0  1  0  0  0  0  0  0  0  0  0
   13.4625  -11.8221  -20.5291 O   0  0  0  0  0  0  0  0  0  0  0  0
   13.8177   -9.5029  -20.4060 C   0  0  1  0  0  0  0  0  0  0  0  0
   15.2254   -9.5479  -20.6439 O   0  0  0  0  0  0  0  0  0  0  0  0
   13.0613   -9.7897  -21.7006 C   0  0  1  0  0  0  0  0  0  0  0  0
   13.6815   -9.0672  -22.7657 O   0  0  0  0  0  0  0  0  0  0  0  0
   13.3787  -11.2774  -21.8582 C   0  0  2  0  0  0  0  0  0  0  0  0
    5.5244  -10.2389  -17.5364 O   0  0  0  0  0  0  0  0  0  0  0  0
    9.1151  -14.1871  -21.8536 N   0  0  0  0  0  0  0  0  0  0  0  0
    9.7856  -13.6987  -20.8243 C   0  0  0  0  0  0  0  0  0  0  0  0
   10.8703  -12.9612  -20.9862 N   0  0  0  0  0  0  0  0  0  0  0  0
   11.3269  -12.6799  -22.2160 C   0  0  0  0  0  0  0  0  0  0  0  0
   10.6505  -13.1766  -23.3213 C   0  0  0  0  0  0  0  0  0  0  0  0
    9.5162  -13.9513  -23.1093 C   0  0  0  0  0  0  0  0  0  0  0  0
    8.8638  -14.4768  -24.1416 N   0  0  0  0  0  0  0  0  0  0  0  0
   11.2951  -12.7642  -24.4070 N   0  0  0  0  0  0  0  0  0  0  0  0
   12.3354  -12.0379  -24.0050 C   0  0  0  0  0  0  0  0  0  0  0  0
   12.3613  -11.9818  -22.6732 N   0  0  0  0  0  0  0  0  0  0  0  0
  2  1  1  1  0  0  0
  2  5  1  0  0  0  0
  2  3  1  0  0  0  0
  3 17  1  0  0  0  0
  3  4  1  0  0  0  0
  5  6  1  0  0  0  0
  7  8  1  0  0  0  0
  8  6  1  6  0  0  0
  8  9  1  0  0  0  0
 10  9  1  6  0  0  0
 10 11  1  0  0  0  0
 10 12  1  0  0  0  0
 11 16  1  0  0  0  0
 12 13  1  6  0  0  0
 12 14  1  0  0  0  0
 14 15  1  6  0  0  0
 14 16  1  0  0  0  0
 16 27  1  6  0  0  0
 18 23  2  0  0  0  0
 18 19  1  0  0  0  0
 19 20  2  0  0  0  0
 20 21  1  0  0  0  0
 21 22  2  0  0  0  0
 21 27  1  0  0  0  0
 22 23  1  0  0  0  0
 22 25  1  0  0  0  0
 23 24  1  0  0  0  0
 25 26  2  0  0  0  0
 26 27  1  0  0  0  0
M  END
>  <CHROM.1>
-63.63410357,-175.72086189,179.58472266,163.31745619,153.27829173,150.40259494
22.53657415,10.93940139,-10.86290895,-20.01529720,2.03101331,0.24516746,0.96865909

>  <Name>
ligand

>  <RI>
0

>  <Rbt.Current_Directory>
/home/itssahil/PROJECTS/Mol_Feturizer/New_Systems/rnas/3E5F

>  <Rbt.Executable>
rbdock ($Id: //depot/dev/client3/rdock/2013.1/src/exe/rbdock.cxx#4 $)

>  <Rbt.Library>
libRbt.so (2013.1, Build901 2013/11/27)

>  <Rbt.Parameter_File>
/export/apps/rDock/src/rDock_2013.1_src/data/scripts/dock_solv.prm

>  <Rbt.Receptor>
prm/pocket_docking_7.prm

>  <SCORE>
-12.4331

>  <SCORE.INTER>
-14.1915

>  <SCORE.INTER.CONST>
1

>  <SCORE.INTER.POLAR>
0

>  <SCORE.INTER.ROT>
7

>  <SCORE.INTER.SOLV>
10.2949

>  <SCORE.INTER.VDW>
-21.1593

>  <SCORE.INTER.norm>
-0.525611

>  <SCORE.INTRA>
1.7584

>  <SCORE.INTRA.DIHEDRAL>
1.17967

>  <SCORE.INTRA.DIHEDRAL.0>
4.89803

>  <SCORE.INTRA.POLAR>
0

>  <SCORE.INTRA.POLAR.0>
0

>  <SCORE.INTRA.REPUL>
0

>  <SCORE.INTRA.REPUL.0>
0

>  <SCORE.INTRA.SOLV>
0.794502

>  <SCORE.INTRA.SOLV.lig_0>
-48.5832

>  <SCORE.INTRA.VDW>
0.771312

>  <SCORE.INTRA.VDW.0>
-2.39056

>  <SCORE.INTRA.norm>
0.0651259

>  <SCORE.RESTR>
0

>  <SCORE.RESTR.CAVITY>
0

>  <SCORE.RESTR.norm>
0

>  <SCORE.SYSTEM>
0

>  <SCORE.SYSTEM.CONST>
0

>  <SCORE.SYSTEM.DIHEDRAL>
0

>  <SCORE.SYSTEM.SOLV>
0

>  <SCORE.SYSTEM.norm>
0

>  <SCORE.heavy>
27

>  <SCORE.norm>
-0.460485

>  <RMSD>
6.722

$$$$
ligand
 OpenBabel11021811473D
libRbt.so/2013.1/901 2013/11/27
 27 29  0  0  0  0  0  0  0  0999 V2000
    8.8586  -14.2124  -22.7223 N   0  0  0  0  0  0  0  0  0  0  0  0
   10.0147  -13.6736  -21.9909 C   0  0  2  0  0  0  0  0  0  0  0  0
    9.6467  -13.4550  -20.5202 C   0  0  0  0  0  0  0  0  0  0  0  0
   10.0513  -14.3093  -19.7016 O   0  0  0  0  0  0  0  0  0  0  0  0
   10.4131  -12.3351  -22.6150 C   0  0  0  0  0  0  0  0  0  0  0  0
   11.7350  -11.8087  -22.0501 C   0  0  0  0  0  0  0  0  0  0  0  0
   12.9016  -10.6676  -24.3755 C   0  0  0  0  0  0  0  0  0  0  0  0
   12.1523  -10.1473  -22.7713 Se  0  0  2  0  0  0  0  0  0  0  0  0
   13.6351   -9.4961  -21.8584 C   0  0  0  0  0  0  0  0  0  0  0  0
   13.3896   -9.2848  -20.3638 C   0  0  1  0  0  0  0  0  0  0  0  0
   14.5624   -8.6793  -19.7934 O   0  0  0  0  0  0  0  0  0  0  0  0
   12.2998   -8.2207  -20.2294 C   0  0  1  0  0  0  0  0  0  0  0  0
   11.8954   -8.1186  -18.8632 O   0  0  0  0  0  0  0  0  0  0  0  0
   13.1092   -6.9887  -20.6264 C   0  0  1  0  0  0  0  0  0  0  0  0
   12.4641   -5.8261  -20.1034 O   0  0  0  0  0  0  0  0  0  0  0  0
   14.3851   -7.2518  -19.8255 C   0  0  2  0  0  0  0  0  0  0  0  0
    8.9615  -12.4449  -20.2472 O   0  0  0  0  0  0  0  0  0  0  0  0
   16.4833   -2.7633  -21.2730 N   0  0  0  0  0  0  0  0  0  0  0  0
   15.3009   -2.9865  -20.7256 C   0  0  0  0  0  0  0  0  0  0  0  0
   14.9003   -4.2046  -20.4053 N   0  0  0  0  0  0  0  0  0  0  0  0
   15.6934   -5.2639  -20.6261 C   0  0  0  0  0  0  0  0  0  0  0  0
   16.9415   -5.0693  -21.2010 C   0  0  0  0  0  0  0  0  0  0  0  0
   17.3247   -3.7737  -21.5270 C   0  0  0  0  0  0  0  0  0  0  0  0
   18.4964   -3.5515  -22.1144 N   0  0  0  0  0  0  0  0  0  0  0  0
   17.5226   -6.2583  -21.3146 N   0  0  0  0  0  0  0  0  0  0  0  0
   16.6774   -7.1662  -20.8323 C   0  0  0  0  0  0  0  0  0  0  0  0
   15.5624   -6.5689  -20.4112 N   0  0  0  0  0  0  0  0  0  0  0  0
  2  1  1  6  0  0  0
  2  5  1  0  0  0  0
  2  3  1  0  0  0  0
  3 17  1  0  0  0  0
  3  4  1  0  0  0  0
  5  6  1  0  0  0  0
  7  8  1  0  0  0  0
  8  6  1  1  0  0  0
  8  9  1  0  0  0  0
 10  9  1  6  0  0  0
 10 11  1  0  0  0  0
 10 12  1  0  0  0  0
 11 16  1  0  0  0  0
 12 13  1  1  0  0  0
 12 14  1  0  0  0  0
 14 15  1  1  0  0  0
 14 16  1  0  0  0  0
 16 27  1  6  0  0  0
 18 23  2  0  0  0  0
 18 19  1  0  0  0  0
 19 20  2  0  0  0  0
 20 21  1  0  0  0  0
 21 22  2  0  0  0  0
 21 27  1  0  0  0  0
 22 23  1  0  0  0  0
 22 25  1  0  0  0  0
 23 24  1  0  0  0  0
 25 26  2  0  0  0  0
 26 27  1  0  0  0  0
M  END
>  <CHROM.1>
-171.38434570,102.06033665,-177.45351318,-81.85096399,-61.82942878,-175.27796622
177.40776310,13.24413217,-8.67621806,-21.31644944,-2.54044749,0.76317328
0.87876630

>  <Name>
ligand

>  <RI>
0

>  <Rbt.Current_Directory>
/home/itssahil/PROJECTS/Mol_Feturizer/New_Systems/rnas/3E5F

>  <Rbt.Executable>
rbdock ($Id: //depot/dev/client3/rdock/2013.1/src/exe/rbdock.cxx#4 $)

>  <Rbt.Library>
libRbt.so (2013.1, Build901 2013/11/27)

>  <Rbt.Parameter_File>
/export/apps/rDock/src/rDock_2013.1_src/data/scripts/dock_solv.prm

>  <Rbt.Receptor>
prm/blind_docking_40.prm

>  <SCORE>
-12.7281

>  <SCORE.INTER>
-12.6703

>  <SCORE.INTER.CONST>
1

>  <SCORE.INTER.POLAR>
0

>  <SCORE.INTER.ROT>
7

>  <SCORE.INTER.SOLV>
15.38

>  <SCORE.INTER.VDW>
-21.8402

>  <SCORE.INTER.norm>
-0.46927

>  <SCORE.INTRA>
-0.0652292

>  <SCORE.INTRA.DIHEDRAL>
-1.18234

>  <SCORE.INTRA.DIHEDRAL.0>
4.89803

>  <SCORE.INTRA.POLAR>
0

>  <SCORE.INTRA.POLAR.0>
0

>  <SCORE.INTRA.REPUL>
0

>  <SCORE.INTRA.REPUL.0>
0

>  <SCORE.INTRA.SOLV>
0.0726846

>  <SCORE.INTRA.SOLV.lig_0>
-48.5832

>  <SCORE.INTRA.VDW>
0.489597

>  <SCORE.INTRA.VDW.0>
-2.39056

>  <SCORE.INTRA.norm>
-0.00241589

>  <SCORE.RESTR>
0.00738187

>  <SCORE.RESTR.CAVITY>
0.00738187

>  <SCORE.RESTR.norm>
0.000273403

>  <SCORE.SYSTEM>
0

>  <SCORE.SYSTEM.CONST>
0

>  <SCORE.SYSTEM.DIHEDRAL>
0

>  <SCORE.SYSTEM.SOLV>
0

>  <SCORE.SYSTEM.norm>
0

>  <SCORE.heavy>
27

>  <SCORE.norm>
-0.471413

>  <RMSD>
6.725

$$$$
ligand
 OpenBabel11021811473D
libRbt.so/2013.1/901 2013/11/27
 27 29  0  0  0  0  0  0  0  0999 V2000
   12.3346  -12.2652  -23.1625 N   0  0  0  0  0  0  0  0  0  0  0  0
   13.5561  -11.8823  -22.4392 C   0  0  2  0  0  0  0  0  0  0  0  0
   13.5511  -12.5045  -21.0396 C   0  0  0  0  0  0  0  0  0  0  0  0
   12.5158  -12.3521  -20.3551 O   0  0  0  0  0  0  0  0  0  0  0  0
   13.5977  -10.3584  -22.3132 C   0  0  0  0  0  0  0  0  0  0  0  0
   13.9886   -9.6836  -23.6305 C   0  0  0  0  0  0  0  0  0  0  0  0
   15.6073   -7.4694  -24.3703 C   0  0  0  0  0  0  0  0  0  0  0  0
   14.0583   -7.8364  -23.4368 Se  0  0  2  0  0  0  0  0  0  0  0  0
   14.5791   -7.4750  -21.6891 C   0  0  0  0  0  0  0  0  0  0  0  0
   13.4078   -7.3606  -20.7126 C   0  0  1  0  0  0  0  0  0  0  0  0
   13.8461   -7.8228  -19.4235 O   0  0  0  0  0  0  0  0  0  0  0  0
   13.1263   -5.8707  -20.5149 C   0  0  1  0  0  0  0  0  0  0  0  0
   11.9234   -5.7059  -19.7623 O   0  0  0  0  0  0  0  0  0  0  0  0
   14.3332   -5.5048  -19.6546 C   0  0  1  0  0  0  0  0  0  0  0  0
   14.0385   -4.3066  -18.9343 O   0  0  0  0  0  0  0  0  0  0  0  0
   14.3215   -6.6850  -18.6822 C   0  0  2  0  0  0  0  0  0  0  0  0
   14.5848  -13.1103  -20.6806 O   0  0  0  0  0  0  0  0  0  0  0  0
   19.3834   -5.7003  -18.9102 N   0  0  0  0  0  0  0  0  0  0  0  0
   18.4131   -5.2311  -19.6756 C   0  0  0  0  0  0  0  0  0  0  0  0
   17.1512   -5.5779  -19.4915 N   0  0  0  0  0  0  0  0  0  0  0  0
   16.8128   -6.4247  -18.5074 C   0  0  0  0  0  0  0  0  0  0  0  0
   17.8043   -6.9396  -17.6842 C   0  0  0  0  0  0  0  0  0  0  0  0
   19.1199   -6.5537  -17.9124 C   0  0  0  0  0  0  0  0  0  0  0  0
   20.1016   -7.0555  -17.1697 N   0  0  0  0  0  0  0  0  0  0  0  0
   17.2194   -7.7432  -16.8030 N   0  0  0  0  0  0  0  0  0  0  0  0
   15.9132   -7.7369  -17.0587 C   0  0  0  0  0  0  0  0  0  0  0  0
   15.6581   -6.9367  -18.0941 N   0  0  0  0  0  0  0  0  0  0  0  0
  2  1  1  1  0  0  0
  2  5  1  0  0  0  0
  2  3  1  0  0  0  0
  3 17  1  0  0  0  0
  3  4  1  0  0  0  0
  5  6  1  0  0  0  0
  7  8  1  0  0  0  0
  8  6  1  1  0  0  0
  8  9  1  0  0  0  0
 10  9  1  6  0  0  0
 10 11  1  0  0  0  0
 10 12  1  0  0  0  0
 11 16  1  0  0  0  0
 12 13  1  1  0  0  0
 12 14  1  0  0  0  0
 14 15  1  1  0  0  0
 14 16  1  0  0  0  0
 16 27  1  6  0  0  0
 18 23  2  0  0  0  0
 18 19  1  0  0  0  0
 19 20  2  0  0  0  0
 20 21  1  0  0  0  0
 21 22  2  0  0  0  0
 21 27  1  0  0  0  0
 22 23  1  0  0  0  0
 22 25  1  0  0  0  0
 23 24  1  0  0  0  0
 25 26  2  0  0  0  0
 26 27  1  0  0  0  0
M  END
>  <CHROM.1>
-75.65829998,-49.74219314,-179.03297726,137.18234016,-89.43815870,148.25922363
106.52178157,14.97616944,-7.94656689,-20.61734004,-2.65008917,-0.89921759
-0.16051091

>  <Name>
ligand

>  <RI>
0

>  <Rbt.Current_Directory>
/home/itssahil/PROJECTS/Mol_Feturizer/New_Systems/rnas/3E5F

>  <Rbt.Executable>
rbdock ($Id: //depot/dev/client3/rdock/2013.1/src/exe/rbdock.cxx#4 $)

>  <Rbt.Library>
libRbt.so (2013.1, Build901 2013/11/27)

>  <Rbt.Parameter_File>
/export/apps/rDock/src/rDock_2013.1_src/data/scripts/dock_solv.prm

>  <Rbt.Receptor>
prm/pocket_docking_4.prm

>  <SCORE>
-12.6699

>  <SCORE.INTER>
-15.5274

>  <SCORE.INTER.CONST>
1

>  <SCORE.INTER.POLAR>
0

>  <SCORE.INTER.ROT>
7

>  <SCORE.INTER.SOLV>
10.0923

>  <SCORE.INTER.VDW>
-21.9824

>  <SCORE.INTER.norm>
-0.575088

>  <SCORE.INTRA>
2.85587

>  <SCORE.INTRA.DIHEDRAL>
3.74302

>  <SCORE.INTRA.DIHEDRAL.0>
4.89803

>  <SCORE.INTRA.POLAR>
0

>  <SCORE.INTRA.POLAR.0>
0

>  <SCORE.INTRA.REPUL>
0

>  <SCORE.INTRA.REPUL.0>
0

>  <SCORE.INTRA.SOLV>
0.63272

>  <SCORE.INTRA.SOLV.lig_0>
-48.5832

>  <SCORE.INTRA.VDW>
0.667997

>  <SCORE.INTRA.VDW.0>
-2.39056

>  <SCORE.INTRA.norm>
0.105773

>  <SCORE.RESTR>
0.00161146

>  <SCORE.RESTR.CAVITY>
0.00161146

>  <SCORE.RESTR.norm>
5.96837e-05

>  <SCORE.SYSTEM>
0

>  <SCORE.SYSTEM.CONST>
0

>  <SCORE.SYSTEM.DIHEDRAL>
0

>  <SCORE.SYSTEM.SOLV>
0

>  <SCORE.SYSTEM.norm>
0

>  <SCORE.heavy>
27

>  <SCORE.norm>
-0.469256

>  <RMSD>
6.734

$$$$
ligand
 OpenBabel11021811473D
libRbt.so/2013.1/901 2013/11/27
 27 29  0  0  0  0  0  0  0  0999 V2000
    6.9735  -13.9782  -21.0821 N   0  0  0  0  0  0  0  0  0  0  0  0
    8.1523  -14.6252  -20.4875 C   0  0  2  0  0  0  0  0  0  0  0  0
    8.2152  -14.3195  -18.9879 C   0  0  0  0  0  0  0  0  0  0  0  0
    7.1687  -13.8940  -18.4518 O   0  0  0  0  0  0  0  0  0  0  0  0
    9.4097  -14.0792  -21.1663 C   0  0  0  0  0  0  0  0  0  0  0  0
    9.5626  -14.6011  -22.5973 C   0  0  0  0  0  0  0  0  0  0  0  0
    9.7173  -14.1342  -25.3952 C   0  0  0  0  0  0  0  0  0  0  0  0
    9.3223  -13.2340  -23.8334 Se  0  0  2  0  0  0  0  0  0  0  0  0
   10.7749  -12.0831  -23.6862 C   0  0  0  0  0  0  0  0  0  0  0  0
   11.8970  -12.6241  -22.7992 C   0  0  1  0  0  0  0  0  0  0  0  0
   13.1517  -12.1472  -23.3148 O   0  0  0  0  0  0  0  0  0  0  0  0
   11.7589  -11.9517  -21.4328 C   0  0  1  0  0  0  0  0  0  0  0  0
   12.6621  -12.5577  -20.5068 O   0  0  0  0  0  0  0  0  0  0  0  0
   12.2479  -10.5522  -21.7972 C   0  0  1  0  0  0  0  0  0  0  0  0
   12.6819   -9.8919  -20.6069 O   0  0  0  0  0  0  0  0  0  0  0  0
   13.4723  -10.9195  -22.6366 C   0  0  2  0  0  0  0  0  0  0  0  0
    9.3094  -14.5084  -18.4123 O   0  0  0  0  0  0  0  0  0  0  0  0
   16.1383   -6.5696  -23.4212 N   0  0  0  0  0  0  0  0  0  0  0  0
   16.0698   -7.3137  -22.3307 C   0  0  0  0  0  0  0  0  0  0  0  0
   15.3375   -8.4129  -22.2824 N   0  0  0  0  0  0  0  0  0  0  0  0
   14.6357   -8.8130  -23.3535 C   0  0  0  0  0  0  0  0  0  0  0  0
   14.6813   -8.0566  -24.5161 C   0  0  0  0  0  0  0  0  0  0  0  0
   15.4599   -6.9052  -24.5259 C   0  0  0  0  0  0  0  0  0  0  0  0
   15.4983   -6.1340  -25.6081 N   0  0  0  0  0  0  0  0  0  0  0  0
   13.9106   -8.6555  -25.4170 N   0  0  0  0  0  0  0  0  0  0  0  0
   13.3989   -9.7443  -24.8477 C   0  0  0  0  0  0  0  0  0  0  0  0
   13.8358   -9.8471  -23.5923 N   0  0  0  0  0  0  0  0  0  0  0  0
  2  1  1  6  0  0  0
  2  5  1  0  0  0  0
  2  3  1  0  0  0  0
  3 17  1  0  0  0  0
  3  4  1  0  0  0  0
  5  6  1  0  0  0  0
  7  8  1  0  0  0  0
  8  6  1  1  0  0  0
  8  9  1  0  0  0  0
 10  9  1  6  0  0  0
 10 11  1  0  0  0  0
 10 12  1  0  0  0  0
 11 16  1  0  0  0  0
 12 13  1  1  0  0  0
 12 14  1  0  0  0  0
 14 15  1  1  0  0  0
 14 16  1  0  0  0  0
 16 27  1  6  0  0  0
 18 23  2  0  0  0  0
 18 19  1  0  0  0  0
 19 20  2  0  0  0  0
 20 21  1  0  0  0  0
 21 22  2  0  0  0  0
 21 27  1  0  0  0  0
 22 23  1  0  0  0  0
 22 25  1  0  0  0  0
 23 24  1  0  0  0  0
 25 26  2  0  0  0  0
 26 27  1  0  0  0  0
M  END
>  <CHROM.1>
-72.14806821,16.85630228,111.49001539,175.03890798,9.57321481,147.39063874
-152.64330918,11.57777477,-11.52653230,-22.63193476,-2.82226262,-0.75489984
-1.52910566

>  <Name>
ligand

>  <RI>
0

>  <Rbt.Current_Directory>
/home/itssahil/PROJECTS/Mol_Feturizer/New_Systems/rnas/3E5F

>  <Rbt.Executable>
rbdock ($Id: //depot/dev/client3/rdock/2013.1/src/exe/rbdock.cxx#4 $)

>  <Rbt.Library>
libRbt.so (2013.1, Build901 2013/11/27)

>  <Rbt.Parameter_File>
/export/apps/rDock/src/rDock_2013.1_src/data/scripts/dock_solv.prm

>  <Rbt.Receptor>
prm/blind_docking_60.prm

>  <SCORE>
-15.4898

>  <SCORE.INTER>
-20.7913

>  <SCORE.INTER.CONST>
1

>  <SCORE.INTER.POLAR>
0

>  <SCORE.INTER.ROT>
7

>  <SCORE.INTER.SOLV>
20.1675

>  <SCORE.INTER.VDW>
-28.8501

>  <SCORE.INTER.norm>
-0.770049

>  <SCORE.INTRA>
5.28688

>  <SCORE.INTRA.DIHEDRAL>
8.46586

>  <SCORE.INTRA.DIHEDRAL.0>
4.89803

>  <SCORE.INTRA.POLAR>
0

>  <SCORE.INTRA.POLAR.0>
0

>  <SCORE.INTRA.REPUL>
0

>  <SCORE.INTRA.REPUL.0>
0

>  <SCORE.INTRA.SOLV>
1.06338

>  <SCORE.INTRA.SOLV.lig_0>
-48.5832

>  <SCORE.INTRA.VDW>
0.52226

>  <SCORE.INTRA.VDW.0>
-2.39056

>  <SCORE.INTRA.norm>
0.19581

>  <SCORE.RESTR>
0.0146097

>  <SCORE.RESTR.CAVITY>
0.0146097

>  <SCORE.RESTR.norm>
0.0005411

>  <SCORE.SYSTEM>
0

>  <SCORE.SYSTEM.CONST>
0

>  <SCORE.SYSTEM.DIHEDRAL>
0

>  <SCORE.SYSTEM.SOLV>
0

>  <SCORE.SYSTEM.norm>
0

>  <SCORE.heavy>
27

>  <SCORE.norm>
-0.573698

>  <RMSD>
6.764

$$$$
ligand
 OpenBabel11021811473D
libRbt.so/2013.1/901 2013/11/27
 27 29  0  0  0  0  0  0  0  0999 V2000
   16.7655   -8.5216  -20.2178 N   0  0  0  0  0  0  0  0  0  0  0  0
   15.7046   -8.5134  -21.2357 C   0  0  2  0  0  0  0  0  0  0  0  0
   15.3313   -7.0706  -21.5894 C   0  0  0  0  0  0  0  0  0  0  0  0
   15.5477   -6.7007  -22.7641 O   0  0  0  0  0  0  0  0  0  0  0  0
   14.4752   -9.2285  -20.6727 C   0  0  0  0  0  0  0  0  0  0  0  0
   13.3262   -9.2771  -21.6831 C   0  0  0  0  0  0  0  0  0  0  0  0
   14.3670   -9.0188  -24.3137 C   0  0  0  0  0  0  0  0  0  0  0  0
   13.7751  -10.3243  -23.1515 Se  0  0  2  0  0  0  0  0  0  0  0  0
   12.1909  -10.8595  -23.9640 C   0  0  0  0  0  0  0  0  0  0  0  0
   12.0123  -12.3774  -24.0167 C   0  0  1  0  0  0  0  0  0  0  0  0
   11.6742  -12.8396  -22.6977 O   0  0  0  0  0  0  0  0  0  0  0  0
   10.7661  -12.6584  -24.8571 C   0  0  1  0  0  0  0  0  0  0  0  0
   10.6574  -14.0620  -25.0988 O   0  0  0  0  0  0  0  0  0  0  0  0
    9.6949  -12.2166  -23.8631 C   0  0  1  0  0  0  0  0  0  0  0  0
    8.4578  -12.8400  -24.2125 O   0  0  0  0  0  0  0  0  0  0  0  0
   10.2396  -12.8704  -22.5925 C   0  0  2  0  0  0  0  0  0  0  0  0
   14.8469   -6.3661  -20.6765 O   0  0  0  0  0  0  0  0  0  0  0  0
    7.8593  -13.3460  -18.0370 N   0  0  0  0  0  0  0  0  0  0  0  0
    8.1301  -14.2809  -18.9316 C   0  0  0  0  0  0  0  0  0  0  0  0
    8.7538  -14.0025  -20.0630 N   0  0  0  0  0  0  0  0  0  0  0  0
    9.1386  -12.7473  -20.3392 C   0  0  0  0  0  0  0  0  0  0  0  0
    8.8702  -11.7384  -19.4248 C   0  0  0  0  0  0  0  0  0  0  0  0
    8.2090  -12.0708  -18.2484 C   0  0  0  0  0  0  0  0  0  0  0  0
    7.9000  -11.1257  -17.3659 N   0  0  0  0  0  0  0  0  0  0  0  0
    9.3440  -10.6034  -19.9265 N   0  0  0  0  0  0  0  0  0  0  0  0
    9.8885  -10.8830  -21.1084 C   0  0  0  0  0  0  0  0  0  0  0  0
    9.7678  -12.1854  -21.3662 N   0  0  0  0  0  0  0  0  0  0  0  0
  2  1  1  1  0  0  0
  2  5  1  0  0  0  0
  2  3  1  0  0  0  0
  3 17  1  0  0  0  0
  3  4  1  0  0  0  0
  5  6  1  0  0  0  0
  7  8  1  0  0  0  0
  8  6  1  1  0  0  0
  8  9  1  0  0  0  0
 10  9  1  1  0  0  0
 10 11  1  0  0  0  0
 10 12  1  0  0  0  0
 11 16  1  0  0  0  0
 12 13  1  1  0  0  0
 12 14  1  0  0  0  0
 14 15  1  6  0  0  0
 14 16  1  0  0  0  0
 16 27  1  1  0  0  0
 18 23  2  0  0  0  0
 18 19  1  0  0  0  0
 19 20  2  0  0  0  0
 20 21  1  0  0  0  0
 21 22  2  0  0  0  0
 21 27  1  0  0  0  0
 22 23  1  0  0  0  0
 22 25  1  0  0  0  0
 23 24  1  0  0  0  0
 25 26  2  0  0  0  0
 26 27  1  0  0  0  0
M  END
>  <CHROM.1>
-179.32868629,116.39940963,65.72674363,-95.57500966,-120.05268726,74.39664764
-115.22844327,11.81281661,-10.91922890,-21.87191995,0.02091427,0.65164815
1.14975277

>  <Name>
ligand

>  <RI>
0

>  <Rbt.Current_Directory>
/home/itssahil/PROJECTS/Mol_Feturizer/New_Systems/rnas/3E5F

>  <Rbt.Executable>
rbdock ($Id: //depot/dev/client3/rdock/2013.1/src/exe/rbdock.cxx#4 $)

>  <Rbt.Library>
libRbt.so (2013.1, Build901 2013/11/27)

>  <Rbt.Parameter_File>
/export/apps/rDock/src/rDock_2013.1_src/data/scripts/dock_solv.prm

>  <Rbt.Receptor>
prm/blind_docking_80.prm

>  <SCORE>
-13.9459

>  <SCORE.INTER>
-14.9259

>  <SCORE.INTER.CONST>
1

>  <SCORE.INTER.POLAR>
0

>  <SCORE.INTER.ROT>
7

>  <SCORE.INTER.SOLV>
13.8918

>  <SCORE.INTER.VDW>
-22.8479

>  <SCORE.INTER.norm>
-0.552812

>  <SCORE.INTRA>
0.980011

>  <SCORE.INTRA.DIHEDRAL>
2.04703

>  <SCORE.INTRA.DIHEDRAL.0>
4.89803

>  <SCORE.INTRA.POLAR>
0

>  <SCORE.INTRA.POLAR.0>
0

>  <SCORE.INTRA.REPUL>
0

>  <SCORE.INTRA.REPUL.0>
0

>  <SCORE.INTRA.SOLV>
-0.0336606

>  <SCORE.INTRA.SOLV.lig_0>
-48.5832

>  <SCORE.INTRA.VDW>
-0.0266729

>  <SCORE.INTRA.VDW.0>
-2.39056

>  <SCORE.INTRA.norm>
0.0362967

>  <SCORE.RESTR>
0

>  <SCORE.RESTR.CAVITY>
0

>  <SCORE.RESTR.norm>
0

>  <SCORE.SYSTEM>
0

>  <SCORE.SYSTEM.CONST>
0

>  <SCORE.SYSTEM.DIHEDRAL>
0

>  <SCORE.SYSTEM.SOLV>
0

>  <SCORE.SYSTEM.norm>
0

>  <SCORE.heavy>
27

>  <SCORE.norm>
-0.516515

>  <RMSD>
6.768

$$$$
ligand
 OpenBabel11021811473D
libRbt.so/2013.1/901 2013/11/27
 27 29  0  0  0  0  0  0  0  0999 V2000
   14.3828   -7.5459  -22.3588 N   0  0  0  0  0  0  0  0  0  0  0  0
   15.0473   -8.1791  -23.5074 C   0  0  2  0  0  0  0  0  0  0  0  0
   15.6394   -7.1054  -24.4254 C   0  0  0  0  0  0  0  0  0  0  0  0
   16.0650   -7.4833  -25.5388 O   0  0  0  0  0  0  0  0  0  0  0  0
   14.0144   -8.9949  -24.2868 C   0  0  0  0  0  0  0  0  0  0  0  0
   13.1054   -9.8063  -23.3601 C   0  0  0  0  0  0  0  0  0  0  0  0
   13.6142  -12.5091  -22.6488 C   0  0  0  0  0  0  0  0  0  0  0  0
   14.1060  -10.8016  -22.1507 Se  0  0  2  0  0  0  0  0  0  0  0  0
   13.2909  -10.6467  -20.4871 C   0  0  0  0  0  0  0  0  0  0  0  0
   13.0676   -9.1992  -20.0472 C   0  0  1  0  0  0  0  0  0  0  0  0
   11.6615   -8.9113  -20.1339 O   0  0  0  0  0  0  0  0  0  0  0  0
   13.3869   -9.1249  -18.5536 C   0  0  1  0  0  0  0  0  0  0  0  0
   13.3791   -7.7611  -18.1290 O   0  0  0  0  0  0  0  0  0  0  0  0
   12.1602   -9.8485  -18.0039 C   0  0  1  0  0  0  0  0  0  0  0  0
   11.9780   -9.4727  -16.6376 O   0  0  0  0  0  0  0  0  0  0  0  0
   11.0721   -9.1869  -18.8507 C   0  0  2  0  0  0  0  0  0  0  0  0
   15.6626   -5.9326  -23.9913 O   0  0  0  0  0  0  0  0  0  0  0  0
    9.1193  -13.6710  -20.5012 N   0  0  0  0  0  0  0  0  0  0  0  0
   10.3666  -13.2375  -20.5643 C   0  0  0  0  0  0  0  0  0  0  0  0
   10.7174  -12.0540  -20.0922 N   0  0  0  0  0  0  0  0  0  0  0  0
    9.8070  -11.2485  -19.5245 C   0  0  0  0  0  0  0  0  0  0  0  0
    8.4869  -11.6684  -19.4417 C   0  0  0  0  0  0  0  0  0  0  0  0
    8.1570  -12.9180  -19.9531 C   0  0  0  0  0  0  0  0  0  0  0  0
    6.8963  -13.3389  -19.9269 N   0  0  0  0  0  0  0  0  0  0  0  0
    7.7936  -10.7036  -18.8477 N   0  0  0  0  0  0  0  0  0  0  0  0
    8.6398   -9.7152  -18.5674 C   0  0  0  0  0  0  0  0  0  0  0  0
    9.8667  -10.0395  -18.9758 N   0  0  0  0  0  0  0  0  0  0  0  0
  2  1  1  1  0  0  0
  2  5  1  0  0  0  0
  2  3  1  0  0  0  0
  3 17  1  0  0  0  0
  3  4  1  0  0  0  0
  5  6  1  0  0  0  0
  7  8  1  0  0  0  0
  8  6  1  6  0  0  0
  8  9  1  0  0  0  0
 10  9  1  1  0  0  0
 10 11  1  0  0  0  0
 10 12  1  0  0  0  0
 11 16  1  0  0  0  0
 12 13  1  1  0  0  0
 12 14  1  0  0  0  0
 14 15  1  1  0  0  0
 14 16  1  0  0  0  0
 16 27  1  6  0  0  0
 18 23  2  0  0  0  0
 18 19  1  0  0  0  0
 19 20  2  0  0  0  0
 20 21  1  0  0  0  0
 21 22  2  0  0  0  0
 21 27  1  0  0  0  0
 22 23  1  0  0  0  0
 22 25  1  0  0  0  0
 23 24  1  0  0  0  0
 25 26  2  0  0  0  0
 26 27  1  0  0  0  0
M  END
>  <CHROM.1>
-43.72673087,-169.91605635,-51.07693715,-117.33989578,-53.55338178,107.76677675
58.13215617,12.31516136,-10.09591567,-20.96212118,-0.17599823,0.73095524
0.90976389

>  <Name>
ligand

>  <RI>
0

>  <Rbt.Current_Directory>
/home/itssahil/PROJECTS/Mol_Feturizer/New_Systems/rnas/3E5F

>  <Rbt.Executable>
rbdock ($Id: //depot/dev/client3/rdock/2013.1/src/exe/rbdock.cxx#4 $)

>  <Rbt.Library>
libRbt.so (2013.1, Build901 2013/11/27)

>  <Rbt.Parameter_File>
/export/apps/rDock/src/rDock_2013.1_src/data/scripts/dock_solv.prm

>  <Rbt.Receptor>
prm/blind_docking_100.prm

>  <SCORE>
-14.2005

>  <SCORE.INTER>
-18.7885

>  <SCORE.INTER.CONST>
1

>  <SCORE.INTER.POLAR>
0

>  <SCORE.INTER.ROT>
7

>  <SCORE.INTER.SOLV>
9.8801

>  <SCORE.INTER.VDW>
-24.0857

>  <SCORE.INTER.norm>
-0.695869

>  <SCORE.INTRA>
4.58703

>  <SCORE.INTRA.DIHEDRAL>
6.26442

>  <SCORE.INTRA.DIHEDRAL.0>
4.89803

>  <SCORE.INTRA.POLAR>
0

>  <SCORE.INTRA.POLAR.0>
0

>  <SCORE.INTRA.REPUL>
0

>  <SCORE.INTRA.REPUL.0>
0

>  <SCORE.INTRA.SOLV>
3.48622

>  <SCORE.INTRA.SOLV.lig_0>
-48.5832

>  <SCORE.INTRA.VDW>
-0.288287

>  <SCORE.INTRA.VDW.0>
-2.39056

>  <SCORE.INTRA.norm>
0.16989

>  <SCORE.RESTR>
0.000871058

>  <SCORE.RESTR.CAVITY>
0.000871058

>  <SCORE.RESTR.norm>
3.22614e-05

>  <SCORE.SYSTEM>
0

>  <SCORE.SYSTEM.CONST>
0

>  <SCORE.SYSTEM.DIHEDRAL>
0

>  <SCORE.SYSTEM.SOLV>
0

>  <SCORE.SYSTEM.norm>
0

>  <SCORE.heavy>
27

>  <SCORE.norm>
-0.525946

>  <RMSD>
6.790

$$$$
ligand
 OpenBabel11021811473D
libRbt.so/2013.1/901 2013/11/27
 27 29  0  0  0  0  0  0  0  0999 V2000
   12.3340  -12.4691  -23.0367 N   0  0  0  0  0  0  0  0  0  0  0  0
   13.0463  -11.9005  -21.8830 C   0  0  2  0  0  0  0  0  0  0  0  0
   12.3756  -12.3503  -20.5815 C   0  0  0  0  0  0  0  0  0  0  0  0
   13.0750  -12.3254  -19.5452 O   0  0  0  0  0  0  0  0  0  0  0  0
   12.9955  -10.3745  -21.9749 C   0  0  0  0  0  0  0  0  0  0  0  0
   13.8649   -9.8385  -23.1153 C   0  0  0  0  0  0  0  0  0  0  0  0
   15.5245   -7.6783  -23.9213 C   0  0  0  0  0  0  0  0  0  0  0  0
   13.8929   -7.9800  -23.1137 Se  0  0  2  0  0  0  0  0  0  0  0  0
   14.2285   -7.4257  -21.3712 C   0  0  0  0  0  0  0  0  0  0  0  0
   12.9740   -7.3521  -20.4999 C   0  0  1  0  0  0  0  0  0  0  0  0
   13.3569   -7.5868  -19.1339 O   0  0  0  0  0  0  0  0  0  0  0  0
   12.4904   -5.9017  -20.5229 C   0  0  1  0  0  0  0  0  0  0  0  0
   11.2172   -5.8106  -19.8818 O   0  0  0  0  0  0  0  0  0  0  0  0
   13.5643   -5.2706  -19.6403 C   0  0  1  0  0  0  0  0  0  0  0  0
   13.0606   -4.0440  -19.1084 O   0  0  0  0  0  0  0  0  0  0  0  0
   13.6202   -6.3117  -18.5215 C   0  0  2  0  0  0  0  0  0  0  0  0
   11.1823  -12.7182  -20.6518 O   0  0  0  0  0  0  0  0  0  0  0  0
   18.5178   -7.9420  -18.5021 N   0  0  0  0  0  0  0  0  0  0  0  0
   17.5721   -8.1712  -19.3969 C   0  0  0  0  0  0  0  0  0  0  0  0
   16.3529   -7.6789  -19.2636 N   0  0  0  0  0  0  0  0  0  0  0  0
   16.0357   -6.9194  -18.2041 C   0  0  0  0  0  0  0  0  0  0  0  0
   17.0017   -6.6582  -17.2426 C   0  0  0  0  0  0  0  0  0  0  0  0
   18.2710   -7.1972  -17.4169 C   0  0  0  0  0  0  0  0  0  0  0  0
   19.2117   -7.0013  -16.4982 N   0  0  0  0  0  0  0  0  0  0  0  0
   16.4446   -5.8961  -16.3082 N   0  0  0  0  0  0  0  0  0  0  0  0
   15.1796   -5.6847  -16.6639 C   0  0  0  0  0  0  0  0  0  0  0  0
   14.9234   -6.3038  -17.8165 N   0  0  0  0  0  0  0  0  0  0  0  0
  2  1  1  6  0  0  0
  2  5  1  0  0  0  0
  2  3  1  0  0  0  0
  3 17  1  0  0  0  0
  3  4  1  0  0  0  0
  5  6  1  0  0  0  0
  7  8  1  0  0  0  0
  8  6  1  1  0  0  0
  8  9  1  0  0  0  0
 10  9  1  6  0  0  0
 10 11  1  0  0  0  0
 10 12  1  0  0  0  0
 11 16  1  0  0  0  0
 12 13  1  1  0  0  0
 12 14  1  0  0  0  0
 14 15  1  1  0  0  0
 14 16  1  0  0  0  0
 16 27  1  6  0  0  0
 18 23  2  0  0  0  0
 18 19  1  0  0  0  0
 19 20  2  0  0  0  0
 20 21  1  0  0  0  0
 21 22  2  0  0  0  0
 21 27  1  0  0  0  0
 22 23  1  0  0  0  0
 22 25  1  0  0  0  0
 23 24  1  0  0  0  0
 25 26  2  0  0  0  0
 26 27  1  0  0  0  0
M  END
>  <CHROM.1>
-70.35610811,157.54738611,-175.34471141,153.45593797,-84.45016770,151.41793713
36.54083979,14.36212256,-8.04512164,-20.31177307,-2.39850910,-0.82561939
0.16531209

>  <Name>
ligand

>  <RI>
0

>  <Rbt.Current_Directory>
/home/itssahil/PROJECTS/Mol_Feturizer/New_Systems/rnas/3E5F

>  <Rbt.Executable>
rbdock ($Id: //depot/dev/client3/rdock/2013.1/src/exe/rbdock.cxx#4 $)

>  <Rbt.Library>
libRbt.so (2013.1, Build901 2013/11/27)

>  <Rbt.Parameter_File>
/export/apps/rDock/src/rDock_2013.1_src/data/scripts/dock_solv.prm

>  <Rbt.Receptor>
prm/pocket_docking_3.prm

>  <SCORE>
-10.6272

>  <SCORE.INTER>
-11.728

>  <SCORE.INTER.CONST>
1

>  <SCORE.INTER.POLAR>
0

>  <SCORE.INTER.ROT>
7

>  <SCORE.INTER.SOLV>
10.7492

>  <SCORE.INTER.VDW>
-19.6684

>  <SCORE.INTER.norm>
-0.434369

>  <SCORE.INTRA>
0.970425

>  <SCORE.INTRA.DIHEDRAL>
1.80499

>  <SCORE.INTRA.DIHEDRAL.0>
4.89803

>  <SCORE.INTRA.POLAR>
0

>  <SCORE.INTRA.POLAR.0>
0

>  <SCORE.INTRA.REPUL>
0

>  <SCORE.INTRA.REPUL.0>
0

>  <SCORE.INTRA.SOLV>
0.666764

>  <SCORE.INTRA.SOLV.lig_0>
-48.5832

>  <SCORE.INTRA.VDW>
-0.265453

>  <SCORE.INTRA.VDW.0>
-2.39056

>  <SCORE.INTRA.norm>
0.0359417

>  <SCORE.RESTR>
0.13035

>  <SCORE.RESTR.CAVITY>
0.13035

>  <SCORE.RESTR.norm>
0.00482776

>  <SCORE.SYSTEM>
0

>  <SCORE.SYSTEM.CONST>
0

>  <SCORE.SYSTEM.DIHEDRAL>
0

>  <SCORE.SYSTEM.SOLV>
0

>  <SCORE.SYSTEM.norm>
0

>  <SCORE.heavy>
27

>  <SCORE.norm>
-0.393599

>  <RMSD>
6.792

$$$$
ligand
 OpenBabel11021811473D
libRbt.so/2013.1/901 2013/11/27
 27 29  0  0  0  0  0  0  0  0999 V2000
   11.8086  -11.6563  -22.6728 N   0  0  0  0  0  0  0  0  0  0  0  0
   13.2500  -11.6297  -22.3837 C   0  0  2  0  0  0  0  0  0  0  0  0
   13.5148  -12.2149  -20.9932 C   0  0  0  0  0  0  0  0  0  0  0  0
   14.4279  -13.0640  -20.8999 O   0  0  0  0  0  0  0  0  0  0  0  0
   13.7339  -10.1790  -22.4205 C   0  0  0  0  0  0  0  0  0  0  0  0
   13.8611   -9.6521  -23.8521 C   0  0  0  0  0  0  0  0  0  0  0  0
   15.3610   -7.7979  -25.3956 C   0  0  0  0  0  0  0  0  0  0  0  0
   14.3392   -7.8560  -23.8601 Se  0  0  2  0  0  0  0  0  0  0  0  0
   15.6279   -7.6128  -22.5424 C   0  0  0  0  0  0  0  0  0  0  0  0
   16.1565   -6.1802  -22.4602 C   0  0  1  0  0  0  0  0  0  0  0  0
   15.0697   -5.3174  -22.0833 O   0  0  0  0  0  0  0  0  0  0  0  0
   17.1255   -6.1216  -21.2787 C   0  0  1  0  0  0  0  0  0  0  0  0
   17.7936   -4.8592  -21.2689 O   0  0  0  0  0  0  0  0  0  0  0  0
   16.1193   -6.1873  -20.1324 C   0  0  1  0  0  0  0  0  0  0  0  0
   16.7268   -5.6514  -18.9556 O   0  0  0  0  0  0  0  0  0  0  0  0
   15.0770   -5.1950  -20.6497 C   0  0  2  0  0  0  0  0  0  0  0  0
   12.7931  -11.8085  -20.0559 O   0  0  0  0  0  0  0  0  0  0  0  0
   11.8212   -8.6720  -18.6613 N   0  0  0  0  0  0  0  0  0  0  0  0
   13.0586   -8.8475  -19.0919 C   0  0  0  0  0  0  0  0  0  0  0  0
   13.7751   -7.8491  -19.5783 N   0  0  0  0  0  0  0  0  0  0  0  0
   13.2623   -6.6113  -19.6471 C   0  0  0  0  0  0  0  0  0  0  0  0
   11.9654   -6.3883  -19.2060 C   0  0  0  0  0  0  0  0  0  0  0  0
   11.2431   -7.4649  -18.7048 C   0  0  0  0  0  0  0  0  0  0  0  0
    9.9850   -7.2987  -18.3087 N   0  0  0  0  0  0  0  0  0  0  0  0
   11.6967   -5.0992  -19.3797 N   0  0  0  0  0  0  0  0  0  0  0  0
   12.7779   -4.5312  -19.9087 C   0  0  0  0  0  0  0  0  0  0  0  0
   13.7347   -5.4447  -20.0741 N   0  0  0  0  0  0  0  0  0  0  0  0
  2  1  1  1  0  0  0
  2  5  1  0  0  0  0
  2  3  1  0  0  0  0
  3 17  1  0  0  0  0
  3  4  1  0  0  0  0
  5  6  1  0  0  0  0
  7  8  1  0  0  0  0
  8  6  1  1  0  0  0
  8  9  1  0  0  0  0
 10  9  1  1  0  0  0
 10 11  1  0  0  0  0
 10 12  1  0  0  0  0
 11 16  1  0  0  0  0
 12 13  1  1  0  0  0
 12 14  1  0  0  0  0
 14 15  1  1  0  0  0
 14 16  1  0  0  0  0
 16 27  1  1  0  0  0
 18 23  2  0  0  0  0
 18 19  1  0  0  0  0
 19 20  2  0  0  0  0
 20 21  1  0  0  0  0
 21 22  2  0  0  0  0
 21 27  1  0  0  0  0
 22 23  1  0  0  0  0
 22 25  1  0  0  0  0
 23 24  1  0  0  0  0
 25 26  2  0  0  0  0
 26 27  1  0  0  0  0
M  END
>  <CHROM.1>
-75.66927221,132.28034672,176.16685958,147.12410180,178.08445195,63.67495851
91.88474371,14.04387839,-7.84687608,-21.38060015,2.09269695,-0.84770035,-2.54178824

>  <Name>
ligand

>  <RI>
0

>  <Rbt.Current_Directory>
/home/itssahil/PROJECTS/Mol_Feturizer/New_Systems/rnas/3E5F

>  <Rbt.Executable>
rbdock ($Id: //depot/dev/client3/rdock/2013.1/src/exe/rbdock.cxx#4 $)

>  <Rbt.Library>
libRbt.so (2013.1, Build901 2013/11/27)

>  <Rbt.Parameter_File>
/export/apps/rDock/src/rDock_2013.1_src/data/scripts/dock_solv.prm

>  <Rbt.Receptor>
prm/pocket_docking_5.prm

>  <SCORE>
-17.3492

>  <SCORE.INTER>
-16.9388

>  <SCORE.INTER.CONST>
1

>  <SCORE.INTER.POLAR>
0

>  <SCORE.INTER.ROT>
7

>  <SCORE.INTER.SOLV>
11.2045

>  <SCORE.INTER.VDW>
-23.294

>  <SCORE.INTER.norm>
-0.627362

>  <SCORE.INTRA>
-0.410401

>  <SCORE.INTRA.DIHEDRAL>
0.00742978

>  <SCORE.INTRA.DIHEDRAL.0>
4.89803

>  <SCORE.INTRA.POLAR>
0

>  <SCORE.INTRA.POLAR.0>
0

>  <SCORE.INTRA.REPUL>
0

>  <SCORE.INTRA.REPUL.0>
0

>  <SCORE.INTRA.SOLV>
0.582814

>  <SCORE.INTRA.SOLV.lig_0>
-48.5832

>  <SCORE.INTRA.VDW>
-0.705523

>  <SCORE.INTRA.VDW.0>
-2.39056

>  <SCORE.INTRA.norm>
-0.0152

>  <SCORE.RESTR>
0

>  <SCORE.RESTR.CAVITY>
0

>  <SCORE.RESTR.norm>
0

>  <SCORE.SYSTEM>
0

>  <SCORE.SYSTEM.CONST>
0

>  <SCORE.SYSTEM.DIHEDRAL>
0

>  <SCORE.SYSTEM.SOLV>
0

>  <SCORE.SYSTEM.norm>
0

>  <SCORE.heavy>
27

>  <SCORE.norm>
-0.642562

>  <RMSD>
6.794

$$$$
ligand
 OpenBabel11021811473D
libRbt.so/2013.1/901 2013/11/27
 27 29  0  0  0  0  0  0  0  0999 V2000
   12.2373  -12.1938  -23.1115 N   0  0  0  0  0  0  0  0  0  0  0  0
   13.4257  -11.6909  -22.4067 C   0  0  2  0  0  0  0  0  0  0  0  0
   13.4758  -12.2689  -20.9891 C   0  0  0  0  0  0  0  0  0  0  0  0
   12.5621  -11.9294  -20.2059 O   0  0  0  0  0  0  0  0  0  0  0  0
   13.3430  -10.1656  -22.3265 C   0  0  0  0  0  0  0  0  0  0  0  0
   13.6629   -9.5017  -23.6682 C   0  0  0  0  0  0  0  0  0  0  0  0
   15.4762   -7.7436  -24.9687 C   0  0  0  0  0  0  0  0  0  0  0  0
   14.4849   -7.8538  -23.4161 Se  0  0  2  0  0  0  0  0  0  0  0  0
   15.8149   -8.0804  -22.1371 C   0  0  0  0  0  0  0  0  0  0  0  0
   16.3501   -6.7646  -21.5708 C   0  0  1  0  0  0  0  0  0  0  0  0
   15.4210   -6.2851  -20.5837 O   0  0  0  0  0  0  0  0  0  0  0  0
   17.6183   -7.0930  -20.7820 C   0  0  1  0  0  0  0  0  0  0  0  0
   18.2657   -5.8818  -20.3893 O   0  0  0  0  0  0  0  0  0  0  0  0
   16.9842   -7.7627  -19.5654 C   0  0  1  0  0  0  0  0  0  0  0  0
   17.9066   -7.7058  -18.4759 O   0  0  0  0  0  0  0  0  0  0  0  0
   15.8409   -6.7823  -19.3005 C   0  0  2  0  0  0  0  0  0  0  0  0
   14.4306  -13.0293  -20.7161 O   0  0  0  0  0  0  0  0  0  0  0  0
   10.7622   -7.6919  -19.1447 N   0  0  0  0  0  0  0  0  0  0  0  0
   11.4580   -7.0326  -20.0550 C   0  0  0  0  0  0  0  0  0  0  0  0
   12.7675   -6.8830  -19.9574 N   0  0  0  0  0  0  0  0  0  0  0  0
   13.4385   -7.4054  -18.9197 C   0  0  0  0  0  0  0  0  0  0  0  0
   12.7419   -8.1029  -17.9429 C   0  0  0  0  0  0  0  0  0  0  0  0
   11.3651   -8.2352  -18.0795 C   0  0  0  0  0  0  0  0  0  0  0  0
   10.6584   -8.8629  -17.1448 N   0  0  0  0  0  0  0  0  0  0  0  0
   13.6214   -8.5121  -17.0354 N   0  0  0  0  0  0  0  0  0  0  0  0
   14.8232   -8.0907  -17.4222 C   0  0  0  0  0  0  0  0  0  0  0  0
   14.7201   -7.4169  -18.5679 N   0  0  0  0  0  0  0  0  0  0  0  0
  2  1  1  1  0  0  0
  2  5  1  0  0  0  0
  2  3  1  0  0  0  0
  3 17  1  0  0  0  0
  3  4  1  0  0  0  0
  5  6  1  0  0  0  0
  7  8  1  0  0  0  0
  8  6  1  6  0  0  0
  8  9  1  0  0  0  0
 10  9  1  1  0  0  0
 10 11  1  0  0  0  0
 10 12  1  0  0  0  0
 11 16  1  0  0  0  0
 12 13  1  1  0  0  0
 12 14  1  0  0  0  0
 14 15  1  1  0  0  0
 14 16  1  0  0  0  0
 16 27  1  6  0  0  0
 18 23  2  0  0  0  0
 18 19  1  0  0  0  0
 19 20  2  0  0  0  0
 20 21  1  0  0  0  0
 21 22  2  0  0  0  0
 21 27  1  0  0  0  0
 22 23  1  0  0  0  0
 22 25  1  0  0  0  0
 23 24  1  0  0  0  0
 25 26  2  0  0  0  0
 26 27  1  0  0  0  0
M  END
>  <CHROM.1>
-75.21209811,-65.15251692,-147.87122138,152.12316270,-165.83342263,79.62205312
-8.33691831,14.30332964,-8.46476395,-20.82760086,2.51577516,0.70665203,1.18033981

>  <Name>
ligand

>  <RI>
0

>  <Rbt.Current_Directory>
/home/itssahil/PROJECTS/Mol_Feturizer/New_Systems/rnas/3E5F

>  <Rbt.Executable>
rbdock ($Id: //depot/dev/client3/rdock/2013.1/src/exe/rbdock.cxx#4 $)

>  <Rbt.Library>
libRbt.so (2013.1, Build901 2013/11/27)

>  <Rbt.Parameter_File>
/export/apps/rDock/src/rDock_2013.1_src/data/scripts/dock_solv.prm

>  <Rbt.Receptor>
prm/pocket_docking_3.prm

>  <SCORE>
-12.7322

>  <SCORE.INTER>
-15.1187

>  <SCORE.INTER.CONST>
1

>  <SCORE.INTER.POLAR>
0

>  <SCORE.INTER.ROT>
7

>  <SCORE.INTER.SOLV>
8.97294

>  <SCORE.INTER.VDW>
-21.3368

>  <SCORE.INTER.norm>
-0.559953

>  <SCORE.INTRA>
2.3865

>  <SCORE.INTRA.DIHEDRAL>
4.49295

>  <SCORE.INTRA.DIHEDRAL.0>
4.89803

>  <SCORE.INTRA.POLAR>
0

>  <SCORE.INTRA.POLAR.0>
0

>  <SCORE.INTRA.REPUL>
0

>  <SCORE.INTRA.REPUL.0>
0

>  <SCORE.INTRA.SOLV>
0.612881

>  <SCORE.INTRA.SOLV.lig_0>
-48.5832

>  <SCORE.INTRA.VDW>
-0.166421

>  <SCORE.INTRA.VDW.0>
-2.39056

>  <SCORE.INTRA.norm>
0.0883888

>  <SCORE.RESTR>
0

>  <SCORE.RESTR.CAVITY>
0

>  <SCORE.RESTR.norm>
0

>  <SCORE.SYSTEM>
0

>  <SCORE.SYSTEM.CONST>
0

>  <SCORE.SYSTEM.DIHEDRAL>
0

>  <SCORE.SYSTEM.SOLV>
0

>  <SCORE.SYSTEM.norm>
0

>  <SCORE.heavy>
27

>  <SCORE.norm>
-0.471564

>  <RMSD>
6.802

$$$$
ligand
 OpenBabel11021811473D
libRbt.so/2013.1/901 2013/11/27
 27 29  0  0  0  0  0  0  0  0999 V2000
   11.3288  -12.6074  -21.9756 N   0  0  0  0  0  0  0  0  0  0  0  0
   12.4622  -12.1344  -22.7841 C   0  0  2  0  0  0  0  0  0  0  0  0
   13.7681  -12.7347  -22.2546 C   0  0  0  0  0  0  0  0  0  0  0  0
   13.9731  -12.6496  -21.0240 O   0  0  0  0  0  0  0  0  0  0  0  0
   12.5335  -10.6093  -22.6891 C   0  0  0  0  0  0  0  0  0  0  0  0
   13.5779  -10.0227  -23.6423 C   0  0  0  0  0  0  0  0  0  0  0  0
   15.2782   -7.8822  -24.4153 C   0  0  0  0  0  0  0  0  0  0  0  0
   13.8309   -8.2101  -23.3183 Se  0  0  2  0  0  0  0  0  0  0  0  0
   14.5936   -8.0431  -21.6311 C   0  0  0  0  0  0  0  0  0  0  0  0
   13.5669   -7.9058  -20.5061 C   0  0  1  0  0  0  0  0  0  0  0  0
   14.2659   -7.9302  -19.2497 O   0  0  0  0  0  0  0  0  0  0  0  0
   12.9814   -6.4961  -20.5964 C   0  0  1  0  0  0  0  0  0  0  0  0
   11.8832   -6.3743  -19.6911 O   0  0  0  0  0  0  0  0  0  0  0  0
   14.1758   -5.7002  -20.0762 C   0  0  1  0  0  0  0  0  0  0  0  0
   13.7134   -4.4356  -19.5987 O   0  0  0  0  0  0  0  0  0  0  0  0
   14.5627   -6.5717  -18.8805 C   0  0  2  0  0  0  0  0  0  0  0  0
   14.5370  -13.2567  -23.0916 O   0  0  0  0  0  0  0  0  0  0  0  0
   19.3833   -8.3456  -19.3908 N   0  0  0  0  0  0  0  0  0  0  0  0
   18.2716   -8.7968  -19.9459 C   0  0  0  0  0  0  0  0  0  0  0  0
   17.0995   -8.2301  -19.7182 N   0  0  0  0  0  0  0  0  0  0  0  0
   17.0025   -7.1644  -18.9091 C   0  0  0  0  0  0  0  0  0  0  0  0
   18.1478   -6.6631  -18.3065 C   0  0  0  0  0  0  0  0  0  0  0  0
   19.3608   -7.2891  -18.5681 C   0  0  0  0  0  0  0  0  0  0  0  0
   20.4736   -6.8620  -17.9794 N   0  0  0  0  0  0  0  0  0  0  0  0
   17.7894   -5.6223  -17.5630 N   0  0  0  0  0  0  0  0  0  0  0  0
   16.4730   -5.4724  -17.6899 C   0  0  0  0  0  0  0  0  0  0  0  0
   15.9872   -6.4066  -18.5075 N   0  0  0  0  0  0  0  0  0  0  0  0
  2  1  1  1  0  0  0
  2  5  1  0  0  0  0
  2  3  1  0  0  0  0
  3 17  1  0  0  0  0
  3  4  1  0  0  0  0
  5  6  1  0  0  0  0
  7  8  1  0  0  0  0
  8  6  1  6  0  0  0
  8  9  1  0  0  0  0
 10  9  1  6  0  0  0
 10 11  1  0  0  0  0
 10 12  1  0  0  0  0
 11 16  1  0  0  0  0
 12 13  1  1  0  0  0
 12 14  1  0  0  0  0
 14 15  1  1  0  0  0
 14 16  1  0  0  0  0
 16 27  1  6  0  0  0
 18 23  2  0  0  0  0
 18 19  1  0  0  0  0
 19 20  2  0  0  0  0
 20 21  1  0  0  0  0
 21 22  2  0  0  0  0
 21 27  1  0  0  0  0
 22 23  1  0  0  0  0
 22 25  1  0  0  0  0
 23 24  1  0  0  0  0
 25 26  2  0  0  0  0
 26 27  1  0  0  0  0
M  END
>  <CHROM.1>
-172.81788829,-49.20444561,-171.12387227,171.99878300,-90.24388773,173.87082581
25.02069503,14.94641255,-8.32406504,-20.91355673,-2.27213862,-0.47050845
0.41923381

>  <Name>
ligand

>  <RI>
0

>  <Rbt.Current_Directory>
/home/itssahil/PROJECTS/Mol_Feturizer/New_Systems/rnas/3E5F

>  <Rbt.Executable>
rbdock ($Id: //depot/dev/client3/rdock/2013.1/src/exe/rbdock.cxx#4 $)

>  <Rbt.Library>
libRbt.so (2013.1, Build901 2013/11/27)

>  <Rbt.Parameter_File>
/export/apps/rDock/src/rDock_2013.1_src/data/scripts/dock_solv.prm

>  <Rbt.Receptor>
prm/pocket_docking_4.prm

>  <SCORE>
-17.4939

>  <SCORE.INTER>
-16.6195

>  <SCORE.INTER.CONST>
1

>  <SCORE.INTER.POLAR>
0

>  <SCORE.INTER.ROT>
7

>  <SCORE.INTER.SOLV>
10.3443

>  <SCORE.INTER.VDW>
-22.7944

>  <SCORE.INTER.norm>
-0.615538

>  <SCORE.INTRA>
-0.874369

>  <SCORE.INTRA.DIHEDRAL>
-0.626863

>  <SCORE.INTRA.DIHEDRAL.0>
4.89803

>  <SCORE.INTRA.POLAR>
0

>  <SCORE.INTRA.POLAR.0>
0

>  <SCORE.INTRA.REPUL>
0

>  <SCORE.INTRA.REPUL.0>
0

>  <SCORE.INTRA.SOLV>
0.0128635

>  <SCORE.INTRA.SOLV.lig_0>
-48.5832

>  <SCORE.INTRA.VDW>
-0.567369

>  <SCORE.INTRA.VDW.0>
-2.39056

>  <SCORE.INTRA.norm>
-0.032384

>  <SCORE.RESTR>
0

>  <SCORE.RESTR.CAVITY>
0

>  <SCORE.RESTR.norm>
0

>  <SCORE.SYSTEM>
0

>  <SCORE.SYSTEM.CONST>
0

>  <SCORE.SYSTEM.DIHEDRAL>
0

>  <SCORE.SYSTEM.SOLV>
0

>  <SCORE.SYSTEM.norm>
0

>  <SCORE.heavy>
27

>  <SCORE.norm>
-0.647922

>  <RMSD>
6.804

$$$$
ligand
 OpenBabel11021811473D
libRbt.so/2013.1/901 2013/11/27
 27 29  0  0  0  0  0  0  0  0999 V2000
   17.0284   -6.2174  -20.5540 N   0  0  0  0  0  0  0  0  0  0  0  0
   16.4845   -7.3826  -21.2668 C   0  0  2  0  0  0  0  0  0  0  0  0
   15.8643   -6.9395  -22.5955 C   0  0  0  0  0  0  0  0  0  0  0  0
   15.7627   -7.8066  -23.4907 O   0  0  0  0  0  0  0  0  0  0  0  0
   15.4054   -8.0324  -20.3989 C   0  0  0  0  0  0  0  0  0  0  0  0
   14.9166   -9.3585  -20.9871 C   0  0  0  0  0  0  0  0  0  0  0  0
   13.5474  -11.8316  -20.7049 C   0  0  0  0  0  0  0  0  0  0  0  0
   13.8171  -10.2543  -19.7857 Se  0  0  2  0  0  0  0  0  0  0  0  0
   12.1324   -9.4736  -19.8778 C   0  0  0  0  0  0  0  0  0  0  0  0
   12.0876   -8.0478  -19.3266 C   0  0  1  0  0  0  0  0  0  0  0  0
   10.7180   -7.6097  -19.3149 O   0  0  0  0  0  0  0  0  0  0  0  0
   12.4841   -8.1193  -17.8515 C   0  0  1  0  0  0  0  0  0  0  0  0
   12.6434   -6.7978  -17.3334 O   0  0  0  0  0  0  0  0  0  0  0  0
   11.2143   -8.7508  -17.2862 C   0  0  1  0  0  0  0  0  0  0  0  0
   11.1393   -8.4618  -15.8891 O   0  0  0  0  0  0  0  0  0  0  0  0
   10.1645   -7.9181  -18.0231 C   0  0  2  0  0  0  0  0  0  0  0  0
   15.5144   -5.7426  -22.6910 O   0  0  0  0  0  0  0  0  0  0  0  0
    7.7175  -12.1810  -19.5994 N   0  0  0  0  0  0  0  0  0  0  0  0
    9.0066  -11.8949  -19.6621 C   0  0  0  0  0  0  0  0  0  0  0  0
    9.4888  -10.7502  -19.2108 N   0  0  0  0  0  0  0  0  0  0  0  0
    8.6743   -9.8342  -18.6654 C   0  0  0  0  0  0  0  0  0  0  0  0
    7.3142  -10.0981  -18.5838 C   0  0  0  0  0  0  0  0  0  0  0  0
    6.8455  -11.3117  -19.0730 C   0  0  0  0  0  0  0  0  0  0  0  0
    5.5446  -11.5845  -19.0476 N   0  0  0  0  0  0  0  0  0  0  0  0
    6.7335   -9.0482  -18.0138 N   0  0  0  0  0  0  0  0  0  0  0  0
    7.6863   -8.1580  -17.7468 C   0  0  0  0  0  0  0  0  0  0  0  0
    8.8698   -8.6292  -18.1401 N   0  0  0  0  0  0  0  0  0  0  0  0
  2  1  1  1  0  0  0
  2  5  1  0  0  0  0
  2  3  1  0  0  0  0
  3 17  1  0  0  0  0
  3  4  1  0  0  0  0
  5  6  1  0  0  0  0
  7  8  1  0  0  0  0
  8  6  1  6  0  0  0
  8  9  1  0  0  0  0
 10  9  1  1  0  0  0
 10 11  1  0  0  0  0
 10 12  1  0  0  0  0
 11 16  1  0  0  0  0
 12 13  1  1  0  0  0
 12 14  1  0  0  0  0
 14 15  1  1  0  0  0
 14 16  1  0  0  0  0
 16 27  1  6  0  0  0
 18 23  2  0  0  0  0
 18 19  1  0  0  0  0
 19 20  2  0  0  0  0
 20 21  1  0  0  0  0
 21 22  2  0  0  0  0
 21 27  1  0  0  0  0
 22 23  1  0  0  0  0
 22 25  1  0  0  0  0
 23 24  1  0  0  0  0
 25 26  2  0  0  0  0
 26 27  1  0  0  0  0
M  END
>  <CHROM.1>
-172.51614971,157.14539270,170.82956158,-174.80838985,-68.53424384,-173.72894101
64.39911384,11.88378045,-9.12078966,-19.51827965,0.06617333,0.43692059,0.55102585

>  <Name>
ligand

>  <RI>
0

>  <Rbt.Current_Directory>
/home/itssahil/PROJECTS/Mol_Feturizer/New_Systems/rnas/3E5F

>  <Rbt.Executable>
rbdock ($Id: //depot/dev/client3/rdock/2013.1/src/exe/rbdock.cxx#4 $)

>  <Rbt.Library>
libRbt.so (2013.1, Build901 2013/11/27)

>  <Rbt.Parameter_File>
/export/apps/rDock/src/rDock_2013.1_src/data/scripts/dock_solv.prm

>  <Rbt.Receptor>
prm/pocket_docking_8.prm

>  <SCORE>
-15.246

>  <SCORE.INTER>
-14.1652

>  <SCORE.INTER.CONST>
1

>  <SCORE.INTER.POLAR>
0

>  <SCORE.INTER.ROT>
7

>  <SCORE.INTER.SOLV>
6.00034

>  <SCORE.INTER.VDW>
-19.7102

>  <SCORE.INTER.norm>
-0.524637

>  <SCORE.INTRA>
-1.0808

>  <SCORE.INTRA.DIHEDRAL>
-1.02429

>  <SCORE.INTRA.DIHEDRAL.0>
4.89803

>  <SCORE.INTRA.POLAR>
0

>  <SCORE.INTRA.POLAR.0>
0

>  <SCORE.INTRA.REPUL>
0

>  <SCORE.INTRA.REPUL.0>
0

>  <SCORE.INTRA.SOLV>
0.0264741

>  <SCORE.INTRA.SOLV.lig_0>
-48.5832

>  <SCORE.INTRA.VDW>
-0.581892

>  <SCORE.INTRA.VDW.0>
-2.39056

>  <SCORE.INTRA.norm>
-0.0400295

>  <SCORE.RESTR>
0

>  <SCORE.RESTR.CAVITY>
0

>  <SCORE.RESTR.norm>
0

>  <SCORE.SYSTEM>
0

>  <SCORE.SYSTEM.CONST>
0

>  <SCORE.SYSTEM.DIHEDRAL>
0

>  <SCORE.SYSTEM.SOLV>
0

>  <SCORE.SYSTEM.norm>
0

>  <SCORE.heavy>
27

>  <SCORE.norm>
-0.564666

>  <RMSD>
6.805

$$$$
ligand
 OpenBabel11021811473D
libRbt.so/2013.1/901 2013/11/27
 27 29  0  0  0  0  0  0  0  0999 V2000
    7.5210  -14.4229  -22.5763 N   0  0  0  0  0  0  0  0  0  0  0  0
    8.1163  -14.5311  -21.2362 C   0  0  2  0  0  0  0  0  0  0  0  0
    7.0891  -14.1271  -20.1742 C   0  0  0  0  0  0  0  0  0  0  0  0
    6.4298  -13.0868  -20.3900 O   0  0  0  0  0  0  0  0  0  0  0  0
    9.3215  -13.5927  -21.1544 C   0  0  0  0  0  0  0  0  0  0  0  0
   10.0398  -13.6965  -19.8066 C   0  0  0  0  0  0  0  0  0  0  0  0
   10.2456  -10.8633  -19.8429 C   0  0  0  0  0  0  0  0  0  0  0  0
   11.3121  -12.3536  -19.6255 Se  0  0  2  0  0  0  0  0  0  0  0  0
   12.3216  -12.3233  -21.1863 C   0  0  0  0  0  0  0  0  0  0  0  0
   11.5378  -11.8555  -22.4132 C   0  0  1  0  0  0  0  0  0  0  0  0
   11.5733  -10.4185  -22.4523 O   0  0  0  0  0  0  0  0  0  0  0  0
   12.3240  -12.2961  -23.6486 C   0  0  1  0  0  0  0  0  0  0  0  0
   11.5474  -12.0536  -24.8227 O   0  0  0  0  0  0  0  0  0  0  0  0
   13.4787  -11.3003  -23.5730 C   0  0  1  0  0  0  0  0  0  0  0  0
   14.0673  -11.1791  -24.8691 O   0  0  0  0  0  0  0  0  0  0  0  0
   12.6959  -10.0241  -23.2612 C   0  0  2  0  0  0  0  0  0  0  0  0
    6.9918  -14.8608  -19.1659 O   0  0  0  0  0  0  0  0  0  0  0  0
   16.1568   -6.2302  -23.7835 N   0  0  0  0  0  0  0  0  0  0  0  0
   15.5819   -6.9619  -24.7224 C   0  0  0  0  0  0  0  0  0  0  0  0
   14.7042   -7.9057  -24.4303 N   0  0  0  0  0  0  0  0  0  0  0  0
   14.3637   -8.1501  -23.1558 C   0  0  0  0  0  0  0  0  0  0  0  0
   14.9476   -7.4034  -22.1421 C   0  0  0  0  0  0  0  0  0  0  0  0
   15.8690   -6.4226  -22.4899 C   0  0  0  0  0  0  0  0  0  0  0  0
   16.4781   -5.7133  -21.5448 N   0  0  0  0  0  0  0  0  0  0  0  0
   14.4517   -7.8341  -20.9875 N   0  0  0  0  0  0  0  0  0  0  0  0
   13.5910   -8.8121  -21.2599 C   0  0  0  0  0  0  0  0  0  0  0  0
   13.5318   -9.0099  -22.5770 N   0  0  0  0  0  0  0  0  0  0  0  0
  2  1  1  6  0  0  0
  2  5  1  0  0  0  0
  2  3  1  0  0  0  0
  3 17  1  0  0  0  0
  3  4  1  0  0  0  0
  5  6  1  0  0  0  0
  7  8  1  0  0  0  0
  8  6  1  6  0  0  0
  8  9  1  0  0  0  0
 10  9  1  1  0  0  0
 10 11  1  0  0  0  0
 10 12  1  0  0  0  0
 11 16  1  0  0  0  0
 12 13  1  6  0  0  0
 12 14  1  0  0  0  0
 14 15  1  6  0  0  0
 14 16  1  0  0  0  0
 16 27  1  1  0  0  0
 18 23  2  0  0  0  0
 18 19  1  0  0  0  0
 19 20  2  0  0  0  0
 20 21  1  0  0  0  0
 21 22  2  0  0  0  0
 21 27  1  0  0  0  0
 22 23  1  0  0  0  0
 22 25  1  0  0  0  0
 23 24  1  0  0  0  0
 25 26  2  0  0  0  0
 26 27  1  0  0  0  0
M  END
>  <CHROM.1>
-177.27788704,-45.56243443,-170.41378765,57.57562944,67.90314502,85.14737650
-157.71835013,11.88508109,-10.97768068,-21.73702631,2.99608983,0.78683471
1.36022028

>  <Name>
ligand

>  <RI>
0

>  <Rbt.Current_Directory>
/home/itssahil/PROJECTS/Mol_Feturizer/New_Systems/rnas/3E5F

>  <Rbt.Executable>
rbdock ($Id: //depot/dev/client3/rdock/2013.1/src/exe/rbdock.cxx#4 $)

>  <Rbt.Library>
libRbt.so (2013.1, Build901 2013/11/27)

>  <Rbt.Parameter_File>
/export/apps/rDock/src/rDock_2013.1_src/data/scripts/dock_solv.prm

>  <Rbt.Receptor>
prm/blind_docking_60.prm

>  <SCORE>
-13.0979

>  <SCORE.INTER>
-15.3347

>  <SCORE.INTER.CONST>
1

>  <SCORE.INTER.POLAR>
0

>  <SCORE.INTER.ROT>
7

>  <SCORE.INTER.SOLV>
9.90806

>  <SCORE.INTER.VDW>
-21.7925

>  <SCORE.INTER.norm>
-0.567951

>  <SCORE.INTRA>
2.23232

>  <SCORE.INTRA.DIHEDRAL>
0.686083

>  <SCORE.INTRA.DIHEDRAL.0>
4.89803

>  <SCORE.INTRA.POLAR>
0

>  <SCORE.INTRA.POLAR.0>
0

>  <SCORE.INTRA.REPUL>
0

>  <SCORE.INTRA.REPUL.0>
0

>  <SCORE.INTRA.SOLV>
0.230105

>  <SCORE.INTRA.SOLV.lig_0>
-48.5832

>  <SCORE.INTRA.VDW>
1.77423

>  <SCORE.INTRA.VDW.0>
-2.39056

>  <SCORE.INTRA.norm>
0.0826787

>  <SCORE.RESTR>
0.00447224

>  <SCORE.RESTR.CAVITY>
0.00447224

>  <SCORE.RESTR.norm>
0.000165639

>  <SCORE.SYSTEM>
0

>  <SCORE.SYSTEM.CONST>
0

>  <SCORE.SYSTEM.DIHEDRAL>
0

>  <SCORE.SYSTEM.SOLV>
0

>  <SCORE.SYSTEM.norm>
0

>  <SCORE.heavy>
27

>  <SCORE.norm>
-0.485106

>  <RMSD>
6.809

$$$$
ligand
 OpenBabel11021811473D
libRbt.so/2013.1/901 2013/11/27
 27 29  0  0  0  0  0  0  0  0999 V2000
   16.0861   -6.7779  -22.9867 N   0  0  0  0  0  0  0  0  0  0  0  0
   14.9803   -7.5134  -22.3558 C   0  0  2  0  0  0  0  0  0  0  0  0
   15.3911   -7.9721  -20.9532 C   0  0  0  0  0  0  0  0  0  0  0  0
   16.3531   -8.7672  -20.8759 O   0  0  0  0  0  0  0  0  0  0  0  0
   14.6516   -8.7386  -23.2106 C   0  0  0  0  0  0  0  0  0  0  0  0
   13.3923   -9.4588  -22.7218 C   0  0  0  0  0  0  0  0  0  0  0  0
   13.4166  -11.7550  -21.0493 C   0  0  0  0  0  0  0  0  0  0  0  0
   13.5426   -9.9180  -20.9271 Se  0  0  2  0  0  0  0  0  0  0  0  0
   11.9341   -9.4858  -20.1011 C   0  0  0  0  0  0  0  0  0  0  0  0
   11.9906   -8.1898  -19.2913 C   0  0  1  0  0  0  0  0  0  0  0  0
   10.6487   -7.7004  -19.1257 O   0  0  0  0  0  0  0  0  0  0  0  0
   12.4461   -8.5574  -17.8787 C   0  0  1  0  0  0  0  0  0  0  0  0
   12.6993   -7.3666  -17.1315 O   0  0  0  0  0  0  0  0  0  0  0  0
   11.1696   -9.2265  -17.3753 C   0  0  1  0  0  0  0  0  0  0  0  0
   11.1709   -9.2043  -15.9468 O   0  0  0  0  0  0  0  0  0  0  0  0
   10.1357   -8.2226  -17.8871 C   0  0  2  0  0  0  0  0  0  0  0  0
   14.7294   -7.5261  -19.9902 O   0  0  0  0  0  0  0  0  0  0  0  0
    7.4586  -12.2560  -19.6786 N   0  0  0  0  0  0  0  0  0  0  0  0
    8.7654  -12.0570  -19.6932 C   0  0  0  0  0  0  0  0  0  0  0  0
    9.3090  -10.9628  -19.1892 N   0  0  0  0  0  0  0  0  0  0  0  0
    8.5410  -10.0109  -18.6379 C   0  0  0  0  0  0  0  0  0  0  0  0
    7.1644  -10.1836  -18.6058 C   0  0  0  0  0  0  0  0  0  0  0  0
    6.6308  -11.3462  -19.1494 C   0  0  0  0  0  0  0  0  0  0  0  0
    5.3144  -11.5299  -19.1721 N   0  0  0  0  0  0  0  0  0  0  0  0
    6.6378   -9.1150  -18.0182 N   0  0  0  0  0  0  0  0  0  0  0  0
    7.6393   -8.3010  -17.6930 C   0  0  0  0  0  0  0  0  0  0  0  0
    8.8004   -8.8393  -18.0665 N   0  0  0  0  0  0  0  0  0  0  0  0
  2  1  1  6  0  0  0
  2  5  1  0  0  0  0
  2  3  1  0  0  0  0
  3 17  1  0  0  0  0
  3  4  1  0  0  0  0
  5  6  1  0  0  0  0
  7  8  1  0  0  0  0
  8  6  1  6  0  0  0
  8  9  1  0  0  0  0
 10  9  1  6  0  0  0
 10 11  1  0  0  0  0
 10 12  1  0  0  0  0
 11 16  1  0  0  0  0
 12 13  1  1  0  0  0
 12 14  1  0  0  0  0
 14 15  1  1  0  0  0
 14 16  1  0  0  0  0
 16 27  1  6  0  0  0
 18 23  2  0  0  0  0
 18 19  1  0  0  0  0
 19 20  2  0  0  0  0
 20 21  1  0  0  0  0
 21 22  2  0  0  0  0
 21 27  1  0  0  0  0
 22 23  1  0  0  0  0
 22 25  1  0  0  0  0
 23 24  1  0  0  0  0
 25 26  2  0  0  0  0
 26 27  1  0  0  0  0
M  END
>  <CHROM.1>
-172.56273983,-62.37054882,-55.23895473,-118.61698168,-102.17176661,158.93951942
74.51755182,11.60133489,-9.35898017,-19.75107360,0.17156549,-0.41577065,-2.22610908

>  <Name>
ligand

>  <RI>
0

>  <Rbt.Current_Directory>
/home/itssahil/PROJECTS/Mol_Feturizer/New_Systems/rnas/3E5F

>  <Rbt.Executable>
rbdock ($Id: //depot/dev/client3/rdock/2013.1/src/exe/rbdock.cxx#4 $)

>  <Rbt.Library>
libRbt.so (2013.1, Build901 2013/11/27)

>  <Rbt.Parameter_File>
/export/apps/rDock/src/rDock_2013.1_src/data/scripts/dock_solv.prm

>  <Rbt.Receptor>
prm/pocket_docking_8.prm

>  <SCORE>
-13.9031

>  <SCORE.INTER>
-13.6327

>  <SCORE.INTER.CONST>
1

>  <SCORE.INTER.POLAR>
0

>  <SCORE.INTER.ROT>
7

>  <SCORE.INTER.SOLV>
10.1251

>  <SCORE.INTER.VDW>
-20.7302

>  <SCORE.INTER.norm>
-0.504914

>  <SCORE.INTRA>
-0.270418

>  <SCORE.INTRA.DIHEDRAL>
3.16841

>  <SCORE.INTRA.DIHEDRAL.0>
4.89803

>  <SCORE.INTRA.POLAR>
0

>  <SCORE.INTRA.POLAR.0>
0

>  <SCORE.INTRA.REPUL>
0

>  <SCORE.INTRA.REPUL.0>
0

>  <SCORE.INTRA.SOLV>
0.049428

>  <SCORE.INTRA.SOLV.lig_0>
-48.5832

>  <SCORE.INTRA.VDW>
-1.87934

>  <SCORE.INTRA.VDW.0>
-2.39056

>  <SCORE.INTRA.norm>
-0.0100155

>  <SCORE.RESTR>
0

>  <SCORE.RESTR.CAVITY>
0

>  <SCORE.RESTR.norm>
0

>  <SCORE.SYSTEM>
0

>  <SCORE.SYSTEM.CONST>
0

>  <SCORE.SYSTEM.DIHEDRAL>
0

>  <SCORE.SYSTEM.SOLV>
0

>  <SCORE.SYSTEM.norm>
0

>  <SCORE.heavy>
27

>  <SCORE.norm>
-0.51493

>  <RMSD>
6.813

$$$$
ligand
 OpenBabel11021811473D
libRbt.so/2013.1/901 2013/11/27
 27 29  0  0  0  0  0  0  0  0999 V2000
    7.0224  -15.9564  -20.3991 N   0  0  0  0  0  0  0  0  0  0  0  0
    7.3550  -14.5969  -20.8496 C   0  0  2  0  0  0  0  0  0  0  0  0
    8.2439  -14.6623  -22.0953 C   0  0  0  0  0  0  0  0  0  0  0  0
    7.9123  -13.9477  -23.0664 O   0  0  0  0  0  0  0  0  0  0  0  0
    8.1085  -13.8767  -19.7300 C   0  0  0  0  0  0  0  0  0  0  0  0
    8.1397  -12.3608  -19.9415 C   0  0  0  0  0  0  0  0  0  0  0  0
    8.7729  -10.3233  -18.0659 C   0  0  0  0  0  0  0  0  0  0  0  0
    9.6122  -11.6016  -19.0988 Se  0  0  2  0  0  0  0  0  0  0  0  0
   10.4954  -10.5505  -20.3523 C   0  0  0  0  0  0  0  0  0  0  0  0
   10.5403  -11.1713  -21.7492 C   0  0  1  0  0  0  0  0  0  0  0  0
   11.2475  -10.2732  -22.6214 O   0  0  0  0  0  0  0  0  0  0  0  0
   11.4308  -12.4116  -21.6656 C   0  0  1  0  0  0  0  0  0  0  0  0
   11.3576  -13.1379  -22.8934 O   0  0  0  0  0  0  0  0  0  0  0  0
   12.7912  -11.7295  -21.5443 C   0  0  1  0  0  0  0  0  0  0  0  0
   13.8053  -12.6498  -21.9514 O   0  0  0  0  0  0  0  0  0  0  0  0
   12.6350  -10.6541  -22.6202 C   0  0  2  0  0  0  0  0  0  0  0  0
    9.2292  -15.4315  -22.0537 O   0  0  0  0  0  0  0  0  0  0  0  0
   15.9439   -7.2604  -24.6644 N   0  0  0  0  0  0  0  0  0  0  0  0
   15.2853   -8.2381  -25.2624 C   0  0  0  0  0  0  0  0  0  0  0  0
   14.4630   -9.0319  -24.5988 N   0  0  0  0  0  0  0  0  0  0  0  0
   14.2673   -8.8646  -23.2821 C   0  0  0  0  0  0  0  0  0  0  0  0
   14.9427   -7.8496  -22.6191 C   0  0  0  0  0  0  0  0  0  0  0  0
   15.8015   -7.0385  -23.3515 C   0  0  0  0  0  0  0  0  0  0  0  0
   16.4953   -6.0806  -22.7445 N   0  0  0  0  0  0  0  0  0  0  0  0
   14.5832   -7.8941  -21.3412 N   0  0  0  0  0  0  0  0  0  0  0  0
   13.7174   -8.8954  -21.2021 C   0  0  0  0  0  0  0  0  0  0  0  0
   13.5199   -9.4904  -22.3787 N   0  0  0  0  0  0  0  0  0  0  0  0
  2  1  1  1  0  0  0
  2  5  1  0  0  0  0
  2  3  1  0  0  0  0
  3 17  1  0  0  0  0
  3  4  1  0  0  0  0
  5  6  1  0  0  0  0
  7  8  1  0  0  0  0
  8  6  1  6  0  0  0
  8  9  1  0  0  0  0
 10  9  1  1  0  0  0
 10 11  1  0  0  0  0
 10 12  1  0  0  0  0
 11 16  1  0  0  0  0
 12 13  1  6  0  0  0
 12 14  1  0  0  0  0
 14 15  1  6  0  0  0
 14 16  1  0  0  0  0
 16 27  1  1  0  0  0
 18 23  2  0  0  0  0
 18 19  1  0  0  0  0
 19 20  2  0  0  0  0
 20 21  1  0  0  0  0
 21 22  2  0  0  0  0
 21 27  1  0  0  0  0
 22 23  1  0  0  0  0
 22 25  1  0  0  0  0
 23 24  1  0  0  0  0
 25 26  2  0  0  0  0
 26 27  1  0  0  0  0
M  END
>  <CHROM.1>
-163.55306256,131.18779492,-154.32415354,-125.68919498,-39.16667527,-179.80842436
-105.36843876,11.37174610,-11.13794733,-21.48887105,-2.99340780,0.74403457
0.87266527

>  <Name>
ligand

>  <RI>
0

>  <Rbt.Current_Directory>
/home/itssahil/PROJECTS/Mol_Feturizer/New_Systems/rnas/3E5F

>  <Rbt.Executable>
rbdock ($Id: //depot/dev/client3/rdock/2013.1/src/exe/rbdock.cxx#4 $)

>  <Rbt.Library>
libRbt.so (2013.1, Build901 2013/11/27)

>  <Rbt.Parameter_File>
/export/apps/rDock/src/rDock_2013.1_src/data/scripts/dock_solv.prm

>  <Rbt.Receptor>
prm/blind_docking_40.prm

>  <SCORE>
-14.2199

>  <SCORE.INTER>
-15.668

>  <SCORE.INTER.CONST>
1

>  <SCORE.INTER.POLAR>
0

>  <SCORE.INTER.ROT>
7

>  <SCORE.INTER.SOLV>
13.9731

>  <SCORE.INTER.VDW>
-23.3697

>  <SCORE.INTER.norm>
-0.580296

>  <SCORE.INTRA>
1.44807

>  <SCORE.INTRA.DIHEDRAL>
4.50091

>  <SCORE.INTRA.DIHEDRAL.0>
4.89803

>  <SCORE.INTRA.POLAR>
0

>  <SCORE.INTRA.POLAR.0>
0

>  <SCORE.INTRA.REPUL>
0

>  <SCORE.INTRA.REPUL.0>
0

>  <SCORE.INTRA.SOLV>
0.141946

>  <SCORE.INTRA.SOLV.lig_0>
-48.5832

>  <SCORE.INTRA.VDW>
-0.873356

>  <SCORE.INTRA.VDW.0>
-2.39056

>  <SCORE.INTRA.norm>
0.0536323

>  <SCORE.RESTR>
0

>  <SCORE.RESTR.CAVITY>
0

>  <SCORE.RESTR.norm>
0

>  <SCORE.SYSTEM>
0

>  <SCORE.SYSTEM.CONST>
0

>  <SCORE.SYSTEM.DIHEDRAL>
0

>  <SCORE.SYSTEM.SOLV>
0

>  <SCORE.SYSTEM.norm>
0

>  <SCORE.heavy>
27

>  <SCORE.norm>
-0.526663

>  <RMSD>
6.815

$$$$
ligand
 OpenBabel11021811473D
libRbt.so/2013.1/901 2013/11/27
 27 29  0  0  0  0  0  0  0  0999 V2000
   10.4953   -8.6289  -17.4533 N   0  0  0  0  0  0  0  0  0  0  0  0
   10.5844   -9.2735  -18.7717 C   0  0  2  0  0  0  0  0  0  0  0  0
    9.4265  -10.2603  -18.9500 C   0  0  0  0  0  0  0  0  0  0  0  0
    9.1909  -10.6537  -20.1133 O   0  0  0  0  0  0  0  0  0  0  0  0
   11.9104  -10.0307  -18.8622 C   0  0  0  0  0  0  0  0  0  0  0  0
   13.1155   -9.0979  -18.7172 C   0  0  0  0  0  0  0  0  0  0  0  0
   13.6723   -9.0724  -21.5028 C   0  0  0  0  0  0  0  0  0  0  0  0
   13.2138   -7.9109  -20.1441 Se  0  0  2  0  0  0  0  0  0  0  0  0
   14.7786   -6.9266  -19.9479 C   0  0  0  0  0  0  0  0  0  0  0  0
   14.5600   -5.5472  -19.3248 C   0  0  1  0  0  0  0  0  0  0  0  0
   15.8461   -4.9620  -19.0577 O   0  0  0  0  0  0  0  0  0  0  0  0
   13.9447   -4.6548  -20.4033 C   0  0  1  0  0  0  0  0  0  0  0  0
   13.5442   -3.4114  -19.8256 O   0  0  0  0  0  0  0  0  0  0  0  0
   15.1755   -4.4481  -21.2826 C   0  0  1  0  0  0  0  0  0  0  0  0
   14.9904   -3.2655  -22.0626 O   0  0  0  0  0  0  0  0  0  0  0  0
   16.2197   -4.1713  -20.2002 C   0  0  2  0  0  0  0  0  0  0  0  0
    8.7963  -10.5925  -17.9220 O   0  0  0  0  0  0  0  0  0  0  0  0
   20.6601   -6.5845  -19.1498 N   0  0  0  0  0  0  0  0  0  0  0  0
   19.5511   -6.5409  -18.4316 C   0  0  0  0  0  0  0  0  0  0  0  0
   18.4840   -5.8754  -18.8377 N   0  0  0  0  0  0  0  0  0  0  0  0
   18.4935   -5.2187  -20.0075 C   0  0  0  0  0  0  0  0  0  0  0  0
   19.6405   -5.2401  -20.7886 C   0  0  0  0  0  0  0  0  0  0  0  0
   20.7432   -5.9479  -20.3251 C   0  0  0  0  0  0  0  0  0  0  0  0
   21.8724   -5.9597  -21.0265 N   0  0  0  0  0  0  0  0  0  0  0  0
   19.3980   -4.5234  -21.8804 N   0  0  0  0  0  0  0  0  0  0  0  0
   18.1504   -4.0679  -21.7930 C   0  0  0  0  0  0  0  0  0  0  0  0
   17.5936   -4.4870  -20.6565 N   0  0  0  0  0  0  0  0  0  0  0  0
  2  1  1  1  0  0  0
  2  5  1  0  0  0  0
  2  3  1  0  0  0  0
  3 17  1  0  0  0  0
  3  4  1  0  0  0  0
  5  6  1  0  0  0  0
  7  8  1  0  0  0  0
  8  6  1  1  0  0  0
  8  9  1  0  0  0  0
 10  9  1  6  0  0  0
 10 11  1  0  0  0  0
 10 12  1  0  0  0  0
 11 16  1  0  0  0  0
 12 13  1  1  0  0  0
 12 14  1  0  0  0  0
 14 15  1  6  0  0  0
 14 16  1  0  0  0  0
 16 27  1  6  0  0  0
 18 23  2  0  0  0  0
 18 19  1  0  0  0  0
 19 20  2  0  0  0  0
 20 21  1  0  0  0  0
 21 22  2  0  0  0  0
 21 27  1  0  0  0  0
 22 23  1  0  0  0  0
 22 25  1  0  0  0  0
 23 24  1  0  0  0  0
 25 26  2  0  0  0  0
 26 27  1  0  0  0  0
M  END
>  <CHROM.1>
-60.99541727,164.18550978,-65.47649604,-69.57104983,-98.88364351,172.25919263
-11.08212046,14.90081637,-6.79486872,-19.93678847,-2.64489533,-0.02168380
-0.33835652

>  <Name>
ligand

>  <RI>
0

>  <Rbt.Current_Directory>
/home/itssahil/PROJECTS/Mol_Feturizer/New_Systems/rnas/3E5F

>  <Rbt.Executable>
rbdock ($Id: //depot/dev/client3/rdock/2013.1/src/exe/rbdock.cxx#4 $)

>  <Rbt.Library>
libRbt.so (2013.1, Build901 2013/11/27)

>  <Rbt.Parameter_File>
/export/apps/rDock/src/rDock_2013.1_src/data/scripts/dock_solv.prm

>  <Rbt.Receptor>
prm/pocket_docking_6.prm

>  <SCORE>
-10.9118

>  <SCORE.INTER>
-11.3829

>  <SCORE.INTER.CONST>
1

>  <SCORE.INTER.POLAR>
0

>  <SCORE.INTER.ROT>
7

>  <SCORE.INTER.SOLV>
7.76688

>  <SCORE.INTER.VDW>
-18.4442

>  <SCORE.INTER.norm>
-0.42159

>  <SCORE.INTRA>
0.471089

>  <SCORE.INTRA.DIHEDRAL>
-0.456695

>  <SCORE.INTRA.DIHEDRAL.0>
4.89803

>  <SCORE.INTRA.POLAR>
0

>  <SCORE.INTRA.POLAR.0>
0

>  <SCORE.INTRA.REPUL>
0

>  <SCORE.INTRA.REPUL.0>
0

>  <SCORE.INTRA.SOLV>
0.827858

>  <SCORE.INTRA.SOLV.lig_0>
-48.5832

>  <SCORE.INTRA.VDW>
0.285508

>  <SCORE.INTRA.VDW.0>
-2.39056

>  <SCORE.INTRA.norm>
0.0174478

>  <SCORE.RESTR>
0

>  <SCORE.RESTR.CAVITY>
0

>  <SCORE.RESTR.norm>
0

>  <SCORE.SYSTEM>
0

>  <SCORE.SYSTEM.CONST>
0

>  <SCORE.SYSTEM.DIHEDRAL>
0

>  <SCORE.SYSTEM.SOLV>
0

>  <SCORE.SYSTEM.norm>
0

>  <SCORE.heavy>
27

>  <SCORE.norm>
-0.404142

>  <RMSD>
6.822

$$$$
ligand
 OpenBabel11021811473D
libRbt.so/2013.1/901 2013/11/27
 27 29  0  0  0  0  0  0  0  0999 V2000
   16.0155   -6.5379  -22.4599 N   0  0  0  0  0  0  0  0  0  0  0  0
   15.7829   -7.7925  -23.1904 C   0  0  2  0  0  0  0  0  0  0  0  0
   15.0656   -7.5020  -24.5122 C   0  0  0  0  0  0  0  0  0  0  0  0
   14.4348   -8.4470  -25.0345 O   0  0  0  0  0  0  0  0  0  0  0  0
   14.9076   -8.7079  -22.3325 C   0  0  0  0  0  0  0  0  0  0  0  0
   13.7016   -7.9675  -21.7489 C   0  0  0  0  0  0  0  0  0  0  0  0
   11.7774   -8.0245  -19.6597 C   0  0  0  0  0  0  0  0  0  0  0  0
   12.5376   -9.1490  -20.9099 Se  0  0  2  0  0  0  0  0  0  0  0  0
   13.5569  -10.2715  -19.8342 C   0  0  0  0  0  0  0  0  0  0  0  0
   13.6474  -11.7053  -20.3583 C   0  0  1  0  0  0  0  0  0  0  0  0
   12.5011  -12.4335  -19.8855 O   0  0  0  0  0  0  0  0  0  0  0  0
   13.4694  -11.6454  -21.8759 C   0  0  1  0  0  0  0  0  0  0  0  0
   13.7329  -12.9308  -22.4405 O   0  0  0  0  0  0  0  0  0  0  0  0
   11.9734  -11.3469  -21.9361 C   0  0  1  0  0  0  0  0  0  0  0  0
   11.4777  -11.7365  -23.2182 O   0  0  0  0  0  0  0  0  0  0  0  0
   11.4719  -12.3397  -20.8866 C   0  0  2  0  0  0  0  0  0  0  0  0
   15.1710   -6.3455  -24.9767 O   0  0  0  0  0  0  0  0  0  0  0  0
    7.2118  -13.8134  -18.3718 N   0  0  0  0  0  0  0  0  0  0  0  0
    8.2492  -14.5440  -18.7425 C   0  0  0  0  0  0  0  0  0  0  0  0
    9.2774  -14.0183  -19.3852 N   0  0  0  0  0  0  0  0  0  0  0  0
    9.3005  -12.7100  -19.6813 C   0  0  0  0  0  0  0  0  0  0  0  0
    8.2284  -11.9109  -19.3099 C   0  0  0  0  0  0  0  0  0  0  0  0
    7.1643  -12.5020  -18.6388 C   0  0  0  0  0  0  0  0  0  0  0  0
    6.1024  -11.7772  -18.3009 N   0  0  0  0  0  0  0  0  0  0  0  0
    8.4895  -10.6728  -19.7140 N   0  0  0  0  0  0  0  0  0  0  0  0
    9.6764  -10.6887  -20.3160 C   0  0  0  0  0  0  0  0  0  0  0  0
   10.1763  -11.9245  -20.2997 N   0  0  0  0  0  0  0  0  0  0  0  0
  2  1  1  1  0  0  0
  2  5  1  0  0  0  0
  2  3  1  0  0  0  0
  3 17  1  0  0  0  0
  3  4  1  0  0  0  0
  5  6  1  0  0  0  0
  7  8  1  0  0  0  0
  8  6  1  6  0  0  0
  8  9  1  0  0  0  0
 10  9  1  1  0  0  0
 10 11  1  0  0  0  0
 10 12  1  0  0  0  0
 11 16  1  0  0  0  0
 12 13  1  6  0  0  0
 12 14  1  0  0  0  0
 14 15  1  6  0  0  0
 14 16  1  0  0  0  0
 16 27  1  1  0  0  0
 18 23  2  0  0  0  0
 18 19  1  0  0  0  0
 19 20  2  0  0  0  0
 20 21  1  0  0  0  0
 21 22  2  0  0  0  0
 21 27  1  0  0  0  0
 22 23  1  0  0  0  0
 22 25  1  0  0  0  0
 23 24  1  0  0  0  0
 25 26  2  0  0  0  0
 26 27  1  0  0  0  0
M  END
>  <CHROM.1>
46.98707179,-158.12106915,172.21742829,152.39148365,-108.93899917,-85.57203643
-81.54277570,11.87891637,-10.44439811,-21.07887264,0.53304973,0.59275044
0.06175720

>  <Name>
ligand

>  <RI>
0

>  <Rbt.Current_Directory>
/home/itssahil/PROJECTS/Mol_Feturizer/New_Systems/rnas/3E5F

>  <Rbt.Executable>
rbdock ($Id: //depot/dev/client3/rdock/2013.1/src/exe/rbdock.cxx#4 $)

>  <Rbt.Library>
libRbt.so (2013.1, Build901 2013/11/27)

>  <Rbt.Parameter_File>
/export/apps/rDock/src/rDock_2013.1_src/data/scripts/dock_solv.prm

>  <Rbt.Receptor>
prm/blind_docking_40.prm

>  <SCORE>
-16.2832

>  <SCORE.INTER>
-19.4629

>  <SCORE.INTER.CONST>
1

>  <SCORE.INTER.POLAR>
0

>  <SCORE.INTER.ROT>
7

>  <SCORE.INTER.SOLV>
9.59835

>  <SCORE.INTER.VDW>
-24.4414

>  <SCORE.INTER.norm>
-0.72085

>  <SCORE.INTRA>
3.17974

>  <SCORE.INTRA.DIHEDRAL>
3.13471

>  <SCORE.INTRA.DIHEDRAL.0>
4.89803

>  <SCORE.INTRA.POLAR>
0

>  <SCORE.INTRA.POLAR.0>
0

>  <SCORE.INTRA.REPUL>
0

>  <SCORE.INTRA.REPUL.0>
0

>  <SCORE.INTRA.SOLV>
0.986854

>  <SCORE.INTRA.SOLV.lig_0>
-48.5832

>  <SCORE.INTRA.VDW>
1.11895

>  <SCORE.INTRA.VDW.0>
-2.39056

>  <SCORE.INTRA.norm>
0.117768

>  <SCORE.RESTR>
0

>  <SCORE.RESTR.CAVITY>
0

>  <SCORE.RESTR.norm>
0

>  <SCORE.SYSTEM>
0

>  <SCORE.SYSTEM.CONST>
0

>  <SCORE.SYSTEM.DIHEDRAL>
0

>  <SCORE.SYSTEM.SOLV>
0

>  <SCORE.SYSTEM.norm>
0

>  <SCORE.heavy>
27

>  <SCORE.norm>
-0.603082

>  <RMSD>
6.825

$$$$
ligand
 OpenBabel11021811473D
libRbt.so/2013.1/901 2013/11/27
 27 29  0  0  0  0  0  0  0  0999 V2000
    8.0219  -13.1603  -18.5142 N   0  0  0  0  0  0  0  0  0  0  0  0
    8.1521  -13.3554  -19.9657 C   0  0  2  0  0  0  0  0  0  0  0  0
    7.1016  -14.3574  -20.4543 C   0  0  0  0  0  0  0  0  0  0  0  0
    6.6464  -14.1852  -21.6061 O   0  0  0  0  0  0  0  0  0  0  0  0
    9.5486  -13.9023  -20.2667 C   0  0  0  0  0  0  0  0  0  0  0  0
    9.8209  -13.9856  -21.7708 C   0  0  0  0  0  0  0  0  0  0  0  0
    9.4881  -12.6600  -24.2613 C   0  0  0  0  0  0  0  0  0  0  0  0
    9.9612  -12.2889  -22.5166 Se  0  0  2  0  0  0  0  0  0  0  0  0
   11.7709  -11.9017  -22.6929 C   0  0  0  0  0  0  0  0  0  0  0  0
   12.6233  -12.4184  -21.5331 C   0  0  1  0  0  0  0  0  0  0  0  0
   13.9523  -11.8884  -21.6766 O   0  0  0  0  0  0  0  0  0  0  0  0
   12.0858  -11.7756  -20.2540 C   0  0  1  0  0  0  0  0  0  0  0  0
   12.7198  -12.3657  -19.1181 O   0  0  0  0  0  0  0  0  0  0  0  0
   12.6019  -10.3534  -20.4582 C   0  0  1  0  0  0  0  0  0  0  0  0
   12.6630   -9.6994  -19.1894 O   0  0  0  0  0  0  0  0  0  0  0  0
   14.0244  -10.6624  -20.9271 C   0  0  2  0  0  0  0  0  0  0  0  0
    6.7694  -15.2675  -19.6632 O   0  0  0  0  0  0  0  0  0  0  0  0
   14.1897   -8.3369  -25.5325 N   0  0  0  0  0  0  0  0  0  0  0  0
   13.4796   -9.3880  -25.1605 C   0  0  0  0  0  0  0  0  0  0  0  0
   13.5430   -9.8721  -23.9324 N   0  0  0  0  0  0  0  0  0  0  0  0
   14.3376   -9.3018  -23.0141 C   0  0  0  0  0  0  0  0  0  0  0  0
   15.0997   -8.1973  -23.3680 C   0  0  0  0  0  0  0  0  0  0  0  0
   15.0083   -7.7204  -24.6703 C   0  0  0  0  0  0  0  0  0  0  0  0
   15.7516   -6.6886  -25.0576 N   0  0  0  0  0  0  0  0  0  0  0  0
   15.7923   -7.8257  -22.2971 N   0  0  0  0  0  0  0  0  0  0  0  0
   15.4813   -8.6604  -21.3082 C   0  0  0  0  0  0  0  0  0  0  0  0
   14.5966   -9.5610  -21.7366 N   0  0  0  0  0  0  0  0  0  0  0  0
  2  1  1  1  0  0  0
  2  5  1  0  0  0  0
  2  3  1  0  0  0  0
  3 17  1  0  0  0  0
  3  4  1  0  0  0  0
  5  6  1  0  0  0  0
  7  8  1  0  0  0  0
  8  6  1  1  0  0  0
  8  9  1  0  0  0  0
 10  9  1  6  0  0  0
 10 11  1  0  0  0  0
 10 12  1  0  0  0  0
 11 16  1  0  0  0  0
 12 13  1  1  0  0  0
 12 14  1  0  0  0  0
 14 15  1  1  0  0  0
 14 16  1  0  0  0  0
 16 27  1  6  0  0  0
 18 23  2  0  0  0  0
 18 19  1  0  0  0  0
 19 20  2  0  0  0  0
 20 21  1  0  0  0  0
 21 22  2  0  0  0  0
 21 27  1  0  0  0  0
 22 23  1  0  0  0  0
 22 25  1  0  0  0  0
 23 24  1  0  0  0  0
 25 26  2  0  0  0  0
 26 27  1  0  0  0  0
M  END
>  <CHROM.1>
-173.58299298,147.19198292,68.81009987,-154.72524393,-37.68828532,-171.34675499
41.09686260,11.65975064,-11.35319050,-21.93251123,-2.68903180,-0.59260780
-1.31896208

>  <Name>
ligand

>  <RI>
0

>  <Rbt.Current_Directory>
/home/itssahil/PROJECTS/Mol_Feturizer/New_Systems/rnas/3E5F

>  <Rbt.Executable>
rbdock ($Id: //depot/dev/client3/rdock/2013.1/src/exe/rbdock.cxx#4 $)

>  <Rbt.Library>
libRbt.so (2013.1, Build901 2013/11/27)

>  <Rbt.Parameter_File>
/export/apps/rDock/src/rDock_2013.1_src/data/scripts/dock_solv.prm

>  <Rbt.Receptor>
prm/pocket_docking_7.prm

>  <SCORE>
-20.1396

>  <SCORE.INTER>
-19.7829

>  <SCORE.INTER.CONST>
1

>  <SCORE.INTER.POLAR>
0

>  <SCORE.INTER.ROT>
7

>  <SCORE.INTER.SOLV>
19.5852

>  <SCORE.INTER.VDW>
-27.9837

>  <SCORE.INTER.norm>
-0.7327

>  <SCORE.INTRA>
-0.35668

>  <SCORE.INTRA.DIHEDRAL>
1.18272

>  <SCORE.INTRA.DIHEDRAL.0>
4.89803

>  <SCORE.INTRA.POLAR>
0

>  <SCORE.INTRA.POLAR.0>
0

>  <SCORE.INTRA.REPUL>
0

>  <SCORE.INTRA.REPUL.0>
0

>  <SCORE.INTRA.SOLV>
0.265083

>  <SCORE.INTRA.SOLV.lig_0>
-48.5832

>  <SCORE.INTRA.VDW>
-1.08058

>  <SCORE.INTRA.VDW.0>
-2.39056

>  <SCORE.INTRA.norm>
-0.0132104

>  <SCORE.RESTR>
0

>  <SCORE.RESTR.CAVITY>
0

>  <SCORE.RESTR.norm>
0

>  <SCORE.SYSTEM>
0

>  <SCORE.SYSTEM.CONST>
0

>  <SCORE.SYSTEM.DIHEDRAL>
0

>  <SCORE.SYSTEM.SOLV>
0

>  <SCORE.SYSTEM.norm>
0

>  <SCORE.heavy>
27

>  <SCORE.norm>
-0.74591

>  <RMSD>
6.838

$$$$
ligand
 OpenBabel11021811473D
libRbt.so/2013.1/901 2013/11/27
 27 29  0  0  0  0  0  0  0  0999 V2000
   10.1865  -14.1320  -19.5298 N   0  0  0  0  0  0  0  0  0  0  0  0
    9.1890  -13.2430  -20.1434 C   0  0  2  0  0  0  0  0  0  0  0  0
    7.8444  -13.9674  -20.2588 C   0  0  0  0  0  0  0  0  0  0  0  0
    7.8763  -15.1721  -20.5924 O   0  0  0  0  0  0  0  0  0  0  0  0
    9.6715  -12.8503  -21.5409 C   0  0  0  0  0  0  0  0  0  0  0  0
   10.8284  -11.8492  -21.4889 C   0  0  0  0  0  0  0  0  0  0  0  0
   13.2929  -12.0575  -20.0914 C   0  0  0  0  0  0  0  0  0  0  0  0
   12.4669  -12.7192  -21.6031 Se  0  0  2  0  0  0  0  0  0  0  0  0
   13.4447  -11.8984  -22.9546 C   0  0  0  0  0  0  0  0  0  0  0  0
   12.7126  -10.7305  -23.6169 C   0  0  1  0  0  0  0  0  0  0  0  0
   12.6498   -9.6439  -22.6771 O   0  0  0  0  0  0  0  0  0  0  0  0
   13.6074  -10.2157  -24.7450 C   0  0  1  0  0  0  0  0  0  0  0  0
   12.8948   -9.2497  -25.5192 O   0  0  0  0  0  0  0  0  0  0  0  0
   14.6820   -9.5239  -23.9099 C   0  0  1  0  0  0  0  0  0  0  0  0
   15.3449   -8.5551  -24.7242 O   0  0  0  0  0  0  0  0  0  0  0  0
   13.7929   -8.7988  -22.8988 C   0  0  2  0  0  0  0  0  0  0  0  0
    6.8140  -13.2997  -20.0206 O   0  0  0  0  0  0  0  0  0  0  0  0
   17.7375   -6.3438  -20.6500 N   0  0  0  0  0  0  0  0  0  0  0  0
   17.3852   -6.3520  -21.9241 C   0  0  0  0  0  0  0  0  0  0  0  0
   16.3380   -7.0347  -22.3528 N   0  0  0  0  0  0  0  0  0  0  0  0
   15.5898   -7.7461  -21.4961 C   0  0  0  0  0  0  0  0  0  0  0  0
   15.9296   -7.7632  -20.1506 C   0  0  0  0  0  0  0  0  0  0  0  0
   17.0402   -7.0355  -19.7397 C   0  0  0  0  0  0  0  0  0  0  0  0
   17.4198   -7.0583  -18.4659 N   0  0  0  0  0  0  0  0  0  0  0  0
   15.0464   -8.5305  -19.5216 N   0  0  0  0  0  0  0  0  0  0  0  0
   14.1849   -8.9799  -20.4312 C   0  0  0  0  0  0  0  0  0  0  0  0
   14.5088   -8.5067  -21.6348 N   0  0  0  0  0  0  0  0  0  0  0  0
  2  1  1  6  0  0  0
  2  5  1  0  0  0  0
  2  3  1  0  0  0  0
  3 17  1  0  0  0  0
  3  4  1  0  0  0  0
  5  6  1  0  0  0  0
  7  8  1  0  0  0  0
  8  6  1  1  0  0  0
  8  9  1  0  0  0  0
 10  9  1  1  0  0  0
 10 11  1  0  0  0  0
 10 12  1  0  0  0  0
 11 16  1  0  0  0  0
 12 13  1  6  0  0  0
 12 14  1  0  0  0  0
 14 15  1  6  0  0  0
 14 16  1  0  0  0  0
 16 27  1  1  0  0  0
 18 23  2  0  0  0  0
 18 19  1  0  0  0  0
 19 20  2  0  0  0  0
 20 21  1  0  0  0  0
 21 22  2  0  0  0  0
 21 27  1  0  0  0  0
 22 23  1  0  0  0  0
 22 25  1  0  0  0  0
 23 24  1  0  0  0  0
 25 26  2  0  0  0  0
 26 27  1  0  0  0  0
M  END
>  <CHROM.1>
-73.27630109,-39.87251357,95.28171718,-125.78750724,0.89669946,70.48765143
-179.12355336,13.07468426,-10.57191262,-21.61461876,-3.03084475,-0.72493323
-1.51591894

>  <Name>
ligand

>  <RI>
0

>  <Rbt.Current_Directory>
/home/itssahil/PROJECTS/Mol_Feturizer/New_Systems/rnas/3E5F

>  <Rbt.Executable>
rbdock ($Id: //depot/dev/client3/rdock/2013.1/src/exe/rbdock.cxx#4 $)

>  <Rbt.Library>
libRbt.so (2013.1, Build901 2013/11/27)

>  <Rbt.Parameter_File>
/export/apps/rDock/src/rDock_2013.1_src/data/scripts/dock_solv.prm

>  <Rbt.Receptor>
prm/blind_docking_60.prm

>  <SCORE>
-9.98095

>  <SCORE.INTER>
-13.9655

>  <SCORE.INTER.CONST>
1

>  <SCORE.INTER.POLAR>
0

>  <SCORE.INTER.ROT>
7

>  <SCORE.INTER.SOLV>
14.9833

>  <SCORE.INTER.VDW>
-22.5714

>  <SCORE.INTER.norm>
-0.517241

>  <SCORE.INTRA>
3.97098

>  <SCORE.INTRA.DIHEDRAL>
6.96056

>  <SCORE.INTRA.DIHEDRAL.0>
4.89803

>  <SCORE.INTRA.POLAR>
0

>  <SCORE.INTRA.POLAR.0>
0

>  <SCORE.INTRA.REPUL>
0

>  <SCORE.INTRA.REPUL.0>
0

>  <SCORE.INTRA.SOLV>
1.97512

>  <SCORE.INTRA.SOLV.lig_0>
-48.5832

>  <SCORE.INTRA.VDW>
-0.496857

>  <SCORE.INTRA.VDW.0>
-2.39056

>  <SCORE.INTRA.norm>
0.147074

>  <SCORE.RESTR>
0.0135623

>  <SCORE.RESTR.CAVITY>
0.0135623

>  <SCORE.RESTR.norm>
0.000502308

>  <SCORE.SYSTEM>
0

>  <SCORE.SYSTEM.CONST>
0

>  <SCORE.SYSTEM.DIHEDRAL>
0

>  <SCORE.SYSTEM.SOLV>
0

>  <SCORE.SYSTEM.norm>
0

>  <SCORE.heavy>
27

>  <SCORE.norm>
-0.369665

>  <RMSD>
6.839

$$$$
ligand
 OpenBabel11021811473D
libRbt.so/2013.1/901 2013/11/27
 27 29  0  0  0  0  0  0  0  0999 V2000
   12.9692  -11.7947  -20.7850 N   0  0  0  0  0  0  0  0  0  0  0  0
   13.5012  -10.4517  -20.5112 C   0  0  2  0  0  0  0  0  0  0  0  0
   13.1377  -10.0265  -19.0853 C   0  0  0  0  0  0  0  0  0  0  0  0
   13.7367   -9.0324  -18.6200 O   0  0  0  0  0  0  0  0  0  0  0  0
   12.8844   -9.4649  -21.5041 C   0  0  0  0  0  0  0  0  0  0  0  0
   13.5129   -8.0732  -21.3962 C   0  0  0  0  0  0  0  0  0  0  0  0
   16.2091   -8.4889  -20.6036 C   0  0  0  0  0  0  0  0  0  0  0  0
   15.2298   -8.0614  -22.1082 Se  0  0  2  0  0  0  0  0  0  0  0  0
   15.7127   -6.2865  -22.3783 C   0  0  0  0  0  0  0  0  0  0  0  0
   15.7344   -5.4559  -21.0944 C   0  0  1  0  0  0  0  0  0  0  0  0
   16.9746   -5.7091  -20.4122 O   0  0  0  0  0  0  0  0  0  0  0  0
   15.8123   -3.9856  -21.5070 C   0  0  1  0  0  0  0  0  0  0  0  0
   15.6448   -3.1554  -20.3567 O   0  0  0  0  0  0  0  0  0  0  0  0
   17.2643   -3.9387  -21.9761 C   0  0  1  0  0  0  0  0  0  0  0  0
   17.7172   -2.5842  -21.9366 O   0  0  0  0  0  0  0  0  0  0  0  0
   17.9260   -4.7174  -20.8384 C   0  0  2  0  0  0  0  0  0  0  0  0
   12.2766  -10.7093  -18.4881 O   0  0  0  0  0  0  0  0  0  0  0  0
   20.9649   -8.8855  -20.6459 N   0  0  0  0  0  0  0  0  0  0  0  0
   19.7728   -8.7040  -20.1042 C   0  0  0  0  0  0  0  0  0  0  0  0
   19.1097   -7.5693  -20.2439 N   0  0  0  0  0  0  0  0  0  0  0  0
   19.6321   -6.5562  -20.9515 C   0  0  0  0  0  0  0  0  0  0  0  0
   20.8826   -6.7089  -21.5337 C   0  0  0  0  0  0  0  0  0  0  0  0
   21.5498   -7.9158  -21.3607 C   0  0  0  0  0  0  0  0  0  0  0  0
   22.7657   -8.0859  -21.8705 N   0  0  0  0  0  0  0  0  0  0  0  0
   21.1721   -5.5787  -22.1687 N   0  0  0  0  0  0  0  0  0  0  0  0
   20.1480   -4.7466  -21.9949 C   0  0  0  0  0  0  0  0  0  0  0  0
   19.2070   -5.3343  -21.2556 N   0  0  0  0  0  0  0  0  0  0  0  0
  2  1  1  6  0  0  0
  2  5  1  0  0  0  0
  2  3  1  0  0  0  0
  3 17  1  0  0  0  0
  3  4  1  0  0  0  0
  5  6  1  0  0  0  0
  7  8  1  0  0  0  0
  8  6  1  1  0  0  0
  8  9  1  0  0  0  0
 10  9  1  6  0  0  0
 10 11  1  0  0  0  0
 10 12  1  0  0  0  0
 11 16  1  0  0  0  0
 12 13  1  1  0  0  0
 12 14  1  0  0  0  0
 14 15  1  1  0  0  0
 14 16  1  0  0  0  0
 16 27  1  6  0  0  0
 18 23  2  0  0  0  0
 18 19  1  0  0  0  0
 19 20  2  0  0  0  0
 20 21  1  0  0  0  0
 21 22  2  0  0  0  0
 21 27  1  0  0  0  0
 22 23  1  0  0  0  0
 22 25  1  0  0  0  0
 23 24  1  0  0  0  0
 25 26  2  0  0  0  0
 26 27  1  0  0  0  0
M  END
>  <CHROM.1>
-173.12102278,166.34758552,72.92904699,-90.09654673,60.84023034,80.80277287
-18.45079875,16.72465037,-7.24313607,-21.10182382,-2.60794684,0.06067879
-0.17279441

>  <Name>
ligand

>  <RI>
0

>  <Rbt.Current_Directory>
/home/itssahil/PROJECTS/Mol_Feturizer/New_Systems/rnas/3E5F

>  <Rbt.Executable>
rbdock ($Id: //depot/dev/client3/rdock/2013.1/src/exe/rbdock.cxx#4 $)

>  <Rbt.Library>
libRbt.so (2013.1, Build901 2013/11/27)

>  <Rbt.Parameter_File>
/export/apps/rDock/src/rDock_2013.1_src/data/scripts/dock_solv.prm

>  <Rbt.Receptor>
prm/pocket_docking_8.prm

>  <SCORE>
-11.9156

>  <SCORE.INTER>
-13.6542

>  <SCORE.INTER.CONST>
1

>  <SCORE.INTER.POLAR>
0

>  <SCORE.INTER.ROT>
7

>  <SCORE.INTER.SOLV>
12.0643

>  <SCORE.INTER.VDW>
-21.3909

>  <SCORE.INTER.norm>
-0.505709

>  <SCORE.INTRA>
1.73856

>  <SCORE.INTRA.DIHEDRAL>
1.05094

>  <SCORE.INTRA.DIHEDRAL.0>
4.89803

>  <SCORE.INTRA.POLAR>
0

>  <SCORE.INTRA.POLAR.0>
0

>  <SCORE.INTRA.REPUL>
0

>  <SCORE.INTRA.REPUL.0>
0

>  <SCORE.INTRA.SOLV>
0.343881

>  <SCORE.INTRA.SOLV.lig_0>
-48.5832

>  <SCORE.INTRA.VDW>
1.04115

>  <SCORE.INTRA.VDW.0>
-2.39056

>  <SCORE.INTRA.norm>
0.0643912

>  <SCORE.RESTR>
0

>  <SCORE.RESTR.CAVITY>
0

>  <SCORE.RESTR.norm>
0

>  <SCORE.SYSTEM>
0

>  <SCORE.SYSTEM.CONST>
0

>  <SCORE.SYSTEM.DIHEDRAL>
0

>  <SCORE.SYSTEM.SOLV>
0

>  <SCORE.SYSTEM.norm>
0

>  <SCORE.heavy>
27

>  <SCORE.norm>
-0.441318

>  <RMSD>
6.839

$$$$
ligand
 OpenBabel11021811473D
libRbt.so/2013.1/901 2013/11/27
 27 29  0  0  0  0  0  0  0  0999 V2000
    6.3477  -10.7398  -16.9706 N   0  0  0  0  0  0  0  0  0  0  0  0
    7.4833  -11.6671  -16.8599 C   0  0  2  0  0  0  0  0  0  0  0  0
    8.3502  -11.2899  -15.6548 C   0  0  0  0  0  0  0  0  0  0  0  0
    8.6002  -10.0753  -15.4943 O   0  0  0  0  0  0  0  0  0  0  0  0
    8.3236  -11.5724  -18.1346 C   0  0  0  0  0  0  0  0  0  0  0  0
    7.5852  -12.1337  -19.3524 C   0  0  0  0  0  0  0  0  0  0  0  0
    9.6396  -13.9952  -19.9726 C   0  0  0  0  0  0  0  0  0  0  0  0
    8.7745  -12.5464  -20.7198 Se  0  0  2  0  0  0  0  0  0  0  0  0
   10.1159  -11.2594  -20.7038 C   0  0  0  0  0  0  0  0  0  0  0  0
   10.9307  -11.2084  -21.9969 C   0  0  1  0  0  0  0  0  0  0  0  0
   11.8490  -10.1052  -21.9103 O   0  0  0  0  0  0  0  0  0  0  0  0
   11.8203  -12.4519  -22.0216 C   0  0  1  0  0  0  0  0  0  0  0  0
   12.4641  -12.5555  -23.2925 O   0  0  0  0  0  0  0  0  0  0  0  0
   12.8353  -12.0490  -20.9549 C   0  0  1  0  0  0  0  0  0  0  0  0
   14.0312  -12.8065  -21.1482 O   0  0  0  0  0  0  0  0  0  0  0  0
   13.0900  -10.6016  -21.3777 C   0  0  2  0  0  0  0  0  0  0  0  0
    8.7518  -12.2237  -14.9260 O   0  0  0  0  0  0  0  0  0  0  0  0
   12.2224   -8.9352  -16.5700 N   0  0  0  0  0  0  0  0  0  0  0  0
   11.4975   -9.7624  -17.3032 C   0  0  0  0  0  0  0  0  0  0  0  0
   11.8537  -10.0999  -18.5304 N   0  0  0  0  0  0  0  0  0  0  0  0
   12.9778   -9.6092  -19.0740 C   0  0  0  0  0  0  0  0  0  0  0  0
   13.7641   -8.7362  -18.3353 C   0  0  0  0  0  0  0  0  0  0  0  0
   13.3535   -8.4027  -17.0500 C   0  0  0  0  0  0  0  0  0  0  0  0
   14.0596   -7.5398  -16.3260 N   0  0  0  0  0  0  0  0  0  0  0  0
   14.8051   -8.3968  -19.0873 N   0  0  0  0  0  0  0  0  0  0  0  0
   14.6818   -9.0283  -20.2524 C   0  0  0  0  0  0  0  0  0  0  0  0
   13.5727   -9.7680  -20.2518 N   0  0  0  0  0  0  0  0  0  0  0  0
  2  1  1  6  0  0  0
  2  5  1  0  0  0  0
  2  3  1  0  0  0  0
  3 17  1  0  0  0  0
  3  4  1  0  0  0  0
  5  6  1  0  0  0  0
  7  8  1  0  0  0  0
  8  6  1  1  0  0  0
  8  9  1  0  0  0  0
 10  9  1  1  0  0  0
 10 11  1  0  0  0  0
 10 12  1  0  0  0  0
 11 16  1  0  0  0  0
 12 13  1  6  0  0  0
 12 14  1  0  0  0  0
 14 15  1  6  0  0  0
 14 16  1  0  0  0  0
 16 27  1  1  0  0  0
 18 23  2  0  0  0  0
 18 19  1  0  0  0  0
 19 20  2  0  0  0  0
 20 21  1  0  0  0  0
 21 22  2  0  0  0  0
 21 27  1  0  0  0  0
 22 23  1  0  0  0  0
 22 25  1  0  0  0  0
 23 24  1  0  0  0  0
 25 26  2  0  0  0  0
 26 27  1  0  0  0  0
M  END
>  <CHROM.1>
-68.45779060,-43.95993796,-160.62354990,69.39026581,-162.84931482,174.93386058
64.79165036,10.84429676,-11.04624756,-19.31694320,-3.03430934,-0.45155901
-2.04502421

>  <Name>
ligand

>  <RI>
0

>  <Rbt.Current_Directory>
/home/itssahil/PROJECTS/Mol_Feturizer/New_Systems/rnas/3E5F

>  <Rbt.Executable>
rbdock ($Id: //depot/dev/client3/rdock/2013.1/src/exe/rbdock.cxx#4 $)

>  <Rbt.Library>
libRbt.so (2013.1, Build901 2013/11/27)

>  <Rbt.Parameter_File>
/export/apps/rDock/src/rDock_2013.1_src/data/scripts/dock_solv.prm

>  <Rbt.Receptor>
prm/pocket_docking_7.prm

>  <SCORE>
-12.6443

>  <SCORE.INTER>
-12.8942

>  <SCORE.INTER.CONST>
1

>  <SCORE.INTER.POLAR>
0

>  <SCORE.INTER.ROT>
7

>  <SCORE.INTER.SOLV>
6.99378

>  <SCORE.INTER.VDW>
-19.194

>  <SCORE.INTER.norm>
-0.477562

>  <SCORE.INTRA>
0.249856

>  <SCORE.INTRA.DIHEDRAL>
0.89647

>  <SCORE.INTRA.DIHEDRAL.0>
4.89803

>  <SCORE.INTRA.POLAR>
0

>  <SCORE.INTRA.POLAR.0>
0

>  <SCORE.INTRA.REPUL>
0

>  <SCORE.INTRA.REPUL.0>
0

>  <SCORE.INTRA.SOLV>
0.60216

>  <SCORE.INTRA.SOLV.lig_0>
-48.5832

>  <SCORE.INTRA.VDW>
-0.49946

>  <SCORE.INTRA.VDW.0>
-2.39056

>  <SCORE.INTRA.norm>
0.00925392

>  <SCORE.RESTR>
0

>  <SCORE.RESTR.CAVITY>
0

>  <SCORE.RESTR.norm>
0

>  <SCORE.SYSTEM>
0

>  <SCORE.SYSTEM.CONST>
0

>  <SCORE.SYSTEM.DIHEDRAL>
0

>  <SCORE.SYSTEM.SOLV>
0

>  <SCORE.SYSTEM.norm>
0

>  <SCORE.heavy>
27

>  <SCORE.norm>
-0.468308

>  <RMSD>
6.848

$$$$
ligand
 OpenBabel11021811473D
libRbt.so/2013.1/901 2013/11/27
 27 29  0  0  0  0  0  0  0  0999 V2000
   15.7512   -6.4190  -22.6177 N   0  0  0  0  0  0  0  0  0  0  0  0
   15.6848   -7.7078  -23.3223 C   0  0  2  0  0  0  0  0  0  0  0  0
   15.5993   -7.4730  -24.8335 C   0  0  0  0  0  0  0  0  0  0  0  0
   15.7465   -8.4716  -25.5716 O   0  0  0  0  0  0  0  0  0  0  0  0
   14.4367   -8.4603  -22.8577 C   0  0  0  0  0  0  0  0  0  0  0  0
   14.4495   -8.7175  -21.3487 C   0  0  0  0  0  0  0  0  0  0  0  0
   13.0557   -9.3947  -18.9677 C   0  0  0  0  0  0  0  0  0  0  0  0
   12.8710   -9.5304  -20.7989 Se  0  0  2  0  0  0  0  0  0  0  0  0
   13.0622  -11.3610  -21.0605 C   0  0  0  0  0  0  0  0  0  0  0  0
   13.1151  -11.7664  -22.5341 C   0  0  1  0  0  0  0  0  0  0  0  0
   12.4315  -13.0227  -22.6830 O   0  0  0  0  0  0  0  0  0  0  0  0
   12.2593  -10.7652  -23.3108 C   0  0  1  0  0  0  0  0  0  0  0  0
   12.4237  -10.9805  -24.7133 O   0  0  0  0  0  0  0  0  0  0  0  0
   10.8742  -11.2329  -22.8710 C   0  0  1  0  0  0  0  0  0  0  0  0
    9.9130  -10.7916  -23.8315 O   0  0  0  0  0  0  0  0  0  0  0  0
   11.0583  -12.7446  -23.0104 C   0  0  2  0  0  0  0  0  0  0  0  0
   15.3983   -6.3001  -25.2185 O   0  0  0  0  0  0  0  0  0  0  0  0
    8.0326  -12.6613  -18.8292 N   0  0  0  0  0  0  0  0  0  0  0  0
    8.7679  -11.6882  -19.3390 C   0  0  0  0  0  0  0  0  0  0  0  0
    9.4965  -11.8628  -20.4277 N   0  0  0  0  0  0  0  0  0  0  0  0
    9.5090  -13.0471  -21.0578 C   0  0  0  0  0  0  0  0  0  0  0  0
    8.7510  -14.0935  -20.5513 C   0  0  0  0  0  0  0  0  0  0  0  0
    8.0011  -13.8712  -19.4023 C   0  0  0  0  0  0  0  0  0  0  0  0
    7.2928  -14.8598  -18.8654 N   0  0  0  0  0  0  0  0  0  0  0  0
    8.9336  -15.1438  -21.3437 N   0  0  0  0  0  0  0  0  0  0  0  0
    9.7721  -14.7770  -22.3100 C   0  0  0  0  0  0  0  0  0  0  0  0
   10.1264  -13.5026  -22.1430 N   0  0  0  0  0  0  0  0  0  0  0  0
  2  1  1  1  0  0  0
  2  5  1  0  0  0  0
  2  3  1  0  0  0  0
  3 17  1  0  0  0  0
  3  4  1  0  0  0  0
  5  6  1  0  0  0  0
  7  8  1  0  0  0  0
  8  6  1  6  0  0  0
  8  9  1  0  0  0  0
 10  9  1  1  0  0  0
 10 11  1  0  0  0  0
 10 12  1  0  0  0  0
 11 16  1  0  0  0  0
 12 13  1  6  0  0  0
 12 14  1  0  0  0  0
 14 15  1  6  0  0  0
 14 16  1  0  0  0  0
 16 27  1  1  0  0  0
 18 23  2  0  0  0  0
 18 19  1  0  0  0  0
 19 20  2  0  0  0  0
 20 21  1  0  0  0  0
 21 22  2  0  0  0  0
 21 27  1  0  0  0  0
 22 23  1  0  0  0  0
 22 25  1  0  0  0  0
 23 24  1  0  0  0  0
 25 26  2  0  0  0  0
 26 27  1  0  0  0  0
M  END
>  <CHROM.1>
-59.40786036,169.15314005,176.19703538,-169.41802029,-68.56926037,-143.57733313
98.05338323,11.97506394,-10.83067571,-21.87261295,-0.08039866,0.81310000
1.19035990

>  <Name>
ligand

>  <RI>
0

>  <Rbt.Current_Directory>
/home/itssahil/PROJECTS/Mol_Feturizer/New_Systems/rnas/3E5F

>  <Rbt.Executable>
rbdock ($Id: //depot/dev/client3/rdock/2013.1/src/exe/rbdock.cxx#4 $)

>  <Rbt.Library>
libRbt.so (2013.1, Build901 2013/11/27)

>  <Rbt.Parameter_File>
/export/apps/rDock/src/rDock_2013.1_src/data/scripts/dock_solv.prm

>  <Rbt.Receptor>
prm/blind_docking_40.prm

>  <SCORE>
-17.3683

>  <SCORE.INTER>
-18.3714

>  <SCORE.INTER.CONST>
1

>  <SCORE.INTER.POLAR>
0

>  <SCORE.INTER.ROT>
7

>  <SCORE.INTER.SOLV>
17.3444

>  <SCORE.INTER.VDW>
-26.2957

>  <SCORE.INTER.norm>
-0.680422

>  <SCORE.INTRA>
1.00313

>  <SCORE.INTRA.DIHEDRAL>
1.91719

>  <SCORE.INTRA.DIHEDRAL.0>
4.89803

>  <SCORE.INTRA.POLAR>
0

>  <SCORE.INTRA.POLAR.0>
0

>  <SCORE.INTRA.REPUL>
0

>  <SCORE.INTRA.REPUL.0>
0

>  <SCORE.INTRA.SOLV>
0.924702

>  <SCORE.INTRA.SOLV.lig_0>
-48.5832

>  <SCORE.INTRA.VDW>
-0.417819

>  <SCORE.INTRA.VDW.0>
-2.39056

>  <SCORE.INTRA.norm>
0.0371529

>  <SCORE.RESTR>
0

>  <SCORE.RESTR.CAVITY>
0

>  <SCORE.RESTR.norm>
0

>  <SCORE.SYSTEM>
0

>  <SCORE.SYSTEM.CONST>
0

>  <SCORE.SYSTEM.DIHEDRAL>
0

>  <SCORE.SYSTEM.SOLV>
0

>  <SCORE.SYSTEM.norm>
0

>  <SCORE.heavy>
27

>  <SCORE.norm>
-0.643269

>  <RMSD>
6.862

$$$$
ligand
 OpenBabel11021811473D
libRbt.so/2013.1/901 2013/11/27
 27 29  0  0  0  0  0  0  0  0999 V2000
    6.4261  -12.8762  -20.3138 N   0  0  0  0  0  0  0  0  0  0  0  0
    7.6279  -13.6801  -20.5806 C   0  0  2  0  0  0  0  0  0  0  0  0
    7.2683  -15.1689  -20.5929 C   0  0  0  0  0  0  0  0  0  0  0  0
    7.7452  -15.8597  -21.5196 O   0  0  0  0  0  0  0  0  0  0  0  0
    8.6522  -13.4181  -19.4751 C   0  0  0  0  0  0  0  0  0  0  0  0
    9.2317  -12.0033  -19.5526 C   0  0  0  0  0  0  0  0  0  0  0  0
   11.8559  -10.9350  -19.7595 C   0  0  0  0  0  0  0  0  0  0  0  0
   10.6558  -11.9320  -20.7450 Se  0  0  2  0  0  0  0  0  0  0  0  0
   10.1972  -10.7395  -22.0954 C   0  0  0  0  0  0  0  0  0  0  0  0
   10.5417  -11.2414  -23.4983 C   0  0  1  0  0  0  0  0  0  0  0  0
   11.5249  -10.3591  -24.0661 O   0  0  0  0  0  0  0  0  0  0  0  0
   11.2677  -12.5775  -23.3362 C   0  0  1  0  0  0  0  0  0  0  0  0
   11.4460  -13.1846  -24.6168 O   0  0  0  0  0  0  0  0  0  0  0  0
   12.6071  -12.0670  -22.8108 C   0  0  1  0  0  0  0  0  0  0  0  0
   13.6057  -13.0590  -23.0557 O   0  0  0  0  0  0  0  0  0  0  0  0
   12.8267  -10.8939  -23.7669 C   0  0  2  0  0  0  0  0  0  0  0  0
    6.5174  -15.5823  -19.6820 O   0  0  0  0  0  0  0  0  0  0  0  0
   15.9496   -6.8899  -24.6942 N   0  0  0  0  0  0  0  0  0  0  0  0
   15.2533   -7.6136  -25.5538 C   0  0  0  0  0  0  0  0  0  0  0  0
   14.4888   -8.6174  -25.1607 N   0  0  0  0  0  0  0  0  0  0  0  0
   14.3929   -8.9336  -23.8604 C   0  0  0  0  0  0  0  0  0  0  0  0
   15.1107   -8.1976  -22.9281 C   0  0  0  0  0  0  0  0  0  0  0  0
   15.9064   -7.1521  -23.3817 C   0  0  0  0  0  0  0  0  0  0  0  0
   16.6386   -6.4490  -22.5233 N   0  0  0  0  0  0  0  0  0  0  0  0
   14.8500   -8.7035  -21.7280 N   0  0  0  0  0  0  0  0  0  0  0  0
   14.0034   -9.7169  -21.8946 C   0  0  0  0  0  0  0  0  0  0  0  0
   13.7204   -9.8629  -23.1892 N   0  0  0  0  0  0  0  0  0  0  0  0
  2  1  1  1  0  0  0
  2  5  1  0  0  0  0
  2  3  1  0  0  0  0
  3 17  1  0  0  0  0
  3  4  1  0  0  0  0
  5  6  1  0  0  0  0
  7  8  1  0  0  0  0
  8  6  1  1  0  0  0
  8  9  1  0  0  0  0
 10  9  1  1  0  0  0
 10 11  1  0  0  0  0
 10 12  1  0  0  0  0
 11 16  1  0  0  0  0
 12 13  1  6  0  0  0
 12 14  1  0  0  0  0
 14 15  1  6  0  0  0
 14 16  1  0  0  0  0
 16 27  1  1  0  0  0
 18 23  2  0  0  0  0
 18 19  1  0  0  0  0
 19 20  2  0  0  0  0
 20 21  1  0  0  0  0
 21 22  2  0  0  0  0
 21 27  1  0  0  0  0
 22 23  1  0  0  0  0
 22 25  1  0  0  0  0
 23 24  1  0  0  0  0
 25 26  2  0  0  0  0
 26 27  1  0  0  0  0
M  END
>  <CHROM.1>
-69.47273615,135.11974681,-84.80570520,-135.48221259,-135.93043204,-116.32795064
-80.28985529,11.60595620,-11.25049025,-22.11664524,-3.09217392,-0.75601540
-2.00665979

>  <Name>
ligand

>  <RI>
0

>  <Rbt.Current_Directory>
/home/itssahil/PROJECTS/Mol_Feturizer/New_Systems/rnas/3E5F

>  <Rbt.Executable>
rbdock ($Id: //depot/dev/client3/rdock/2013.1/src/exe/rbdock.cxx#4 $)

>  <Rbt.Library>
libRbt.so (2013.1, Build901 2013/11/27)

>  <Rbt.Parameter_File>
/export/apps/rDock/src/rDock_2013.1_src/data/scripts/dock_solv.prm

>  <Rbt.Receptor>
prm/blind_docking_40.prm

>  <SCORE>
-14.106

>  <SCORE.INTER>
-18.753

>  <SCORE.INTER.CONST>
1

>  <SCORE.INTER.POLAR>
0

>  <SCORE.INTER.ROT>
7

>  <SCORE.INTER.SOLV>
15.5922

>  <SCORE.INTER.VDW>
-25.9661

>  <SCORE.INTER.norm>
-0.694557

>  <SCORE.INTRA>
4.64708

>  <SCORE.INTRA.DIHEDRAL>
9.6547

>  <SCORE.INTRA.DIHEDRAL.0>
4.89803

>  <SCORE.INTRA.POLAR>
0

>  <SCORE.INTRA.POLAR.0>
0

>  <SCORE.INTRA.REPUL>
0

>  <SCORE.INTRA.REPUL.0>
0

>  <SCORE.INTRA.SOLV>
0.761103

>  <SCORE.INTRA.SOLV.lig_0>
-48.5832

>  <SCORE.INTRA.VDW>
-0.560824

>  <SCORE.INTRA.VDW.0>
-2.39056

>  <SCORE.INTRA.norm>
0.172114

>  <SCORE.RESTR>
0

>  <SCORE.RESTR.CAVITY>
0

>  <SCORE.RESTR.norm>
0

>  <SCORE.SYSTEM>
0

>  <SCORE.SYSTEM.CONST>
0

>  <SCORE.SYSTEM.DIHEDRAL>
0

>  <SCORE.SYSTEM.SOLV>
0

>  <SCORE.SYSTEM.norm>
0

>  <SCORE.heavy>
27

>  <SCORE.norm>
-0.522443

>  <RMSD>
6.870

$$$$
ligand
 OpenBabel11021811473D
libRbt.so/2013.1/901 2013/11/27
 27 29  0  0  0  0  0  0  0  0999 V2000
   12.0179  -11.5403  -22.7816 N   0  0  0  0  0  0  0  0  0  0  0  0
   13.4098  -11.4158  -22.3244 C   0  0  2  0  0  0  0  0  0  0  0  0
   13.5480  -11.9867  -20.9098 C   0  0  0  0  0  0  0  0  0  0  0  0
   12.8395  -11.4701  -20.0183 O   0  0  0  0  0  0  0  0  0  0  0  0
   13.7939   -9.9352  -22.3102 C   0  0  0  0  0  0  0  0  0  0  0  0
   14.0555   -9.3961  -23.7189 C   0  0  0  0  0  0  0  0  0  0  0  0
   15.5226   -7.4643  -25.1974 C   0  0  0  0  0  0  0  0  0  0  0  0
   14.4953   -7.5910  -23.6696 Se  0  0  2  0  0  0  0  0  0  0  0  0
   15.7727   -7.3612  -22.3385 C   0  0  0  0  0  0  0  0  0  0  0  0
   15.9144   -5.9125  -21.8697 C   0  0  1  0  0  0  0  0  0  0  0  0
   14.6166   -5.4352  -21.4752 O   0  0  0  0  0  0  0  0  0  0  0  0
   16.7296   -5.9323  -20.5761 C   0  0  1  0  0  0  0  0  0  0  0  0
   17.0550   -4.5950  -20.1940 O   0  0  0  0  0  0  0  0  0  0  0  0
   15.6755   -6.5023  -19.6303 C   0  0  1  0  0  0  0  0  0  0  0  0
   16.0226   -6.1518  -18.2894 O   0  0  0  0  0  0  0  0  0  0  0  0
   14.4667   -5.6721  -20.0640 C   0  0  2  0  0  0  0  0  0  0  0  0
   14.3650  -12.9197  -20.7481 O   0  0  0  0  0  0  0  0  0  0  0  0
   10.0913   -5.5809  -17.3269 N   0  0  0  0  0  0  0  0  0  0  0  0
   11.0810   -4.7046  -17.3359 C   0  0  0  0  0  0  0  0  0  0  0  0
   12.1473   -4.8659  -18.0999 N   0  0  0  0  0  0  0  0  0  0  0  0
   12.2567   -5.9359  -18.9018 C   0  0  0  0  0  0  0  0  0  0  0  0
   11.2384   -6.8787  -18.9183 C   0  0  0  0  0  0  0  0  0  0  0  0
   10.1352   -6.6751  -18.0977 C   0  0  0  0  0  0  0  0  0  0  0  0
    9.1577   -7.5751  -18.0572 N   0  0  0  0  0  0  0  0  0  0  0  0
   11.5827   -7.8286  -19.7805 N   0  0  0  0  0  0  0  0  0  0  0  0
   12.7688   -7.5004  -20.2873 C   0  0  0  0  0  0  0  0  0  0  0  0
   13.1852   -6.3500  -19.7577 N   0  0  0  0  0  0  0  0  0  0  0  0
  2  1  1  1  0  0  0
  2  5  1  0  0  0  0
  2  3  1  0  0  0  0
  3 17  1  0  0  0  0
  3  4  1  0  0  0  0
  5  6  1  0  0  0  0
  7  8  1  0  0  0  0
  8  6  1  1  0  0  0
  8  9  1  0  0  0  0
 10  9  1  1  0  0  0
 10 11  1  0  0  0  0
 10 12  1  0  0  0  0
 11 16  1  0  0  0  0
 12 13  1  1  0  0  0
 12 14  1  0  0  0  0
 14 15  1  1  0  0  0
 14 16  1  0  0  0  0
 16 27  1  6  0  0  0
 18 23  2  0  0  0  0
 18 19  1  0  0  0  0
 19 20  2  0  0  0  0
 20 21  1  0  0  0  0
 21 22  2  0  0  0  0
 21 27  1  0  0  0  0
 22 23  1  0  0  0  0
 22 25  1  0  0  0  0
 23 24  1  0  0  0  0
 25 26  2  0  0  0  0
 26 27  1  0  0  0  0
M  END
>  <CHROM.1>
-75.77901956,-58.77618697,179.18190171,152.87340920,-161.67555670,54.20398138
-125.51947764,13.69453939,-7.62404386,-20.98234736,0.96506234,-0.72860852
-2.59880502

>  <Name>
ligand

>  <RI>
0

>  <Rbt.Current_Directory>
/home/itssahil/PROJECTS/Mol_Feturizer/New_Systems/rnas/3E5F

>  <Rbt.Executable>
rbdock ($Id: //depot/dev/client3/rdock/2013.1/src/exe/rbdock.cxx#4 $)

>  <Rbt.Library>
libRbt.so (2013.1, Build901 2013/11/27)

>  <Rbt.Parameter_File>
/export/apps/rDock/src/rDock_2013.1_src/data/scripts/dock_solv.prm

>  <Rbt.Receptor>
prm/pocket_docking_3.prm

>  <SCORE>
-15.2378

>  <SCORE.INTER>
-15.1149

>  <SCORE.INTER.CONST>
1

>  <SCORE.INTER.POLAR>
0

>  <SCORE.INTER.ROT>
7

>  <SCORE.INTER.SOLV>
11.0586

>  <SCORE.INTER.VDW>
-22.0295

>  <SCORE.INTER.norm>
-0.559812

>  <SCORE.INTRA>
-0.122901

>  <SCORE.INTRA.DIHEDRAL>
0.531469

>  <SCORE.INTRA.DIHEDRAL.0>
4.89803

>  <SCORE.INTRA.POLAR>
0

>  <SCORE.INTRA.POLAR.0>
0

>  <SCORE.INTRA.REPUL>
0

>  <SCORE.INTRA.REPUL.0>
0

>  <SCORE.INTRA.SOLV>
0.509057

>  <SCORE.INTRA.SOLV.lig_0>
-48.5832

>  <SCORE.INTRA.VDW>
-0.643164

>  <SCORE.INTRA.VDW.0>
-2.39056

>  <SCORE.INTRA.norm>
-0.0045519

>  <SCORE.RESTR>
0

>  <SCORE.RESTR.CAVITY>
0

>  <SCORE.RESTR.norm>
0

>  <SCORE.SYSTEM>
0

>  <SCORE.SYSTEM.CONST>
0

>  <SCORE.SYSTEM.DIHEDRAL>
0

>  <SCORE.SYSTEM.SOLV>
0

>  <SCORE.SYSTEM.norm>
0

>  <SCORE.heavy>
27

>  <SCORE.norm>
-0.564363

>  <RMSD>
6.882

$$$$
ligand
 OpenBabel11021811473D
libRbt.so/2013.1/901 2013/11/27
 27 29  0  0  0  0  0  0  0  0999 V2000
   17.0553   -6.6039  -22.4581 N   0  0  0  0  0  0  0  0  0  0  0  0
   15.6832   -6.1096  -22.2719 C   0  0  2  0  0  0  0  0  0  0  0  0
   15.6930   -4.8649  -21.3793 C   0  0  0  0  0  0  0  0  0  0  0  0
   16.5002   -4.8585  -20.4243 O   0  0  0  0  0  0  0  0  0  0  0  0
   14.8513   -7.2042  -21.6012 C   0  0  0  0  0  0  0  0  0  0  0  0
   14.6654   -8.4222  -22.5097 C   0  0  0  0  0  0  0  0  0  0  0  0
   13.4347  -10.9355  -22.9987 C   0  0  0  0  0  0  0  0  0  0  0  0
   13.8584   -9.8213  -21.5900 Se  0  0  2  0  0  0  0  0  0  0  0  0
   12.1762   -9.2417  -21.0511 C   0  0  0  0  0  0  0  0  0  0  0  0
   12.2186   -8.1514  -19.9797 C   0  0  1  0  0  0  0  0  0  0  0  0
   10.9235   -8.0752  -19.3596 O   0  0  0  0  0  0  0  0  0  0  0  0
   13.1508   -8.6412  -18.8710 C   0  0  1  0  0  0  0  0  0  0  0  0
   13.3779   -7.5865  -17.9348 O   0  0  0  0  0  0  0  0  0  0  0  0
   12.2524   -9.7065  -18.2476 C   0  0  1  0  0  0  0  0  0  0  0  0
   12.6891   -9.9511  -16.9094 O   0  0  0  0  0  0  0  0  0  0  0  0
   10.9322   -8.9359  -18.2067 C   0  0  2  0  0  0  0  0  0  0  0  0
   14.8877   -3.9515  -21.6646 O   0  0  0  0  0  0  0  0  0  0  0  0
    7.7950  -11.8771  -15.3515 N   0  0  0  0  0  0  0  0  0  0  0  0
    8.8222  -11.1415  -14.9625 C   0  0  0  0  0  0  0  0  0  0  0  0
    9.5367  -10.4339  -15.8200 N   0  0  0  0  0  0  0  0  0  0  0  0
    9.2347  -10.4385  -17.1272 C   0  0  0  0  0  0  0  0  0  0  0  0
    8.1640  -11.2002  -17.5738 C   0  0  0  0  0  0  0  0  0  0  0  0
    7.4396  -11.9336  -16.6414 C   0  0  0  0  0  0  0  0  0  0  0  0
    6.4317  -12.7054  -17.0359 N   0  0  0  0  0  0  0  0  0  0  0  0
    8.0752  -11.0384  -18.8892 N   0  0  0  0  0  0  0  0  0  0  0  0
    9.0490  -10.2097  -19.2586 C   0  0  0  0  0  0  0  0  0  0  0  0
    9.7584   -9.8401  -18.1921 N   0  0  0  0  0  0  0  0  0  0  0  0
  2  1  1  1  0  0  0
  2  5  1  0  0  0  0
  2  3  1  0  0  0  0
  3 17  1  0  0  0  0
  3  4  1  0  0  0  0
  5  6  1  0  0  0  0
  7  8  1  0  0  0  0
  8  6  1  6  0  0  0
  8  9  1  0  0  0  0
 10  9  1  6  0  0  0
 10 11  1  0  0  0  0
 10 12  1  0  0  0  0
 11 16  1  0  0  0  0
 12 13  1  1  0  0  0
 12 14  1  0  0  0  0
 14 15  1  1  0  0  0
 14 16  1  0  0  0  0
 16 27  1  6  0  0  0
 18 23  2  0  0  0  0
 18 19  1  0  0  0  0
 19 20  2  0  0  0  0
 20 21  1  0  0  0  0
 21 22  2  0  0  0  0
 21 27  1  0  0  0  0
 22 23  1  0  0  0  0
 22 25  1  0  0  0  0
 23 24  1  0  0  0  0
 25 26  2  0  0  0  0
 26 27  1  0  0  0  0
M  END
>  <CHROM.1>
-66.46382578,-38.18824573,172.14456689,167.74603150,-68.31701086,-162.70488328
-157.39957044,12.19918592,-9.08781046,-19.59685485,0.06581825,-0.75913953
-2.31881134

>  <Name>
ligand

>  <RI>
0

>  <Rbt.Current_Directory>
/home/itssahil/PROJECTS/Mol_Feturizer/New_Systems/rnas/3E5F

>  <Rbt.Executable>
rbdock ($Id: //depot/dev/client3/rdock/2013.1/src/exe/rbdock.cxx#4 $)

>  <Rbt.Library>
libRbt.so (2013.1, Build901 2013/11/27)

>  <Rbt.Parameter_File>
/export/apps/rDock/src/rDock_2013.1_src/data/scripts/dock_solv.prm

>  <Rbt.Receptor>
prm/blind_docking_100.prm

>  <SCORE>
-8.29584

>  <SCORE.INTER>
-7.96226

>  <SCORE.INTER.CONST>
1

>  <SCORE.INTER.POLAR>
0

>  <SCORE.INTER.ROT>
7

>  <SCORE.INTER.SOLV>
12.9278

>  <SCORE.INTER.VDW>
-17.8841

>  <SCORE.INTER.norm>
-0.294898

>  <SCORE.INTRA>
-0.333582

>  <SCORE.INTRA.DIHEDRAL>
-0.554225

>  <SCORE.INTRA.DIHEDRAL.0>
4.89803

>  <SCORE.INTRA.POLAR>
0

>  <SCORE.INTRA.POLAR.0>
0

>  <SCORE.INTRA.REPUL>
0

>  <SCORE.INTRA.REPUL.0>
0

>  <SCORE.INTRA.SOLV>
0.811378

>  <SCORE.INTRA.SOLV.lig_0>
-48.5832

>  <SCORE.INTRA.VDW>
-0.462159

>  <SCORE.INTRA.VDW.0>
-2.39056

>  <SCORE.INTRA.norm>
-0.0123549

>  <SCORE.RESTR>
0

>  <SCORE.RESTR.CAVITY>
0

>  <SCORE.RESTR.norm>
0

>  <SCORE.SYSTEM>
0

>  <SCORE.SYSTEM.CONST>
0

>  <SCORE.SYSTEM.DIHEDRAL>
0

>  <SCORE.SYSTEM.SOLV>
0

>  <SCORE.SYSTEM.norm>
0

>  <SCORE.heavy>
27

>  <SCORE.norm>
-0.307253

>  <RMSD>
6.905

$$$$
ligand
 OpenBabel11021811473D
libRbt.so/2013.1/901 2013/11/27
 27 29  0  0  0  0  0  0  0  0999 V2000
   11.0467  -12.2655  -22.6819 N   0  0  0  0  0  0  0  0  0  0  0  0
   12.2546  -11.8958  -23.4342 C   0  0  2  0  0  0  0  0  0  0  0  0
   13.4895  -12.5243  -22.7812 C   0  0  0  0  0  0  0  0  0  0  0  0
   13.5425  -12.5040  -21.5321 O   0  0  0  0  0  0  0  0  0  0  0  0
   12.3975  -10.3729  -23.4207 C   0  0  0  0  0  0  0  0  0  0  0  0
   13.4648   -9.8873  -24.4049 C   0  0  0  0  0  0  0  0  0  0  0  0
   15.3196   -7.9205  -25.2775 C   0  0  0  0  0  0  0  0  0  0  0  0
   14.0974   -8.2069  -23.9248 Se  0  0  2  0  0  0  0  0  0  0  0  0
   15.2116   -8.4266  -22.4529 C   0  0  0  0  0  0  0  0  0  0  0  0
   15.7561   -7.1107  -21.8955 C   0  0  1  0  0  0  0  0  0  0  0  0
   14.6479   -6.3273  -21.4202 O   0  0  0  0  0  0  0  0  0  0  0  0
   16.5591   -7.4484  -20.6388 C   0  0  1  0  0  0  0  0  0  0  0  0
   17.2477   -6.2831  -20.1824 O   0  0  0  0  0  0  0  0  0  0  0  0
   15.4073   -7.7769  -19.6922 C   0  0  1  0  0  0  0  0  0  0  0  0
   15.8635   -7.6350  -18.3458 O   0  0  0  0  0  0  0  0  0  0  0  0
   14.4659   -6.6180  -20.0229 C   0  0  2  0  0  0  0  0  0  0  0  0
   14.3575  -13.0026  -23.5442 O   0  0  0  0  0  0  0  0  0  0  0  0
   11.2048   -9.8245  -17.6296 N   0  0  0  0  0  0  0  0  0  0  0  0
   12.5255   -9.8643  -17.6696 C   0  0  0  0  0  0  0  0  0  0  0  0
   13.2299   -8.9620  -18.3301 N   0  0  0  0  0  0  0  0  0  0  0  0
   12.6177   -7.9641  -18.9852 C   0  0  0  0  0  0  0  0  0  0  0  0
   11.2320   -7.8901  -18.9675 C   0  0  0  0  0  0  0  0  0  0  0  0
   10.5268   -8.8601  -18.2649 C   0  0  0  0  0  0  0  0  0  0  0  0
    9.1975   -8.8450  -18.2569 N   0  0  0  0  0  0  0  0  0  0  0  0
   10.8759   -6.8282  -19.6817 N   0  0  0  0  0  0  0  0  0  0  0  0
   11.9896   -6.2553  -20.1321 C   0  0  0  0  0  0  0  0  0  0  0  0
   13.0534   -6.9404  -19.7123 N   0  0  0  0  0  0  0  0  0  0  0  0
  2  1  1  1  0  0  0
  2  5  1  0  0  0  0
  2  3  1  0  0  0  0
  3 17  1  0  0  0  0
  3  4  1  0  0  0  0
  5  6  1  0  0  0  0
  7  8  1  0  0  0  0
  8  6  1  6  0  0  0
  8  9  1  0  0  0  0
 10  9  1  1  0  0  0
 10 11  1  0  0  0  0
 10 12  1  0  0  0  0
 11 16  1  0  0  0  0
 12 13  1  1  0  0  0
 12 14  1  0  0  0  0
 14 15  1  1  0  0  0
 14 16  1  0  0  0  0
 16 27  1  6  0  0  0
 18 23  2  0  0  0  0
 18 19  1  0  0  0  0
 19 20  2  0  0  0  0
 20 21  1  0  0  0  0
 21 22  2  0  0  0  0
 21 27  1  0  0  0  0
 22 23  1  0  0  0  0
 22 25  1  0  0  0  0
 23 24  1  0  0  0  0
 25 26  2  0  0  0  0
 26 27  1  0  0  0  0
M  END
>  <CHROM.1>
-168.72814533,-41.57474197,-157.54512735,-179.64885979,-177.03922403,63.31787226
132.96800681,13.56043667,-8.74939796,-21.36630205,1.13168249,-0.75541087
-2.19613962

>  <Name>
ligand

>  <RI>
0

>  <Rbt.Current_Directory>
/home/itssahil/PROJECTS/Mol_Feturizer/New_Systems/rnas/3E5F

>  <Rbt.Executable>
rbdock ($Id: //depot/dev/client3/rdock/2013.1/src/exe/rbdock.cxx#4 $)

>  <Rbt.Library>
libRbt.so (2013.1, Build901 2013/11/27)

>  <Rbt.Parameter_File>
/export/apps/rDock/src/rDock_2013.1_src/data/scripts/dock_solv.prm

>  <Rbt.Receptor>
prm/blind_docking_100.prm

>  <SCORE>
-18.1211

>  <SCORE.INTER>
-18.5721

>  <SCORE.INTER.CONST>
1

>  <SCORE.INTER.POLAR>
0

>  <SCORE.INTER.ROT>
7

>  <SCORE.INTER.SOLV>
10.9484

>  <SCORE.INTER.VDW>
-24.2975

>  <SCORE.INTER.norm>
-0.687855

>  <SCORE.INTRA>
0.450964

>  <SCORE.INTRA.DIHEDRAL>
0.549418

>  <SCORE.INTRA.DIHEDRAL.0>
4.89803

>  <SCORE.INTRA.POLAR>
0

>  <SCORE.INTRA.POLAR.0>
0

>  <SCORE.INTRA.REPUL>
0

>  <SCORE.INTRA.REPUL.0>
0

>  <SCORE.INTRA.SOLV>
0.131143

>  <SCORE.INTRA.SOLV.lig_0>
-48.5832

>  <SCORE.INTRA.VDW>
0.110684

>  <SCORE.INTRA.VDW.0>
-2.39056

>  <SCORE.INTRA.norm>
0.0167024

>  <SCORE.RESTR>
0

>  <SCORE.RESTR.CAVITY>
0

>  <SCORE.RESTR.norm>
0

>  <SCORE.SYSTEM>
0

>  <SCORE.SYSTEM.CONST>
0

>  <SCORE.SYSTEM.DIHEDRAL>
0

>  <SCORE.SYSTEM.SOLV>
0

>  <SCORE.SYSTEM.norm>
0

>  <SCORE.heavy>
27

>  <SCORE.norm>
-0.671153

>  <RMSD>
6.941

$$$$
ligand
 OpenBabel11021811473D
libRbt.so/2013.1/901 2013/11/27
 27 29  0  0  0  0  0  0  0  0999 V2000
   11.5924  -11.2822  -21.6166 N   0  0  0  0  0  0  0  0  0  0  0  0
   12.6424  -11.1735  -22.6401 C   0  0  2  0  0  0  0  0  0  0  0  0
   13.7465  -12.1994  -22.3667 C   0  0  0  0  0  0  0  0  0  0  0  0
   14.0048  -12.4487  -21.1689 O   0  0  0  0  0  0  0  0  0  0  0  0
   13.2384   -9.7657  -22.5880 C   0  0  0  0  0  0  0  0  0  0  0  0
   14.1017   -9.4617  -23.8150 C   0  0  0  0  0  0  0  0  0  0  0  0
   15.5809   -7.6376  -25.4135 C   0  0  0  0  0  0  0  0  0  0  0  0
   14.5434   -7.6577  -23.8875 Se  0  0  2  0  0  0  0  0  0  0  0  0
   15.8122   -7.3375  -22.5670 C   0  0  0  0  0  0  0  0  0  0  0  0
   16.2212   -5.8683  -22.4545 C   0  0  1  0  0  0  0  0  0  0  0  0
   15.0625   -5.1030  -22.0809 O   0  0  0  0  0  0  0  0  0  0  0  0
   17.1654   -5.7509  -21.2574 C   0  0  1  0  0  0  0  0  0  0  0  0
   17.7283   -4.4387  -21.2177 O   0  0  0  0  0  0  0  0  0  0  0  0
   16.1519   -5.9172  -20.1279 C   0  0  1  0  0  0  0  0  0  0  0  0
   16.6971   -5.3535  -18.9337 O   0  0  0  0  0  0  0  0  0  0  0  0
   15.0397   -5.0043  -20.6457 C   0  0  2  0  0  0  0  0  0  0  0  0
   14.3146  -12.7048  -23.3597 O   0  0  0  0  0  0  0  0  0  0  0  0
   12.0520   -8.7659  -18.7567 N   0  0  0  0  0  0  0  0  0  0  0  0
   13.3058   -8.8329  -19.1703 C   0  0  0  0  0  0  0  0  0  0  0  0
   13.9448   -7.7720  -19.6316 N   0  0  0  0  0  0  0  0  0  0  0  0
   13.3330   -6.5795  -19.6913 C   0  0  0  0  0  0  0  0  0  0  0  0
   12.0160   -6.4702  -19.2676 C   0  0  0  0  0  0  0  0  0  0  0  0
   11.3774   -7.6097  -18.7927 C   0  0  0  0  0  0  0  0  0  0  0  0
   10.1043   -7.5531  -18.4142 N   0  0  0  0  0  0  0  0  0  0  0  0
   11.6448   -5.2049  -19.4278 N   0  0  0  0  0  0  0  0  0  0  0  0
   12.6833   -4.5424  -19.9318 C   0  0  0  0  0  0  0  0  0  0  0  0
   13.7142   -5.3718  -20.0947 N   0  0  0  0  0  0  0  0  0  0  0  0
  2  1  1  1  0  0  0
  2  5  1  0  0  0  0
  2  3  1  0  0  0  0
  3 17  1  0  0  0  0
  3  4  1  0  0  0  0
  5  6  1  0  0  0  0
  7  8  1  0  0  0  0
  8  6  1  1  0  0  0
  8  9  1  0  0  0  0
 10  9  1  1  0  0  0
 10 11  1  0  0  0  0
 10 12  1  0  0  0  0
 11 16  1  0  0  0  0
 12 13  1  1  0  0  0
 12 14  1  0  0  0  0
 14 15  1  1  0  0  0
 14 16  1  0  0  0  0
 16 27  1  1  0  0  0
 18 23  2  0  0  0  0
 18 19  1  0  0  0  0
 19 20  2  0  0  0  0
 20 21  1  0  0  0  0
 21 22  2  0  0  0  0
 21 27  1  0  0  0  0
 22 23  1  0  0  0  0
 22 25  1  0  0  0  0
 23 24  1  0  0  0  0
 25 26  2  0  0  0  0
 26 27  1  0  0  0  0
M  END
>  <CHROM.1>
-166.84475530,-34.72747271,169.20612019,178.90529669,-176.89824125,62.63218570
91.99267135,14.13236483,-7.70847065,-21.54802389,1.91355684,-0.78924597,-2.50534885

>  <Name>
ligand

>  <RI>
0

>  <Rbt.Current_Directory>
/home/itssahil/PROJECTS/Mol_Feturizer/New_Systems/rnas/3E5F

>  <Rbt.Executable>
rbdock ($Id: //depot/dev/client3/rdock/2013.1/src/exe/rbdock.cxx#4 $)

>  <Rbt.Library>
libRbt.so (2013.1, Build901 2013/11/27)

>  <Rbt.Parameter_File>
/export/apps/rDock/src/rDock_2013.1_src/data/scripts/dock_solv.prm

>  <Rbt.Receptor>
prm/pocket_docking_5.prm

>  <SCORE>
-18.1396

>  <SCORE.INTER>
-16.9986

>  <SCORE.INTER.CONST>
1

>  <SCORE.INTER.POLAR>
0

>  <SCORE.INTER.ROT>
7

>  <SCORE.INTER.SOLV>
10.831

>  <SCORE.INTER.VDW>
-23.2094

>  <SCORE.INTER.norm>
-0.629577

>  <SCORE.INTRA>
-1.14104

>  <SCORE.INTRA.DIHEDRAL>
-0.634181

>  <SCORE.INTRA.DIHEDRAL.0>
4.89803

>  <SCORE.INTRA.POLAR>
0

>  <SCORE.INTRA.POLAR.0>
0

>  <SCORE.INTRA.REPUL>
0

>  <SCORE.INTRA.REPUL.0>
0

>  <SCORE.INTRA.SOLV>
0.195642

>  <SCORE.INTRA.SOLV.lig_0>
-48.5832

>  <SCORE.INTRA.VDW>
-0.921769

>  <SCORE.INTRA.VDW.0>
-2.39056

>  <SCORE.INTRA.norm>
-0.0422607

>  <SCORE.RESTR>
0

>  <SCORE.RESTR.CAVITY>
0

>  <SCORE.RESTR.norm>
0

>  <SCORE.SYSTEM>
0

>  <SCORE.SYSTEM.CONST>
0

>  <SCORE.SYSTEM.DIHEDRAL>
0

>  <SCORE.SYSTEM.SOLV>
0

>  <SCORE.SYSTEM.norm>
0

>  <SCORE.heavy>
27

>  <SCORE.norm>
-0.671838

>  <RMSD>
6.944

$$$$
ligand
 OpenBabel11021811473D
libRbt.so/2013.1/901 2013/11/27
 27 29  0  0  0  0  0  0  0  0999 V2000
   13.1466   -9.7785  -18.8286 N   0  0  0  0  0  0  0  0  0  0  0  0
   13.2000  -10.0835  -20.2659 C   0  0  2  0  0  0  0  0  0  0  0  0
   13.6303  -11.5386  -20.4754 C   0  0  0  0  0  0  0  0  0  0  0  0
   13.8950  -11.8884  -21.6464 O   0  0  0  0  0  0  0  0  0  0  0  0
   14.2194   -9.1559  -20.9296 C   0  0  0  0  0  0  0  0  0  0  0  0
   13.6021   -7.8111  -21.3218 C   0  0  0  0  0  0  0  0  0  0  0  0
   11.9774   -7.1854  -19.0770 C   0  0  0  0  0  0  0  0  0  0  0  0
   13.5558   -6.6515  -19.8700 Se  0  0  2  0  0  0  0  0  0  0  0  0
   13.1019   -4.9669  -20.5121 C   0  0  0  0  0  0  0  0  0  0  0  0
   14.2846   -4.0000  -20.5838 C   0  0  1  0  0  0  0  0  0  0  0  0
   15.0486   -4.1284  -19.3724 O   0  0  0  0  0  0  0  0  0  0  0  0
   15.2171   -4.5053  -21.6854 C   0  0  1  0  0  0  0  0  0  0  0  0
   16.2417   -3.5397  -21.9264 O   0  0  0  0  0  0  0  0  0  0  0  0
   15.8042   -5.7205  -20.9718 C   0  0  1  0  0  0  0  0  0  0  0  0
   17.0471   -6.0604  -21.5889 O   0  0  0  0  0  0  0  0  0  0  0  0
   16.0824   -5.1026  -19.6009 C   0  0  2  0  0  0  0  0  0  0  0  0
   13.6763  -12.2716  -19.4631 O   0  0  0  0  0  0  0  0  0  0  0  0
   16.9373   -6.0644  -14.6021 N   0  0  0  0  0  0  0  0  0  0  0  0
   16.9987   -4.9116  -15.2460 C   0  0  0  0  0  0  0  0  0  0  0  0
   16.7488   -4.8226  -16.5407 N   0  0  0  0  0  0  0  0  0  0  0  0
   16.4178   -5.9134  -17.2483 C   0  0  0  0  0  0  0  0  0  0  0  0
   16.3449   -7.1420  -16.6072 C   0  0  0  0  0  0  0  0  0  0  0  0
   16.6185   -7.1948  -15.2455 C   0  0  0  0  0  0  0  0  0  0  0  0
   16.5967   -8.3592  -14.6044 N   0  0  0  0  0  0  0  0  0  0  0  0
   16.0050   -8.0505  -17.5147 N   0  0  0  0  0  0  0  0  0  0  0  0
   15.8692   -7.4227  -18.6803 C   0  0  0  0  0  0  0  0  0  0  0  0
   16.1184   -6.1221  -18.5262 N   0  0  0  0  0  0  0  0  0  0  0  0
  2  1  1  1  0  0  0
  2  5  1  0  0  0  0
  2  3  1  0  0  0  0
  3 17  1  0  0  0  0
  3  4  1  0  0  0  0
  5  6  1  0  0  0  0
  7  8  1  0  0  0  0
  8  6  1  6  0  0  0
  8  9  1  0  0  0  0
 10  9  1  1  0  0  0
 10 11  1  0  0  0  0
 10 12  1  0  0  0  0
 11 16  1  0  0  0  0
 12 13  1  1  0  0  0
 12 14  1  0  0  0  0
 14 15  1  6  0  0  0
 14 16  1  0  0  0  0
 16 27  1  1  0  0  0
 18 23  2  0  0  0  0
 18 19  1  0  0  0  0
 19 20  2  0  0  0  0
 20 21  1  0  0  0  0
 21 22  2  0  0  0  0
 21 27  1  0  0  0  0
 22 23  1  0  0  0  0
 22 25  1  0  0  0  0
 23 24  1  0  0  0  0
 25 26  2  0  0  0  0
 26 27  1  0  0  0  0
M  END
>  <CHROM.1>
-85.59049756,-170.56721957,82.59837811,-84.84428612,-104.43691196,-43.80804183
-64.97455946,14.86488506,-7.00938554,-19.19819213,-2.79589799,-1.07039604
-0.59685599

>  <Name>
ligand

>  <RI>
0

>  <Rbt.Current_Directory>
/home/itssahil/PROJECTS/Mol_Feturizer/New_Systems/rnas/3E5F

>  <Rbt.Executable>
rbdock ($Id: //depot/dev/client3/rdock/2013.1/src/exe/rbdock.cxx#4 $)

>  <Rbt.Library>
libRbt.so (2013.1, Build901 2013/11/27)

>  <Rbt.Parameter_File>
/export/apps/rDock/src/rDock_2013.1_src/data/scripts/dock_solv.prm

>  <Rbt.Receptor>
prm/pocket_docking_5.prm

>  <SCORE>
-7.45408

>  <SCORE.INTER>
-10.5862

>  <SCORE.INTER.CONST>
1

>  <SCORE.INTER.POLAR>
0

>  <SCORE.INTER.ROT>
7

>  <SCORE.INTER.SOLV>
8.31661

>  <SCORE.INTER.VDW>
-18.0963

>  <SCORE.INTER.norm>
-0.39208

>  <SCORE.INTRA>
3.13208

>  <SCORE.INTRA.DIHEDRAL>
4.85769

>  <SCORE.INTRA.DIHEDRAL.0>
4.89803

>  <SCORE.INTRA.POLAR>
0

>  <SCORE.INTRA.POLAR.0>
0

>  <SCORE.INTRA.REPUL>
0

>  <SCORE.INTRA.REPUL.0>
0

>  <SCORE.INTRA.SOLV>
3.08672

>  <SCORE.INTRA.SOLV.lig_0>
-48.5832

>  <SCORE.INTRA.VDW>
-0.84012

>  <SCORE.INTRA.VDW.0>
-2.39056

>  <SCORE.INTRA.norm>
0.116003

>  <SCORE.RESTR>
0

>  <SCORE.RESTR.CAVITY>
0

>  <SCORE.RESTR.norm>
0

>  <SCORE.SYSTEM>
0

>  <SCORE.SYSTEM.CONST>
0

>  <SCORE.SYSTEM.DIHEDRAL>
0

>  <SCORE.SYSTEM.SOLV>
0

>  <SCORE.SYSTEM.norm>
0

>  <SCORE.heavy>
27

>  <SCORE.norm>
-0.276077

>  <RMSD>
6.950

$$$$
ligand
 OpenBabel11021811473D
libRbt.so/2013.1/901 2013/11/27
 27 29  0  0  0  0  0  0  0  0999 V2000
    8.7205  -14.3896  -25.0407 N   0  0  0  0  0  0  0  0  0  0  0  0
    9.5451  -14.2932  -23.8273 C   0  0  2  0  0  0  0  0  0  0  0  0
    8.7577  -14.8077  -22.6183 C   0  0  0  0  0  0  0  0  0  0  0  0
    7.5510  -14.4872  -22.5497 O   0  0  0  0  0  0  0  0  0  0  0  0
    9.9178  -12.8272  -23.5992 C   0  0  0  0  0  0  0  0  0  0  0  0
   11.0191  -12.3593  -24.5540 C   0  0  0  0  0  0  0  0  0  0  0  0
   13.2070  -10.5663  -24.8164 C   0  0  0  0  0  0  0  0  0  0  0  0
   11.4507  -10.5773  -24.2498 Se  0  0  2  0  0  0  0  0  0  0  0  0
   11.6473  -10.3533  -22.4147 C   0  0  0  0  0  0  0  0  0  0  0  0
   12.3455  -11.5267  -21.7262 C   0  0  1  0  0  0  0  0  0  0  0  0
   13.7497  -11.2298  -21.6383 O   0  0  0  0  0  0  0  0  0  0  0  0
   11.8636  -11.5529  -20.2752 C   0  0  1  0  0  0  0  0  0  0  0  0
   12.3356  -12.7391  -19.6346 O   0  0  0  0  0  0  0  0  0  0  0  0
   12.6195  -10.3378  -19.7434 C   0  0  1  0  0  0  0  0  0  0  0  0
   12.7293  -10.4495  -18.3233 O   0  0  0  0  0  0  0  0  0  0  0  0
   13.9906  -10.5952  -20.3697 C   0  0  2  0  0  0  0  0  0  0  0  0
    9.3806  -15.5015  -21.7847 O   0  0  0  0  0  0  0  0  0  0  0  0
   15.9327   -7.1029  -23.6373 N   0  0  0  0  0  0  0  0  0  0  0  0
   15.2037   -8.1726  -23.9055 C   0  0  0  0  0  0  0  0  0  0  0  0
   14.7739   -8.9797  -22.9513 N   0  0  0  0  0  0  0  0  0  0  0  0
   15.0656   -8.7323  -21.6654 C   0  0  0  0  0  0  0  0  0  0  0  0
   15.8303   -7.6194  -21.3448 C   0  0  0  0  0  0  0  0  0  0  0  0
   16.2666   -6.7972  -22.3770 C   0  0  0  0  0  0  0  0  0  0  0  0
   17.0333   -5.7437  -22.1132 N   0  0  0  0  0  0  0  0  0  0  0  0
   15.9784   -7.5988  -20.0250 N   0  0  0  0  0  0  0  0  0  0  0  0
   15.3348   -8.6544  -19.5320 C   0  0  0  0  0  0  0  0  0  0  0  0
   14.7766   -9.3486  -20.5239 N   0  0  0  0  0  0  0  0  0  0  0  0
  2  1  1  6  0  0  0
  2  5  1  0  0  0  0
  2  3  1  0  0  0  0
  3 17  1  0  0  0  0
  3  4  1  0  0  0  0
  5  6  1  0  0  0  0
  7  8  1  0  0  0  0
  8  6  1  1  0  0  0
  8  9  1  0  0  0  0
 10  9  1  6  0  0  0
 10 11  1  0  0  0  0
 10 12  1  0  0  0  0
 11 16  1  0  0  0  0
 12 13  1  1  0  0  0
 12 14  1  0  0  0  0
 14 15  1  1  0  0  0
 14 16  1  0  0  0  0
 16 27  1  6  0  0  0
 18 23  2  0  0  0  0
 18 19  1  0  0  0  0
 19 20  2  0  0  0  0
 20 21  1  0  0  0  0
 21 22  2  0  0  0  0
 21 27  1  0  0  0  0
 22 23  1  0  0  0  0
 22 25  1  0  0  0  0
 23 24  1  0  0  0  0
 25 26  2  0  0  0  0
 26 27  1  0  0  0  0
M  END
>  <CHROM.1>
-76.00378360,-40.85600988,-179.89830197,152.44514557,39.23955187,94.10949792
10.30290939,12.57248003,-10.71358494,-22.36480935,3.12922066,0.78386803,1.85836437

>  <Name>
ligand

>  <RI>
0

>  <Rbt.Current_Directory>
/home/itssahil/PROJECTS/Mol_Feturizer/New_Systems/rnas/3E5F

>  <Rbt.Executable>
rbdock ($Id: //depot/dev/client3/rdock/2013.1/src/exe/rbdock.cxx#4 $)

>  <Rbt.Library>
libRbt.so (2013.1, Build901 2013/11/27)

>  <Rbt.Parameter_File>
/export/apps/rDock/src/rDock_2013.1_src/data/scripts/dock_solv.prm

>  <Rbt.Receptor>
prm/blind_docking_60.prm

>  <SCORE>
-15.3166

>  <SCORE.INTER>
-17.3024

>  <SCORE.INTER.CONST>
1

>  <SCORE.INTER.POLAR>
0

>  <SCORE.INTER.ROT>
7

>  <SCORE.INTER.SOLV>
12.9139

>  <SCORE.INTER.VDW>
-24.1062

>  <SCORE.INTER.norm>
-0.64083

>  <SCORE.INTRA>
1.86906

>  <SCORE.INTRA.DIHEDRAL>
2.94226

>  <SCORE.INTRA.DIHEDRAL.0>
4.89803

>  <SCORE.INTRA.POLAR>
0

>  <SCORE.INTRA.POLAR.0>
0

>  <SCORE.INTRA.REPUL>
0

>  <SCORE.INTRA.REPUL.0>
0

>  <SCORE.INTRA.SOLV>
0.750122

>  <SCORE.INTRA.SOLV.lig_0>
-48.5832

>  <SCORE.INTRA.VDW>
0.0228665

>  <SCORE.INTRA.VDW.0>
-2.39056

>  <SCORE.INTRA.norm>
0.0692243

>  <SCORE.RESTR>
0.116763

>  <SCORE.RESTR.CAVITY>
0.116763

>  <SCORE.RESTR.norm>
0.00432455

>  <SCORE.SYSTEM>
0

>  <SCORE.SYSTEM.CONST>
0

>  <SCORE.SYSTEM.DIHEDRAL>
0

>  <SCORE.SYSTEM.SOLV>
0

>  <SCORE.SYSTEM.norm>
0

>  <SCORE.heavy>
27

>  <SCORE.norm>
-0.567281

>  <RMSD>
6.972

$$$$
ligand
 OpenBabel11021811473D
libRbt.so/2013.1/901 2013/11/27
 27 29  0  0  0  0  0  0  0  0999 V2000
   13.3173  -11.7824  -22.6964 N   0  0  0  0  0  0  0  0  0  0  0  0
   12.3732  -10.7634  -23.1781 C   0  0  2  0  0  0  0  0  0  0  0  0
   10.9876  -11.3861  -23.3743 C   0  0  0  0  0  0  0  0  0  0  0  0
   10.0151  -10.6016  -23.4221 O   0  0  0  0  0  0  0  0  0  0  0  0
   12.8752  -10.2191  -24.5166 C   0  0  0  0  0  0  0  0  0  0  0  0
   14.2213   -9.5035  -24.3772 C   0  0  0  0  0  0  0  0  0  0  0  0
   15.5890   -7.0673  -23.8626 C   0  0  0  0  0  0  0  0  0  0  0  0
   14.0497   -7.9547  -23.3640 Se  0  0  2  0  0  0  0  0  0  0  0  0
   14.4264   -8.3956  -21.5976 C   0  0  0  0  0  0  0  0  0  0  0  0
   13.4031   -7.8523  -20.5995 C   0  0  1  0  0  0  0  0  0  0  0  0
   13.9270   -8.0292  -19.2722 O   0  0  0  0  0  0  0  0  0  0  0  0
   13.3415   -6.3367  -20.7930 C   0  0  1  0  0  0  0  0  0  0  0  0
   12.2673   -5.7981  -20.0208 O   0  0  0  0  0  0  0  0  0  0  0  0
   14.6785   -5.9542  -20.1631 C   0  0  1  0  0  0  0  0  0  0  0  0
   14.6281   -4.5802  -19.7750 O   0  0  0  0  0  0  0  0  0  0  0  0
   14.6294   -6.8273  -18.9085 C   0  0  2  0  0  0  0  0  0  0  0  0
   10.9292  -12.6324  -23.4626 O   0  0  0  0  0  0  0  0  0  0  0  0
   19.6765   -5.7744  -19.1586 N   0  0  0  0  0  0  0  0  0  0  0  0
   18.6837   -5.2395  -19.8484 C   0  0  0  0  0  0  0  0  0  0  0  0
   17.4294   -5.6157  -19.6697 N   0  0  0  0  0  0  0  0  0  0  0  0
   17.1223   -6.5614  -18.7690 C   0  0  0  0  0  0  0  0  0  0  0  0
   18.1381   -7.1474  -18.0269 C   0  0  0  0  0  0  0  0  0  0  0  0
   19.4446   -6.7273  -18.2467 C   0  0  0  0  0  0  0  0  0  0  0  0
   20.4485   -7.2922  -17.5831 N   0  0  0  0  0  0  0  0  0  0  0  0
   17.5816   -8.0422  -17.2181 N   0  0  0  0  0  0  0  0  0  0  0  0
   16.2694   -8.0228  -17.4399 C   0  0  0  0  0  0  0  0  0  0  0  0
   15.9822   -7.1242  -18.3819 N   0  0  0  0  0  0  0  0  0  0  0  0
  2  1  1  6  0  0  0
  2  5  1  0  0  0  0
  2  3  1  0  0  0  0
  3 17  1  0  0  0  0
  3  4  1  0  0  0  0
  5  6  1  0  0  0  0
  7  8  1  0  0  0  0
  8  6  1  6  0  0  0
  8  9  1  0  0  0  0
 10  9  1  6  0  0  0
 10 11  1  0  0  0  0
 10 12  1  0  0  0  0
 11 16  1  0  0  0  0
 12 13  1  1  0  0  0
 12 14  1  0  0  0  0
 14 15  1  1  0  0  0
 14 16  1  0  0  0  0
 16 27  1  6  0  0  0
 18 23  2  0  0  0  0
 18 19  1  0  0  0  0
 19 20  2  0  0  0  0
 20 21  1  0  0  0  0
 21 22  2  0  0  0  0
 21 27  1  0  0  0  0
 22 23  1  0  0  0  0
 22 25  1  0  0  0  0
 23 24  1  0  0  0  0
 25 26  2  0  0  0  0
 26 27  1  0  0  0  0
M  END
>  <CHROM.1>
-63.50292343,160.98294585,-66.49554011,-161.28146440,-132.73126106,-169.06674147
129.94926057,14.81198459,-7.92848703,-21.11554294,-3.02712557,-0.82419913
-0.48650678

>  <Name>
ligand

>  <RI>
0

>  <Rbt.Current_Directory>
/home/itssahil/PROJECTS/Mol_Feturizer/New_Systems/rnas/3E5F

>  <Rbt.Executable>
rbdock ($Id: //depot/dev/client3/rdock/2013.1/src/exe/rbdock.cxx#4 $)

>  <Rbt.Library>
libRbt.so (2013.1, Build901 2013/11/27)

>  <Rbt.Parameter_File>
/export/apps/rDock/src/rDock_2013.1_src/data/scripts/dock_solv.prm

>  <Rbt.Receptor>
prm/pocket_docking_6.prm

>  <SCORE>
-12.6076

>  <SCORE.INTER>
-14.1011

>  <SCORE.INTER.CONST>
1

>  <SCORE.INTER.POLAR>
0

>  <SCORE.INTER.ROT>
7

>  <SCORE.INTER.SOLV>
9.37176

>  <SCORE.INTER.VDW>
-20.7913

>  <SCORE.INTER.norm>
-0.522264

>  <SCORE.INTRA>
1.49351

>  <SCORE.INTRA.DIHEDRAL>
1.76489

>  <SCORE.INTRA.DIHEDRAL.0>
4.89803

>  <SCORE.INTRA.POLAR>
0

>  <SCORE.INTRA.POLAR.0>
0

>  <SCORE.INTRA.REPUL>
0

>  <SCORE.INTRA.REPUL.0>
0

>  <SCORE.INTRA.SOLV>
1.68506

>  <SCORE.INTRA.SOLV.lig_0>
-48.5832

>  <SCORE.INTRA.VDW>
-0.231458

>  <SCORE.INTRA.VDW.0>
-2.39056

>  <SCORE.INTRA.norm>
0.0553154

>  <SCORE.RESTR>
0

>  <SCORE.RESTR.CAVITY>
0

>  <SCORE.RESTR.norm>
0

>  <SCORE.SYSTEM>
0

>  <SCORE.SYSTEM.CONST>
0

>  <SCORE.SYSTEM.DIHEDRAL>
0

>  <SCORE.SYSTEM.SOLV>
0

>  <SCORE.SYSTEM.norm>
0

>  <SCORE.heavy>
27

>  <SCORE.norm>
-0.466948

>  <RMSD>
6.973

$$$$
ligand
 OpenBabel11021811473D
libRbt.so/2013.1/901 2013/11/27
 27 29  0  0  0  0  0  0  0  0999 V2000
   16.0337   -7.0042  -22.2933 N   0  0  0  0  0  0  0  0  0  0  0  0
   15.6048   -8.0467  -23.2373 C   0  0  2  0  0  0  0  0  0  0  0  0
   15.5767   -7.4825  -24.6611 C   0  0  0  0  0  0  0  0  0  0  0  0
   15.7544   -8.2937  -25.5959 O   0  0  0  0  0  0  0  0  0  0  0  0
   14.1998   -8.5131  -22.8522 C   0  0  0  0  0  0  0  0  0  0  0  0
   14.2006   -9.3313  -21.5584 C   0  0  0  0  0  0  0  0  0  0  0  0
   12.7403  -10.7383  -19.5689 C   0  0  0  0  0  0  0  0  0  0  0  0
   12.5011   -9.3922  -20.8084 Se  0  0  2  0  0  0  0  0  0  0  0  0
   11.3741  -10.2115  -22.0392 C   0  0  0  0  0  0  0  0  0  0  0  0
   11.9281  -11.5225  -22.5984 C   0  0  1  0  0  0  0  0  0  0  0  0
   11.7334  -12.5528  -21.6143 O   0  0  0  0  0  0  0  0  0  0  0  0
   11.0327  -11.9305  -23.7689 C   0  0  1  0  0  0  0  0  0  0  0  0
   11.6111  -13.0455  -24.4490 O   0  0  0  0  0  0  0  0  0  0  0  0
    9.7988  -12.3788  -22.9896 C   0  0  1  0  0  0  0  0  0  0  0  0
    9.0292  -13.2575  -23.8122 O   0  0  0  0  0  0  0  0  0  0  0  0
   10.4750  -13.1949  -21.8872 C   0  0  2  0  0  0  0  0  0  0  0  0
   15.3881   -6.2522  -24.7839 O   0  0  0  0  0  0  0  0  0  0  0  0
    8.0285  -10.6384  -18.1290 N   0  0  0  0  0  0  0  0  0  0  0  0
    8.7277  -10.1540  -19.1410 C   0  0  0  0  0  0  0  0  0  0  0  0
    9.3002  -10.9432  -20.0332 N   0  0  0  0  0  0  0  0  0  0  0  0
    9.1843  -12.2765  -19.9390 C   0  0  0  0  0  0  0  0  0  0  0  0
    8.4593  -12.8223  -18.8890 C   0  0  0  0  0  0  0  0  0  0  0  0
    7.8756  -11.9592  -17.9692 C   0  0  0  0  0  0  0  0  0  0  0  0
    7.2062  -12.4452  -16.9286 N   0  0  0  0  0  0  0  0  0  0  0  0
    8.4960  -14.1438  -19.0181 N   0  0  0  0  0  0  0  0  0  0  0  0
    9.2142  -14.4216  -20.1036 C   0  0  0  0  0  0  0  0  0  0  0  0
    9.6362  -13.2907  -20.6695 N   0  0  0  0  0  0  0  0  0  0  0  0
  2  1  1  1  0  0  0
  2  5  1  0  0  0  0
  2  3  1  0  0  0  0
  3 17  1  0  0  0  0
  3  4  1  0  0  0  0
  5  6  1  0  0  0  0
  7  8  1  0  0  0  0
  8  6  1  6  0  0  0
  8  9  1  0  0  0  0
 10  9  1  1  0  0  0
 10 11  1  0  0  0  0
 10 12  1  0  0  0  0
 11 16  1  0  0  0  0
 12 13  1  1  0  0  0
 12 14  1  0  0  0  0
 14 15  1  6  0  0  0
 14 16  1  0  0  0  0
 16 27  1  1  0  0  0
 18 23  2  0  0  0  0
 18 19  1  0  0  0  0
 19 20  2  0  0  0  0
 20 21  1  0  0  0  0
 21 22  2  0  0  0  0
 21 27  1  0  0  0  0
 22 23  1  0  0  0  0
 22 25  1  0  0  0  0
 23 24  1  0  0  0  0
 25 26  2  0  0  0  0
 26 27  1  0  0  0  0
M  END
>  <CHROM.1>
-71.05228679,152.60525823,160.74912188,166.71170802,49.14901826,77.97292010
60.64252483,11.54907144,-10.70989463,-21.43584787,-0.10562167,0.76937141
0.99635870

>  <Name>
ligand

>  <RI>
0

>  <Rbt.Current_Directory>
/home/itssahil/PROJECTS/Mol_Feturizer/New_Systems/rnas/3E5F

>  <Rbt.Executable>
rbdock ($Id: //depot/dev/client3/rdock/2013.1/src/exe/rbdock.cxx#4 $)

>  <Rbt.Library>
libRbt.so (2013.1, Build901 2013/11/27)

>  <Rbt.Parameter_File>
/export/apps/rDock/src/rDock_2013.1_src/data/scripts/dock_solv.prm

>  <Rbt.Receptor>
prm/blind_docking_60.prm

>  <SCORE>
-17.0534

>  <SCORE.INTER>
-17.5741

>  <SCORE.INTER.CONST>
1

>  <SCORE.INTER.POLAR>
0

>  <SCORE.INTER.ROT>
7

>  <SCORE.INTER.SOLV>
12.8028

>  <SCORE.INTER.VDW>
-24.2503

>  <SCORE.INTER.norm>
-0.650893

>  <SCORE.INTRA>
0.518696

>  <SCORE.INTRA.DIHEDRAL>
0.978979

>  <SCORE.INTRA.DIHEDRAL.0>
4.89803

>  <SCORE.INTRA.POLAR>
0

>  <SCORE.INTRA.POLAR.0>
0

>  <SCORE.INTRA.REPUL>
0

>  <SCORE.INTRA.REPUL.0>
0

>  <SCORE.INTRA.SOLV>
0.743158

>  <SCORE.INTRA.SOLV.lig_0>
-48.5832

>  <SCORE.INTRA.VDW>
-0.342372

>  <SCORE.INTRA.VDW.0>
-2.39056

>  <SCORE.INTRA.norm>
0.019211

>  <SCORE.RESTR>
0.00196163

>  <SCORE.RESTR.CAVITY>
0.00196163

>  <SCORE.RESTR.norm>
7.26529e-05

>  <SCORE.SYSTEM>
0

>  <SCORE.SYSTEM.CONST>
0

>  <SCORE.SYSTEM.DIHEDRAL>
0

>  <SCORE.SYSTEM.SOLV>
0

>  <SCORE.SYSTEM.norm>
0

>  <SCORE.heavy>
27

>  <SCORE.norm>
-0.631609

>  <RMSD>
6.980

$$$$
ligand
 OpenBabel11021811473D
libRbt.so/2013.1/901 2013/11/27
 27 29  0  0  0  0  0  0  0  0999 V2000
   11.5377  -12.3003  -22.6545 N   0  0  0  0  0  0  0  0  0  0  0  0
   12.8868  -12.3421  -22.0715 C   0  0  2  0  0  0  0  0  0  0  0  0
   12.7943  -12.3807  -20.5430 C   0  0  0  0  0  0  0  0  0  0  0  0
   11.6570  -12.2486  -20.0404 O   0  0  0  0  0  0  0  0  0  0  0  0
   13.6480  -11.0860  -22.4988 C   0  0  0  0  0  0  0  0  0  0  0  0
   12.8885   -9.8053  -22.1432 C   0  0  0  0  0  0  0  0  0  0  0  0
   14.4926   -8.5566  -24.1277 C   0  0  0  0  0  0  0  0  0  0  0  0
   13.9636   -8.3073  -22.3774 Se  0  0  2  0  0  0  0  0  0  0  0  0
   15.5519   -8.6078  -21.4591 C   0  0  0  0  0  0  0  0  0  0  0  0
   16.3727   -7.3391  -21.2245 C   0  0  1  0  0  0  0  0  0  0  0  0
   15.6517   -6.4960  -20.3096 O   0  0  0  0  0  0  0  0  0  0  0  0
   17.6332   -7.7491  -20.4621 C   0  0  1  0  0  0  0  0  0  0  0  0
   18.5271   -6.6379  -20.3807 O   0  0  0  0  0  0  0  0  0  0  0  0
   17.0147   -8.0212  -19.0931 C   0  0  1  0  0  0  0  0  0  0  0  0
   18.0379   -7.9324  -18.1000 O   0  0  0  0  0  0  0  0  0  0  0  0
   16.1021   -6.7995  -18.9773 C   0  0  2  0  0  0  0  0  0  0  0  0
   13.8625  -12.5317  -19.9102 O   0  0  0  0  0  0  0  0  0  0  0  0
   12.0449   -9.7751  -17.8241 N   0  0  0  0  0  0  0  0  0  0  0  0
   12.9133   -9.9054  -18.8122 C   0  0  0  0  0  0  0  0  0  0  0  0
   13.9115   -9.0553  -18.9790 N   0  0  0  0  0  0  0  0  0  0  0  0
   14.0770   -8.0236  -18.1375 C   0  0  0  0  0  0  0  0  0  0  0  0
   13.1841   -7.8530  -17.0889 C   0  0  0  0  0  0  0  0  0  0  0  0
   12.1454   -8.7659  -16.9495 C   0  0  0  0  0  0  0  0  0  0  0  0
   11.2479   -8.6137  -15.9808 N   0  0  0  0  0  0  0  0  0  0  0  0
   13.5594   -6.7736  -16.4117 N   0  0  0  0  0  0  0  0  0  0  0  0
   14.6435   -6.2825  -17.0074 C   0  0  0  0  0  0  0  0  0  0  0  0
   14.9648   -7.0377  -18.0580 N   0  0  0  0  0  0  0  0  0  0  0  0
  2  1  1  6  0  0  0
  2  5  1  0  0  0  0
  2  3  1  0  0  0  0
  3 17  1  0  0  0  0
  3  4  1  0  0  0  0
  5  6  1  0  0  0  0
  7  8  1  0  0  0  0
  8  6  1  1  0  0  0
  8  9  1  0  0  0  0
 10  9  1  1  0  0  0
 10 11  1  0  0  0  0
 10 12  1  0  0  0  0
 11 16  1  0  0  0  0
 12 13  1  1  0  0  0
 12 14  1  0  0  0  0
 14 15  1  1  0  0  0
 14 16  1  0  0  0  0
 16 27  1  1  0  0  0
 18 23  2  0  0  0  0
 18 19  1  0  0  0  0
 19 20  2  0  0  0  0
 20 21  1  0  0  0  0
 21 22  2  0  0  0  0
 21 27  1  0  0  0  0
 22 23  1  0  0  0  0
 22 25  1  0  0  0  0
 23 24  1  0  0  0  0
 25 26  2  0  0  0  0
 26 27  1  0  0  0  0
M  END
>  <CHROM.1>
54.62767319,-6.34185022,169.33242975,54.11627262,-163.81064686,67.34917767
64.05443851,14.26205323,-8.85307884,-20.13721177,2.32387028,-0.70597104,-1.91926288

>  <Name>
ligand

>  <RI>
0

>  <Rbt.Current_Directory>
/home/itssahil/PROJECTS/Mol_Feturizer/New_Systems/rnas/3E5F

>  <Rbt.Executable>
rbdock ($Id: //depot/dev/client3/rdock/2013.1/src/exe/rbdock.cxx#4 $)

>  <Rbt.Library>
libRbt.so (2013.1, Build901 2013/11/27)

>  <Rbt.Parameter_File>
/export/apps/rDock/src/rDock_2013.1_src/data/scripts/dock_solv.prm

>  <Rbt.Receptor>
prm/pocket_docking_4.prm

>  <SCORE>
-11.4609

>  <SCORE.INTER>
-11.4735

>  <SCORE.INTER.CONST>
1

>  <SCORE.INTER.POLAR>
0

>  <SCORE.INTER.ROT>
7

>  <SCORE.INTER.SOLV>
8.36968

>  <SCORE.INTER.VDW>
-18.7055

>  <SCORE.INTER.norm>
-0.424943

>  <SCORE.INTRA>
0.0125238

>  <SCORE.INTRA.DIHEDRAL>
-0.463629

>  <SCORE.INTRA.DIHEDRAL.0>
4.89803

>  <SCORE.INTRA.POLAR>
0

>  <SCORE.INTRA.POLAR.0>
0

>  <SCORE.INTRA.REPUL>
0

>  <SCORE.INTRA.REPUL.0>
0

>  <SCORE.INTRA.SOLV>
0.708513

>  <SCORE.INTRA.SOLV.lig_0>
-48.5832

>  <SCORE.INTRA.VDW>
-0.109918

>  <SCORE.INTRA.VDW.0>
-2.39056

>  <SCORE.INTRA.norm>
0.000463843

>  <SCORE.RESTR>
0

>  <SCORE.RESTR.CAVITY>
0

>  <SCORE.RESTR.norm>
0

>  <SCORE.SYSTEM>
0

>  <SCORE.SYSTEM.CONST>
0

>  <SCORE.SYSTEM.DIHEDRAL>
0

>  <SCORE.SYSTEM.SOLV>
0

>  <SCORE.SYSTEM.norm>
0

>  <SCORE.heavy>
27

>  <SCORE.norm>
-0.42448

>  <RMSD>
6.983

$$$$
ligand
 OpenBabel11021811473D
libRbt.so/2013.1/901 2013/11/27
 27 29  0  0  0  0  0  0  0  0999 V2000
   11.9450  -11.7309  -24.1344 N   0  0  0  0  0  0  0  0  0  0  0  0
   13.2896  -11.6848  -23.5414 C   0  0  2  0  0  0  0  0  0  0  0  0
   13.3241  -12.5223  -22.2593 C   0  0  0  0  0  0  0  0  0  0  0  0
   12.2626  -12.5977  -21.6028 O   0  0  0  0  0  0  0  0  0  0  0  0
   13.6304  -10.2322  -23.2038 C   0  0  0  0  0  0  0  0  0  0  0  0
   13.9209   -9.4040  -24.4581 C   0  0  0  0  0  0  0  0  0  0  0  0
   15.6848   -7.3760  -25.3780 C   0  0  0  0  0  0  0  0  0  0  0  0
   14.4890   -7.6924  -24.0084 Se  0  0  2  0  0  0  0  0  0  0  0  0
   15.6261   -7.8451  -22.5455 C   0  0  0  0  0  0  0  0  0  0  0  0
   16.1768   -6.5052  -22.0558 C   0  0  1  0  0  0  0  0  0  0  0  0
   15.2897   -5.9926  -21.0468 O   0  0  0  0  0  0  0  0  0  0  0  0
   17.4816   -6.7955  -21.3132 C   0  0  1  0  0  0  0  0  0  0  0  0
   18.1373   -5.5663  -20.9977 O   0  0  0  0  0  0  0  0  0  0  0  0
   16.9081   -7.4205  -20.0440 C   0  0  1  0  0  0  0  0  0  0  0  0
   17.8783   -7.3159  -19.0005 O   0  0  0  0  0  0  0  0  0  0  0  0
   15.7708   -6.4368  -19.7657 C   0  0  2  0  0  0  0  0  0  0  0  0
   14.4122  -13.0606  -21.9583 O   0  0  0  0  0  0  0  0  0  0  0  0
   12.8207  -10.5956  -18.9620 N   0  0  0  0  0  0  0  0  0  0  0  0
   13.7777  -10.4194  -19.8568 C   0  0  0  0  0  0  0  0  0  0  0  0
   14.4531   -9.2864  -19.9404 N   0  0  0  0  0  0  0  0  0  0  0  0
   14.1863   -8.2698  -19.1067 C   0  0  0  0  0  0  0  0  0  0  0  0
   13.1870   -8.4168  -18.1550 C   0  0  0  0  0  0  0  0  0  0  0  0
   12.4969   -9.6220  -18.1014 C   0  0  0  0  0  0  0  0  0  0  0  0
   11.5072   -9.7868  -17.2292 N   0  0  0  0  0  0  0  0  0  0  0  0
   13.1179   -7.2839  -17.4649 N   0  0  0  0  0  0  0  0  0  0  0  0
   14.0346   -6.4555  -17.9599 C   0  0  0  0  0  0  0  0  0  0  0  0
   14.6888   -7.0483  -18.9588 N   0  0  0  0  0  0  0  0  0  0  0  0
  2  1  1  1  0  0  0
  2  5  1  0  0  0  0
  2  3  1  0  0  0  0
  3 17  1  0  0  0  0
  3  4  1  0  0  0  0
  5  6  1  0  0  0  0
  7  8  1  0  0  0  0
  8  6  1  6  0  0  0
  8  9  1  0  0  0  0
 10  9  1  1  0  0  0
 10 11  1  0  0  0  0
 10 12  1  0  0  0  0
 11 16  1  0  0  0  0
 12 13  1  1  0  0  0
 12 14  1  0  0  0  0
 14 15  1  1  0  0  0
 14 16  1  0  0  0  0
 16 27  1  6  0  0  0
 18 23  2  0  0  0  0
 18 19  1  0  0  0  0
 19 20  2  0  0  0  0
 20 21  1  0  0  0  0
 21 22  2  0  0  0  0
 21 27  1  0  0  0  0
 22 23  1  0  0  0  0
 22 25  1  0  0  0  0
 23 24  1  0  0  0  0
 25 26  2  0  0  0  0
 26 27  1  0  0  0  0
M  END
>  <CHROM.1>
-72.69975283,-30.62002662,-174.55730716,145.85396092,-179.90781197,91.28363212
77.57761923,14.50526197,-8.62541292,-21.37345158,2.36581734,-0.93365110,-1.78845441

>  <Name>
ligand

>  <RI>
0

>  <Rbt.Current_Directory>
/home/itssahil/PROJECTS/Mol_Feturizer/New_Systems/rnas/3E5F

>  <Rbt.Executable>
rbdock ($Id: //depot/dev/client3/rdock/2013.1/src/exe/rbdock.cxx#4 $)

>  <Rbt.Library>
libRbt.so (2013.1, Build901 2013/11/27)

>  <Rbt.Parameter_File>
/export/apps/rDock/src/rDock_2013.1_src/data/scripts/dock_solv.prm

>  <Rbt.Receptor>
prm/pocket_docking_5.prm

>  <SCORE>
-15.0612

>  <SCORE.INTER>
-15.6523

>  <SCORE.INTER.CONST>
1

>  <SCORE.INTER.POLAR>
0

>  <SCORE.INTER.ROT>
7

>  <SCORE.INTER.SOLV>
14.2094

>  <SCORE.INTER.VDW>
-23.438

>  <SCORE.INTER.norm>
-0.579715

>  <SCORE.INTRA>
0.591129

>  <SCORE.INTRA.DIHEDRAL>
2.50387

>  <SCORE.INTRA.DIHEDRAL.0>
4.89803

>  <SCORE.INTRA.POLAR>
0

>  <SCORE.INTRA.POLAR.0>
0

>  <SCORE.INTRA.REPUL>
0

>  <SCORE.INTRA.REPUL.0>
0

>  <SCORE.INTRA.SOLV>
0.558866

>  <SCORE.INTRA.SOLV.lig_0>
-48.5832

>  <SCORE.INTRA.VDW>
-0.940237

>  <SCORE.INTRA.VDW.0>
-2.39056

>  <SCORE.INTRA.norm>
0.0218937

>  <SCORE.RESTR>
0

>  <SCORE.RESTR.CAVITY>
0

>  <SCORE.RESTR.norm>
0

>  <SCORE.SYSTEM>
0

>  <SCORE.SYSTEM.CONST>
0

>  <SCORE.SYSTEM.DIHEDRAL>
0

>  <SCORE.SYSTEM.SOLV>
0

>  <SCORE.SYSTEM.norm>
0

>  <SCORE.heavy>
27

>  <SCORE.norm>
-0.557822

>  <RMSD>
6.992

$$$$
ligand
 OpenBabel11021811473D
libRbt.so/2013.1/901 2013/11/27
 27 29  0  0  0  0  0  0  0  0999 V2000
   12.0703  -11.2927  -22.3800 N   0  0  0  0  0  0  0  0  0  0  0  0
   13.2696  -11.0823  -21.5559 C   0  0  2  0  0  0  0  0  0  0  0  0
   12.9194  -11.2431  -20.0734 C   0  0  0  0  0  0  0  0  0  0  0  0
   13.5920  -12.0690  -19.4184 O   0  0  0  0  0  0  0  0  0  0  0  0
   13.7932   -9.6659  -21.7994 C   0  0  0  0  0  0  0  0  0  0  0  0
   15.0201   -9.3514  -20.9395 C   0  0  0  0  0  0  0  0  0  0  0  0
   17.1007   -7.5837  -20.1542 C   0  0  0  0  0  0  0  0  0  0  0  0
   15.7917   -7.7381  -21.4458 Se  0  0  2  0  0  0  0  0  0  0  0  0
   14.6210   -6.3789  -20.9578 C   0  0  0  0  0  0  0  0  0  0  0  0
   13.3028   -6.8872  -20.3726 C   0  0  1  0  0  0  0  0  0  0  0  0
   13.5148   -7.2031  -18.9859 O   0  0  0  0  0  0  0  0  0  0  0  0
   12.3292   -5.7082  -20.3569 C   0  0  1  0  0  0  0  0  0  0  0  0
   11.0253   -6.1680  -19.9977 O   0  0  0  0  0  0  0  0  0  0  0  0
   12.9335   -4.9060  -19.2072 C   0  0  1  0  0  0  0  0  0  0  0  0
   11.9328   -4.0342  -18.6783 O   0  0  0  0  0  0  0  0  0  0  0  0
   13.1845   -6.0376  -18.2097 C   0  0  2  0  0  0  0  0  0  0  0  0
   11.9817  -10.5447  -19.6294 O   0  0  0  0  0  0  0  0  0  0  0  0
   17.5202   -7.5907  -15.8784 N   0  0  0  0  0  0  0  0  0  0  0  0
   16.7890   -8.2277  -16.7769 C   0  0  0  0  0  0  0  0  0  0  0  0
   15.6937   -7.6940  -17.2888 N   0  0  0  0  0  0  0  0  0  0  0  0
   15.2879   -6.4728  -16.9093 C   0  0  0  0  0  0  0  0  0  0  0  0
   16.0287   -5.7739  -15.9666 C   0  0  0  0  0  0  0  0  0  0  0  0
   17.1723   -6.3708  -15.4492 C   0  0  0  0  0  0  0  0  0  0  0  0
   17.8865   -5.7490  -14.5161 N   0  0  0  0  0  0  0  0  0  0  0  0
   15.4250   -4.6084  -15.7630 N   0  0  0  0  0  0  0  0  0  0  0  0
   14.3477   -4.5723  -16.5438 C   0  0  0  0  0  0  0  0  0  0  0  0
   14.2578   -5.7029  -17.2445 N   0  0  0  0  0  0  0  0  0  0  0  0
  2  1  1  6  0  0  0
  2  5  1  0  0  0  0
  2  3  1  0  0  0  0
  3 17  1  0  0  0  0
  3  4  1  0  0  0  0
  5  6  1  0  0  0  0
  7  8  1  0  0  0  0
  8  6  1  1  0  0  0
  8  9  1  0  0  0  0
 10  9  1  1  0  0  0
 10 11  1  0  0  0  0
 10 12  1  0  0  0  0
 11 16  1  0  0  0  0
 12 13  1  1  0  0  0
 12 14  1  0  0  0  0
 14 15  1  1  0  0  0
 14 16  1  0  0  0  0
 16 27  1  1  0  0  0
 18 23  2  0  0  0  0
 18 19  1  0  0  0  0
 19 20  2  0  0  0  0
 20 21  1  0  0  0  0
 21 22  2  0  0  0  0
 21 27  1  0  0  0  0
 22 23  1  0  0  0  0
 22 25  1  0  0  0  0
 23 24  1  0  0  0  0
 25 26  2  0  0  0  0
 26 27  1  0  0  0  0
M  END
>  <CHROM.1>
178.12997001,125.22190323,171.03231885,175.04226990,-4.17538036,81.64602729
-12.32326786,14.55516882,-7.50530946,-19.21129856,1.99415226,0.58003435,-2.50053090

>  <Name>
ligand

>  <RI>
0

>  <Rbt.Current_Directory>
/home/itssahil/PROJECTS/Mol_Feturizer/New_Systems/rnas/3E5F

>  <Rbt.Executable>
rbdock ($Id: //depot/dev/client3/rdock/2013.1/src/exe/rbdock.cxx#4 $)

>  <Rbt.Library>
libRbt.so (2013.1, Build901 2013/11/27)

>  <Rbt.Parameter_File>
/export/apps/rDock/src/rDock_2013.1_src/data/scripts/dock_solv.prm

>  <Rbt.Receptor>
prm/pocket_docking_5.prm

>  <SCORE>
-7.07615

>  <SCORE.INTER>
-7.91993

>  <SCORE.INTER.CONST>
1

>  <SCORE.INTER.POLAR>
0

>  <SCORE.INTER.ROT>
7

>  <SCORE.INTER.SOLV>
8.01053

>  <SCORE.INTER.VDW>
-16.2168

>  <SCORE.INTER.norm>
-0.293331

>  <SCORE.INTRA>
0.843778

>  <SCORE.INTRA.DIHEDRAL>
2.04243

>  <SCORE.INTRA.DIHEDRAL.0>
4.89803

>  <SCORE.INTRA.POLAR>
0

>  <SCORE.INTRA.POLAR.0>
0

>  <SCORE.INTRA.REPUL>
0

>  <SCORE.INTRA.REPUL.0>
0

>  <SCORE.INTRA.SOLV>
0.259049

>  <SCORE.INTRA.SOLV.lig_0>
-48.5832

>  <SCORE.INTRA.VDW>
-0.306963

>  <SCORE.INTRA.VDW.0>
-2.39056

>  <SCORE.INTRA.norm>
0.031251

>  <SCORE.RESTR>
0

>  <SCORE.RESTR.CAVITY>
0

>  <SCORE.RESTR.norm>
0

>  <SCORE.SYSTEM>
0

>  <SCORE.SYSTEM.CONST>
0

>  <SCORE.SYSTEM.DIHEDRAL>
0

>  <SCORE.SYSTEM.SOLV>
0

>  <SCORE.SYSTEM.norm>
0

>  <SCORE.heavy>
27

>  <SCORE.norm>
-0.26208

>  <RMSD>
6.996

$$$$
ligand
 OpenBabel11021811473D
libRbt.so/2013.1/901 2013/11/27
 27 29  0  0  0  0  0  0  0  0999 V2000
   10.2770  -12.3387  -21.7259 N   0  0  0  0  0  0  0  0  0  0  0  0
   10.3929  -12.1612  -23.1809 C   0  0  2  0  0  0  0  0  0  0  0  0
    9.3045  -12.9693  -23.8941 C   0  0  0  0  0  0  0  0  0  0  0  0
    9.0898  -12.6947  -25.0949 O   0  0  0  0  0  0  0  0  0  0  0  0
   11.7673  -12.6599  -23.6308 C   0  0  0  0  0  0  0  0  0  0  0  0
   12.9060  -11.9331  -22.9107 C   0  0  0  0  0  0  0  0  0  0  0  0
   13.2571   -9.9380  -24.9024 C   0  0  0  0  0  0  0  0  0  0  0  0
   12.7650  -10.0929  -23.1305 Se  0  0  2  0  0  0  0  0  0  0  0  0
   14.2157   -9.3124  -22.2688 C   0  0  0  0  0  0  0  0  0  0  0  0
   14.2893   -9.6387  -20.7766 C   0  0  1  0  0  0  0  0  0  0  0  0
   15.4937   -9.0601  -20.2453 O   0  0  0  0  0  0  0  0  0  0  0  0
   13.1567   -8.8752  -20.0892 C   0  0  1  0  0  0  0  0  0  0  0  0
   13.0584   -9.2887  -18.7255 O   0  0  0  0  0  0  0  0  0  0  0  0
   13.7313   -7.4628  -20.1650 C   0  0  1  0  0  0  0  0  0  0  0  0
   13.1067   -6.6576  -19.1637 O   0  0  0  0  0  0  0  0  0  0  0  0
   15.1730   -7.7502  -19.7439 C   0  0  2  0  0  0  0  0  0  0  0  0
    8.7046  -13.8366  -23.2217 O   0  0  0  0  0  0  0  0  0  0  0  0
   15.8145   -2.8596  -21.2655 N   0  0  0  0  0  0  0  0  0  0  0  0
   14.7176   -3.4539  -20.8285 C   0  0  0  0  0  0  0  0  0  0  0  0
   14.7100   -4.7260  -20.4703 N   0  0  0  0  0  0  0  0  0  0  0  0
   15.8307   -5.4605  -20.5373 C   0  0  0  0  0  0  0  0  0  0  0  0
   17.0019   -4.8717  -20.9929 C   0  0  0  0  0  0  0  0  0  0  0  0
   16.9681   -3.5326  -21.3638 C   0  0  0  0  0  0  0  0  0  0  0  0
   18.0602   -2.9440  -21.8415 N   0  0  0  0  0  0  0  0  0  0  0  0
   17.9548   -5.7968  -20.9666 N   0  0  0  0  0  0  0  0  0  0  0  0
   17.4088   -6.9230  -20.5138 C   0  0  0  0  0  0  0  0  0  0  0  0
   16.1169   -6.7262  -20.2502 N   0  0  0  0  0  0  0  0  0  0  0  0
  2  1  1  1  0  0  0
  2  5  1  0  0  0  0
  2  3  1  0  0  0  0
  3 17  1  0  0  0  0
  3  4  1  0  0  0  0
  5  6  1  0  0  0  0
  7  8  1  0  0  0  0
  8  6  1  1  0  0  0
  8  9  1  0  0  0  0
 10  9  1  6  0  0  0
 10 11  1  0  0  0  0
 10 12  1  0  0  0  0
 11 16  1  0  0  0  0
 12 13  1  1  0  0  0
 12 14  1  0  0  0  0
 14 15  1  1  0  0  0
 14 16  1  0  0  0  0
 16 27  1  6  0  0  0
 18 23  2  0  0  0  0
 18 19  1  0  0  0  0
 19 20  2  0  0  0  0
 20 21  1  0  0  0  0
 21 22  2  0  0  0  0
 21 27  1  0  0  0  0
 22 23  1  0  0  0  0
 22 25  1  0  0  0  0
 23 24  1  0  0  0  0
 25 26  2  0  0  0  0
 26 27  1  0  0  0  0
M  END
>  <CHROM.1>
-57.57277573,164.82566868,-55.48069760,-72.48418740,-58.92069245,176.07531149
146.15595734,13.65359019,-8.65952131,-21.80245103,2.81412159,-0.90552333
-1.62636474

>  <Name>
ligand

>  <RI>
0

>  <Rbt.Current_Directory>
/home/itssahil/PROJECTS/Mol_Feturizer/New_Systems/rnas/3E5F

>  <Rbt.Executable>
rbdock ($Id: //depot/dev/client3/rdock/2013.1/src/exe/rbdock.cxx#4 $)

>  <Rbt.Library>
libRbt.so (2013.1, Build901 2013/11/27)

>  <Rbt.Parameter_File>
/export/apps/rDock/src/rDock_2013.1_src/data/scripts/dock_solv.prm

>  <Rbt.Receptor>
prm/blind_docking_40.prm

>  <SCORE>
-13.2893

>  <SCORE.INTER>
-13.3621

>  <SCORE.INTER.CONST>
1

>  <SCORE.INTER.POLAR>
0

>  <SCORE.INTER.ROT>
7

>  <SCORE.INTER.SOLV>
18.5796

>  <SCORE.INTER.VDW>
-23.3679

>  <SCORE.INTER.norm>
-0.494892

>  <SCORE.INTRA>
0.0727828

>  <SCORE.INTRA.DIHEDRAL>
-1.60258

>  <SCORE.INTRA.DIHEDRAL.0>
4.89803

>  <SCORE.INTRA.POLAR>
0

>  <SCORE.INTRA.POLAR.0>
0

>  <SCORE.INTRA.REPUL>
0

>  <SCORE.INTRA.REPUL.0>
0

>  <SCORE.INTRA.SOLV>
1.09552

>  <SCORE.INTRA.SOLV.lig_0>
-48.5832

>  <SCORE.INTRA.VDW>
0.326314

>  <SCORE.INTRA.VDW.0>
-2.39056

>  <SCORE.INTRA.norm>
0.00269566

>  <SCORE.RESTR>
0

>  <SCORE.RESTR.CAVITY>
0

>  <SCORE.RESTR.norm>
0

>  <SCORE.SYSTEM>
0

>  <SCORE.SYSTEM.CONST>
0

>  <SCORE.SYSTEM.DIHEDRAL>
0

>  <SCORE.SYSTEM.SOLV>
0

>  <SCORE.SYSTEM.norm>
0

>  <SCORE.heavy>
27

>  <SCORE.norm>
-0.492196

>  <RMSD>
7.005

$$$$
ligand
 OpenBabel11021811473D
libRbt.so/2013.1/901 2013/11/27
 27 29  0  0  0  0  0  0  0  0999 V2000
   11.0986  -11.8699  -22.1943 N   0  0  0  0  0  0  0  0  0  0  0  0
   12.2874  -11.5393  -22.9940 C   0  0  2  0  0  0  0  0  0  0  0  0
   13.4661  -12.4186  -22.5656 C   0  0  0  0  0  0  0  0  0  0  0  0
   14.1130  -12.9823  -23.4752 O   0  0  0  0  0  0  0  0  0  0  0  0
   12.6445  -10.0700  -22.7629 C   0  0  0  0  0  0  0  0  0  0  0  0
   13.6809   -9.5655  -23.7703 C   0  0  0  0  0  0  0  0  0  0  0  0
   15.3875   -7.5077  -24.7311 C   0  0  0  0  0  0  0  0  0  0  0  0
   14.3735   -7.9223  -23.2461 Se  0  0  2  0  0  0  0  0  0  0  0  0
   15.6885   -8.2484  -21.9730 C   0  0  0  0  0  0  0  0  0  0  0  0
   16.3759   -6.9806  -21.4645 C   0  0  1  0  0  0  0  0  0  0  0  0
   15.4707   -6.2984  -20.5796 O   0  0  0  0  0  0  0  0  0  0  0  0
   17.5346   -7.4211  -20.5691 C   0  0  1  0  0  0  0  0  0  0  0  0
   18.3276   -6.2860  -20.2183 O   0  0  0  0  0  0  0  0  0  0  0  0
   16.7400   -7.8965  -19.3554 C   0  0  1  0  0  0  0  0  0  0  0  0
   17.5959   -7.8843  -18.2115 O   0  0  0  0  0  0  0  0  0  0  0  0
   15.7383   -6.7469  -19.2390 C   0  0  2  0  0  0  0  0  0  0  0  0
   13.6893  -12.5161  -21.3388 O   0  0  0  0  0  0  0  0  0  0  0  0
   10.5795   -6.8820  -19.3527 N   0  0  0  0  0  0  0  0  0  0  0  0
   11.4154   -6.3964  -20.2544 C   0  0  0  0  0  0  0  0  0  0  0  0
   12.7252   -6.4360  -20.0828 N   0  0  0  0  0  0  0  0  0  0  0  0
   13.2522   -6.9802  -18.9755 C   0  0  0  0  0  0  0  0  0  0  0  0
   12.4061   -7.4988  -18.0053 C   0  0  0  0  0  0  0  0  0  0  0  0
   11.0346   -7.4348  -18.2211 C   0  0  0  0  0  0  0  0  0  0  0  0
   10.1914   -7.8860  -17.2977 N   0  0  0  0  0  0  0  0  0  0  0  0
   13.1631   -7.9711  -17.0212 N   0  0  0  0  0  0  0  0  0  0  0  0
   14.4340   -7.7594  -17.3551 C   0  0  0  0  0  0  0  0  0  0  0  0
   14.4963   -7.1573  -18.5429 N   0  0  0  0  0  0  0  0  0  0  0  0
  2  1  1  1  0  0  0
  2  5  1  0  0  0  0
  2  3  1  0  0  0  0
  3 17  1  0  0  0  0
  3  4  1  0  0  0  0
  5  6  1  0  0  0  0
  7  8  1  0  0  0  0
  8  6  1  6  0  0  0
  8  9  1  0  0  0  0
 10  9  1  1  0  0  0
 10 11  1  0  0  0  0
 10 12  1  0  0  0  0
 11 16  1  0  0  0  0
 12 13  1  1  0  0  0
 12 14  1  0  0  0  0
 14 15  1  1  0  0  0
 14 16  1  0  0  0  0
 16 27  1  6  0  0  0
 18 23  2  0  0  0  0
 18 19  1  0  0  0  0
 19 20  2  0  0  0  0
 20 21  1  0  0  0  0
 21 22  2  0  0  0  0
 21 27  1  0  0  0  0
 22 23  1  0  0  0  0
 22 25  1  0  0  0  0
 23 24  1  0  0  0  0
 25 26  2  0  0  0  0
 26 27  1  0  0  0  0
M  END
>  <CHROM.1>
-168.03380992,131.75315494,-167.34978782,-173.12229012,178.78447710,74.45138611
-9.11672799,14.11464681,-8.34926065,-20.96598823,1.70335138,-0.45273594,-2.16643207

>  <Name>
ligand

>  <RI>
0

>  <Rbt.Current_Directory>
/home/itssahil/PROJECTS/Mol_Feturizer/New_Systems/rnas/3E5F

>  <Rbt.Executable>
rbdock ($Id: //depot/dev/client3/rdock/2013.1/src/exe/rbdock.cxx#4 $)

>  <Rbt.Library>
libRbt.so (2013.1, Build901 2013/11/27)

>  <Rbt.Parameter_File>
/export/apps/rDock/src/rDock_2013.1_src/data/scripts/dock_solv.prm

>  <Rbt.Receptor>
prm/pocket_docking_3.prm

>  <SCORE>
-16.2572

>  <SCORE.INTER>
-16.2373

>  <SCORE.INTER.CONST>
1

>  <SCORE.INTER.POLAR>
0

>  <SCORE.INTER.ROT>
7

>  <SCORE.INTER.SOLV>
6.76482

>  <SCORE.INTER.VDW>
-21.3464

>  <SCORE.INTER.norm>
-0.60138

>  <SCORE.INTRA>
-0.0329264

>  <SCORE.INTRA.DIHEDRAL>
0.260753

>  <SCORE.INTRA.DIHEDRAL.0>
4.89803

>  <SCORE.INTRA.POLAR>
0

>  <SCORE.INTRA.POLAR.0>
0

>  <SCORE.INTRA.REPUL>
0

>  <SCORE.INTRA.REPUL.0>
0

>  <SCORE.INTRA.SOLV>
0.0598498

>  <SCORE.INTRA.SOLV.lig_0>
-48.5832

>  <SCORE.INTRA.VDW>
-0.193228

>  <SCORE.INTRA.VDW.0>
-2.39056

>  <SCORE.INTRA.norm>
-0.0012195

>  <SCORE.RESTR>
0.0129626

>  <SCORE.RESTR.CAVITY>
0.0129626

>  <SCORE.RESTR.norm>
0.000480095

>  <SCORE.SYSTEM>
0

>  <SCORE.SYSTEM.CONST>
0

>  <SCORE.SYSTEM.DIHEDRAL>
0

>  <SCORE.SYSTEM.SOLV>
0

>  <SCORE.SYSTEM.norm>
0

>  <SCORE.heavy>
27

>  <SCORE.norm>
-0.602119

>  <RMSD>
7.006

$$$$
ligand
 OpenBabel11021811473D
libRbt.so/2013.1/901 2013/11/27
 27 29  0  0  0  0  0  0  0  0999 V2000
    7.1208  -12.5406  -19.9567 N   0  0  0  0  0  0  0  0  0  0  0  0
    7.4320  -13.9731  -19.8434 C   0  0  2  0  0  0  0  0  0  0  0  0
    6.2595  -14.7124  -19.1915 C   0  0  0  0  0  0  0  0  0  0  0  0
    6.1469  -15.9317  -19.4447 O   0  0  0  0  0  0  0  0  0  0  0  0
    8.6791  -14.1397  -18.9734 C   0  0  0  0  0  0  0  0  0  0  0  0
    9.9683  -14.0452  -19.7935 C   0  0  0  0  0  0  0  0  0  0  0  0
    9.5337  -13.2659  -22.4906 C   0  0  0  0  0  0  0  0  0  0  0  0
    9.9691  -12.5221  -20.8588 Se  0  0  2  0  0  0  0  0  0  0  0  0
   11.7409  -12.0297  -21.1318 C   0  0  0  0  0  0  0  0  0  0  0  0
   12.5179  -11.7960  -19.8356 C   0  0  1  0  0  0  0  0  0  0  0  0
   13.8141  -11.2725  -20.1727 O   0  0  0  0  0  0  0  0  0  0  0  0
   11.8223  -10.6570  -19.0891 C   0  0  1  0  0  0  0  0  0  0  0  0
   12.3897  -10.5215  -17.7852 O   0  0  0  0  0  0  0  0  0  0  0  0
   12.2541   -9.4867  -19.9692 C   0  0  1  0  0  0  0  0  0  0  0  0
   12.1531   -8.2796  -19.2118 O   0  0  0  0  0  0  0  0  0  0  0  0
   13.7315   -9.8362  -20.1529 C   0  0  2  0  0  0  0  0  0  0  0  0
    5.4961  -14.0415  -18.4625 O   0  0  0  0  0  0  0  0  0  0  0  0
   13.3896   -9.4249  -25.2870 N   0  0  0  0  0  0  0  0  0  0  0  0
   12.6186  -10.1069  -24.4576 C   0  0  0  0  0  0  0  0  0  0  0  0
   12.8333  -10.1140  -23.1535 N   0  0  0  0  0  0  0  0  0  0  0  0
   13.8513   -9.4175  -22.6258 C   0  0  0  0  0  0  0  0  0  0  0  0
   14.6837   -8.6905  -23.4652 C   0  0  0  0  0  0  0  0  0  0  0  0
   14.4272   -8.7115  -24.8311 C   0  0  0  0  0  0  0  0  0  0  0  0
   15.2252   -8.0592  -25.6707 N   0  0  0  0  0  0  0  0  0  0  0  0
   15.6019   -8.0994  -22.7090 N   0  0  0  0  0  0  0  0  0  0  0  0
   15.3604   -8.4388  -21.4449 C   0  0  0  0  0  0  0  0  0  0  0  0
   14.2967   -9.2403  -21.3862 N   0  0  0  0  0  0  0  0  0  0  0  0
  2  1  1  1  0  0  0
  2  5  1  0  0  0  0
  2  3  1  0  0  0  0
  3 17  1  0  0  0  0
  3  4  1  0  0  0  0
  5  6  1  0  0  0  0
  7  8  1  0  0  0  0
  8  6  1  1  0  0  0
  8  9  1  0  0  0  0
 10  9  1  6  0  0  0
 10 11  1  0  0  0  0
 10 12  1  0  0  0  0
 11 16  1  0  0  0  0
 12 13  1  1  0  0  0
 12 14  1  0  0  0  0
 14 15  1  1  0  0  0
 14 16  1  0  0  0  0
 16 27  1  6  0  0  0
 18 23  2  0  0  0  0
 18 19  1  0  0  0  0
 19 20  2  0  0  0  0
 20 21  1  0  0  0  0
 21 22  2  0  0  0  0
 21 27  1  0  0  0  0
 22 23  1  0  0  0  0
 22 25  1  0  0  0  0
 23 24  1  0  0  0  0
 25 26  2  0  0  0  0
 26 27  1  0  0  0  0
M  END
>  <CHROM.1>
-87.11251367,155.22993380,50.61707071,-101.73740937,-56.59422246,-173.31445432
62.45482345,11.28583525,-11.35551952,-21.04600382,2.77787824,0.65319452,1.54050640

>  <Name>
ligand

>  <RI>
0

>  <Rbt.Current_Directory>
/home/itssahil/PROJECTS/Mol_Feturizer/New_Systems/rnas/3E5F

>  <Rbt.Executable>
rbdock ($Id: //depot/dev/client3/rdock/2013.1/src/exe/rbdock.cxx#4 $)

>  <Rbt.Library>
libRbt.so (2013.1, Build901 2013/11/27)

>  <Rbt.Parameter_File>
/export/apps/rDock/src/rDock_2013.1_src/data/scripts/dock_solv.prm

>  <Rbt.Receptor>
prm/blind_docking_100.prm

>  <SCORE>
-16.0418

>  <SCORE.INTER>
-17.1598

>  <SCORE.INTER.CONST>
1

>  <SCORE.INTER.POLAR>
0

>  <SCORE.INTER.ROT>
7

>  <SCORE.INTER.SOLV>
18.8109

>  <SCORE.INTER.VDW>
-25.9768

>  <SCORE.INTER.norm>
-0.635547

>  <SCORE.INTRA>
1.11792

>  <SCORE.INTRA.DIHEDRAL>
2.62692

>  <SCORE.INTRA.DIHEDRAL.0>
4.89803

>  <SCORE.INTRA.POLAR>
0

>  <SCORE.INTRA.POLAR.0>
0

>  <SCORE.INTRA.REPUL>
0

>  <SCORE.INTRA.REPUL.0>
0

>  <SCORE.INTRA.SOLV>
1.94643

>  <SCORE.INTRA.SOLV.lig_0>
-48.5832

>  <SCORE.INTRA.VDW>
-1.16875

>  <SCORE.INTRA.VDW.0>
-2.39056

>  <SCORE.INTRA.norm>
0.0414046

>  <SCORE.RESTR>
0

>  <SCORE.RESTR.CAVITY>
0

>  <SCORE.RESTR.norm>
0

>  <SCORE.SYSTEM>
0

>  <SCORE.SYSTEM.CONST>
0

>  <SCORE.SYSTEM.DIHEDRAL>
0

>  <SCORE.SYSTEM.SOLV>
0

>  <SCORE.SYSTEM.norm>
0

>  <SCORE.heavy>
27

>  <SCORE.norm>
-0.594142

>  <RMSD>
7.013

$$$$
ligand
 OpenBabel11021811473D
libRbt.so/2013.1/901 2013/11/27
 27 29  0  0  0  0  0  0  0  0999 V2000
   15.1453   -6.1965  -22.0781 N   0  0  0  0  0  0  0  0  0  0  0  0
   15.7672   -7.3942  -22.6617 C   0  0  2  0  0  0  0  0  0  0  0  0
   15.5825   -7.3903  -24.1823 C   0  0  0  0  0  0  0  0  0  0  0  0
   15.8193   -8.4601  -24.7848 O   0  0  0  0  0  0  0  0  0  0  0  0
   15.0929   -8.6357  -22.0753 C   0  0  0  0  0  0  0  0  0  0  0  0
   13.7614   -8.9456  -22.7642 C   0  0  0  0  0  0  0  0  0  0  0  0
   13.6714  -11.3468  -21.2488 C   0  0  0  0  0  0  0  0  0  0  0  0
   12.6237   -9.8752  -21.6257 Se  0  0  2  0  0  0  0  0  0  0  0  0
   11.2803  -10.6279  -22.6673 C   0  0  0  0  0  0  0  0  0  0  0  0
   11.6669  -11.9711  -23.2877 C   0  0  1  0  0  0  0  0  0  0  0  0
   11.4814  -12.9974  -22.2977 O   0  0  0  0  0  0  0  0  0  0  0  0
   10.6329  -12.2852  -24.3696 C   0  0  1  0  0  0  0  0  0  0  0  0
   11.0486  -13.4331  -25.1111 O   0  0  0  0  0  0  0  0  0  0  0  0
    9.4459  -12.6425  -23.4786 C   0  0  1  0  0  0  0  0  0  0  0  0
    8.5305  -13.4415  -24.2301 O   0  0  0  0  0  0  0  0  0  0  0  0
   10.1536  -13.5291  -22.4530 C   0  0  2  0  0  0  0  0  0  0  0  0
   15.2183   -6.3166  -24.7103 O   0  0  0  0  0  0  0  0  0  0  0  0
    8.3643  -10.8497  -18.4201 N   0  0  0  0  0  0  0  0  0  0  0  0
    9.0111  -10.4095  -19.4857 C   0  0  0  0  0  0  0  0  0  0  0  0
    9.4082  -11.2260  -20.4461 N   0  0  0  0  0  0  0  0  0  0  0  0
    9.1605  -12.5422  -20.3686 C   0  0  0  0  0  0  0  0  0  0  0  0
    8.4852  -13.0419  -19.2640 C   0  0  0  0  0  0  0  0  0  0  0  0
    8.0875  -12.1517  -18.2735 C   0  0  0  0  0  0  0  0  0  0  0  0
    7.4727  -12.5975  -17.1824 N   0  0  0  0  0  0  0  0  0  0  0  0
    8.3682  -14.3555  -19.4234 N   0  0  0  0  0  0  0  0  0  0  0  0
    8.9456  -14.6727  -20.5799 C   0  0  0  0  0  0  0  0  0  0  0  0
    9.4296  -13.5748  -21.1609 N   0  0  0  0  0  0  0  0  0  0  0  0
  2  1  1  1  0  0  0
  2  5  1  0  0  0  0
  2  3  1  0  0  0  0
  3 17  1  0  0  0  0
  3  4  1  0  0  0  0
  5  6  1  0  0  0  0
  7  8  1  0  0  0  0
  8  6  1  6  0  0  0
  8  9  1  0  0  0  0
 10  9  1  1  0  0  0
 10 11  1  0  0  0  0
 10 12  1  0  0  0  0
 11 16  1  0  0  0  0
 12 13  1  1  0  0  0
 12 14  1  0  0  0  0
 14 15  1  6  0  0  0
 14 16  1  0  0  0  0
 16 27  1  1  0  0  0
 18 23  2  0  0  0  0
 18 19  1  0  0  0  0
 19 20  2  0  0  0  0
 20 21  1  0  0  0  0
 21 22  2  0  0  0  0
 21 27  1  0  0  0  0
 22 23  1  0  0  0  0
 22 25  1  0  0  0  0
 23 24  1  0  0  0  0
 25 26  2  0  0  0  0
 26 27  1  0  0  0  0
M  END
>  <CHROM.1>
80.46489363,-166.18986625,-153.74637326,-57.97094238,84.43679177,81.42995250
59.12596750,11.51799190,-10.93157705,-21.85228571,-0.01292953,0.76199104
1.04271593

>  <Name>
ligand

>  <RI>
0

>  <Rbt.Current_Directory>
/home/itssahil/PROJECTS/Mol_Feturizer/New_Systems/rnas/3E5F

>  <Rbt.Executable>
rbdock ($Id: //depot/dev/client3/rdock/2013.1/src/exe/rbdock.cxx#4 $)

>  <Rbt.Library>
libRbt.so (2013.1, Build901 2013/11/27)

>  <Rbt.Parameter_File>
/export/apps/rDock/src/rDock_2013.1_src/data/scripts/dock_solv.prm

>  <Rbt.Receptor>
prm/blind_docking_80.prm

>  <SCORE>
-9.68246

>  <SCORE.INTER>
-16.1957

>  <SCORE.INTER.CONST>
1

>  <SCORE.INTER.POLAR>
0

>  <SCORE.INTER.ROT>
7

>  <SCORE.INTER.SOLV>
13.7693

>  <SCORE.INTER.VDW>
-23.6535

>  <SCORE.INTER.norm>
-0.599839

>  <SCORE.INTRA>
6.51319

>  <SCORE.INTRA.DIHEDRAL>
4.60795

>  <SCORE.INTRA.DIHEDRAL.0>
4.89803

>  <SCORE.INTRA.POLAR>
0

>  <SCORE.INTRA.POLAR.0>
0

>  <SCORE.INTRA.REPUL>
0

>  <SCORE.INTRA.REPUL.0>
0

>  <SCORE.INTRA.SOLV>
0.612043

>  <SCORE.INTRA.SOLV.lig_0>
-48.5832

>  <SCORE.INTRA.VDW>
3.90319

>  <SCORE.INTRA.VDW.0>
-2.39056

>  <SCORE.INTRA.norm>
0.241229

>  <SCORE.RESTR>
0

>  <SCORE.RESTR.CAVITY>
0

>  <SCORE.RESTR.norm>
0

>  <SCORE.SYSTEM>
0

>  <SCORE.SYSTEM.CONST>
0

>  <SCORE.SYSTEM.DIHEDRAL>
0

>  <SCORE.SYSTEM.SOLV>
0

>  <SCORE.SYSTEM.norm>
0

>  <SCORE.heavy>
27

>  <SCORE.norm>
-0.35861

>  <RMSD>
7.016

$$$$
ligand
 OpenBabel11021811473D
libRbt.so/2013.1/901 2013/11/27
 27 29  0  0  0  0  0  0  0  0999 V2000
   15.5880   -8.7860  -21.2750 N   0  0  0  0  0  0  0  0  0  0  0  0
   14.4969   -9.2137  -22.1628 C   0  0  2  0  0  0  0  0  0  0  0  0
   14.6970   -8.6192  -23.5602 C   0  0  0  0  0  0  0  0  0  0  0  0
   14.0574   -9.1454  -24.4971 O   0  0  0  0  0  0  0  0  0  0  0  0
   13.1695   -8.7155  -21.5885 C   0  0  0  0  0  0  0  0  0  0  0  0
   12.7067   -9.5583  -20.3973 C   0  0  0  0  0  0  0  0  0  0  0  0
   13.7643  -12.1331  -20.9647 C   0  0  0  0  0  0  0  0  0  0  0  0
   12.1481  -11.2424  -20.9507 Se  0  0  2  0  0  0  0  0  0  0  0  0
   11.7623  -11.1368  -22.7662 C   0  0  0  0  0  0  0  0  0  0  0  0
   11.8146  -12.4868  -23.4827 C   0  0  1  0  0  0  0  0  0  0  0  0
   11.3563  -13.5009  -22.5720 O   0  0  0  0  0  0  0  0  0  0  0  0
   10.7596  -12.4542  -24.5890 C   0  0  1  0  0  0  0  0  0  0  0  0
   10.8916  -13.6144  -25.4117 O   0  0  0  0  0  0  0  0  0  0  0  0
    9.5012  -12.5640  -23.7317 C   0  0  1  0  0  0  0  0  0  0  0  0
    8.4322  -13.0526  -24.5439 O   0  0  0  0  0  0  0  0  0  0  0  0
    9.9415  -13.6699  -22.7716 C   0  0  2  0  0  0  0  0  0  0  0  0
   15.4914   -7.6588  -23.6635 O   0  0  0  0  0  0  0  0  0  0  0  0
    8.6490  -10.8555  -18.6420 N   0  0  0  0  0  0  0  0  0  0  0  0
    9.3890  -10.5096  -19.6814 C   0  0  0  0  0  0  0  0  0  0  0  0
    9.6330  -11.3487  -20.6729 N   0  0  0  0  0  0  0  0  0  0  0  0
    9.1276  -12.5914  -20.6552 C   0  0  0  0  0  0  0  0  0  0  0  0
    8.3472  -12.9915  -19.5796 C   0  0  0  0  0  0  0  0  0  0  0  0
    8.1168  -12.0812  -18.5549 C   0  0  0  0  0  0  0  0  0  0  0  0
    7.4067  -12.4400  -17.4899 N   0  0  0  0  0  0  0  0  0  0  0  0
    7.9747  -14.2478  -19.7973 N   0  0  0  0  0  0  0  0  0  0  0  0
    8.4978  -14.6259  -20.9612 C   0  0  0  0  0  0  0  0  0  0  0  0
    9.2003  -13.6235  -21.4894 N   0  0  0  0  0  0  0  0  0  0  0  0
  2  1  1  1  0  0  0
  2  5  1  0  0  0  0
  2  3  1  0  0  0  0
  3 17  1  0  0  0  0
  3  4  1  0  0  0  0
  5  6  1  0  0  0  0
  7  8  1  0  0  0  0
  8  6  1  6  0  0  0
  8  9  1  0  0  0  0
 10  9  1  1  0  0  0
 10 11  1  0  0  0  0
 10 12  1  0  0  0  0
 11 16  1  0  0  0  0
 12 13  1  6  0  0  0
 12 14  1  0  0  0  0
 14 15  1  6  0  0  0
 14 16  1  0  0  0  0
 16 27  1  1  0  0  0
 18 23  2  0  0  0  0
 18 19  1  0  0  0  0
 19 20  2  0  0  0  0
 20 21  1  0  0  0  0
 21 22  2  0  0  0  0
 21 27  1  0  0  0  0
 22 23  1  0  0  0  0
 22 25  1  0  0  0  0
 23 24  1  0  0  0  0
 25 26  2  0  0  0  0
 26 27  1  0  0  0  0
M  END
>  <CHROM.1>
-76.39719252,162.65368273,-71.09164660,85.74784053,157.70303608,34.30709363
62.64148066,11.23084120,-11.51885477,-21.67448080,-0.10081665,0.65213060
1.18073113

>  <Name>
ligand

>  <RI>
0

>  <Rbt.Current_Directory>
/home/itssahil/PROJECTS/Mol_Feturizer/New_Systems/rnas/3E5F

>  <Rbt.Executable>
rbdock ($Id: //depot/dev/client3/rdock/2013.1/src/exe/rbdock.cxx#4 $)

>  <Rbt.Library>
libRbt.so (2013.1, Build901 2013/11/27)

>  <Rbt.Parameter_File>
/export/apps/rDock/src/rDock_2013.1_src/data/scripts/dock_solv.prm

>  <Rbt.Receptor>
prm/blind_docking_60.prm

>  <SCORE>
-12.8959

>  <SCORE.INTER>
-14.1297

>  <SCORE.INTER.CONST>
1

>  <SCORE.INTER.POLAR>
0

>  <SCORE.INTER.ROT>
7

>  <SCORE.INTER.SOLV>
13.3857

>  <SCORE.INTER.VDW>
-22.1484

>  <SCORE.INTER.norm>
-0.523322

>  <SCORE.INTRA>
1.2338

>  <SCORE.INTRA.DIHEDRAL>
3.03065

>  <SCORE.INTRA.DIHEDRAL.0>
4.89803

>  <SCORE.INTRA.POLAR>
0

>  <SCORE.INTRA.POLAR.0>
0

>  <SCORE.INTRA.REPUL>
0

>  <SCORE.INTRA.REPUL.0>
0

>  <SCORE.INTRA.SOLV>
1.45128

>  <SCORE.INTRA.SOLV.lig_0>
-48.5832

>  <SCORE.INTRA.VDW>
-1.00716

>  <SCORE.INTRA.VDW.0>
-2.39056

>  <SCORE.INTRA.norm>
0.0456964

>  <SCORE.RESTR>
0

>  <SCORE.RESTR.CAVITY>
0

>  <SCORE.RESTR.norm>
0

>  <SCORE.SYSTEM>
0

>  <SCORE.SYSTEM.CONST>
0

>  <SCORE.SYSTEM.DIHEDRAL>
0

>  <SCORE.SYSTEM.SOLV>
0

>  <SCORE.SYSTEM.norm>
0

>  <SCORE.heavy>
27

>  <SCORE.norm>
-0.477625

>  <RMSD>
7.025

$$$$
ligand
 OpenBabel11021811473D
libRbt.so/2013.1/901 2013/11/27
 27 29  0  0  0  0  0  0  0  0999 V2000
   16.1015   -6.7502  -23.4710 N   0  0  0  0  0  0  0  0  0  0  0  0
   15.5665   -8.0975  -23.7161 C   0  0  2  0  0  0  0  0  0  0  0  0
   15.1073   -8.2203  -25.1723 C   0  0  0  0  0  0  0  0  0  0  0  0
   15.8463   -7.7132  -26.0443 O   0  0  0  0  0  0  0  0  0  0  0  0
   14.3717   -8.3300  -22.7897 C   0  0  0  0  0  0  0  0  0  0  0  0
   14.7757   -8.3023  -21.3134 C   0  0  0  0  0  0  0  0  0  0  0  0
   14.1033   -8.0450  -18.5653 C   0  0  0  0  0  0  0  0  0  0  0  0
   13.3059   -7.9631  -20.2275 Se  0  0  2  0  0  0  0  0  0  0  0  0
   12.2529   -9.4952  -20.2142 C   0  0  0  0  0  0  0  0  0  0  0  0
   13.0558  -10.7884  -20.0681 C   0  0  1  0  0  0  0  0  0  0  0  0
   12.2108  -11.7797  -19.4588 O   0  0  0  0  0  0  0  0  0  0  0  0
   13.3213  -11.3190  -21.4774 C   0  0  1  0  0  0  0  0  0  0  0  0
   14.2274  -12.4213  -21.4119 O   0  0  0  0  0  0  0  0  0  0  0  0
   11.9195  -11.8169  -21.8206 C   0  0  1  0  0  0  0  0  0  0  0  0
   12.0188  -12.7897  -22.8622 O   0  0  0  0  0  0  0  0  0  0  0  0
   11.5717  -12.5250  -20.5105 C   0  0  2  0  0  0  0  0  0  0  0  0
   14.0240   -8.8093  -25.3815 O   0  0  0  0  0  0  0  0  0  0  0  0
    7.2581  -15.2168  -21.4002 N   0  0  0  0  0  0  0  0  0  0  0  0
    8.4953  -15.4856  -21.7803 C   0  0  0  0  0  0  0  0  0  0  0  0
    9.5068  -14.6931  -21.4712 N   0  0  0  0  0  0  0  0  0  0  0  0
    9.3057  -13.5797  -20.7503 C   0  0  0  0  0  0  0  0  0  0  0  0
    8.0200  -13.2631  -20.3346 C   0  0  0  0  0  0  0  0  0  0  0  0
    6.9825  -14.1199  -20.6831 C   0  0  0  0  0  0  0  0  0  0  0  0
    5.7322  -13.8305  -20.3364 N   0  0  0  0  0  0  0  0  0  0  0  0
    8.0864  -12.1277  -19.6484 N   0  0  0  0  0  0  0  0  0  0  0  0
    9.3603  -11.7425  -19.6315 C   0  0  0  0  0  0  0  0  0  0  0  0
   10.1082  -12.6210  -20.2995 N   0  0  0  0  0  0  0  0  0  0  0  0
  2  1  1  6  0  0  0
  2  5  1  0  0  0  0
  2  3  1  0  0  0  0
  3 17  1  0  0  0  0
  3  4  1  0  0  0  0
  5  6  1  0  0  0  0
  7  8  1  0  0  0  0
  8  6  1  6  0  0  0
  8  9  1  0  0  0  0
 10  9  1  6  0  0  0
 10 11  1  0  0  0  0
 10 12  1  0  0  0  0
 11 16  1  0  0  0  0
 12 13  1  1  0  0  0
 12 14  1  0  0  0  0
 14 15  1  6  0  0  0
 14 16  1  0  0  0  0
 16 27  1  1  0  0  0
 18 23  2  0  0  0  0
 18 19  1  0  0  0  0
 19 20  2  0  0  0  0
 20 21  1  0  0  0  0
 21 22  2  0  0  0  0
 21 27  1  0  0  0  0
 22 23  1  0  0  0  0
 22 25  1  0  0  0  0
 23 24  1  0  0  0  0
 25 26  2  0  0  0  0
 26 27  1  0  0  0  0
M  END
>  <CHROM.1>
-63.28645403,41.76591562,159.26538233,178.41235106,43.43743975,153.42470163
-153.84247222,12.05619173,-10.64359215,-21.35262018,-0.10241118,-0.76045429
-2.04298682

>  <Name>
ligand

>  <RI>
0

>  <Rbt.Current_Directory>
/home/itssahil/PROJECTS/Mol_Feturizer/New_Systems/rnas/3E5F

>  <Rbt.Executable>
rbdock ($Id: //depot/dev/client3/rdock/2013.1/src/exe/rbdock.cxx#4 $)

>  <Rbt.Library>
libRbt.so (2013.1, Build901 2013/11/27)

>  <Rbt.Parameter_File>
/export/apps/rDock/src/rDock_2013.1_src/data/scripts/dock_solv.prm

>  <Rbt.Receptor>
prm/pocket_docking_8.prm

>  <SCORE>
-13.8253

>  <SCORE.INTER>
-16.166

>  <SCORE.INTER.CONST>
1

>  <SCORE.INTER.POLAR>
0

>  <SCORE.INTER.ROT>
7

>  <SCORE.INTER.SOLV>
12.9276

>  <SCORE.INTER.VDW>
-23.3532

>  <SCORE.INTER.norm>
-0.59874

>  <SCORE.INTRA>
2.34063

>  <SCORE.INTRA.DIHEDRAL>
1.73701

>  <SCORE.INTRA.DIHEDRAL.0>
4.89803

>  <SCORE.INTRA.POLAR>
0

>  <SCORE.INTRA.POLAR.0>
0

>  <SCORE.INTRA.REPUL>
0

>  <SCORE.INTRA.REPUL.0>
0

>  <SCORE.INTRA.SOLV>
0.882562

>  <SCORE.INTRA.SOLV.lig_0>
-48.5832

>  <SCORE.INTRA.VDW>
1.03084

>  <SCORE.INTRA.VDW.0>
-2.39056

>  <SCORE.INTRA.norm>
0.0866898

>  <SCORE.RESTR>
0

>  <SCORE.RESTR.CAVITY>
0

>  <SCORE.RESTR.norm>
0

>  <SCORE.SYSTEM>
0

>  <SCORE.SYSTEM.CONST>
0

>  <SCORE.SYSTEM.DIHEDRAL>
0

>  <SCORE.SYSTEM.SOLV>
0

>  <SCORE.SYSTEM.norm>
0

>  <SCORE.heavy>
27

>  <SCORE.norm>
-0.51205

>  <RMSD>
7.033

$$$$
ligand
 OpenBabel11021811473D
libRbt.so/2013.1/901 2013/11/27
 27 29  0  0  0  0  0  0  0  0999 V2000
    8.9763   -7.8121  -14.7085 N   0  0  0  0  0  0  0  0  0  0  0  0
    9.4368   -7.1083  -15.9145 C   0  0  2  0  0  0  0  0  0  0  0  0
    8.2907   -6.9982  -16.9247 C   0  0  0  0  0  0  0  0  0  0  0  0
    7.8553   -8.0666  -17.4068 O   0  0  0  0  0  0  0  0  0  0  0  0
   10.5856   -7.9014  -16.5401 C   0  0  0  0  0  0  0  0  0  0  0  0
   11.1922   -7.1793  -17.7459 C   0  0  0  0  0  0  0  0  0  0  0  0
   12.4106   -7.5909  -20.2790 C   0  0  0  0  0  0  0  0  0  0  0  0
   12.5141   -8.2132  -18.5448 Se  0  0  2  0  0  0  0  0  0  0  0  0
   11.8447   -9.9382  -18.7247 C   0  0  0  0  0  0  0  0  0  0  0  0
   12.8174  -10.9047  -19.4017 C   0  0  1  0  0  0  0  0  0  0  0  0
   12.3036  -12.2399  -19.2567 O   0  0  0  0  0  0  0  0  0  0  0  0
   12.7588  -10.6282  -20.9045 C   0  0  1  0  0  0  0  0  0  0  0  0
   13.7835  -11.3694  -21.5686 O   0  0  0  0  0  0  0  0  0  0  0  0
   11.3929  -11.2364  -21.2131 C   0  0  1  0  0  0  0  0  0  0  0  0
   11.3322  -11.5484  -22.6060 O   0  0  0  0  0  0  0  0  0  0  0  0
   11.5062  -12.5371  -20.4168 C   0  0  2  0  0  0  0  0  0  0  0  0
    7.8813   -5.8490  -17.2004 O   0  0  0  0  0  0  0  0  0  0  0  0
    6.6236  -11.4692  -19.1266 N   0  0  0  0  0  0  0  0  0  0  0  0
    7.6017  -10.6334  -19.4306 C   0  0  0  0  0  0  0  0  0  0  0  0
    8.8117  -11.0620  -19.7450 N   0  0  0  0  0  0  0  0  0  0  0  0
    9.0858  -12.3751  -19.7685 C   0  0  0  0  0  0  0  0  0  0  0  0
    8.0849  -13.2832  -19.4534 C   0  0  0  0  0  0  0  0  0  0  0  0
    6.8267  -12.7929  -19.1243 C   0  0  0  0  0  0  0  0  0  0  0  0
    5.8530  -13.6296  -18.7792 N   0  0  0  0  0  0  0  0  0  0  0  0
    8.6032  -14.5027  -19.5465 N   0  0  0  0  0  0  0  0  0  0  0  0
    9.8782  -14.3709  -19.9050 C   0  0  0  0  0  0  0  0  0  0  0  0
   10.1791  -13.0794  -20.0423 N   0  0  0  0  0  0  0  0  0  0  0  0
  2  1  1  1  0  0  0
  2  5  1  0  0  0  0
  2  3  1  0  0  0  0
  3 17  1  0  0  0  0
  3  4  1  0  0  0  0
  5  6  1  0  0  0  0
  7  8  1  0  0  0  0
  8  6  1  1  0  0  0
  8  9  1  0  0  0  0
 10  9  1  1  0  0  0
 10 11  1  0  0  0  0
 10 12  1  0  0  0  0
 11 16  1  0  0  0  0
 12 13  1  6  0  0  0
 12 14  1  0  0  0  0
 14 15  1  6  0  0  0
 14 16  1  0  0  0  0
 16 27  1  1  0  0  0
 18 23  2  0  0  0  0
 18 19  1  0  0  0  0
 19 20  2  0  0  0  0
 20 21  1  0  0  0  0
 21 22  2  0  0  0  0
 21 27  1  0  0  0  0
 22 23  1  0  0  0  0
 22 25  1  0  0  0  0
 23 24  1  0  0  0  0
 25 26  2  0  0  0  0
 26 27  1  0  0  0  0
M  END
>  <CHROM.1>
-175.73961876,-64.82210941,-176.56763338,152.32113853,178.67885376,169.21675965
87.03552157,10.37220217,-10.12999367,-18.98080015,1.34572664,0.36849472,0.52426551

>  <Name>
ligand

>  <RI>
0

>  <Rbt.Current_Directory>
/home/itssahil/PROJECTS/Mol_Feturizer/New_Systems/rnas/3E5F

>  <Rbt.Executable>
rbdock ($Id: //depot/dev/client3/rdock/2013.1/src/exe/rbdock.cxx#4 $)

>  <Rbt.Library>
libRbt.so (2013.1, Build901 2013/11/27)

>  <Rbt.Parameter_File>
/export/apps/rDock/src/rDock_2013.1_src/data/scripts/dock_solv.prm

>  <Rbt.Receptor>
prm/pocket_docking_8.prm

>  <SCORE>
-11.7192

>  <SCORE.INTER>
-11.741

>  <SCORE.INTER.CONST>
1

>  <SCORE.INTER.POLAR>
0

>  <SCORE.INTER.ROT>
7

>  <SCORE.INTER.SOLV>
5.99929

>  <SCORE.INTER.VDW>
-18.0937

>  <SCORE.INTER.norm>
-0.43485

>  <SCORE.INTRA>
0.0217399

>  <SCORE.INTRA.DIHEDRAL>
-0.837781

>  <SCORE.INTRA.DIHEDRAL.0>
4.89803

>  <SCORE.INTRA.POLAR>
0

>  <SCORE.INTRA.POLAR.0>
0

>  <SCORE.INTRA.REPUL>
0

>  <SCORE.INTRA.REPUL.0>
0

>  <SCORE.INTRA.SOLV>
0.0114651

>  <SCORE.INTRA.SOLV.lig_0>
-48.5832

>  <SCORE.INTRA.VDW>
0.434898

>  <SCORE.INTRA.VDW.0>
-2.39056

>  <SCORE.INTRA.norm>
0.000805181

>  <SCORE.RESTR>
0

>  <SCORE.RESTR.CAVITY>
0

>  <SCORE.RESTR.norm>
0

>  <SCORE.SYSTEM>
0

>  <SCORE.SYSTEM.CONST>
0

>  <SCORE.SYSTEM.DIHEDRAL>
0

>  <SCORE.SYSTEM.SOLV>
0

>  <SCORE.SYSTEM.norm>
0

>  <SCORE.heavy>
27

>  <SCORE.norm>
-0.434045

>  <RMSD>
7.034

$$$$
ligand
 OpenBabel11021811473D
libRbt.so/2013.1/901 2013/11/27
 27 29  0  0  0  0  0  0  0  0999 V2000
   15.5643   -6.5108  -22.9583 N   0  0  0  0  0  0  0  0  0  0  0  0
   15.4530   -7.9522  -23.2262 C   0  0  2  0  0  0  0  0  0  0  0  0
   15.5499   -8.2125  -24.7325 C   0  0  0  0  0  0  0  0  0  0  0  0
   15.0995   -9.3019  -25.1497 O   0  0  0  0  0  0  0  0  0  0  0  0
   14.0981   -8.4457  -22.7156 C   0  0  0  0  0  0  0  0  0  0  0  0
   13.8100   -7.9621  -21.2920 C   0  0  0  0  0  0  0  0  0  0  0  0
   11.8994   -7.0665  -19.3899 C   0  0  0  0  0  0  0  0  0  0  0  0
   12.0093   -8.1568  -20.8747 Se  0  0  2  0  0  0  0  0  0  0  0  0
   11.7875   -9.8414  -20.1203 C   0  0  0  0  0  0  0  0  0  0  0  0
   12.4485  -10.9631  -20.9224 C   0  0  1  0  0  0  0  0  0  0  0  0
   12.0552  -12.2220  -20.3494 O   0  0  0  0  0  0  0  0  0  0  0  0
   11.8172  -10.9573  -22.3151 C   0  0  1  0  0  0  0  0  0  0  0  0
   12.5268  -11.8581  -23.1668 O   0  0  0  0  0  0  0  0  0  0  0  0
   10.4490  -11.5383  -21.9671 C   0  0  1  0  0  0  0  0  0  0  0  0
    9.8693  -12.0909  -23.1502 O   0  0  0  0  0  0  0  0  0  0  0  0
   10.8825  -12.6797  -21.0462 C   0  0  2  0  0  0  0  0  0  0  0  0
   16.0802   -7.3221  -25.4327 O   0  0  0  0  0  0  0  0  0  0  0  0
    6.7600  -11.1703  -18.3311 N   0  0  0  0  0  0  0  0  0  0  0  0
    7.5214  -10.4593  -19.1451 C   0  0  0  0  0  0  0  0  0  0  0  0
    8.5524  -10.9920  -19.7773 N   0  0  0  0  0  0  0  0  0  0  0  0
    8.8589  -12.2877  -19.6123 C   0  0  0  0  0  0  0  0  0  0  0  0
    8.0836  -13.0659  -18.7642 C   0  0  0  0  0  0  0  0  0  0  0  0
    7.0102  -12.4679  -18.1146 C   0  0  0  0  0  0  0  0  0  0  0  0
    6.2679  -13.1709  -17.2648 N   0  0  0  0  0  0  0  0  0  0  0  0
    8.5876  -14.2948  -18.7717 N   0  0  0  0  0  0  0  0  0  0  0  0
    9.6375  -14.2934  -19.5897 C   0  0  0  0  0  0  0  0  0  0  0  0
    9.8087  -13.0759  -20.1052 N   0  0  0  0  0  0  0  0  0  0  0  0
  2  1  1  6  0  0  0
  2  5  1  0  0  0  0
  2  3  1  0  0  0  0
  3 17  1  0  0  0  0
  3  4  1  0  0  0  0
  5  6  1  0  0  0  0
  7  8  1  0  0  0  0
  8  6  1  1  0  0  0
  8  9  1  0  0  0  0
 10  9  1  1  0  0  0
 10 11  1  0  0  0  0
 10 12  1  0  0  0  0
 11 16  1  0  0  0  0
 12 13  1  6  0  0  0
 12 14  1  0  0  0  0
 14 15  1  6  0  0  0
 14 16  1  0  0  0  0
 16 27  1  1  0  0  0
 18 23  2  0  0  0  0
 18 19  1  0  0  0  0
 19 20  2  0  0  0  0
 20 21  1  0  0  0  0
 21 22  2  0  0  0  0
 21 27  1  0  0  0  0
 22 23  1  0  0  0  0
 22 25  1  0  0  0  0
 23 24  1  0  0  0  0
 25 26  2  0  0  0  0
 26 27  1  0  0  0  0
M  END
>  <CHROM.1>
-48.10521010,-160.02962328,164.12877522,-163.87580716,-48.37159756,-172.12065714
89.63436132,11.40553971,-10.26149773,-21.09211495,0.25756307,0.73784072,0.44124823

>  <Name>
ligand

>  <RI>
0

>  <Rbt.Current_Directory>
/home/itssahil/PROJECTS/Mol_Feturizer/New_Systems/rnas/3E5F

>  <Rbt.Executable>
rbdock ($Id: //depot/dev/client3/rdock/2013.1/src/exe/rbdock.cxx#4 $)

>  <Rbt.Library>
libRbt.so (2013.1, Build901 2013/11/27)

>  <Rbt.Parameter_File>
/export/apps/rDock/src/rDock_2013.1_src/data/scripts/dock_solv.prm

>  <Rbt.Receptor>
prm/blind_docking_100.prm

>  <SCORE>
-16.2781

>  <SCORE.INTER>
-17.7884

>  <SCORE.INTER.CONST>
1

>  <SCORE.INTER.POLAR>
0

>  <SCORE.INTER.ROT>
7

>  <SCORE.INTER.SOLV>
13.4079

>  <SCORE.INTER.VDW>
-24.5949

>  <SCORE.INTER.norm>
-0.658831

>  <SCORE.INTRA>
1.51031

>  <SCORE.INTRA.DIHEDRAL>
0.939117

>  <SCORE.INTRA.DIHEDRAL.0>
4.89803

>  <SCORE.INTRA.POLAR>
0

>  <SCORE.INTRA.POLAR.0>
0

>  <SCORE.INTRA.REPUL>
0

>  <SCORE.INTRA.REPUL.0>
0

>  <SCORE.INTRA.SOLV>
0.950109

>  <SCORE.INTRA.SOLV.lig_0>
-48.5832

>  <SCORE.INTRA.VDW>
0.565699

>  <SCORE.INTRA.VDW.0>
-2.39056

>  <SCORE.INTRA.norm>
0.0559375

>  <SCORE.RESTR>
0

>  <SCORE.RESTR.CAVITY>
0

>  <SCORE.RESTR.norm>
0

>  <SCORE.SYSTEM>
0

>  <SCORE.SYSTEM.CONST>
0

>  <SCORE.SYSTEM.DIHEDRAL>
0

>  <SCORE.SYSTEM.SOLV>
0

>  <SCORE.SYSTEM.norm>
0

>  <SCORE.heavy>
27

>  <SCORE.norm>
-0.602893

>  <RMSD>
7.061

$$$$
ligand
 OpenBabel11021811473D
libRbt.so/2013.1/901 2013/11/27
 27 29  0  0  0  0  0  0  0  0999 V2000
   12.2537  -11.5987  -23.0024 N   0  0  0  0  0  0  0  0  0  0  0  0
   13.3526  -11.2867  -22.0768 C   0  0  2  0  0  0  0  0  0  0  0  0
   12.9543  -11.6646  -20.6468 C   0  0  0  0  0  0  0  0  0  0  0  0
   13.7838  -12.3238  -19.9827 O   0  0  0  0  0  0  0  0  0  0  0  0
   13.6398   -9.7855  -22.1399 C   0  0  0  0  0  0  0  0  0  0  0  0
   14.1912   -9.3631  -23.5041 C   0  0  0  0  0  0  0  0  0  0  0  0
   15.4846   -7.4092  -25.1102 C   0  0  0  0  0  0  0  0  0  0  0  0
   14.4834   -7.5286  -23.5646 Se  0  0  2  0  0  0  0  0  0  0  0  0
   15.7487   -7.1191  -22.2655 C   0  0  0  0  0  0  0  0  0  0  0  0
   16.1797   -5.6519  -22.2719 C   0  0  1  0  0  0  0  0  0  0  0  0
   15.2427   -4.9012  -21.4806 O   0  0  0  0  0  0  0  0  0  0  0  0
   17.4970   -5.5630  -21.5003 C   0  0  1  0  0  0  0  0  0  0  0  0
   18.0437   -4.2503  -21.6349 O   0  0  0  0  0  0  0  0  0  0  0  0
   16.9656   -5.7632  -20.0832 C   0  0  1  0  0  0  0  0  0  0  0  0
   17.9132   -5.2296  -19.1568 O   0  0  0  0  0  0  0  0  0  0  0  0
   15.7468   -4.8409  -20.1344 C   0  0  2  0  0  0  0  0  0  0  0  0
   11.8266  -11.2951  -20.2519 O   0  0  0  0  0  0  0  0  0  0  0  0
   10.8730   -6.3604  -19.3715 N   0  0  0  0  0  0  0  0  0  0  0  0
   11.4912   -6.1019  -20.5111 C   0  0  0  0  0  0  0  0  0  0  0  0
   12.7559   -5.7196  -20.5463 N   0  0  0  0  0  0  0  0  0  0  0  0
   13.4597   -5.5842  -19.4122 C   0  0  0  0  0  0  0  0  0  0  0  0
   12.8442   -5.8451  -18.1961 C   0  0  0  0  0  0  0  0  0  0  0  0
   11.5119   -6.2410  -18.2007 C   0  0  0  0  0  0  0  0  0  0  0  0
   10.8769   -6.4625  -17.0539 N   0  0  0  0  0  0  0  0  0  0  0  0
   13.7410   -5.6390  -17.2381 N   0  0  0  0  0  0  0  0  0  0  0  0
   14.8754   -5.2633  -17.8240 C   0  0  0  0  0  0  0  0  0  0  0  0
   14.7123   -5.2279  -19.1467 N   0  0  0  0  0  0  0  0  0  0  0  0
  2  1  1  6  0  0  0
  2  5  1  0  0  0  0
  2  3  1  0  0  0  0
  3 17  1  0  0  0  0
  3  4  1  0  0  0  0
  5  6  1  0  0  0  0
  7  8  1  0  0  0  0
  8  6  1  1  0  0  0
  8  9  1  0  0  0  0
 10  9  1  1  0  0  0
 10 11  1  0  0  0  0
 10 12  1  0  0  0  0
 11 16  1  0  0  0  0
 12 13  1  1  0  0  0
 12 14  1  0  0  0  0
 14 15  1  1  0  0  0
 14 16  1  0  0  0  0
 16 27  1  1  0  0  0
 18 23  2  0  0  0  0
 18 19  1  0  0  0  0
 19 20  2  0  0  0  0
 20 21  1  0  0  0  0
 21 22  2  0  0  0  0
 21 27  1  0  0  0  0
 22 23  1  0  0  0  0
 22 25  1  0  0  0  0
 23 24  1  0  0  0  0
 25 26  2  0  0  0  0
 26 27  1  0  0  0  0
M  END
>  <CHROM.1>
-66.18542751,132.28136096,178.37445867,167.26527267,175.24524521,85.38191475
-0.49766997,14.25823820,-7.26437915,-21.08572304,2.11294212,-0.75917870,-2.34001630

>  <Name>
ligand

>  <RI>
0

>  <Rbt.Current_Directory>
/home/itssahil/PROJECTS/Mol_Feturizer/New_Systems/rnas/3E5F

>  <Rbt.Executable>
rbdock ($Id: //depot/dev/client3/rdock/2013.1/src/exe/rbdock.cxx#4 $)

>  <Rbt.Library>
libRbt.so (2013.1, Build901 2013/11/27)

>  <Rbt.Parameter_File>
/export/apps/rDock/src/rDock_2013.1_src/data/scripts/dock_solv.prm

>  <Rbt.Receptor>
prm/pocket_docking_4.prm

>  <SCORE>
-16.93

>  <SCORE.INTER>
-17.4463

>  <SCORE.INTER.CONST>
1

>  <SCORE.INTER.POLAR>
0

>  <SCORE.INTER.ROT>
7

>  <SCORE.INTER.SOLV>
8.69426

>  <SCORE.INTER.VDW>
-22.7956

>  <SCORE.INTER.norm>
-0.646159

>  <SCORE.INTRA>
0.516261

>  <SCORE.INTRA.DIHEDRAL>
0.239421

>  <SCORE.INTRA.DIHEDRAL.0>
4.89803

>  <SCORE.INTRA.POLAR>
0

>  <SCORE.INTRA.POLAR.0>
0

>  <SCORE.INTRA.REPUL>
0

>  <SCORE.INTRA.REPUL.0>
0

>  <SCORE.INTRA.SOLV>
0.699494

>  <SCORE.INTRA.SOLV.lig_0>
-48.5832

>  <SCORE.INTRA.VDW>
0.0468039

>  <SCORE.INTRA.VDW.0>
-2.39056

>  <SCORE.INTRA.norm>
0.0191208

>  <SCORE.RESTR>
0

>  <SCORE.RESTR.CAVITY>
0

>  <SCORE.RESTR.norm>
0

>  <SCORE.SYSTEM>
0

>  <SCORE.SYSTEM.CONST>
0

>  <SCORE.SYSTEM.DIHEDRAL>
0

>  <SCORE.SYSTEM.SOLV>
0

>  <SCORE.SYSTEM.norm>
0

>  <SCORE.heavy>
27

>  <SCORE.norm>
-0.627038

>  <RMSD>
7.103

$$$$
ligand
 OpenBabel11021811473D
libRbt.so/2013.1/901 2013/11/27
 27 29  0  0  0  0  0  0  0  0999 V2000
    8.3862  -14.0730  -25.2573 N   0  0  0  0  0  0  0  0  0  0  0  0
    9.6019  -14.0857  -24.4303 C   0  0  2  0  0  0  0  0  0  0  0  0
    9.2681  -14.5776  -23.0186 C   0  0  0  0  0  0  0  0  0  0  0  0
    8.3166  -14.0163  -22.4329 O   0  0  0  0  0  0  0  0  0  0  0  0
   10.1587  -12.6632  -24.3499 C   0  0  0  0  0  0  0  0  0  0  0  0
   11.4957  -12.6110  -23.6062 C   0  0  0  0  0  0  0  0  0  0  0  0
   12.9815  -10.5160  -24.8202 C   0  0  0  0  0  0  0  0  0  0  0  0
   12.0115  -10.8541  -23.2871 Se  0  0  2  0  0  0  0  0  0  0  0  0
   13.3493  -10.8880  -21.9966 C   0  0  0  0  0  0  0  0  0  0  0  0
   12.8232  -11.0882  -20.5747 C   0  0  1  0  0  0  0  0  0  0  0  0
   13.8428  -10.6692  -19.6514 O   0  0  0  0  0  0  0  0  0  0  0  0
   11.6815  -10.0919  -20.3693 C   0  0  1  0  0  0  0  0  0  0  0  0
   11.0278  -10.3611  -19.1280 O   0  0  0  0  0  0  0  0  0  0  0  0
   12.4952   -8.8047  -20.2610 C   0  0  1  0  0  0  0  0  0  0  0  0
   11.7141   -7.8227  -19.5779 O   0  0  0  0  0  0  0  0  0  0  0  0
   13.6117   -9.2853  -19.3330 C   0  0  2  0  0  0  0  0  0  0  0  0
    9.9766  -15.4966  -22.5520 O   0  0  0  0  0  0  0  0  0  0  0  0
   16.8034   -6.8468  -22.5753 N   0  0  0  0  0  0  0  0  0  0  0  0
   15.6909   -7.5068  -22.8481 C   0  0  0  0  0  0  0  0  0  0  0  0
   14.9726   -8.0831  -21.9002 N   0  0  0  0  0  0  0  0  0  0  0  0
   15.3543   -8.0116  -20.6160 C   0  0  0  0  0  0  0  0  0  0  0  0
   16.5178   -7.3287  -20.2908 C   0  0  0  0  0  0  0  0  0  0  0  0
   17.2475   -6.7395  -21.3165 C   0  0  0  0  0  0  0  0  0  0  0  0
   18.3875   -6.1100  -21.0490 N   0  0  0  0  0  0  0  0  0  0  0  0
   16.6746   -7.4041  -18.9739 N   0  0  0  0  0  0  0  0  0  0  0  0
   15.6534   -8.1054  -18.4873 C   0  0  0  0  0  0  0  0  0  0  0  0
   14.8457   -8.4782  -19.4803 N   0  0  0  0  0  0  0  0  0  0  0  0
  2  1  1  6  0  0  0
  2  5  1  0  0  0  0
  2  3  1  0  0  0  0
  3 17  1  0  0  0  0
  3  4  1  0  0  0  0
  5  6  1  0  0  0  0
  7  8  1  0  0  0  0
  8  6  1  6  0  0  0
  8  9  1  0  0  0  0
 10  9  1  6  0  0  0
 10 11  1  0  0  0  0
 10 12  1  0  0  0  0
 11 16  1  0  0  0  0
 12 13  1  1  0  0  0
 12 14  1  0  0  0  0
 14 15  1  1  0  0  0
 14 16  1  0  0  0  0
 16 27  1  6  0  0  0
 18 23  2  0  0  0  0
 18 19  1  0  0  0  0
 19 20  2  0  0  0  0
 20 21  1  0  0  0  0
 21 22  2  0  0  0  0
 21 27  1  0  0  0  0
 22 23  1  0  0  0  0
 22 25  1  0  0  0  0
 23 24  1  0  0  0  0
 25 26  2  0  0  0  0
 26 27  1  0  0  0  0
M  END
>  <CHROM.1>
-174.98491695,-51.27610911,-170.94698108,-89.91356847,-78.08937641,-161.45692424
79.84075868,12.88868349,-10.27487326,-21.82526359,-2.66329870,0.70182525
1.36337843

>  <Name>
ligand

>  <RI>
0

>  <Rbt.Current_Directory>
/home/itssahil/PROJECTS/Mol_Feturizer/New_Systems/rnas/3E5F

>  <Rbt.Executable>
rbdock ($Id: //depot/dev/client3/rdock/2013.1/src/exe/rbdock.cxx#4 $)

>  <Rbt.Library>
libRbt.so (2013.1, Build901 2013/11/27)

>  <Rbt.Parameter_File>
/export/apps/rDock/src/rDock_2013.1_src/data/scripts/dock_solv.prm

>  <Rbt.Receptor>
prm/blind_docking_40.prm

>  <SCORE>
-12.8482

>  <SCORE.INTER>
-12.601

>  <SCORE.INTER.CONST>
1

>  <SCORE.INTER.POLAR>
0

>  <SCORE.INTER.ROT>
7

>  <SCORE.INTER.SOLV>
9.86364

>  <SCORE.INTER.VDW>
-19.9552

>  <SCORE.INTER.norm>
-0.466705

>  <SCORE.INTRA>
-0.247181

>  <SCORE.INTRA.DIHEDRAL>
0.424115

>  <SCORE.INTRA.DIHEDRAL.0>
4.89803

>  <SCORE.INTRA.POLAR>
0

>  <SCORE.INTRA.POLAR.0>
0

>  <SCORE.INTRA.REPUL>
0

>  <SCORE.INTRA.REPUL.0>
0

>  <SCORE.INTRA.SOLV>
-0.0583992

>  <SCORE.INTRA.SOLV.lig_0>
-48.5832

>  <SCORE.INTRA.VDW>
-0.430039

>  <SCORE.INTRA.VDW.0>
-2.39056

>  <SCORE.INTRA.norm>
-0.00915487

>  <SCORE.RESTR>
0

>  <SCORE.RESTR.CAVITY>
0

>  <SCORE.RESTR.norm>
0

>  <SCORE.SYSTEM>
0

>  <SCORE.SYSTEM.CONST>
0

>  <SCORE.SYSTEM.DIHEDRAL>
0

>  <SCORE.SYSTEM.SOLV>
0

>  <SCORE.SYSTEM.norm>
0

>  <SCORE.heavy>
27

>  <SCORE.norm>
-0.47586

>  <RMSD>
7.116

$$$$
ligand
 OpenBabel11021811473D
libRbt.so/2013.1/901 2013/11/27
 27 29  0  0  0  0  0  0  0  0999 V2000
   11.9871  -11.5612  -20.4515 N   0  0  0  0  0  0  0  0  0  0  0  0
   12.6936  -11.4359  -21.7348 C   0  0  2  0  0  0  0  0  0  0  0  0
   13.8241  -12.4666  -21.8115 C   0  0  0  0  0  0  0  0  0  0  0  0
   14.1698  -12.8451  -22.9521 O   0  0  0  0  0  0  0  0  0  0  0  0
   13.2862  -10.0294  -21.8365 C   0  0  0  0  0  0  0  0  0  0  0  0
   13.8232   -9.7324  -23.2390 C   0  0  0  0  0  0  0  0  0  0  0  0
   15.1563   -7.9711  -25.0253 C   0  0  0  0  0  0  0  0  0  0  0  0
   14.2391   -7.9304  -23.4245 Se  0  0  2  0  0  0  0  0  0  0  0  0
   15.6020   -7.5426  -22.2210 C   0  0  0  0  0  0  0  0  0  0  0  0
   16.1148   -6.1053  -22.3193 C   0  0  1  0  0  0  0  0  0  0  0  0
   15.2177   -5.2533  -21.5864 O   0  0  0  0  0  0  0  0  0  0  0  0
   17.4313   -6.0396  -21.5443 C   0  0  1  0  0  0  0  0  0  0  0  0
   18.0515   -4.7710  -21.7595 O   0  0  0  0  0  0  0  0  0  0  0  0
   16.8829   -6.1167  -20.1216 C   0  0  1  0  0  0  0  0  0  0  0  0
   17.8547   -5.5771  -19.2240 O   0  0  0  0  0  0  0  0  0  0  0  0
   15.7181   -5.1332  -20.2428 C   0  0  2  0  0  0  0  0  0  0  0  0
   14.3115  -12.8608  -20.7292 O   0  0  0  0  0  0  0  0  0  0  0  0
   10.7862   -6.4173  -19.4230 N   0  0  0  0  0  0  0  0  0  0  0  0
   11.4269   -6.2817  -20.5713 C   0  0  0  0  0  0  0  0  0  0  0  0
   12.7042   -5.9461  -20.6210 N   0  0  0  0  0  0  0  0  0  0  0  0
   13.3983   -5.7335  -19.4927 C   0  0  0  0  0  0  0  0  0  0  0  0
   12.7593   -5.8647  -18.2678 C   0  0  0  0  0  0  0  0  0  0  0  0
   11.4144   -6.2154  -18.2577 C   0  0  0  0  0  0  0  0  0  0  0  0
   10.7582   -6.3128  -17.1056 N   0  0  0  0  0  0  0  0  0  0  0  0
   13.6508   -5.6039  -17.3182 N   0  0  0  0  0  0  0  0  0  0  0  0
   14.8045   -5.3194  -17.9177 C   0  0  0  0  0  0  0  0  0  0  0  0
   14.6589   -5.3965  -19.2407 N   0  0  0  0  0  0  0  0  0  0  0  0
  2  1  1  1  0  0  0
  2  5  1  0  0  0  0
  2  3  1  0  0  0  0
  3 17  1  0  0  0  0
  3  4  1  0  0  0  0
  5  6  1  0  0  0  0
  7  8  1  0  0  0  0
  8  6  1  1  0  0  0
  8  9  1  0  0  0  0
 10  9  1  1  0  0  0
 10 11  1  0  0  0  0
 10 12  1  0  0  0  0
 11 16  1  0  0  0  0
 12 13  1  1  0  0  0
 12 14  1  0  0  0  0
 14 15  1  1  0  0  0
 14 16  1  0  0  0  0
 16 27  1  1  0  0  0
 18 23  2  0  0  0  0
 18 19  1  0  0  0  0
 19 20  2  0  0  0  0
 20 21  1  0  0  0  0
 21 22  2  0  0  0  0
 21 27  1  0  0  0  0
 22 23  1  0  0  0  0
 22 25  1  0  0  0  0
 23 24  1  0  0  0  0
 25 26  2  0  0  0  0
 26 27  1  0  0  0  0
M  END
>  <CHROM.1>
-169.86688248,153.30396534,169.30850461,168.82066274,176.37695064,81.41157606
1.40781476,14.24252944,-7.60169592,-21.14328263,1.73185654,-0.68221334,-2.50754595

>  <Name>
ligand

>  <RI>
0

>  <Rbt.Current_Directory>
/home/itssahil/PROJECTS/Mol_Feturizer/New_Systems/rnas/3E5F

>  <Rbt.Executable>
rbdock ($Id: //depot/dev/client3/rdock/2013.1/src/exe/rbdock.cxx#4 $)

>  <Rbt.Library>
libRbt.so (2013.1, Build901 2013/11/27)

>  <Rbt.Parameter_File>
/export/apps/rDock/src/rDock_2013.1_src/data/scripts/dock_solv.prm

>  <Rbt.Receptor>
prm/pocket_docking_4.prm

>  <SCORE>
-18.2166

>  <SCORE.INTER>
-18.3507

>  <SCORE.INTER.CONST>
1

>  <SCORE.INTER.POLAR>
0

>  <SCORE.INTER.ROT>
7

>  <SCORE.INTER.SOLV>
8.56224

>  <SCORE.INTER.VDW>
-23.3545

>  <SCORE.INTER.norm>
-0.679655

>  <SCORE.INTRA>
0.134059

>  <SCORE.INTRA.DIHEDRAL>
0.40856

>  <SCORE.INTRA.DIHEDRAL.0>
4.89803

>  <SCORE.INTRA.POLAR>
0

>  <SCORE.INTRA.POLAR.0>
0

>  <SCORE.INTRA.REPUL>
0

>  <SCORE.INTRA.REPUL.0>
0

>  <SCORE.INTRA.SOLV>
0.0557771

>  <SCORE.INTRA.SOLV.lig_0>
-48.5832

>  <SCORE.INTRA.VDW>
-0.0981093

>  <SCORE.INTRA.VDW.0>
-2.39056

>  <SCORE.INTRA.norm>
0.00496515

>  <SCORE.RESTR>
0

>  <SCORE.RESTR.CAVITY>
0

>  <SCORE.RESTR.norm>
0

>  <SCORE.SYSTEM>
0

>  <SCORE.SYSTEM.CONST>
0

>  <SCORE.SYSTEM.DIHEDRAL>
0

>  <SCORE.SYSTEM.SOLV>
0

>  <SCORE.SYSTEM.norm>
0

>  <SCORE.heavy>
27

>  <SCORE.norm>
-0.67469

>  <RMSD>
7.128

$$$$
ligand
 OpenBabel11021811473D
libRbt.so/2013.1/901 2013/11/27
 27 29  0  0  0  0  0  0  0  0999 V2000
   12.3498  -11.3354  -22.7233 N   0  0  0  0  0  0  0  0  0  0  0  0
   13.6439  -11.3881  -22.0273 C   0  0  2  0  0  0  0  0  0  0  0  0
   13.6113  -12.4717  -20.9452 C   0  0  0  0  0  0  0  0  0  0  0  0
   12.6066  -12.5000  -20.2014 O   0  0  0  0  0  0  0  0  0  0  0  0
   13.9082  -10.0307  -21.3735 C   0  0  0  0  0  0  0  0  0  0  0  0
   14.1798   -8.9372  -22.4097 C   0  0  0  0  0  0  0  0  0  0  0  0
   15.5483   -7.5049  -20.3735 C   0  0  0  0  0  0  0  0  0  0  0  0
   14.2045   -7.2577  -21.6140 Se  0  0  2  0  0  0  0  0  0  0  0  0
   12.7048   -7.1323  -20.5224 C   0  0  0  0  0  0  0  0  0  0  0  0
   12.5186   -5.7503  -19.8945 C   0  0  1  0  0  0  0  0  0  0  0  0
   11.1359   -5.6017  -19.5288 O   0  0  0  0  0  0  0  0  0  0  0  0
   13.2732   -5.7512  -18.5646 C   0  0  1  0  0  0  0  0  0  0  0  0
   13.2931   -4.4292  -18.0238 O   0  0  0  0  0  0  0  0  0  0  0  0
   12.3318   -6.6336  -17.7486 C   0  0  1  0  0  0  0  0  0  0  0  0
   12.5490   -6.3773  -16.3600 O   0  0  0  0  0  0  0  0  0  0  0  0
   10.9902   -6.0272  -18.1621 C   0  0  2  0  0  0  0  0  0  0  0  0
   14.5947  -13.2417  -20.8787 O   0  0  0  0  0  0  0  0  0  0  0  0
    9.2647  -10.8116  -19.0435 N   0  0  0  0  0  0  0  0  0  0  0  0
   10.4365  -10.2837  -19.3527 C   0  0  0  0  0  0  0  0  0  0  0  0
   10.7360   -9.0310  -19.0569 N   0  0  0  0  0  0  0  0  0  0  0  0
    9.8494   -8.2488  -18.4228 C   0  0  0  0  0  0  0  0  0  0  0  0
    8.6077   -8.7673  -18.0834 C   0  0  0  0  0  0  0  0  0  0  0  0
    8.3293  -10.0880  -18.4151 C   0  0  0  0  0  0  0  0  0  0  0  0
    7.1372  -10.6085  -18.1412 N   0  0  0  0  0  0  0  0  0  0  0  0
    7.9224   -7.8061  -17.4744 N   0  0  0  0  0  0  0  0  0  0  0  0
    8.6981   -6.7254  -17.4311 C   0  0  0  0  0  0  0  0  0  0  0  0
    9.8722   -6.9871  -18.0058 N   0  0  0  0  0  0  0  0  0  0  0  0
  2  1  1  1  0  0  0
  2  5  1  0  0  0  0
  2  3  1  0  0  0  0
  3 17  1  0  0  0  0
  3  4  1  0  0  0  0
  5  6  1  0  0  0  0
  7  8  1  0  0  0  0
  8  6  1  6  0  0  0
  8  9  1  0  0  0  0
 10  9  1  1  0  0  0
 10 11  1  0  0  0  0
 10 12  1  0  0  0  0
 11 16  1  0  0  0  0
 12 13  1  1  0  0  0
 12 14  1  0  0  0  0
 14 15  1  1  0  0  0
 14 16  1  0  0  0  0
 16 27  1  6  0  0  0
 18 23  2  0  0  0  0
 18 19  1  0  0  0  0
 19 20  2  0  0  0  0
 20 21  1  0  0  0  0
 21 22  2  0  0  0  0
 21 27  1  0  0  0  0
 22 23  1  0  0  0  0
 22 25  1  0  0  0  0
 23 24  1  0  0  0  0
 25 26  2  0  0  0  0
 26 27  1  0  0  0  0
M  END
>  <CHROM.1>
-69.24833746,-46.24907250,170.18226250,58.17458156,-174.70591381,157.91127202
71.71414581,12.09493042,-8.37313323,-19.77208997,0.51902755,-0.54291636,-2.80575368

>  <Name>
ligand

>  <RI>
0

>  <Rbt.Current_Directory>
/home/itssahil/PROJECTS/Mol_Feturizer/New_Systems/rnas/3E5F

>  <Rbt.Executable>
rbdock ($Id: //depot/dev/client3/rdock/2013.1/src/exe/rbdock.cxx#4 $)

>  <Rbt.Library>
libRbt.so (2013.1, Build901 2013/11/27)

>  <Rbt.Parameter_File>
/export/apps/rDock/src/rDock_2013.1_src/data/scripts/dock_solv.prm

>  <Rbt.Receptor>
prm/pocket_docking_7.prm

>  <SCORE>
-14.6875

>  <SCORE.INTER>
-15.0149

>  <SCORE.INTER.CONST>
1

>  <SCORE.INTER.POLAR>
0

>  <SCORE.INTER.ROT>
7

>  <SCORE.INTER.SOLV>
5.62224

>  <SCORE.INTER.VDW>
-20.1507

>  <SCORE.INTER.norm>
-0.556106

>  <SCORE.INTRA>
0.327322

>  <SCORE.INTRA.DIHEDRAL>
0.46226

>  <SCORE.INTRA.DIHEDRAL.0>
4.89803

>  <SCORE.INTRA.POLAR>
0

>  <SCORE.INTRA.POLAR.0>
0

>  <SCORE.INTRA.REPUL>
0

>  <SCORE.INTRA.REPUL.0>
0

>  <SCORE.INTRA.SOLV>
0.593131

>  <SCORE.INTRA.SOLV.lig_0>
-48.5832

>  <SCORE.INTRA.VDW>
-0.200373

>  <SCORE.INTRA.VDW.0>
-2.39056

>  <SCORE.INTRA.norm>
0.0121231

>  <SCORE.RESTR>
0

>  <SCORE.RESTR.CAVITY>
0

>  <SCORE.RESTR.norm>
0

>  <SCORE.SYSTEM>
0

>  <SCORE.SYSTEM.CONST>
0

>  <SCORE.SYSTEM.DIHEDRAL>
0

>  <SCORE.SYSTEM.SOLV>
0

>  <SCORE.SYSTEM.norm>
0

>  <SCORE.heavy>
27

>  <SCORE.norm>
-0.543983

>  <RMSD>
7.153

$$$$
ligand
 OpenBabel11021811473D
libRbt.so/2013.1/901 2013/11/27
 27 29  0  0  0  0  0  0  0  0999 V2000
    5.0127  -13.9680  -18.9003 N   0  0  0  0  0  0  0  0  0  0  0  0
    6.2179  -13.4686  -19.5785 C   0  0  2  0  0  0  0  0  0  0  0  0
    7.1601  -14.6341  -19.8946 C   0  0  0  0  0  0  0  0  0  0  0  0
    8.0174  -14.4446  -20.7850 O   0  0  0  0  0  0  0  0  0  0  0  0
    6.9309  -12.4806  -18.6536 C   0  0  0  0  0  0  0  0  0  0  0  0
    8.0179  -11.6900  -19.3863 C   0  0  0  0  0  0  0  0  0  0  0  0
    8.1708   -9.2461  -17.9460 C   0  0  0  0  0  0  0  0  0  0  0  0
    9.1251  -10.8079  -18.1819 Se  0  0  2  0  0  0  0  0  0  0  0  0
   10.6088  -10.2022  -19.1242 C   0  0  0  0  0  0  0  0  0  0  0  0
   11.7001   -9.6088  -18.2321 C   0  0  1  0  0  0  0  0  0  0  0  0
   12.9630   -9.7538  -18.9042 O   0  0  0  0  0  0  0  0  0  0  0  0
   11.4647   -8.0991  -18.1713 C   0  0  1  0  0  0  0  0  0  0  0  0
   12.3377   -7.5165  -17.2023 O   0  0  0  0  0  0  0  0  0  0  0  0
   11.9224   -7.7222  -19.5781 C   0  0  1  0  0  0  0  0  0  0  0  0
   12.2679   -6.3360  -19.5937 O   0  0  0  0  0  0  0  0  0  0  0  0
   13.2026   -8.5545  -19.6621 C   0  0  2  0  0  0  0  0  0  0  0  0
    6.9973  -15.6916  -19.2469 O   0  0  0  0  0  0  0  0  0  0  0  0
   11.7898  -10.7274  -24.1261 N   0  0  0  0  0  0  0  0  0  0  0  0
   11.1087  -10.6371  -22.9967 C   0  0  0  0  0  0  0  0  0  0  0  0
   11.6087  -10.0431  -21.9272 N   0  0  0  0  0  0  0  0  0  0  0  0
   12.8369   -9.5042  -21.9575 C   0  0  0  0  0  0  0  0  0  0  0  0
   13.5832   -9.5808  -23.1251 C   0  0  0  0  0  0  0  0  0  0  0  0
   13.0237  -10.2169  -24.2270 C   0  0  0  0  0  0  0  0  0  0  0  0
   13.7224  -10.3442  -25.3508 N   0  0  0  0  0  0  0  0  0  0  0  0
   14.7475   -8.9827  -22.8992 N   0  0  0  0  0  0  0  0  0  0  0  0
   14.7378   -8.5469  -21.6417 C   0  0  0  0  0  0  0  0  0  0  0  0
   13.5787   -8.8601  -21.0624 N   0  0  0  0  0  0  0  0  0  0  0  0
  2  1  1  1  0  0  0
  2  5  1  0  0  0  0
  2  3  1  0  0  0  0
  3 17  1  0  0  0  0
  3  4  1  0  0  0  0
  5  6  1  0  0  0  0
  7  8  1  0  0  0  0
  8  6  1  6  0  0  0
  8  9  1  0  0  0  0
 10  9  1  6  0  0  0
 10 11  1  0  0  0  0
 10 12  1  0  0  0  0
 11 16  1  0  0  0  0
 12 13  1  1  0  0  0
 12 14  1  0  0  0  0
 14 15  1  1  0  0  0
 14 16  1  0  0  0  0
 16 27  1  6  0  0  0
 18 23  2  0  0  0  0
 18 19  1  0  0  0  0
 19 20  2  0  0  0  0
 20 21  1  0  0  0  0
 21 22  2  0  0  0  0
 21 27  1  0  0  0  0
 22 23  1  0  0  0  0
 22 25  1  0  0  0  0
 23 24  1  0  0  0  0
 25 26  2  0  0  0  0
 26 27  1  0  0  0  0
M  END
>  <CHROM.1>
-167.67816288,159.98253644,-166.52276785,-86.60295950,-172.62250033,153.58071123
61.10364122,10.54239168,-10.50074561,-20.04889064,-3.13007002,0.69074565
0.98463114

>  <Name>
ligand

>  <RI>
0

>  <Rbt.Current_Directory>
/home/itssahil/PROJECTS/Mol_Feturizer/New_Systems/rnas/3E5F

>  <Rbt.Executable>
rbdock ($Id: //depot/dev/client3/rdock/2013.1/src/exe/rbdock.cxx#4 $)

>  <Rbt.Library>
libRbt.so (2013.1, Build901 2013/11/27)

>  <Rbt.Parameter_File>
/export/apps/rDock/src/rDock_2013.1_src/data/scripts/dock_solv.prm

>  <Rbt.Receptor>
prm/blind_docking_100.prm

>  <SCORE>
-7.86867

>  <SCORE.INTER>
-8.87257

>  <SCORE.INTER.CONST>
1

>  <SCORE.INTER.POLAR>
0

>  <SCORE.INTER.ROT>
7

>  <SCORE.INTER.SOLV>
13.2605

>  <SCORE.INTER.VDW>
-18.6019

>  <SCORE.INTER.norm>
-0.328614

>  <SCORE.INTRA>
0.981735

>  <SCORE.INTRA.DIHEDRAL>
2.16861

>  <SCORE.INTRA.DIHEDRAL.0>
4.89803

>  <SCORE.INTRA.POLAR>
0

>  <SCORE.INTRA.POLAR.0>
0

>  <SCORE.INTRA.REPUL>
0

>  <SCORE.INTRA.REPUL.0>
0

>  <SCORE.INTRA.SOLV>
-0.025485

>  <SCORE.INTRA.SOLV.lig_0>
-48.5832

>  <SCORE.INTRA.VDW>
-0.0898294

>  <SCORE.INTRA.VDW.0>
-2.39056

>  <SCORE.INTRA.norm>
0.0363606

>  <SCORE.RESTR>
0.0221651

>  <SCORE.RESTR.CAVITY>
0.0221651

>  <SCORE.RESTR.norm>
0.000820929

>  <SCORE.SYSTEM>
0

>  <SCORE.SYSTEM.CONST>
0

>  <SCORE.SYSTEM.DIHEDRAL>
0

>  <SCORE.SYSTEM.SOLV>
0

>  <SCORE.SYSTEM.norm>
0

>  <SCORE.heavy>
27

>  <SCORE.norm>
-0.291432

>  <RMSD>
7.157

$$$$
ligand
 OpenBabel11021811473D
libRbt.so/2013.1/901 2013/11/27
 27 29  0  0  0  0  0  0  0  0999 V2000
   11.7012  -11.5346  -20.9085 N   0  0  0  0  0  0  0  0  0  0  0  0
   12.5751  -11.3283  -22.0727 C   0  0  2  0  0  0  0  0  0  0  0  0
   13.6942  -12.3742  -22.0776 C   0  0  0  0  0  0  0  0  0  0  0  0
   14.0969  -12.7683  -23.1939 O   0  0  0  0  0  0  0  0  0  0  0  0
   13.1915   -9.9310  -21.9855 C   0  0  0  0  0  0  0  0  0  0  0  0
   13.9100   -9.5385  -23.2790 C   0  0  0  0  0  0  0  0  0  0  0  0
   15.3401   -7.6454  -24.8415 C   0  0  0  0  0  0  0  0  0  0  0  0
   14.4835   -7.7718  -23.2118 Se  0  0  2  0  0  0  0  0  0  0  0  0
   15.9151   -7.6915  -22.0284 C   0  0  0  0  0  0  0  0  0  0  0  0
   16.6764   -6.3662  -22.0776 C   0  0  1  0  0  0  0  0  0  0  0  0
   15.8918   -5.3679  -21.4027 O   0  0  0  0  0  0  0  0  0  0  0  0
   17.9256   -6.5285  -21.2108 C   0  0  1  0  0  0  0  0  0  0  0  0
   18.7713   -5.3885  -21.3705 O   0  0  0  0  0  0  0  0  0  0  0  0
   17.2723   -6.5031  -19.8312 C   0  0  1  0  0  0  0  0  0  0  0  0
   18.2568   -6.1382  -18.8624 O   0  0  0  0  0  0  0  0  0  0  0  0
   16.3085   -5.3319  -20.0261 C   0  0  2  0  0  0  0  0  0  0  0  0
   14.1161  -12.7639  -20.9666 O   0  0  0  0  0  0  0  0  0  0  0  0
   11.1940   -5.8542  -19.5636 N   0  0  0  0  0  0  0  0  0  0  0  0
   11.9307   -5.8543  -20.6613 C   0  0  0  0  0  0  0  0  0  0  0  0
   13.2437   -5.7101  -20.6190 N   0  0  0  0  0  0  0  0  0  0  0  0
   13.8764   -5.5610  -19.4454 C   0  0  0  0  0  0  0  0  0  0  0  0
   13.1364   -5.5540  -18.2714 C   0  0  0  0  0  0  0  0  0  0  0  0
   11.7574   -5.7046  -18.3580 C   0  0  0  0  0  0  0  0  0  0  0  0
   11.0108   -5.6644  -17.2588 N   0  0  0  0  0  0  0  0  0  0  0  0
   13.9841   -5.3922  -17.2616 N   0  0  0  0  0  0  0  0  0  0  0  0
   15.2083   -5.3003  -17.7757 C   0  0  0  0  0  0  0  0  0  0  0  0
   15.1510   -5.4024  -19.1037 N   0  0  0  0  0  0  0  0  0  0  0  0
  2  1  1  1  0  0  0
  2  5  1  0  0  0  0
  2  3  1  0  0  0  0
  3 17  1  0  0  0  0
  3  4  1  0  0  0  0
  5  6  1  0  0  0  0
  7  8  1  0  0  0  0
  8  6  1  6  0  0  0
  8  9  1  0  0  0  0
 10  9  1  1  0  0  0
 10 11  1  0  0  0  0
 10 12  1  0  0  0  0
 11 16  1  0  0  0  0
 12 13  1  1  0  0  0
 12 14  1  0  0  0  0
 14 15  1  1  0  0  0
 14 16  1  0  0  0  0
 16 27  1  1  0  0  0
 18 23  2  0  0  0  0
 18 19  1  0  0  0  0
 19 20  2  0  0  0  0
 20 21  1  0  0  0  0
 21 22  2  0  0  0  0
 21 27  1  0  0  0  0
 22 23  1  0  0  0  0
 22 25  1  0  0  0  0
 23 24  1  0  0  0  0
 25 26  2  0  0  0  0
 26 27  1  0  0  0  0
M  END
>  <CHROM.1>
-169.60765920,146.59518829,173.72169413,177.88146255,168.27839181,75.52160968
3.88529372,14.52574876,-7.53883635,-21.08484547,1.79074562,-0.49531495,-2.46644308

>  <Name>
ligand

>  <RI>
0

>  <Rbt.Current_Directory>
/home/itssahil/PROJECTS/Mol_Feturizer/New_Systems/rnas/3E5F

>  <Rbt.Executable>
rbdock ($Id: //depot/dev/client3/rdock/2013.1/src/exe/rbdock.cxx#4 $)

>  <Rbt.Library>
libRbt.so (2013.1, Build901 2013/11/27)

>  <Rbt.Parameter_File>
/export/apps/rDock/src/rDock_2013.1_src/data/scripts/dock_solv.prm

>  <Rbt.Receptor>
prm/pocket_docking_4.prm

>  <SCORE>
-17.7853

>  <SCORE.INTER>
-17.3302

>  <SCORE.INTER.CONST>
1

>  <SCORE.INTER.POLAR>
0

>  <SCORE.INTER.ROT>
7

>  <SCORE.INTER.SOLV>
8.20767

>  <SCORE.INTER.VDW>
-22.556

>  <SCORE.INTER.norm>
-0.64186

>  <SCORE.INTRA>
-0.455056

>  <SCORE.INTRA.DIHEDRAL>
-0.468045

>  <SCORE.INTRA.DIHEDRAL.0>
4.89803

>  <SCORE.INTRA.POLAR>
0

>  <SCORE.INTRA.POLAR.0>
0

>  <SCORE.INTRA.REPUL>
0

>  <SCORE.INTRA.REPUL.0>
0

>  <SCORE.INTRA.SOLV>
0.0688934

>  <SCORE.INTRA.SOLV.lig_0>
-48.5832

>  <SCORE.INTRA.VDW>
-0.255481

>  <SCORE.INTRA.VDW.0>
-2.39056

>  <SCORE.INTRA.norm>
-0.0168539

>  <SCORE.RESTR>
0

>  <SCORE.RESTR.CAVITY>
0

>  <SCORE.RESTR.norm>
0

>  <SCORE.SYSTEM>
0

>  <SCORE.SYSTEM.CONST>
0

>  <SCORE.SYSTEM.DIHEDRAL>
0

>  <SCORE.SYSTEM.SOLV>
0

>  <SCORE.SYSTEM.norm>
0

>  <SCORE.heavy>
27

>  <SCORE.norm>
-0.658714

>  <RMSD>
7.161

$$$$
ligand
 OpenBabel11021811473D
libRbt.so/2013.1/901 2013/11/27
 27 29  0  0  0  0  0  0  0  0999 V2000
   12.2347  -11.4256  -22.8088 N   0  0  0  0  0  0  0  0  0  0  0  0
   13.5182  -11.1921  -22.1306 C   0  0  2  0  0  0  0  0  0  0  0  0
   13.4168  -11.6132  -20.6614 C   0  0  0  0  0  0  0  0  0  0  0  0
   12.6816  -10.9220  -19.9230 O   0  0  0  0  0  0  0  0  0  0  0  0
   13.8518   -9.7011  -22.2058 C   0  0  0  0  0  0  0  0  0  0  0  0
   14.2379   -9.2696  -23.6228 C   0  0  0  0  0  0  0  0  0  0  0  0
   15.5810   -7.3445  -25.2230 C   0  0  0  0  0  0  0  0  0  0  0  0
   14.5413   -7.4376  -23.7012 Se  0  0  2  0  0  0  0  0  0  0  0  0
   15.7763   -7.0166  -22.3769 C   0  0  0  0  0  0  0  0  0  0  0  0
   16.1194   -5.5278  -22.3108 C   0  0  1  0  0  0  0  0  0  0  0  0
   14.9243   -4.8021  -21.9751 O   0  0  0  0  0  0  0  0  0  0  0  0
   17.0441   -5.3285  -21.1094 C   0  0  1  0  0  0  0  0  0  0  0  0
   17.5486   -3.9921  -21.1093 O   0  0  0  0  0  0  0  0  0  0  0  0
   16.0262   -5.5009  -19.9848 C   0  0  1  0  0  0  0  0  0  0  0  0
   16.5329   -4.8737  -18.8054 O   0  0  0  0  0  0  0  0  0  0  0  0
   14.8810   -4.6560  -20.5444 C   0  0  2  0  0  0  0  0  0  0  0  0
   14.0833  -12.6101  -20.3061 O   0  0  0  0  0  0  0  0  0  0  0  0
   11.4500   -4.1003  -16.7281 N   0  0  0  0  0  0  0  0  0  0  0  0
   12.6152   -3.4969  -16.8886 C   0  0  0  0  0  0  0  0  0  0  0  0
   13.3905   -3.7449  -17.9298 N   0  0  0  0  0  0  0  0  0  0  0  0
   13.0114   -4.6253  -18.8685 C   0  0  0  0  0  0  0  0  0  0  0  0
   11.7953   -5.2800  -18.7335 C   0  0  0  0  0  0  0  0  0  0  0  0
   11.0103   -4.9947  -17.6225 C   0  0  0  0  0  0  0  0  0  0  0  0
    9.8571   -5.6299  -17.4385 N   0  0  0  0  0  0  0  0  0  0  0  0
   11.6550   -6.0890  -19.7777 N   0  0  0  0  0  0  0  0  0  0  0  0
   12.7371   -5.9517  -20.5403 C   0  0  0  0  0  0  0  0  0  0  0  0
   13.5668   -5.0627  -19.9940 N   0  0  0  0  0  0  0  0  0  0  0  0
  2  1  1  6  0  0  0
  2  5  1  0  0  0  0
  2  3  1  0  0  0  0
  3 17  1  0  0  0  0
  3  4  1  0  0  0  0
  5  6  1  0  0  0  0
  7  8  1  0  0  0  0
  8  6  1  1  0  0  0
  8  9  1  0  0  0  0
 10  9  1  1  0  0  0
 10 11  1  0  0  0  0
 10 12  1  0  0  0  0
 11 16  1  0  0  0  0
 12 13  1  6  0  0  0
 12 14  1  0  0  0  0
 14 15  1  1  0  0  0
 14 16  1  0  0  0  0
 16 27  1  1  0  0  0
 18 23  2  0  0  0  0
 18 19  1  0  0  0  0
 19 20  2  0  0  0  0
 20 21  1  0  0  0  0
 21 22  2  0  0  0  0
 21 27  1  0  0  0  0
 22 23  1  0  0  0  0
 22 25  1  0  0  0  0
 23 24  1  0  0  0  0
 25 26  2  0  0  0  0
 26 27  1  0  0  0  0
M  END
>  <CHROM.1>
-71.18184762,-68.45167386,176.71873441,158.74614147,-179.51118656,62.80173327
-153.52816630,14.01103107,-6.89176270,-21.01553193,1.30892443,-0.80336908
-2.60593739

>  <Name>
ligand

>  <RI>
0

>  <Rbt.Current_Directory>
/home/itssahil/PROJECTS/Mol_Feturizer/New_Systems/rnas/3E5F

>  <Rbt.Executable>
rbdock ($Id: //depot/dev/client3/rdock/2013.1/src/exe/rbdock.cxx#4 $)

>  <Rbt.Library>
libRbt.so (2013.1, Build901 2013/11/27)

>  <Rbt.Parameter_File>
/export/apps/rDock/src/rDock_2013.1_src/data/scripts/dock_solv.prm

>  <Rbt.Receptor>
prm/pocket_docking_5.prm

>  <SCORE>
-17.4723

>  <SCORE.INTER>
-17.2824

>  <SCORE.INTER.CONST>
1

>  <SCORE.INTER.POLAR>
0

>  <SCORE.INTER.ROT>
7

>  <SCORE.INTER.SOLV>
11.3636

>  <SCORE.INTER.VDW>
-23.5761

>  <SCORE.INTER.norm>
-0.640088

>  <SCORE.INTRA>
-0.189912

>  <SCORE.INTRA.DIHEDRAL>
-1.00768

>  <SCORE.INTRA.DIHEDRAL.0>
4.89803

>  <SCORE.INTRA.POLAR>
0

>  <SCORE.INTRA.POLAR.0>
0

>  <SCORE.INTRA.REPUL>
0

>  <SCORE.INTRA.REPUL.0>
0

>  <SCORE.INTRA.SOLV>
0.639144

>  <SCORE.INTRA.SOLV.lig_0>
-48.5832

>  <SCORE.INTRA.VDW>
-0.00564551

>  <SCORE.INTRA.VDW.0>
-2.39056

>  <SCORE.INTRA.norm>
-0.00703376

>  <SCORE.RESTR>
0

>  <SCORE.RESTR.CAVITY>
0

>  <SCORE.RESTR.norm>
0

>  <SCORE.SYSTEM>
0

>  <SCORE.SYSTEM.CONST>
0

>  <SCORE.SYSTEM.DIHEDRAL>
0

>  <SCORE.SYSTEM.SOLV>
0

>  <SCORE.SYSTEM.norm>
0

>  <SCORE.heavy>
27

>  <SCORE.norm>
-0.647122

>  <RMSD>
7.163

$$$$
ligand
 OpenBabel11021811473D
libRbt.so/2013.1/901 2013/11/27
 27 29  0  0  0  0  0  0  0  0999 V2000
    6.8183  -15.3561  -19.6514 N   0  0  0  0  0  0  0  0  0  0  0  0
    6.4950  -13.9333  -19.4704 C   0  0  2  0  0  0  0  0  0  0  0  0
    5.8540  -13.3770  -20.7455 C   0  0  0  0  0  0  0  0  0  0  0  0
    6.1145  -13.9689  -21.8157 O   0  0  0  0  0  0  0  0  0  0  0  0
    7.7865  -13.1669  -19.1799 C   0  0  0  0  0  0  0  0  0  0  0  0
    7.5233  -11.6872  -18.8888 C   0  0  0  0  0  0  0  0  0  0  0  0
    8.0995   -9.5053  -17.1632 C   0  0  0  0  0  0  0  0  0  0  0  0
    8.9530  -10.9233  -17.9794 Se  0  0  2  0  0  0  0  0  0  0  0  0
   10.0136  -10.0516  -19.2329 C   0  0  0  0  0  0  0  0  0  0  0  0
   10.2431  -10.8614  -20.5097 C   0  0  1  0  0  0  0  0  0  0  0  0
   11.0121  -10.0594  -21.4225 O   0  0  0  0  0  0  0  0  0  0  0  0
   11.1640  -12.0272  -20.1478 C   0  0  1  0  0  0  0  0  0  0  0  0
   11.2607  -12.9236  -21.2557 O   0  0  0  0  0  0  0  0  0  0  0  0
   12.4746  -11.2622  -19.9809 C   0  0  1  0  0  0  0  0  0  0  0  0
   13.5629  -12.1749  -20.1350 O   0  0  0  0  0  0  0  0  0  0  0  0
   12.4035  -10.3607  -21.2141 C   0  0  2  0  0  0  0  0  0  0  0  0
    5.1256  -12.3674  -20.6246 O   0  0  0  0  0  0  0  0  0  0  0  0
   12.3878   -5.3117  -20.1410 N   0  0  0  0  0  0  0  0  0  0  0  0
   11.3692   -6.1534  -20.1791 C   0  0  0  0  0  0  0  0  0  0  0  0
   11.5328   -7.4320  -20.4711 N   0  0  0  0  0  0  0  0  0  0  0  0
   12.7536   -7.9204  -20.7376 C   0  0  0  0  0  0  0  0  0  0  0  0
   13.8473   -7.0666  -20.7090 C   0  0  0  0  0  0  0  0  0  0  0  0
   13.6336   -5.7281  -20.4015 C   0  0  0  0  0  0  0  0  0  0  0  0
   14.6506   -4.8720  -20.4022 N   0  0  0  0  0  0  0  0  0  0  0  0
   14.9257   -7.7832  -21.0055 N   0  0  0  0  0  0  0  0  0  0  0  0
   14.5303   -9.0370  -21.2132 C   0  0  0  0  0  0  0  0  0  0  0  0
   13.2101   -9.1284  -21.0517 N   0  0  0  0  0  0  0  0  0  0  0  0
  2  1  1  6  0  0  0
  2  5  1  0  0  0  0
  2  3  1  0  0  0  0
  3 17  1  0  0  0  0
  3  4  1  0  0  0  0
  5  6  1  0  0  0  0
  7  8  1  0  0  0  0
  8  6  1  6  0  0  0
  8  9  1  0  0  0  0
 10  9  1  1  0  0  0
 10 11  1  0  0  0  0
 10 12  1  0  0  0  0
 11 16  1  0  0  0  0
 12 13  1  6  0  0  0
 12 14  1  0  0  0  0
 14 15  1  6  0  0  0
 14 16  1  0  0  0  0
 16 27  1  1  0  0  0
 18 23  2  0  0  0  0
 18 19  1  0  0  0  0
 19 20  2  0  0  0  0
 20 21  1  0  0  0  0
 21 22  2  0  0  0  0
 21 27  1  0  0  0  0
 22 23  1  0  0  0  0
 22 25  1  0  0  0  0
 23 24  1  0  0  0  0
 25 26  2  0  0  0  0
 26 27  1  0  0  0  0
M  END
>  <CHROM.1>
-176.30653451,-24.27011169,160.13127281,-156.55708310,-43.72259217,177.01524411
18.86382809,10.33388743,-10.36064449,-19.87935937,-2.51596836,0.42713286
0.35836205

>  <Name>
ligand

>  <RI>
0

>  <Rbt.Current_Directory>
/home/itssahil/PROJECTS/Mol_Feturizer/New_Systems/rnas/3E5F

>  <Rbt.Executable>
rbdock ($Id: //depot/dev/client3/rdock/2013.1/src/exe/rbdock.cxx#4 $)

>  <Rbt.Library>
libRbt.so (2013.1, Build901 2013/11/27)

>  <Rbt.Parameter_File>
/export/apps/rDock/src/rDock_2013.1_src/data/scripts/dock_solv.prm

>  <Rbt.Receptor>
prm/blind_docking_100.prm

>  <SCORE>
-10.8816

>  <SCORE.INTER>
-11.3155

>  <SCORE.INTER.CONST>
1

>  <SCORE.INTER.POLAR>
0

>  <SCORE.INTER.ROT>
7

>  <SCORE.INTER.SOLV>
8.73926

>  <SCORE.INTER.VDW>
-18.7234

>  <SCORE.INTER.norm>
-0.419093

>  <SCORE.INTRA>
0.433955

>  <SCORE.INTRA.DIHEDRAL>
1.41314

>  <SCORE.INTRA.DIHEDRAL.0>
4.89803

>  <SCORE.INTRA.POLAR>
0

>  <SCORE.INTRA.POLAR.0>
0

>  <SCORE.INTRA.REPUL>
0

>  <SCORE.INTRA.REPUL.0>
0

>  <SCORE.INTRA.SOLV>
0.136745

>  <SCORE.INTRA.SOLV.lig_0>
-48.5832

>  <SCORE.INTRA.VDW>
-0.340987

>  <SCORE.INTRA.VDW.0>
-2.39056

>  <SCORE.INTRA.norm>
0.0160724

>  <SCORE.RESTR>
0

>  <SCORE.RESTR.CAVITY>
0

>  <SCORE.RESTR.norm>
0

>  <SCORE.SYSTEM>
0

>  <SCORE.SYSTEM.CONST>
0

>  <SCORE.SYSTEM.DIHEDRAL>
0

>  <SCORE.SYSTEM.SOLV>
0

>  <SCORE.SYSTEM.norm>
0

>  <SCORE.heavy>
27

>  <SCORE.norm>
-0.403021

>  <RMSD>
7.165

$$$$
ligand
 OpenBabel11021811473D
libRbt.so/2013.1/901 2013/11/27
 27 29  0  0  0  0  0  0  0  0999 V2000
    7.4546  -12.0025  -17.5901 N   0  0  0  0  0  0  0  0  0  0  0  0
    6.7769  -12.9431  -18.4944 C   0  0  2  0  0  0  0  0  0  0  0  0
    5.4341  -13.3697  -17.8936 C   0  0  0  0  0  0  0  0  0  0  0  0
    5.2036  -13.0202  -16.7153 O   0  0  0  0  0  0  0  0  0  0  0  0
    7.6623  -14.1771  -18.6767 C   0  0  0  0  0  0  0  0  0  0  0  0
    9.0210  -13.8241  -19.2870 C   0  0  0  0  0  0  0  0  0  0  0  0
    9.2964  -14.6649  -21.9866 C   0  0  0  0  0  0  0  0  0  0  0  0
    8.8242  -13.1686  -21.0151 Se  0  0  2  0  0  0  0  0  0  0  0  0
   10.2585  -12.0348  -21.3516 C   0  0  0  0  0  0  0  0  0  0  0  0
   10.4158  -11.6683  -22.8279 C   0  0  1  0  0  0  0  0  0  0  0  0
   11.2166  -10.4772  -22.9160 O   0  0  0  0  0  0  0  0  0  0  0  0
   11.2698  -12.7580  -23.4771 C   0  0  1  0  0  0  0  0  0  0  0  0
   11.2921  -12.5698  -24.8929 O   0  0  0  0  0  0  0  0  0  0  0  0
   12.6274  -12.3935  -22.8817 C   0  0  1  0  0  0  0  0  0  0  0  0
   13.6550  -12.9392  -23.7108 O   0  0  0  0  0  0  0  0  0  0  0  0
   12.5903  -10.8763  -23.0700 C   0  0  2  0  0  0  0  0  0  0  0  0
    4.6715  -14.0434  -18.6209 O   0  0  0  0  0  0  0  0  0  0  0  0
   16.2321   -7.2790  -22.4059 N   0  0  0  0  0  0  0  0  0  0  0  0
   15.6237   -7.6456  -23.5208 C   0  0  0  0  0  0  0  0  0  0  0  0
   14.7007   -8.5915  -23.5319 N   0  0  0  0  0  0  0  0  0  0  0  0
   14.3470   -9.2133  -22.3969 C   0  0  0  0  0  0  0  0  0  0  0  0
   14.9651   -8.8567  -21.2067 C   0  0  0  0  0  0  0  0  0  0  0  0
   15.9335   -7.8602  -21.2370 C   0  0  0  0  0  0  0  0  0  0  0  0
   16.5751   -7.5182  -20.1240 N   0  0  0  0  0  0  0  0  0  0  0  0
   14.4474   -9.6095  -20.2424 N   0  0  0  0  0  0  0  0  0  0  0  0
   13.5405  -10.4084  -20.7998 C   0  0  0  0  0  0  0  0  0  0  0  0
   13.4735  -10.1731  -22.1103 N   0  0  0  0  0  0  0  0  0  0  0  0
  2  1  1  1  0  0  0
  2  5  1  0  0  0  0
  2  3  1  0  0  0  0
  3 17  1  0  0  0  0
  3  4  1  0  0  0  0
  5  6  1  0  0  0  0
  7  8  1  0  0  0  0
  8  6  1  1  0  0  0
  8  9  1  0  0  0  0
 10  9  1  1  0  0  0
 10 11  1  0  0  0  0
 10 12  1  0  0  0  0
 11 16  1  0  0  0  0
 12 13  1  6  0  0  0
 12 14  1  0  0  0  0
 14 15  1  6  0  0  0
 14 16  1  0  0  0  0
 16 27  1  1  0  0  0
 18 23  2  0  0  0  0
 18 19  1  0  0  0  0
 19 20  2  0  0  0  0
 20 21  1  0  0  0  0
 21 22  2  0  0  0  0
 21 27  1  0  0  0  0
 22 23  1  0  0  0  0
 22 25  1  0  0  0  0
 23 24  1  0  0  0  0
 25 26  2  0  0  0  0
 26 27  1  0  0  0  0
M  END
>  <CHROM.1>
-60.46877433,-8.81736389,-64.73807469,-101.73351040,166.75003472,160.49779864
-108.02628685,10.90809268,-11.62145921,-21.18670551,-3.08804225,-0.60306630
-2.09952987

>  <Name>
ligand

>  <RI>
0

>  <Rbt.Current_Directory>
/home/itssahil/PROJECTS/Mol_Feturizer/New_Systems/rnas/3E5F

>  <Rbt.Executable>
rbdock ($Id: //depot/dev/client3/rdock/2013.1/src/exe/rbdock.cxx#4 $)

>  <Rbt.Library>
libRbt.so (2013.1, Build901 2013/11/27)

>  <Rbt.Parameter_File>
/export/apps/rDock/src/rDock_2013.1_src/data/scripts/dock_solv.prm

>  <Rbt.Receptor>
prm/blind_docking_80.prm

>  <SCORE>
-16.5483

>  <SCORE.INTER>
-18.1305

>  <SCORE.INTER.CONST>
1

>  <SCORE.INTER.POLAR>
0

>  <SCORE.INTER.ROT>
7

>  <SCORE.INTER.SOLV>
9.95729

>  <SCORE.INTER.VDW>
-23.6728

>  <SCORE.INTER.norm>
-0.671501

>  <SCORE.INTRA>
1.58225

>  <SCORE.INTRA.DIHEDRAL>
0.73892

>  <SCORE.INTRA.DIHEDRAL.0>
4.89803

>  <SCORE.INTRA.POLAR>
0

>  <SCORE.INTRA.POLAR.0>
0

>  <SCORE.INTRA.REPUL>
0

>  <SCORE.INTRA.REPUL.0>
0

>  <SCORE.INTRA.SOLV>
0.823471

>  <SCORE.INTRA.SOLV.lig_0>
-48.5832

>  <SCORE.INTRA.VDW>
0.801051

>  <SCORE.INTRA.VDW.0>
-2.39056

>  <SCORE.INTRA.norm>
0.0586017

>  <SCORE.RESTR>
0

>  <SCORE.RESTR.CAVITY>
0

>  <SCORE.RESTR.norm>
0

>  <SCORE.SYSTEM>
0

>  <SCORE.SYSTEM.CONST>
0

>  <SCORE.SYSTEM.DIHEDRAL>
0

>  <SCORE.SYSTEM.SOLV>
0

>  <SCORE.SYSTEM.norm>
0

>  <SCORE.heavy>
27

>  <SCORE.norm>
-0.6129

>  <RMSD>
7.171

$$$$
ligand
 OpenBabel11021811473D
libRbt.so/2013.1/901 2013/11/27
 27 29  0  0  0  0  0  0  0  0999 V2000
   12.0803  -11.4966  -22.8680 N   0  0  0  0  0  0  0  0  0  0  0  0
   13.4525  -11.3553  -22.3591 C   0  0  2  0  0  0  0  0  0  0  0  0
   13.5385  -11.9007  -20.9303 C   0  0  0  0  0  0  0  0  0  0  0  0
   12.8006  -11.3661  -20.0741 O   0  0  0  0  0  0  0  0  0  0  0  0
   13.8272   -9.8722  -22.3558 C   0  0  0  0  0  0  0  0  0  0  0  0
   14.1261   -9.3522  -23.7643 C   0  0  0  0  0  0  0  0  0  0  0  0
   15.5472   -7.3689  -25.2194 C   0  0  0  0  0  0  0  0  0  0  0  0
   14.4507   -7.5222  -23.7430 Se  0  0  2  0  0  0  0  0  0  0  0  0
   15.6397   -7.1797  -22.3555 C   0  0  0  0  0  0  0  0  0  0  0  0
   16.1041   -5.7240  -22.2927 C   0  0  1  0  0  0  0  0  0  0  0  0
   14.9749   -4.9029  -21.9486 O   0  0  0  0  0  0  0  0  0  0  0  0
   17.0507   -5.6013  -21.0980 C   0  0  1  0  0  0  0  0  0  0  0  0
   17.6630   -4.3108  -21.1022 O   0  0  0  0  0  0  0  0  0  0  0  0
   16.0303   -5.6899  -19.9660 C   0  0  1  0  0  0  0  0  0  0  0  0
   16.5951   -5.1064  -18.7906 O   0  0  0  0  0  0  0  0  0  0  0  0
   14.9541   -4.7539  -20.5177 C   0  0  2  0  0  0  0  0  0  0  0  0
   14.3462  -12.8329  -20.7229 O   0  0  0  0  0  0  0  0  0  0  0  0
   11.9274   -4.7158  -16.3365 N   0  0  0  0  0  0  0  0  0  0  0  0
   13.1835   -4.3207  -16.4533 C   0  0  0  0  0  0  0  0  0  0  0  0
   13.8320   -4.3914  -17.6028 N   0  0  0  0  0  0  0  0  0  0  0  0
   13.2257   -4.8693  -18.7000 C   0  0  0  0  0  0  0  0  0  0  0  0
   11.9076   -5.2954  -18.6161 C   0  0  0  0  0  0  0  0  0  0  0  0
   11.2614   -5.2085  -17.3886 C   0  0  0  0  0  0  0  0  0  0  0  0
   10.0115   -5.6426  -17.2596 N   0  0  0  0  0  0  0  0  0  0  0  0
   11.5438   -5.7199  -19.8210 N   0  0  0  0  0  0  0  0  0  0  0  0
   12.5881   -5.5689  -20.6323 C   0  0  0  0  0  0  0  0  0  0  0  0
   13.6150   -5.0516  -19.9576 N   0  0  0  0  0  0  0  0  0  0  0  0
  2  1  1  1  0  0  0
  2  5  1  0  0  0  0
  2  3  1  0  0  0  0
  3 17  1  0  0  0  0
  3  4  1  0  0  0  0
  5  6  1  0  0  0  0
  7  8  1  0  0  0  0
  8  6  1  1  0  0  0
  8  9  1  0  0  0  0
 10  9  1  1  0  0  0
 10 11  1  0  0  0  0
 10 12  1  0  0  0  0
 11 16  1  0  0  0  0
 12 13  1  6  0  0  0
 12 14  1  0  0  0  0
 14 15  1  1  0  0  0
 14 16  1  0  0  0  0
 16 27  1  1  0  0  0
 18 23  2  0  0  0  0
 18 19  1  0  0  0  0
 19 20  2  0  0  0  0
 20 21  1  0  0  0  0
 21 22  2  0  0  0  0
 21 27  1  0  0  0  0
 22 23  1  0  0  0  0
 22 25  1  0  0  0  0
 23 24  1  0  0  0  0
 25 26  2  0  0  0  0
 26 27  1  0  0  0  0
M  END
>  <CHROM.1>
-75.16716378,-59.33880331,175.68094784,152.75626843,174.69027176,66.66777496
-172.21428632,14.06526959,-7.06081798,-21.01225513,1.36176973,-0.84373139
-2.53340450

>  <Name>
ligand

>  <RI>
0

>  <Rbt.Current_Directory>
/home/itssahil/PROJECTS/Mol_Feturizer/New_Systems/rnas/3E5F

>  <Rbt.Executable>
rbdock ($Id: //depot/dev/client3/rdock/2013.1/src/exe/rbdock.cxx#4 $)

>  <Rbt.Library>
libRbt.so (2013.1, Build901 2013/11/27)

>  <Rbt.Parameter_File>
/export/apps/rDock/src/rDock_2013.1_src/data/scripts/dock_solv.prm

>  <Rbt.Receptor>
prm/pocket_docking_6.prm

>  <SCORE>
-17.2176

>  <SCORE.INTER>
-17.4954

>  <SCORE.INTER.CONST>
1

>  <SCORE.INTER.POLAR>
0

>  <SCORE.INTER.ROT>
7

>  <SCORE.INTER.SOLV>
10.1472

>  <SCORE.INTER.VDW>
-23.3127

>  <SCORE.INTER.norm>
-0.647979

>  <SCORE.INTRA>
0.27788

>  <SCORE.INTRA.DIHEDRAL>
-0.265888

>  <SCORE.INTRA.DIHEDRAL.0>
4.89803

>  <SCORE.INTRA.POLAR>
0

>  <SCORE.INTRA.POLAR.0>
0

>  <SCORE.INTRA.REPUL>
0

>  <SCORE.INTRA.REPUL.0>
0

>  <SCORE.INTRA.SOLV>
0.66977

>  <SCORE.INTRA.SOLV.lig_0>
-48.5832

>  <SCORE.INTRA.VDW>
0.0759387

>  <SCORE.INTRA.VDW.0>
-2.39056

>  <SCORE.INTRA.norm>
0.0102918

>  <SCORE.RESTR>
0

>  <SCORE.RESTR.CAVITY>
0

>  <SCORE.RESTR.norm>
0

>  <SCORE.SYSTEM>
0

>  <SCORE.SYSTEM.CONST>
0

>  <SCORE.SYSTEM.DIHEDRAL>
0

>  <SCORE.SYSTEM.SOLV>
0

>  <SCORE.SYSTEM.norm>
0

>  <SCORE.heavy>
27

>  <SCORE.norm>
-0.637687

>  <RMSD>
7.178

$$$$
ligand
 OpenBabel11021811473D
libRbt.so/2013.1/901 2013/11/27
 27 29  0  0  0  0  0  0  0  0999 V2000
    9.2949  -11.5326  -19.5207 N   0  0  0  0  0  0  0  0  0  0  0  0
    9.6858  -11.8339  -20.9057 C   0  0  2  0  0  0  0  0  0  0  0  0
   10.0330  -13.3197  -21.0390 C   0  0  0  0  0  0  0  0  0  0  0  0
   10.2232  -13.7560  -22.1953 O   0  0  0  0  0  0  0  0  0  0  0  0
   10.9134  -10.9951  -21.2654 C   0  0  0  0  0  0  0  0  0  0  0  0
   11.2152  -11.0329  -22.7657 C   0  0  0  0  0  0  0  0  0  0  0  0
   13.0949  -10.4128  -24.8035 C   0  0  0  0  0  0  0  0  0  0  0  0
   12.4299   -9.7062  -23.2337 Se  0  0  2  0  0  0  0  0  0  0  0  0
   13.8958   -9.8632  -22.1011 C   0  0  0  0  0  0  0  0  0  0  0  0
   14.7912   -8.6237  -22.0834 C   0  0  1  0  0  0  0  0  0  0  0  0
   13.9829   -7.4861  -21.7364 O   0  0  0  0  0  0  0  0  0  0  0  0
   15.7610   -8.7816  -20.9118 C   0  0  1  0  0  0  0  0  0  0  0  0
   16.7438   -7.7462  -20.9600 O   0  0  0  0  0  0  0  0  0  0  0  0
   14.7947   -8.5291  -19.7572 C   0  0  1  0  0  0  0  0  0  0  0  0
   15.5446   -8.1307  -18.6082 O   0  0  0  0  0  0  0  0  0  0  0  0
   14.0483   -7.3140  -20.3094 C   0  0  2  0  0  0  0  0  0  0  0  0
   10.0915  -13.9891  -19.9840 O   0  0  0  0  0  0  0  0  0  0  0  0
   10.7339   -8.9434  -16.7032 N   0  0  0  0  0  0  0  0  0  0  0  0
   11.9722   -9.3454  -16.9323 C   0  0  0  0  0  0  0  0  0  0  0  0
   12.7048   -8.8266  -17.9022 N   0  0  0  0  0  0  0  0  0  0  0  0
   12.2083   -7.8617  -18.6911 C   0  0  0  0  0  0  0  0  0  0  0  0
   10.9111   -7.4148  -18.4823 C   0  0  0  0  0  0  0  0  0  0  0  0
   10.1715   -7.9881  -17.4546 C   0  0  0  0  0  0  0  0  0  0  0  0
    8.9127   -7.6138  -17.2484 N   0  0  0  0  0  0  0  0  0  0  0  0
   10.6600   -6.4713  -19.3830 N   0  0  0  0  0  0  0  0  0  0  0  0
   11.7523   -6.3283  -20.1299 C   0  0  0  0  0  0  0  0  0  0  0  0
   12.6986   -7.1705  -19.7149 N   0  0  0  0  0  0  0  0  0  0  0  0
  2  1  1  1  0  0  0
  2  5  1  0  0  0  0
  2  3  1  0  0  0  0
  3 17  1  0  0  0  0
  3  4  1  0  0  0  0
  5  6  1  0  0  0  0
  7  8  1  0  0  0  0
  8  6  1  1  0  0  0
  8  9  1  0  0  0  0
 10  9  1  1  0  0  0
 10 11  1  0  0  0  0
 10 12  1  0  0  0  0
 11 16  1  0  0  0  0
 12 13  1  6  0  0  0
 12 14  1  0  0  0  0
 14 15  1  1  0  0  0
 14 16  1  0  0  0  0
 16 27  1  1  0  0  0
 18 23  2  0  0  0  0
 18 19  1  0  0  0  0
 19 20  2  0  0  0  0
 20 21  1  0  0  0  0
 21 22  2  0  0  0  0
 21 27  1  0  0  0  0
 22 23  1  0  0  0  0
 22 25  1  0  0  0  0
 23 24  1  0  0  0  0
 25 26  2  0  0  0  0
 26 27  1  0  0  0  0
M  END
>  <CHROM.1>
-168.45770852,171.37336573,166.26345294,157.81085082,-163.46492104,55.78808519
128.57165702,12.26733407,-9.40085660,-20.68647022,2.08164784,-0.64245915
-2.19938481

>  <Name>
ligand

>  <RI>
0

>  <Rbt.Current_Directory>
/home/itssahil/PROJECTS/Mol_Feturizer/New_Systems/rnas/3E5F

>  <Rbt.Executable>
rbdock ($Id: //depot/dev/client3/rdock/2013.1/src/exe/rbdock.cxx#4 $)

>  <Rbt.Library>
libRbt.so (2013.1, Build901 2013/11/27)

>  <Rbt.Parameter_File>
/export/apps/rDock/src/rDock_2013.1_src/data/scripts/dock_solv.prm

>  <Rbt.Receptor>
prm/pocket_docking_6.prm

>  <SCORE>
-12.6931

>  <SCORE.INTER>
-13.1785

>  <SCORE.INTER.CONST>
1

>  <SCORE.INTER.POLAR>
0

>  <SCORE.INTER.ROT>
7

>  <SCORE.INTER.SOLV>
10.0412

>  <SCORE.INTER.VDW>
-20.3994

>  <SCORE.INTER.norm>
-0.488094

>  <SCORE.INTRA>
0.485409

>  <SCORE.INTRA.DIHEDRAL>
0.435261

>  <SCORE.INTRA.DIHEDRAL.0>
4.89803

>  <SCORE.INTRA.POLAR>
0

>  <SCORE.INTRA.POLAR.0>
0

>  <SCORE.INTRA.REPUL>
0

>  <SCORE.INTRA.REPUL.0>
0

>  <SCORE.INTRA.SOLV>
0.132523

>  <SCORE.INTRA.SOLV.lig_0>
-48.5832

>  <SCORE.INTRA.VDW>
0.201517

>  <SCORE.INTRA.VDW.0>
-2.39056

>  <SCORE.INTRA.norm>
0.0179781

>  <SCORE.RESTR>
0

>  <SCORE.RESTR.CAVITY>
0

>  <SCORE.RESTR.norm>
0

>  <SCORE.SYSTEM>
0

>  <SCORE.SYSTEM.CONST>
0

>  <SCORE.SYSTEM.DIHEDRAL>
0

>  <SCORE.SYSTEM.SOLV>
0

>  <SCORE.SYSTEM.norm>
0

>  <SCORE.heavy>
27

>  <SCORE.norm>
-0.470116

>  <RMSD>
7.186

$$$$
ligand
 OpenBabel11021811473D
libRbt.so/2013.1/901 2013/11/27
 27 29  0  0  0  0  0  0  0  0999 V2000
    9.7064  -12.2052  -23.8449 N   0  0  0  0  0  0  0  0  0  0  0  0
   10.6754  -11.1559  -23.4960 C   0  0  2  0  0  0  0  0  0  0  0  0
   12.0725  -11.5522  -23.9830 C   0  0  0  0  0  0  0  0  0  0  0  0
   12.7168  -10.6899  -24.6194 O   0  0  0  0  0  0  0  0  0  0  0  0
   10.6994  -10.9924  -21.9752 C   0  0  0  0  0  0  0  0  0  0  0  0
   11.7838  -10.0125  -21.5199 C   0  0  0  0  0  0  0  0  0  0  0  0
   13.5526  -12.0773  -20.6965 C   0  0  0  0  0  0  0  0  0  0  0  0
   13.4794  -10.6753  -21.8943 Se  0  0  2  0  0  0  0  0  0  0  0  0
   14.7166   -9.4944  -21.1656 C   0  0  0  0  0  0  0  0  0  0  0  0
   14.7658   -8.1425  -21.8785 C   0  0  1  0  0  0  0  0  0  0  0  0
   13.4733   -7.5228  -21.7640 O   0  0  0  0  0  0  0  0  0  0  0  0
   15.7011   -7.2393  -21.0737 C   0  0  1  0  0  0  0  0  0  0  0  0
   15.9344   -6.0278  -21.7935 O   0  0  0  0  0  0  0  0  0  0  0  0
   14.8026   -6.9653  -19.8703 C   0  0  1  0  0  0  0  0  0  0  0  0
   15.2438   -5.7668  -19.2299 O   0  0  0  0  0  0  0  0  0  0  0  0
   13.4844   -6.6862  -20.5935 C   0  0  2  0  0  0  0  0  0  0  0  0
   12.4623  -12.7106  -23.7175 O   0  0  0  0  0  0  0  0  0  0  0  0
   11.2008   -9.9076  -17.2690 N   0  0  0  0  0  0  0  0  0  0  0  0
   12.3677  -10.0351  -17.8769 C   0  0  0  0  0  0  0  0  0  0  0  0
   12.8239   -9.1151  -18.7089 N   0  0  0  0  0  0  0  0  0  0  0  0
   12.1085   -8.0086  -18.9617 C   0  0  0  0  0  0  0  0  0  0  0  0
   10.8775   -7.8402  -18.3434 C   0  0  0  0  0  0  0  0  0  0  0  0
   10.4309   -8.8320  -17.4781 C   0  0  0  0  0  0  0  0  0  0  0  0
    9.2400   -8.7248  -16.8971 N   0  0  0  0  0  0  0  0  0  0  0  0
   10.3749   -6.6816  -18.7550 N   0  0  0  0  0  0  0  0  0  0  0  0
   11.2511   -6.1407  -19.5984 C   0  0  0  0  0  0  0  0  0  0  0  0
   12.3085   -6.9420  -19.7290 N   0  0  0  0  0  0  0  0  0  0  0  0
  2  1  1  1  0  0  0
  2  5  1  0  0  0  0
  2  3  1  0  0  0  0
  3 17  1  0  0  0  0
  3  4  1  0  0  0  0
  5  6  1  0  0  0  0
  7  8  1  0  0  0  0
  8  6  1  1  0  0  0
  8  9  1  0  0  0  0
 10  9  1  1  0  0  0
 10 11  1  0  0  0  0
 10 12  1  0  0  0  0
 11 16  1  0  0  0  0
 12 13  1  6  0  0  0
 12 14  1  0  0  0  0
 14 15  1  6  0  0  0
 14 16  1  0  0  0  0
 16 27  1  1  0  0  0
 18 23  2  0  0  0  0
 18 19  1  0  0  0  0
 19 20  2  0  0  0  0
 20 21  1  0  0  0  0
 21 22  2  0  0  0  0
 21 27  1  0  0  0  0
 22 23  1  0  0  0  0
 22 25  1  0  0  0  0
 23 24  1  0  0  0  0
 25 26  2  0  0  0  0
 26 27  1  0  0  0  0
M  END
>  <CHROM.1>
174.42742577,131.60577750,-65.54051550,-69.06745481,-69.02300573,61.17920597
73.10931663,12.71675092,-9.23656819,-20.87146023,1.64066566,-0.60443206,-2.31778710

>  <Name>
ligand

>  <RI>
0

>  <Rbt.Current_Directory>
/home/itssahil/PROJECTS/Mol_Feturizer/New_Systems/rnas/3E5F

>  <Rbt.Executable>
rbdock ($Id: //depot/dev/client3/rdock/2013.1/src/exe/rbdock.cxx#4 $)

>  <Rbt.Library>
libRbt.so (2013.1, Build901 2013/11/27)

>  <Rbt.Parameter_File>
/export/apps/rDock/src/rDock_2013.1_src/data/scripts/dock_solv.prm

>  <Rbt.Receptor>
prm/pocket_docking_5.prm

>  <SCORE>
-15.7034

>  <SCORE.INTER>
-12.3873

>  <SCORE.INTER.CONST>
1

>  <SCORE.INTER.POLAR>
0

>  <SCORE.INTER.ROT>
7

>  <SCORE.INTER.SOLV>
9.74649

>  <SCORE.INTER.VDW>
-19.7737

>  <SCORE.INTER.norm>
-0.45879

>  <SCORE.INTRA>
-3.31608

>  <SCORE.INTRA.DIHEDRAL>
-1.69433

>  <SCORE.INTRA.DIHEDRAL.0>
4.89803

>  <SCORE.INTRA.POLAR>
0

>  <SCORE.INTRA.POLAR.0>
0

>  <SCORE.INTRA.REPUL>
0

>  <SCORE.INTRA.REPUL.0>
0

>  <SCORE.INTRA.SOLV>
0.0746438

>  <SCORE.INTRA.SOLV.lig_0>
-48.5832

>  <SCORE.INTRA.VDW>
-2.50623

>  <SCORE.INTRA.VDW.0>
-2.39056

>  <SCORE.INTRA.norm>
-0.122818

>  <SCORE.RESTR>
0

>  <SCORE.RESTR.CAVITY>
0

>  <SCORE.RESTR.norm>
0

>  <SCORE.SYSTEM>
0

>  <SCORE.SYSTEM.CONST>
0

>  <SCORE.SYSTEM.DIHEDRAL>
0

>  <SCORE.SYSTEM.SOLV>
0

>  <SCORE.SYSTEM.norm>
0

>  <SCORE.heavy>
27

>  <SCORE.norm>
-0.581607

>  <RMSD>
7.195

$$$$
ligand
 OpenBabel11021811473D
libRbt.so/2013.1/901 2013/11/27
 27 29  0  0  0  0  0  0  0  0999 V2000
    7.2953  -12.0288  -17.6337 N   0  0  0  0  0  0  0  0  0  0  0  0
    6.7285  -12.9957  -18.5854 C   0  0  2  0  0  0  0  0  0  0  0  0
    5.3700  -13.4910  -18.0802 C   0  0  0  0  0  0  0  0  0  0  0  0
    5.0826  -13.2409  -16.8892 O   0  0  0  0  0  0  0  0  0  0  0  0
    7.6839  -14.1839  -18.7095 C   0  0  0  0  0  0  0  0  0  0  0  0
    9.0376  -13.7738  -19.2949 C   0  0  0  0  0  0  0  0  0  0  0  0
    9.3720  -14.6377  -21.9804 C   0  0  0  0  0  0  0  0  0  0  0  0
    8.8475  -13.1434  -21.0330 Se  0  0  2  0  0  0  0  0  0  0  0  0
   10.2563  -11.9762  -21.3634 C   0  0  0  0  0  0  0  0  0  0  0  0
   10.4329  -11.6333  -22.8432 C   0  0  1  0  0  0  0  0  0  0  0  0
   11.2236  -10.4362  -22.9395 O   0  0  0  0  0  0  0  0  0  0  0  0
   11.3071  -12.7257  -23.4604 C   0  0  1  0  0  0  0  0  0  0  0  0
   11.3495  -12.5614  -24.8787 O   0  0  0  0  0  0  0  0  0  0  0  0
   12.6518  -12.3378  -22.8507 C   0  0  1  0  0  0  0  0  0  0  0  0
   13.6972  -12.8876  -23.6545 O   0  0  0  0  0  0  0  0  0  0  0  0
   12.6032  -10.8245  -23.0656 C   0  0  2  0  0  0  0  0  0  0  0  0
    4.6528  -14.1166  -18.8917 O   0  0  0  0  0  0  0  0  0  0  0  0
   16.2251   -7.2051  -22.4119 N   0  0  0  0  0  0  0  0  0  0  0  0
   15.6410   -7.5999  -23.5301 C   0  0  0  0  0  0  0  0  0  0  0  0
   14.7198   -8.5475  -23.5379 N   0  0  0  0  0  0  0  0  0  0  0  0
   14.3429   -9.1423  -22.3959 C   0  0  0  0  0  0  0  0  0  0  0  0
   14.9350   -8.7557  -21.2018 C   0  0  0  0  0  0  0  0  0  0  0  0
   15.9024   -7.7583  -21.2358 C   0  0  0  0  0  0  0  0  0  0  0  0
   16.5197   -7.3882  -20.1181 N   0  0  0  0  0  0  0  0  0  0  0  0
   14.3979   -9.4858  -20.2308 N   0  0  0  0  0  0  0  0  0  0  0  0
   13.5043  -10.2999  -20.7877 C   0  0  0  0  0  0  0  0  0  0  0  0
   13.4649  -10.0965  -22.1047 N   0  0  0  0  0  0  0  0  0  0  0  0
  2  1  1  1  0  0  0
  2  5  1  0  0  0  0
  2  3  1  0  0  0  0
  3 17  1  0  0  0  0
  3  4  1  0  0  0  0
  5  6  1  0  0  0  0
  7  8  1  0  0  0  0
  8  6  1  1  0  0  0
  8  9  1  0  0  0  0
 10  9  1  1  0  0  0
 10 11  1  0  0  0  0
 10 12  1  0  0  0  0
 11 16  1  0  0  0  0
 12 13  1  6  0  0  0
 12 14  1  0  0  0  0
 14 15  1  6  0  0  0
 14 16  1  0  0  0  0
 16 27  1  1  0  0  0
 18 23  2  0  0  0  0
 18 19  1  0  0  0  0
 19 20  2  0  0  0  0
 20 21  1  0  0  0  0
 21 22  2  0  0  0  0
 21 27  1  0  0  0  0
 22 23  1  0  0  0  0
 22 25  1  0  0  0  0
 23 24  1  0  0  0  0
 25 26  2  0  0  0  0
 26 27  1  0  0  0  0
M  END
>  <CHROM.1>
-63.57238572,-13.70578522,-63.52732558,-100.50612848,166.17634779,161.58938358
-108.72466218,10.90370596,-11.59418290,-21.21347150,-3.11142900,-0.60693652
-2.11140358

>  <Name>
ligand

>  <RI>
0

>  <Rbt.Current_Directory>
/home/itssahil/PROJECTS/Mol_Feturizer/New_Systems/rnas/3E5F

>  <Rbt.Executable>
rbdock ($Id: //depot/dev/client3/rdock/2013.1/src/exe/rbdock.cxx#4 $)

>  <Rbt.Library>
libRbt.so (2013.1, Build901 2013/11/27)

>  <Rbt.Parameter_File>
/export/apps/rDock/src/rDock_2013.1_src/data/scripts/dock_solv.prm

>  <Rbt.Receptor>
prm/blind_docking_60.prm

>  <SCORE>
-16.6868

>  <SCORE.INTER>
-18.1244

>  <SCORE.INTER.CONST>
1

>  <SCORE.INTER.POLAR>
0

>  <SCORE.INTER.ROT>
7

>  <SCORE.INTER.SOLV>
9.16177

>  <SCORE.INTER.VDW>
-23.4035

>  <SCORE.INTER.norm>
-0.671273

>  <SCORE.INTRA>
1.43763

>  <SCORE.INTRA.DIHEDRAL>
0.56849

>  <SCORE.INTRA.DIHEDRAL.0>
4.89803

>  <SCORE.INTRA.POLAR>
0

>  <SCORE.INTRA.POLAR.0>
0

>  <SCORE.INTRA.REPUL>
0

>  <SCORE.INTRA.REPUL.0>
0

>  <SCORE.INTRA.SOLV>
0.776265

>  <SCORE.INTRA.SOLV.lig_0>
-48.5832

>  <SCORE.INTRA.VDW>
0.765256

>  <SCORE.INTRA.VDW.0>
-2.39056

>  <SCORE.INTRA.norm>
0.0532457

>  <SCORE.RESTR>
0

>  <SCORE.RESTR.CAVITY>
0

>  <SCORE.RESTR.norm>
0

>  <SCORE.SYSTEM>
0

>  <SCORE.SYSTEM.CONST>
0

>  <SCORE.SYSTEM.DIHEDRAL>
0

>  <SCORE.SYSTEM.SOLV>
0

>  <SCORE.SYSTEM.norm>
0

>  <SCORE.heavy>
27

>  <SCORE.norm>
-0.618028

>  <RMSD>
7.206

$$$$
ligand
 OpenBabel11021811473D
libRbt.so/2013.1/901 2013/11/27
 27 29  0  0  0  0  0  0  0  0999 V2000
   13.8508  -12.0309  -20.4746 N   0  0  0  0  0  0  0  0  0  0  0  0
   13.0371  -11.6971  -21.6529 C   0  0  2  0  0  0  0  0  0  0  0  0
   13.3832  -12.6388  -22.8104 C   0  0  0  0  0  0  0  0  0  0  0  0
   14.5114  -13.1774  -22.7851 O   0  0  0  0  0  0  0  0  0  0  0  0
   13.3383  -10.2560  -22.0683 C   0  0  0  0  0  0  0  0  0  0  0  0
   12.9074   -9.2483  -20.9995 C   0  0  0  0  0  0  0  0  0  0  0  0
   12.9558   -8.5361  -18.2498 C   0  0  0  0  0  0  0  0  0  0  0  0
   14.0363   -9.3188  -19.5247 Se  0  0  2  0  0  0  0  0  0  0  0  0
   15.3445   -8.0185  -19.7572 C   0  0  0  0  0  0  0  0  0  0  0  0
   15.3622   -7.4122  -21.1610 C   0  0  1  0  0  0  0  0  0  0  0  0
   14.2017   -6.5760  -21.3078 O   0  0  0  0  0  0  0  0  0  0  0  0
   16.5461   -6.4463  -21.2228 C   0  0  1  0  0  0  0  0  0  0  0  0
   16.7259   -5.9937  -22.5656 O   0  0  0  0  0  0  0  0  0  0  0  0
   15.9859   -5.3160  -20.3629 C   0  0  1  0  0  0  0  0  0  0  0  0
   16.6834   -4.1094  -20.6775 O   0  0  0  0  0  0  0  0  0  0  0  0
   14.5704   -5.2359  -20.9361 C   0  0  2  0  0  0  0  0  0  0  0  0
   12.5173  -12.7924  -23.6997 O   0  0  0  0  0  0  0  0  0  0  0  0
   12.9534   -0.9820  -18.4999 N   0  0  0  0  0  0  0  0  0  0  0  0
   13.9273   -1.1102  -19.3845 C   0  0  0  0  0  0  0  0  0  0  0  0
   14.2257   -2.2775  -19.9278 N   0  0  0  0  0  0  0  0  0  0  0  0
   13.5378   -3.3804  -19.5959 C   0  0  0  0  0  0  0  0  0  0  0  0
   12.5092   -3.2857  -18.6692 C   0  0  0  0  0  0  0  0  0  0  0  0
   12.2286   -2.0412  -18.1175 C   0  0  0  0  0  0  0  0  0  0  0  0
   11.2765   -1.9175  -17.1980 N   0  0  0  0  0  0  0  0  0  0  0  0
   11.9939   -4.5000  -18.5135 N   0  0  0  0  0  0  0  0  0  0  0  0
   12.6686   -5.3276  -19.3081 C   0  0  0  0  0  0  0  0  0  0  0  0
   13.6094   -4.6537  -19.9701 N   0  0  0  0  0  0  0  0  0  0  0  0
  2  1  1  1  0  0  0
  2  5  1  0  0  0  0
  2  3  1  0  0  0  0
  3 17  1  0  0  0  0
  3  4  1  0  0  0  0
  5  6  1  0  0  0  0
  7  8  1  0  0  0  0
  8  6  1  6  0  0  0
  8  9  1  0  0  0  0
 10  9  1  1  0  0  0
 10 11  1  0  0  0  0
 10 12  1  0  0  0  0
 11 16  1  0  0  0  0
 12 13  1  6  0  0  0
 12 14  1  0  0  0  0
 14 15  1  6  0  0  0
 14 16  1  0  0  0  0
 16 27  1  1  0  0  0
 18 23  2  0  0  0  0
 18 19  1  0  0  0  0
 19 20  2  0  0  0  0
 20 21  1  0  0  0  0
 21 22  2  0  0  0  0
 21 27  1  0  0  0  0
 22 23  1  0  0  0  0
 22 25  1  0  0  0  0
 23 24  1  0  0  0  0
 25 26  2  0  0  0  0
 26 27  1  0  0  0  0
M  END
>  <CHROM.1>
-64.67586512,-23.58699739,72.10317085,-159.91227611,-11.17908435,71.60615424
-168.46880130,13.93818451,-7.10219195,-20.27570509,1.52771044,-0.64732542
-2.88001887

>  <Name>
ligand

>  <RI>
0

>  <Rbt.Current_Directory>
/home/itssahil/PROJECTS/Mol_Feturizer/New_Systems/rnas/3E5F

>  <Rbt.Executable>
rbdock ($Id: //depot/dev/client3/rdock/2013.1/src/exe/rbdock.cxx#4 $)

>  <Rbt.Library>
libRbt.so (2013.1, Build901 2013/11/27)

>  <Rbt.Parameter_File>
/export/apps/rDock/src/rDock_2013.1_src/data/scripts/dock_solv.prm

>  <Rbt.Receptor>
prm/blind_docking_100.prm

>  <SCORE>
-12.2371

>  <SCORE.INTER>
-13.7675

>  <SCORE.INTER.CONST>
1

>  <SCORE.INTER.POLAR>
0

>  <SCORE.INTER.ROT>
7

>  <SCORE.INTER.SOLV>
15.6299

>  <SCORE.INTER.VDW>
-22.655

>  <SCORE.INTER.norm>
-0.509908

>  <SCORE.INTRA>
1.53043

>  <SCORE.INTRA.DIHEDRAL>
2.26709

>  <SCORE.INTRA.DIHEDRAL.0>
4.89803

>  <SCORE.INTRA.POLAR>
0

>  <SCORE.INTRA.POLAR.0>
0

>  <SCORE.INTRA.REPUL>
0

>  <SCORE.INTRA.REPUL.0>
0

>  <SCORE.INTRA.SOLV>
2.24754

>  <SCORE.INTRA.SOLV.lig_0>
-48.5832

>  <SCORE.INTRA.VDW>
-0.72689

>  <SCORE.INTRA.VDW.0>
-2.39056

>  <SCORE.INTRA.norm>
0.0566824

>  <SCORE.RESTR>
0

>  <SCORE.RESTR.CAVITY>
0

>  <SCORE.RESTR.norm>
0

>  <SCORE.SYSTEM>
0

>  <SCORE.SYSTEM.CONST>
0

>  <SCORE.SYSTEM.DIHEDRAL>
0

>  <SCORE.SYSTEM.SOLV>
0

>  <SCORE.SYSTEM.norm>
0

>  <SCORE.heavy>
27

>  <SCORE.norm>
-0.453226

>  <RMSD>
7.215

$$$$
ligand
 OpenBabel11021811473D
libRbt.so/2013.1/901 2013/11/27
 27 29  0  0  0  0  0  0  0  0999 V2000
    9.1190  -14.3144  -23.4747 N   0  0  0  0  0  0  0  0  0  0  0  0
    8.9673  -13.2400  -24.4669 C   0  0  2  0  0  0  0  0  0  0  0  0
    9.5254  -13.6948  -25.8189 C   0  0  0  0  0  0  0  0  0  0  0  0
   10.6175  -14.3038  -25.8054 O   0  0  0  0  0  0  0  0  0  0  0  0
    9.7446  -12.0127  -23.9879 C   0  0  0  0  0  0  0  0  0  0  0  0
   11.2312  -12.3172  -23.7859 C   0  0  0  0  0  0  0  0  0  0  0  0
   13.1834  -10.4842  -24.7341 C   0  0  0  0  0  0  0  0  0  0  0  0
   12.1526  -10.7995  -23.2362 Se  0  0  2  0  0  0  0  0  0  0  0  0
   13.4362  -11.3383  -22.0041 C   0  0  0  0  0  0  0  0  0  0  0  0
   12.8983  -11.4727  -20.5789 C   0  0  1  0  0  0  0  0  0  0  0  0
   13.8606  -10.9013  -19.6760 O   0  0  0  0  0  0  0  0  0  0  0  0
   11.6749  -10.5620  -20.4683 C   0  0  1  0  0  0  0  0  0  0  0  0
   11.0194  -10.7893  -19.2197 O   0  0  0  0  0  0  0  0  0  0  0  0
   12.3782   -9.2072  -20.4483 C   0  0  1  0  0  0  0  0  0  0  0  0
   11.5053   -8.2443  -19.8551 O   0  0  0  0  0  0  0  0  0  0  0  0
   13.5105   -9.5212  -19.4695 C   0  0  2  0  0  0  0  0  0  0  0  0
    8.8540  -13.4159  -26.8366 O   0  0  0  0  0  0  0  0  0  0  0  0
   16.5015   -7.0026  -22.8392 N   0  0  0  0  0  0  0  0  0  0  0  0
   15.4445   -7.7606  -23.0753 C   0  0  0  0  0  0  0  0  0  0  0  0
   14.7734   -8.3441  -22.0976 N   0  0  0  0  0  0  0  0  0  0  0  0
   15.1479   -8.1795  -20.8198 C   0  0  0  0  0  0  0  0  0  0  0  0
   16.2540   -7.3920  -20.5327 C   0  0  0  0  0  0  0  0  0  0  0  0
   16.9355   -6.7986  -21.5888 C   0  0  0  0  0  0  0  0  0  0  0  0
   18.0222   -6.0691  -21.3567 N   0  0  0  0  0  0  0  0  0  0  0  0
   16.4157   -7.3897  -19.2143 N   0  0  0  0  0  0  0  0  0  0  0  0
   15.4527   -8.1442  -18.6902 C   0  0  0  0  0  0  0  0  0  0  0  0
   14.6772   -8.6279  -19.6607 N   0  0  0  0  0  0  0  0  0  0  0  0
  2  1  1  1  0  0  0
  2  5  1  0  0  0  0
  2  3  1  0  0  0  0
  3 17  1  0  0  0  0
  3  4  1  0  0  0  0
  5  6  1  0  0  0  0
  7  8  1  0  0  0  0
  8  6  1  6  0  0  0
  8  9  1  0  0  0  0
 10  9  1  6  0  0  0
 10 11  1  0  0  0  0
 10 12  1  0  0  0  0
 11 16  1  0  0  0  0
 12 13  1  1  0  0  0
 12 14  1  0  0  0  0
 14 15  1  1  0  0  0
 14 16  1  0  0  0  0
 16 27  1  6  0  0  0
 18 23  2  0  0  0  0
 18 19  1  0  0  0  0
 19 20  2  0  0  0  0
 20 21  1  0  0  0  0
 21 22  2  0  0  0  0
 21 27  1  0  0  0  0
 22 23  1  0  0  0  0
 22 25  1  0  0  0  0
 23 24  1  0  0  0  0
 25 26  2  0  0  0  0
 26 27  1  0  0  0  0
M  END
>  <CHROM.1>
58.71753403,-43.49316760,178.89807722,-111.59043763,-84.00440413,-137.08779182
81.79547957,12.86992535,-10.25719443,-22.20536100,2.54328080,-0.67354879
-1.74141754

>  <Name>
ligand

>  <RI>
0

>  <Rbt.Current_Directory>
/home/itssahil/PROJECTS/Mol_Feturizer/New_Systems/rnas/3E5F

>  <Rbt.Executable>
rbdock ($Id: //depot/dev/client3/rdock/2013.1/src/exe/rbdock.cxx#4 $)

>  <Rbt.Library>
libRbt.so (2013.1, Build901 2013/11/27)

>  <Rbt.Parameter_File>
/export/apps/rDock/src/rDock_2013.1_src/data/scripts/dock_solv.prm

>  <Rbt.Receptor>
prm/blind_docking_40.prm

>  <SCORE>
-12.9741

>  <SCORE.INTER>
-15.2147

>  <SCORE.INTER.CONST>
1

>  <SCORE.INTER.POLAR>
0

>  <SCORE.INTER.ROT>
7

>  <SCORE.INTER.SOLV>
11.3011

>  <SCORE.INTER.VDW>
-22.1768

>  <SCORE.INTER.norm>
-0.563507

>  <SCORE.INTRA>
2.23432

>  <SCORE.INTRA.DIHEDRAL>
4.3999

>  <SCORE.INTRA.DIHEDRAL.0>
4.89803

>  <SCORE.INTRA.POLAR>
0

>  <SCORE.INTRA.POLAR.0>
0

>  <SCORE.INTRA.REPUL>
0

>  <SCORE.INTRA.REPUL.0>
0

>  <SCORE.INTRA.SOLV>
0.687382

>  <SCORE.INTRA.SOLV.lig_0>
-48.5832

>  <SCORE.INTRA.VDW>
-0.309314

>  <SCORE.INTRA.VDW.0>
-2.39056

>  <SCORE.INTRA.norm>
0.0827528

>  <SCORE.RESTR>
0.00627955

>  <SCORE.RESTR.CAVITY>
0.00627955

>  <SCORE.RESTR.norm>
0.000232576

>  <SCORE.SYSTEM>
0

>  <SCORE.SYSTEM.CONST>
0

>  <SCORE.SYSTEM.DIHEDRAL>
0

>  <SCORE.SYSTEM.SOLV>
0

>  <SCORE.SYSTEM.norm>
0

>  <SCORE.heavy>
27

>  <SCORE.norm>
-0.480522

>  <RMSD>
7.220

$$$$
ligand
 OpenBabel11021811473D
libRbt.so/2013.1/901 2013/11/27
 27 29  0  0  0  0  0  0  0  0999 V2000
   15.6325   -7.5024  -22.5394 N   0  0  0  0  0  0  0  0  0  0  0  0
   15.4162   -8.2992  -23.7560 C   0  0  2  0  0  0  0  0  0  0  0  0
   15.5333   -7.4047  -24.9939 C   0  0  0  0  0  0  0  0  0  0  0  0
   15.1724   -6.2140  -24.8692 O   0  0  0  0  0  0  0  0  0  0  0  0
   14.0136   -8.9074  -23.7045 C   0  0  0  0  0  0  0  0  0  0  0  0
   13.8879   -9.9693  -22.6091 C   0  0  0  0  0  0  0  0  0  0  0  0
   12.4090  -11.2212  -20.5316 C   0  0  0  0  0  0  0  0  0  0  0  0
   12.2070   -9.9135  -21.8179 Se  0  0  2  0  0  0  0  0  0  0  0  0
   11.0092  -10.7206  -22.9884 C   0  0  0  0  0  0  0  0  0  0  0  0
   11.4903  -12.0705  -23.5222 C   0  0  1  0  0  0  0  0  0  0  0  0
   11.3981  -13.0361  -22.4607 O   0  0  0  0  0  0  0  0  0  0  0  0
   10.4694  -12.5374  -24.5604 C   0  0  1  0  0  0  0  0  0  0  0  0
   10.9627  -13.6993  -25.2290 O   0  0  0  0  0  0  0  0  0  0  0  0
    9.3256  -12.9211  -23.6249 C   0  0  1  0  0  0  0  0  0  0  0  0
    8.4648  -13.8382  -24.3025 O   0  0  0  0  0  0  0  0  0  0  0  0
   10.1134  -13.6771  -22.5542 C   0  0  2  0  0  0  0  0  0  0  0  0
   15.9717   -7.9322  -26.0398 O   0  0  0  0  0  0  0  0  0  0  0  0
    8.3266  -10.8792  -18.6016 N   0  0  0  0  0  0  0  0  0  0  0  0
    8.9445  -10.4675  -19.6953 C   0  0  0  0  0  0  0  0  0  0  0  0
    9.3454  -11.3126  -20.6289 N   0  0  0  0  0  0  0  0  0  0  0  0
    9.1314  -12.6302  -20.4941 C   0  0  0  0  0  0  0  0  0  0  0  0
    8.4871  -13.1005  -19.3584 C   0  0  0  0  0  0  0  0  0  0  0  0
    8.0843  -12.1804  -18.3977 C   0  0  0  0  0  0  0  0  0  0  0  0
    7.4990  -12.5959  -17.2788 N   0  0  0  0  0  0  0  0  0  0  0  0
    8.3998  -14.4218  -19.4627 N   0  0  0  0  0  0  0  0  0  0  0  0
    8.9653  -14.7720  -20.6155 C   0  0  0  0  0  0  0  0  0  0  0  0
    9.4125  -13.6874  -21.2488 N   0  0  0  0  0  0  0  0  0  0  0  0
  2  1  1  1  0  0  0
  2  5  1  0  0  0  0
  2  3  1  0  0  0  0
  3 17  1  0  0  0  0
  3  4  1  0  0  0  0
  5  6  1  0  0  0  0
  7  8  1  0  0  0  0
  8  6  1  6  0  0  0
  8  9  1  0  0  0  0
 10  9  1  1  0  0  0
 10 11  1  0  0  0  0
 10 12  1  0  0  0  0
 11 16  1  0  0  0  0
 12 13  1  1  0  0  0
 12 14  1  0  0  0  0
 14 15  1  6  0  0  0
 14 16  1  0  0  0  0
 16 27  1  1  0  0  0
 18 23  2  0  0  0  0
 18 19  1  0  0  0  0
 19 20  2  0  0  0  0
 20 21  1  0  0  0  0
 21 22  2  0  0  0  0
 21 27  1  0  0  0  0
 22 23  1  0  0  0  0
 22 25  1  0  0  0  0
 23 24  1  0  0  0  0
 25 26  2  0  0  0  0
 26 27  1  0  0  0  0
M  END
>  <CHROM.1>
-68.25512546,-31.98204709,143.67551948,-177.50995053,48.37523241,72.74608032
55.67413866,11.34025203,-11.09218362,-22.10928134,-0.09947593,0.79119246
1.03791947

>  <Name>
ligand

>  <RI>
0

>  <Rbt.Current_Directory>
/home/itssahil/PROJECTS/Mol_Feturizer/New_Systems/rnas/3E5F

>  <Rbt.Executable>
rbdock ($Id: //depot/dev/client3/rdock/2013.1/src/exe/rbdock.cxx#4 $)

>  <Rbt.Library>
libRbt.so (2013.1, Build901 2013/11/27)

>  <Rbt.Parameter_File>
/export/apps/rDock/src/rDock_2013.1_src/data/scripts/dock_solv.prm

>  <Rbt.Receptor>
prm/blind_docking_80.prm

>  <SCORE>
-17.0875

>  <SCORE.INTER>
-18.6904

>  <SCORE.INTER.CONST>
1

>  <SCORE.INTER.POLAR>
0

>  <SCORE.INTER.ROT>
7

>  <SCORE.INTER.SOLV>
14.6493

>  <SCORE.INTER.VDW>
-25.6101

>  <SCORE.INTER.norm>
-0.692239

>  <SCORE.INTRA>
1.60216

>  <SCORE.INTRA.DIHEDRAL>
2.69905

>  <SCORE.INTRA.DIHEDRAL.0>
4.89803

>  <SCORE.INTRA.POLAR>
0

>  <SCORE.INTRA.POLAR.0>
0

>  <SCORE.INTRA.REPUL>
0

>  <SCORE.INTRA.REPUL.0>
0

>  <SCORE.INTRA.SOLV>
0.778417

>  <SCORE.INTRA.SOLV.lig_0>
-48.5832

>  <SCORE.INTRA.VDW>
-0.136575

>  <SCORE.INTRA.VDW.0>
-2.39056

>  <SCORE.INTRA.norm>
0.0593392

>  <SCORE.RESTR>
0.000821929

>  <SCORE.RESTR.CAVITY>
0.000821929

>  <SCORE.RESTR.norm>
3.04418e-05

>  <SCORE.SYSTEM>
0

>  <SCORE.SYSTEM.CONST>
0

>  <SCORE.SYSTEM.DIHEDRAL>
0

>  <SCORE.SYSTEM.SOLV>
0

>  <SCORE.SYSTEM.norm>
0

>  <SCORE.heavy>
27

>  <SCORE.norm>
-0.632869

>  <RMSD>
7.241

$$$$
ligand
 OpenBabel11021811473D
libRbt.so/2013.1/901 2013/11/27
 27 29  0  0  0  0  0  0  0  0999 V2000
    7.4077  -13.6870  -23.4491 N   0  0  0  0  0  0  0  0  0  0  0  0
    7.6565  -14.9203  -22.6882 C   0  0  2  0  0  0  0  0  0  0  0  0
    7.5858  -14.6304  -21.1859 C   0  0  0  0  0  0  0  0  0  0  0  0
    7.7127  -13.4378  -20.8320 O   0  0  0  0  0  0  0  0  0  0  0  0
    9.0520  -15.4415  -23.0359 C   0  0  0  0  0  0  0  0  0  0  0  0
   10.1553  -14.5005  -22.5451 C   0  0  0  0  0  0  0  0  0  0  0  0
   10.2652  -13.4073  -25.1648 C   0  0  0  0  0  0  0  0  0  0  0  0
   10.0658  -12.8598  -23.4138 Se  0  0  2  0  0  0  0  0  0  0  0  0
   11.6736  -11.9768  -23.1115 C   0  0  0  0  0  0  0  0  0  0  0  0
   12.4829  -12.5588  -21.9517 C   0  0  1  0  0  0  0  0  0  0  0  0
   13.8182  -12.0298  -22.0210 O   0  0  0  0  0  0  0  0  0  0  0  0
   11.9038  -11.9809  -20.6598 C   0  0  1  0  0  0  0  0  0  0  0  0
   12.4954  -12.6336  -19.5354 O   0  0  0  0  0  0  0  0  0  0  0  0
   12.4325  -10.5531  -20.7708 C   0  0  1  0  0  0  0  0  0  0  0  0
   12.4519   -9.9670  -19.4680 O   0  0  0  0  0  0  0  0  0  0  0  0
   13.8691  -10.8453  -21.2059 C   0  0  2  0  0  0  0  0  0  0  0  0
    7.4163  -15.6073  -20.4234 O   0  0  0  0  0  0  0  0  0  0  0  0
   14.1973   -8.2766  -25.6712 N   0  0  0  0  0  0  0  0  0  0  0  0
   13.4694   -9.3408  -25.3794 C   0  0  0  0  0  0  0  0  0  0  0  0
   13.4900   -9.8908  -24.1779 N   0  0  0  0  0  0  0  0  0  0  0  0
   14.2578   -9.3767  -23.2052 C   0  0  0  0  0  0  0  0  0  0  0  0
   15.0374   -8.2606  -23.4742 C   0  0  0  0  0  0  0  0  0  0  0  0
   14.9909   -7.7136  -24.7511 C   0  0  0  0  0  0  0  0  0  0  0  0
   15.7525   -6.6681  -25.0580 N   0  0  0  0  0  0  0  0  0  0  0  0
   15.6970   -7.9524  -22.3632 N   0  0  0  0  0  0  0  0  0  0  0  0
   15.3492   -8.8368  -21.4312 C   0  0  0  0  0  0  0  0  0  0  0  0
   14.4737   -9.7063  -21.9359 N   0  0  0  0  0  0  0  0  0  0  0  0
  2  1  1  6  0  0  0
  2  5  1  0  0  0  0
  2  3  1  0  0  0  0
  3 17  1  0  0  0  0
  3  4  1  0  0  0  0
  5  6  1  0  0  0  0
  7  8  1  0  0  0  0
  8  6  1  1  0  0  0
  8  9  1  0  0  0  0
 10  9  1  6  0  0  0
 10 11  1  0  0  0  0
 10 12  1  0  0  0  0
 11 16  1  0  0  0  0
 12 13  1  1  0  0  0
 12 14  1  0  0  0  0
 14 15  1  1  0  0  0
 14 16  1  0  0  0  0
 16 27  1  6  0  0  0
 18 23  2  0  0  0  0
 18 19  1  0  0  0  0
 19 20  2  0  0  0  0
 20 21  1  0  0  0  0
 21 22  2  0  0  0  0
 21 27  1  0  0  0  0
 22 23  1  0  0  0  0
 22 25  1  0  0  0  0
 23 24  1  0  0  0  0
 25 26  2  0  0  0  0
 26 27  1  0  0  0  0
M  END
>  <CHROM.1>
66.58069086,-19.25836719,-64.48733477,-59.10795511,-16.76394227,166.00855648
41.28391179,11.68177665,-11.66666036,-22.63221523,2.85889506,0.70757463,1.78716747

>  <Name>
ligand

>  <RI>
0

>  <Rbt.Current_Directory>
/home/itssahil/PROJECTS/Mol_Feturizer/New_Systems/rnas/3E5F

>  <Rbt.Executable>
rbdock ($Id: //depot/dev/client3/rdock/2013.1/src/exe/rbdock.cxx#4 $)

>  <Rbt.Library>
libRbt.so (2013.1, Build901 2013/11/27)

>  <Rbt.Parameter_File>
/export/apps/rDock/src/rDock_2013.1_src/data/scripts/dock_solv.prm

>  <Rbt.Receptor>
prm/blind_docking_60.prm

>  <SCORE>
-12.9567

>  <SCORE.INTER>
-15.0668

>  <SCORE.INTER.CONST>
1

>  <SCORE.INTER.POLAR>
0

>  <SCORE.INTER.ROT>
7

>  <SCORE.INTER.SOLV>
19.967

>  <SCORE.INTER.VDW>
-24.9668

>  <SCORE.INTER.norm>
-0.558028

>  <SCORE.INTRA>
2.09554

>  <SCORE.INTRA.DIHEDRAL>
1.10664

>  <SCORE.INTRA.DIHEDRAL.0>
4.89803

>  <SCORE.INTRA.POLAR>
0

>  <SCORE.INTRA.POLAR.0>
0

>  <SCORE.INTRA.REPUL>
0

>  <SCORE.INTRA.REPUL.0>
0

>  <SCORE.INTRA.SOLV>
2.49913

>  <SCORE.INTRA.SOLV.lig_0>
-48.5832

>  <SCORE.INTRA.VDW>
0.292654

>  <SCORE.INTRA.VDW.0>
-2.39056

>  <SCORE.INTRA.norm>
0.0776127

>  <SCORE.RESTR>
0.0145269

>  <SCORE.RESTR.CAVITY>
0.0145269

>  <SCORE.RESTR.norm>
0.000538035

>  <SCORE.SYSTEM>
0

>  <SCORE.SYSTEM.CONST>
0

>  <SCORE.SYSTEM.DIHEDRAL>
0

>  <SCORE.SYSTEM.SOLV>
0

>  <SCORE.SYSTEM.norm>
0

>  <SCORE.heavy>
27

>  <SCORE.norm>
-0.479878

>  <RMSD>
7.243

$$$$
ligand
 OpenBabel11021811473D
libRbt.so/2013.1/901 2013/11/27
 27 29  0  0  0  0  0  0  0  0999 V2000
   15.1828   -6.9414  -22.2671 N   0  0  0  0  0  0  0  0  0  0  0  0
   15.2096   -8.1264  -23.1372 C   0  0  2  0  0  0  0  0  0  0  0  0
   15.2440   -7.6948  -24.6065 C   0  0  0  0  0  0  0  0  0  0  0  0
   14.7503   -8.4845  -25.4409 O   0  0  0  0  0  0  0  0  0  0  0  0
   13.9476   -8.9529  -22.8841 C   0  0  0  0  0  0  0  0  0  0  0  0
   13.7939   -9.3293  -21.4082 C   0  0  0  0  0  0  0  0  0  0  0  0
   12.7379  -11.0355  -19.3973 C   0  0  0  0  0  0  0  0  0  0  0  0
   12.5169  -10.6622  -21.1910 Se  0  0  2  0  0  0  0  0  0  0  0  0
   13.1807  -12.2089  -21.9805 C   0  0  0  0  0  0  0  0  0  0  0  0
   12.1866  -12.8912  -22.9211 C   0  0  1  0  0  0  0  0  0  0  0  0
   11.0449  -13.3046  -22.1507 O   0  0  0  0  0  0  0  0  0  0  0  0
   11.6474  -11.8176  -23.8671 C   0  0  1  0  0  0  0  0  0  0  0  0
   10.8590  -12.4307  -24.8884 O   0  0  0  0  0  0  0  0  0  0  0  0
   10.7443  -11.0638  -22.8940 C   0  0  1  0  0  0  0  0  0  0  0  0
    9.7635  -10.3422  -23.6413 O   0  0  0  0  0  0  0  0  0  0  0  0
   10.0692  -12.2484  -22.2015 C   0  0  2  0  0  0  0  0  0  0  0  0
   15.7712   -6.5904  -24.8648 O   0  0  0  0  0  0  0  0  0  0  0  0
    7.4205  -13.7886  -18.0474 N   0  0  0  0  0  0  0  0  0  0  0  0
    7.6809  -14.4564  -19.1581 C   0  0  0  0  0  0  0  0  0  0  0  0
    8.3812  -13.9229  -20.1438 N   0  0  0  0  0  0  0  0  0  0  0  0
    8.8575  -12.6727  -20.0437 C   0  0  0  0  0  0  0  0  0  0  0  0
    8.6030  -11.9395  -18.8932 C   0  0  0  0  0  0  0  0  0  0  0  0
    7.8596  -12.5345  -17.8807 C   0  0  0  0  0  0  0  0  0  0  0  0
    7.5624  -11.8507  -16.7801 N   0  0  0  0  0  0  0  0  0  0  0  0
    9.1728  -10.7486  -19.0399 N   0  0  0  0  0  0  0  0  0  0  0  0
    9.7622  -10.7297  -20.2331 C   0  0  0  0  0  0  0  0  0  0  0  0
    9.5750  -11.8968  -20.8496 N   0  0  0  0  0  0  0  0  0  0  0  0
  2  1  1  1  0  0  0
  2  5  1  0  0  0  0
  2  3  1  0  0  0  0
  3 17  1  0  0  0  0
  3  4  1  0  0  0  0
  5  6  1  0  0  0  0
  7  8  1  0  0  0  0
  8  6  1  6  0  0  0
  8  9  1  0  0  0  0
 10  9  1  1  0  0  0
 10 11  1  0  0  0  0
 10 12  1  0  0  0  0
 11 16  1  0  0  0  0
 12 13  1  6  0  0  0
 12 14  1  0  0  0  0
 14 15  1  6  0  0  0
 14 16  1  0  0  0  0
 16 27  1  1  0  0  0
 18 23  2  0  0  0  0
 18 19  1  0  0  0  0
 19 20  2  0  0  0  0
 20 21  1  0  0  0  0
 21 22  2  0  0  0  0
 21 27  1  0  0  0  0
 22 23  1  0  0  0  0
 22 25  1  0  0  0  0
 23 24  1  0  0  0  0
 25 26  2  0  0  0  0
 26 27  1  0  0  0  0
M  END
>  <CHROM.1>
-55.64053922,-152.32335111,-165.87714639,172.70197109,-131.06885198,-62.77453480
-66.09938412,11.49704601,-10.96461578,-21.54103854,-0.31071297,0.75154714
1.19991157

>  <Name>
ligand

>  <RI>
0

>  <Rbt.Current_Directory>
/home/itssahil/PROJECTS/Mol_Feturizer/New_Systems/rnas/3E5F

>  <Rbt.Executable>
rbdock ($Id: //depot/dev/client3/rdock/2013.1/src/exe/rbdock.cxx#4 $)

>  <Rbt.Library>
libRbt.so (2013.1, Build901 2013/11/27)

>  <Rbt.Parameter_File>
/export/apps/rDock/src/rDock_2013.1_src/data/scripts/dock_solv.prm

>  <Rbt.Receptor>
prm/blind_docking_60.prm

>  <SCORE>
-17.1519

>  <SCORE.INTER>
-18.6807

>  <SCORE.INTER.CONST>
1

>  <SCORE.INTER.POLAR>
0

>  <SCORE.INTER.ROT>
7

>  <SCORE.INTER.SOLV>
13.2497

>  <SCORE.INTER.VDW>
-25.137

>  <SCORE.INTER.norm>
-0.691876

>  <SCORE.INTRA>
1.52879

>  <SCORE.INTRA.DIHEDRAL>
1.05539

>  <SCORE.INTRA.DIHEDRAL.0>
4.89803

>  <SCORE.INTRA.POLAR>
0

>  <SCORE.INTRA.POLAR.0>
0

>  <SCORE.INTRA.REPUL>
0

>  <SCORE.INTRA.REPUL.0>
0

>  <SCORE.INTRA.SOLV>
0.948293

>  <SCORE.INTRA.SOLV.lig_0>
-48.5832

>  <SCORE.INTRA.VDW>
0.526949

>  <SCORE.INTRA.VDW.0>
-2.39056

>  <SCORE.INTRA.norm>
0.0566218

>  <SCORE.RESTR>
0

>  <SCORE.RESTR.CAVITY>
0

>  <SCORE.RESTR.norm>
0

>  <SCORE.SYSTEM>
0

>  <SCORE.SYSTEM.CONST>
0

>  <SCORE.SYSTEM.DIHEDRAL>
0

>  <SCORE.SYSTEM.SOLV>
0

>  <SCORE.SYSTEM.norm>
0

>  <SCORE.heavy>
27

>  <SCORE.norm>
-0.635255

>  <RMSD>
7.246

$$$$
ligand
 OpenBabel11021811473D
libRbt.so/2013.1/901 2013/11/27
 27 29  0  0  0  0  0  0  0  0999 V2000
    7.3530  -12.9115  -18.5091 N   0  0  0  0  0  0  0  0  0  0  0  0
    6.8622  -11.6748  -17.8836 C   0  0  2  0  0  0  0  0  0  0  0  0
    6.0817  -10.8454  -18.9079 C   0  0  0  0  0  0  0  0  0  0  0  0
    5.7997  -11.4021  -19.9915 O   0  0  0  0  0  0  0  0  0  0  0  0
    8.0603  -10.8641  -17.3864 C   0  0  0  0  0  0  0  0  0  0  0  0
    9.0014  -10.4711  -18.5281 C   0  0  0  0  0  0  0  0  0  0  0  0
    9.5577   -7.8940  -17.4700 C   0  0  0  0  0  0  0  0  0  0  0  0
   10.4297   -9.4636  -17.8962 Se  0  0  2  0  0  0  0  0  0  0  0  0
   11.4423   -8.9429  -19.3658 C   0  0  0  0  0  0  0  0  0  0  0  0
   12.8365   -9.5703  -19.4017 C   0  0  1  0  0  0  0  0  0  0  0  0
   12.6891  -11.0005  -19.4226 O   0  0  0  0  0  0  0  0  0  0  0  0
   13.4544   -9.2247  -20.7571 C   0  0  1  0  0  0  0  0  0  0  0  0
   14.8262   -9.6223  -20.7739 O   0  0  0  0  0  0  0  0  0  0  0  0
   12.6319  -10.1541  -21.6461 C   0  0  1  0  0  0  0  0  0  0  0  0
   13.3484  -10.3820  -22.8610 O   0  0  0  0  0  0  0  0  0  0  0  0
   12.6757  -11.4253  -20.7971 C   0  0  2  0  0  0  0  0  0  0  0  0
    5.7924   -9.6708  -18.5901 O   0  0  0  0  0  0  0  0  0  0  0  0
    9.7430  -13.6627  -24.4079 N   0  0  0  0  0  0  0  0  0  0  0  0
   10.7794  -12.8571  -24.5648 C   0  0  0  0  0  0  0  0  0  0  0  0
   11.4374  -12.3596  -23.5323 N   0  0  0  0  0  0  0  0  0  0  0  0
   11.0705  -12.6639  -22.2783 C   0  0  0  0  0  0  0  0  0  0  0  0
    9.9859  -13.5052  -22.0737 C   0  0  0  0  0  0  0  0  0  0  0  0
    9.3176  -14.0049  -23.1852 C   0  0  0  0  0  0  0  0  0  0  0  0
    8.2507  -14.7825  -23.0293 N   0  0  0  0  0  0  0  0  0  0  0  0
    9.8275  -13.6468  -20.7624 N   0  0  0  0  0  0  0  0  0  0  0  0
   10.7718  -12.9250  -20.1635 C   0  0  0  0  0  0  0  0  0  0  0  0
   11.5322  -12.3244  -21.0792 N   0  0  0  0  0  0  0  0  0  0  0  0
  2  1  1  6  0  0  0
  2  5  1  0  0  0  0
  2  3  1  0  0  0  0
  3 17  1  0  0  0  0
  3  4  1  0  0  0  0
  5  6  1  0  0  0  0
  7  8  1  0  0  0  0
  8  6  1  6  0  0  0
  8  9  1  0  0  0  0
 10  9  1  6  0  0  0
 10 11  1  0  0  0  0
 10 12  1  0  0  0  0
 11 16  1  0  0  0  0
 12 13  1  1  0  0  0
 12 14  1  0  0  0  0
 14 15  1  6  0  0  0
 14 16  1  0  0  0  0
 16 27  1  1  0  0  0
 18 23  2  0  0  0  0
 18 19  1  0  0  0  0
 19 20  2  0  0  0  0
 20 21  1  0  0  0  0
 21 22  2  0  0  0  0
 21 27  1  0  0  0  0
 22 23  1  0  0  0  0
 22 25  1  0  0  0  0
 23 24  1  0  0  0  0
 25 26  2  0  0  0  0
 26 27  1  0  0  0  0
M  END
>  <CHROM.1>
60.83731264,11.00854948,179.02479404,-70.45282146,-113.57973199,58.92278884
164.92068362,10.24194872,-11.06880894,-20.12567064,2.14407868,0.33927590
0.89313321

>  <Name>
ligand

>  <RI>
0

>  <Rbt.Current_Directory>
/home/itssahil/PROJECTS/Mol_Feturizer/New_Systems/rnas/3E5F

>  <Rbt.Executable>
rbdock ($Id: //depot/dev/client3/rdock/2013.1/src/exe/rbdock.cxx#4 $)

>  <Rbt.Library>
libRbt.so (2013.1, Build901 2013/11/27)

>  <Rbt.Parameter_File>
/export/apps/rDock/src/rDock_2013.1_src/data/scripts/dock_solv.prm

>  <Rbt.Receptor>
prm/pocket_docking_8.prm

>  <SCORE>
-11.7469

>  <SCORE.INTER>
-12.9156

>  <SCORE.INTER.CONST>
1

>  <SCORE.INTER.POLAR>
0

>  <SCORE.INTER.ROT>
7

>  <SCORE.INTER.SOLV>
6.37769

>  <SCORE.INTER.VDW>
-19.003

>  <SCORE.INTER.norm>
-0.478357

>  <SCORE.INTRA>
1.16877

>  <SCORE.INTRA.DIHEDRAL>
0.0350626

>  <SCORE.INTRA.DIHEDRAL.0>
4.89803

>  <SCORE.INTRA.POLAR>
0

>  <SCORE.INTRA.POLAR.0>
0

>  <SCORE.INTRA.REPUL>
0

>  <SCORE.INTRA.REPUL.0>
0

>  <SCORE.INTRA.SOLV>
1.31634

>  <SCORE.INTRA.SOLV.lig_0>
-48.5832

>  <SCORE.INTRA.VDW>
0.493062

>  <SCORE.INTRA.VDW.0>
-2.39056

>  <SCORE.INTRA.norm>
0.0432876

>  <SCORE.RESTR>
0

>  <SCORE.RESTR.CAVITY>
0

>  <SCORE.RESTR.norm>
0

>  <SCORE.SYSTEM>
0

>  <SCORE.SYSTEM.CONST>
0

>  <SCORE.SYSTEM.DIHEDRAL>
0

>  <SCORE.SYSTEM.SOLV>
0

>  <SCORE.SYSTEM.norm>
0

>  <SCORE.heavy>
27

>  <SCORE.norm>
-0.43507

>  <RMSD>
7.247

$$$$
ligand
 OpenBabel11021811473D
libRbt.so/2013.1/901 2013/11/27
 27 29  0  0  0  0  0  0  0  0999 V2000
   11.7634  -11.5649  -20.9619 N   0  0  0  0  0  0  0  0  0  0  0  0
   12.6065  -11.3830  -22.1526 C   0  0  2  0  0  0  0  0  0  0  0  0
   13.7549  -12.3965  -22.1392 C   0  0  0  0  0  0  0  0  0  0  0  0
   14.1638  -12.8046  -23.2482 O   0  0  0  0  0  0  0  0  0  0  0  0
   13.1841   -9.9667  -22.1365 C   0  0  0  0  0  0  0  0  0  0  0  0
   13.8685   -9.6104  -23.4587 C   0  0  0  0  0  0  0  0  0  0  0  0
   15.3611   -7.7928  -25.0521 C   0  0  0  0  0  0  0  0  0  0  0  0
   14.4190   -7.8351  -23.4659 Se  0  0  2  0  0  0  0  0  0  0  0  0
   15.7834   -7.6661  -22.2145 C   0  0  0  0  0  0  0  0  0  0  0  0
   16.7836   -6.5576  -22.5455 C   0  0  1  0  0  0  0  0  0  0  0  0
   16.1122   -5.2916  -22.4267 O   0  0  0  0  0  0  0  0  0  0  0  0
   17.8321   -6.5459  -21.4325 C   0  0  1  0  0  0  0  0  0  0  0  0
   18.8952   -5.6593  -21.7847 O   0  0  0  0  0  0  0  0  0  0  0  0
   16.9942   -5.9351  -20.3121 C   0  0  1  0  0  0  0  0  0  0  0  0
   17.8719   -5.3667  -19.3385 O   0  0  0  0  0  0  0  0  0  0  0  0
   16.3142   -4.8060  -21.0876 C   0  0  2  0  0  0  0  0  0  0  0  0
   14.1926  -12.7485  -21.0217 O   0  0  0  0  0  0  0  0  0  0  0  0
   13.2994   -5.0129  -16.9027 N   0  0  0  0  0  0  0  0  0  0  0  0
   14.4885   -5.5576  -17.0946 C   0  0  0  0  0  0  0  0  0  0  0  0
   15.1453   -5.4135  -18.2324 N   0  0  0  0  0  0  0  0  0  0  0  0
   14.6195   -4.6979  -19.2380 C   0  0  0  0  0  0  0  0  0  0  0  0
   13.3720   -4.1121  -19.0744 C   0  0  0  0  0  0  0  0  0  0  0  0
   12.7114   -4.2901  -17.8646 C   0  0  0  0  0  0  0  0  0  0  0  0
   11.4983   -3.7770  -17.6841 N   0  0  0  0  0  0  0  0  0  0  0  0
   13.0781   -3.4693  -20.1990 N   0  0  0  0  0  0  0  0  0  0  0  0
   14.0966   -3.6418  -21.0382 C   0  0  0  0  0  0  0  0  0  0  0  0
   15.0384   -4.3879  -20.4606 N   0  0  0  0  0  0  0  0  0  0  0  0
  2  1  1  1  0  0  0
  2  5  1  0  0  0  0
  2  3  1  0  0  0  0
  3 17  1  0  0  0  0
  3  4  1  0  0  0  0
  5  6  1  0  0  0  0
  7  8  1  0  0  0  0
  8  6  1  1  0  0  0
  8  9  1  0  0  0  0
 10  9  1  1  0  0  0
 10 11  1  0  0  0  0
 10 12  1  0  0  0  0
 11 16  1  0  0  0  0
 12 13  1  6  0  0  0
 12 14  1  0  0  0  0
 14 15  1  1  0  0  0
 14 16  1  0  0  0  0
 16 27  1  1  0  0  0
 18 23  2  0  0  0  0
 18 19  1  0  0  0  0
 19 20  2  0  0  0  0
 20 21  1  0  0  0  0
 21 22  2  0  0  0  0
 21 27  1  0  0  0  0
 22 23  1  0  0  0  0
 22 25  1  0  0  0  0
 23 24  1  0  0  0  0
 25 26  2  0  0  0  0
 26 27  1  0  0  0  0
M  END
>  <CHROM.1>
-169.82365748,148.02740321,174.71847852,173.30858224,151.26697312,67.48078557
133.47907429,14.71381898,-7.16762642,-21.28477238,1.70433404,-0.70740718
-2.52773158

>  <Name>
ligand

>  <RI>
0

>  <Rbt.Current_Directory>
/home/itssahil/PROJECTS/Mol_Feturizer/New_Systems/rnas/3E5F

>  <Rbt.Executable>
rbdock ($Id: //depot/dev/client3/rdock/2013.1/src/exe/rbdock.cxx#4 $)

>  <Rbt.Library>
libRbt.so (2013.1, Build901 2013/11/27)

>  <Rbt.Parameter_File>
/export/apps/rDock/src/rDock_2013.1_src/data/scripts/dock_solv.prm

>  <Rbt.Receptor>
prm/blind_docking_100.prm

>  <SCORE>
-16.5129

>  <SCORE.INTER>
-17.209

>  <SCORE.INTER.CONST>
1

>  <SCORE.INTER.POLAR>
0

>  <SCORE.INTER.ROT>
7

>  <SCORE.INTER.SOLV>
11.4493

>  <SCORE.INTER.VDW>
-23.5558

>  <SCORE.INTER.norm>
-0.637371

>  <SCORE.INTRA>
0.696062

>  <SCORE.INTRA.DIHEDRAL>
-0.578695

>  <SCORE.INTRA.DIHEDRAL.0>
4.89803

>  <SCORE.INTRA.POLAR>
0

>  <SCORE.INTRA.POLAR.0>
0

>  <SCORE.INTRA.REPUL>
0

>  <SCORE.INTRA.REPUL.0>
0

>  <SCORE.INTRA.SOLV>
0.166786

>  <SCORE.INTRA.SOLV.lig_0>
-48.5832

>  <SCORE.INTRA.VDW>
0.902016

>  <SCORE.INTRA.VDW.0>
-2.39056

>  <SCORE.INTRA.norm>
0.0257801

>  <SCORE.RESTR>
0

>  <SCORE.RESTR.CAVITY>
0

>  <SCORE.RESTR.norm>
0

>  <SCORE.SYSTEM>
0

>  <SCORE.SYSTEM.CONST>
0

>  <SCORE.SYSTEM.DIHEDRAL>
0

>  <SCORE.SYSTEM.SOLV>
0

>  <SCORE.SYSTEM.norm>
0

>  <SCORE.heavy>
27

>  <SCORE.norm>
-0.61159

>  <RMSD>
7.280

$$$$
ligand
 OpenBabel11021811473D
libRbt.so/2013.1/901 2013/11/27
 27 29  0  0  0  0  0  0  0  0999 V2000
   11.1121  -11.6824  -23.3998 N   0  0  0  0  0  0  0  0  0  0  0  0
   10.5016  -12.9501  -22.9731 C   0  0  2  0  0  0  0  0  0  0  0  0
    9.3977  -13.3548  -23.9548 C   0  0  0  0  0  0  0  0  0  0  0  0
    8.9280  -12.4532  -24.6828 O   0  0  0  0  0  0  0  0  0  0  0  0
    9.8945  -12.7615  -21.5817 C   0  0  0  0  0  0  0  0  0  0  0  0
   10.9685  -12.6536  -20.4962 C   0  0  0  0  0  0  0  0  0  0  0  0
   13.5243  -12.3462  -21.6978 C   0  0  0  0  0  0  0  0  0  0  0  0
   12.2025  -11.3270  -20.9106 Se  0  0  2  0  0  0  0  0  0  0  0  0
   13.0228  -10.8089  -19.3247 C   0  0  0  0  0  0  0  0  0  0  0  0
   12.0851  -10.0826  -18.3595 C   0  0  1  0  0  0  0  0  0  0  0  0
   12.8780   -9.4959  -17.3132 O   0  0  0  0  0  0  0  0  0  0  0  0
   11.4941   -8.8902  -19.1126 C   0  0  1  0  0  0  0  0  0  0  0  0
   10.4683   -8.2855  -18.3236 O   0  0  0  0  0  0  0  0  0  0  0  0
   12.7246   -7.9873  -19.1474 C   0  0  1  0  0  0  0  0  0  0  0  0
   12.2998   -6.6379  -19.3472 O   0  0  0  0  0  0  0  0  0  0  0  0
   13.2020   -8.1496  -17.7037 C   0  0  2  0  0  0  0  0  0  0  0  0
    9.0407  -14.5535  -23.9498 O   0  0  0  0  0  0  0  0  0  0  0  0
   17.8566   -8.3001  -19.9300 N   0  0  0  0  0  0  0  0  0  0  0  0
   16.6865   -8.6558  -20.4320 C   0  0  0  0  0  0  0  0  0  0  0  0
   15.5694   -8.5567  -19.7327 N   0  0  0  0  0  0  0  0  0  0  0  0
   15.5897   -8.0829  -18.4777 C   0  0  0  0  0  0  0  0  0  0  0  0
   16.7998   -7.7009  -17.9159 C   0  0  0  0  0  0  0  0  0  0  0  0
   17.9529   -7.8239  -18.6821 C   0  0  0  0  0  0  0  0  0  0  0  0
   19.1354   -7.5047  -18.1654 N   0  0  0  0  0  0  0  0  0  0  0  0
   16.5545   -7.2747  -16.6819 N   0  0  0  0  0  0  0  0  0  0  0  0
   15.2446   -7.3831  -16.4725 C   0  0  0  0  0  0  0  0  0  0  0  0
   14.6508   -7.8738  -17.5606 N   0  0  0  0  0  0  0  0  0  0  0  0
  2  1  1  6  0  0  0
  2  5  1  0  0  0  0
  2  3  1  0  0  0  0
  3 17  1  0  0  0  0
  3  4  1  0  0  0  0
  5  6  1  0  0  0  0
  7  8  1  0  0  0  0
  8  6  1  1  0  0  0
  8  9  1  0  0  0  0
 10  9  1  6  0  0  0
 10 11  1  0  0  0  0
 10 12  1  0  0  0  0
 11 16  1  0  0  0  0
 12 13  1  1  0  0  0
 12 14  1  0  0  0  0
 14 15  1  1  0  0  0
 14 16  1  0  0  0  0
 16 27  1  6  0  0  0
 18 23  2  0  0  0  0
 18 19  1  0  0  0  0
 19 20  2  0  0  0  0
 20 21  1  0  0  0  0
 21 22  2  0  0  0  0
 21 27  1  0  0  0  0
 22 23  1  0  0  0  0
 22 25  1  0  0  0  0
 23 24  1  0  0  0  0
 25 26  2  0  0  0  0
 26 27  1  0  0  0  0
M  END
>  <CHROM.1>
-72.26591112,-19.60879512,53.67624752,-96.11556376,-67.83794973,-168.28242393
88.47579866,13.06092425,-10.03998378,-20.06288781,-2.29640035,0.13508942
0.87439607

>  <Name>
ligand

>  <RI>
0

>  <Rbt.Current_Directory>
/home/itssahil/PROJECTS/Mol_Feturizer/New_Systems/rnas/3E5F

>  <Rbt.Executable>
rbdock ($Id: //depot/dev/client3/rdock/2013.1/src/exe/rbdock.cxx#4 $)

>  <Rbt.Library>
libRbt.so (2013.1, Build901 2013/11/27)

>  <Rbt.Parameter_File>
/export/apps/rDock/src/rDock_2013.1_src/data/scripts/dock_solv.prm

>  <Rbt.Receptor>
prm/pocket_docking_6.prm

>  <SCORE>
-10.1352

>  <SCORE.INTER>
-11.1866

>  <SCORE.INTER.CONST>
1

>  <SCORE.INTER.POLAR>
0

>  <SCORE.INTER.ROT>
7

>  <SCORE.INTER.SOLV>
8.18524

>  <SCORE.INTER.VDW>
-18.4528

>  <SCORE.INTER.norm>
-0.414318

>  <SCORE.INTRA>
1.05137

>  <SCORE.INTRA.DIHEDRAL>
0.291221

>  <SCORE.INTRA.DIHEDRAL.0>
4.89803

>  <SCORE.INTRA.POLAR>
0

>  <SCORE.INTRA.POLAR.0>
0

>  <SCORE.INTRA.REPUL>
0

>  <SCORE.INTRA.REPUL.0>
0

>  <SCORE.INTRA.SOLV>
2.67379

>  <SCORE.INTRA.SOLV.lig_0>
-48.5832

>  <SCORE.INTRA.VDW>
-0.431132

>  <SCORE.INTRA.VDW.0>
-2.39056

>  <SCORE.INTRA.norm>
0.0389398

>  <SCORE.RESTR>
0

>  <SCORE.RESTR.CAVITY>
0

>  <SCORE.RESTR.norm>
0

>  <SCORE.SYSTEM>
0

>  <SCORE.SYSTEM.CONST>
0

>  <SCORE.SYSTEM.DIHEDRAL>
0

>  <SCORE.SYSTEM.SOLV>
0

>  <SCORE.SYSTEM.norm>
0

>  <SCORE.heavy>
27

>  <SCORE.norm>
-0.375378

>  <RMSD>
7.292

$$$$
ligand
 OpenBabel11021811473D
libRbt.so/2013.1/901 2013/11/27
 27 29  0  0  0  0  0  0  0  0999 V2000
   13.6786  -11.8723  -23.2672 N   0  0  0  0  0  0  0  0  0  0  0  0
   12.7114  -10.7706  -23.1559 C   0  0  2  0  0  0  0  0  0  0  0  0
   11.3962  -11.1592  -23.8381 C   0  0  0  0  0  0  0  0  0  0  0  0
   11.4693  -11.9595  -24.7961 O   0  0  0  0  0  0  0  0  0  0  0  0
   13.2905   -9.5340  -23.8455 C   0  0  0  0  0  0  0  0  0  0  0  0
   14.4490   -8.9238  -23.0523 C   0  0  0  0  0  0  0  0  0  0  0  0
   15.6141   -7.5659  -25.2589 C   0  0  0  0  0  0  0  0  0  0  0  0
   14.8182   -7.1979  -23.6352 Se  0  0  2  0  0  0  0  0  0  0  0  0
   16.2599   -6.5680  -22.6448 C   0  0  0  0  0  0  0  0  0  0  0  0
   16.2231   -5.0586  -22.4023 C   0  0  1  0  0  0  0  0  0  0  0  0
   14.8911   -4.6971  -21.9990 O   0  0  0  0  0  0  0  0  0  0  0  0
   17.0898   -4.7754  -21.1747 C   0  0  1  0  0  0  0  0  0  0  0  0
   17.2461   -3.3647  -21.0133 O   0  0  0  0  0  0  0  0  0  0  0  0
   16.1664   -5.3245  -20.0901 C   0  0  1  0  0  0  0  0  0  0  0  0
   16.5214   -4.7313  -18.8398 O   0  0  0  0  0  0  0  0  0  0  0  0
   14.8376   -4.7325  -20.5616 C   0  0  2  0  0  0  0  0  0  0  0  0
   10.3479  -10.6413  -23.3939 O   0  0  0  0  0  0  0  0  0  0  0  0
   13.1574   -8.4282  -17.3736 N   0  0  0  0  0  0  0  0  0  0  0  0
   14.3831   -7.9556  -17.5208 C   0  0  0  0  0  0  0  0  0  0  0  0
   14.6606   -6.9965  -18.3866 N   0  0  0  0  0  0  0  0  0  0  0  0
   13.6934   -6.4648  -19.1493 C   0  0  0  0  0  0  0  0  0  0  0  0
   12.3942   -6.9364  -19.0243 C   0  0  0  0  0  0  0  0  0  0  0  0
   12.1435   -7.9485  -18.1053 C   0  0  0  0  0  0  0  0  0  0  0  0
   10.9195   -8.4529  -17.9845 N   0  0  0  0  0  0  0  0  0  0  0  0
   11.6355   -6.2584  -19.8782 N   0  0  0  0  0  0  0  0  0  0  0  0
   12.4221   -5.3950  -20.5164 C   0  0  0  0  0  0  0  0  0  0  0  0
   13.6755   -5.5144  -20.0781 N   0  0  0  0  0  0  0  0  0  0  0  0
  2  1  1  6  0  0  0
  2  5  1  0  0  0  0
  2  3  1  0  0  0  0
  3 17  1  0  0  0  0
  3  4  1  0  0  0  0
  5  6  1  0  0  0  0
  7  8  1  0  0  0  0
  8  6  1  1  0  0  0
  8  9  1  0  0  0  0
 10  9  1  1  0  0  0
 10 11  1  0  0  0  0
 10 12  1  0  0  0  0
 11 16  1  0  0  0  0
 12 13  1  1  0  0  0
 12 14  1  0  0  0  0
 14 15  1  1  0  0  0
 14 16  1  0  0  0  0
 16 27  1  6  0  0  0
 18 23  2  0  0  0  0
 18 19  1  0  0  0  0
 19 20  2  0  0  0  0
 20 21  1  0  0  0  0
 21 22  2  0  0  0  0
 21 27  1  0  0  0  0
 22 23  1  0  0  0  0
 22 25  1  0  0  0  0
 23 24  1  0  0  0  0
 25 26  2  0  0  0  0
 26 27  1  0  0  0  0
M  END
>  <CHROM.1>
-71.32826686,-29.30693023,-164.21052059,-72.77541811,-148.03853766,45.47576967
131.60860358,14.08524164,-7.35248558,-21.58281322,2.21692943,-0.79929195
-2.02911256

>  <Name>
ligand

>  <RI>
0

>  <Rbt.Current_Directory>
/home/itssahil/PROJECTS/Mol_Feturizer/New_Systems/rnas/3E5F

>  <Rbt.Executable>
rbdock ($Id: //depot/dev/client3/rdock/2013.1/src/exe/rbdock.cxx#4 $)

>  <Rbt.Library>
libRbt.so (2013.1, Build901 2013/11/27)

>  <Rbt.Parameter_File>
/export/apps/rDock/src/rDock_2013.1_src/data/scripts/dock_solv.prm

>  <Rbt.Receptor>
prm/pocket_docking_5.prm

>  <SCORE>
-13.2747

>  <SCORE.INTER>
-14.7617

>  <SCORE.INTER.CONST>
1

>  <SCORE.INTER.POLAR>
0

>  <SCORE.INTER.ROT>
7

>  <SCORE.INTER.SOLV>
13.2405

>  <SCORE.INTER.VDW>
-22.5213

>  <SCORE.INTER.norm>
-0.546728

>  <SCORE.INTRA>
1.48698

>  <SCORE.INTRA.DIHEDRAL>
1.79122

>  <SCORE.INTRA.DIHEDRAL.0>
4.89803

>  <SCORE.INTRA.POLAR>
0

>  <SCORE.INTRA.POLAR.0>
0

>  <SCORE.INTRA.REPUL>
0

>  <SCORE.INTRA.REPUL.0>
0

>  <SCORE.INTRA.SOLV>
0.750598

>  <SCORE.INTRA.SOLV.lig_0>
-48.5832

>  <SCORE.INTRA.VDW>
0.216067

>  <SCORE.INTRA.VDW.0>
-2.39056

>  <SCORE.INTRA.norm>
0.0550732

>  <SCORE.RESTR>
0

>  <SCORE.RESTR.CAVITY>
0

>  <SCORE.RESTR.norm>
0

>  <SCORE.SYSTEM>
0

>  <SCORE.SYSTEM.CONST>
0

>  <SCORE.SYSTEM.DIHEDRAL>
0

>  <SCORE.SYSTEM.SOLV>
0

>  <SCORE.SYSTEM.norm>
0

>  <SCORE.heavy>
27

>  <SCORE.norm>
-0.491655

>  <RMSD>
7.294

$$$$
ligand
 OpenBabel11021811473D
libRbt.so/2013.1/901 2013/11/27
 27 29  0  0  0  0  0  0  0  0999 V2000
   12.4303  -11.3911  -22.8296 N   0  0  0  0  0  0  0  0  0  0  0  0
   13.5127  -11.0412  -21.8981 C   0  0  2  0  0  0  0  0  0  0  0  0
   13.1011  -11.3896  -20.4645 C   0  0  0  0  0  0  0  0  0  0  0  0
   13.8108  -12.2208  -19.8570 O   0  0  0  0  0  0  0  0  0  0  0  0
   13.7800   -9.5382  -21.9946 C   0  0  0  0  0  0  0  0  0  0  0  0
   14.3191   -9.1378  -23.3703 C   0  0  0  0  0  0  0  0  0  0  0  0
   15.7788   -7.2458  -24.9065 C   0  0  0  0  0  0  0  0  0  0  0  0
   14.6471   -7.3101  -23.4503 Se  0  0  2  0  0  0  0  0  0  0  0  0
   15.8034   -6.8864  -22.0576 C   0  0  0  0  0  0  0  0  0  0  0  0
   15.2793   -5.7792  -21.1422 C   0  0  1  0  0  0  0  0  0  0  0  0
   16.1260   -5.7122  -19.9819 O   0  0  0  0  0  0  0  0  0  0  0  0
   15.5048   -4.4499  -21.8635 C   0  0  1  0  0  0  0  0  0  0  0  0
   14.8642   -3.3975  -21.1407 O   0  0  0  0  0  0  0  0  0  0  0  0
   17.0196   -4.3406  -21.7093 C   0  0  1  0  0  0  0  0  0  0  0  0
   17.3993   -2.9708  -21.8535 O   0  0  0  0  0  0  0  0  0  0  0  0
   17.1568   -4.7423  -20.2401 C   0  0  2  0  0  0  0  0  0  0  0  0
   12.0814  -10.8255  -20.0103 O   0  0  0  0  0  0  0  0  0  0  0  0
   21.9624   -5.5596  -21.9382 N   0  0  0  0  0  0  0  0  0  0  0  0
   20.9504   -4.9820  -22.5625 C   0  0  0  0  0  0  0  0  0  0  0  0
   19.7672   -4.8425  -21.9904 N   0  0  0  0  0  0  0  0  0  0  0  0
   19.5564   -5.2856  -20.7418 C   0  0  0  0  0  0  0  0  0  0  0  0
   20.5946   -5.8991  -20.0550 C   0  0  0  0  0  0  0  0  0  0  0  0
   21.8228   -6.0304  -20.6924 C   0  0  0  0  0  0  0  0  0  0  0  0
   22.8298   -6.6467  -20.0815 N   0  0  0  0  0  0  0  0  0  0  0  0
   20.1366   -6.2445  -18.8569 N   0  0  0  0  0  0  0  0  0  0  0  0
   18.8625   -5.8657  -18.7894 C   0  0  0  0  0  0  0  0  0  0  0  0
   18.5024   -5.2812  -19.9323 N   0  0  0  0  0  0  0  0  0  0  0  0
  2  1  1  6  0  0  0
  2  5  1  0  0  0  0
  2  3  1  0  0  0  0
  3 17  1  0  0  0  0
  3  4  1  0  0  0  0
  5  6  1  0  0  0  0
  7  8  1  0  0  0  0
  8  6  1  1  0  0  0
  8  9  1  0  0  0  0
 10  9  1  6  0  0  0
 10 11  1  0  0  0  0
 10 12  1  0  0  0  0
 11 16  1  0  0  0  0
 12 13  1  1  0  0  0
 12 14  1  0  0  0  0
 14 15  1  1  0  0  0
 14 16  1  0  0  0  0
 16 27  1  6  0  0  0
 18 23  2  0  0  0  0
 18 19  1  0  0  0  0
 19 20  2  0  0  0  0
 20 21  1  0  0  0  0
 21 22  2  0  0  0  0
 21 27  1  0  0  0  0
 22 23  1  0  0  0  0
 22 25  1  0  0  0  0
 23 24  1  0  0  0  0
 25 26  2  0  0  0  0
 26 27  1  0  0  0  0
M  END
>  <CHROM.1>
-65.13668362,119.51939487,-179.50970255,161.39284660,-125.30966775,169.52958100
127.63663112,16.50951170,-6.94194152,-21.60899130,-2.65811824,-0.42305035
-0.41519870

>  <Name>
ligand

>  <RI>
0

>  <Rbt.Current_Directory>
/home/itssahil/PROJECTS/Mol_Feturizer/New_Systems/rnas/3E5F

>  <Rbt.Executable>
rbdock ($Id: //depot/dev/client3/rdock/2013.1/src/exe/rbdock.cxx#4 $)

>  <Rbt.Library>
libRbt.so (2013.1, Build901 2013/11/27)

>  <Rbt.Parameter_File>
/export/apps/rDock/src/rDock_2013.1_src/data/scripts/dock_solv.prm

>  <Rbt.Receptor>
prm/pocket_docking_8.prm

>  <SCORE>
-19.9719

>  <SCORE.INTER>
-21.4941

>  <SCORE.INTER.CONST>
1

>  <SCORE.INTER.POLAR>
0

>  <SCORE.INTER.ROT>
7

>  <SCORE.INTER.SOLV>
8.63782

>  <SCORE.INTER.VDW>
-25.4754

>  <SCORE.INTER.norm>
-0.796079

>  <SCORE.INTRA>
1.52223

>  <SCORE.INTRA.DIHEDRAL>
0.9156

>  <SCORE.INTRA.DIHEDRAL.0>
4.89803

>  <SCORE.INTRA.POLAR>
0

>  <SCORE.INTRA.POLAR.0>
0

>  <SCORE.INTRA.REPUL>
0

>  <SCORE.INTRA.REPUL.0>
0

>  <SCORE.INTRA.SOLV>
0.734312

>  <SCORE.INTRA.SOLV.lig_0>
-48.5832

>  <SCORE.INTRA.VDW>
0.697269

>  <SCORE.INTRA.VDW.0>
-2.39056

>  <SCORE.INTRA.norm>
0.0563787

>  <SCORE.RESTR>
0

>  <SCORE.RESTR.CAVITY>
0

>  <SCORE.RESTR.norm>
0

>  <SCORE.SYSTEM>
0

>  <SCORE.SYSTEM.CONST>
0

>  <SCORE.SYSTEM.DIHEDRAL>
0

>  <SCORE.SYSTEM.SOLV>
0

>  <SCORE.SYSTEM.norm>
0

>  <SCORE.heavy>
27

>  <SCORE.norm>
-0.7397

>  <RMSD>
7.310

$$$$
ligand
 OpenBabel11021811473D
libRbt.so/2013.1/901 2013/11/27
 27 29  0  0  0  0  0  0  0  0999 V2000
    8.9249  -13.7145  -25.4442 N   0  0  0  0  0  0  0  0  0  0  0  0
    9.5614  -14.0537  -24.1629 C   0  0  2  0  0  0  0  0  0  0  0  0
    8.5255  -14.6551  -23.2081 C   0  0  0  0  0  0  0  0  0  0  0  0
    7.3586  -14.2128  -23.2861 O   0  0  0  0  0  0  0  0  0  0  0  0
   10.1360  -12.7780  -23.5445 C   0  0  0  0  0  0  0  0  0  0  0  0
   11.3654  -12.2745  -24.3049 C   0  0  0  0  0  0  0  0  0  0  0  0
   13.1647  -10.1277  -24.7787 C   0  0  0  0  0  0  0  0  0  0  0  0
   12.1691  -10.8589  -23.4077 Se  0  0  2  0  0  0  0  0  0  0  0  0
   13.4970  -11.5680  -22.3167 C   0  0  0  0  0  0  0  0  0  0  0  0
   12.9534  -12.3566  -21.1246 C   0  0  1  0  0  0  0  0  0  0  0  0
   13.5852  -11.8647  -19.9302 O   0  0  0  0  0  0  0  0  0  0  0  0
   11.4797  -11.9806  -20.9663 C   0  0  1  0  0  0  0  0  0  0  0  0
   10.8714  -12.8265  -19.9891 O   0  0  0  0  0  0  0  0  0  0  0  0
   11.6449  -10.5708  -20.4044 C   0  0  1  0  0  0  0  0  0  0  0  0
   10.4475  -10.2069  -19.7152 O   0  0  0  0  0  0  0  0  0  0  0  0
   12.7489  -10.8318  -19.3790 C   0  0  2  0  0  0  0  0  0  0  0  0
    8.9241  -15.5364  -22.4152 O   0  0  0  0  0  0  0  0  0  0  0  0
   16.3679   -7.5119  -20.9681 N   0  0  0  0  0  0  0  0  0  0  0  0
   15.8913   -8.5772  -21.5890 C   0  0  0  0  0  0  0  0  0  0  0  0
   14.9541   -9.3368  -21.0492 N   0  0  0  0  0  0  0  0  0  0  0  0
   14.4499   -9.0436  -19.8410 C   0  0  0  0  0  0  0  0  0  0  0  0
   14.9267   -7.9337  -19.1577 C   0  0  0  0  0  0  0  0  0  0  0  0
   15.9152   -7.1622  -19.7573 C   0  0  0  0  0  0  0  0  0  0  0  0
   16.4243   -6.1140  -19.1175 N   0  0  0  0  0  0  0  0  0  0  0  0
   14.2773   -7.8629  -18.0011 N   0  0  0  0  0  0  0  0  0  0  0  0
   13.4262   -8.8852  -17.9551 C   0  0  0  0  0  0  0  0  0  0  0  0
   13.5252   -9.6078  -19.0711 N   0  0  0  0  0  0  0  0  0  0  0  0
  2  1  1  6  0  0  0
  2  5  1  0  0  0  0
  2  3  1  0  0  0  0
  3 17  1  0  0  0  0
  3  4  1  0  0  0  0
  5  6  1  0  0  0  0
  7  8  1  0  0  0  0
  8  6  1  6  0  0  0
  8  9  1  0  0  0  0
 10  9  1  6  0  0  0
 10 11  1  0  0  0  0
 10 12  1  0  0  0  0
 11 16  1  0  0  0  0
 12 13  1  1  0  0  0
 12 14  1  0  0  0  0
 14 15  1  1  0  0  0
 14 16  1  0  0  0  0
 16 27  1  6  0  0  0
 18 23  2  0  0  0  0
 18 19  1  0  0  0  0
 19 20  2  0  0  0  0
 20 21  1  0  0  0  0
 21 22  2  0  0  0  0
 21 27  1  0  0  0  0
 22 23  1  0  0  0  0
 22 25  1  0  0  0  0
 23 24  1  0  0  0  0
 25 26  2  0  0  0  0
 26 27  1  0  0  0  0
M  END
>  <CHROM.1>
-71.24553031,-34.01578425,-172.63746200,-161.09988159,-70.55564568,-128.77570019
43.67921830,12.37339604,-10.90912940,-21.63911059,-2.61993560,0.74283822
1.47833906

>  <Name>
ligand

>  <RI>
0

>  <Rbt.Current_Directory>
/home/itssahil/PROJECTS/Mol_Feturizer/New_Systems/rnas/3E5F

>  <Rbt.Executable>
rbdock ($Id: //depot/dev/client3/rdock/2013.1/src/exe/rbdock.cxx#4 $)

>  <Rbt.Library>
libRbt.so (2013.1, Build901 2013/11/27)

>  <Rbt.Parameter_File>
/export/apps/rDock/src/rDock_2013.1_src/data/scripts/dock_solv.prm

>  <Rbt.Receptor>
prm/blind_docking_40.prm

>  <SCORE>
-13.8582

>  <SCORE.INTER>
-15.4855

>  <SCORE.INTER.CONST>
1

>  <SCORE.INTER.POLAR>
0

>  <SCORE.INTER.ROT>
7

>  <SCORE.INTER.SOLV>
9.03684

>  <SCORE.INTER.VDW>
-21.6026

>  <SCORE.INTER.norm>
-0.573537

>  <SCORE.INTRA>
1.62725

>  <SCORE.INTRA.DIHEDRAL>
4.42123

>  <SCORE.INTRA.DIHEDRAL.0>
4.89803

>  <SCORE.INTRA.POLAR>
0

>  <SCORE.INTRA.POLAR.0>
0

>  <SCORE.INTRA.REPUL>
0

>  <SCORE.INTRA.REPUL.0>
0

>  <SCORE.INTRA.SOLV>
0.872774

>  <SCORE.INTRA.SOLV.lig_0>
-48.5832

>  <SCORE.INTRA.VDW>
-1.01975

>  <SCORE.INTRA.VDW.0>
-2.39056

>  <SCORE.INTRA.norm>
0.0602685

>  <SCORE.RESTR>
0

>  <SCORE.RESTR.CAVITY>
0

>  <SCORE.RESTR.norm>
0

>  <SCORE.SYSTEM>
0

>  <SCORE.SYSTEM.CONST>
0

>  <SCORE.SYSTEM.DIHEDRAL>
0

>  <SCORE.SYSTEM.SOLV>
0

>  <SCORE.SYSTEM.norm>
0

>  <SCORE.heavy>
27

>  <SCORE.norm>
-0.513268

>  <RMSD>
7.318

$$$$
ligand
 OpenBabel11021811473D
libRbt.so/2013.1/901 2013/11/27
 27 29  0  0  0  0  0  0  0  0999 V2000
   11.4578  -11.5471  -22.0404 N   0  0  0  0  0  0  0  0  0  0  0  0
   12.6130  -11.3350  -22.9250 C   0  0  2  0  0  0  0  0  0  0  0  0
   13.7568  -12.2716  -22.5240 C   0  0  0  0  0  0  0  0  0  0  0  0
   14.0285  -12.3453  -21.3057 O   0  0  0  0  0  0  0  0  0  0  0  0
   13.0785   -9.8842  -22.7893 C   0  0  0  0  0  0  0  0  0  0  0  0
   14.0752   -9.4960  -23.8844 C   0  0  0  0  0  0  0  0  0  0  0  0
   15.5570   -7.5259  -25.2962 C   0  0  0  0  0  0  0  0  0  0  0  0
   14.4606   -7.6789  -23.8198 Se  0  0  2  0  0  0  0  0  0  0  0  0
   15.6646   -7.4102  -22.4290 C   0  0  0  0  0  0  0  0  0  0  0  0
   16.1569   -5.9667  -22.3159 C   0  0  1  0  0  0  0  0  0  0  0  0
   15.0399   -5.1339  -21.9601 O   0  0  0  0  0  0  0  0  0  0  0  0
   17.0907   -5.8996  -21.1069 C   0  0  1  0  0  0  0  0  0  0  0  0
   17.7285   -4.6222  -21.0641 O   0  0  0  0  0  0  0  0  0  0  0  0
   16.0547   -6.0022  -19.9903 C   0  0  1  0  0  0  0  0  0  0  0  0
   16.6163   -5.4663  -18.7909 O   0  0  0  0  0  0  0  0  0  0  0  0
   15.0043   -5.0283  -20.5257 C   0  0  2  0  0  0  0  0  0  0  0  0
   14.3406  -12.8859  -23.4439 O   0  0  0  0  0  0  0  0  0  0  0  0
   11.7435   -4.5199  -16.5566 N   0  0  0  0  0  0  0  0  0  0  0  0
   12.9816   -4.0718  -16.6739 C   0  0  0  0  0  0  0  0  0  0  0  0
   13.6981   -4.2822  -17.7643 N   0  0  0  0  0  0  0  0  0  0  0  0
   13.1823   -4.9627  -18.7991 C   0  0  0  0  0  0  0  0  0  0  0  0
   11.8860   -5.4504  -18.7122 C   0  0  0  0  0  0  0  0  0  0  0  0
   11.1662   -5.2116  -17.5474 C   0  0  0  0  0  0  0  0  0  0  0  0
    9.9357   -5.6959  -17.4115 N   0  0  0  0  0  0  0  0  0  0  0  0
   11.6153   -6.0803  -19.8499 N   0  0  0  0  0  0  0  0  0  0  0  0
   12.6952   -5.9947  -20.6232 C   0  0  0  0  0  0  0  0  0  0  0  0
   13.6527   -5.3159  -19.9909 N   0  0  0  0  0  0  0  0  0  0  0  0
  2  1  1  1  0  0  0
  2  5  1  0  0  0  0
  2  3  1  0  0  0  0
  3 17  1  0  0  0  0
  3  4  1  0  0  0  0
  5  6  1  0  0  0  0
  7  8  1  0  0  0  0
  8  6  1  1  0  0  0
  8  9  1  0  0  0  0
 10  9  1  1  0  0  0
 10 11  1  0  0  0  0
 10 12  1  0  0  0  0
 11 16  1  0  0  0  0
 12 13  1  1  0  0  0
 12 14  1  0  0  0  0
 14 15  1  1  0  0  0
 14 16  1  0  0  0  0
 16 27  1  1  0  0  0
 18 23  2  0  0  0  0
 18 19  1  0  0  0  0
 19 20  2  0  0  0  0
 20 21  1  0  0  0  0
 21 22  2  0  0  0  0
 21 27  1  0  0  0  0
 22 23  1  0  0  0  0
 22 25  1  0  0  0  0
 23 24  1  0  0  0  0
 25 26  2  0  0  0  0
 26 27  1  0  0  0  0
M  END
>  <CHROM.1>
-167.76899564,-46.33643389,173.02157136,-176.21583618,175.79479791,65.53001926
-160.22491795,14.04273661,-7.24617979,-21.26318291,1.41372719,-0.68019405
-2.48585924

>  <Name>
ligand

>  <RI>
0

>  <Rbt.Current_Directory>
/home/itssahil/PROJECTS/Mol_Feturizer/New_Systems/rnas/3E5F

>  <Rbt.Executable>
rbdock ($Id: //depot/dev/client3/rdock/2013.1/src/exe/rbdock.cxx#4 $)

>  <Rbt.Library>
libRbt.so (2013.1, Build901 2013/11/27)

>  <Rbt.Parameter_File>
/export/apps/rDock/src/rDock_2013.1_src/data/scripts/dock_solv.prm

>  <Rbt.Receptor>
prm/pocket_docking_4.prm

>  <SCORE>
-17.7522

>  <SCORE.INTER>
-17.0885

>  <SCORE.INTER.CONST>
1

>  <SCORE.INTER.POLAR>
0

>  <SCORE.INTER.ROT>
7

>  <SCORE.INTER.SOLV>
9.88754

>  <SCORE.INTER.VDW>
-22.9548

>  <SCORE.INTER.norm>
-0.632907

>  <SCORE.INTRA>
-0.663705

>  <SCORE.INTRA.DIHEDRAL>
-0.903002

>  <SCORE.INTRA.DIHEDRAL.0>
4.89803

>  <SCORE.INTRA.POLAR>
0

>  <SCORE.INTRA.POLAR.0>
0

>  <SCORE.INTRA.REPUL>
0

>  <SCORE.INTRA.REPUL.0>
0

>  <SCORE.INTRA.SOLV>
0.0652658

>  <SCORE.INTRA.SOLV.lig_0>
-48.5832

>  <SCORE.INTRA.VDW>
-0.244837

>  <SCORE.INTRA.VDW.0>
-2.39056

>  <SCORE.INTRA.norm>
-0.0245817

>  <SCORE.RESTR>
0

>  <SCORE.RESTR.CAVITY>
0

>  <SCORE.RESTR.norm>
0

>  <SCORE.SYSTEM>
0

>  <SCORE.SYSTEM.CONST>
0

>  <SCORE.SYSTEM.DIHEDRAL>
0

>  <SCORE.SYSTEM.SOLV>
0

>  <SCORE.SYSTEM.norm>
0

>  <SCORE.heavy>
27

>  <SCORE.norm>
-0.657489

>  <RMSD>
7.326

$$$$
ligand
 OpenBabel11021811473D
libRbt.so/2013.1/901 2013/11/27
 27 29  0  0  0  0  0  0  0  0999 V2000
    8.4277  -14.5461  -26.2876 N   0  0  0  0  0  0  0  0  0  0  0  0
    9.1874  -14.5543  -25.0288 C   0  0  2  0  0  0  0  0  0  0  0  0
    9.5761  -15.9900  -24.6626 C   0  0  0  0  0  0  0  0  0  0  0  0
    9.6457  -16.8150  -25.5997 O   0  0  0  0  0  0  0  0  0  0  0  0
    8.3105  -13.9710  -23.9195 C   0  0  0  0  0  0  0  0  0  0  0  0
    9.1438  -13.3839  -22.7774 C   0  0  0  0  0  0  0  0  0  0  0  0
   11.1713  -12.1759  -24.3587 C   0  0  0  0  0  0  0  0  0  0  0  0
    9.7945  -11.7014  -23.2252 Se  0  0  2  0  0  0  0  0  0  0  0  0
   10.7270  -11.0511  -21.7542 C   0  0  0  0  0  0  0  0  0  0  0  0
   11.8865  -11.9481  -21.3190 C   0  0  1  0  0  0  0  0  0  0  0  0
   12.9242  -11.8598  -22.3105 O   0  0  0  0  0  0  0  0  0  0  0  0
   12.4962  -11.3237  -20.0634 C   0  0  1  0  0  0  0  0  0  0  0  0
   13.4605  -12.2167  -19.5038 O   0  0  0  0  0  0  0  0  0  0  0  0
   13.2011  -10.1289  -20.7008 C   0  0  1  0  0  0  0  0  0  0  0  0
   14.2380   -9.6849  -19.8239 O   0  0  0  0  0  0  0  0  0  0  0  0
   13.8341  -10.8201  -21.9092 C   0  0  2  0  0  0  0  0  0  0  0  0
    9.7856  -16.2340  -23.4540 O   0  0  0  0  0  0  0  0  0  0  0  0
   16.2528   -6.5109  -23.4010 N   0  0  0  0  0  0  0  0  0  0  0  0
   16.2690   -7.1030  -22.2192 C   0  0  0  0  0  0  0  0  0  0  0  0
   15.5926   -8.2145  -21.9876 N   0  0  0  0  0  0  0  0  0  0  0  0
   14.8628   -8.7841  -22.9586 C   0  0  0  0  0  0  0  0  0  0  0  0
   14.8199   -8.1906  -24.2123 C   0  0  0  0  0  0  0  0  0  0  0  0
   15.5418   -7.0203  -24.4151 C   0  0  0  0  0  0  0  0  0  0  0  0
   15.4946   -6.4016  -25.5908 N   0  0  0  0  0  0  0  0  0  0  0  0
   14.0384   -8.9368  -24.9849 N   0  0  0  0  0  0  0  0  0  0  0  0
   13.6053   -9.9587  -24.2503 C   0  0  0  0  0  0  0  0  0  0  0  0
   14.1028   -9.8728  -23.0165 N   0  0  0  0  0  0  0  0  0  0  0  0
  2  1  1  6  0  0  0
  2  5  1  0  0  0  0
  2  3  1  0  0  0  0
  3 17  1  0  0  0  0
  3  4  1  0  0  0  0
  5  6  1  0  0  0  0
  7  8  1  0  0  0  0
  8  6  1  1  0  0  0
  8  9  1  0  0  0  0
 10  9  1  6  0  0  0
 10 11  1  0  0  0  0
 10 12  1  0  0  0  0
 11 16  1  0  0  0  0
 12 13  1  6  0  0  0
 12 14  1  0  0  0  0
 14 15  1  1  0  0  0
 14 16  1  0  0  0  0
 16 27  1  6  0  0  0
 18 23  2  0  0  0  0
 18 19  1  0  0  0  0
 19 20  2  0  0  0  0
 20 21  1  0  0  0  0
 21 22  2  0  0  0  0
 21 27  1  0  0  0  0
 22 23  1  0  0  0  0
 22 25  1  0  0  0  0
 23 24  1  0  0  0  0
 25 26  2  0  0  0  0
 26 27  1  0  0  0  0
M  END
>  <CHROM.1>
-155.25398986,24.29146205,79.03967885,-76.54296809,58.62887832,70.64956538
177.72129349,12.07207156,-11.27017676,-23.09655925,3.09666957,0.83757637
1.82268312

>  <Name>
ligand

>  <RI>
0

>  <Rbt.Current_Directory>
/home/itssahil/PROJECTS/Mol_Feturizer/New_Systems/rnas/3E5F

>  <Rbt.Executable>
rbdock ($Id: //depot/dev/client3/rdock/2013.1/src/exe/rbdock.cxx#4 $)

>  <Rbt.Library>
libRbt.so (2013.1, Build901 2013/11/27)

>  <Rbt.Parameter_File>
/export/apps/rDock/src/rDock_2013.1_src/data/scripts/dock_solv.prm

>  <Rbt.Receptor>
prm/blind_docking_60.prm

>  <SCORE>
-12.747

>  <SCORE.INTER>
-16.9363

>  <SCORE.INTER.CONST>
1

>  <SCORE.INTER.POLAR>
0

>  <SCORE.INTER.ROT>
7

>  <SCORE.INTER.SOLV>
21.323

>  <SCORE.INTER.VDW>
-26.6652

>  <SCORE.INTER.norm>
-0.627269

>  <SCORE.INTRA>
4.15152

>  <SCORE.INTRA.DIHEDRAL>
2.07563

>  <SCORE.INTRA.DIHEDRAL.0>
4.89803

>  <SCORE.INTRA.POLAR>
0

>  <SCORE.INTRA.POLAR.0>
0

>  <SCORE.INTRA.REPUL>
0

>  <SCORE.INTRA.REPUL.0>
0

>  <SCORE.INTRA.SOLV>
0.88056

>  <SCORE.INTRA.SOLV.lig_0>
-48.5832

>  <SCORE.INTRA.VDW>
2.67343

>  <SCORE.INTRA.VDW.0>
-2.39056

>  <SCORE.INTRA.norm>
0.15376

>  <SCORE.RESTR>
0.0377783

>  <SCORE.RESTR.CAVITY>
0.0377783

>  <SCORE.RESTR.norm>
0.0013992

>  <SCORE.SYSTEM>
0

>  <SCORE.SYSTEM.CONST>
0

>  <SCORE.SYSTEM.DIHEDRAL>
0

>  <SCORE.SYSTEM.SOLV>
0

>  <SCORE.SYSTEM.norm>
0

>  <SCORE.heavy>
27

>  <SCORE.norm>
-0.47211

>  <RMSD>
7.331

$$$$
ligand
 OpenBabel11021811473D
libRbt.so/2013.1/901 2013/11/27
 27 29  0  0  0  0  0  0  0  0999 V2000
   16.4685   -8.4133  -20.0931 N   0  0  0  0  0  0  0  0  0  0  0  0
   15.2484   -8.7006  -20.8615 C   0  0  2  0  0  0  0  0  0  0  0  0
   15.4138   -8.2157  -22.3050 C   0  0  0  0  0  0  0  0  0  0  0  0
   14.8733   -8.9025  -23.1993 O   0  0  0  0  0  0  0  0  0  0  0  0
   14.0733   -7.9656  -20.2144 C   0  0  0  0  0  0  0  0  0  0  0  0
   12.7490   -8.2648  -20.9217 C   0  0  0  0  0  0  0  0  0  0  0  0
   12.2137   -5.5362  -20.3400 C   0  0  0  0  0  0  0  0  0  0  0  0
   11.3860   -7.1839  -20.2671 Se  0  0  2  0  0  0  0  0  0  0  0  0
   11.2767   -7.4680  -18.4331 C   0  0  0  0  0  0  0  0  0  0  0  0
   10.0597   -6.8086  -17.7830 C   0  0  1  0  0  0  0  0  0  0  0  0
    8.8730   -7.4010  -18.3383 O   0  0  0  0  0  0  0  0  0  0  0  0
   10.0494   -7.2264  -16.3121 C   0  0  1  0  0  0  0  0  0  0  0  0
    9.0452   -6.4906  -15.6117 O   0  0  0  0  0  0  0  0  0  0  0  0
    9.6126   -8.6804  -16.4728 C   0  0  1  0  0  0  0  0  0  0  0  0
    9.0533   -9.1321  -15.2382 O   0  0  0  0  0  0  0  0  0  0  0  0
    8.4867   -8.4982  -17.4915 C   0  0  2  0  0  0  0  0  0  0  0  0
   16.0843   -7.1752  -22.4843 O   0  0  0  0  0  0  0  0  0  0  0  0
    4.9644  -11.6111  -19.6240 N   0  0  0  0  0  0  0  0  0  0  0  0
    4.7785  -10.4891  -18.9502 C   0  0  0  0  0  0  0  0  0  0  0  0
    5.7910   -9.7942  -18.4614 N   0  0  0  0  0  0  0  0  0  0  0  0
    7.0538  -10.2107  -18.6399 C   0  0  0  0  0  0  0  0  0  0  0  0
    7.2885  -11.3853  -19.3407 C   0  0  0  0  0  0  0  0  0  0  0  0
    6.1971  -12.0895  -19.8356 C   0  0  0  0  0  0  0  0  0  0  0  0
    6.3795  -13.2387  -20.4785 N   0  0  0  0  0  0  0  0  0  0  0  0
    8.6024  -11.5771  -19.3771 N   0  0  0  0  0  0  0  0  0  0  0  0
    9.1740  -10.5666  -18.7264 C   0  0  0  0  0  0  0  0  0  0  0  0
    8.2383   -9.7310  -18.2752 N   0  0  0  0  0  0  0  0  0  0  0  0
  2  1  1  1  0  0  0
  2  5  1  0  0  0  0
  2  3  1  0  0  0  0
  3 17  1  0  0  0  0
  3  4  1  0  0  0  0
  5  6  1  0  0  0  0
  7  8  1  0  0  0  0
  8  6  1  6  0  0  0
  8  9  1  0  0  0  0
 10  9  1  6  0  0  0
 10 11  1  0  0  0  0
 10 12  1  0  0  0  0
 11 16  1  0  0  0  0
 12 13  1  1  0  0  0
 12 14  1  0  0  0  0
 14 15  1  1  0  0  0
 14 16  1  0  0  0  0
 16 27  1  6  0  0  0
 18 23  2  0  0  0  0
 18 19  1  0  0  0  0
 19 20  2  0  0  0  0
 20 21  1  0  0  0  0
 21 22  2  0  0  0  0
 21 27  1  0  0  0  0
 22 23  1  0  0  0  0
 22 25  1  0  0  0  0
 23 24  1  0  0  0  0
 25 26  2  0  0  0  0
 26 27  1  0  0  0  0
M  END
>  <CHROM.1>
-177.43865248,144.86182863,-172.17699344,48.62801806,-171.16399653,62.94581949
-100.33264852,10.39585315,-8.65786512,-19.34990078,0.01957907,-0.47485892
-2.29736113

>  <Name>
ligand

>  <RI>
0

>  <Rbt.Current_Directory>
/home/itssahil/PROJECTS/Mol_Feturizer/New_Systems/rnas/3E5F

>  <Rbt.Executable>
rbdock ($Id: //depot/dev/client3/rdock/2013.1/src/exe/rbdock.cxx#4 $)

>  <Rbt.Library>
libRbt.so (2013.1, Build901 2013/11/27)

>  <Rbt.Parameter_File>
/export/apps/rDock/src/rDock_2013.1_src/data/scripts/dock_solv.prm

>  <Rbt.Receptor>
prm/pocket_docking_8.prm

>  <SCORE>
-11.037

>  <SCORE.INTER>
-11.7803

>  <SCORE.INTER.CONST>
1

>  <SCORE.INTER.POLAR>
0

>  <SCORE.INTER.ROT>
7

>  <SCORE.INTER.SOLV>
10.5629

>  <SCORE.INTER.VDW>
-19.6412

>  <SCORE.INTER.norm>
-0.436307

>  <SCORE.INTRA>
0.743294

>  <SCORE.INTRA.DIHEDRAL>
-1.19612

>  <SCORE.INTRA.DIHEDRAL.0>
4.89803

>  <SCORE.INTRA.POLAR>
0

>  <SCORE.INTRA.POLAR.0>
0

>  <SCORE.INTRA.REPUL>
0

>  <SCORE.INTRA.REPUL.0>
0

>  <SCORE.INTRA.SOLV>
-0.0634112

>  <SCORE.INTRA.SOLV.lig_0>
-48.5832

>  <SCORE.INTRA.VDW>
1.37306

>  <SCORE.INTRA.VDW.0>
-2.39056

>  <SCORE.INTRA.norm>
0.0275294

>  <SCORE.RESTR>
0

>  <SCORE.RESTR.CAVITY>
0

>  <SCORE.RESTR.norm>
0

>  <SCORE.SYSTEM>
0

>  <SCORE.SYSTEM.CONST>
0

>  <SCORE.SYSTEM.DIHEDRAL>
0

>  <SCORE.SYSTEM.SOLV>
0

>  <SCORE.SYSTEM.norm>
0

>  <SCORE.heavy>
27

>  <SCORE.norm>
-0.408778

>  <RMSD>
7.346

$$$$
ligand
 OpenBabel11021811473D
libRbt.so/2013.1/901 2013/11/27
 27 29  0  0  0  0  0  0  0  0999 V2000
   11.9449  -11.0990  -21.5225 N   0  0  0  0  0  0  0  0  0  0  0  0
   12.5836  -11.4259  -22.8059 C   0  0  2  0  0  0  0  0  0  0  0  0
   13.7781  -12.3559  -22.5730 C   0  0  0  0  0  0  0  0  0  0  0  0
   14.1378  -12.5309  -21.3883 O   0  0  0  0  0  0  0  0  0  0  0  0
   13.0723  -10.1312  -23.4576 C   0  0  0  0  0  0  0  0  0  0  0  0
   14.1285   -9.4225  -22.6058 C   0  0  0  0  0  0  0  0  0  0  0  0
   15.1556   -8.2474  -24.9795 C   0  0  0  0  0  0  0  0  0  0  0  0
   14.5416   -7.7531  -23.3109 Se  0  0  2  0  0  0  0  0  0  0  0  0
   16.1061   -7.1704  -22.4929 C   0  0  0  0  0  0  0  0  0  0  0  0
   16.2821   -5.6515  -22.5205 C   0  0  1  0  0  0  0  0  0  0  0  0
   15.0391   -5.0444  -22.1281 O   0  0  0  0  0  0  0  0  0  0  0  0
   17.2606   -5.2882  -21.4030 C   0  0  1  0  0  0  0  0  0  0  0  0
   17.6093   -3.9065  -21.5016 O   0  0  0  0  0  0  0  0  0  0  0  0
   16.3505   -5.5109  -20.1977 C   0  0  1  0  0  0  0  0  0  0  0  0
   16.8646   -4.7698  -19.0897 O   0  0  0  0  0  0  0  0  0  0  0  0
   15.0804   -4.8277  -20.7063 C   0  0  2  0  0  0  0  0  0  0  0  0
   14.3116  -12.8639  -23.5838 O   0  0  0  0  0  0  0  0  0  0  0  0
   11.1081   -3.7893  -17.5780 N   0  0  0  0  0  0  0  0  0  0  0  0
   12.0729   -2.9834  -17.9869 C   0  0  0  0  0  0  0  0  0  0  0  0
   13.0304   -3.3986  -18.7978 N   0  0  0  0  0  0  0  0  0  0  0  0
   13.0498   -4.6657  -19.2383 C   0  0  0  0  0  0  0  0  0  0  0  0
   12.0544   -5.5419  -18.8292 C   0  0  0  0  0  0  0  0  0  0  0  0
   11.0673   -5.0682  -17.9731 C   0  0  0  0  0  0  0  0  0  0  0  0
   10.1191   -5.8872  -17.5287 N   0  0  0  0  0  0  0  0  0  0  0  0
   12.2965   -6.7192  -19.3946 N   0  0  0  0  0  0  0  0  0  0  0  0
   13.3988   -6.5927  -20.1297 C   0  0  0  0  0  0  0  0  0  0  0  0
   13.8628   -5.3461  -20.0399 N   0  0  0  0  0  0  0  0  0  0  0  0
  2  1  1  1  0  0  0
  2  5  1  0  0  0  0
  2  3  1  0  0  0  0
  3 17  1  0  0  0  0
  3  4  1  0  0  0  0
  5  6  1  0  0  0  0
  7  8  1  0  0  0  0
  8  6  1  1  0  0  0
  8  9  1  0  0  0  0
 10  9  1  1  0  0  0
 10 11  1  0  0  0  0
 10 12  1  0  0  0  0
 11 16  1  0  0  0  0
 12 13  1  6  0  0  0
 12 14  1  0  0  0  0
 14 15  1  1  0  0  0
 14 16  1  0  0  0  0
 16 27  1  1  0  0  0
 18 23  2  0  0  0  0
 18 19  1  0  0  0  0
 19 20  2  0  0  0  0
 20 21  1  0  0  0  0
 21 22  2  0  0  0  0
 21 27  1  0  0  0  0
 22 23  1  0  0  0  0
 22 25  1  0  0  0  0
 23 24  1  0  0  0  0
 25 26  2  0  0  0  0
 26 27  1  0  0  0  0
M  END
>  <CHROM.1>
62.14424028,-9.84661459,-172.71240456,-59.91451068,-156.91234285,46.28661361
-125.74016483,14.08736875,-7.12856406,-21.29783033,1.45300819,-0.61580854
-2.62654294

>  <Name>
ligand

>  <RI>
0

>  <Rbt.Current_Directory>
/home/itssahil/PROJECTS/Mol_Feturizer/New_Systems/rnas/3E5F

>  <Rbt.Executable>
rbdock ($Id: //depot/dev/client3/rdock/2013.1/src/exe/rbdock.cxx#4 $)

>  <Rbt.Library>
libRbt.so (2013.1, Build901 2013/11/27)

>  <Rbt.Parameter_File>
/export/apps/rDock/src/rDock_2013.1_src/data/scripts/dock_solv.prm

>  <Rbt.Receptor>
prm/pocket_docking_4.prm

>  <SCORE>
-15.2978

>  <SCORE.INTER>
-16.3771

>  <SCORE.INTER.CONST>
1

>  <SCORE.INTER.POLAR>
0

>  <SCORE.INTER.ROT>
7

>  <SCORE.INTER.SOLV>
11.1027

>  <SCORE.INTER.VDW>
-22.8856

>  <SCORE.INTER.norm>
-0.606558

>  <SCORE.INTRA>
1.07929

>  <SCORE.INTRA.DIHEDRAL>
0.0705702

>  <SCORE.INTRA.DIHEDRAL.0>
4.89803

>  <SCORE.INTRA.POLAR>
0

>  <SCORE.INTRA.POLAR.0>
0

>  <SCORE.INTRA.REPUL>
0

>  <SCORE.INTRA.REPUL.0>
0

>  <SCORE.INTRA.SOLV>
0.650333

>  <SCORE.INTRA.SOLV.lig_0>
-48.5832

>  <SCORE.INTRA.VDW>
0.71884

>  <SCORE.INTRA.VDW.0>
-2.39056

>  <SCORE.INTRA.norm>
0.0399738

>  <SCORE.RESTR>
0

>  <SCORE.RESTR.CAVITY>
0

>  <SCORE.RESTR.norm>
0

>  <SCORE.SYSTEM>
0

>  <SCORE.SYSTEM.CONST>
0

>  <SCORE.SYSTEM.DIHEDRAL>
0

>  <SCORE.SYSTEM.SOLV>
0

>  <SCORE.SYSTEM.norm>
0

>  <SCORE.heavy>
27

>  <SCORE.norm>
-0.566584

>  <RMSD>
7.360

$$$$
ligand
 OpenBabel11021811473D
libRbt.so/2013.1/901 2013/11/27
 27 29  0  0  0  0  0  0  0  0999 V2000
   11.7460  -12.5651  -22.0906 N   0  0  0  0  0  0  0  0  0  0  0  0
   13.0072  -11.8129  -22.0169 C   0  0  2  0  0  0  0  0  0  0  0  0
   13.8126  -12.0163  -23.3039 C   0  0  0  0  0  0  0  0  0  0  0  0
   14.2485  -13.1675  -23.5239 O   0  0  0  0  0  0  0  0  0  0  0  0
   13.8197  -12.3273  -20.8273 C   0  0  0  0  0  0  0  0  0  0  0  0
   13.2722  -11.8142  -19.4930 C   0  0  0  0  0  0  0  0  0  0  0  0
   11.8399   -9.4409  -20.1143 C   0  0  0  0  0  0  0  0  0  0  0  0
   13.4439   -9.9677  -19.3692 Se  0  0  2  0  0  0  0  0  0  0  0  0
   14.6571   -9.4288  -20.6707 C   0  0  0  0  0  0  0  0  0  0  0  0
   14.6865   -7.9158  -20.8911 C   0  0  1  0  0  0  0  0  0  0  0  0
   14.8921   -7.2768  -19.6195 O   0  0  0  0  0  0  0  0  0  0  0  0
   15.9496   -7.5989  -21.6927 C   0  0  1  0  0  0  0  0  0  0  0  0
   15.9330   -6.2272  -22.0909 O   0  0  0  0  0  0  0  0  0  0  0  0
   16.9939   -7.8113  -20.5996 C   0  0  1  0  0  0  0  0  0  0  0  0
   18.1825   -7.1025  -20.9548 O   0  0  0  0  0  0  0  0  0  0  0  0
   16.3069   -7.0823  -19.4442 C   0  0  2  0  0  0  0  0  0  0  0  0
   13.9832  -11.0157  -24.0346 O   0  0  0  0  0  0  0  0  0  0  0  0
   14.9516   -9.0966  -14.8889 N   0  0  0  0  0  0  0  0  0  0  0  0
   14.1820   -8.7770  -15.9151 C   0  0  0  0  0  0  0  0  0  0  0  0
   14.6806   -8.2661  -17.0273 N   0  0  0  0  0  0  0  0  0  0  0  0
   16.0001   -8.0571  -17.1507 C   0  0  0  0  0  0  0  0  0  0  0  0
   16.8400   -8.3787  -16.0937 C   0  0  0  0  0  0  0  0  0  0  0  0
   16.2768   -8.9103  -14.9396 C   0  0  0  0  0  0  0  0  0  0  0  0
   17.0440   -9.1947  -13.8918 N   0  0  0  0  0  0  0  0  0  0  0  0
   18.0813   -8.0798  -16.4600 N   0  0  0  0  0  0  0  0  0  0  0  0
   18.0282   -7.5895  -17.6963 C   0  0  0  0  0  0  0  0  0  0  0  0
   16.7654   -7.5729  -18.1234 N   0  0  0  0  0  0  0  0  0  0  0  0
  2  1  1  6  0  0  0
  2  5  1  0  0  0  0
  2  3  1  0  0  0  0
  3 17  1  0  0  0  0
  3  4  1  0  0  0  0
  5  6  1  0  0  0  0
  7  8  1  0  0  0  0
  8  6  1  6  0  0  0
  8  9  1  0  0  0  0
 10  9  1  1  0  0  0
 10 11  1  0  0  0  0
 10 12  1  0  0  0  0
 11 16  1  0  0  0  0
 12 13  1  1  0  0  0
 12 14  1  0  0  0  0
 14 15  1  6  0  0  0
 14 16  1  0  0  0  0
 16 27  1  1  0  0  0
 18 23  2  0  0  0  0
 18 19  1  0  0  0  0
 19 20  2  0  0  0  0
 20 21  1  0  0  0  0
 21 22  2  0  0  0  0
 21 27  1  0  0  0  0
 22 23  1  0  0  0  0
 22 25  1  0  0  0  0
 23 24  1  0  0  0  0
 25 26  2  0  0  0  0
 26 27  1  0  0  0  0
M  END
>  <CHROM.1>
-75.97233491,-66.40840872,-64.87053640,89.46354122,167.91740963,53.03526456
-4.29263927,14.89178333,-9.32760732,-19.46374925,2.25558258,-0.82448822,-1.55203784

>  <Name>
ligand

>  <RI>
0

>  <Rbt.Current_Directory>
/home/itssahil/PROJECTS/Mol_Feturizer/New_Systems/rnas/3E5F

>  <Rbt.Executable>
rbdock ($Id: //depot/dev/client3/rdock/2013.1/src/exe/rbdock.cxx#4 $)

>  <Rbt.Library>
libRbt.so (2013.1, Build901 2013/11/27)

>  <Rbt.Parameter_File>
/export/apps/rDock/src/rDock_2013.1_src/data/scripts/dock_solv.prm

>  <Rbt.Receptor>
prm/pocket_docking_4.prm

>  <SCORE>
-12.5367

>  <SCORE.INTER>
-13.7937

>  <SCORE.INTER.CONST>
1

>  <SCORE.INTER.POLAR>
0

>  <SCORE.INTER.ROT>
7

>  <SCORE.INTER.SOLV>
9.53526

>  <SCORE.INTER.VDW>
-20.6409

>  <SCORE.INTER.norm>
-0.510879

>  <SCORE.INTRA>
1.25708

>  <SCORE.INTRA.DIHEDRAL>
0.789016

>  <SCORE.INTRA.DIHEDRAL.0>
4.89803

>  <SCORE.INTRA.POLAR>
0

>  <SCORE.INTRA.POLAR.0>
0

>  <SCORE.INTRA.REPUL>
0

>  <SCORE.INTRA.REPUL.0>
0

>  <SCORE.INTRA.SOLV>
1.68905

>  <SCORE.INTRA.SOLV.lig_0>
-48.5832

>  <SCORE.INTRA.VDW>
0.0180428

>  <SCORE.INTRA.VDW.0>
-2.39056

>  <SCORE.INTRA.norm>
0.0465584

>  <SCORE.RESTR>
0

>  <SCORE.RESTR.CAVITY>
0

>  <SCORE.RESTR.norm>
0

>  <SCORE.SYSTEM>
0

>  <SCORE.SYSTEM.CONST>
0

>  <SCORE.SYSTEM.DIHEDRAL>
0

>  <SCORE.SYSTEM.SOLV>
0

>  <SCORE.SYSTEM.norm>
0

>  <SCORE.heavy>
27

>  <SCORE.norm>
-0.464321

>  <RMSD>
7.374

$$$$
ligand
 OpenBabel11021811473D
libRbt.so/2013.1/901 2013/11/27
 27 29  0  0  0  0  0  0  0  0999 V2000
   14.7852   -5.3965  -19.2593 N   0  0  0  0  0  0  0  0  0  0  0  0
   13.9326   -4.6412  -20.1890 C   0  0  2  0  0  0  0  0  0  0  0  0
   14.7915   -3.6959  -21.0346 C   0  0  0  0  0  0  0  0  0  0  0  0
   14.4796   -3.5714  -22.2391 O   0  0  0  0  0  0  0  0  0  0  0  0
   12.9268   -3.8203  -19.3801 C   0  0  0  0  0  0  0  0  0  0  0  0
   12.0569   -4.7022  -18.4806 C   0  0  0  0  0  0  0  0  0  0  0  0
   11.8172   -2.4988  -16.7037 C   0  0  0  0  0  0  0  0  0  0  0  0
   10.7527   -3.6946  -17.6214 Se  0  0  2  0  0  0  0  0  0  0  0  0
   10.0683   -4.7278  -16.2357 C   0  0  0  0  0  0  0  0  0  0  0  0
    8.5400   -4.7549  -16.1895 C   0  0  1  0  0  0  0  0  0  0  0  0
    8.0717   -5.6456  -17.2166 O   0  0  0  0  0  0  0  0  0  0  0  0
    8.1379   -5.4305  -14.8780 C   0  0  1  0  0  0  0  0  0  0  0  0
    6.7264   -5.3145  -14.6921 O   0  0  0  0  0  0  0  0  0  0  0  0
    8.5010   -6.8725  -15.2231 C   0  0  1  0  0  0  0  0  0  0  0  0
    7.7667   -7.7495  -14.3670 O   0  0  0  0  0  0  0  0  0  0  0  0
    7.9180   -6.9524  -16.6346 C   0  0  2  0  0  0  0  0  0  0  0  0
   15.7462   -3.1260  -20.4619 O   0  0  0  0  0  0  0  0  0  0  0  0
    7.3119  -11.1717  -19.5458 N   0  0  0  0  0  0  0  0  0  0  0  0
    6.3897  -10.4455  -18.9377 C   0  0  0  0  0  0  0  0  0  0  0  0
    6.7026   -9.3799  -18.2213 N   0  0  0  0  0  0  0  0  0  0  0  0
    7.9817   -8.9968  -18.0910 C   0  0  0  0  0  0  0  0  0  0  0  0
    8.9783   -9.7354  -18.7134 C   0  0  0  0  0  0  0  0  0  0  0  0
    8.6090  -10.8516  -19.4548 C   0  0  0  0  0  0  0  0  0  0  0  0
    9.5379  -11.6062  -20.0335 N   0  0  0  0  0  0  0  0  0  0  0  0
   10.1417   -9.1589  -18.4332 N   0  0  0  0  0  0  0  0  0  0  0  0
    9.8912   -8.1008  -17.6657 C   0  0  0  0  0  0  0  0  0  0  0  0
    8.5793   -7.9955  -17.4533 N   0  0  0  0  0  0  0  0  0  0  0  0
  2  1  1  1  0  0  0
  2  5  1  0  0  0  0
  2  3  1  0  0  0  0
  3 17  1  0  0  0  0
  3  4  1  0  0  0  0
  5  6  1  0  0  0  0
  7  8  1  0  0  0  0
  8  6  1  6  0  0  0
  8  9  1  0  0  0  0
 10  9  1  1  0  0  0
 10 11  1  0  0  0  0
 10 12  1  0  0  0  0
 11 16  1  0  0  0  0
 12 13  1  6  0  0  0
 12 14  1  0  0  0  0
 14 15  1  1  0  0  0
 14 16  1  0  0  0  0
 16 27  1  6  0  0  0
 18 23  2  0  0  0  0
 18 19  1  0  0  0  0
 19 20  2  0  0  0  0
 20 21  1  0  0  0  0
 21 22  2  0  0  0  0
 21 27  1  0  0  0  0
 22 23  1  0  0  0  0
 22 25  1  0  0  0  0
 23 24  1  0  0  0  0
 25 26  2  0  0  0  0
 26 27  1  0  0  0  0
M  END
>  <CHROM.1>
-58.45613207,140.90519813,-175.19867397,-59.09316860,-132.02185594,77.08902916
-115.28837169,10.18763841,-6.13675084,-17.96813705,-0.44686802,-0.67032971
-2.56885417

>  <Name>
ligand

>  <RI>
0

>  <Rbt.Current_Directory>
/home/itssahil/PROJECTS/Mol_Feturizer/New_Systems/rnas/3E5F

>  <Rbt.Executable>
rbdock ($Id: //depot/dev/client3/rdock/2013.1/src/exe/rbdock.cxx#4 $)

>  <Rbt.Library>
libRbt.so (2013.1, Build901 2013/11/27)

>  <Rbt.Parameter_File>
/export/apps/rDock/src/rDock_2013.1_src/data/scripts/dock_solv.prm

>  <Rbt.Receptor>
prm/pocket_docking_7.prm

>  <SCORE>
-11.2119

>  <SCORE.INTER>
-12.9481

>  <SCORE.INTER.CONST>
1

>  <SCORE.INTER.POLAR>
0

>  <SCORE.INTER.ROT>
7

>  <SCORE.INTER.SOLV>
8.93231

>  <SCORE.INTER.VDW>
-19.8762

>  <SCORE.INTER.norm>
-0.479559

>  <SCORE.INTRA>
1.73625

>  <SCORE.INTRA.DIHEDRAL>
1.42829

>  <SCORE.INTRA.DIHEDRAL.0>
4.89803

>  <SCORE.INTRA.POLAR>
0

>  <SCORE.INTRA.POLAR.0>
0

>  <SCORE.INTRA.REPUL>
0

>  <SCORE.INTRA.REPUL.0>
0

>  <SCORE.INTRA.SOLV>
0.633881

>  <SCORE.INTRA.SOLV.lig_0>
-48.5832

>  <SCORE.INTRA.VDW>
0.705163

>  <SCORE.INTRA.VDW.0>
-2.39056

>  <SCORE.INTRA.norm>
0.0643055

>  <SCORE.RESTR>
0

>  <SCORE.RESTR.CAVITY>
0

>  <SCORE.RESTR.norm>
0

>  <SCORE.SYSTEM>
0

>  <SCORE.SYSTEM.CONST>
0

>  <SCORE.SYSTEM.DIHEDRAL>
0

>  <SCORE.SYSTEM.SOLV>
0

>  <SCORE.SYSTEM.norm>
0

>  <SCORE.heavy>
27

>  <SCORE.norm>
-0.415254

>  <RMSD>
7.391

$$$$
ligand
 OpenBabel11021811473D
libRbt.so/2013.1/901 2013/11/27
 27 29  0  0  0  0  0  0  0  0999 V2000
   12.2045   -9.5995  -20.2132 N   0  0  0  0  0  0  0  0  0  0  0  0
   12.4369   -9.4113  -21.6528 C   0  0  2  0  0  0  0  0  0  0  0  0
   11.4657  -10.2812  -22.4568 C   0  0  0  0  0  0  0  0  0  0  0  0
   10.5516  -10.8481  -21.8193 O   0  0  0  0  0  0  0  0  0  0  0  0
   13.8728   -9.8254  -21.9791 C   0  0  0  0  0  0  0  0  0  0  0  0
   14.3239   -9.3056  -23.3464 C   0  0  0  0  0  0  0  0  0  0  0  0
   15.6643   -7.2237  -24.7392 C   0  0  0  0  0  0  0  0  0  0  0  0
   14.4930   -7.4547  -23.3320 Se  0  0  2  0  0  0  0  0  0  0  0  0
   15.5589   -7.0002  -21.8782 C   0  0  0  0  0  0  0  0  0  0  0  0
   15.0539   -5.7803  -21.1065 C   0  0  1  0  0  0  0  0  0  0  0  0
   15.8419   -5.6422  -19.9117 O   0  0  0  0  0  0  0  0  0  0  0  0
   15.3939   -4.5441  -21.9399 C   0  0  1  0  0  0  0  0  0  0  0  0
   14.7795   -3.3919  -21.3609 O   0  0  0  0  0  0  0  0  0  0  0  0
   16.9026   -4.5006  -21.7105 C   0  0  1  0  0  0  0  0  0  0  0  0
   17.3688   -3.1744  -21.9656 O   0  0  0  0  0  0  0  0  0  0  0  0
   16.9399   -4.7594  -20.2038 C   0  0  2  0  0  0  0  0  0  0  0  0
   11.6635  -10.3685  -23.6887 O   0  0  0  0  0  0  0  0  0  0  0  0
   21.8905   -5.6160  -21.3877 N   0  0  0  0  0  0  0  0  0  0  0  0
   20.9639   -4.9974  -22.0992 C   0  0  0  0  0  0  0  0  0  0  0  0
   19.7268   -4.8533  -21.6569 N   0  0  0  0  0  0  0  0  0  0  0  0
   19.3712   -5.3338  -20.4559 C   0  0  0  0  0  0  0  0  0  0  0  0
   20.3163   -5.9909  -19.6807 C   0  0  0  0  0  0  0  0  0  0  0  0
   21.6054   -6.1255  -20.1826 C   0  0  0  0  0  0  0  0  0  0  0  0
   22.5280   -6.7823  -19.4864 N   0  0  0  0  0  0  0  0  0  0  0  0
   19.7222   -6.3672  -18.5538 N   0  0  0  0  0  0  0  0  0  0  0  0
   18.4548   -5.9652  -18.6143 C   0  0  0  0  0  0  0  0  0  0  0  0
   18.2338   -5.3355  -19.7684 N   0  0  0  0  0  0  0  0  0  0  0  0
  2  1  1  1  0  0  0
  2  5  1  0  0  0  0
  2  3  1  0  0  0  0
  3 17  1  0  0  0  0
  3  4  1  0  0  0  0
  5  6  1  0  0  0  0
  7  8  1  0  0  0  0
  8  6  1  1  0  0  0
  8  9  1  0  0  0  0
 10  9  1  6  0  0  0
 10 11  1  0  0  0  0
 10 12  1  0  0  0  0
 11 16  1  0  0  0  0
 12 13  1  1  0  0  0
 12 14  1  0  0  0  0
 14 15  1  1  0  0  0
 14 16  1  0  0  0  0
 16 27  1  6  0  0  0
 18 23  2  0  0  0  0
 18 19  1  0  0  0  0
 19 20  2  0  0  0  0
 20 21  1  0  0  0  0
 21 22  2  0  0  0  0
 21 27  1  0  0  0  0
 22 23  1  0  0  0  0
 22 25  1  0  0  0  0
 23 24  1  0  0  0  0
 25 26  2  0  0  0  0
 26 27  1  0  0  0  0
M  END
>  <CHROM.1>
-164.03981337,9.08018190,68.28730116,157.23751901,-137.82871242,172.05267044
136.24395639,16.15507629,-6.81680232,-21.64262663,-2.78608623,-0.41847268
-0.31368488

>  <Name>
ligand

>  <RI>
0

>  <Rbt.Current_Directory>
/home/itssahil/PROJECTS/Mol_Feturizer/New_Systems/rnas/3E5F

>  <Rbt.Executable>
rbdock ($Id: //depot/dev/client3/rdock/2013.1/src/exe/rbdock.cxx#4 $)

>  <Rbt.Library>
libRbt.so (2013.1, Build901 2013/11/27)

>  <Rbt.Parameter_File>
/export/apps/rDock/src/rDock_2013.1_src/data/scripts/dock_solv.prm

>  <Rbt.Receptor>
prm/pocket_docking_8.prm

>  <SCORE>
-15.7249

>  <SCORE.INTER>
-17.6458

>  <SCORE.INTER.CONST>
1

>  <SCORE.INTER.POLAR>
0

>  <SCORE.INTER.ROT>
7

>  <SCORE.INTER.SOLV>
8.15897

>  <SCORE.INTER.VDW>
-22.7502

>  <SCORE.INTER.norm>
-0.653546

>  <SCORE.INTRA>
1.9209

>  <SCORE.INTRA.DIHEDRAL>
1.91652

>  <SCORE.INTRA.DIHEDRAL.0>
4.89803

>  <SCORE.INTRA.POLAR>
0

>  <SCORE.INTRA.POLAR.0>
0

>  <SCORE.INTRA.REPUL>
0

>  <SCORE.INTRA.REPUL.0>
0

>  <SCORE.INTRA.SOLV>
0.279004

>  <SCORE.INTRA.SOLV.lig_0>
-48.5832

>  <SCORE.INTRA.VDW>
0.823139

>  <SCORE.INTRA.VDW.0>
-2.39056

>  <SCORE.INTRA.norm>
0.0711445

>  <SCORE.RESTR>
0

>  <SCORE.RESTR.CAVITY>
0

>  <SCORE.RESTR.norm>
0

>  <SCORE.SYSTEM>
0

>  <SCORE.SYSTEM.CONST>
0

>  <SCORE.SYSTEM.DIHEDRAL>
0

>  <SCORE.SYSTEM.SOLV>
0

>  <SCORE.SYSTEM.norm>
0

>  <SCORE.heavy>
27

>  <SCORE.norm>
-0.582402

>  <RMSD>
7.401

$$$$
ligand
 OpenBabel11021811473D
libRbt.so/2013.1/901 2013/11/27
 27 29  0  0  0  0  0  0  0  0999 V2000
   12.2284  -11.4589  -22.6612 N   0  0  0  0  0  0  0  0  0  0  0  0
   13.5532  -11.3130  -22.0406 C   0  0  2  0  0  0  0  0  0  0  0  0
   13.5571  -11.9701  -20.6569 C   0  0  0  0  0  0  0  0  0  0  0  0
   14.3249  -12.9434  -20.4937 O   0  0  0  0  0  0  0  0  0  0  0  0
   13.8671   -9.8233  -21.8920 C   0  0  0  0  0  0  0  0  0  0  0  0
   14.2715   -9.1859  -23.2237 C   0  0  0  0  0  0  0  0  0  0  0  0
   15.7707   -7.0552  -24.3563 C   0  0  0  0  0  0  0  0  0  0  0  0
   14.5149   -7.3527  -23.0373 Se  0  0  2  0  0  0  0  0  0  0  0  0
   15.5164   -7.0738  -21.4961 C   0  0  0  0  0  0  0  0  0  0  0  0
   15.9677   -5.6242  -21.3133 C   0  0  1  0  0  0  0  0  0  0  0  0
   15.8879   -5.2979  -19.9151 O   0  0  0  0  0  0  0  0  0  0  0  0
   17.4607   -5.5696  -21.6393 C   0  0  1  0  0  0  0  0  0  0  0  0
   17.8953   -4.2092  -21.6695 O   0  0  0  0  0  0  0  0  0  0  0  0
   18.0092   -6.2640  -20.3953 C   0  0  1  0  0  0  0  0  0  0  0  0
   19.3789   -5.8937  -20.2278 O   0  0  0  0  0  0  0  0  0  0  0  0
   17.1711   -5.5671  -19.3227 C   0  0  2  0  0  0  0  0  0  0  0  0
   12.7864  -11.4918  -19.7958 O   0  0  0  0  0  0  0  0  0  0  0  0
   14.0967   -8.5229  -16.4148 N   0  0  0  0  0  0  0  0  0  0  0  0
   13.8253   -7.9209  -17.5600 C   0  0  0  0  0  0  0  0  0  0  0  0
   14.7265   -7.1911  -18.1940 N   0  0  0  0  0  0  0  0  0  0  0  0
   15.9603   -7.0403  -17.6892 C   0  0  0  0  0  0  0  0  0  0  0  0
   16.2820   -7.6559  -16.4877 C   0  0  0  0  0  0  0  0  0  0  0  0
   15.3057   -8.4119  -15.8497 C   0  0  0  0  0  0  0  0  0  0  0  0
   15.5639   -8.9848  -14.6782 N   0  0  0  0  0  0  0  0  0  0  0  0
   17.5449   -7.3552  -16.2063 N   0  0  0  0  0  0  0  0  0  0  0  0
   18.0020   -6.5818  -17.1883 C   0  0  0  0  0  0  0  0  0  0  0  0
   17.0439   -6.3860  -18.0944 N   0  0  0  0  0  0  0  0  0  0  0  0
  2  1  1  1  0  0  0
  2  5  1  0  0  0  0
  2  3  1  0  0  0  0
  3 17  1  0  0  0  0
  3  4  1  0  0  0  0
  5  6  1  0  0  0  0
  7  8  1  0  0  0  0
  8  6  1  1  0  0  0
  8  9  1  0  0  0  0
 10  9  1  1  0  0  0
 10 11  1  0  0  0  0
 10 12  1  0  0  0  0
 11 16  1  0  0  0  0
 12 13  1  1  0  0  0
 12 14  1  0  0  0  0
 14 15  1  1  0  0  0
 14 16  1  0  0  0  0
 16 27  1  1  0  0  0
 18 23  2  0  0  0  0
 18 19  1  0  0  0  0
 19 20  2  0  0  0  0
 20 21  1  0  0  0  0
 21 22  2  0  0  0  0
 21 27  1  0  0  0  0
 22 23  1  0  0  0  0
 22 25  1  0  0  0  0
 23 24  1  0  0  0  0
 25 26  2  0  0  0  0
 26 27  1  0  0  0  0
M  END
>  <CHROM.1>
-76.22827552,116.70071009,175.50273965,151.22323159,171.84027623,141.87133816
12.91920243,15.42106740,-7.84711782,-20.28686620,2.46545656,-0.93781520,-1.31906607

>  <Name>
ligand

>  <RI>
0

>  <Rbt.Current_Directory>
/home/itssahil/PROJECTS/Mol_Feturizer/New_Systems/rnas/3E5F

>  <Rbt.Executable>
rbdock ($Id: //depot/dev/client3/rdock/2013.1/src/exe/rbdock.cxx#4 $)

>  <Rbt.Library>
libRbt.so (2013.1, Build901 2013/11/27)

>  <Rbt.Parameter_File>
/export/apps/rDock/src/rDock_2013.1_src/data/scripts/dock_solv.prm

>  <Rbt.Receptor>
prm/pocket_docking_4.prm

>  <SCORE>
-12.059

>  <SCORE.INTER>
-14.142

>  <SCORE.INTER.CONST>
1

>  <SCORE.INTER.POLAR>
0

>  <SCORE.INTER.ROT>
7

>  <SCORE.INTER.SOLV>
7.16886

>  <SCORE.INTER.VDW>
-20.0843

>  <SCORE.INTER.norm>
-0.523778

>  <SCORE.INTRA>
2.08303

>  <SCORE.INTRA.DIHEDRAL>
3.28593

>  <SCORE.INTRA.DIHEDRAL.0>
4.89803

>  <SCORE.INTRA.POLAR>
0

>  <SCORE.INTRA.POLAR.0>
0

>  <SCORE.INTRA.REPUL>
0

>  <SCORE.INTRA.REPUL.0>
0

>  <SCORE.INTRA.SOLV>
0.609219

>  <SCORE.INTRA.SOLV.lig_0>
-48.5832

>  <SCORE.INTRA.VDW>
0.13545

>  <SCORE.INTRA.VDW.0>
-2.39056

>  <SCORE.INTRA.norm>
0.0771492

>  <SCORE.RESTR>
0

>  <SCORE.RESTR.CAVITY>
0

>  <SCORE.RESTR.norm>
0

>  <SCORE.SYSTEM>
0

>  <SCORE.SYSTEM.CONST>
0

>  <SCORE.SYSTEM.DIHEDRAL>
0

>  <SCORE.SYSTEM.SOLV>
0

>  <SCORE.SYSTEM.norm>
0

>  <SCORE.heavy>
27

>  <SCORE.norm>
-0.446629

>  <RMSD>
7.406

$$$$
ligand
 OpenBabel11021811473D
libRbt.so/2013.1/901 2013/11/27
 27 29  0  0  0  0  0  0  0  0999 V2000
   11.4129  -11.4154  -22.0571 N   0  0  0  0  0  0  0  0  0  0  0  0
   12.6668  -11.1548  -22.7792 C   0  0  2  0  0  0  0  0  0  0  0  0
   13.7537  -12.1245  -22.3052 C   0  0  0  0  0  0  0  0  0  0  0  0
   14.2352  -12.8986  -23.1611 O   0  0  0  0  0  0  0  0  0  0  0  0
   13.1121   -9.7197  -22.4929 C   0  0  0  0  0  0  0  0  0  0  0  0
   14.2748   -9.2891  -23.3907 C   0  0  0  0  0  0  0  0  0  0  0  0
   15.7802   -7.2401  -24.6579 C   0  0  0  0  0  0  0  0  0  0  0  0
   14.5154   -7.4470  -23.3302 Se  0  0  2  0  0  0  0  0  0  0  0  0
   15.5058   -7.0607  -21.8051 C   0  0  0  0  0  0  0  0  0  0  0  0
   14.9204   -5.9234  -20.9669 C   0  0  1  0  0  0  0  0  0  0  0  0
   15.7020   -5.7968  -19.7666 O   0  0  0  0  0  0  0  0  0  0  0  0
   15.1699   -4.6224  -21.7307 C   0  0  1  0  0  0  0  0  0  0  0  0
   14.4793   -3.5495  -21.0885 O   0  0  0  0  0  0  0  0  0  0  0  0
   16.6729   -4.4865  -21.4998 C   0  0  1  0  0  0  0  0  0  0  0  0
   17.0445   -3.1189  -21.6813 O   0  0  0  0  0  0  0  0  0  0  0  0
   16.7345   -4.8248  -20.0098 C   0  0  2  0  0  0  0  0  0  0  0  0
   14.0728  -12.0778  -21.0968 O   0  0  0  0  0  0  0  0  0  0  0  0
   21.5627   -5.8964  -21.4881 N   0  0  0  0  0  0  0  0  0  0  0  0
   20.5700   -5.3940  -22.2022 C   0  0  0  0  0  0  0  0  0  0  0  0
   19.3775   -5.1717  -21.6776 N   0  0  0  0  0  0  0  0  0  0  0  0
   19.1369   -5.4497  -20.3874 C   0  0  0  0  0  0  0  0  0  0  0  0
   20.1541   -5.9799  -19.6062 C   0  0  0  0  0  0  0  0  0  0  0  0
   21.3929   -6.2028  -20.1956 C   0  0  0  0  0  0  0  0  0  0  0  0
   22.3804   -6.7453  -19.4900 N   0  0  0  0  0  0  0  0  0  0  0  0
   19.6685   -6.1653  -18.3838 N   0  0  0  0  0  0  0  0  0  0  0  0
   18.3978   -5.7693  -18.3921 C   0  0  0  0  0  0  0  0  0  0  0  0
   18.0672   -5.3323  -19.6074 N   0  0  0  0  0  0  0  0  0  0  0  0
  2  1  1  1  0  0  0
  2  5  1  0  0  0  0
  2  3  1  0  0  0  0
  3 17  1  0  0  0  0
  3  4  1  0  0  0  0
  5  6  1  0  0  0  0
  7  8  1  0  0  0  0
  8  6  1  1  0  0  0
  8  9  1  0  0  0  0
 10  9  1  6  0  0  0
 10 11  1  0  0  0  0
 10 12  1  0  0  0  0
 11 16  1  0  0  0  0
 12 13  1  1  0  0  0
 12 14  1  0  0  0  0
 14 15  1  1  0  0  0
 14 16  1  0  0  0  0
 16 27  1  6  0  0  0
 18 23  2  0  0  0  0
 18 19  1  0  0  0  0
 19 20  2  0  0  0  0
 20 21  1  0  0  0  0
 21 22  2  0  0  0  0
 21 27  1  0  0  0  0
 22 23  1  0  0  0  0
 22 25  1  0  0  0  0
 23 24  1  0  0  0  0
 25 26  2  0  0  0  0
 26 27  1  0  0  0  0
M  END
>  <CHROM.1>
-170.22478508,118.53853590,165.85458291,-172.37115158,-131.99354974,175.11322286
122.18884972,16.28855514,-7.15173787,-21.63617873,-2.48445893,-0.37900981
0.00931234

>  <Name>
ligand

>  <RI>
0

>  <Rbt.Current_Directory>
/home/itssahil/PROJECTS/Mol_Feturizer/New_Systems/rnas/3E5F

>  <Rbt.Executable>
rbdock ($Id: //depot/dev/client3/rdock/2013.1/src/exe/rbdock.cxx#4 $)

>  <Rbt.Library>
libRbt.so (2013.1, Build901 2013/11/27)

>  <Rbt.Parameter_File>
/export/apps/rDock/src/rDock_2013.1_src/data/scripts/dock_solv.prm

>  <Rbt.Receptor>
prm/pocket_docking_6.prm

>  <SCORE>
-19.8084

>  <SCORE.INTER>
-21.1643

>  <SCORE.INTER.CONST>
1

>  <SCORE.INTER.POLAR>
0

>  <SCORE.INTER.ROT>
7

>  <SCORE.INTER.SOLV>
8.4393

>  <SCORE.INTER.VDW>
-25.1893

>  <SCORE.INTER.norm>
-0.783863

>  <SCORE.INTRA>
1.35445

>  <SCORE.INTRA.DIHEDRAL>
1.72749

>  <SCORE.INTRA.DIHEDRAL.0>
4.89803

>  <SCORE.INTRA.POLAR>
0

>  <SCORE.INTRA.POLAR.0>
0

>  <SCORE.INTRA.REPUL>
0

>  <SCORE.INTRA.REPUL.0>
0

>  <SCORE.INTRA.SOLV>
0.0568209

>  <SCORE.INTRA.SOLV.lig_0>
-48.5832

>  <SCORE.INTRA.VDW>
0.462294

>  <SCORE.INTRA.VDW.0>
-2.39056

>  <SCORE.INTRA.norm>
0.0501647

>  <SCORE.RESTR>
0.00148707

>  <SCORE.RESTR.CAVITY>
0.00148707

>  <SCORE.RESTR.norm>
5.50765e-05

>  <SCORE.SYSTEM>
0

>  <SCORE.SYSTEM.CONST>
0

>  <SCORE.SYSTEM.DIHEDRAL>
0

>  <SCORE.SYSTEM.SOLV>
0

>  <SCORE.SYSTEM.norm>
0

>  <SCORE.heavy>
27

>  <SCORE.norm>
-0.733643

>  <RMSD>
7.423

$$$$
ligand
 OpenBabel11021811473D
libRbt.so/2013.1/901 2013/11/27
 27 29  0  0  0  0  0  0  0  0999 V2000
   13.9716  -12.4940  -20.5634 N   0  0  0  0  0  0  0  0  0  0  0  0
   13.2799  -11.4827  -19.7506 C   0  0  2  0  0  0  0  0  0  0  0  0
   11.7728  -11.5385  -20.0188 C   0  0  0  0  0  0  0  0  0  0  0  0
   11.0600  -10.6996  -19.4258 O   0  0  0  0  0  0  0  0  0  0  0  0
   13.8084  -10.0984  -20.1306 C   0  0  0  0  0  0  0  0  0  0  0  0
   13.7443   -9.8537  -21.6404 C   0  0  0  0  0  0  0  0  0  0  0  0
   14.7520   -8.3942  -23.8595 C   0  0  0  0  0  0  0  0  0  0  0  0
   14.3792   -8.1598  -22.0674 Se  0  0  2  0  0  0  0  0  0  0  0  0
   16.0856   -8.0023  -21.3467 C   0  0  0  0  0  0  0  0  0  0  0  0
   16.7883   -6.6955  -21.7170 C   0  0  1  0  0  0  0  0  0  0  0  0
   16.0959   -5.6113  -21.0745 O   0  0  0  0  0  0  0  0  0  0  0  0
   18.1675   -6.7196  -21.0571 C   0  0  1  0  0  0  0  0  0  0  0  0
   18.9407   -5.6121  -21.5219 O   0  0  0  0  0  0  0  0  0  0  0  0
   17.7498   -6.4910  -19.6066 C   0  0  1  0  0  0  0  0  0  0  0  0
   18.8691   -5.9798  -18.8806 O   0  0  0  0  0  0  0  0  0  0  0  0
   16.7324   -5.3671  -19.8075 C   0  0  2  0  0  0  0  0  0  0  0  0
   11.3649  -12.4238  -20.8025 O   0  0  0  0  0  0  0  0  0  0  0  0
   15.9797   -4.9279  -14.7197 N   0  0  0  0  0  0  0  0  0  0  0  0
   17.1183   -4.9299  -15.3914 C   0  0  0  0  0  0  0  0  0  0  0  0
   17.1507   -5.0505  -16.7071 N   0  0  0  0  0  0  0  0  0  0  0  0
   16.0141   -5.1727  -17.4094 C   0  0  0  0  0  0  0  0  0  0  0  0
   14.7990   -5.1765  -16.7389 C   0  0  0  0  0  0  0  0  0  0  0  0
   14.8071   -5.0513  -15.3546 C   0  0  0  0  0  0  0  0  0  0  0  0
   13.6659   -5.0895  -14.6738 N   0  0  0  0  0  0  0  0  0  0  0  0
   13.8383   -5.3098  -17.6465 N   0  0  0  0  0  0  0  0  0  0  0  0
   14.4216   -5.3873  -18.8403 C   0  0  0  0  0  0  0  0  0  0  0  0
   15.7452   -5.3043  -18.7043 N   0  0  0  0  0  0  0  0  0  0  0  0
  2  1  1  6  0  0  0
  2  5  1  0  0  0  0
  2  3  1  0  0  0  0
  3 17  1  0  0  0  0
  3  4  1  0  0  0  0
  5  6  1  0  0  0  0
  7  8  1  0  0  0  0
  8  6  1  1  0  0  0
  8  9  1  0  0  0  0
 10  9  1  1  0  0  0
 10 11  1  0  0  0  0
 10 12  1  0  0  0  0
 11 16  1  0  0  0  0
 12 13  1  6  0  0  0
 12 14  1  0  0  0  0
 14 15  1  1  0  0  0
 14 16  1  0  0  0  0
 16 27  1  1  0  0  0
 18 23  2  0  0  0  0
 18 19  1  0  0  0  0
 19 20  2  0  0  0  0
 20 21  1  0  0  0  0
 21 22  2  0  0  0  0
 21 27  1  0  0  0  0
 22 23  1  0  0  0  0
 22 25  1  0  0  0  0
 23 24  1  0  0  0  0
 25 26  2  0  0  0  0
 26 27  1  0  0  0  0
M  END
>  <CHROM.1>
52.30100874,-177.67746494,179.51239841,160.40166127,175.17876991,67.63676595
175.72564730,15.09610933,-7.47483466,-19.73582507,2.18249135,-0.72330795
-2.05002671

>  <Name>
ligand

>  <RI>
0

>  <Rbt.Current_Directory>
/home/itssahil/PROJECTS/Mol_Feturizer/New_Systems/rnas/3E5F

>  <Rbt.Executable>
rbdock ($Id: //depot/dev/client3/rdock/2013.1/src/exe/rbdock.cxx#4 $)

>  <Rbt.Library>
libRbt.so (2013.1, Build901 2013/11/27)

>  <Rbt.Parameter_File>
/export/apps/rDock/src/rDock_2013.1_src/data/scripts/dock_solv.prm

>  <Rbt.Receptor>
prm/pocket_docking_4.prm

>  <SCORE>
-9.53954

>  <SCORE.INTER>
-10.2362

>  <SCORE.INTER.CONST>
1

>  <SCORE.INTER.POLAR>
0

>  <SCORE.INTER.ROT>
7

>  <SCORE.INTER.SOLV>
14.1076

>  <SCORE.INTER.VDW>
-19.7933

>  <SCORE.INTER.norm>
-0.37912

>  <SCORE.INTRA>
0.69669

>  <SCORE.INTRA.DIHEDRAL>
-1.24637

>  <SCORE.INTRA.DIHEDRAL.0>
4.89803

>  <SCORE.INTRA.POLAR>
0

>  <SCORE.INTRA.POLAR.0>
0

>  <SCORE.INTRA.REPUL>
0

>  <SCORE.INTRA.REPUL.0>
0

>  <SCORE.INTRA.SOLV>
0.905214

>  <SCORE.INTRA.SOLV.lig_0>
-48.5832

>  <SCORE.INTRA.VDW>
0.867269

>  <SCORE.INTRA.VDW.0>
-2.39056

>  <SCORE.INTRA.norm>
0.0258033

>  <SCORE.RESTR>
0

>  <SCORE.RESTR.CAVITY>
0

>  <SCORE.RESTR.norm>
0

>  <SCORE.SYSTEM>
0

>  <SCORE.SYSTEM.CONST>
0

>  <SCORE.SYSTEM.DIHEDRAL>
0

>  <SCORE.SYSTEM.SOLV>
0

>  <SCORE.SYSTEM.norm>
0

>  <SCORE.heavy>
27

>  <SCORE.norm>
-0.353316

>  <RMSD>
7.426

$$$$
ligand
 OpenBabel11021811473D
libRbt.so/2013.1/901 2013/11/27
 27 29  0  0  0  0  0  0  0  0999 V2000
   14.8446   -7.5638  -22.9452 N   0  0  0  0  0  0  0  0  0  0  0  0
   15.2143   -8.3024  -24.1617 C   0  0  2  0  0  0  0  0  0  0  0  0
   15.6008   -7.3203  -25.2718 C   0  0  0  0  0  0  0  0  0  0  0  0
   16.1947   -7.7931  -26.2654 O   0  0  0  0  0  0  0  0  0  0  0  0
   14.0136   -9.1326  -24.6188 C   0  0  0  0  0  0  0  0  0  0  0  0
   13.7834  -10.3517  -23.7220 C   0  0  0  0  0  0  0  0  0  0  0  0
   12.7357  -11.2002  -21.2214 C   0  0  0  0  0  0  0  0  0  0  0  0
   12.2893  -10.1113  -22.6429 Se  0  0  2  0  0  0  0  0  0  0  0  0
   10.8844  -11.0554  -23.4118 C   0  0  0  0  0  0  0  0  0  0  0  0
   11.2735  -12.4583  -23.8799 C   0  0  1  0  0  0  0  0  0  0  0  0
   11.1466  -13.3588  -22.7661 O   0  0  0  0  0  0  0  0  0  0  0  0
   10.2050  -12.9175  -24.8729 C   0  0  1  0  0  0  0  0  0  0  0  0
   10.6145  -14.1409  -25.4860 O   0  0  0  0  0  0  0  0  0  0  0  0
    9.0605  -13.1812  -23.8977 C   0  0  1  0  0  0  0  0  0  0  0  0
    8.1329  -14.0796  -24.5089 O   0  0  0  0  0  0  0  0  0  0  0  0
    9.8245  -13.9254  -22.8017 C   0  0  2  0  0  0  0  0  0  0  0  0
   15.3033   -6.1178  -25.0992 O   0  0  0  0  0  0  0  0  0  0  0  0
    8.6987  -10.9195  -18.7592 N   0  0  0  0  0  0  0  0  0  0  0  0
    9.3753  -10.6164  -19.8536 C   0  0  0  0  0  0  0  0  0  0  0  0
    9.5826  -11.5024  -20.8122 N   0  0  0  0  0  0  0  0  0  0  0  0
    9.1034  -12.7507  -20.7029 C   0  0  0  0  0  0  0  0  0  0  0  0
    8.3895  -13.1068  -19.5673 C   0  0  0  0  0  0  0  0  0  0  0  0
    8.1961  -12.1478  -18.5800 C   0  0  0  0  0  0  0  0  0  0  0  0
    7.5509  -12.4620  -17.4610 N   0  0  0  0  0  0  0  0  0  0  0  0
    8.0307  -14.3789  -19.6993 N   0  0  0  0  0  0  0  0  0  0  0  0
    8.4984  -14.8089  -20.8688 C   0  0  0  0  0  0  0  0  0  0  0  0
    9.1519  -13.8240  -21.4853 N   0  0  0  0  0  0  0  0  0  0  0  0
  2  1  1  1  0  0  0
  2  5  1  0  0  0  0
  2  3  1  0  0  0  0
  3 17  1  0  0  0  0
  3  4  1  0  0  0  0
  5  6  1  0  0  0  0
  7  8  1  0  0  0  0
  8  6  1  6  0  0  0
  8  9  1  0  0  0  0
 10  9  1  1  0  0  0
 10 11  1  0  0  0  0
 10 12  1  0  0  0  0
 11 16  1  0  0  0  0
 12 13  1  1  0  0  0
 12 14  1  0  0  0  0
 14 15  1  6  0  0  0
 14 16  1  0  0  0  0
 16 27  1  1  0  0  0
 18 23  2  0  0  0  0
 18 19  1  0  0  0  0
 19 20  2  0  0  0  0
 20 21  1  0  0  0  0
 21 22  2  0  0  0  0
 21 27  1  0  0  0  0
 22 23  1  0  0  0  0
 22 25  1  0  0  0  0
 23 24  1  0  0  0  0
 25 26  2  0  0  0  0
 26 27  1  0  0  0  0
M  END
>  <CHROM.1>
-73.88920440,165.76556251,106.99306141,-153.37177531,44.64887300,85.92801641
46.12650280,11.27727369,-11.23712650,-22.53323175,-0.09668688,0.80054129
1.03657791

>  <Name>
ligand

>  <RI>
0

>  <Rbt.Current_Directory>
/home/itssahil/PROJECTS/Mol_Feturizer/New_Systems/rnas/3E5F

>  <Rbt.Executable>
rbdock ($Id: //depot/dev/client3/rdock/2013.1/src/exe/rbdock.cxx#4 $)

>  <Rbt.Library>
libRbt.so (2013.1, Build901 2013/11/27)

>  <Rbt.Parameter_File>
/export/apps/rDock/src/rDock_2013.1_src/data/scripts/dock_solv.prm

>  <Rbt.Receptor>
prm/blind_docking_60.prm

>  <SCORE>
-18.048

>  <SCORE.INTER>
-21.6084

>  <SCORE.INTER.CONST>
1

>  <SCORE.INTER.POLAR>
0

>  <SCORE.INTER.ROT>
7

>  <SCORE.INTER.SOLV>
14.378

>  <SCORE.INTER.VDW>
-27.4649

>  <SCORE.INTER.norm>
-0.800311

>  <SCORE.INTRA>
3.56044

>  <SCORE.INTRA.DIHEDRAL>
7.17718

>  <SCORE.INTRA.DIHEDRAL.0>
4.89803

>  <SCORE.INTRA.POLAR>
0

>  <SCORE.INTRA.POLAR.0>
0

>  <SCORE.INTRA.REPUL>
0

>  <SCORE.INTRA.REPUL.0>
0

>  <SCORE.INTRA.SOLV>
1.1341

>  <SCORE.INTRA.SOLV.lig_0>
-48.5832

>  <SCORE.INTRA.VDW>
-0.5952

>  <SCORE.INTRA.VDW.0>
-2.39056

>  <SCORE.INTRA.norm>
0.131868

>  <SCORE.RESTR>
0

>  <SCORE.RESTR.CAVITY>
0

>  <SCORE.RESTR.norm>
0

>  <SCORE.SYSTEM>
0

>  <SCORE.SYSTEM.CONST>
0

>  <SCORE.SYSTEM.DIHEDRAL>
0

>  <SCORE.SYSTEM.SOLV>
0

>  <SCORE.SYSTEM.norm>
0

>  <SCORE.heavy>
27

>  <SCORE.norm>
-0.668443

>  <RMSD>
7.444

$$$$
ligand
 OpenBabel11021811473D
libRbt.so/2013.1/901 2013/11/27
 27 29  0  0  0  0  0  0  0  0999 V2000
   13.6335  -12.2369  -23.1541 N   0  0  0  0  0  0  0  0  0  0  0  0
   12.5738  -11.3348  -22.6799 C   0  0  2  0  0  0  0  0  0  0  0  0
   11.3937  -11.3565  -23.6561 C   0  0  0  0  0  0  0  0  0  0  0  0
   11.5196  -12.0600  -24.6822 O   0  0  0  0  0  0  0  0  0  0  0  0
   13.1349   -9.9140  -22.5990 C   0  0  0  0  0  0  0  0  0  0  0  0
   13.7311   -9.4552  -23.9323 C   0  0  0  0  0  0  0  0  0  0  0  0
   15.3441   -7.6208  -25.3825 C   0  0  0  0  0  0  0  0  0  0  0  0
   14.3936   -7.7234  -23.8041 Se  0  0  2  0  0  0  0  0  0  0  0  0
   15.7600   -7.7376  -22.5436 C   0  0  0  0  0  0  0  0  0  0  0  0
   16.2075   -6.3410  -22.1102 C   0  0  1  0  0  0  0  0  0  0  0  0
   15.3625   -5.9098  -21.0295 O   0  0  0  0  0  0  0  0  0  0  0  0
   17.5951   -6.4835  -21.4837 C   0  0  1  0  0  0  0  0  0  0  0  0
   18.1430   -5.1885  -21.2326 O   0  0  0  0  0  0  0  0  0  0  0  0
   17.2028   -7.1475  -20.1662 C   0  0  1  0  0  0  0  0  0  0  0  0
   18.2437   -6.9281  -19.2125 O   0  0  0  0  0  0  0  0  0  0  0  0
   15.9970   -6.2839  -19.7936 C   0  0  2  0  0  0  0  0  0  0  0  0
   10.3958  -10.6626  -23.3609 O   0  0  0  0  0  0  0  0  0  0  0  0
   15.3790   -8.7677  -15.3110 N   0  0  0  0  0  0  0  0  0  0  0  0
   16.4713   -8.2114  -15.8059 C   0  0  0  0  0  0  0  0  0  0  0  0
   16.4730   -7.6033  -16.9793 N   0  0  0  0  0  0  0  0  0  0  0  0
   15.3509   -7.5288  -17.7109 C   0  0  0  0  0  0  0  0  0  0  0  0
   14.1845   -8.1027  -17.2251 C   0  0  0  0  0  0  0  0  0  0  0  0
   14.2244   -8.7365  -15.9887 C   0  0  0  0  0  0  0  0  0  0  0  0
   13.1373   -9.3314  -15.5077 N   0  0  0  0  0  0  0  0  0  0  0  0
   13.2291   -7.8970  -18.1247 N   0  0  0  0  0  0  0  0  0  0  0  0
   13.7689   -7.2218  -19.1367 C   0  0  0  0  0  0  0  0  0  0  0  0
   15.0595   -6.9938  -18.8921 N   0  0  0  0  0  0  0  0  0  0  0  0
  2  1  1  6  0  0  0
  2  5  1  0  0  0  0
  2  3  1  0  0  0  0
  3 17  1  0  0  0  0
  3  4  1  0  0  0  0
  5  6  1  0  0  0  0
  7  8  1  0  0  0  0
  8  6  1  6  0  0  0
  8  9  1  0  0  0  0
 10  9  1  1  0  0  0
 10 11  1  0  0  0  0
 10 12  1  0  0  0  0
 11 16  1  0  0  0  0
 12 13  1  1  0  0  0
 12 14  1  0  0  0  0
 14 15  1  1  0  0  0
 14 16  1  0  0  0  0
 16 27  1  1  0  0  0
 18 23  2  0  0  0  0
 18 19  1  0  0  0  0
 19 20  2  0  0  0  0
 20 21  1  0  0  0  0
 21 22  2  0  0  0  0
 21 27  1  0  0  0  0
 22 23  1  0  0  0  0
 22 25  1  0  0  0  0
 23 24  1  0  0  0  0
 25 26  2  0  0  0  0
 26 27  1  0  0  0  0
M  END
>  <CHROM.1>
55.36210104,-2.52881742,179.63359013,168.01309071,-167.82141984,86.65651107
176.28901851,14.68810491,-8.23379344,-21.02377531,2.07795216,-0.75815461
-1.52357302

>  <Name>
ligand

>  <RI>
0

>  <Rbt.Current_Directory>
/home/itssahil/PROJECTS/Mol_Feturizer/New_Systems/rnas/3E5F

>  <Rbt.Executable>
rbdock ($Id: //depot/dev/client3/rdock/2013.1/src/exe/rbdock.cxx#4 $)

>  <Rbt.Library>
libRbt.so (2013.1, Build901 2013/11/27)

>  <Rbt.Parameter_File>
/export/apps/rDock/src/rDock_2013.1_src/data/scripts/dock_solv.prm

>  <Rbt.Receptor>
prm/pocket_docking_8.prm

>  <SCORE>
-9.23371

>  <SCORE.INTER>
-10.8717

>  <SCORE.INTER.CONST>
1

>  <SCORE.INTER.POLAR>
0

>  <SCORE.INTER.ROT>
7

>  <SCORE.INTER.SOLV>
13.3014

>  <SCORE.INTER.VDW>
-19.9483

>  <SCORE.INTER.norm>
-0.402657

>  <SCORE.INTRA>
1.63804

>  <SCORE.INTRA.DIHEDRAL>
0.837563

>  <SCORE.INTRA.DIHEDRAL.0>
4.89803

>  <SCORE.INTRA.POLAR>
0

>  <SCORE.INTRA.POLAR.0>
0

>  <SCORE.INTRA.REPUL>
0

>  <SCORE.INTRA.REPUL.0>
0

>  <SCORE.INTRA.SOLV>
0.837577

>  <SCORE.INTRA.SOLV.lig_0>
-48.5832

>  <SCORE.INTRA.VDW>
0.800467

>  <SCORE.INTRA.VDW.0>
-2.39056

>  <SCORE.INTRA.norm>
0.060668

>  <SCORE.RESTR>
0

>  <SCORE.RESTR.CAVITY>
0

>  <SCORE.RESTR.norm>
0

>  <SCORE.SYSTEM>
0

>  <SCORE.SYSTEM.CONST>
0

>  <SCORE.SYSTEM.DIHEDRAL>
0

>  <SCORE.SYSTEM.SOLV>
0

>  <SCORE.SYSTEM.norm>
0

>  <SCORE.heavy>
27

>  <SCORE.norm>
-0.341989

>  <RMSD>
7.447

$$$$
ligand
 OpenBabel11021811473D
libRbt.so/2013.1/901 2013/11/27
 27 29  0  0  0  0  0  0  0  0999 V2000
   14.4957   -8.0533  -22.8350 N   0  0  0  0  0  0  0  0  0  0  0  0
   15.1006   -8.4666  -24.1097 C   0  0  2  0  0  0  0  0  0  0  0  0
   15.7758   -7.2667  -24.7809 C   0  0  0  0  0  0  0  0  0  0  0  0
   15.7223   -6.1741  -24.1752 O   0  0  0  0  0  0  0  0  0  0  0  0
   14.0004   -9.0038  -25.0267 C   0  0  0  0  0  0  0  0  0  0  0  0
   13.4486  -10.3451  -24.5371 C   0  0  0  0  0  0  0  0  0  0  0  0
   13.2288  -11.0806  -21.8019 C   0  0  0  0  0  0  0  0  0  0  0  0
   12.3195  -10.1082  -23.0798 Se  0  0  2  0  0  0  0  0  0  0  0  0
   10.8163  -11.1663  -23.3571 C   0  0  0  0  0  0  0  0  0  0  0  0
   11.1452  -12.5939  -23.7957 C   0  0  1  0  0  0  0  0  0  0  0  0
   11.0048  -13.4611  -22.6573 O   0  0  0  0  0  0  0  0  0  0  0  0
   10.0434  -13.0375  -24.7588 C   0  0  1  0  0  0  0  0  0  0  0  0
   10.3968  -14.2902  -25.3472 O   0  0  0  0  0  0  0  0  0  0  0  0
    8.9072  -13.2341  -23.7584 C   0  0  1  0  0  0  0  0  0  0  0  0
    7.9366  -14.1122  -24.3311 O   0  0  0  0  0  0  0  0  0  0  0  0
    9.6624  -13.9787  -22.6566 C   0  0  2  0  0  0  0  0  0  0  0  0
   16.3222   -7.4650  -25.8883 O   0  0  0  0  0  0  0  0  0  0  0  0
    8.7298  -10.8377  -18.6680 N   0  0  0  0  0  0  0  0  0  0  0  0
    9.3995  -10.5878  -19.7801 C   0  0  0  0  0  0  0  0  0  0  0  0
    9.5539  -11.5031  -20.7208 N   0  0  0  0  0  0  0  0  0  0  0  0
    9.0259  -12.7278  -20.5746 C   0  0  0  0  0  0  0  0  0  0  0  0
    8.3175  -13.0281  -19.4196 C   0  0  0  0  0  0  0  0  0  0  0  0
    8.1805  -12.0397  -18.4520 C   0  0  0  0  0  0  0  0  0  0  0  0
    7.5422  -12.3013  -17.3156 N   0  0  0  0  0  0  0  0  0  0  0  0
    7.9047  -14.2869  -19.5158 N   0  0  0  0  0  0  0  0  0  0  0  0
    8.3344  -14.7625  -20.6823 C   0  0  0  0  0  0  0  0  0  0  0  0
    9.0171  -13.8197  -21.3323 N   0  0  0  0  0  0  0  0  0  0  0  0
  2  1  1  1  0  0  0
  2  5  1  0  0  0  0
  2  3  1  0  0  0  0
  3 17  1  0  0  0  0
  3  4  1  0  0  0  0
  5  6  1  0  0  0  0
  7  8  1  0  0  0  0
  8  6  1  6  0  0  0
  8  9  1  0  0  0  0
 10  9  1  1  0  0  0
 10 11  1  0  0  0  0
 10 12  1  0  0  0  0
 11 16  1  0  0  0  0
 12 13  1  1  0  0  0
 12 14  1  0  0  0  0
 14 15  1  6  0  0  0
 14 16  1  0  0  0  0
 16 27  1  1  0  0  0
 18 23  2  0  0  0  0
 18 19  1  0  0  0  0
 19 20  2  0  0  0  0
 20 21  1  0  0  0  0
 21 22  2  0  0  0  0
 21 27  1  0  0  0  0
 22 23  1  0  0  0  0
 22 25  1  0  0  0  0
 23 24  1  0  0  0  0
 25 26  2  0  0  0  0
 26 27  1  0  0  0  0
M  END
>  <CHROM.1>
-69.98782018,0.36497021,75.80839150,-118.77720490,47.05564322,101.81277550
45.86100999,11.24129269,-11.24333155,-22.53393388,-0.08709710,0.78388981
1.03485091

>  <Name>
ligand

>  <RI>
0

>  <Rbt.Current_Directory>
/home/itssahil/PROJECTS/Mol_Feturizer/New_Systems/rnas/3E5F

>  <Rbt.Executable>
rbdock ($Id: //depot/dev/client3/rdock/2013.1/src/exe/rbdock.cxx#4 $)

>  <Rbt.Library>
libRbt.so (2013.1, Build901 2013/11/27)

>  <Rbt.Parameter_File>
/export/apps/rDock/src/rDock_2013.1_src/data/scripts/dock_solv.prm

>  <Rbt.Receptor>
prm/blind_docking_60.prm

>  <SCORE>
-17.7467

>  <SCORE.INTER>
-21.1736

>  <SCORE.INTER.CONST>
1

>  <SCORE.INTER.POLAR>
0

>  <SCORE.INTER.ROT>
7

>  <SCORE.INTER.SOLV>
13.9844

>  <SCORE.INTER.VDW>
-27.0439

>  <SCORE.INTER.norm>
-0.784206

>  <SCORE.INTRA>
3.42686

>  <SCORE.INTRA.DIHEDRAL>
5.52487

>  <SCORE.INTRA.DIHEDRAL.0>
4.89803

>  <SCORE.INTRA.POLAR>
0

>  <SCORE.INTRA.POLAR.0>
0

>  <SCORE.INTRA.REPUL>
0

>  <SCORE.INTRA.REPUL.0>
0

>  <SCORE.INTRA.SOLV>
2.28344

>  <SCORE.INTRA.SOLV.lig_0>
-48.5832

>  <SCORE.INTRA.VDW>
-0.477293

>  <SCORE.INTRA.VDW.0>
-2.39056

>  <SCORE.INTRA.norm>
0.126921

>  <SCORE.RESTR>
0

>  <SCORE.RESTR.CAVITY>
0

>  <SCORE.RESTR.norm>
0

>  <SCORE.SYSTEM>
0

>  <SCORE.SYSTEM.CONST>
0

>  <SCORE.SYSTEM.DIHEDRAL>
0

>  <SCORE.SYSTEM.SOLV>
0

>  <SCORE.SYSTEM.norm>
0

>  <SCORE.heavy>
27

>  <SCORE.norm>
-0.657285

>  <RMSD>
7.461

$$$$
ligand
 OpenBabel11021811473D
libRbt.so/2013.1/901 2013/11/27
 27 29  0  0  0  0  0  0  0  0999 V2000
   10.5380  -12.2505  -21.5947 N   0  0  0  0  0  0  0  0  0  0  0  0
   10.9787  -12.0154  -22.9776 C   0  0  2  0  0  0  0  0  0  0  0  0
   10.0389  -12.7294  -23.9539 C   0  0  0  0  0  0  0  0  0  0  0  0
   10.3854  -12.7594  -25.1550 O   0  0  0  0  0  0  0  0  0  0  0  0
   12.3948  -12.5692  -23.1450 C   0  0  0  0  0  0  0  0  0  0  0  0
   13.3958  -11.8769  -22.2165 C   0  0  0  0  0  0  0  0  0  0  0  0
   13.8063   -9.8320  -24.1452 C   0  0  0  0  0  0  0  0  0  0  0  0
   13.2909  -10.0288  -22.3842 Se  0  0  2  0  0  0  0  0  0  0  0  0
   14.7454   -9.3006  -21.4840 C   0  0  0  0  0  0  0  0  0  0  0  0
   15.0218   -7.8411  -21.8472 C   0  0  1  0  0  0  0  0  0  0  0  0
   13.7988   -7.0988  -21.7019 O   0  0  0  0  0  0  0  0  0  0  0  0
   15.9492   -7.2741  -20.7717 C   0  0  1  0  0  0  0  0  0  0  0  0
   16.3930   -5.9727  -21.1589 O   0  0  0  0  0  0  0  0  0  0  0  0
   14.9520   -7.1633  -19.6210 C   0  0  1  0  0  0  0  0  0  0  0  0
   15.4423   -6.2090  -18.6775 O   0  0  0  0  0  0  0  0  0  0  0  0
   13.7641   -6.5571  -20.3694 C   0  0  2  0  0  0  0  0  0  0  0  0
    8.9907  -13.2211  -23.4808 O   0  0  0  0  0  0  0  0  0  0  0  0
   10.8770  -10.0551  -17.9050 N   0  0  0  0  0  0  0  0  0  0  0  0
   12.0997  -10.1843  -18.3909 C   0  0  0  0  0  0  0  0  0  0  0  0
   12.7155   -9.1871  -19.0016 N   0  0  0  0  0  0  0  0  0  0  0  0
   12.1116   -7.9978  -19.1453 C   0  0  0  0  0  0  0  0  0  0  0  0
   10.8270   -7.8245  -18.6497 C   0  0  0  0  0  0  0  0  0  0  0  0
   10.2117   -8.8984  -18.0173 C   0  0  0  0  0  0  0  0  0  0  0  0
    8.9673   -8.7830  -17.5638 N   0  0  0  0  0  0  0  0  0  0  0  0
   10.4569   -6.5770  -18.9165 N   0  0  0  0  0  0  0  0  0  0  0  0
   11.4650   -5.9868  -19.5543 C   0  0  0  0  0  0  0  0  0  0  0  0
   12.4754   -6.8447  -19.6970 N   0  0  0  0  0  0  0  0  0  0  0  0
  2  1  1  1  0  0  0
  2  5  1  0  0  0  0
  2  3  1  0  0  0  0
  3 17  1  0  0  0  0
  3  4  1  0  0  0  0
  5  6  1  0  0  0  0
  7  8  1  0  0  0  0
  8  6  1  1  0  0  0
  8  9  1  0  0  0  0
 10  9  1  1  0  0  0
 10 11  1  0  0  0  0
 10 12  1  0  0  0  0
 11 16  1  0  0  0  0
 12 13  1  6  0  0  0
 12 14  1  0  0  0  0
 14 15  1  1  0  0  0
 14 16  1  0  0  0  0
 16 27  1  1  0  0  0
 18 23  2  0  0  0  0
 18 19  1  0  0  0  0
 19 20  2  0  0  0  0
 20 21  1  0  0  0  0
 21 22  2  0  0  0  0
 21 27  1  0  0  0  0
 22 23  1  0  0  0  0
 22 25  1  0  0  0  0
 23 24  1  0  0  0  0
 25 26  2  0  0  0  0
 26 27  1  0  0  0  0
M  END
>  <CHROM.1>
-61.16279716,-171.20121659,-51.67732965,-63.43018819,163.91263616,51.59446269
78.05717729,12.60626080,-9.29673388,-21.09793165,2.03293249,-0.52261677,-2.28394371

>  <Name>
ligand

>  <RI>
0

>  <Rbt.Current_Directory>
/home/itssahil/PROJECTS/Mol_Feturizer/New_Systems/rnas/3E5F

>  <Rbt.Executable>
rbdock ($Id: //depot/dev/client3/rdock/2013.1/src/exe/rbdock.cxx#4 $)

>  <Rbt.Library>
libRbt.so (2013.1, Build901 2013/11/27)

>  <Rbt.Parameter_File>
/export/apps/rDock/src/rDock_2013.1_src/data/scripts/dock_solv.prm

>  <Rbt.Receptor>
prm/pocket_docking_7.prm

>  <SCORE>
-12.408

>  <SCORE.INTER>
-12.2009

>  <SCORE.INTER.CONST>
1

>  <SCORE.INTER.POLAR>
0

>  <SCORE.INTER.ROT>
7

>  <SCORE.INTER.SOLV>
6.96345

>  <SCORE.INTER.VDW>
-18.7218

>  <SCORE.INTER.norm>
-0.451886

>  <SCORE.INTRA>
-0.2071

>  <SCORE.INTRA.DIHEDRAL>
-1.36526

>  <SCORE.INTRA.DIHEDRAL.0>
4.89803

>  <SCORE.INTRA.POLAR>
0

>  <SCORE.INTRA.POLAR.0>
0

>  <SCORE.INTRA.REPUL>
0

>  <SCORE.INTRA.REPUL.0>
0

>  <SCORE.INTRA.SOLV>
1.00124

>  <SCORE.INTRA.SOLV.lig_0>
-48.5832

>  <SCORE.INTRA.VDW>
-0.0250898

>  <SCORE.INTRA.VDW.0>
-2.39056

>  <SCORE.INTRA.norm>
-0.00767036

>  <SCORE.RESTR>
0

>  <SCORE.RESTR.CAVITY>
0

>  <SCORE.RESTR.norm>
0

>  <SCORE.SYSTEM>
0

>  <SCORE.SYSTEM.CONST>
0

>  <SCORE.SYSTEM.DIHEDRAL>
0

>  <SCORE.SYSTEM.SOLV>
0

>  <SCORE.SYSTEM.norm>
0

>  <SCORE.heavy>
27

>  <SCORE.norm>
-0.459556

>  <RMSD>
7.510

$$$$
ligand
 OpenBabel11021811473D
libRbt.so/2013.1/901 2013/11/27
 27 29  0  0  0  0  0  0  0  0999 V2000
    7.6016   -9.0630  -16.6009 N   0  0  0  0  0  0  0  0  0  0  0  0
    7.4110   -9.4384  -18.0097 C   0  0  2  0  0  0  0  0  0  0  0  0
    6.1100  -10.2312  -18.1676 C   0  0  0  0  0  0  0  0  0  0  0  0
    5.4903  -10.0948  -19.2450 O   0  0  0  0  0  0  0  0  0  0  0  0
    8.5886  -10.3089  -18.4519 C   0  0  0  0  0  0  0  0  0  0  0  0
    9.9089   -9.5342  -18.4479 C   0  0  0  0  0  0  0  0  0  0  0  0
   12.6065   -9.3650  -19.3223 C   0  0  0  0  0  0  0  0  0  0  0  0
   11.3280  -10.6353  -18.9259 Se  0  0  2  0  0  0  0  0  0  0  0  0
   10.9557  -11.3309  -20.6092 C   0  0  0  0  0  0  0  0  0  0  0  0
   12.1768  -11.9310  -21.3073 C   0  0  1  0  0  0  0  0  0  0  0  0
   11.7333  -13.0107  -22.1471 O   0  0  0  0  0  0  0  0  0  0  0  0
   12.7068  -10.8765  -22.2796 C   0  0  1  0  0  0  0  0  0  0  0  0
   13.9562  -11.3085  -22.8209 O   0  0  0  0  0  0  0  0  0  0  0  0
   11.6198  -10.9593  -23.3483 C   0  0  1  0  0  0  0  0  0  0  0  0
   12.1410  -10.4465  -24.5757 O   0  0  0  0  0  0  0  0  0  0  0  0
   11.4869  -12.4786  -23.4610 C   0  0  2  0  0  0  0  0  0  0  0  0
    5.7583  -10.9485  -17.2053 O   0  0  0  0  0  0  0  0  0  0  0  0
    8.6757  -13.7729  -27.5921 N   0  0  0  0  0  0  0  0  0  0  0  0
    9.9577  -13.4567  -27.5287 C   0  0  0  0  0  0  0  0  0  0  0  0
   10.5429  -13.1464  -26.3851 N   0  0  0  0  0  0  0  0  0  0  0  0
    9.8449  -13.1463  -25.2393 C   0  0  0  0  0  0  0  0  0  0  0  0
    8.4959  -13.4713  -25.2663 C   0  0  0  0  0  0  0  0  0  0  0  0
    7.9163  -13.7881  -26.4892 C   0  0  0  0  0  0  0  0  0  0  0  0
    6.6185  -14.0670  -26.5609 N   0  0  0  0  0  0  0  0  0  0  0  0
    8.0387  -13.3975  -24.0213 N   0  0  0  0  0  0  0  0  0  0  0  0
    9.0556  -13.0405  -23.2404 C   0  0  0  0  0  0  0  0  0  0  0  0
   10.1580  -12.8861  -23.9742 N   0  0  0  0  0  0  0  0  0  0  0  0
  2  1  1  1  0  0  0
  2  5  1  0  0  0  0
  2  3  1  0  0  0  0
  3 17  1  0  0  0  0
  3  4  1  0  0  0  0
  5  6  1  0  0  0  0
  7  8  1  0  0  0  0
  8  6  1  6  0  0  0
  8  9  1  0  0  0  0
 10  9  1  6  0  0  0
 10 11  1  0  0  0  0
 10 12  1  0  0  0  0
 11 16  1  0  0  0  0
 12 13  1  6  0  0  0
 12 14  1  0  0  0  0
 14 15  1  6  0  0  0
 14 16  1  0  0  0  0
 16 27  1  1  0  0  0
 18 23  2  0  0  0  0
 18 19  1  0  0  0  0
 19 20  2  0  0  0  0
 20 21  1  0  0  0  0
 21 22  2  0  0  0  0
 21 27  1  0  0  0  0
 22 23  1  0  0  0  0
 22 25  1  0  0  0  0
 23 24  1  0  0  0  0
 25 26  2  0  0  0  0
 26 27  1  0  0  0  0
M  END
>  <CHROM.1>
-65.45219171,147.58687783,177.80933135,163.71130770,163.74199117,148.99128398
-145.81073784,9.93428262,-11.50612483,-21.68980336,1.64185963,0.11571107
1.17444724

>  <Name>
ligand

>  <RI>
0

>  <Rbt.Current_Directory>
/home/itssahil/PROJECTS/Mol_Feturizer/New_Systems/rnas/3E5F

>  <Rbt.Executable>
rbdock ($Id: //depot/dev/client3/rdock/2013.1/src/exe/rbdock.cxx#4 $)

>  <Rbt.Library>
libRbt.so (2013.1, Build901 2013/11/27)

>  <Rbt.Parameter_File>
/export/apps/rDock/src/rDock_2013.1_src/data/scripts/dock_solv.prm

>  <Rbt.Receptor>
prm/pocket_docking_8.prm

>  <SCORE>
-15.4479

>  <SCORE.INTER>
-16.6917

>  <SCORE.INTER.CONST>
1

>  <SCORE.INTER.POLAR>
0

>  <SCORE.INTER.ROT>
7

>  <SCORE.INTER.SOLV>
10.2603

>  <SCORE.INTER.VDW>
-22.8146

>  <SCORE.INTER.norm>
-0.618212

>  <SCORE.INTRA>
1.23462

>  <SCORE.INTRA.DIHEDRAL>
1.0116

>  <SCORE.INTRA.DIHEDRAL.0>
4.89803

>  <SCORE.INTRA.POLAR>
0

>  <SCORE.INTRA.POLAR.0>
0

>  <SCORE.INTRA.REPUL>
0

>  <SCORE.INTRA.REPUL.0>
0

>  <SCORE.INTRA.SOLV>
0.701172

>  <SCORE.INTRA.SOLV.lig_0>
-48.5832

>  <SCORE.INTRA.VDW>
0.378234

>  <SCORE.INTRA.VDW.0>
-2.39056

>  <SCORE.INTRA.norm>
0.0457267

>  <SCORE.RESTR>
0.00921179

>  <SCORE.RESTR.CAVITY>
0.00921179

>  <SCORE.RESTR.norm>
0.000341177

>  <SCORE.SYSTEM>
0

>  <SCORE.SYSTEM.CONST>
0

>  <SCORE.SYSTEM.DIHEDRAL>
0

>  <SCORE.SYSTEM.SOLV>
0

>  <SCORE.SYSTEM.norm>
0

>  <SCORE.heavy>
27

>  <SCORE.norm>
-0.572144

>  <RMSD>
7.512

$$$$
ligand
 OpenBabel11021811473D
libRbt.so/2013.1/901 2013/11/27
 27 29  0  0  0  0  0  0  0  0999 V2000
   13.1993  -12.1239  -22.4988 N   0  0  0  0  0  0  0  0  0  0  0  0
   12.1524  -11.1000  -22.3661 C   0  0  2  0  0  0  0  0  0  0  0  0
   11.1542  -11.2208  -23.5217 C   0  0  0  0  0  0  0  0  0  0  0  0
   10.0286  -10.7024  -23.3549 O   0  0  0  0  0  0  0  0  0  0  0  0
   12.8063   -9.7178  -22.4073 C   0  0  0  0  0  0  0  0  0  0  0  0
   13.6662   -9.5262  -23.6592 C   0  0  0  0  0  0  0  0  0  0  0  0
   15.3770   -7.9222  -25.2625 C   0  0  0  0  0  0  0  0  0  0  0  0
   14.2985   -7.7820  -23.7716 Se  0  0  2  0  0  0  0  0  0  0  0  0
   15.5545   -7.5527  -22.4203 C   0  0  0  0  0  0  0  0  0  0  0  0
   16.4864   -6.3615  -22.6465 C   0  0  1  0  0  0  0  0  0  0  0  0
   15.7542   -5.1550  -22.3712 O   0  0  0  0  0  0  0  0  0  0  0  0
   17.5639   -6.4166  -21.5628 C   0  0  1  0  0  0  0  0  0  0  0  0
   18.5695   -5.4398  -21.8366 O   0  0  0  0  0  0  0  0  0  0  0  0
   16.7274   -5.9807  -20.3624 C   0  0  1  0  0  0  0  0  0  0  0  0
   17.6017   -5.4772  -19.3508 O   0  0  0  0  0  0  0  0  0  0  0  0
   15.9685   -4.8110  -20.9907 C   0  0  2  0  0  0  0  0  0  0  0  0
   11.5340  -11.8363  -24.5421 O   0  0  0  0  0  0  0  0  0  0  0  0
   13.4101   -4.8644  -16.5077 N   0  0  0  0  0  0  0  0  0  0  0  0
   14.6640   -5.2060  -16.7499 C   0  0  0  0  0  0  0  0  0  0  0  0
   15.1831   -5.1362  -17.9633 N   0  0  0  0  0  0  0  0  0  0  0  0
   14.4443   -4.7079  -18.9980 C   0  0  0  0  0  0  0  0  0  0  0  0
   13.1229   -4.3421  -18.7831 C   0  0  0  0  0  0  0  0  0  0  0  0
   12.6128   -4.4333  -17.4934 C   0  0  0  0  0  0  0  0  0  0  0  0
   11.3409   -4.1287  -17.2551 N   0  0  0  0  0  0  0  0  0  0  0  0
   12.6152   -3.9615  -19.9501 N   0  0  0  0  0  0  0  0  0  0  0  0
   13.5751   -4.0821  -20.8642 C   0  0  0  0  0  0  0  0  0  0  0  0
   14.6909   -4.5353  -20.2925 N   0  0  0  0  0  0  0  0  0  0  0  0
  2  1  1  6  0  0  0
  2  5  1  0  0  0  0
  2  3  1  0  0  0  0
  3 17  1  0  0  0  0
  3  4  1  0  0  0  0
  5  6  1  0  0  0  0
  7  8  1  0  0  0  0
  8  6  1  1  0  0  0
  8  9  1  0  0  0  0
 10  9  1  1  0  0  0
 10 11  1  0  0  0  0
 10 12  1  0  0  0  0
 11 16  1  0  0  0  0
 12 13  1  6  0  0  0
 12 14  1  0  0  0  0
 14 15  1  1  0  0  0
 14 16  1  0  0  0  0
 16 27  1  1  0  0  0
 18 23  2  0  0  0  0
 18 19  1  0  0  0  0
 19 20  2  0  0  0  0
 20 21  1  0  0  0  0
 21 22  2  0  0  0  0
 21 27  1  0  0  0  0
 22 23  1  0  0  0  0
 22 25  1  0  0  0  0
 23 24  1  0  0  0  0
 25 26  2  0  0  0  0
 26 27  1  0  0  0  0
M  END
>  <CHROM.1>
54.65534460,159.93547790,173.96293633,175.55714354,161.07817515,74.84257590
151.51168354,14.25903170,-7.02895404,-21.51362539,1.86141562,-0.47947908
-2.27335870

>  <Name>
ligand

>  <RI>
0

>  <Rbt.Current_Directory>
/home/itssahil/PROJECTS/Mol_Feturizer/New_Systems/rnas/3E5F

>  <Rbt.Executable>
rbdock ($Id: //depot/dev/client3/rdock/2013.1/src/exe/rbdock.cxx#4 $)

>  <Rbt.Library>
libRbt.so (2013.1, Build901 2013/11/27)

>  <Rbt.Parameter_File>
/export/apps/rDock/src/rDock_2013.1_src/data/scripts/dock_solv.prm

>  <Rbt.Receptor>
prm/pocket_docking_7.prm

>  <SCORE>
-13.014

>  <SCORE.INTER>
-14.2332

>  <SCORE.INTER.CONST>
1

>  <SCORE.INTER.POLAR>
0

>  <SCORE.INTER.ROT>
7

>  <SCORE.INTER.SOLV>
12.373

>  <SCORE.INTER.VDW>
-21.8798

>  <SCORE.INTER.norm>
-0.527154

>  <SCORE.INTRA>
1.21914

>  <SCORE.INTRA.DIHEDRAL>
-0.700074

>  <SCORE.INTRA.DIHEDRAL.0>
4.89803

>  <SCORE.INTRA.POLAR>
0

>  <SCORE.INTRA.POLAR.0>
0

>  <SCORE.INTRA.REPUL>
0

>  <SCORE.INTRA.REPUL.0>
0

>  <SCORE.INTRA.SOLV>
0.906772

>  <SCORE.INTRA.SOLV.lig_0>
-48.5832

>  <SCORE.INTRA.VDW>
1.11579

>  <SCORE.INTRA.VDW.0>
-2.39056

>  <SCORE.INTRA.norm>
0.0451534

>  <SCORE.RESTR>
0

>  <SCORE.RESTR.CAVITY>
0

>  <SCORE.RESTR.norm>
0

>  <SCORE.SYSTEM>
0

>  <SCORE.SYSTEM.CONST>
0

>  <SCORE.SYSTEM.DIHEDRAL>
0

>  <SCORE.SYSTEM.SOLV>
0

>  <SCORE.SYSTEM.norm>
0

>  <SCORE.heavy>
27

>  <SCORE.norm>
-0.482001

>  <RMSD>
7.533

$$$$
ligand
 OpenBabel11021811473D
libRbt.so/2013.1/901 2013/11/27
 27 29  0  0  0  0  0  0  0  0999 V2000
    8.1004   -9.3132  -16.0017 N   0  0  0  0  0  0  0  0  0  0  0  0
    8.4665   -9.2509  -17.4243 C   0  0  2  0  0  0  0  0  0  0  0  0
    7.5435  -10.1602  -18.2414 C   0  0  0  0  0  0  0  0  0  0  0  0
    6.6181  -10.7309  -17.6238 O   0  0  0  0  0  0  0  0  0  0  0  0
    9.9117   -9.7262  -17.5831 C   0  0  0  0  0  0  0  0  0  0  0  0
   10.4993   -9.3342  -18.9412 C   0  0  0  0  0  0  0  0  0  0  0  0
   13.1890   -8.6656  -18.3175 C   0  0  0  0  0  0  0  0  0  0  0  0
   12.2214  -10.0047  -19.1398 Se  0  0  2  0  0  0  0  0  0  0  0  0
   12.7087   -9.7807  -20.9198 C   0  0  0  0  0  0  0  0  0  0  0  0
   13.4449  -10.9846  -21.5091 C   0  0  1  0  0  0  0  0  0  0  0  0
   12.8466  -12.1824  -20.9847 O   0  0  0  0  0  0  0  0  0  0  0  0
   13.1329  -11.0189  -23.0056 C   0  0  1  0  0  0  0  0  0  0  0  0
   13.9433  -12.0083  -23.6417 O   0  0  0  0  0  0  0  0  0  0  0  0
   11.6834  -11.4940  -22.9435 C   0  0  1  0  0  0  0  0  0  0  0  0
   11.3357  -12.0760  -24.2011 O   0  0  0  0  0  0  0  0  0  0  0  0
   11.8231  -12.6059  -21.9028 C   0  0  2  0  0  0  0  0  0  0  0  0
    7.7884  -10.2728  -19.4628 O   0  0  0  0  0  0  0  0  0  0  0  0
    7.7085  -15.6982  -21.5119 N   0  0  0  0  0  0  0  0  0  0  0  0
    8.7450  -15.7977  -22.3264 C   0  0  0  0  0  0  0  0  0  0  0  0
    9.7328  -14.9199  -22.3073 N   0  0  0  0  0  0  0  0  0  0  0  0
    9.7142  -13.8903  -21.4473 C   0  0  0  0  0  0  0  0  0  0  0  0
    8.6415  -13.7515  -20.5778 C   0  0  0  0  0  0  0  0  0  0  0  0
    7.6206  -14.6932  -20.6313 C   0  0  0  0  0  0  0  0  0  0  0  0
    6.5583  -14.5723  -19.8412 N   0  0  0  0  0  0  0  0  0  0  0  0
    8.8575  -12.6674  -19.8412 N   0  0  0  0  0  0  0  0  0  0  0  0
   10.0176  -12.1428  -20.2291 C   0  0  0  0  0  0  0  0  0  0  0  0
   10.5449  -12.8814  -21.2057 N   0  0  0  0  0  0  0  0  0  0  0  0
  2  1  1  1  0  0  0
  2  5  1  0  0  0  0
  2  3  1  0  0  0  0
  3 17  1  0  0  0  0
  3  4  1  0  0  0  0
  5  6  1  0  0  0  0
  7  8  1  0  0  0  0
  8  6  1  6  0  0  0
  8  9  1  0  0  0  0
 10  9  1  1  0  0  0
 10 11  1  0  0  0  0
 10 12  1  0  0  0  0
 11 16  1  0  0  0  0
 12 13  1  6  0  0  0
 12 14  1  0  0  0  0
 14 15  1  6  0  0  0
 14 16  1  0  0  0  0
 16 27  1  1  0  0  0
 18 23  2  0  0  0  0
 18 19  1  0  0  0  0
 19 20  2  0  0  0  0
 20 21  1  0  0  0  0
 21 22  2  0  0  0  0
 21 27  1  0  0  0  0
 22 23  1  0  0  0  0
 22 25  1  0  0  0  0
 23 24  1  0  0  0  0
 25 26  2  0  0  0  0
 26 27  1  0  0  0  0
M  END
>  <CHROM.1>
-164.09355465,3.74484200,-176.91302441,-85.54685399,-138.11950551,38.07983168
-139.12632776,10.47389690,-11.54687550,-20.24080898,1.23992132,0.47249834
0.77690257

>  <Name>
ligand

>  <RI>
0

>  <Rbt.Current_Directory>
/home/itssahil/PROJECTS/Mol_Feturizer/New_Systems/rnas/3E5F

>  <Rbt.Executable>
rbdock ($Id: //depot/dev/client3/rdock/2013.1/src/exe/rbdock.cxx#4 $)

>  <Rbt.Library>
libRbt.so (2013.1, Build901 2013/11/27)

>  <Rbt.Parameter_File>
/export/apps/rDock/src/rDock_2013.1_src/data/scripts/dock_solv.prm

>  <Rbt.Receptor>
prm/pocket_docking_7.prm

>  <SCORE>
-10.1792

>  <SCORE.INTER>
-10.8562

>  <SCORE.INTER.CONST>
1

>  <SCORE.INTER.POLAR>
0

>  <SCORE.INTER.ROT>
7

>  <SCORE.INTER.SOLV>
7.26625

>  <SCORE.INTER.VDW>
-17.9262

>  <SCORE.INTER.norm>
-0.402083

>  <SCORE.INTRA>
0.677029

>  <SCORE.INTRA.DIHEDRAL>
2.99832

>  <SCORE.INTRA.DIHEDRAL.0>
4.89803

>  <SCORE.INTRA.POLAR>
0

>  <SCORE.INTRA.POLAR.0>
0

>  <SCORE.INTRA.REPUL>
0

>  <SCORE.INTRA.REPUL.0>
0

>  <SCORE.INTRA.SOLV>
0.0344775

>  <SCORE.INTRA.SOLV.lig_0>
-48.5832

>  <SCORE.INTRA.VDW>
-0.839369

>  <SCORE.INTRA.VDW.0>
-2.39056

>  <SCORE.INTRA.norm>
0.0250751

>  <SCORE.RESTR>
0

>  <SCORE.RESTR.CAVITY>
0

>  <SCORE.RESTR.norm>
0

>  <SCORE.SYSTEM>
0

>  <SCORE.SYSTEM.CONST>
0

>  <SCORE.SYSTEM.DIHEDRAL>
0

>  <SCORE.SYSTEM.SOLV>
0

>  <SCORE.SYSTEM.norm>
0

>  <SCORE.heavy>
27

>  <SCORE.norm>
-0.377008

>  <RMSD>
7.535

$$$$
ligand
 OpenBabel11021811473D
libRbt.so/2013.1/901 2013/11/27
 27 29  0  0  0  0  0  0  0  0999 V2000
   10.8751  -10.7589  -20.1769 N   0  0  0  0  0  0  0  0  0  0  0  0
   11.3813  -10.5330  -21.5387 C   0  0  2  0  0  0  0  0  0  0  0  0
   10.5018  -11.2719  -22.5520 C   0  0  0  0  0  0  0  0  0  0  0  0
   10.2326  -12.4675  -22.3036 O   0  0  0  0  0  0  0  0  0  0  0  0
   12.8116  -11.0677  -21.6285 C   0  0  0  0  0  0  0  0  0  0  0  0
   13.4924  -10.6696  -22.9405 C   0  0  0  0  0  0  0  0  0  0  0  0
   14.7099   -8.6751  -24.5560 C   0  0  0  0  0  0  0  0  0  0  0  0
   13.5569   -8.8210  -23.1225 Se  0  0  2  0  0  0  0  0  0  0  0  0
   14.5992   -8.1569  -21.7337 C   0  0  0  0  0  0  0  0  0  0  0  0
   14.8051   -6.6427  -21.7929 C   0  0  1  0  0  0  0  0  0  0  0  0
   15.0629   -6.1683  -20.4602 O   0  0  0  0  0  0  0  0  0  0  0  0
   16.1083   -6.3918  -22.5524 C   0  0  1  0  0  0  0  0  0  0  0  0
   16.2551   -4.9933  -22.8034 O   0  0  0  0  0  0  0  0  0  0  0  0
   17.1045   -6.8367  -21.4846 C   0  0  1  0  0  0  0  0  0  0  0  0
   18.3717   -6.2367  -21.7590 O   0  0  0  0  0  0  0  0  0  0  0  0
   16.4878   -6.1580  -20.2608 C   0  0  2  0  0  0  0  0  0  0  0  0
   10.1257  -10.6293  -23.5570 O   0  0  0  0  0  0  0  0  0  0  0  0
   17.2271   -5.6831  -15.1742 N   0  0  0  0  0  0  0  0  0  0  0  0
   16.8394   -4.7662  -16.0440 C   0  0  0  0  0  0  0  0  0  0  0  0
   16.6919   -5.0422  -17.3280 N   0  0  0  0  0  0  0  0  0  0  0  0
   16.9310   -6.2781  -17.7922 C   0  0  0  0  0  0  0  0  0  0  0  0
   17.3415   -7.2671  -16.9094 C   0  0  0  0  0  0  0  0  0  0  0  0
   17.4887   -6.9362  -15.5675 C   0  0  0  0  0  0  0  0  0  0  0  0
   17.9172   -7.8462  -14.6983 N   0  0  0  0  0  0  0  0  0  0  0  0
   17.5114   -8.3847  -17.6069 N   0  0  0  0  0  0  0  0  0  0  0  0
   17.2210   -8.1134  -18.8772 C   0  0  0  0  0  0  0  0  0  0  0  0
   16.8667   -6.8338  -18.9977 N   0  0  0  0  0  0  0  0  0  0  0  0
  2  1  1  1  0  0  0
  2  5  1  0  0  0  0
  2  3  1  0  0  0  0
  3 17  1  0  0  0  0
  3  4  1  0  0  0  0
  5  6  1  0  0  0  0
  7  8  1  0  0  0  0
  8  6  1  1  0  0  0
  8  9  1  0  0  0  0
 10  9  1  1  0  0  0
 10 11  1  0  0  0  0
 10 12  1  0  0  0  0
 11 16  1  0  0  0  0
 12 13  1  1  0  0  0
 12 14  1  0  0  0  0
 14 15  1  6  0  0  0
 14 16  1  0  0  0  0
 16 27  1  1  0  0  0
 18 23  2  0  0  0  0
 18 19  1  0  0  0  0
 19 20  2  0  0  0  0
 20 21  1  0  0  0  0
 21 22  2  0  0  0  0
 21 27  1  0  0  0  0
 22 23  1  0  0  0  0
 22 25  1  0  0  0  0
 23 24  1  0  0  0  0
 25 26  2  0  0  0  0
 26 27  1  0  0  0  0
M  END
>  <CHROM.1>
-170.70267052,-48.09696907,59.15378059,168.62634857,176.99379877,154.45296124
-86.75359690,14.84402358,-8.07327096,-20.69823919,2.56433890,-0.74725863
-1.37873280

>  <Name>
ligand

>  <RI>
0

>  <Rbt.Current_Directory>
/home/itssahil/PROJECTS/Mol_Feturizer/New_Systems/rnas/3E5F

>  <Rbt.Executable>
rbdock ($Id: //depot/dev/client3/rdock/2013.1/src/exe/rbdock.cxx#4 $)

>  <Rbt.Library>
libRbt.so (2013.1, Build901 2013/11/27)

>  <Rbt.Parameter_File>
/export/apps/rDock/src/rDock_2013.1_src/data/scripts/dock_solv.prm

>  <Rbt.Receptor>
prm/pocket_docking_4.prm

>  <SCORE>
-11.5376

>  <SCORE.INTER>
-11.8146

>  <SCORE.INTER.CONST>
1

>  <SCORE.INTER.POLAR>
0

>  <SCORE.INTER.ROT>
7

>  <SCORE.INTER.SOLV>
8.09871

>  <SCORE.INTER.VDW>
-18.8426

>  <SCORE.INTER.norm>
-0.437577

>  <SCORE.INTRA>
0.276978

>  <SCORE.INTRA.DIHEDRAL>
0.355856

>  <SCORE.INTRA.DIHEDRAL.0>
4.89803

>  <SCORE.INTRA.POLAR>
0

>  <SCORE.INTRA.POLAR.0>
0

>  <SCORE.INTRA.REPUL>
0

>  <SCORE.INTRA.REPUL.0>
0

>  <SCORE.INTRA.SOLV>
0.0248222

>  <SCORE.INTRA.SOLV.lig_0>
-48.5832

>  <SCORE.INTRA.VDW>
0.0866384

>  <SCORE.INTRA.VDW.0>
-2.39056

>  <SCORE.INTRA.norm>
0.0102584

>  <SCORE.RESTR>
0

>  <SCORE.RESTR.CAVITY>
0

>  <SCORE.RESTR.norm>
0

>  <SCORE.SYSTEM>
0

>  <SCORE.SYSTEM.CONST>
0

>  <SCORE.SYSTEM.DIHEDRAL>
0

>  <SCORE.SYSTEM.SOLV>
0

>  <SCORE.SYSTEM.norm>
0

>  <SCORE.heavy>
27

>  <SCORE.norm>
-0.427319

>  <RMSD>
7.539

$$$$
ligand
 OpenBabel11021811473D
libRbt.so/2013.1/901 2013/11/27
 27 29  0  0  0  0  0  0  0  0999 V2000
   13.5769  -11.8886  -22.2942 N   0  0  0  0  0  0  0  0  0  0  0  0
   12.4630  -10.9289  -22.2864 C   0  0  2  0  0  0  0  0  0  0  0  0
   11.7090  -10.9932  -23.6182 C   0  0  0  0  0  0  0  0  0  0  0  0
   12.3919  -11.1869  -24.6475 O   0  0  0  0  0  0  0  0  0  0  0  0
   13.0269   -9.5201  -22.0939 C   0  0  0  0  0  0  0  0  0  0  0  0
   14.0767   -9.1720  -23.1523 C   0  0  0  0  0  0  0  0  0  0  0  0
   15.9283   -7.3137  -24.2424 C   0  0  0  0  0  0  0  0  0  0  0  0
   14.4330   -7.3479  -23.1615 Se  0  0  2  0  0  0  0  0  0  0  0  0
   15.1566   -6.9094  -21.5061 C   0  0  0  0  0  0  0  0  0  0  0  0
   14.7228   -5.5357  -20.9929 C   0  0  1  0  0  0  0  0  0  0  0  0
   15.0260   -5.4602  -19.5893 O   0  0  0  0  0  0  0  0  0  0  0  0
   15.6390   -4.4987  -21.6435 C   0  0  1  0  0  0  0  0  0  0  0  0
   15.1609   -3.1851  -21.3496 O   0  0  0  0  0  0  0  0  0  0  0  0
   16.9189   -4.7748  -20.8587 C   0  0  1  0  0  0  0  0  0  0  0  0
   17.7587   -3.6210  -20.9271 O   0  0  0  0  0  0  0  0  0  0  0  0
   16.3363   -4.8826  -19.4488 C   0  0  2  0  0  0  0  0  0  0  0  0
   10.4685  -10.8379  -23.5798 O   0  0  0  0  0  0  0  0  0  0  0  0
   19.5009   -8.9369  -19.0098 N   0  0  0  0  0  0  0  0  0  0  0  0
   18.8782   -8.4849  -20.0847 C   0  0  0  0  0  0  0  0  0  0  0  0
   18.0932   -7.4226  -20.0399 N   0  0  0  0  0  0  0  0  0  0  0  0
   17.9054   -6.7610  -18.8880 C   0  0  0  0  0  0  0  0  0  0  0  0
   18.5411   -7.2068  -17.7378 C   0  0  0  0  0  0  0  0  0  0  0  0
   19.3554   -8.3298  -17.8251 C   0  0  0  0  0  0  0  0  0  0  0  0
   19.9504   -8.8096  -16.7375 N   0  0  0  0  0  0  0  0  0  0  0  0
   18.1958   -6.3938  -16.7457 N   0  0  0  0  0  0  0  0  0  0  0  0
   17.3761   -5.4732  -17.2476 C   0  0  0  0  0  0  0  0  0  0  0  0
   17.1948   -5.6898  -18.5505 N   0  0  0  0  0  0  0  0  0  0  0  0
  2  1  1  6  0  0  0
  2  5  1  0  0  0  0
  2  3  1  0  0  0  0
  3 17  1  0  0  0  0
  3  4  1  0  0  0  0
  5  6  1  0  0  0  0
  7  8  1  0  0  0  0
  8  6  1  1  0  0  0
  8  9  1  0  0  0  0
 10  9  1  6  0  0  0
 10 11  1  0  0  0  0
 10 12  1  0  0  0  0
 11 16  1  0  0  0  0
 12 13  1  1  0  0  0
 12 14  1  0  0  0  0
 14 15  1  1  0  0  0
 14 16  1  0  0  0  0
 16 27  1  1  0  0  0
 18 23  2  0  0  0  0
 18 19  1  0  0  0  0
 19 20  2  0  0  0  0
 20 21  1  0  0  0  0
 21 22  2  0  0  0  0
 21 27  1  0  0  0  0
 22 23  1  0  0  0  0
 22 25  1  0  0  0  0
 23 24  1  0  0  0  0
 25 26  2  0  0  0  0
 26 27  1  0  0  0  0
M  END
>  <CHROM.1>
55.58998064,-36.46851953,165.95783251,168.84406814,-143.77750173,164.36269465
83.82087099,15.62734372,-7.43781176,-21.11994217,-2.79191611,-0.78173454
-0.13854251

>  <Name>
ligand

>  <RI>
0

>  <Rbt.Current_Directory>
/home/itssahil/PROJECTS/Mol_Feturizer/New_Systems/rnas/3E5F

>  <Rbt.Executable>
rbdock ($Id: //depot/dev/client3/rdock/2013.1/src/exe/rbdock.cxx#4 $)

>  <Rbt.Library>
libRbt.so (2013.1, Build901 2013/11/27)

>  <Rbt.Parameter_File>
/export/apps/rDock/src/rDock_2013.1_src/data/scripts/dock_solv.prm

>  <Rbt.Receptor>
prm/pocket_docking_5.prm

>  <SCORE>
-12.17

>  <SCORE.INTER>
-13.632

>  <SCORE.INTER.CONST>
1

>  <SCORE.INTER.POLAR>
0

>  <SCORE.INTER.ROT>
7

>  <SCORE.INTER.SOLV>
12.7814

>  <SCORE.INTER.VDW>
-21.6151

>  <SCORE.INTER.norm>
-0.50489

>  <SCORE.INTRA>
1.46201

>  <SCORE.INTRA.DIHEDRAL>
1.4269

>  <SCORE.INTRA.DIHEDRAL.0>
4.89803

>  <SCORE.INTRA.POLAR>
0

>  <SCORE.INTRA.POLAR.0>
0

>  <SCORE.INTRA.REPUL>
0

>  <SCORE.INTRA.REPUL.0>
0

>  <SCORE.INTRA.SOLV>
0.683355

>  <SCORE.INTRA.SOLV.lig_0>
-48.5832

>  <SCORE.INTRA.VDW>
0.406887

>  <SCORE.INTRA.VDW.0>
-2.39056

>  <SCORE.INTRA.norm>
0.0541487

>  <SCORE.RESTR>
0

>  <SCORE.RESTR.CAVITY>
0

>  <SCORE.RESTR.norm>
0

>  <SCORE.SYSTEM>
0

>  <SCORE.SYSTEM.CONST>
0

>  <SCORE.SYSTEM.DIHEDRAL>
0

>  <SCORE.SYSTEM.SOLV>
0

>  <SCORE.SYSTEM.norm>
0

>  <SCORE.heavy>
27

>  <SCORE.norm>
-0.450741

>  <RMSD>
7.540

$$$$
ligand
 OpenBabel11021811473D
libRbt.so/2013.1/901 2013/11/27
 27 29  0  0  0  0  0  0  0  0999 V2000
   11.2868  -11.3433  -20.4473 N   0  0  0  0  0  0  0  0  0  0  0  0
   12.4127  -11.7039  -21.3215 C   0  0  2  0  0  0  0  0  0  0  0  0
   13.5467  -12.3103  -20.4894 C   0  0  0  0  0  0  0  0  0  0  0  0
   13.5558  -12.0477  -19.2668 O   0  0  0  0  0  0  0  0  0  0  0  0
   12.9196  -10.4406  -22.0195 C   0  0  0  0  0  0  0  0  0  0  0  0
   13.3907   -9.3816  -21.0195 C   0  0  0  0  0  0  0  0  0  0  0  0
   15.0833   -8.0408  -22.8654 C   0  0  0  0  0  0  0  0  0  0  0  0
   13.5795   -7.7261  -21.8431 Se  0  0  2  0  0  0  0  0  0  0  0  0
   14.2326   -6.5382  -20.5709 C   0  0  0  0  0  0  0  0  0  0  0  0
   13.6326   -5.1356  -20.6781 C   0  0  1  0  0  0  0  0  0  0  0  0
   12.2047   -5.2427  -20.5466 O   0  0  0  0  0  0  0  0  0  0  0  0
   14.0783   -4.3561  -19.4403 C   0  0  1  0  0  0  0  0  0  0  0  0
   13.7058   -2.9840  -19.5782 O   0  0  0  0  0  0  0  0  0  0  0  0
   13.1967   -5.0325  -18.3935 C   0  0  1  0  0  0  0  0  0  0  0  0
   13.0624   -4.1588  -17.2710 O   0  0  0  0  0  0  0  0  0  0  0  0
   11.8725   -5.0669  -19.1577 C   0  0  2  0  0  0  0  0  0  0  0  0
   14.3848  -13.0147  -21.0942 O   0  0  0  0  0  0  0  0  0  0  0  0
    8.0137   -6.3454  -15.9766 N   0  0  0  0  0  0  0  0  0  0  0  0
    8.5887   -5.1677  -16.1497 C   0  0  0  0  0  0  0  0  0  0  0  0
    9.5751   -4.9942  -17.0120 N   0  0  0  0  0  0  0  0  0  0  0  0
   10.0257   -6.0206  -17.7491 C   0  0  0  0  0  0  0  0  0  0  0  0
    9.4480   -7.2729  -17.5938 C   0  0  0  0  0  0  0  0  0  0  0  0
    8.4157   -7.4155  -16.6741 C   0  0  0  0  0  0  0  0  0  0  0  0
    7.8634   -8.6073  -16.4694 N   0  0  0  0  0  0  0  0  0  0  0  0
   10.0643   -8.1067  -18.4240 N   0  0  0  0  0  0  0  0  0  0  0  0
   10.9928   -7.4110  -19.0762 C   0  0  0  0  0  0  0  0  0  0  0  0
   10.9752   -6.1410  -18.6712 N   0  0  0  0  0  0  0  0  0  0  0  0
  2  1  1  1  0  0  0
  2  5  1  0  0  0  0
  2  3  1  0  0  0  0
  3 17  1  0  0  0  0
  3  4  1  0  0  0  0
  5  6  1  0  0  0  0
  7  8  1  0  0  0  0
  8  6  1  1  0  0  0
  8  9  1  0  0  0  0
 10  9  1  1  0  0  0
 10 11  1  0  0  0  0
 10 12  1  0  0  0  0
 11 16  1  0  0  0  0
 12 13  1  6  0  0  0
 12 14  1  0  0  0  0
 14 15  1  1  0  0  0
 14 16  1  0  0  0  0
 16 27  1  1  0  0  0
 18 23  2  0  0  0  0
 18 19  1  0  0  0  0
 19 20  2  0  0  0  0
 20 21  1  0  0  0  0
 21 22  2  0  0  0  0
 21 27  1  0  0  0  0
 22 23  1  0  0  0  0
 22 25  1  0  0  0  0
 23 24  1  0  0  0  0
 25 26  2  0  0  0  0
 26 27  1  0  0  0  0
M  END
>  <CHROM.1>
59.64293801,-21.07371101,-165.27756380,-71.46130423,-141.87479295,58.07788205
-146.99287567,12.18731816,-7.53026653,-19.68164619,0.85191642,-0.71042023
-2.94353658

>  <Name>
ligand

>  <RI>
0

>  <Rbt.Current_Directory>
/home/itssahil/PROJECTS/Mol_Feturizer/New_Systems/rnas/3E5F

>  <Rbt.Executable>
rbdock ($Id: //depot/dev/client3/rdock/2013.1/src/exe/rbdock.cxx#4 $)

>  <Rbt.Library>
libRbt.so (2013.1, Build901 2013/11/27)

>  <Rbt.Parameter_File>
/export/apps/rDock/src/rDock_2013.1_src/data/scripts/dock_solv.prm

>  <Rbt.Receptor>
prm/pocket_docking_6.prm

>  <SCORE>
-15.4459

>  <SCORE.INTER>
-16.4326

>  <SCORE.INTER.CONST>
1

>  <SCORE.INTER.POLAR>
0

>  <SCORE.INTER.ROT>
7

>  <SCORE.INTER.SOLV>
7.32333

>  <SCORE.INTER.VDW>
-21.6629

>  <SCORE.INTER.norm>
-0.608615

>  <SCORE.INTRA>
0.986745

>  <SCORE.INTRA.DIHEDRAL>
0.748068

>  <SCORE.INTRA.DIHEDRAL.0>
4.89803

>  <SCORE.INTRA.POLAR>
0

>  <SCORE.INTRA.POLAR.0>
0

>  <SCORE.INTRA.REPUL>
0

>  <SCORE.INTRA.REPUL.0>
0

>  <SCORE.INTRA.SOLV>
0.713258

>  <SCORE.INTRA.SOLV.lig_0>
-48.5832

>  <SCORE.INTRA.VDW>
0.256082

>  <SCORE.INTRA.VDW.0>
-2.39056

>  <SCORE.INTRA.norm>
0.0365461

>  <SCORE.RESTR>
0

>  <SCORE.RESTR.CAVITY>
0

>  <SCORE.RESTR.norm>
0

>  <SCORE.SYSTEM>
0

>  <SCORE.SYSTEM.CONST>
0

>  <SCORE.SYSTEM.DIHEDRAL>
0

>  <SCORE.SYSTEM.SOLV>
0

>  <SCORE.SYSTEM.norm>
0

>  <SCORE.heavy>
27

>  <SCORE.norm>
-0.572069

>  <RMSD>
7.606

$$$$
ligand
 OpenBabel11021811473D
libRbt.so/2013.1/901 2013/11/27
 27 29  0  0  0  0  0  0  0  0999 V2000
    9.5461  -13.5060  -23.5541 N   0  0  0  0  0  0  0  0  0  0  0  0
   10.3889  -13.3373  -22.3612 C   0  0  2  0  0  0  0  0  0  0  0  0
    9.5691  -13.6193  -21.0984 C   0  0  0  0  0  0  0  0  0  0  0  0
   10.1989  -13.7081  -20.0218 O   0  0  0  0  0  0  0  0  0  0  0  0
   10.9007  -11.8964  -22.3184 C   0  0  0  0  0  0  0  0  0  0  0  0
   11.8303  -11.5820  -23.4934 C   0  0  0  0  0  0  0  0  0  0  0  0
   13.4073   -9.7443  -24.9787 C   0  0  0  0  0  0  0  0  0  0  0  0
   12.4322   -9.8253  -23.4140 Se  0  0  2  0  0  0  0  0  0  0  0  0
   13.7753   -9.7502  -22.1307 C   0  0  0  0  0  0  0  0  0  0  0  0
   14.2516   -8.3294  -21.8256 C   0  0  1  0  0  0  0  0  0  0  0  0
   13.1443   -7.5863  -21.2877 O   0  0  0  0  0  0  0  0  0  0  0  0
   15.2512   -8.4242  -20.6724 C   0  0  1  0  0  0  0  0  0  0  0  0
   15.8712   -7.1534  -20.4697 O   0  0  0  0  0  0  0  0  0  0  0  0
   14.2817   -8.7187  -19.5305 C   0  0  1  0  0  0  0  0  0  0  0  0
   14.9022   -8.3575  -18.2953 O   0  0  0  0  0  0  0  0  0  0  0  0
   13.1882   -7.6998  -19.8541 C   0  0  2  0  0  0  0  0  0  0  0  0
    8.3330  -13.7495  -21.2375 O   0  0  0  0  0  0  0  0  0  0  0  0
    9.1008   -6.2901  -17.0344 N   0  0  0  0  0  0  0  0  0  0  0  0
   10.1734   -5.5841  -17.3488 C   0  0  0  0  0  0  0  0  0  0  0  0
   11.1463   -6.0873  -18.0883 N   0  0  0  0  0  0  0  0  0  0  0  0
   11.0718   -7.3445  -18.5506 C   0  0  0  0  0  0  0  0  0  0  0  0
    9.9617   -8.1172  -18.2399 C   0  0  0  0  0  0  0  0  0  0  0  0
    8.9616   -7.5533  -17.4565 C   0  0  0  0  0  0  0  0  0  0  0  0
    7.9014   -8.2745  -17.1057 N   0  0  0  0  0  0  0  0  0  0  0  0
   10.1273   -9.3069  -18.8070 N   0  0  0  0  0  0  0  0  0  0  0  0
   11.2931   -9.2872  -19.4488 C   0  0  0  0  0  0  0  0  0  0  0  0
   11.8735   -8.0965  -19.2977 N   0  0  0  0  0  0  0  0  0  0  0  0
  2  1  1  6  0  0  0
  2  5  1  0  0  0  0
  2  3  1  0  0  0  0
  3 17  1  0  0  0  0
  3  4  1  0  0  0  0
  5  6  1  0  0  0  0
  7  8  1  0  0  0  0
  8  6  1  6  0  0  0
  8  9  1  0  0  0  0
 10  9  1  1  0  0  0
 10 11  1  0  0  0  0
 10 12  1  0  0  0  0
 11 16  1  0  0  0  0
 12 13  1  1  0  0  0
 12 14  1  0  0  0  0
 14 15  1  1  0  0  0
 14 16  1  0  0  0  0
 16 27  1  6  0  0  0
 18 23  2  0  0  0  0
 18 19  1  0  0  0  0
 19 20  2  0  0  0  0
 20 21  1  0  0  0  0
 21 22  2  0  0  0  0
 21 27  1  0  0  0  0
 22 23  1  0  0  0  0
 22 25  1  0  0  0  0
 23 24  1  0  0  0  0
 25 26  2  0  0  0  0
 26 27  1  0  0  0  0
M  END
>  <CHROM.1>
-64.90483641,169.73943392,179.91533598,-176.61228112,-172.76689734,62.37717617
-111.83934417,11.75603991,-9.47598361,-20.80516929,1.56310156,-0.56889726
-2.35321330

>  <Name>
ligand

>  <RI>
0

>  <Rbt.Current_Directory>
/home/itssahil/PROJECTS/Mol_Feturizer/New_Systems/rnas/3E5F

>  <Rbt.Executable>
rbdock ($Id: //depot/dev/client3/rdock/2013.1/src/exe/rbdock.cxx#4 $)

>  <Rbt.Library>
libRbt.so (2013.1, Build901 2013/11/27)

>  <Rbt.Parameter_File>
/export/apps/rDock/src/rDock_2013.1_src/data/scripts/dock_solv.prm

>  <Rbt.Receptor>
prm/pocket_docking_5.prm

>  <SCORE>
-11.688

>  <SCORE.INTER>
-11.2676

>  <SCORE.INTER.CONST>
1

>  <SCORE.INTER.POLAR>
0

>  <SCORE.INTER.ROT>
7

>  <SCORE.INTER.SOLV>
9.80585

>  <SCORE.INTER.VDW>
-19.047

>  <SCORE.INTER.norm>
-0.41732

>  <SCORE.INTRA>
-0.420416

>  <SCORE.INTRA.DIHEDRAL>
-1.31734

>  <SCORE.INTRA.DIHEDRAL.0>
4.89803

>  <SCORE.INTRA.POLAR>
0

>  <SCORE.INTRA.POLAR.0>
0

>  <SCORE.INTRA.REPUL>
0

>  <SCORE.INTRA.REPUL.0>
0

>  <SCORE.INTRA.SOLV>
0.608728

>  <SCORE.INTRA.SOLV.lig_0>
-48.5832

>  <SCORE.INTRA.VDW>
-0.0661103

>  <SCORE.INTRA.VDW.0>
-2.39056

>  <SCORE.INTRA.norm>
-0.0155709

>  <SCORE.RESTR>
0

>  <SCORE.RESTR.CAVITY>
0

>  <SCORE.RESTR.norm>
0

>  <SCORE.SYSTEM>
0

>  <SCORE.SYSTEM.CONST>
0

>  <SCORE.SYSTEM.DIHEDRAL>
0

>  <SCORE.SYSTEM.SOLV>
0

>  <SCORE.SYSTEM.norm>
0

>  <SCORE.heavy>
27

>  <SCORE.norm>
-0.432891

>  <RMSD>
7.637

$$$$
ligand
 OpenBabel11021811473D
libRbt.so/2013.1/901 2013/11/27
 27 29  0  0  0  0  0  0  0  0999 V2000
    7.5716  -14.6901  -24.8079 N   0  0  0  0  0  0  0  0  0  0  0  0
    8.9020  -15.2958  -24.6495 C   0  0  2  0  0  0  0  0  0  0  0  0
    8.7619  -16.7846  -24.3181 C   0  0  0  0  0  0  0  0  0  0  0  0
    7.9943  -17.0865  -23.3782 O   0  0  0  0  0  0  0  0  0  0  0  0
    9.6317  -14.5911  -23.5046 C   0  0  0  0  0  0  0  0  0  0  0  0
    9.8292  -13.0985  -23.7818 C   0  0  0  0  0  0  0  0  0  0  0  0
   10.2505  -10.4849  -22.7514 C   0  0  0  0  0  0  0  0  0  0  0  0
   10.5943  -12.2455  -22.3183 Se  0  0  2  0  0  0  0  0  0  0  0  0
   12.4403  -12.3285  -22.5228 C   0  0  0  0  0  0  0  0  0  0  0  0
   13.1955  -12.4923  -21.2032 C   0  0  1  0  0  0  0  0  0  0  0  0
   14.4244  -11.7506  -21.2897 O   0  0  0  0  0  0  0  0  0  0  0  0
   12.3844  -11.7736  -20.1244 C   0  0  1  0  0  0  0  0  0  0  0  0
   12.9421  -12.0532  -18.8394 O   0  0  0  0  0  0  0  0  0  0  0  0
   12.6798  -10.3282  -20.5170 C   0  0  1  0  0  0  0  0  0  0  0  0
   12.4524   -9.4879  -19.3842 O   0  0  0  0  0  0  0  0  0  0  0  0
   14.1853  -10.4328  -20.7641 C   0  0  2  0  0  0  0  0  0  0  0  0
    9.4318  -17.5876  -25.0043 O   0  0  0  0  0  0  0  0  0  0  0  0
   14.1165   -8.5425  -25.5669 N   0  0  0  0  0  0  0  0  0  0  0  0
   13.4783   -9.5934  -25.0812 C   0  0  0  0  0  0  0  0  0  0  0  0
   13.5958   -9.9561  -23.8158 N   0  0  0  0  0  0  0  0  0  0  0  0
   14.3736   -9.2576  -22.9750 C   0  0  0  0  0  0  0  0  0  0  0  0
   15.0609   -8.1489  -23.4489 C   0  0  0  0  0  0  0  0  0  0  0  0
   14.9142   -7.8020  -24.7868 C   0  0  0  0  0  0  0  0  0  0  0  0
   15.5865   -6.7697  -25.2867 N   0  0  0  0  0  0  0  0  0  0  0  0
   15.7518   -7.6395  -22.4352 N   0  0  0  0  0  0  0  0  0  0  0  0
   15.5118   -8.3946  -21.3658 C   0  0  0  0  0  0  0  0  0  0  0  0
   14.6739   -9.3808  -21.6863 N   0  0  0  0  0  0  0  0  0  0  0  0
  2  1  1  1  0  0  0
  2  5  1  0  0  0  0
  2  3  1  0  0  0  0
  3 17  1  0  0  0  0
  3  4  1  0  0  0  0
  5  6  1  0  0  0  0
  7  8  1  0  0  0  0
  8  6  1  6  0  0  0
  8  9  1  0  0  0  0
 10  9  1  6  0  0  0
 10 11  1  0  0  0  0
 10 12  1  0  0  0  0
 11 16  1  0  0  0  0
 12 13  1  1  0  0  0
 12 14  1  0  0  0  0
 14 15  1  1  0  0  0
 14 16  1  0  0  0  0
 16 27  1  6  0  0  0
 18 23  2  0  0  0  0
 18 19  1  0  0  0  0
 19 20  2  0  0  0  0
 20 21  1  0  0  0  0
 21 22  2  0  0  0  0
 21 27  1  0  0  0  0
 22 23  1  0  0  0  0
 22 25  1  0  0  0  0
 23 24  1  0  0  0  0
 25 26  2  0  0  0  0
 26 27  1  0  0  0  0
M  END
>  <CHROM.1>
-60.99640054,-50.79767643,175.44966027,-164.45880085,-144.67182578,-144.27520653
52.91233311,12.06906025,-11.61091608,-22.69243581,3.12149382,0.87707002,1.74804420

>  <Name>
ligand

>  <RI>
0

>  <Rbt.Current_Directory>
/home/itssahil/PROJECTS/Mol_Feturizer/New_Systems/rnas/3E5F

>  <Rbt.Executable>
rbdock ($Id: //depot/dev/client3/rdock/2013.1/src/exe/rbdock.cxx#4 $)

>  <Rbt.Library>
libRbt.so (2013.1, Build901 2013/11/27)

>  <Rbt.Parameter_File>
/export/apps/rDock/src/rDock_2013.1_src/data/scripts/dock_solv.prm

>  <Rbt.Receptor>
prm/blind_docking_60.prm

>  <SCORE>
-14.9073

>  <SCORE.INTER>
-16.764

>  <SCORE.INTER.CONST>
1

>  <SCORE.INTER.POLAR>
0

>  <SCORE.INTER.ROT>
7

>  <SCORE.INTER.SOLV>
19.6504

>  <SCORE.INTER.VDW>
-25.9928

>  <SCORE.INTER.norm>
-0.62089

>  <SCORE.INTRA>
1.39969

>  <SCORE.INTRA.DIHEDRAL>
3.9222

>  <SCORE.INTRA.DIHEDRAL.0>
4.89803

>  <SCORE.INTRA.POLAR>
0

>  <SCORE.INTRA.POLAR.0>
0

>  <SCORE.INTRA.REPUL>
0

>  <SCORE.INTRA.REPUL.0>
0

>  <SCORE.INTRA.SOLV>
0.767809

>  <SCORE.INTRA.SOLV.lig_0>
-48.5832

>  <SCORE.INTRA.VDW>
-0.94532

>  <SCORE.INTRA.VDW.0>
-2.39056

>  <SCORE.INTRA.norm>
0.0518402

>  <SCORE.RESTR>
0.457073

>  <SCORE.RESTR.CAVITY>
0.457073

>  <SCORE.RESTR.norm>
0.0169286

>  <SCORE.SYSTEM>
0

>  <SCORE.SYSTEM.CONST>
0

>  <SCORE.SYSTEM.DIHEDRAL>
0

>  <SCORE.SYSTEM.SOLV>
0

>  <SCORE.SYSTEM.norm>
0

>  <SCORE.heavy>
27

>  <SCORE.norm>
-0.552121

>  <RMSD>
7.638

$$$$
ligand
 OpenBabel11021811473D
libRbt.so/2013.1/901 2013/11/27
 27 29  0  0  0  0  0  0  0  0999 V2000
   11.3612  -13.3037  -22.7713 N   0  0  0  0  0  0  0  0  0  0  0  0
   10.4572  -12.2771  -23.3105 C   0  0  2  0  0  0  0  0  0  0  0  0
    9.7336  -12.8163  -24.5482 C   0  0  0  0  0  0  0  0  0  0  0  0
   10.4419  -13.1090  -25.5363 O   0  0  0  0  0  0  0  0  0  0  0  0
   11.2821  -11.0503  -23.7034 C   0  0  0  0  0  0  0  0  0  0  0  0
   12.2749  -10.6511  -22.6087 C   0  0  0  0  0  0  0  0  0  0  0  0
   13.9223   -9.5529  -24.6459 C   0  0  0  0  0  0  0  0  0  0  0  0
   13.1446   -9.0673  -23.0444 Se  0  0  2  0  0  0  0  0  0  0  0  0
   14.6296   -8.9197  -21.9357 C   0  0  0  0  0  0  0  0  0  0  0  0
   15.1535   -7.4893  -21.8016 C   0  0  1  0  0  0  0  0  0  0  0  0
   14.0552   -6.6374  -21.4331 O   0  0  0  0  0  0  0  0  0  0  0  0
   16.0888   -7.4606  -20.5922 C   0  0  1  0  0  0  0  0  0  0  0  0
   16.7545   -6.1983  -20.5308 O   0  0  0  0  0  0  0  0  0  0  0  0
   15.0509   -7.5568  -19.4768 C   0  0  1  0  0  0  0  0  0  0  0  0
   15.6243   -7.0512  -18.2698 O   0  0  0  0  0  0  0  0  0  0  0  0
   14.0221   -6.5522  -19.9973 C   0  0  2  0  0  0  0  0  0  0  0  0
    8.4885  -12.9152  -24.4837 O   0  0  0  0  0  0  0  0  0  0  0  0
   10.8183  -10.0125  -17.8980 N   0  0  0  0  0  0  0  0  0  0  0  0
   12.0815  -10.1642  -18.2567 C   0  0  0  0  0  0  0  0  0  0  0  0
   12.7793   -9.1741  -18.7852 N   0  0  0  0  0  0  0  0  0  0  0  0
   12.2200   -7.9691  -18.9727 C   0  0  0  0  0  0  0  0  0  0  0  0
   10.8950   -7.7720  -18.6101 C   0  0  0  0  0  0  0  0  0  0  0  0
   10.1938   -8.8391  -18.0610 C   0  0  0  0  0  0  0  0  0  0  0  0
    8.9120   -8.7002  -17.7371 N   0  0  0  0  0  0  0  0  0  0  0  0
   10.5823   -6.5128  -18.8948 N   0  0  0  0  0  0  0  0  0  0  0  0
   11.6639   -5.9383  -19.4159 C   0  0  0  0  0  0  0  0  0  0  0  0
   12.6645   -6.8179  -19.4662 N   0  0  0  0  0  0  0  0  0  0  0  0
  2  1  1  6  0  0  0
  2  5  1  0  0  0  0
  2  3  1  0  0  0  0
  3 17  1  0  0  0  0
  3  4  1  0  0  0  0
  5  6  1  0  0  0  0
  7  8  1  0  0  0  0
  8  6  1  1  0  0  0
  8  9  1  0  0  0  0
 10  9  1  1  0  0  0
 10 11  1  0  0  0  0
 10 12  1  0  0  0  0
 11 16  1  0  0  0  0
 12 13  1  1  0  0  0
 12 14  1  0  0  0  0
 14 15  1  1  0  0  0
 14 16  1  0  0  0  0
 16 27  1  1  0  0  0
 18 23  2  0  0  0  0
 18 19  1  0  0  0  0
 19 20  2  0  0  0  0
 20 21  1  0  0  0  0
 21 22  2  0  0  0  0
 21 27  1  0  0  0  0
 22 23  1  0  0  0  0
 22 25  1  0  0  0  0
 23 24  1  0  0  0  0
 25 26  2  0  0  0  0
 26 27  1  0  0  0  0
M  END
>  <CHROM.1>
-46.85858607,-63.29395698,-174.57043467,-58.58495812,-159.06910213,51.93066235
98.30791334,12.56035967,-9.07450757,-21.30228168,2.08694644,-0.53422973,-2.10582324

>  <Name>
ligand

>  <RI>
0

>  <Rbt.Current_Directory>
/home/itssahil/PROJECTS/Mol_Feturizer/New_Systems/rnas/3E5F

>  <Rbt.Executable>
rbdock ($Id: //depot/dev/client3/rdock/2013.1/src/exe/rbdock.cxx#4 $)

>  <Rbt.Library>
libRbt.so (2013.1, Build901 2013/11/27)

>  <Rbt.Parameter_File>
/export/apps/rDock/src/rDock_2013.1_src/data/scripts/dock_solv.prm

>  <Rbt.Receptor>
prm/pocket_docking_6.prm

>  <SCORE>
-10.65

>  <SCORE.INTER>
-12.0351

>  <SCORE.INTER.CONST>
1

>  <SCORE.INTER.POLAR>
0

>  <SCORE.INTER.ROT>
7

>  <SCORE.INTER.SOLV>
10.6198

>  <SCORE.INTER.VDW>
-19.83

>  <SCORE.INTER.norm>
-0.445744

>  <SCORE.INTRA>
1.38511

>  <SCORE.INTRA.DIHEDRAL>
0.147907

>  <SCORE.INTRA.DIHEDRAL.0>
4.89803

>  <SCORE.INTRA.POLAR>
0

>  <SCORE.INTRA.POLAR.0>
0

>  <SCORE.INTRA.REPUL>
0

>  <SCORE.INTRA.REPUL.0>
0

>  <SCORE.INTRA.SOLV>
0.828268

>  <SCORE.INTRA.SOLV.lig_0>
-48.5832

>  <SCORE.INTRA.VDW>
0.897024

>  <SCORE.INTRA.VDW.0>
-2.39056

>  <SCORE.INTRA.norm>
0.0513004

>  <SCORE.RESTR>
0

>  <SCORE.RESTR.CAVITY>
0

>  <SCORE.RESTR.norm>
0

>  <SCORE.SYSTEM>
0

>  <SCORE.SYSTEM.CONST>
0

>  <SCORE.SYSTEM.DIHEDRAL>
0

>  <SCORE.SYSTEM.SOLV>
0

>  <SCORE.SYSTEM.norm>
0

>  <SCORE.heavy>
27

>  <SCORE.norm>
-0.394444

>  <RMSD>
7.656

$$$$
ligand
 OpenBabel11021811473D
libRbt.so/2013.1/901 2013/11/27
 27 29  0  0  0  0  0  0  0  0999 V2000
    7.5913   -8.5422  -15.0813 N   0  0  0  0  0  0  0  0  0  0  0  0
    8.1464   -8.6560  -16.4381 C   0  0  2  0  0  0  0  0  0  0  0  0
    7.1519   -9.3807  -17.3502 C   0  0  0  0  0  0  0  0  0  0  0  0
    6.2732  -10.0742  -16.7931 O   0  0  0  0  0  0  0  0  0  0  0  0
    9.4475   -9.4578  -16.3732 C   0  0  0  0  0  0  0  0  0  0  0  0
   10.2590   -9.3413  -17.6660 C   0  0  0  0  0  0  0  0  0  0  0  0
   12.8362   -9.1706  -16.4831 C   0  0  0  0  0  0  0  0  0  0  0  0
   11.8433  -10.3059  -17.5464 Se  0  0  2  0  0  0  0  0  0  0  0  0
   12.7184  -10.1517  -19.1793 C   0  0  0  0  0  0  0  0  0  0  0  0
   13.2619  -11.4789  -19.7102 C   0  0  1  0  0  0  0  0  0  0  0  0
   12.2692  -12.4955  -19.4896 O   0  0  0  0  0  0  0  0  0  0  0  0
   13.3569  -11.3539  -21.2313 C   0  0  1  0  0  0  0  0  0  0  0  0
   14.0349  -12.4925  -21.7644 O   0  0  0  0  0  0  0  0  0  0  0  0
   11.8715  -11.4234  -21.5767 C   0  0  1  0  0  0  0  0  0  0  0  0
   11.7345  -11.8273  -22.9402 O   0  0  0  0  0  0  0  0  0  0  0  0
   11.4520  -12.5816  -20.6706 C   0  0  2  0  0  0  0  0  0  0  0  0
    7.2972   -9.2338  -18.5838 O   0  0  0  0  0  0  0  0  0  0  0  0
    6.9001  -15.0044  -20.9071 N   0  0  0  0  0  0  0  0  0  0  0  0
    8.0789  -15.4117  -21.3453 C   0  0  0  0  0  0  0  0  0  0  0  0
    9.1661  -14.6725  -21.2094 N   0  0  0  0  0  0  0  0  0  0  0  0
    9.1053  -13.4729  -20.6119 C   0  0  0  0  0  0  0  0  0  0  0  0
    7.8847  -13.0105  -20.1404 C   0  0  0  0  0  0  0  0  0  0  0  0
    6.7639  -13.8157  -20.3057 C   0  0  0  0  0  0  0  0  0  0  0  0
    5.5707  -13.3907  -19.9020 N   0  0  0  0  0  0  0  0  0  0  0  0
    8.0884  -11.8143  -19.6001 N   0  0  0  0  0  0  0  0  0  0  0  0
    9.3830  -11.5322  -19.7252 C   0  0  0  0  0  0  0  0  0  0  0  0
   10.0084  -12.5366  -20.3396 N   0  0  0  0  0  0  0  0  0  0  0  0
  2  1  1  1  0  0  0
  2  5  1  0  0  0  0
  2  3  1  0  0  0  0
  3 17  1  0  0  0  0
  3  4  1  0  0  0  0
  5  6  1  0  0  0  0
  7  8  1  0  0  0  0
  8  6  1  6  0  0  0
  8  9  1  0  0  0  0
 10  9  1  1  0  0  0
 10 11  1  0  0  0  0
 10 12  1  0  0  0  0
 11 16  1  0  0  0  0
 12 13  1  6  0  0  0
 12 14  1  0  0  0  0
 14 15  1  6  0  0  0
 14 16  1  0  0  0  0
 16 27  1  1  0  0  0
 18 23  2  0  0  0  0
 18 19  1  0  0  0  0
 19 20  2  0  0  0  0
 20 21  1  0  0  0  0
 21 22  2  0  0  0  0
 21 27  1  0  0  0  0
 22 23  1  0  0  0  0
 22 25  1  0  0  0  0
 23 24  1  0  0  0  0
 25 26  2  0  0  0  0
 26 27  1  0  0  0  0
M  END
>  <CHROM.1>
-166.31688915,-19.84775493,179.19634397,-76.29965648,-134.30383868,42.18642907
-120.32392929,10.08231082,-11.34855088,-19.08253357,1.54641241,0.18886301
0.82277881

>  <Name>
ligand

>  <RI>
0

>  <Rbt.Current_Directory>
/home/itssahil/PROJECTS/Mol_Feturizer/New_Systems/rnas/3E5F

>  <Rbt.Executable>
rbdock ($Id: //depot/dev/client3/rdock/2013.1/src/exe/rbdock.cxx#4 $)

>  <Rbt.Library>
libRbt.so (2013.1, Build901 2013/11/27)

>  <Rbt.Parameter_File>
/export/apps/rDock/src/rDock_2013.1_src/data/scripts/dock_solv.prm

>  <Rbt.Receptor>
prm/pocket_docking_7.prm

>  <SCORE>
-12.0823

>  <SCORE.INTER>
-12.1078

>  <SCORE.INTER.CONST>
1

>  <SCORE.INTER.POLAR>
0

>  <SCORE.INTER.ROT>
7

>  <SCORE.INTER.SOLV>
8.23317

>  <SCORE.INTER.VDW>
-19.0829

>  <SCORE.INTER.norm>
-0.448438

>  <SCORE.INTRA>
0.0255223

>  <SCORE.INTRA.DIHEDRAL>
2.01134

>  <SCORE.INTRA.DIHEDRAL.0>
4.89803

>  <SCORE.INTRA.POLAR>
0

>  <SCORE.INTRA.POLAR.0>
0

>  <SCORE.INTRA.REPUL>
0

>  <SCORE.INTRA.REPUL.0>
0

>  <SCORE.INTRA.SOLV>
-0.0204062

>  <SCORE.INTRA.SOLV.lig_0>
-48.5832

>  <SCORE.INTRA.VDW>
-0.969945

>  <SCORE.INTRA.VDW.0>
-2.39056

>  <SCORE.INTRA.norm>
0.000945269

>  <SCORE.RESTR>
0

>  <SCORE.RESTR.CAVITY>
0

>  <SCORE.RESTR.norm>
0

>  <SCORE.SYSTEM>
0

>  <SCORE.SYSTEM.CONST>
0

>  <SCORE.SYSTEM.DIHEDRAL>
0

>  <SCORE.SYSTEM.SOLV>
0

>  <SCORE.SYSTEM.norm>
0

>  <SCORE.heavy>
27

>  <SCORE.norm>
-0.447493

>  <RMSD>
7.663

$$$$
ligand
 OpenBabel11021811473D
libRbt.so/2013.1/901 2013/11/27
 27 29  0  0  0  0  0  0  0  0999 V2000
   13.6331  -11.8503  -22.2927 N   0  0  0  0  0  0  0  0  0  0  0  0
   12.5595  -10.8457  -22.2860 C   0  0  2  0  0  0  0  0  0  0  0  0
   11.7196  -10.9703  -23.5609 C   0  0  0  0  0  0  0  0  0  0  0  0
   12.3278  -11.2596  -24.6144 O   0  0  0  0  0  0  0  0  0  0  0  0
   13.1881   -9.4523  -22.2308 C   0  0  0  0  0  0  0  0  0  0  0  0
   14.0776   -9.1749  -23.4454 C   0  0  0  0  0  0  0  0  0  0  0  0
   15.8684   -7.4517  -24.8218 C   0  0  0  0  0  0  0  0  0  0  0  0
   14.5628   -7.3822  -23.5194 Se  0  0  2  0  0  0  0  0  0  0  0  0
   15.5679   -7.0101  -22.0003 C   0  0  0  0  0  0  0  0  0  0  0  0
   15.1321   -5.7363  -21.2749 C   0  0  1  0  0  0  0  0  0  0  0  0
   15.7720   -5.7069  -19.9875 O   0  0  0  0  0  0  0  0  0  0  0  0
   15.7347   -4.5536  -22.0340 C   0  0  1  0  0  0  0  0  0  0  0  0
   15.2072   -3.3319  -21.5149 O   0  0  0  0  0  0  0  0  0  0  0  0
   17.1942   -4.7105  -21.6148 C   0  0  1  0  0  0  0  0  0  0  0  0
   17.8586   -3.4569  -21.7827 O   0  0  0  0  0  0  0  0  0  0  0  0
   17.0041   -4.9762  -20.1208 C   0  0  2  0  0  0  0  0  0  0  0  0
   10.4903  -10.7646  -23.4569 O   0  0  0  0  0  0  0  0  0  0  0  0
   18.5436   -8.4753  -16.6523 N   0  0  0  0  0  0  0  0  0  0  0  0
   17.3201   -8.0447  -16.9074 C   0  0  0  0  0  0  0  0  0  0  0  0
   17.0810   -7.1363  -17.8371 N   0  0  0  0  0  0  0  0  0  0  0  0
   18.0856   -6.6200  -18.5611 C   0  0  0  0  0  0  0  0  0  0  0  0
   19.3843   -7.0462  -18.3207 C   0  0  0  0  0  0  0  0  0  0  0  0
   19.5950   -8.0001  -17.3320 C   0  0  0  0  0  0  0  0  0  0  0  0
   20.8287   -8.4047  -17.0463 N   0  0  0  0  0  0  0  0  0  0  0  0
   20.1841   -6.3921  -19.1555 N   0  0  0  0  0  0  0  0  0  0  0  0
   19.4231   -5.5862  -19.8922 C   0  0  0  0  0  0  0  0  0  0  0  0
   18.1451   -5.7194  -19.5366 N   0  0  0  0  0  0  0  0  0  0  0  0
  2  1  1  6  0  0  0
  2  5  1  0  0  0  0
  2  3  1  0  0  0  0
  3 17  1  0  0  0  0
  3  4  1  0  0  0  0
  5  6  1  0  0  0  0
  7  8  1  0  0  0  0
  8  6  1  1  0  0  0
  8  9  1  0  0  0  0
 10  9  1  6  0  0  0
 10 11  1  0  0  0  0
 10 12  1  0  0  0  0
 11 16  1  0  0  0  0
 12 13  1  1  0  0  0
 12 14  1  0  0  0  0
 14 15  1  1  0  0  0
 14 16  1  0  0  0  0
 16 27  1  6  0  0  0
 18 23  2  0  0  0  0
 18 19  1  0  0  0  0
 19 20  2  0  0  0  0
 20 21  1  0  0  0  0
 21 22  2  0  0  0  0
 21 27  1  0  0  0  0
 22 23  1  0  0  0  0
 22 25  1  0  0  0  0
 23 24  1  0  0  0  0
 25 26  2  0  0  0  0
 26 27  1  0  0  0  0
M  END
>  <CHROM.1>
61.01916188,-36.71740254,169.18409665,168.63877405,-132.42265892,167.81333106
-26.38250671,15.85360948,-7.40006583,-21.29269983,-3.09867710,-0.79261572
-0.51526803

>  <Name>
ligand

>  <RI>
0

>  <Rbt.Current_Directory>
/home/itssahil/PROJECTS/Mol_Feturizer/New_Systems/rnas/3E5F

>  <Rbt.Executable>
rbdock ($Id: //depot/dev/client3/rdock/2013.1/src/exe/rbdock.cxx#4 $)

>  <Rbt.Library>
libRbt.so (2013.1, Build901 2013/11/27)

>  <Rbt.Parameter_File>
/export/apps/rDock/src/rDock_2013.1_src/data/scripts/dock_solv.prm

>  <Rbt.Receptor>
prm/pocket_docking_5.prm

>  <SCORE>
-13.3881

>  <SCORE.INTER>
-15.2396

>  <SCORE.INTER.CONST>
1

>  <SCORE.INTER.POLAR>
0

>  <SCORE.INTER.ROT>
7

>  <SCORE.INTER.SOLV>
11.8562

>  <SCORE.INTER.VDW>
-22.3785

>  <SCORE.INTER.norm>
-0.564429

>  <SCORE.INTRA>
1.85149

>  <SCORE.INTRA.DIHEDRAL>
1.11566

>  <SCORE.INTRA.DIHEDRAL.0>
4.89803

>  <SCORE.INTRA.POLAR>
0

>  <SCORE.INTRA.POLAR.0>
0

>  <SCORE.INTRA.REPUL>
0

>  <SCORE.INTRA.REPUL.0>
0

>  <SCORE.INTRA.SOLV>
0.717617

>  <SCORE.INTRA.SOLV.lig_0>
-48.5832

>  <SCORE.INTRA.VDW>
0.93485

>  <SCORE.INTRA.VDW.0>
-2.39056

>  <SCORE.INTRA.norm>
0.0685737

>  <SCORE.RESTR>
0

>  <SCORE.RESTR.CAVITY>
0

>  <SCORE.RESTR.norm>
0

>  <SCORE.SYSTEM>
0

>  <SCORE.SYSTEM.CONST>
0

>  <SCORE.SYSTEM.DIHEDRAL>
0

>  <SCORE.SYSTEM.SOLV>
0

>  <SCORE.SYSTEM.norm>
0

>  <SCORE.heavy>
27

>  <SCORE.norm>
-0.495855

>  <RMSD>
7.695

$$$$
ligand
 OpenBabel11021811473D
libRbt.so/2013.1/901 2013/11/27
 27 29  0  0  0  0  0  0  0  0999 V2000
   13.7589  -11.5881  -22.2954 N   0  0  0  0  0  0  0  0  0  0  0  0
   12.7168  -10.5516  -22.2561 C   0  0  2  0  0  0  0  0  0  0  0  0
   11.7439  -10.7447  -23.4233 C   0  0  0  0  0  0  0  0  0  0  0  0
   12.2358  -11.0873  -24.5207 O   0  0  0  0  0  0  0  0  0  0  0  0
   13.3813   -9.1791  -22.3757 C   0  0  0  0  0  0  0  0  0  0  0  0
   14.2144   -9.0536  -23.6539 C   0  0  0  0  0  0  0  0  0  0  0  0
   15.7565   -7.4979  -25.4628 C   0  0  0  0  0  0  0  0  0  0  0  0
   14.7534   -7.2959  -23.9270 Se  0  0  2  0  0  0  0  0  0  0  0  0
   16.0669   -6.9103  -22.6691 C   0  0  0  0  0  0  0  0  0  0  0  0
   15.5441   -6.1439  -21.4535 C   0  0  1  0  0  0  0  0  0  0  0  0
   16.5695   -6.1397  -20.4455 O   0  0  0  0  0  0  0  0  0  0  0  0
   15.4021   -4.6789  -21.8678 C   0  0  1  0  0  0  0  0  0  0  0  0
   14.7397   -3.9501  -20.8332 O   0  0  0  0  0  0  0  0  0  0  0  0
   16.8783   -4.2925  -21.9140 C   0  0  1  0  0  0  0  0  0  0  0  0
   16.9867   -2.8736  -21.7865 O   0  0  0  0  0  0  0  0  0  0  0  0
   17.3545   -4.9460  -20.6160 C   0  0  2  0  0  0  0  0  0  0  0  0
   10.5316  -10.5367  -23.1963 O   0  0  0  0  0  0  0  0  0  0  0  0
   21.4074   -6.8459  -18.0452 N   0  0  0  0  0  0  0  0  0  0  0  0
   20.1486   -6.7503  -17.6530 C   0  0  0  0  0  0  0  0  0  0  0  0
   19.2132   -6.2364  -18.4325 N   0  0  0  0  0  0  0  0  0  0  0  0
   19.5169   -5.7938  -19.6621 C   0  0  0  0  0  0  0  0  0  0  0  0
   20.8284   -5.8759  -20.1084 C   0  0  0  0  0  0  0  0  0  0  0  0
   21.7837   -6.4192  -19.2575 C   0  0  0  0  0  0  0  0  0  0  0  0
   23.0571   -6.4792  -19.6345 N   0  0  0  0  0  0  0  0  0  0  0  0
   20.8673   -5.3773  -21.3389 N   0  0  0  0  0  0  0  0  0  0  0  0
   19.6325   -4.9957  -21.6569 C   0  0  0  0  0  0  0  0  0  0  0  0
   18.8053   -5.2461  -20.6419 N   0  0  0  0  0  0  0  0  0  0  0  0
  2  1  1  6  0  0  0
  2  5  1  0  0  0  0
  2  3  1  0  0  0  0
  3 17  1  0  0  0  0
  3  4  1  0  0  0  0
  5  6  1  0  0  0  0
  7  8  1  0  0  0  0
  8  6  1  1  0  0  0
  8  9  1  0  0  0  0
 10  9  1  6  0  0  0
 10 11  1  0  0  0  0
 10 12  1  0  0  0  0
 11 16  1  0  0  0  0
 12 13  1  1  0  0  0
 12 14  1  0  0  0  0
 14 15  1  1  0  0  0
 14 16  1  0  0  0  0
 16 27  1  6  0  0  0
 18 23  2  0  0  0  0
 18 19  1  0  0  0  0
 19 20  2  0  0  0  0
 20 21  1  0  0  0  0
 21 22  2  0  0  0  0
 21 27  1  0  0  0  0
 22 23  1  0  0  0  0
 22 25  1  0  0  0  0
 23 24  1  0  0  0  0
 25 26  2  0  0  0  0
 26 27  1  0  0  0  0
M  END
>  <CHROM.1>
57.51487833,-39.12548733,169.75867187,178.01045664,-99.03560216,168.63872378
-61.54268151,16.39883999,-7.01145905,-21.87268771,-2.82754042,-0.56757178
-0.23754668

>  <Name>
ligand

>  <RI>
0

>  <Rbt.Current_Directory>
/home/itssahil/PROJECTS/Mol_Feturizer/New_Systems/rnas/3E5F

>  <Rbt.Executable>
rbdock ($Id: //depot/dev/client3/rdock/2013.1/src/exe/rbdock.cxx#4 $)

>  <Rbt.Library>
libRbt.so (2013.1, Build901 2013/11/27)

>  <Rbt.Parameter_File>
/export/apps/rDock/src/rDock_2013.1_src/data/scripts/dock_solv.prm

>  <Rbt.Receptor>
prm/pocket_docking_6.prm

>  <SCORE>
-16.6221

>  <SCORE.INTER>
-18.0993

>  <SCORE.INTER.CONST>
1

>  <SCORE.INTER.POLAR>
0

>  <SCORE.INTER.ROT>
7

>  <SCORE.INTER.SOLV>
11.2138

>  <SCORE.INTER.VDW>
-24.0708

>  <SCORE.INTER.norm>
-0.670344

>  <SCORE.INTRA>
1.47721

>  <SCORE.INTRA.DIHEDRAL>
0.0836871

>  <SCORE.INTRA.DIHEDRAL.0>
4.89803

>  <SCORE.INTRA.POLAR>
0

>  <SCORE.INTRA.POLAR.0>
0

>  <SCORE.INTRA.REPUL>
0

>  <SCORE.INTRA.REPUL.0>
0

>  <SCORE.INTRA.SOLV>
0.704034

>  <SCORE.INTRA.SOLV.lig_0>
-48.5832

>  <SCORE.INTRA.VDW>
1.08335

>  <SCORE.INTRA.VDW.0>
-2.39056

>  <SCORE.INTRA.norm>
0.0547117

>  <SCORE.RESTR>
0

>  <SCORE.RESTR.CAVITY>
0

>  <SCORE.RESTR.norm>
0

>  <SCORE.SYSTEM>
0

>  <SCORE.SYSTEM.CONST>
0

>  <SCORE.SYSTEM.DIHEDRAL>
0

>  <SCORE.SYSTEM.SOLV>
0

>  <SCORE.SYSTEM.norm>
0

>  <SCORE.heavy>
27

>  <SCORE.norm>
-0.615632

>  <RMSD>
7.725

$$$$
ligand
 OpenBabel11021811473D
libRbt.so/2013.1/901 2013/11/27
 27 29  0  0  0  0  0  0  0  0999 V2000
    9.6045  -12.4432  -23.8342 N   0  0  0  0  0  0  0  0  0  0  0  0
   10.4693  -11.4042  -23.2561 C   0  0  2  0  0  0  0  0  0  0  0  0
   11.8677  -11.4840  -23.8760 C   0  0  0  0  0  0  0  0  0  0  0  0
   12.3212  -10.4374  -24.3885 O   0  0  0  0  0  0  0  0  0  0  0  0
   10.5733  -11.6322  -21.7471 C   0  0  0  0  0  0  0  0  0  0  0  0
   11.4688  -10.5919  -21.0693 C   0  0  0  0  0  0  0  0  0  0  0  0
   13.7484  -12.2799  -20.9127 C   0  0  0  0  0  0  0  0  0  0  0  0
   13.2126  -10.7008  -21.7033 Se  0  0  2  0  0  0  0  0  0  0  0  0
   14.2269   -9.4519  -20.7719 C   0  0  0  0  0  0  0  0  0  0  0  0
   13.7741   -8.0081  -20.9931 C   0  0  1  0  0  0  0  0  0  0  0  0
   12.3920   -7.9033  -20.6103 O   0  0  0  0  0  0  0  0  0  0  0  0
   14.5229   -7.1383  -19.9826 C   0  0  1  0  0  0  0  0  0  0  0  0
   14.2833   -5.7591  -20.2669 O   0  0  0  0  0  0  0  0  0  0  0  0
   13.7813   -7.5446  -18.7116 C   0  0  1  0  0  0  0  0  0  0  0  0
   13.9527   -6.5195  -17.7312 O   0  0  0  0  0  0  0  0  0  0  0  0
   12.3431   -7.5014  -19.2296 C   0  0  2  0  0  0  0  0  0  0  0  0
   12.4489  -12.5907  -23.8330 O   0  0  0  0  0  0  0  0  0  0  0  0
    7.6664   -8.0656  -17.1191 N   0  0  0  0  0  0  0  0  0  0  0  0
    8.1384   -7.0550  -17.8286 C   0  0  0  0  0  0  0  0  0  0  0  0
    9.3698   -7.0559  -18.3085 N   0  0  0  0  0  0  0  0  0  0  0  0
   10.1867   -8.0975  -18.0898 C   0  0  0  0  0  0  0  0  0  0  0  0
    9.7271   -9.1763  -17.3477 C   0  0  0  0  0  0  0  0  0  0  0  0
    8.4273   -9.1359  -16.8570 C   0  0  0  0  0  0  0  0  0  0  0  0
    7.9643  -10.1329  -16.1094 N   0  0  0  0  0  0  0  0  0  0  0  0
   10.7129  -10.0635  -17.2735 N   0  0  0  0  0  0  0  0  0  0  0  0
   11.7519   -9.5663  -17.9403 C   0  0  0  0  0  0  0  0  0  0  0  0
   11.4393   -8.3705  -18.4401 N   0  0  0  0  0  0  0  0  0  0  0  0
  2  1  1  6  0  0  0
  2  5  1  0  0  0  0
  2  3  1  0  0  0  0
  3 17  1  0  0  0  0
  3  4  1  0  0  0  0
  5  6  1  0  0  0  0
  7  8  1  0  0  0  0
  8  6  1  1  0  0  0
  8  9  1  0  0  0  0
 10  9  1  1  0  0  0
 10 11  1  0  0  0  0
 10 12  1  0  0  0  0
 11 16  1  0  0  0  0
 12 13  1  6  0  0  0
 12 14  1  0  0  0  0
 14 15  1  1  0  0  0
 14 16  1  0  0  0  0
 16 27  1  1  0  0  0
 18 23  2  0  0  0  0
 18 19  1  0  0  0  0
 19 20  2  0  0  0  0
 20 21  1  0  0  0  0
 21 22  2  0  0  0  0
 21 27  1  0  0  0  0
 22 23  1  0  0  0  0
 22 25  1  0  0  0  0
 23 24  1  0  0  0  0
 25 26  2  0  0  0  0
 26 27  1  0  0  0  0
M  END
>  <CHROM.1>
179.61522740,125.70590639,-62.59602201,-71.93067901,-62.41745281,57.43499309
-99.49774492,11.81567734,-9.48548956,-20.26168664,1.14361788,-0.44927167
-2.30544665

>  <Name>
ligand

>  <RI>
0

>  <Rbt.Current_Directory>
/home/itssahil/PROJECTS/Mol_Feturizer/New_Systems/rnas/3E5F

>  <Rbt.Executable>
rbdock ($Id: //depot/dev/client3/rdock/2013.1/src/exe/rbdock.cxx#4 $)

>  <Rbt.Library>
libRbt.so (2013.1, Build901 2013/11/27)

>  <Rbt.Parameter_File>
/export/apps/rDock/src/rDock_2013.1_src/data/scripts/dock_solv.prm

>  <Rbt.Receptor>
prm/pocket_docking_8.prm

>  <SCORE>
-12.8509

>  <SCORE.INTER>
-10.6678

>  <SCORE.INTER.CONST>
1

>  <SCORE.INTER.POLAR>
0

>  <SCORE.INTER.ROT>
7

>  <SCORE.INTER.SOLV>
8.39945

>  <SCORE.INTER.VDW>
-18.1783

>  <SCORE.INTER.norm>
-0.395102

>  <SCORE.INTRA>
-2.18314

>  <SCORE.INTRA.DIHEDRAL>
-1.79451

>  <SCORE.INTRA.DIHEDRAL.0>
4.89803

>  <SCORE.INTRA.POLAR>
0

>  <SCORE.INTRA.POLAR.0>
0

>  <SCORE.INTRA.REPUL>
0

>  <SCORE.INTRA.REPUL.0>
0

>  <SCORE.INTRA.SOLV>
0.0923004

>  <SCORE.INTRA.SOLV.lig_0>
-48.5832

>  <SCORE.INTRA.VDW>
-1.33203

>  <SCORE.INTRA.VDW.0>
-2.39056

>  <SCORE.INTRA.norm>
-0.080857

>  <SCORE.RESTR>
0

>  <SCORE.RESTR.CAVITY>
0

>  <SCORE.RESTR.norm>
0

>  <SCORE.SYSTEM>
0

>  <SCORE.SYSTEM.CONST>
0

>  <SCORE.SYSTEM.DIHEDRAL>
0

>  <SCORE.SYSTEM.SOLV>
0

>  <SCORE.SYSTEM.norm>
0

>  <SCORE.heavy>
27

>  <SCORE.norm>
-0.475959

>  <RMSD>
7.758

$$$$
ligand
 OpenBabel11021811473D
libRbt.so/2013.1/901 2013/11/27
 27 29  0  0  0  0  0  0  0  0999 V2000
   12.2016  -11.7775  -24.3772 N   0  0  0  0  0  0  0  0  0  0  0  0
   11.7033  -11.8736  -22.9973 C   0  0  2  0  0  0  0  0  0  0  0  0
   10.2052  -12.1930  -23.0039 C   0  0  0  0  0  0  0  0  0  0  0  0
    9.5321  -11.7349  -23.9529 O   0  0  0  0  0  0  0  0  0  0  0  0
   11.9296  -10.5328  -22.2965 C   0  0  0  0  0  0  0  0  0  0  0  0
   13.4082  -10.1367  -22.2782 C   0  0  0  0  0  0  0  0  0  0  0  0
   15.2269   -7.9544  -22.2833 C   0  0  0  0  0  0  0  0  0  0  0  0
   13.6404   -8.4681  -21.4931 Se  0  0  2  0  0  0  0  0  0  0  0  0
   14.1707   -8.7454  -19.7329 C   0  0  0  0  0  0  0  0  0  0  0  0
   13.7967   -7.5985  -18.7930 C   0  0  1  0  0  0  0  0  0  0  0  0
   12.3632   -7.4914  -18.7573 O   0  0  0  0  0  0  0  0  0  0  0  0
   14.1886   -8.0258  -17.3781 C   0  0  1  0  0  0  0  0  0  0  0  0
   14.0376   -6.9215  -16.4847 O   0  0  0  0  0  0  0  0  0  0  0  0
   13.0932   -9.0575  -17.1208 C   0  0  1  0  0  0  0  0  0  0  0  0
   12.9441   -9.2283  -15.7102 O   0  0  0  0  0  0  0  0  0  0  0  0
   11.8859   -8.2883  -17.6586 C   0  0  2  0  0  0  0  0  0  0  0  0
    9.7638  -12.8795  -22.0562 O   0  0  0  0  0  0  0  0  0  0  0  0
    7.9973  -11.3289  -16.1493 N   0  0  0  0  0  0  0  0  0  0  0  0
    8.8203  -10.6074  -15.4079 C   0  0  0  0  0  0  0  0  0  0  0  0
    9.7764   -9.8698  -15.9450 N   0  0  0  0  0  0  0  0  0  0  0  0
    9.9400   -9.8283  -17.2760 C   0  0  0  0  0  0  0  0  0  0  0  0
    9.0962  -10.5740  -18.0871 C   0  0  0  0  0  0  0  0  0  0  0  0
    8.1055  -11.3399  -17.4840 C   0  0  0  0  0  0  0  0  0  0  0  0
    7.3029  -12.0974  -18.2251 N   0  0  0  0  0  0  0  0  0  0  0  0
    9.4609  -10.3658  -19.3473 N   0  0  0  0  0  0  0  0  0  0  0  0
   10.4920   -9.5244  -19.3333 C   0  0  0  0  0  0  0  0  0  0  0  0
   10.7891   -9.1926  -18.0767 N   0  0  0  0  0  0  0  0  0  0  0  0
  2  1  1  6  0  0  0
  2  5  1  0  0  0  0
  2  3  1  0  0  0  0
  3 17  1  0  0  0  0
  3  4  1  0  0  0  0
  5  6  1  0  0  0  0
  7  8  1  0  0  0  0
  8  6  1  6  0  0  0
  8  9  1  0  0  0  0
 10  9  1  6  0  0  0
 10 11  1  0  0  0  0
 10 12  1  0  0  0  0
 11 16  1  0  0  0  0
 12 13  1  1  0  0  0
 12 14  1  0  0  0  0
 14 15  1  1  0  0  0
 14 16  1  0  0  0  0
 16 27  1  6  0  0  0
 18 23  2  0  0  0  0
 18 19  1  0  0  0  0
 19 20  2  0  0  0  0
 20 21  1  0  0  0  0
 21 22  2  0  0  0  0
 21 27  1  0  0  0  0
 22 23  1  0  0  0  0
 22 25  1  0  0  0  0
 23 24  1  0  0  0  0
 25 26  2  0  0  0  0
 26 27  1  0  0  0  0
M  END
>  <CHROM.1>
-58.83687278,-32.27840291,177.30261612,-155.17254717,-153.45804516,62.76808321
-163.87874216,11.72400301,-9.67701882,-19.68410907,0.92988615,-0.59491635
-1.89138106

>  <Name>
ligand

>  <RI>
0

>  <Rbt.Current_Directory>
/home/itssahil/PROJECTS/Mol_Feturizer/New_Systems/rnas/3E5F

>  <Rbt.Executable>
rbdock ($Id: //depot/dev/client3/rdock/2013.1/src/exe/rbdock.cxx#4 $)

>  <Rbt.Library>
libRbt.so (2013.1, Build901 2013/11/27)

>  <Rbt.Parameter_File>
/export/apps/rDock/src/rDock_2013.1_src/data/scripts/dock_solv.prm

>  <Rbt.Receptor>
prm/pocket_docking_6.prm

>  <SCORE>
-7.29139

>  <SCORE.INTER>
-7.26328

>  <SCORE.INTER.CONST>
1

>  <SCORE.INTER.POLAR>
0

>  <SCORE.INTER.ROT>
7

>  <SCORE.INTER.SOLV>
8.38458

>  <SCORE.INTER.VDW>
-15.9037

>  <SCORE.INTER.norm>
-0.26901

>  <SCORE.INTRA>
-0.0355

>  <SCORE.INTRA.DIHEDRAL>
0.659374

>  <SCORE.INTRA.DIHEDRAL.0>
4.89803

>  <SCORE.INTRA.POLAR>
0

>  <SCORE.INTRA.POLAR.0>
0

>  <SCORE.INTRA.REPUL>
0

>  <SCORE.INTRA.REPUL.0>
0

>  <SCORE.INTRA.SOLV>
0.773135

>  <SCORE.INTRA.SOLV.lig_0>
-48.5832

>  <SCORE.INTRA.VDW>
-0.751755

>  <SCORE.INTRA.VDW.0>
-2.39056

>  <SCORE.INTRA.norm>
-0.00131482

>  <SCORE.RESTR>
0.00738765

>  <SCORE.RESTR.CAVITY>
0.00738765

>  <SCORE.RESTR.norm>
0.000273617

>  <SCORE.SYSTEM>
0

>  <SCORE.SYSTEM.CONST>
0

>  <SCORE.SYSTEM.DIHEDRAL>
0

>  <SCORE.SYSTEM.SOLV>
0

>  <SCORE.SYSTEM.norm>
0

>  <SCORE.heavy>
27

>  <SCORE.norm>
-0.270051

>  <RMSD>
7.787

$$$$
ligand
 OpenBabel11021811473D
libRbt.so/2013.1/901 2013/11/27
 27 29  0  0  0  0  0  0  0  0999 V2000
   11.4627  -11.5658  -22.1815 N   0  0  0  0  0  0  0  0  0  0  0  0
   12.4212  -11.7485  -23.2814 C   0  0  2  0  0  0  0  0  0  0  0  0
   13.6284  -12.5553  -22.7936 C   0  0  0  0  0  0  0  0  0  0  0  0
   14.3111  -13.1369  -23.6650 O   0  0  0  0  0  0  0  0  0  0  0  0
   12.8931  -10.3737  -23.7580 C   0  0  0  0  0  0  0  0  0  0  0  0
   13.6647   -9.6224  -22.6701 C   0  0  0  0  0  0  0  0  0  0  0  0
   15.1727   -8.2754  -24.6656 C   0  0  0  0  0  0  0  0  0  0  0  0
   14.0856   -7.8984  -23.2228 Se  0  0  2  0  0  0  0  0  0  0  0  0
   15.3058   -7.2014  -22.0057 C   0  0  0  0  0  0  0  0  0  0  0  0
   15.9858   -5.9190  -22.4869 C   0  0  1  0  0  0  0  0  0  0  0  0
   15.0944   -4.8165  -22.2475 O   0  0  0  0  0  0  0  0  0  0  0  0
   17.1763   -5.6626  -21.5620 C   0  0  1  0  0  0  0  0  0  0  0  0
   17.9597   -4.5847  -22.0766 O   0  0  0  0  0  0  0  0  0  0  0  0
   16.4239   -5.2098  -20.3132 C   0  0  1  0  0  0  0  0  0  0  0  0
   17.3111   -4.4478  -19.4925 O   0  0  0  0  0  0  0  0  0  0  0  0
   15.4067   -4.2656  -20.9555 C   0  0  2  0  0  0  0  0  0  0  0  0
   13.8372  -12.5813  -21.5607 O   0  0  0  0  0  0  0  0  0  0  0  0
   12.4177   -1.0177  -18.2795 N   0  0  0  0  0  0  0  0  0  0  0  0
   13.5191   -0.7575  -18.9628 C   0  0  0  0  0  0  0  0  0  0  0  0
   14.1807   -1.7045  -19.6046 N   0  0  0  0  0  0  0  0  0  0  0  0
   13.7468   -2.9738  -19.5842 C   0  0  0  0  0  0  0  0  0  0  0  0
   12.5949   -3.2861  -18.8759 C   0  0  0  0  0  0  0  0  0  0  0  0
   11.9297   -2.2628  -18.2109 C   0  0  0  0  0  0  0  0  0  0  0  0
   10.8448   -2.5293  -17.4902 N   0  0  0  0  0  0  0  0  0  0  0  0
   12.3813   -4.5903  -19.0088 N   0  0  0  0  0  0  0  0  0  0  0  0
   13.3572   -5.0819  -19.7687 C   0  0  0  0  0  0  0  0  0  0  0  0
   14.1917   -4.1044  -20.1230 N   0  0  0  0  0  0  0  0  0  0  0  0
  2  1  1  1  0  0  0
  2  5  1  0  0  0  0
  2  3  1  0  0  0  0
  3 17  1  0  0  0  0
  3  4  1  0  0  0  0
  5  6  1  0  0  0  0
  7  8  1  0  0  0  0
  8  6  1  1  0  0  0
  8  9  1  0  0  0  0
 10  9  1  1  0  0  0
 10 11  1  0  0  0  0
 10 12  1  0  0  0  0
 11 16  1  0  0  0  0
 12 13  1  6  0  0  0
 12 14  1  0  0  0  0
 14 15  1  1  0  0  0
 14 16  1  0  0  0  0
 16 27  1  1  0  0  0
 18 23  2  0  0  0  0
 18 19  1  0  0  0  0
 19 20  2  0  0  0  0
 20 21  1  0  0  0  0
 21 22  2  0  0  0  0
 21 27  1  0  0  0  0
 22 23  1  0  0  0  0
 22 25  1  0  0  0  0
 23 24  1  0  0  0  0
 25 26  2  0  0  0  0
 26 27  1  0  0  0  0
M  END
>  <CHROM.1>
63.97168058,158.64768316,-174.69055206,-62.66066909,167.00610208,80.96932995
-122.17476566,14.16719974,-6.56422793,-21.44411708,1.57142364,-0.44482657
-2.69369115

>  <Name>
ligand

>  <RI>
0

>  <Rbt.Current_Directory>
/home/itssahil/PROJECTS/Mol_Feturizer/New_Systems/rnas/3E5F

>  <Rbt.Executable>
rbdock ($Id: //depot/dev/client3/rdock/2013.1/src/exe/rbdock.cxx#4 $)

>  <Rbt.Library>
libRbt.so (2013.1, Build901 2013/11/27)

>  <Rbt.Parameter_File>
/export/apps/rDock/src/rDock_2013.1_src/data/scripts/dock_solv.prm

>  <Rbt.Receptor>
prm/blind_docking_40.prm

>  <SCORE>
-17.7222

>  <SCORE.INTER>
-19.2441

>  <SCORE.INTER.CONST>
1

>  <SCORE.INTER.POLAR>
0

>  <SCORE.INTER.ROT>
7

>  <SCORE.INTER.SOLV>
13.824

>  <SCORE.INTER.VDW>
-25.7041

>  <SCORE.INTER.norm>
-0.712746

>  <SCORE.INTRA>
1.52199

>  <SCORE.INTRA.DIHEDRAL>
-0.282822

>  <SCORE.INTRA.DIHEDRAL.0>
4.89803

>  <SCORE.INTRA.POLAR>
0

>  <SCORE.INTRA.POLAR.0>
0

>  <SCORE.INTRA.REPUL>
0

>  <SCORE.INTRA.REPUL.0>
0

>  <SCORE.INTRA.SOLV>
0.609142

>  <SCORE.INTRA.SOLV.lig_0>
-48.5832

>  <SCORE.INTRA.VDW>
1.35883

>  <SCORE.INTRA.VDW.0>
-2.39056

>  <SCORE.INTRA.norm>
0.05637

>  <SCORE.RESTR>
0

>  <SCORE.RESTR.CAVITY>
0

>  <SCORE.RESTR.norm>
0

>  <SCORE.SYSTEM>
0

>  <SCORE.SYSTEM.CONST>
0

>  <SCORE.SYSTEM.DIHEDRAL>
0

>  <SCORE.SYSTEM.SOLV>
0

>  <SCORE.SYSTEM.norm>
0

>  <SCORE.heavy>
27

>  <SCORE.norm>
-0.656376

>  <RMSD>
7.791

$$$$
ligand
 OpenBabel11021811473D
libRbt.so/2013.1/901 2013/11/27
 27 29  0  0  0  0  0  0  0  0999 V2000
    6.6993  -13.5116  -19.6032 N   0  0  0  0  0  0  0  0  0  0  0  0
    7.6117  -12.6364  -18.8527 C   0  0  2  0  0  0  0  0  0  0  0  0
    7.2257  -12.6276  -17.3704 C   0  0  0  0  0  0  0  0  0  0  0  0
    8.0912  -12.2273  -16.5616 O   0  0  0  0  0  0  0  0  0  0  0  0
    7.5029  -11.2161  -19.4102 C   0  0  0  0  0  0  0  0  0  0  0  0
    8.5683  -10.2859  -18.8244 C   0  0  0  0  0  0  0  0  0  0  0  0
   11.2782   -9.7470  -18.1634 C   0  0  0  0  0  0  0  0  0  0  0  0
   10.2765  -10.9421  -19.1504 Se  0  0  2  0  0  0  0  0  0  0  0  0
   10.7360  -10.4706  -20.8890 C   0  0  0  0  0  0  0  0  0  0  0  0
   12.1944  -10.7692  -21.2390 C   0  0  1  0  0  0  0  0  0  0  0  0
   12.2788  -12.1255  -21.7091 O   0  0  0  0  0  0  0  0  0  0  0  0
   12.5527   -9.9146  -22.4554 C   0  0  1  0  0  0  0  0  0  0  0  0
   13.9549  -10.0092  -22.7114 O   0  0  0  0  0  0  0  0  0  0  0  0
   11.7753  -10.6746  -23.5272 C   0  0  1  0  0  0  0  0  0  0  0  0
   12.3424  -10.3779  -24.8045 O   0  0  0  0  0  0  0  0  0  0  0  0
   12.1423  -12.1082  -23.1413 C   0  0  2  0  0  0  0  0  0  0  0  0
    6.0784  -13.0300  -17.0769 O   0  0  0  0  0  0  0  0  0  0  0  0
    8.4710  -15.4763  -21.7914 N   0  0  0  0  0  0  0  0  0  0  0  0
    9.2159  -14.7079  -21.0154 C   0  0  0  0  0  0  0  0  0  0  0  0
   10.1234  -13.8863  -21.5134 N   0  0  0  0  0  0  0  0  0  0  0  0
   10.3157  -13.8042  -22.8386 C   0  0  0  0  0  0  0  0  0  0  0  0
    9.5537  -14.5968  -23.6854 C   0  0  0  0  0  0  0  0  0  0  0  0
    8.6123  -15.4508  -23.1228 C   0  0  0  0  0  0  0  0  0  0  0  0
    7.8906  -16.2535  -23.8987 N   0  0  0  0  0  0  0  0  0  0  0  0
    9.9315  -14.3344  -24.9315 N   0  0  0  0  0  0  0  0  0  0  0  0
   10.8921  -13.4149  -24.8747 C   0  0  0  0  0  0  0  0  0  0  0  0
   11.1312  -13.0871  -23.6048 N   0  0  0  0  0  0  0  0  0  0  0  0
  2  1  1  6  0  0  0
  2  5  1  0  0  0  0
  2  3  1  0  0  0  0
  3 17  1  0  0  0  0
  3  4  1  0  0  0  0
  5  6  1  0  0  0  0
  7  8  1  0  0  0  0
  8  6  1  6  0  0  0
  8  9  1  0  0  0  0
 10  9  1  6  0  0  0
 10 11  1  0  0  0  0
 10 12  1  0  0  0  0
 11 16  1  0  0  0  0
 12 13  1  6  0  0  0
 12 14  1  0  0  0  0
 14 15  1  6  0  0  0
 14 16  1  0  0  0  0
 16 27  1  1  0  0  0
 18 23  2  0  0  0  0
 18 19  1  0  0  0  0
 19 20  2  0  0  0  0
 20 21  1  0  0  0  0
 21 22  2  0  0  0  0
 21 27  1  0  0  0  0
 22 23  1  0  0  0  0
 22 25  1  0  0  0  0
 23 24  1  0  0  0  0
 25 26  2  0  0  0  0
 26 27  1  0  0  0  0
M  END
>  <CHROM.1>
-171.55601754,161.73952114,57.61540800,-173.26490576,171.79916001,87.03024217
7.39387741,9.97957019,-12.21688881,-20.98046611,2.30867728,0.71131879,0.95364633

>  <Name>
ligand

>  <RI>
0

>  <Rbt.Current_Directory>
/home/itssahil/PROJECTS/Mol_Feturizer/New_Systems/rnas/3E5F

>  <Rbt.Executable>
rbdock ($Id: //depot/dev/client3/rdock/2013.1/src/exe/rbdock.cxx#4 $)

>  <Rbt.Library>
libRbt.so (2013.1, Build901 2013/11/27)

>  <Rbt.Parameter_File>
/export/apps/rDock/src/rDock_2013.1_src/data/scripts/dock_solv.prm

>  <Rbt.Receptor>
prm/blind_docking_60.prm

>  <SCORE>
-11.1169

>  <SCORE.INTER>
-11.6207

>  <SCORE.INTER.CONST>
1

>  <SCORE.INTER.POLAR>
0

>  <SCORE.INTER.ROT>
7

>  <SCORE.INTER.SOLV>
7.09315

>  <SCORE.INTER.VDW>
-18.3782

>  <SCORE.INTER.norm>
-0.430395

>  <SCORE.INTRA>
-0.027859

>  <SCORE.INTRA.DIHEDRAL>
0.82878

>  <SCORE.INTRA.DIHEDRAL.0>
4.89803

>  <SCORE.INTRA.POLAR>
0

>  <SCORE.INTRA.POLAR.0>
0

>  <SCORE.INTRA.REPUL>
0

>  <SCORE.INTRA.REPUL.0>
0

>  <SCORE.INTRA.SOLV>
1.01679

>  <SCORE.INTRA.SOLV.lig_0>
-48.5832

>  <SCORE.INTRA.VDW>
-0.950643

>  <SCORE.INTRA.VDW.0>
-2.39056

>  <SCORE.INTRA.norm>
-0.00103182

>  <SCORE.RESTR>
0.531599

>  <SCORE.RESTR.CAVITY>
0.531599

>  <SCORE.RESTR.norm>
0.0196889

>  <SCORE.SYSTEM>
0

>  <SCORE.SYSTEM.CONST>
0

>  <SCORE.SYSTEM.DIHEDRAL>
0

>  <SCORE.SYSTEM.SOLV>
0

>  <SCORE.SYSTEM.norm>
0

>  <SCORE.heavy>
27

>  <SCORE.norm>
-0.411738

>  <RMSD>
7.803

$$$$
ligand
 OpenBabel11021811473D
libRbt.so/2013.1/901 2013/11/27
 27 29  0  0  0  0  0  0  0  0999 V2000
    7.9680  -12.7436  -18.1023 N   0  0  0  0  0  0  0  0  0  0  0  0
    7.9480  -13.1219  -19.5229 C   0  0  2  0  0  0  0  0  0  0  0  0
    6.6342  -13.8360  -19.8549 C   0  0  0  0  0  0  0  0  0  0  0  0
    6.1786  -14.6158  -18.9900 O   0  0  0  0  0  0  0  0  0  0  0  0
    9.1189  -14.0670  -19.7983 C   0  0  0  0  0  0  0  0  0  0  0  0
    9.2395  -14.4141  -21.2844 C   0  0  0  0  0  0  0  0  0  0  0  0
    9.2345  -13.5623  -23.9945 C   0  0  0  0  0  0  0  0  0  0  0  0
    9.5311  -12.8869  -22.3029 Se  0  0  2  0  0  0  0  0  0  0  0  0
   11.3640  -12.5780  -22.3384 C   0  0  0  0  0  0  0  0  0  0  0  0
   11.7717  -11.4179  -23.2474 C   0  0  1  0  0  0  0  0  0  0  0  0
   11.1817  -10.2112  -22.7340 O   0  0  0  0  0  0  0  0  0  0  0  0
   13.2778  -11.2158  -23.0767 C   0  0  1  0  0  0  0  0  0  0  0  0
   13.7472  -10.2720  -24.0408 O   0  0  0  0  0  0  0  0  0  0  0  0
   13.2851  -10.5868  -21.6857 C   0  0  1  0  0  0  0  0  0  0  0  0
   14.5032   -9.8598  -21.5158 O   0  0  0  0  0  0  0  0  0  0  0  0
   12.1326   -9.5947  -21.8475 C   0  0  2  0  0  0  0  0  0  0  0  0
    6.1190  -13.5948  -20.9687 O   0  0  0  0  0  0  0  0  0  0  0  0
   11.0403   -5.8360  -18.4824 N   0  0  0  0  0  0  0  0  0  0  0  0
   11.6505   -5.7491  -19.6519 C   0  0  0  0  0  0  0  0  0  0  0  0
   11.8588   -6.8117  -20.4096 N   0  0  0  0  0  0  0  0  0  0  0  0
   11.4487   -8.0252  -20.0107 C   0  0  0  0  0  0  0  0  0  0  0  0
   10.8057   -8.1564  -18.7879 C   0  0  0  0  0  0  0  0  0  0  0  0
   10.6089   -7.0158  -18.0184 C   0  0  0  0  0  0  0  0  0  0  0  0
   10.0316   -7.1070  -16.8244 N   0  0  0  0  0  0  0  0  0  0  0  0
   10.5060   -9.4403  -18.6259 N   0  0  0  0  0  0  0  0  0  0  0  0
   10.9415  -10.0932  -19.7008 C   0  0  0  0  0  0  0  0  0  0  0  0
   11.5159   -9.2390  -20.5480 N   0  0  0  0  0  0  0  0  0  0  0  0
  2  1  1  1  0  0  0
  2  5  1  0  0  0  0
  2  3  1  0  0  0  0
  3 17  1  0  0  0  0
  3  4  1  0  0  0  0
  5  6  1  0  0  0  0
  7  8  1  0  0  0  0
  8  6  1  1  0  0  0
  8  9  1  0  0  0  0
 10  9  1  1  0  0  0
 10 11  1  0  0  0  0
 10 12  1  0  0  0  0
 11 16  1  0  0  0  0
 12 13  1  6  0  0  0
 12 14  1  0  0  0  0
 14 15  1  6  0  0  0
 14 16  1  0  0  0  0
 16 27  1  1  0  0  0
 18 23  2  0  0  0  0
 18 19  1  0  0  0  0
 19 20  2  0  0  0  0
 20 21  1  0  0  0  0
 21 22  2  0  0  0  0
 21 27  1  0  0  0  0
 22 23  1  0  0  0  0
 22 25  1  0  0  0  0
 23 24  1  0  0  0  0
 25 26  2  0  0  0  0
 26 27  1  0  0  0  0
M  END
>  <CHROM.1>
-175.12936564,-38.30985966,60.72657710,-167.41806878,174.84207396,62.77166432
-121.27317009,10.34488871,-11.00998050,-20.91038789,2.29101504,-0.67620343
-2.43580435

>  <Name>
ligand

>  <RI>
0

>  <Rbt.Current_Directory>
/home/itssahil/PROJECTS/Mol_Feturizer/New_Systems/rnas/3E5F

>  <Rbt.Executable>
rbdock ($Id: //depot/dev/client3/rdock/2013.1/src/exe/rbdock.cxx#4 $)

>  <Rbt.Library>
libRbt.so (2013.1, Build901 2013/11/27)

>  <Rbt.Parameter_File>
/export/apps/rDock/src/rDock_2013.1_src/data/scripts/dock_solv.prm

>  <Rbt.Receptor>
prm/pocket_docking_8.prm

>  <SCORE>
-14.8632

>  <SCORE.INTER>
-13.6356

>  <SCORE.INTER.CONST>
1

>  <SCORE.INTER.POLAR>
0

>  <SCORE.INTER.ROT>
7

>  <SCORE.INTER.SOLV>
7.67236

>  <SCORE.INTER.VDW>
-19.9145

>  <SCORE.INTER.norm>
-0.505021

>  <SCORE.INTRA>
-1.22764

>  <SCORE.INTRA.DIHEDRAL>
-1.27892

>  <SCORE.INTRA.DIHEDRAL.0>
4.89803

>  <SCORE.INTRA.POLAR>
0

>  <SCORE.INTRA.POLAR.0>
0

>  <SCORE.INTRA.REPUL>
0

>  <SCORE.INTRA.REPUL.0>
0

>  <SCORE.INTRA.SOLV>
-0.0129016

>  <SCORE.INTRA.SOLV.lig_0>
-48.5832

>  <SCORE.INTRA.VDW>
-0.581726

>  <SCORE.INTRA.VDW.0>
-2.39056

>  <SCORE.INTRA.norm>
-0.045468

>  <SCORE.RESTR>
0

>  <SCORE.RESTR.CAVITY>
0

>  <SCORE.RESTR.norm>
0

>  <SCORE.SYSTEM>
0

>  <SCORE.SYSTEM.CONST>
0

>  <SCORE.SYSTEM.DIHEDRAL>
0

>  <SCORE.SYSTEM.SOLV>
0

>  <SCORE.SYSTEM.norm>
0

>  <SCORE.heavy>
27

>  <SCORE.norm>
-0.550489

>  <RMSD>
7.837

$$$$
ligand
 OpenBabel11021811473D
libRbt.so/2013.1/901 2013/11/27
 27 29  0  0  0  0  0  0  0  0999 V2000
   14.4115   -8.3313  -25.1208 N   0  0  0  0  0  0  0  0  0  0  0  0
   14.5228   -9.3087  -24.0280 C   0  0  2  0  0  0  0  0  0  0  0  0
   13.5520  -10.4696  -24.2647 C   0  0  0  0  0  0  0  0  0  0  0  0
   12.4720  -10.1985  -24.8335 O   0  0  0  0  0  0  0  0  0  0  0  0
   14.1698   -8.6173  -22.7100 C   0  0  0  0  0  0  0  0  0  0  0  0
   14.5673   -9.4596  -21.4951 C   0  0  0  0  0  0  0  0  0  0  0  0
   12.2125   -8.3925  -20.3176 C   0  0  0  0  0  0  0  0  0  0  0  0
   13.9933   -8.6634  -19.9167 Se  0  0  2  0  0  0  0  0  0  0  0  0
   14.6429   -6.9216  -19.8988 C   0  0  0  0  0  0  0  0  0  0  0  0
   14.4315   -6.1759  -21.2170 C   0  0  1  0  0  0  0  0  0  0  0  0
   13.4580   -5.1400  -21.0002 O   0  0  0  0  0  0  0  0  0  0  0  0
   15.7290   -5.4290  -21.5285 C   0  0  1  0  0  0  0  0  0  0  0  0
   15.6564   -4.8686  -22.8404 O   0  0  0  0  0  0  0  0  0  0  0  0
   15.6318   -4.3211  -20.4828 C   0  0  1  0  0  0  0  0  0  0  0  0
   16.4524   -3.2264  -20.8945 O   0  0  0  0  0  0  0  0  0  0  0  0
   14.1626   -3.9337  -20.6562 C   0  0  2  0  0  0  0  0  0  0  0  0
   13.9059  -11.6003  -23.8639 O   0  0  0  0  0  0  0  0  0  0  0  0
   13.5910    0.4085  -17.9244 N   0  0  0  0  0  0  0  0  0  0  0  0
   14.2027    0.2335  -19.0832 C   0  0  0  0  0  0  0  0  0  0  0  0
   14.2653   -0.9511  -19.6659 N   0  0  0  0  0  0  0  0  0  0  0  0
   13.6999   -2.0242  -19.0927 C   0  0  0  0  0  0  0  0  0  0  0  0
   13.0502   -1.8801  -17.8749 C   0  0  0  0  0  0  0  0  0  0  0  0
   13.0092   -0.6188  -17.2924 C   0  0  0  0  0  0  0  0  0  0  0  0
   12.4298   -0.4485  -16.1081 N   0  0  0  0  0  0  0  0  0  0  0  0
   12.5839   -3.0731  -17.5232 N   0  0  0  0  0  0  0  0  0  0  0  0
   12.9248   -3.9351  -18.4783 C   0  0  0  0  0  0  0  0  0  0  0  0
   13.6037   -3.3044  -19.4367 N   0  0  0  0  0  0  0  0  0  0  0  0
  2  1  1  6  0  0  0
  2  5  1  0  0  0  0
  2  3  1  0  0  0  0
  3 17  1  0  0  0  0
  3  4  1  0  0  0  0
  5  6  1  0  0  0  0
  7  8  1  0  0  0  0
  8  6  1  6  0  0  0
  8  9  1  0  0  0  0
 10  9  1  1  0  0  0
 10 11  1  0  0  0  0
 10 12  1  0  0  0  0
 11 16  1  0  0  0  0
 12 13  1  6  0  0  0
 12 14  1  0  0  0  0
 14 15  1  6  0  0  0
 14 16  1  0  0  0  0
 16 27  1  1  0  0  0
 18 23  2  0  0  0  0
 18 19  1  0  0  0  0
 19 20  2  0  0  0  0
 20 21  1  0  0  0  0
 21 22  2  0  0  0  0
 21 27  1  0  0  0  0
 22 23  1  0  0  0  0
 22 25  1  0  0  0  0
 23 24  1  0  0  0  0
 25 26  2  0  0  0  0
 26 27  1  0  0  0  0
M  END
>  <CHROM.1>
-166.80317125,-33.06714442,-175.04557026,51.91291115,46.52370761,111.14424968
-156.60040772,13.98847654,-5.82151768,-20.61189699,-1.49792939,1.14912462
0.43160352

>  <Name>
ligand

>  <RI>
0

>  <Rbt.Current_Directory>
/home/itssahil/PROJECTS/Mol_Feturizer/New_Systems/rnas/3E5F

>  <Rbt.Executable>
rbdock ($Id: //depot/dev/client3/rdock/2013.1/src/exe/rbdock.cxx#4 $)

>  <Rbt.Library>
libRbt.so (2013.1, Build901 2013/11/27)

>  <Rbt.Parameter_File>
/export/apps/rDock/src/rDock_2013.1_src/data/scripts/dock_solv.prm

>  <Rbt.Receptor>
prm/blind_docking_80.prm

>  <SCORE>
-7.37739

>  <SCORE.INTER>
-11.5975

>  <SCORE.INTER.CONST>
1

>  <SCORE.INTER.POLAR>
0

>  <SCORE.INTER.ROT>
7

>  <SCORE.INTER.SOLV>
19.6638

>  <SCORE.INTER.VDW>
-22.5529

>  <SCORE.INTER.norm>
-0.429536

>  <SCORE.INTRA>
3.79886

>  <SCORE.INTRA.DIHEDRAL>
3.59268

>  <SCORE.INTRA.DIHEDRAL.0>
4.89803

>  <SCORE.INTRA.POLAR>
0

>  <SCORE.INTRA.POLAR.0>
0

>  <SCORE.INTRA.REPUL>
0

>  <SCORE.INTRA.REPUL.0>
0

>  <SCORE.INTRA.SOLV>
0.393294

>  <SCORE.INTRA.SOLV.lig_0>
-48.5832

>  <SCORE.INTRA.VDW>
1.80588

>  <SCORE.INTRA.VDW.0>
-2.39056

>  <SCORE.INTRA.norm>
0.140699

>  <SCORE.RESTR>
0.421213

>  <SCORE.RESTR.CAVITY>
0.421213

>  <SCORE.RESTR.norm>
0.0156005

>  <SCORE.SYSTEM>
0

>  <SCORE.SYSTEM.CONST>
0

>  <SCORE.SYSTEM.DIHEDRAL>
0

>  <SCORE.SYSTEM.SOLV>
0

>  <SCORE.SYSTEM.norm>
0

>  <SCORE.heavy>
27

>  <SCORE.norm>
-0.273237

>  <RMSD>
7.866

$$$$
ligand
 OpenBabel11021811473D
libRbt.so/2013.1/901 2013/11/27
 27 29  0  0  0  0  0  0  0  0999 V2000
   13.6540  -11.9776  -23.4296 N   0  0  0  0  0  0  0  0  0  0  0  0
   12.6791  -10.9066  -23.1760 C   0  0  2  0  0  0  0  0  0  0  0  0
   11.3184  -11.2881  -23.7671 C   0  0  0  0  0  0  0  0  0  0  0  0
   10.3134  -10.7154  -23.2921 O   0  0  0  0  0  0  0  0  0  0  0  0
   13.1746   -9.6210  -23.8405 C   0  0  0  0  0  0  0  0  0  0  0  0
   14.3362   -8.9873  -23.0706 C   0  0  0  0  0  0  0  0  0  0  0  0
   15.5290   -7.7173  -25.3144 C   0  0  0  0  0  0  0  0  0  0  0  0
   14.7130   -7.2857  -23.7164 Se  0  0  2  0  0  0  0  0  0  0  0  0
   16.1425   -6.6169  -22.7339 C   0  0  0  0  0  0  0  0  0  0  0  0
   15.7197   -5.8772  -21.4640 C   0  0  1  0  0  0  0  0  0  0  0  0
   16.8101   -5.9248  -20.5278 O   0  0  0  0  0  0  0  0  0  0  0  0
   15.5835   -4.3976  -21.8252 C   0  0  1  0  0  0  0  0  0  0  0  0
   15.0085   -3.6872  -20.7274 O   0  0  0  0  0  0  0  0  0  0  0  0
   17.0617   -4.0406  -21.9597 C   0  0  1  0  0  0  0  0  0  0  0  0
   17.2105   -2.6288  -21.7987 O   0  0  0  0  0  0  0  0  0  0  0  0
   17.6087   -4.7430  -20.7163 C   0  0  2  0  0  0  0  0  0  0  0  0
   11.3112  -12.1500  -24.6734 O   0  0  0  0  0  0  0  0  0  0  0  0
   21.8276   -6.6248  -18.4132 N   0  0  0  0  0  0  0  0  0  0  0  0
   20.6071   -6.4902  -17.9236 C   0  0  0  0  0  0  0  0  0  0  0  0
   19.6193   -5.9874  -18.6435 N   0  0  0  0  0  0  0  0  0  0  0  0
   19.8280   -5.5968  -19.9099 C   0  0  0  0  0  0  0  0  0  0  0  0
   21.0969   -5.7210  -20.4582 C   0  0  0  0  0  0  0  0  0  0  0  0
   22.1099   -6.2508  -19.6677 C   0  0  0  0  0  0  0  0  0  0  0  0
   23.3469   -6.3496  -20.1447 N   0  0  0  0  0  0  0  0  0  0  0  0
   21.0427   -5.2692  -21.7061 N   0  0  0  0  0  0  0  0  0  0  0  0
   19.7923   -4.8756  -21.9368 C   0  0  0  0  0  0  0  0  0  0  0  0
   19.0473   -5.0721  -20.8488 N   0  0  0  0  0  0  0  0  0  0  0  0
  2  1  1  6  0  0  0
  2  5  1  0  0  0  0
  2  3  1  0  0  0  0
  3 17  1  0  0  0  0
  3  4  1  0  0  0  0
  5  6  1  0  0  0  0
  7  8  1  0  0  0  0
  8  6  1  1  0  0  0
  8  9  1  0  0  0  0
 10  9  1  6  0  0  0
 10 11  1  0  0  0  0
 10 12  1  0  0  0  0
 11 16  1  0  0  0  0
 12 13  1  1  0  0  0
 12 14  1  0  0  0  0
 14 15  1  1  0  0  0
 14 16  1  0  0  0  0
 16 27  1  6  0  0  0
 18 23  2  0  0  0  0
 18 19  1  0  0  0  0
 19 20  2  0  0  0  0
 20 21  1  0  0  0  0
 21 22  2  0  0  0  0
 21 27  1  0  0  0  0
 22 23  1  0  0  0  0
 22 25  1  0  0  0  0
 23 24  1  0  0  0  0
 25 26  2  0  0  0  0
 26 27  1  0  0  0  0
M  END
>  <CHROM.1>
-74.40612619,158.09519656,-169.76484959,-73.56903383,-88.52192220,155.14459237
-65.51493180,16.46691304,-6.99390182,-22.04123093,-2.65267151,-0.45561252
-0.00505107

>  <Name>
ligand

>  <RI>
0

>  <Rbt.Current_Directory>
/home/itssahil/PROJECTS/Mol_Feturizer/New_Systems/rnas/3E5F

>  <Rbt.Executable>
rbdock ($Id: //depot/dev/client3/rdock/2013.1/src/exe/rbdock.cxx#4 $)

>  <Rbt.Library>
libRbt.so (2013.1, Build901 2013/11/27)

>  <Rbt.Parameter_File>
/export/apps/rDock/src/rDock_2013.1_src/data/scripts/dock_solv.prm

>  <Rbt.Receptor>
prm/pocket_docking_8.prm

>  <SCORE>
-17.4737

>  <SCORE.INTER>
-19.4352

>  <SCORE.INTER.CONST>
1

>  <SCORE.INTER.POLAR>
0

>  <SCORE.INTER.ROT>
7

>  <SCORE.INTER.SOLV>
13.4068

>  <SCORE.INTER.VDW>
-25.6924

>  <SCORE.INTER.norm>
-0.719822

>  <SCORE.INTRA>
1.96147

>  <SCORE.INTRA.DIHEDRAL>
1.71807

>  <SCORE.INTRA.DIHEDRAL.0>
4.89803

>  <SCORE.INTRA.POLAR>
0

>  <SCORE.INTRA.POLAR.0>
0

>  <SCORE.INTRA.REPUL>
0

>  <SCORE.INTRA.REPUL.0>
0

>  <SCORE.INTRA.SOLV>
0.548396

>  <SCORE.INTRA.SOLV.lig_0>
-48.5832

>  <SCORE.INTRA.VDW>
0.82824

>  <SCORE.INTRA.VDW.0>
-2.39056

>  <SCORE.INTRA.norm>
0.0726471

>  <SCORE.RESTR>
0

>  <SCORE.RESTR.CAVITY>
0

>  <SCORE.RESTR.norm>
0

>  <SCORE.SYSTEM>
0

>  <SCORE.SYSTEM.CONST>
0

>  <SCORE.SYSTEM.DIHEDRAL>
0

>  <SCORE.SYSTEM.SOLV>
0

>  <SCORE.SYSTEM.norm>
0

>  <SCORE.heavy>
27

>  <SCORE.norm>
-0.647175

>  <RMSD>
8.016

$$$$
ligand
 OpenBabel11021811473D
libRbt.so/2013.1/901 2013/11/27
 27 29  0  0  0  0  0  0  0  0999 V2000
    6.7439  -10.7441  -17.3982 N   0  0  0  0  0  0  0  0  0  0  0  0
    6.8963  -10.5178  -18.8430 C   0  0  2  0  0  0  0  0  0  0  0  0
    5.8581  -11.3398  -19.6129 C   0  0  0  0  0  0  0  0  0  0  0  0
    5.0070  -10.7037  -20.2721 O   0  0  0  0  0  0  0  0  0  0  0  0
    8.2998  -10.9556  -19.2656 C   0  0  0  0  0  0  0  0  0  0  0  0
    9.3908  -10.1458  -18.5602 C   0  0  0  0  0  0  0  0  0  0  0  0
   12.1243   -9.6880  -17.9369 C   0  0  0  0  0  0  0  0  0  0  0  0
   11.0778  -10.8222  -18.9488 Se  0  0  2  0  0  0  0  0  0  0  0  0
   11.5108  -10.2904  -20.6768 C   0  0  0  0  0  0  0  0  0  0  0  0
   12.6853  -11.0630  -21.2788 C   0  0  1  0  0  0  0  0  0  0  0  0
   12.3212  -12.4519  -21.3570 O   0  0  0  0  0  0  0  0  0  0  0  0
   12.8233  -10.6161  -22.7346 C   0  0  1  0  0  0  0  0  0  0  0  0
   14.0196  -11.1623  -23.2923 O   0  0  0  0  0  0  0  0  0  0  0  0
   11.6045  -11.3209  -23.3246 C   0  0  1  0  0  0  0  0  0  0  0  0
   11.7951  -11.4685  -24.7328 O   0  0  0  0  0  0  0  0  0  0  0  0
   11.7520  -12.6889  -22.6570 C   0  0  2  0  0  0  0  0  0  0  0  0
    5.9316  -12.5848  -19.5184 O   0  0  0  0  0  0  0  0  0  0  0  0
    8.1618  -14.7117  -19.5484 N   0  0  0  0  0  0  0  0  0  0  0  0
    9.2769  -14.0798  -19.2246 C   0  0  0  0  0  0  0  0  0  0  0  0
   10.1043  -13.6122  -20.1430 N   0  0  0  0  0  0  0  0  0  0  0  0
    9.8319  -13.7640  -21.4478 C   0  0  0  0  0  0  0  0  0  0  0  0
    8.6711  -14.4237  -21.8266 C   0  0  0  0  0  0  0  0  0  0  0  0
    7.8286  -14.9042  -20.8310 C   0  0  0  0  0  0  0  0  0  0  0  0
    6.7274  -15.5750  -21.1543 N   0  0  0  0  0  0  0  0  0  0  0  0
    8.6340  -14.4438  -23.1542 N   0  0  0  0  0  0  0  0  0  0  0  0
    9.7254  -13.8233  -23.5960 C   0  0  0  0  0  0  0  0  0  0  0  0
   10.4590  -13.4066  -22.5638 N   0  0  0  0  0  0  0  0  0  0  0  0
  2  1  1  1  0  0  0
  2  5  1  0  0  0  0
  2  3  1  0  0  0  0
  3 17  1  0  0  0  0
  3  4  1  0  0  0  0
  5  6  1  0  0  0  0
  7  8  1  0  0  0  0
  8  6  1  1  0  0  0
  8  9  1  0  0  0  0
 10  9  1  6  0  0  0
 10 11  1  0  0  0  0
 10 12  1  0  0  0  0
 11 16  1  0  0  0  0
 12 13  1  6  0  0  0
 12 14  1  0  0  0  0
 14 15  1  6  0  0  0
 14 16  1  0  0  0  0
 16 27  1  1  0  0  0
 18 23  2  0  0  0  0
 18 19  1  0  0  0  0
 19 20  2  0  0  0  0
 20 21  1  0  0  0  0
 21 22  2  0  0  0  0
 21 27  1  0  0  0  0
 22 23  1  0  0  0  0
 22 25  1  0  0  0  0
 23 24  1  0  0  0  0
 25 26  2  0  0  0  0
 26 27  1  0  0  0  0
M  END
>  <CHROM.1>
-61.51357592,116.28995886,173.74310761,-178.47304081,-164.63638540,61.82071258
2.52655432,9.84404738,-12.00747681,-20.59647988,-2.89965189,-0.40898555,-2.25087836

>  <Name>
ligand

>  <RI>
0

>  <Rbt.Current_Directory>
/home/itssahil/PROJECTS/Mol_Feturizer/New_Systems/rnas/3E5F

>  <Rbt.Executable>
rbdock ($Id: //depot/dev/client3/rdock/2013.1/src/exe/rbdock.cxx#4 $)

>  <Rbt.Library>
libRbt.so (2013.1, Build901 2013/11/27)

>  <Rbt.Parameter_File>
/export/apps/rDock/src/rDock_2013.1_src/data/scripts/dock_solv.prm

>  <Rbt.Receptor>
prm/blind_docking_40.prm

>  <SCORE>
-16.248

>  <SCORE.INTER>
-14.4095

>  <SCORE.INTER.CONST>
1

>  <SCORE.INTER.POLAR>
0

>  <SCORE.INTER.ROT>
7

>  <SCORE.INTER.SOLV>
7.99392

>  <SCORE.INTER.VDW>
-20.5376

>  <SCORE.INTER.norm>
-0.533685

>  <SCORE.INTRA>
-1.8385

>  <SCORE.INTRA.DIHEDRAL>
-0.948872

>  <SCORE.INTRA.DIHEDRAL.0>
4.89803

>  <SCORE.INTRA.POLAR>
0

>  <SCORE.INTRA.POLAR.0>
0

>  <SCORE.INTRA.REPUL>
0

>  <SCORE.INTRA.REPUL.0>
0

>  <SCORE.INTRA.SOLV>
1.18358

>  <SCORE.INTRA.SOLV.lig_0>
-48.5832

>  <SCORE.INTRA.VDW>
-1.95586

>  <SCORE.INTRA.VDW.0>
-2.39056

>  <SCORE.INTRA.norm>
-0.0680928

>  <SCORE.RESTR>
0

>  <SCORE.RESTR.CAVITY>
0

>  <SCORE.RESTR.norm>
0

>  <SCORE.SYSTEM>
0

>  <SCORE.SYSTEM.CONST>
0

>  <SCORE.SYSTEM.DIHEDRAL>
0

>  <SCORE.SYSTEM.SOLV>
0

>  <SCORE.SYSTEM.norm>
0

>  <SCORE.heavy>
27

>  <SCORE.norm>
-0.601777

>  <RMSD>
8.052

$$$$
ligand
 OpenBabel11021811473D
libRbt.so/2013.1/901 2013/11/27
 27 29  0  0  0  0  0  0  0  0999 V2000
   12.8271   -8.8840  -18.6732 N   0  0  0  0  0  0  0  0  0  0  0  0
   13.3860   -9.8719  -19.6077 C   0  0  2  0  0  0  0  0  0  0  0  0
   14.0248   -9.1576  -20.8027 C   0  0  0  0  0  0  0  0  0  0  0  0
   13.2786   -8.4294  -21.4929 O   0  0  0  0  0  0  0  0  0  0  0  0
   12.2559  -10.7747  -20.1055 C   0  0  0  0  0  0  0  0  0  0  0  0
   12.7795  -11.9334  -20.9579 C   0  0  0  0  0  0  0  0  0  0  0  0
   10.5629  -11.8521  -22.7329 C   0  0  0  0  0  0  0  0  0  0  0  0
   11.3832  -13.0074  -21.5506 Se  0  0  2  0  0  0  0  0  0  0  0  0
   10.1269  -13.0992  -20.1833 C   0  0  0  0  0  0  0  0  0  0  0  0
    9.4367  -14.4597  -20.0766 C   0  0  1  0  0  0  0  0  0  0  0  0
    8.7142  -14.5047  -18.8341 O   0  0  0  0  0  0  0  0  0  0  0  0
    8.3544  -14.5048  -21.1559 C   0  0  1  0  0  0  0  0  0  0  0  0
    7.8042  -15.8210  -21.2283 O   0  0  0  0  0  0  0  0  0  0  0  0
    7.3414  -13.5507  -20.5281 C   0  0  1  0  0  0  0  0  0  0  0  0
    6.0537  -13.8128  -21.0886 O   0  0  0  0  0  0  0  0  0  0  0  0
    7.3692  -14.0605  -19.0865 C   0  0  2  0  0  0  0  0  0  0  0  0
   15.2418   -9.3621  -21.0060 O   0  0  0  0  0  0  0  0  0  0  0  0
    7.8670   -9.1622  -17.5361 N   0  0  0  0  0  0  0  0  0  0  0  0
    8.4589   -9.7753  -18.5467 C   0  0  0  0  0  0  0  0  0  0  0  0
    8.2263  -11.0466  -18.8229 N   0  0  0  0  0  0  0  0  0  0  0  0
    7.3689  -11.7609  -18.0782 C   0  0  0  0  0  0  0  0  0  0  0  0
    6.7295  -11.1520  -17.0075 C   0  0  0  0  0  0  0  0  0  0  0  0
    7.0036   -9.8145  -16.7471 C   0  0  0  0  0  0  0  0  0  0  0  0
    6.4403   -9.2074  -15.7073 N   0  0  0  0  0  0  0  0  0  0  0  0
    5.9450  -12.0598  -16.4374 N   0  0  0  0  0  0  0  0  0  0  0  0
    6.0830  -13.1947  -17.1189 C   0  0  0  0  0  0  0  0  0  0  0  0
    6.9474  -13.0207  -18.1188 N   0  0  0  0  0  0  0  0  0  0  0  0
  2  1  1  1  0  0  0
  2  5  1  0  0  0  0
  2  3  1  0  0  0  0
  3 17  1  0  0  0  0
  3  4  1  0  0  0  0
  5  6  1  0  0  0  0
  7  8  1  0  0  0  0
  8  6  1  1  0  0  0
  8  9  1  0  0  0  0
 10  9  1  1  0  0  0
 10 11  1  0  0  0  0
 10 12  1  0  0  0  0
 11 16  1  0  0  0  0
 12 13  1  1  0  0  0
 12 14  1  0  0  0  0
 14 15  1  6  0  0  0
 14 16  1  0  0  0  0
 16 27  1  1  0  0  0
 18 23  2  0  0  0  0
 18 19  1  0  0  0  0
 19 20  2  0  0  0  0
 20 21  1  0  0  0  0
 21 22  2  0  0  0  0
 21 27  1  0  0  0  0
 22 23  1  0  0  0  0
 22 25  1  0  0  0  0
 23 24  1  0  0  0  0
 25 26  2  0  0  0  0
 26 27  1  0  0  0  0
M  END
>  <CHROM.1>
-173.37903396,-59.76473747,-179.83476233,68.80339395,-144.37369820,167.91919550
72.22472250,9.69219993,-11.96088128,-19.76869064,-0.02079375,0.50065422,0.62513157

>  <Name>
ligand

>  <RI>
0

>  <Rbt.Current_Directory>
/home/itssahil/PROJECTS/Mol_Feturizer/New_Systems/rnas/3E5F

>  <Rbt.Executable>
rbdock ($Id: //depot/dev/client3/rdock/2013.1/src/exe/rbdock.cxx#4 $)

>  <Rbt.Library>
libRbt.so (2013.1, Build901 2013/11/27)

>  <Rbt.Parameter_File>
/export/apps/rDock/src/rDock_2013.1_src/data/scripts/dock_solv.prm

>  <Rbt.Receptor>
prm/pocket_docking_8.prm

>  <SCORE>
-12.7154

>  <SCORE.INTER>
-13.1991

>  <SCORE.INTER.CONST>
1

>  <SCORE.INTER.POLAR>
0

>  <SCORE.INTER.ROT>
7

>  <SCORE.INTER.SOLV>
7.9406

>  <SCORE.INTER.VDW>
-19.713

>  <SCORE.INTER.norm>
-0.488857

>  <SCORE.INTRA>
0.483759

>  <SCORE.INTRA.DIHEDRAL>
0.850065

>  <SCORE.INTRA.DIHEDRAL.0>
4.89803

>  <SCORE.INTRA.POLAR>
0

>  <SCORE.INTRA.POLAR.0>
0

>  <SCORE.INTRA.REPUL>
0

>  <SCORE.INTRA.REPUL.0>
0

>  <SCORE.INTRA.SOLV>
-0.0780693

>  <SCORE.INTRA.SOLV.lig_0>
-48.5832

>  <SCORE.INTRA.VDW>
0.0977616

>  <SCORE.INTRA.VDW.0>
-2.39056

>  <SCORE.INTRA.norm>
0.017917

>  <SCORE.RESTR>
0

>  <SCORE.RESTR.CAVITY>
0

>  <SCORE.RESTR.norm>
0

>  <SCORE.SYSTEM>
0

>  <SCORE.SYSTEM.CONST>
0

>  <SCORE.SYSTEM.DIHEDRAL>
0

>  <SCORE.SYSTEM.SOLV>
0

>  <SCORE.SYSTEM.norm>
0

>  <SCORE.heavy>
27

>  <SCORE.norm>
-0.47094

>  <RMSD>
8.070

$$$$
ligand
 OpenBabel11021811473D
libRbt.so/2013.1/901 2013/11/27
 27 29  0  0  0  0  0  0  0  0999 V2000
    8.7123  -13.5278  -18.7149 N   0  0  0  0  0  0  0  0  0  0  0  0
    7.4990  -12.7997  -18.3154 C   0  0  2  0  0  0  0  0  0  0  0  0
    6.2736  -13.7070  -18.4609 C   0  0  0  0  0  0  0  0  0  0  0  0
    6.3684  -14.6637  -19.2605 O   0  0  0  0  0  0  0  0  0  0  0  0
    7.3339  -11.5802  -19.2240 C   0  0  0  0  0  0  0  0  0  0  0  0
    8.3341  -10.4719  -18.8853 C   0  0  0  0  0  0  0  0  0  0  0  0
   10.9967   -9.7870  -18.1697 C   0  0  0  0  0  0  0  0  0  0  0  0
   10.0806  -11.0443  -19.1625 Se  0  0  2  0  0  0  0  0  0  0  0  0
   10.5568  -10.5725  -20.8965 C   0  0  0  0  0  0  0  0  0  0  0  0
   12.0340  -10.8110  -21.2120 C   0  0  1  0  0  0  0  0  0  0  0  0
   12.1799  -12.1519  -21.7104 O   0  0  0  0  0  0  0  0  0  0  0  0
   12.3947   -9.9156  -22.3979 C   0  0  1  0  0  0  0  0  0  0  0  0
   13.8058   -9.9545  -22.6162 O   0  0  0  0  0  0  0  0  0  0  0  0
   11.6747  -10.6767  -23.5083 C   0  0  1  0  0  0  0  0  0  0  0  0
   12.2656  -10.3298  -24.7619 O   0  0  0  0  0  0  0  0  0  0  0  0
   12.0822  -12.1052  -23.1451 C   0  0  2  0  0  0  0  0  0  0  0  0
    5.2662  -13.4196  -17.7777 O   0  0  0  0  0  0  0  0  0  0  0  0
    8.5183  -15.6515  -21.9756 N   0  0  0  0  0  0  0  0  0  0  0  0
    9.2164  -14.8788  -21.1612 C   0  0  0  0  0  0  0  0  0  0  0  0
   10.1012  -14.0082  -21.6148 N   0  0  0  0  0  0  0  0  0  0  0  0
   10.3175  -13.8787  -22.9325 C   0  0  0  0  0  0  0  0  0  0  0  0
    9.6048  -14.6741  -23.8187 C   0  0  0  0  0  0  0  0  0  0  0  0
    8.6861  -15.5803  -23.3023 C   0  0  0  0  0  0  0  0  0  0  0  0
    8.0126  -16.3863  -24.1171 N   0  0  0  0  0  0  0  0  0  0  0  0
    9.9978  -14.3596  -25.0480 N   0  0  0  0  0  0  0  0  0  0  0  0
   10.9203  -13.4060  -24.9432 C   0  0  0  0  0  0  0  0  0  0  0  0
   11.1200  -13.1079  -23.6592 N   0  0  0  0  0  0  0  0  0  0  0  0
  2  1  1  6  0  0  0
  2  5  1  0  0  0  0
  2  3  1  0  0  0  0
  3 17  1  0  0  0  0
  3  4  1  0  0  0  0
  5  6  1  0  0  0  0
  7  8  1  0  0  0  0
  8  6  1  6  0  0  0
  8  9  1  0  0  0  0
 10  9  1  6  0  0  0
 10 11  1  0  0  0  0
 10 12  1  0  0  0  0
 11 16  1  0  0  0  0
 12 13  1  6  0  0  0
 12 14  1  0  0  0  0
 14 15  1  6  0  0  0
 14 16  1  0  0  0  0
 16 27  1  1  0  0  0
 18 23  2  0  0  0  0
 18 19  1  0  0  0  0
 19 20  2  0  0  0  0
 20 21  1  0  0  0  0
 21 22  2  0  0  0  0
 21 27  1  0  0  0  0
 22 23  1  0  0  0  0
 22 25  1  0  0  0  0
 23 24  1  0  0  0  0
 25 26  2  0  0  0  0
 26 27  1  0  0  0  0
M  END
>  <CHROM.1>
-74.01930827,-23.27167766,63.01740081,-161.87243637,172.24914571,89.11700075
6.83597463,9.84264365,-12.42192679,-21.11971902,2.64648013,0.71287644,0.91219122

>  <Name>
ligand

>  <RI>
0

>  <Rbt.Current_Directory>
/home/itssahil/PROJECTS/Mol_Feturizer/New_Systems/rnas/3E5F

>  <Rbt.Executable>
rbdock ($Id: //depot/dev/client3/rdock/2013.1/src/exe/rbdock.cxx#4 $)

>  <Rbt.Library>
libRbt.so (2013.1, Build901 2013/11/27)

>  <Rbt.Parameter_File>
/export/apps/rDock/src/rDock_2013.1_src/data/scripts/dock_solv.prm

>  <Rbt.Receptor>
prm/blind_docking_60.prm

>  <SCORE>
-8.41858

>  <SCORE.INTER>
-10.1244

>  <SCORE.INTER.CONST>
1

>  <SCORE.INTER.POLAR>
0

>  <SCORE.INTER.ROT>
7

>  <SCORE.INTER.SOLV>
9.54727

>  <SCORE.INTER.VDW>
-18.1987

>  <SCORE.INTER.norm>
-0.374978

>  <SCORE.INTRA>
1.32336

>  <SCORE.INTRA.DIHEDRAL>
2.11602

>  <SCORE.INTRA.DIHEDRAL.0>
4.89803

>  <SCORE.INTRA.POLAR>
0

>  <SCORE.INTRA.POLAR.0>
0

>  <SCORE.INTRA.REPUL>
0

>  <SCORE.INTRA.REPUL.0>
0

>  <SCORE.INTRA.SOLV>
3.01577

>  <SCORE.INTRA.SOLV.lig_0>
-48.5832

>  <SCORE.INTRA.VDW>
-1.24254

>  <SCORE.INTRA.VDW.0>
-2.39056

>  <SCORE.INTRA.norm>
0.0490132

>  <SCORE.RESTR>
0.382469

>  <SCORE.RESTR.CAVITY>
0.382469

>  <SCORE.RESTR.norm>
0.0141655

>  <SCORE.SYSTEM>
0

>  <SCORE.SYSTEM.CONST>
0

>  <SCORE.SYSTEM.DIHEDRAL>
0

>  <SCORE.SYSTEM.SOLV>
0

>  <SCORE.SYSTEM.norm>
0

>  <SCORE.heavy>
27

>  <SCORE.norm>
-0.311799

>  <RMSD>
8.073

$$$$
ligand
 OpenBabel11021811473D
libRbt.so/2013.1/901 2013/11/27
 27 29  0  0  0  0  0  0  0  0999 V2000
    4.6115  -11.4395  -17.2662 N   0  0  0  0  0  0  0  0  0  0  0  0
    5.1335  -12.2535  -18.3737 C   0  0  2  0  0  0  0  0  0  0  0  0
    4.5996  -13.6852  -18.2666 C   0  0  0  0  0  0  0  0  0  0  0  0
    5.0641  -14.5249  -19.0683 O   0  0  0  0  0  0  0  0  0  0  0  0
    6.6607  -12.2777  -18.2911 C   0  0  0  0  0  0  0  0  0  0  0  0
    7.2702  -10.8919  -18.5180 C   0  0  0  0  0  0  0  0  0  0  0  0
    9.4961   -9.1299  -18.4129 C   0  0  0  0  0  0  0  0  0  0  0  0
    9.1150  -10.9317  -18.2953 Se  0  0  2  0  0  0  0  0  0  0  0  0
    9.8567  -11.5758  -19.8737 C   0  0  0  0  0  0  0  0  0  0  0  0
   11.3775  -11.7258  -19.8188 C   0  0  1  0  0  0  0  0  0  0  0  0
   11.7752  -12.6772  -20.8210 O   0  0  0  0  0  0  0  0  0  0  0  0
   11.9810  -10.3996  -20.2825 C   0  0  1  0  0  0  0  0  0  0  0  0
   13.3938  -10.4162  -20.0722 O   0  0  0  0  0  0  0  0  0  0  0  0
   11.6754  -10.4991  -21.7749 C   0  0  1  0  0  0  0  0  0  0  0  0
   12.5657   -9.6368  -22.4855 O   0  0  0  0  0  0  0  0  0  0  0  0
   12.0856  -11.9512  -22.0238 C   0  0  2  0  0  0  0  0  0  0  0  0
    3.7326  -13.9072  -17.3929 O   0  0  0  0  0  0  0  0  0  0  0  0
    8.8746  -15.5892  -23.7840 N   0  0  0  0  0  0  0  0  0  0  0  0
    9.2722  -15.3653  -22.5433 C   0  0  0  0  0  0  0  0  0  0  0  0
   10.1053  -14.3836  -22.2453 N   0  0  0  0  0  0  0  0  0  0  0  0
   10.5755  -13.5726  -23.2050 C   0  0  0  0  0  0  0  0  0  0  0  0
   10.1819  -13.7775  -24.5199 C   0  0  0  0  0  0  0  0  0  0  0  0
    9.3076  -14.8229  -24.7933 C   0  0  0  0  0  0  0  0  0  0  0  0
    8.9383  -15.0747  -26.0452 N   0  0  0  0  0  0  0  0  0  0  0  0
   10.7791  -12.8562  -25.2676 N   0  0  0  0  0  0  0  0  0  0  0  0
   11.5192  -12.1010  -24.4594 C   0  0  0  0  0  0  0  0  0  0  0  0
   11.4003  -12.5304  -23.2029 N   0  0  0  0  0  0  0  0  0  0  0  0
  2  1  1  1  0  0  0
  2  5  1  0  0  0  0
  2  3  1  0  0  0  0
  3 17  1  0  0  0  0
  3  4  1  0  0  0  0
  5  6  1  0  0  0  0
  7  8  1  0  0  0  0
  8  6  1  6  0  0  0
  8  9  1  0  0  0  0
 10  9  1  6  0  0  0
 10 11  1  0  0  0  0
 10 12  1  0  0  0  0
 11 16  1  0  0  0  0
 12 13  1  6  0  0  0
 12 14  1  0  0  0  0
 14 15  1  6  0  0  0
 14 16  1  0  0  0  0
 16 27  1  6  0  0  0
 18 23  2  0  0  0  0
 18 19  1  0  0  0  0
 19 20  2  0  0  0  0
 20 21  1  0  0  0  0
 21 22  2  0  0  0  0
 21 27  1  0  0  0  0
 22 23  1  0  0  0  0
 22 25  1  0  0  0  0
 23 24  1  0  0  0  0
 25 26  2  0  0  0  0
 26 27  1  0  0  0  0
M  END
>  <CHROM.1>
-65.11831807,-173.20902389,176.07758492,-173.08305359,-177.37132313,157.78968248
1.07099348,9.26946761,-12.24361745,-20.65215741,2.42338812,0.49179576,0.95382637

>  <Name>
ligand

>  <RI>
0

>  <Rbt.Current_Directory>
/home/itssahil/PROJECTS/Mol_Feturizer/New_Systems/rnas/3E5F

>  <Rbt.Executable>
rbdock ($Id: //depot/dev/client3/rdock/2013.1/src/exe/rbdock.cxx#4 $)

>  <Rbt.Library>
libRbt.so (2013.1, Build901 2013/11/27)

>  <Rbt.Parameter_File>
/export/apps/rDock/src/rDock_2013.1_src/data/scripts/dock_solv.prm

>  <Rbt.Receptor>
prm/blind_docking_60.prm

>  <SCORE>
-8.20928

>  <SCORE.INTER>
-9.4584

>  <SCORE.INTER.CONST>
1

>  <SCORE.INTER.POLAR>
0

>  <SCORE.INTER.ROT>
7

>  <SCORE.INTER.SOLV>
6.0972

>  <SCORE.INTER.VDW>
-16.6047

>  <SCORE.INTER.norm>
-0.350311

>  <SCORE.INTRA>
0.927984

>  <SCORE.INTRA.DIHEDRAL>
0.126893

>  <SCORE.INTRA.DIHEDRAL.0>
4.89803

>  <SCORE.INTRA.POLAR>
0

>  <SCORE.INTRA.POLAR.0>
0

>  <SCORE.INTRA.REPUL>
0

>  <SCORE.INTRA.REPUL.0>
0

>  <SCORE.INTRA.SOLV>
0.743462

>  <SCORE.INTRA.SOLV.lig_0>
-48.5832

>  <SCORE.INTRA.VDW>
0.492807

>  <SCORE.INTRA.VDW.0>
-2.39056

>  <SCORE.INTRA.norm>
0.0343698

>  <SCORE.RESTR>
0.321135

>  <SCORE.RESTR.CAVITY>
0.321135

>  <SCORE.RESTR.norm>
0.0118939

>  <SCORE.SYSTEM>
0

>  <SCORE.SYSTEM.CONST>
0

>  <SCORE.SYSTEM.DIHEDRAL>
0

>  <SCORE.SYSTEM.SOLV>
0

>  <SCORE.SYSTEM.norm>
0

>  <SCORE.heavy>
27

>  <SCORE.norm>
-0.304048

>  <RMSD>
8.331

$$$$
ligand
 OpenBabel11021811473D
libRbt.so/2013.1/901 2013/11/27
 27 29  0  0  0  0  0  0  0  0999 V2000
    7.7888  -16.4644  -23.6454 N   0  0  0  0  0  0  0  0  0  0  0  0
    8.6403  -15.2817  -23.8406 C   0  0  2  0  0  0  0  0  0  0  0  0
    9.6600  -15.5499  -24.9517 C   0  0  0  0  0  0  0  0  0  0  0  0
    9.9784  -14.5808  -25.6749 O   0  0  0  0  0  0  0  0  0  0  0  0
    9.3824  -14.9872  -22.5358 C   0  0  0  0  0  0  0  0  0  0  0  0
    8.4202  -14.7264  -21.3741 C   0  0  0  0  0  0  0  0  0  0  0  0
    7.9797  -14.1192  -18.6341 C   0  0  0  0  0  0  0  0  0  0  0  0
    9.3291  -14.0695  -19.8919 Se  0  0  2  0  0  0  0  0  0  0  0  0
    9.5487  -12.2394  -20.1344 C   0  0  0  0  0  0  0  0  0  0  0  0
   10.4802  -11.8830  -21.2936 C   0  0  1  0  0  0  0  0  0  0  0  0
   10.5578  -10.4502  -21.3881 O   0  0  0  0  0  0  0  0  0  0  0  0
   11.8895  -12.3217  -20.8941 C   0  0  1  0  0  0  0  0  0  0  0  0
   12.7684  -12.1870  -22.0121 O   0  0  0  0  0  0  0  0  0  0  0  0
   12.1973  -11.2447  -19.8569 C   0  0  1  0  0  0  0  0  0  0  0  0
   13.6144  -11.1402  -19.7087 O   0  0  0  0  0  0  0  0  0  0  0  0
   11.6837  -10.0142  -20.6057 C   0  0  2  0  0  0  0  0  0  0  0  0
   10.0917  -16.7187  -25.0603 O   0  0  0  0  0  0  0  0  0  0  0  0
   12.0631   -4.9783  -19.5377 N   0  0  0  0  0  0  0  0  0  0  0  0
   12.5708   -5.6493  -20.5573 C   0  0  0  0  0  0  0  0  0  0  0  0
   12.3842   -6.9501  -20.6973 N   0  0  0  0  0  0  0  0  0  0  0  0
   11.6619   -7.6365  -19.7989 C   0  0  0  0  0  0  0  0  0  0  0  0
   11.1142   -6.9667  -18.7138 C   0  0  0  0  0  0  0  0  0  0  0  0
   11.3362   -5.5993  -18.6000 C   0  0  0  0  0  0  0  0  0  0  0  0
   10.8606   -4.9302  -17.5544 N   0  0  0  0  0  0  0  0  0  0  0  0
   10.4556   -7.8575  -17.9809 N   0  0  0  0  0  0  0  0  0  0  0  0
   10.5821   -9.0406  -18.5773 C   0  0  0  0  0  0  0  0  0  0  0  0
   11.3143   -8.9142  -19.6842 N   0  0  0  0  0  0  0  0  0  0  0  0
  2  1  1  1  0  0  0
  2  5  1  0  0  0  0
  2  3  1  0  0  0  0
  3 17  1  0  0  0  0
  3  4  1  0  0  0  0
  5  6  1  0  0  0  0
  7  8  1  0  0  0  0
  8  6  1  6  0  0  0
  8  9  1  0  0  0  0
 10  9  1  1  0  0  0
 10 11  1  0  0  0  0
 10 12  1  0  0  0  0
 11 16  1  0  0  0  0
 12 13  1  6  0  0  0
 12 14  1  0  0  0  0
 14 15  1  6  0  0  0
 14 16  1  0  0  0  0
 16 27  1  1  0  0  0
 18 23  2  0  0  0  0
 18 19  1  0  0  0  0
 19 20  2  0  0  0  0
 20 21  1  0  0  0  0
 21 22  2  0  0  0  0
 21 27  1  0  0  0  0
 22 23  1  0  0  0  0
 22 25  1  0  0  0  0
 23 24  1  0  0  0  0
 25 26  2  0  0  0  0
 26 27  1  0  0  0  0
M  END
>  <CHROM.1>
-59.24213175,145.80481830,-169.56155544,-171.55684154,-66.74477480,179.40718905
-107.92802467,10.47267442,-11.55165644,-20.76716533,-2.06079266,1.00527581
0.82885792

>  <Name>
ligand

>  <RI>
0

>  <Rbt.Current_Directory>
/home/itssahil/PROJECTS/Mol_Feturizer/New_Systems/rnas/3E5F

>  <Rbt.Executable>
rbdock ($Id: //depot/dev/client3/rdock/2013.1/src/exe/rbdock.cxx#4 $)

>  <Rbt.Library>
libRbt.so (2013.1, Build901 2013/11/27)

>  <Rbt.Parameter_File>
/export/apps/rDock/src/rDock_2013.1_src/data/scripts/dock_solv.prm

>  <Rbt.Receptor>
prm/pocket_docking_8.prm

>  <SCORE>
-12.3126

>  <SCORE.INTER>
-12.0086

>  <SCORE.INTER.CONST>
1

>  <SCORE.INTER.POLAR>
0

>  <SCORE.INTER.ROT>
7

>  <SCORE.INTER.SOLV>
9.68066

>  <SCORE.INTER.VDW>
-19.4993

>  <SCORE.INTER.norm>
-0.444761

>  <SCORE.INTRA>
-0.304075

>  <SCORE.INTRA.DIHEDRAL>
-1.15224

>  <SCORE.INTRA.DIHEDRAL.0>
4.89803

>  <SCORE.INTRA.POLAR>
0

>  <SCORE.INTRA.POLAR.0>
0

>  <SCORE.INTRA.REPUL>
0

>  <SCORE.INTRA.REPUL.0>
0

>  <SCORE.INTRA.SOLV>
0.686476

>  <SCORE.INTRA.SOLV.lig_0>
-48.5832

>  <SCORE.INTRA.VDW>
-0.0711903

>  <SCORE.INTRA.VDW.0>
-2.39056

>  <SCORE.INTRA.norm>
-0.011262

>  <SCORE.RESTR>
0

>  <SCORE.RESTR.CAVITY>
0

>  <SCORE.RESTR.norm>
0

>  <SCORE.SYSTEM>
0

>  <SCORE.SYSTEM.CONST>
0

>  <SCORE.SYSTEM.DIHEDRAL>
0

>  <SCORE.SYSTEM.SOLV>
0

>  <SCORE.SYSTEM.norm>
0

>  <SCORE.heavy>
27

>  <SCORE.norm>
-0.456023

>  <RMSD>
8.363

$$$$
ligand
 OpenBabel11021811473D
libRbt.so/2013.1/901 2013/11/27
 27 29  0  0  0  0  0  0  0  0999 V2000
   12.4811   -5.9282  -17.4024 N   0  0  0  0  0  0  0  0  0  0  0  0
   12.0855   -6.6770  -18.6043 C   0  0  2  0  0  0  0  0  0  0  0  0
   11.7829   -5.7052  -19.7490 C   0  0  0  0  0  0  0  0  0  0  0  0
   12.2022   -4.5338  -19.6240 O   0  0  0  0  0  0  0  0  0  0  0  0
   10.8290   -7.4900  -18.2879 C   0  0  0  0  0  0  0  0  0  0  0  0
   11.1299   -8.6794  -17.3724 C   0  0  0  0  0  0  0  0  0  0  0  0
   11.8029   -8.3143  -14.6366 C   0  0  0  0  0  0  0  0  0  0  0  0
   10.3139   -8.4673  -15.7160 Se  0  0  2  0  0  0  0  0  0  0  0  0
    9.6473  -10.1252  -15.2028 C   0  0  0  0  0  0  0  0  0  0  0  0
    8.1197  -10.1937  -15.1911 C   0  0  1  0  0  0  0  0  0  0  0  0
    7.6143   -8.9469  -14.6835 O   0  0  0  0  0  0  0  0  0  0  0  0
    7.6565  -10.2352  -16.6478 C   0  0  1  0  0  0  0  0  0  0  0  0
    6.2519  -10.4903  -16.6972 O   0  0  0  0  0  0  0  0  0  0  0  0
    7.9366   -8.7855  -17.0360 C   0  0  1  0  0  0  0  0  0  0  0  0
    7.1367   -8.4504  -18.1714 O   0  0  0  0  0  0  0  0  0  0  0  0
    7.3721   -8.0772  -15.8038 C   0  0  2  0  0  0  0  0  0  0  0  0
   11.1315   -6.1511  -20.7191 O   0  0  0  0  0  0  0  0  0  0  0  0
   10.0980   -5.0206  -12.6619 N   0  0  0  0  0  0  0  0  0  0  0  0
    9.7284   -6.2767  -12.4799 C   0  0  0  0  0  0  0  0  0  0  0  0
    9.0265   -6.9345  -13.3862 N   0  0  0  0  0  0  0  0  0  0  0  0
    8.6666   -6.3404  -14.5339 C   0  0  0  0  0  0  0  0  0  0  0  0
    9.0348   -5.0216  -14.7601 C   0  0  0  0  0  0  0  0  0  0  0  0
    9.7693   -4.3628  -13.7811 C   0  0  0  0  0  0  0  0  0  0  0  0
   10.1073   -3.0875  -13.9445 N   0  0  0  0  0  0  0  0  0  0  0  0
    8.5623   -4.6698  -15.9506 N   0  0  0  0  0  0  0  0  0  0  0  0
    7.9222   -5.7217  -16.4556 C   0  0  0  0  0  0  0  0  0  0  0  0
    7.9815   -6.7421  -15.5996 N   0  0  0  0  0  0  0  0  0  0  0  0
  2  1  1  1  0  0  0
  2  5  1  0  0  0  0
  2  3  1  0  0  0  0
  3 17  1  0  0  0  0
  3  4  1  0  0  0  0
  5  6  1  0  0  0  0
  7  8  1  0  0  0  0
  8  6  1  6  0  0  0
  8  9  1  0  0  0  0
 10  9  1  6  0  0  0
 10 11  1  0  0  0  0
 10 12  1  0  0  0  0
 11 16  1  0  0  0  0
 12 13  1  1  0  0  0
 12 14  1  0  0  0  0
 14 15  1  6  0  0  0
 14 16  1  0  0  0  0
 16 27  1  1  0  0  0
 18 23  2  0  0  0  0
 18 19  1  0  0  0  0
 19 20  2  0  0  0  0
 20 21  1  0  0  0  0
 21 22  2  0  0  0  0
 21 27  1  0  0  0  0
 22 23  1  0  0  0  0
 22 25  1  0  0  0  0
 23 24  1  0  0  0  0
 25 26  2  0  0  0  0
 26 27  1  0  0  0  0
M  END
>  <CHROM.1>
-72.27317433,16.45367381,113.85355240,-114.47877362,-111.45483813,-39.00878292
-0.47057840,9.61875133,-7.33421003,-16.11103180,-0.10768458,0.92748736,0.93938424

>  <Name>
ligand

>  <RI>
0

>  <Rbt.Current_Directory>
/home/itssahil/PROJECTS/Mol_Feturizer/New_Systems/rnas/3E5F

>  <Rbt.Executable>
rbdock ($Id: //depot/dev/client3/rdock/2013.1/src/exe/rbdock.cxx#4 $)

>  <Rbt.Library>
libRbt.so (2013.1, Build901 2013/11/27)

>  <Rbt.Parameter_File>
/export/apps/rDock/src/rDock_2013.1_src/data/scripts/dock_solv.prm

>  <Rbt.Receptor>
prm/pocket_docking_8.prm

>  <SCORE>
-0.311368

>  <SCORE.INTER>
-2.90391

>  <SCORE.INTER.CONST>
1

>  <SCORE.INTER.POLAR>
0

>  <SCORE.INTER.ROT>
7

>  <SCORE.INTER.SOLV>
6.07491

>  <SCORE.INTER.VDW>
-12.2276

>  <SCORE.INTER.norm>
-0.107552

>  <SCORE.INTRA>
2.59254

>  <SCORE.INTRA.DIHEDRAL>
9.27838

>  <SCORE.INTRA.DIHEDRAL.0>
4.89803

>  <SCORE.INTRA.POLAR>
0

>  <SCORE.INTRA.POLAR.0>
0

>  <SCORE.INTRA.REPUL>
0

>  <SCORE.INTRA.REPUL.0>
0

>  <SCORE.INTRA.SOLV>
1.94597

>  <SCORE.INTRA.SOLV.lig_0>
-48.5832

>  <SCORE.INTRA.VDW>
-3.01963

>  <SCORE.INTRA.VDW.0>
-2.39056

>  <SCORE.INTRA.norm>
0.0960202

>  <SCORE.RESTR>
0

>  <SCORE.RESTR.CAVITY>
0

>  <SCORE.RESTR.norm>
0

>  <SCORE.SYSTEM>
0

>  <SCORE.SYSTEM.CONST>
0

>  <SCORE.SYSTEM.DIHEDRAL>
0

>  <SCORE.SYSTEM.SOLV>
0

>  <SCORE.SYSTEM.norm>
0

>  <SCORE.heavy>
27

>  <SCORE.norm>
-0.0115321

>  <RMSD>
8.504

$$$$
ligand
 OpenBabel11021811473D
libRbt.so/2013.1/901 2013/11/27
 27 29  0  0  0  0  0  0  0  0999 V2000
   25.1214   -2.7426  -23.8723 N   0  0  0  0  0  0  0  0  0  0  0  0
   23.7167   -2.6586  -24.2985 C   0  0  2  0  0  0  0  0  0  0  0  0
   23.4151   -3.7567  -25.3229 C   0  0  0  0  0  0  0  0  0  0  0  0
   24.3832   -4.2049  -25.9751 O   0  0  0  0  0  0  0  0  0  0  0  0
   23.4769   -1.2909  -24.9404 C   0  0  0  0  0  0  0  0  0  0  0  0
   24.5067   -0.9788  -26.0291 C   0  0  0  0  0  0  0  0  0  0  0  0
   25.9147   -1.7725  -28.3654 C   0  0  0  0  0  0  0  0  0  0  0  0
   24.3761   -2.1877  -27.4349 Se  0  0  2  0  0  0  0  0  0  0  0  0
   23.0594   -1.5644  -28.5899 C   0  0  0  0  0  0  0  0  0  0  0  0
   23.5069   -1.5007  -30.0508 C   0  0  1  0  0  0  0  0  0  0  0  0
   22.3833   -1.8348  -30.8836 O   0  0  0  0  0  0  0  0  0  0  0  0
   23.8040   -0.0352  -30.3706 C   0  0  1  0  0  0  0  0  0  0  0  0
   24.4062    0.0611  -31.6623 O   0  0  0  0  0  0  0  0  0  0  0  0
   22.3750    0.4997  -30.4210 C   0  0  1  0  0  0  0  0  0  0  0  0
   22.3625    1.7077  -31.1838 O   0  0  0  0  0  0  0  0  0  0  0  0
   21.7147   -0.6113  -31.2385 C   0  0  2  0  0  0  0  0  0  0  0  0
   22.2231   -4.1174  -25.4388 O   0  0  0  0  0  0  0  0  0  0  0  0
   16.9729   -0.1033  -33.2140 N   0  0  0  0  0  0  0  0  0  0  0  0
   18.1408    0.0599  -33.8113 C   0  0  0  0  0  0  0  0  0  0  0  0
   19.2824   -0.1090  -33.1671 N   0  0  0  0  0  0  0  0  0  0  0  0
   19.2897   -0.4590  -31.8719 C   0  0  0  0  0  0  0  0  0  0  0  0
   18.0830   -0.6378  -31.2103 C   0  0  0  0  0  0  0  0  0  0  0  0
   16.9042   -0.4471  -31.9215 C   0  0  0  0  0  0  0  0  0  0  0  0
   15.7290   -0.5713  -31.3125 N   0  0  0  0  0  0  0  0  0  0  0  0
   18.3577   -0.9749  -29.9552 N   0  0  0  0  0  0  0  0  0  0  0  0
   19.6822   -1.0073  -29.8287 C   0  0  0  0  0  0  0  0  0  0  0  0
   20.2562   -0.6949  -30.9907 N   0  0  0  0  0  0  0  0  0  0  0  0
  2  1  1  6  0  0  0
  2  5  1  0  0  0  0
  2  3  1  0  0  0  0
  3 17  1  0  0  0  0
  3  4  1  0  0  0  0
  5  6  1  0  0  0  0
  7  8  1  0  0  0  0
  8  6  1  1  0  0  0
  8  9  1  0  0  0  0
 10  9  1  1  0  0  0
 10 11  1  0  0  0  0
 10 12  1  0  0  0  0
 11 16  1  0  0  0  0
 12 13  1  6  0  0  0
 12 14  1  0  0  0  0
 14 15  1  6  0  0  0
 14 16  1  0  0  0  0
 16 27  1  1  0  0  0
 18 23  2  0  0  0  0
 18 19  1  0  0  0  0
 19 20  2  0  0  0  0
 20 21  1  0  0  0  0
 21 22  2  0  0  0  0
 21 27  1  0  0  0  0
 22 23  1  0  0  0  0
 22 25  1  0  0  0  0
 23 24  1  0  0  0  0
 25 26  2  0  0  0  0
 26 27  1  0  0  0  0
M  END
>  <CHROM.1>
51.52491295,-24.31521599,63.40385851,-169.01497814,129.36512147,144.63608867
-125.45073837,22.11416269,-1.35215032,-29.04961947,0.82927703,0.11780306
2.04669698

>  <Name>
ligand

>  <RI>
0

>  <Rbt.Current_Directory>
/home/itssahil/PROJECTS/Mol_Feturizer/New_Systems/rnas/3E5F

>  <Rbt.Executable>
rbdock ($Id: //depot/dev/client3/rdock/2013.1/src/exe/rbdock.cxx#4 $)

>  <Rbt.Library>
libRbt.so (2013.1, Build901 2013/11/27)

>  <Rbt.Parameter_File>
/export/apps/rDock/src/rDock_2013.1_src/data/scripts/dock_solv.prm

>  <Rbt.Receptor>
prm/blind_docking_60.prm

>  <SCORE>
-9.17055

>  <SCORE.INTER>
-12.3312

>  <SCORE.INTER.CONST>
1

>  <SCORE.INTER.POLAR>
0

>  <SCORE.INTER.ROT>
7

>  <SCORE.INTER.SOLV>
7.4793

>  <SCORE.INTER.VDW>
-18.9806

>  <SCORE.INTER.norm>
-0.45671

>  <SCORE.INTRA>
3.10558

>  <SCORE.INTRA.DIHEDRAL>
3.77839

>  <SCORE.INTRA.DIHEDRAL.0>
4.89803

>  <SCORE.INTRA.POLAR>
0

>  <SCORE.INTRA.POLAR.0>
0

>  <SCORE.INTRA.REPUL>
0

>  <SCORE.INTRA.REPUL.0>
0

>  <SCORE.INTRA.SOLV>
1.10755

>  <SCORE.INTRA.SOLV.lig_0>
-48.5832

>  <SCORE.INTRA.VDW>
0.662608

>  <SCORE.INTRA.VDW.0>
-2.39056

>  <SCORE.INTRA.norm>
0.115021

>  <SCORE.RESTR>
0.0550478

>  <SCORE.RESTR.CAVITY>
0.0550478

>  <SCORE.RESTR.norm>
0.00203881

>  <SCORE.SYSTEM>
0

>  <SCORE.SYSTEM.CONST>
0

>  <SCORE.SYSTEM.DIHEDRAL>
0

>  <SCORE.SYSTEM.SOLV>
0

>  <SCORE.SYSTEM.norm>
0

>  <SCORE.heavy>
27

>  <SCORE.norm>
-0.33965

>  <RMSD>
14.355

$$$$
ligand
 OpenBabel11021811473D
libRbt.so/2013.1/901 2013/11/27
 27 29  0  0  0  0  0  0  0  0999 V2000
   26.1494   -2.8426  -23.8537 N   0  0  0  0  0  0  0  0  0  0  0  0
   24.8259   -3.1120  -24.4347 C   0  0  2  0  0  0  0  0  0  0  0  0
   24.9827   -3.7181  -25.8326 C   0  0  0  0  0  0  0  0  0  0  0  0
   23.9569   -4.2020  -26.3590 O   0  0  0  0  0  0  0  0  0  0  0  0
   24.0558   -1.7945  -24.5400 C   0  0  0  0  0  0  0  0  0  0  0  0
   24.7956   -0.7637  -25.3966 C   0  0  0  0  0  0  0  0  0  0  0  0
   25.8306    0.0865  -27.9018 C   0  0  0  0  0  0  0  0  0  0  0  0
   25.0461   -1.3934  -27.1272 Se  0  0  2  0  0  0  0  0  0  0  0  0
   23.3849   -1.4171  -27.9614 C   0  0  0  0  0  0  0  0  0  0  0  0
   23.3586   -2.2404  -29.2498 C   0  0  1  0  0  0  0  0  0  0  0  0
   22.0092   -2.2615  -29.7463 O   0  0  0  0  0  0  0  0  0  0  0  0
   24.1465   -1.4600  -30.3026 C   0  0  1  0  0  0  0  0  0  0  0  0
   24.3166   -2.2664  -31.4694 O   0  0  0  0  0  0  0  0  0  0  0  0
   23.1435   -0.3437  -30.5827 C   0  0  1  0  0  0  0  0  0  0  0  0
   23.4249    0.2164  -31.8665 O   0  0  0  0  0  0  0  0  0  0  0  0
   21.8596   -1.1698  -30.6714 C   0  0  2  0  0  0  0  0  0  0  0  0
   26.1253   -3.6934  -26.3406 O   0  0  0  0  0  0  0  0  0  0  0  0
   17.4063    0.7460  -32.4440 N   0  0  0  0  0  0  0  0  0  0  0  0
   18.2883   -0.0142  -33.0698 C   0  0  0  0  0  0  0  0  0  0  0  0
   19.3931   -0.4318  -32.4768 N   0  0  0  0  0  0  0  0  0  0  0  0
   19.6539   -0.0950  -31.2046 C   0  0  0  0  0  0  0  0  0  0  0  0
   18.7521    0.7036  -30.5154 C   0  0  0  0  0  0  0  0  0  0  0  0
   17.6038    1.1255  -31.1751 C   0  0  0  0  0  0  0  0  0  0  0  0
   16.7355    1.9231  -30.5608 N   0  0  0  0  0  0  0  0  0  0  0  0
   19.2344    0.8930  -29.2923 N   0  0  0  0  0  0  0  0  0  0  0  0
   20.3925    0.2420  -29.2120 C   0  0  0  0  0  0  0  0  0  0  0  0
   20.6543   -0.3618  -30.3714 N   0  0  0  0  0  0  0  0  0  0  0  0
  2  1  1  6  0  0  0
  2  5  1  0  0  0  0
  2  3  1  0  0  0  0
  3 17  1  0  0  0  0
  3  4  1  0  0  0  0
  5  6  1  0  0  0  0
  7  8  1  0  0  0  0
  8  6  1  1  0  0  0
  8  9  1  0  0  0  0
 10  9  1  1  0  0  0
 10 11  1  0  0  0  0
 10 12  1  0  0  0  0
 11 16  1  0  0  0  0
 12 13  1  6  0  0  0
 12 14  1  0  0  0  0
 14 15  1  6  0  0  0
 14 16  1  0  0  0  0
 16 27  1  1  0  0  0
 18 23  2  0  0  0  0
 18 19  1  0  0  0  0
 19 20  2  0  0  0  0
 20 21  1  0  0  0  0
 21 22  2  0  0  0  0
 21 27  1  0  0  0  0
 22 23  1  0  0  0  0
 22 25  1  0  0  0  0
 23 24  1  0  0  0  0
 25 26  2  0  0  0  0
 26 27  1  0  0  0  0
M  END
>  <CHROM.1>
58.50892217,168.51979179,60.22021926,176.25253765,-164.98250591,175.94422920
-123.70456830,22.72329124,-1.12131206,-28.72055703,0.68952413,-0.36303767
1.64026881

>  <Name>
ligand

>  <RI>
0

>  <Rbt.Current_Directory>
/home/itssahil/PROJECTS/Mol_Feturizer/New_Systems/rnas/3E5F

>  <Rbt.Executable>
rbdock ($Id: //depot/dev/client3/rdock/2013.1/src/exe/rbdock.cxx#4 $)

>  <Rbt.Library>
libRbt.so (2013.1, Build901 2013/11/27)

>  <Rbt.Parameter_File>
/export/apps/rDock/src/rDock_2013.1_src/data/scripts/dock_solv.prm

>  <Rbt.Receptor>
prm/blind_docking_60.prm

>  <SCORE>
-14.6138

>  <SCORE.INTER>
-13.4746

>  <SCORE.INTER.CONST>
1

>  <SCORE.INTER.POLAR>
0

>  <SCORE.INTER.ROT>
7

>  <SCORE.INTER.SOLV>
12.9692

>  <SCORE.INTER.VDW>
-21.5728

>  <SCORE.INTER.norm>
-0.499059

>  <SCORE.INTRA>
-1.1512

>  <SCORE.INTRA.DIHEDRAL>
-1.17409

>  <SCORE.INTRA.DIHEDRAL.0>
4.89803

>  <SCORE.INTRA.POLAR>
0

>  <SCORE.INTRA.POLAR.0>
0

>  <SCORE.INTRA.REPUL>
0

>  <SCORE.INTRA.REPUL.0>
0

>  <SCORE.INTRA.SOLV>
0.869517

>  <SCORE.INTRA.SOLV.lig_0>
-48.5832

>  <SCORE.INTRA.VDW>
-0.998912

>  <SCORE.INTRA.VDW.0>
-2.39056

>  <SCORE.INTRA.norm>
-0.042637

>  <SCORE.RESTR>
0.0120256

>  <SCORE.RESTR.CAVITY>
0.0120256

>  <SCORE.RESTR.norm>
0.000445394

>  <SCORE.SYSTEM>
0

>  <SCORE.SYSTEM.CONST>
0

>  <SCORE.SYSTEM.DIHEDRAL>
0

>  <SCORE.SYSTEM.SOLV>
0

>  <SCORE.SYSTEM.norm>
0

>  <SCORE.heavy>
27

>  <SCORE.norm>
-0.54125

>  <RMSD>
14.491

$$$$
ligand
 OpenBabel11021811473D
libRbt.so/2013.1/901 2013/11/27
 27 29  0  0  0  0  0  0  0  0999 V2000
   27.6969   -0.1723  -22.7275 N   0  0  0  0  0  0  0  0  0  0  0  0
   26.4249   -0.5920  -23.3338 C   0  0  2  0  0  0  0  0  0  0  0  0
   26.1536   -2.0648  -23.0121 C   0  0  0  0  0  0  0  0  0  0  0  0
   25.1287   -2.5753  -23.5144 O   0  0  0  0  0  0  0  0  0  0  0  0
   26.5196   -0.4166  -24.8504 C   0  0  0  0  0  0  0  0  0  0  0  0
   25.1415   -0.4243  -25.5168 C   0  0  0  0  0  0  0  0  0  0  0  0
   26.4040   -1.4284  -27.8552 C   0  0  0  0  0  0  0  0  0  0  0  0
   24.9966   -1.8254  -26.7295 Se  0  0  2  0  0  0  0  0  0  0  0  0
   23.5330   -1.4735  -27.8205 C   0  0  0  0  0  0  0  0  0  0  0  0
   23.4942   -2.3291  -29.0874 C   0  0  1  0  0  0  0  0  0  0  0  0
   22.1390   -2.3675  -29.5666 O   0  0  0  0  0  0  0  0  0  0  0  0
   24.2663   -1.5727  -30.1691 C   0  0  1  0  0  0  0  0  0  0  0  0
   24.4252   -2.4077  -31.3172 O   0  0  0  0  0  0  0  0  0  0  0  0
   23.2556   -0.4674  -30.4649 C   0  0  1  0  0  0  0  0  0  0  0  0
   23.5193    0.0612  -31.7657 O   0  0  0  0  0  0  0  0  0  0  0  0
   21.9739   -1.3000  -30.5171 C   0  0  2  0  0  0  0  0  0  0  0  0
   26.9706   -2.6454  -22.2639 O   0  0  0  0  0  0  0  0  0  0  0  0
   17.4765    0.5275  -32.2714 N   0  0  0  0  0  0  0  0  0  0  0  0
   18.3516   -0.2490  -32.8868 C   0  0  0  0  0  0  0  0  0  0  0  0
   19.4698   -0.6394  -32.3004 N   0  0  0  0  0  0  0  0  0  0  0  0
   19.7519   -0.2570  -31.0458 C   0  0  0  0  0  0  0  0  0  0  0  0
   18.8580    0.5599  -30.3680 C   0  0  0  0  0  0  0  0  0  0  0  0
   17.6950    0.9521  -31.0203 C   0  0  0  0  0  0  0  0  0  0  0  0
   16.8332    1.7655  -30.4179 N   0  0  0  0  0  0  0  0  0  0  0  0
   19.3617    0.7946  -29.1615 N   0  0  0  0  0  0  0  0  0  0  0  0
   20.5252    0.1534  -29.0803 C   0  0  0  0  0  0  0  0  0  0  0  0
   20.7693   -0.4889  -30.2227 N   0  0  0  0  0  0  0  0  0  0  0  0
  2  1  1  1  0  0  0
  2  5  1  0  0  0  0
  2  3  1  0  0  0  0
  3 17  1  0  0  0  0
  3  4  1  0  0  0  0
  5  6  1  0  0  0  0
  7  8  1  0  0  0  0
  8  6  1  1  0  0  0
  8  9  1  0  0  0  0
 10  9  1  1  0  0  0
 10 11  1  0  0  0  0
 10 12  1  0  0  0  0
 11 16  1  0  0  0  0
 12 13  1  6  0  0  0
 12 14  1  0  0  0  0
 14 15  1  6  0  0  0
 14 16  1  0  0  0  0
 16 27  1  1  0  0  0
 18 23  2  0  0  0  0
 18 19  1  0  0  0  0
 19 20  2  0  0  0  0
 20 21  1  0  0  0  0
 21 22  2  0  0  0  0
 21 27  1  0  0  0  0
 22 23  1  0  0  0  0
 22 25  1  0  0  0  0
 23 24  1  0  0  0  0
 25 26  2  0  0  0  0
 26 27  1  0  0  0  0
M  END
>  <CHROM.1>
-162.94236812,-177.00593311,-119.13163796,-58.12153656,164.89400673,157.99957130
-123.03115318,23.08767946,-0.97051115,-28.17809393,0.70740096,-0.39458602
1.39016945

>  <Name>
ligand

>  <RI>
0

>  <Rbt.Current_Directory>
/home/itssahil/PROJECTS/Mol_Feturizer/New_Systems/rnas/3E5F

>  <Rbt.Executable>
rbdock ($Id: //depot/dev/client3/rdock/2013.1/src/exe/rbdock.cxx#4 $)

>  <Rbt.Library>
libRbt.so (2013.1, Build901 2013/11/27)

>  <Rbt.Parameter_File>
/export/apps/rDock/src/rDock_2013.1_src/data/scripts/dock_solv.prm

>  <Rbt.Receptor>
prm/blind_docking_60.prm

>  <SCORE>
-7.77554

>  <SCORE.INTER>
-12.3527

>  <SCORE.INTER.CONST>
1

>  <SCORE.INTER.POLAR>
0

>  <SCORE.INTER.ROT>
7

>  <SCORE.INTER.SOLV>
11.4756

>  <SCORE.INTER.VDW>
-20.327

>  <SCORE.INTER.norm>
-0.457507

>  <SCORE.INTRA>
4.56889

>  <SCORE.INTRA.DIHEDRAL>
6.31094

>  <SCORE.INTRA.DIHEDRAL.0>
4.89803

>  <SCORE.INTRA.POLAR>
0

>  <SCORE.INTRA.POLAR.0>
0

>  <SCORE.INTRA.REPUL>
0

>  <SCORE.INTRA.REPUL.0>
0

>  <SCORE.INTRA.SOLV>
0.0209755

>  <SCORE.INTRA.SOLV.lig_0>
-48.5832

>  <SCORE.INTRA.VDW>
1.40293

>  <SCORE.INTRA.VDW.0>
-2.39056

>  <SCORE.INTRA.norm>
0.169218

>  <SCORE.RESTR>
0.00825177

>  <SCORE.RESTR.CAVITY>
0.00825177

>  <SCORE.RESTR.norm>
0.000305621

>  <SCORE.SYSTEM>
0

>  <SCORE.SYSTEM.CONST>
0

>  <SCORE.SYSTEM.DIHEDRAL>
0

>  <SCORE.SYSTEM.SOLV>
0

>  <SCORE.SYSTEM.norm>
0

>  <SCORE.heavy>
27

>  <SCORE.norm>
-0.287983

>  <RMSD>
14.499

$$$$
ligand
 OpenBabel11021811473D
libRbt.so/2013.1/901 2013/11/27
 27 29  0  0  0  0  0  0  0  0999 V2000
   27.6813   -0.4057  -25.1277 N   0  0  0  0  0  0  0  0  0  0  0  0
   26.4582   -1.1405  -24.7730 C   0  0  2  0  0  0  0  0  0  0  0  0
   26.6121   -2.6194  -25.1408 C   0  0  0  0  0  0  0  0  0  0  0  0
   27.1012   -2.8767  -26.2625 O   0  0  0  0  0  0  0  0  0  0  0  0
   25.2828   -0.5472  -25.5518 C   0  0  0  0  0  0  0  0  0  0  0  0
   23.9343   -1.0372  -25.0180 C   0  0  0  0  0  0  0  0  0  0  0  0
   23.8352   -3.3696  -26.6367 C   0  0  0  0  0  0  0  0  0  0  0  0
   22.9150   -1.7912  -26.3770 Se  0  0  2  0  0  0  0  0  0  0  0  0
   23.3010   -0.8697  -27.9448 C   0  0  0  0  0  0  0  0  0  0  0  0
   23.2899   -1.7534  -29.1928 C   0  0  1  0  0  0  0  0  0  0  0  0
   21.9301   -1.8868  -29.6411 O   0  0  0  0  0  0  0  0  0  0  0  0
   23.9903   -0.9740  -30.3065 C   0  0  1  0  0  0  0  0  0  0  0  0
   24.1776   -1.8222  -31.4405 O   0  0  0  0  0  0  0  0  0  0  0  0
   22.9062    0.0593  -30.6024 C   0  0  1  0  0  0  0  0  0  0  0  0
   23.1090    0.5749  -31.9193 O   0  0  0  0  0  0  0  0  0  0  0  0
   21.6786   -0.8527  -30.6093 C   0  0  2  0  0  0  0  0  0  0  0  0
   26.2292   -3.4602  -24.2977 O   0  0  0  0  0  0  0  0  0  0  0  0
   17.0848    0.7435  -32.3395 N   0  0  0  0  0  0  0  0  0  0  0  0
   18.0002    0.0229  -32.9641 C   0  0  0  0  0  0  0  0  0  0  0  0
   19.1391   -0.3117  -32.3830 N   0  0  0  0  0  0  0  0  0  0  0  0
   19.4018    0.0722  -31.1246 C   0  0  0  0  0  0  0  0  0  0  0  0
   18.4654    0.8315  -30.4371 C   0  0  0  0  0  0  0  0  0  0  0  0
   17.2816    1.1661  -31.0841 C   0  0  0  0  0  0  0  0  0  0  0  0
   16.3773    1.9244  -30.4722 N   0  0  0  0  0  0  0  0  0  0  0  0
   18.9573    1.0806  -29.2287 N   0  0  0  0  0  0  0  0  0  0  0  0
   20.1544    0.5035  -29.1555 C   0  0  0  0  0  0  0  0  0  0  0  0
   20.4317   -0.1122  -30.3050 N   0  0  0  0  0  0  0  0  0  0  0  0
  2  1  1  6  0  0  0
  2  5  1  0  0  0  0
  2  3  1  0  0  0  0
  3 17  1  0  0  0  0
  3  4  1  0  0  0  0
  5  6  1  0  0  0  0
  7  8  1  0  0  0  0
  8  6  1  1  0  0  0
  8  9  1  0  0  0  0
 10  9  1  1  0  0  0
 10 11  1  0  0  0  0
 10 12  1  0  0  0  0
 11 16  1  0  0  0  0
 12 13  1  6  0  0  0
 12 14  1  0  0  0  0
 14 15  1  6  0  0  0
 14 16  1  0  0  0  0
 16 27  1  1  0  0  0
 18 23  2  0  0  0  0
 18 19  1  0  0  0  0
 19 20  2  0  0  0  0
 20 21  1  0  0  0  0
 21 22  2  0  0  0  0
 21 27  1  0  0  0  0
 22 23  1  0  0  0  0
 22 25  1  0  0  0  0
 23 24  1  0  0  0  0
 25 26  2  0  0  0  0
 26 27  1  0  0  0  0
M  END
>  <CHROM.1>
-167.27906839,-44.89726913,-125.44641286,72.41281316,144.85283697,83.03450321
-125.23588412,22.41746524,-0.91048869,-28.48448094,-0.68902171,0.29504265
-1.49266852

>  <Name>
ligand

>  <RI>
0

>  <Rbt.Current_Directory>
/home/itssahil/PROJECTS/Mol_Feturizer/New_Systems/rnas/3E5F

>  <Rbt.Executable>
rbdock ($Id: //depot/dev/client3/rdock/2013.1/src/exe/rbdock.cxx#4 $)

>  <Rbt.Library>
libRbt.so (2013.1, Build901 2013/11/27)

>  <Rbt.Parameter_File>
/export/apps/rDock/src/rDock_2013.1_src/data/scripts/dock_solv.prm

>  <Rbt.Receptor>
prm/blind_docking_80.prm

>  <SCORE>
-8.43808

>  <SCORE.INTER>
-12.9619

>  <SCORE.INTER.CONST>
1

>  <SCORE.INTER.POLAR>
0

>  <SCORE.INTER.ROT>
7

>  <SCORE.INTER.SOLV>
11.6203

>  <SCORE.INTER.VDW>
-20.7814

>  <SCORE.INTER.norm>
-0.480071

>  <SCORE.INTRA>
4.52299

>  <SCORE.INTRA.DIHEDRAL>
7.22237

>  <SCORE.INTRA.DIHEDRAL.0>
4.89803

>  <SCORE.INTRA.POLAR>
0

>  <SCORE.INTRA.POLAR.0>
0

>  <SCORE.INTRA.REPUL>
0

>  <SCORE.INTRA.REPUL.0>
0

>  <SCORE.INTRA.SOLV>
-0.02615

>  <SCORE.INTRA.SOLV.lig_0>
-48.5832

>  <SCORE.INTRA.VDW>
0.924876

>  <SCORE.INTRA.VDW.0>
-2.39056

>  <SCORE.INTRA.norm>
0.167518

>  <SCORE.RESTR>
0.000852221

>  <SCORE.RESTR.CAVITY>
0.000852221

>  <SCORE.RESTR.norm>
3.15637e-05

>  <SCORE.SYSTEM>
0

>  <SCORE.SYSTEM.CONST>
0

>  <SCORE.SYSTEM.DIHEDRAL>
0

>  <SCORE.SYSTEM.SOLV>
0

>  <SCORE.SYSTEM.norm>
0

>  <SCORE.heavy>
27

>  <SCORE.norm>
-0.312521

>  <RMSD>
14.544

$$$$
ligand
 OpenBabel11021811473D
libRbt.so/2013.1/901 2013/11/27
 27 29  0  0  0  0  0  0  0  0999 V2000
   28.6631   -2.3204  -24.5317 N   0  0  0  0  0  0  0  0  0  0  0  0
   27.2463   -2.3660  -24.9218 C   0  0  2  0  0  0  0  0  0  0  0  0
   26.4567   -1.3068  -24.1467 C   0  0  0  0  0  0  0  0  0  0  0  0
   26.9000   -0.9775  -23.0248 O   0  0  0  0  0  0  0  0  0  0  0  0
   26.6883   -3.7517  -24.5925 C   0  0  0  0  0  0  0  0  0  0  0  0
   25.5666   -4.1617  -25.5501 C   0  0  0  0  0  0  0  0  0  0  0  0
   22.7951   -4.0849  -24.9309 C   0  0  0  0  0  0  0  0  0  0  0  0
   24.1524   -2.9580  -25.4727 Se  0  0  2  0  0  0  0  0  0  0  0  0
   23.6464   -2.5742  -27.2199 C   0  0  0  0  0  0  0  0  0  0  0  0
   24.8165   -2.5475  -28.2042 C   0  0  1  0  0  0  0  0  0  0  0  0
   24.3043   -2.2215  -29.5077 O   0  0  0  0  0  0  0  0  0  0  0  0
   25.6998   -1.3579  -27.8263 C   0  0  1  0  0  0  0  0  0  0  0  0
   26.9059   -1.3945  -28.5907 O   0  0  0  0  0  0  0  0  0  0  0  0
   24.8058   -0.2223  -28.3180 C   0  0  1  0  0  0  0  0  0  0  0  0
   25.6118    0.9377  -28.5330 O   0  0  0  0  0  0  0  0  0  0  0  0
   24.3869   -0.7946  -29.6728 C   0  0  2  0  0  0  0  0  0  0  0  0
   25.4227   -0.8564  -24.6874 O   0  0  0  0  0  0  0  0  0  0  0  0
   19.7957   -1.7319  -31.8378 N   0  0  0  0  0  0  0  0  0  0  0  0
   20.7578   -2.5859  -31.5337 C   0  0  0  0  0  0  0  0  0  0  0  0
   21.8888   -2.1912  -30.9752 N   0  0  0  0  0  0  0  0  0  0  0  0
   22.0951   -0.8958  -30.6936 C   0  0  0  0  0  0  0  0  0  0  0  0
   21.1086    0.0309  -31.0000 C   0  0  0  0  0  0  0  0  0  0  0  0
   19.9350   -0.4232  -31.5902 C   0  0  0  0  0  0  0  0  0  0  0  0
   18.9830    0.4389  -31.9336 N   0  0  0  0  0  0  0  0  0  0  0  0
   21.5506    1.2275  -30.6295 N   0  0  0  0  0  0  0  0  0  0  0  0
   22.7656    1.0640  -30.1113 C   0  0  0  0  0  0  0  0  0  0  0  0
   23.1036   -0.2251  -30.1465 N   0  0  0  0  0  0  0  0  0  0  0  0
  2  1  1  1  0  0  0
  2  5  1  0  0  0  0
  2  3  1  0  0  0  0
  3 17  1  0  0  0  0
  3  4  1  0  0  0  0
  5  6  1  0  0  0  0
  7  8  1  0  0  0  0
  8  6  1  6  0  0  0
  8  9  1  0  0  0  0
 10  9  1  1  0  0  0
 10 11  1  0  0  0  0
 10 12  1  0  0  0  0
 11 16  1  0  0  0  0
 12 13  1  6  0  0  0
 12 14  1  0  0  0  0
 14 15  1  6  0  0  0
 14 16  1  0  0  0  0
 16 27  1  1  0  0  0
 18 23  2  0  0  0  0
 18 19  1  0  0  0  0
 19 20  2  0  0  0  0
 20 21  1  0  0  0  0
 21 22  2  0  0  0  0
 21 27  1  0  0  0  0
 22 23  1  0  0  0  0
 22 25  1  0  0  0  0
 23 24  1  0  0  0  0
 25 26  2  0  0  0  0
 26 27  1  0  0  0  0
M  END
>  <CHROM.1>
-149.94192523,-27.61168566,-59.86765287,-119.72145384,-34.69027602,-179.09229345
-16.71749979,24.03323052,-1.66000767,-27.67709941,-0.81442946,-0.51397302
-0.84322921

>  <Name>
ligand

>  <RI>
0

>  <Rbt.Current_Directory>
/home/itssahil/PROJECTS/Mol_Feturizer/New_Systems/rnas/3E5F

>  <Rbt.Executable>
rbdock ($Id: //depot/dev/client3/rdock/2013.1/src/exe/rbdock.cxx#4 $)

>  <Rbt.Library>
libRbt.so (2013.1, Build901 2013/11/27)

>  <Rbt.Parameter_File>
/export/apps/rDock/src/rDock_2013.1_src/data/scripts/dock_solv.prm

>  <Rbt.Receptor>
prm/blind_docking_80.prm

>  <SCORE>
-8.01154

>  <SCORE.INTER>
-8.52553

>  <SCORE.INTER.CONST>
1

>  <SCORE.INTER.POLAR>
0

>  <SCORE.INTER.ROT>
7

>  <SCORE.INTER.SOLV>
8.74153

>  <SCORE.INTER.VDW>
-16.8642

>  <SCORE.INTER.norm>
-0.31576

>  <SCORE.INTRA>
0.472841

>  <SCORE.INTRA.DIHEDRAL>
4.39887

>  <SCORE.INTRA.DIHEDRAL.0>
4.89803

>  <SCORE.INTRA.POLAR>
0

>  <SCORE.INTRA.POLAR.0>
0

>  <SCORE.INTRA.REPUL>
0

>  <SCORE.INTRA.REPUL.0>
0

>  <SCORE.INTRA.SOLV>
0.480762

>  <SCORE.INTRA.SOLV.lig_0>
-48.5832

>  <SCORE.INTRA.VDW>
-1.96698

>  <SCORE.INTRA.VDW.0>
-2.39056

>  <SCORE.INTRA.norm>
0.0175126

>  <SCORE.RESTR>
0.0411463

>  <SCORE.RESTR.CAVITY>
0.0411463

>  <SCORE.RESTR.norm>
0.00152394

>  <SCORE.SYSTEM>
0

>  <SCORE.SYSTEM.CONST>
0

>  <SCORE.SYSTEM.DIHEDRAL>
0

>  <SCORE.SYSTEM.SOLV>
0

>  <SCORE.SYSTEM.norm>
0

>  <SCORE.heavy>
27

>  <SCORE.norm>
-0.296724

>  <RMSD>
14.667

$$$$
ligand
 OpenBabel11021811473D
libRbt.so/2013.1/901 2013/11/27
 27 29  0  0  0  0  0  0  0  0999 V2000
   28.1440   -2.7363  -24.7719 N   0  0  0  0  0  0  0  0  0  0  0  0
   27.2310   -2.7668  -25.9239 C   0  0  2  0  0  0  0  0  0  0  0  0
   27.1505   -1.3773  -26.5636 C   0  0  0  0  0  0  0  0  0  0  0  0
   27.0192   -0.4038  -25.7898 O   0  0  0  0  0  0  0  0  0  0  0  0
   25.8400   -3.1804  -25.4403 C   0  0  0  0  0  0  0  0  0  0  0  0
   24.8091   -3.1608  -26.5718 C   0  0  0  0  0  0  0  0  0  0  0  0
   23.3496   -0.8832  -25.7040 C   0  0  0  0  0  0  0  0  0  0  0  0
   24.4327   -1.4187  -27.0989 Se  0  0  2  0  0  0  0  0  0  0  0  0
   23.2183   -1.5078  -28.5037 C   0  0  0  0  0  0  0  0  0  0  0  0
   23.8354   -1.1933  -29.8672 C   0  0  1  0  0  0  0  0  0  0  0  0
   22.9115   -1.6067  -30.8886 O   0  0  0  0  0  0  0  0  0  0  0  0
   23.8992    0.3291  -29.9956 C   0  0  1  0  0  0  0  0  0  0  0  0
   24.6387    0.6808  -31.1660 O   0  0  0  0  0  0  0  0  0  0  0  0
   22.4159    0.6198  -30.2098 C   0  0  1  0  0  0  0  0  0  0  0  0
   22.2836    1.8924  -30.8458 O   0  0  0  0  0  0  0  0  0  0  0  0
   22.0834   -0.4781  -31.2210 C   0  0  2  0  0  0  0  0  0  0  0  0
   27.2121   -1.3189  -27.8114 O   0  0  0  0  0  0  0  0  0  0  0  0
   17.3320    0.8540  -29.7062 N   0  0  0  0  0  0  0  0  0  0  0  0
   18.4711    1.4993  -29.5231 C   0  0  0  0  0  0  0  0  0  0  0  0
   19.6196    1.0276  -29.9761 N   0  0  0  0  0  0  0  0  0  0  0  0
   19.6634   -0.1336  -30.6466 C   0  0  0  0  0  0  0  0  0  0  0  0
   18.4880   -0.8407  -30.8570 C   0  0  0  0  0  0  0  0  0  0  0  0
   17.3012   -0.3133  -30.3618 C   0  0  0  0  0  0  0  0  0  0  0  0
   16.1608   -0.9803  -30.5097 N   0  0  0  0  0  0  0  0  0  0  0  0
   18.7956   -1.9414  -31.5341 N   0  0  0  0  0  0  0  0  0  0  0  0
   20.1100   -1.9306  -31.7426 C   0  0  0  0  0  0  0  0  0  0  0  0
   20.6450   -0.8337  -31.2059 N   0  0  0  0  0  0  0  0  0  0  0  0
  2  1  1  1  0  0  0
  2  5  1  0  0  0  0
  2  3  1  0  0  0  0
  3 17  1  0  0  0  0
  3  4  1  0  0  0  0
  5  6  1  0  0  0  0
  7  8  1  0  0  0  0
  8  6  1  1  0  0  0
  8  9  1  0  0  0  0
 10  9  1  1  0  0  0
 10 11  1  0  0  0  0
 10 12  1  0  0  0  0
 11 16  1  0  0  0  0
 12 13  1  6  0  0  0
 12 14  1  0  0  0  0
 14 15  1  6  0  0  0
 14 16  1  0  0  0  0
 16 27  1  1  0  0  0
 18 23  2  0  0  0  0
 18 19  1  0  0  0  0
 19 20  2  0  0  0  0
 20 21  1  0  0  0  0
 21 22  2  0  0  0  0
 21 27  1  0  0  0  0
 22 23  1  0  0  0  0
 22 25  1  0  0  0  0
 23 24  1  0  0  0  0
 25 26  2  0  0  0  0
 26 27  1  0  0  0  0
M  END
>  <CHROM.1>
176.82579050,-45.19650288,-70.19400691,-75.96080163,-106.15924710,166.06743889
134.31231381,22.87533454,-0.90259986,-28.73141686,0.55878940,0.07207366,2.04691392

>  <Name>
ligand

>  <RI>
0

>  <Rbt.Current_Directory>
/home/itssahil/PROJECTS/Mol_Feturizer/New_Systems/rnas/3E5F

>  <Rbt.Executable>
rbdock ($Id: //depot/dev/client3/rdock/2013.1/src/exe/rbdock.cxx#4 $)

>  <Rbt.Library>
libRbt.so (2013.1, Build901 2013/11/27)

>  <Rbt.Parameter_File>
/export/apps/rDock/src/rDock_2013.1_src/data/scripts/dock_solv.prm

>  <Rbt.Receptor>
prm/blind_docking_80.prm

>  <SCORE>
-11.2027

>  <SCORE.INTER>
-11.7182

>  <SCORE.INTER.CONST>
1

>  <SCORE.INTER.POLAR>
0

>  <SCORE.INTER.ROT>
7

>  <SCORE.INTER.SOLV>
12.7066

>  <SCORE.INTER.VDW>
-20.3144

>  <SCORE.INTER.norm>
-0.434009

>  <SCORE.INTRA>
0.0103094

>  <SCORE.INTRA.DIHEDRAL>
0.79272

>  <SCORE.INTRA.DIHEDRAL.0>
4.89803

>  <SCORE.INTRA.POLAR>
0

>  <SCORE.INTRA.POLAR.0>
0

>  <SCORE.INTRA.REPUL>
0

>  <SCORE.INTRA.REPUL.0>
0

>  <SCORE.INTRA.SOLV>
0.0839815

>  <SCORE.INTRA.SOLV.lig_0>
-48.5832

>  <SCORE.INTRA.VDW>
-0.428042

>  <SCORE.INTRA.VDW.0>
-2.39056

>  <SCORE.INTRA.norm>
0.000381828

>  <SCORE.RESTR>
0.505252

>  <SCORE.RESTR.CAVITY>
0.505252

>  <SCORE.RESTR.norm>
0.018713

>  <SCORE.SYSTEM>
0

>  <SCORE.SYSTEM.CONST>
0

>  <SCORE.SYSTEM.DIHEDRAL>
0

>  <SCORE.SYSTEM.SOLV>
0

>  <SCORE.SYSTEM.norm>
0

>  <SCORE.heavy>
27

>  <SCORE.norm>
-0.414914

>  <RMSD>
14.756

$$$$
ligand
 OpenBabel11021811473D
libRbt.so/2013.1/901 2013/11/27
 27 29  0  0  0  0  0  0  0  0999 V2000
   26.8577   -3.7655  -24.4101 N   0  0  0  0  0  0  0  0  0  0  0  0
   27.6498   -2.8991  -25.2953 C   0  0  2  0  0  0  0  0  0  0  0  0
   28.8622   -2.3480  -24.5386 C   0  0  0  0  0  0  0  0  0  0  0  0
   29.9472   -2.3077  -25.1589 O   0  0  0  0  0  0  0  0  0  0  0  0
   26.7732   -1.7345  -25.7592 C   0  0  0  0  0  0  0  0  0  0  0  0
   25.6787   -2.1897  -26.7278 C   0  0  0  0  0  0  0  0  0  0  0  0
   23.3112   -1.0565  -25.6409 C   0  0  0  0  0  0  0  0  0  0  0  0
   24.4693   -0.8174  -27.0577 Se  0  0  2  0  0  0  0  0  0  0  0  0
   23.4128   -1.3351  -28.4972 C   0  0  0  0  0  0  0  0  0  0  0  0
   24.0306   -1.0105  -29.8579 C   0  0  1  0  0  0  0  0  0  0  0  0
   23.1402   -1.4824  -30.8837 O   0  0  0  0  0  0  0  0  0  0  0  0
   24.0227    0.5112  -30.0080 C   0  0  1  0  0  0  0  0  0  0  0  0
   24.7587    0.8817  -31.1748 O   0  0  0  0  0  0  0  0  0  0  0  0
   22.5299    0.7271  -30.2435 C   0  0  1  0  0  0  0  0  0  0  0  0
   22.3444    1.9826  -30.8996 O   0  0  0  0  0  0  0  0  0  0  0  0
   22.2629   -0.3998  -31.2422 C   0  0  2  0  0  0  0  0  0  0  0  0
   28.6809   -1.9882  -23.3546 O   0  0  0  0  0  0  0  0  0  0  0  0
   17.4414    0.7014  -29.7640 N   0  0  0  0  0  0  0  0  0  0  0  0
   18.5467    1.4006  -29.5719 C   0  0  0  0  0  0  0  0  0  0  0  0
   19.7200    0.9849  -30.0160 N   0  0  0  0  0  0  0  0  0  0  0  0
   19.8248   -0.1724  -30.6866 C   0  0  0  0  0  0  0  0  0  0  0  0
   18.6864   -0.9351  -30.9063 C   0  0  0  0  0  0  0  0  0  0  0  0
   17.4718   -0.4656  -30.4202 C   0  0  0  0  0  0  0  0  0  0  0  0
   16.3660   -1.1866  -30.5771 N   0  0  0  0  0  0  0  0  0  0  0  0
   19.0517   -2.0192  -31.5813 N   0  0  0  0  0  0  0  0  0  0  0  0
   20.3658   -1.9451  -31.7795 C   0  0  0  0  0  0  0  0  0  0  0  0
   20.8432   -0.8241  -31.2383 N   0  0  0  0  0  0  0  0  0  0  0  0
  2  1  1  1  0  0  0
  2  5  1  0  0  0  0
  2  3  1  0  0  0  0
  3 17  1  0  0  0  0
  3  4  1  0  0  0  0
  5  6  1  0  0  0  0
  7  8  1  0  0  0  0
  8  6  1  1  0  0  0
  8  9  1  0  0  0  0
 10  9  1  1  0  0  0
 10 11  1  0  0  0  0
 10 12  1  0  0  0  0
 11 16  1  0  0  0  0
 12 13  1  6  0  0  0
 12 14  1  0  0  0  0
 14 15  1  6  0  0  0
 14 16  1  0  0  0  0
 16 27  1  1  0  0  0
 18 23  2  0  0  0  0
 18 19  1  0  0  0  0
 19 20  2  0  0  0  0
 20 21  1  0  0  0  0
 21 22  2  0  0  0  0
 21 27  1  0  0  0  0
 22 23  1  0  0  0  0
 22 25  1  0  0  0  0
 23 24  1  0  0  0  0
 25 26  2  0  0  0  0
 26 27  1  0  0  0  0
M  END
>  <CHROM.1>
-69.97532053,138.80725334,170.84834660,-86.14622889,-85.47122944,178.73555179
133.42588405,23.20857376,-0.86903880,-28.48284072,0.61171712,0.07074991,1.99551347

>  <Name>
ligand

>  <RI>
0

>  <Rbt.Current_Directory>
/home/itssahil/PROJECTS/Mol_Feturizer/New_Systems/rnas/3E5F

>  <Rbt.Executable>
rbdock ($Id: //depot/dev/client3/rdock/2013.1/src/exe/rbdock.cxx#4 $)

>  <Rbt.Library>
libRbt.so (2013.1, Build901 2013/11/27)

>  <Rbt.Parameter_File>
/export/apps/rDock/src/rDock_2013.1_src/data/scripts/dock_solv.prm

>  <Rbt.Receptor>
prm/blind_docking_80.prm

>  <SCORE>
-11.2212

>  <SCORE.INTER>
-12.5881

>  <SCORE.INTER.CONST>
1

>  <SCORE.INTER.POLAR>
0

>  <SCORE.INTER.ROT>
7

>  <SCORE.INTER.SOLV>
12.0141

>  <SCORE.INTER.VDW>
-20.6634

>  <SCORE.INTER.norm>
-0.466226

>  <SCORE.INTRA>
0.717523

>  <SCORE.INTRA.DIHEDRAL>
-0.246042

>  <SCORE.INTRA.DIHEDRAL.0>
4.89803

>  <SCORE.INTRA.POLAR>
0

>  <SCORE.INTRA.POLAR.0>
0

>  <SCORE.INTRA.REPUL>
0

>  <SCORE.INTRA.REPUL.0>
0

>  <SCORE.INTRA.SOLV>
0.826175

>  <SCORE.INTRA.SOLV.lig_0>
-48.5832

>  <SCORE.INTRA.VDW>
0.427457

>  <SCORE.INTRA.VDW.0>
-2.39056

>  <SCORE.INTRA.norm>
0.0265749

>  <SCORE.RESTR>
0.649327

>  <SCORE.RESTR.CAVITY>
0.649327

>  <SCORE.RESTR.norm>
0.0240491

>  <SCORE.SYSTEM>
0

>  <SCORE.SYSTEM.CONST>
0

>  <SCORE.SYSTEM.DIHEDRAL>
0

>  <SCORE.SYSTEM.SOLV>
0

>  <SCORE.SYSTEM.norm>
0

>  <SCORE.heavy>
27

>  <SCORE.norm>
-0.415602

>  <RMSD>
14.846

$$$$
ligand
 OpenBabel11021811473D
libRbt.so/2013.1/901 2013/11/27
 27 29  0  0  0  0  0  0  0  0999 V2000
   23.4635   -4.6062  -25.4447 N   0  0  0  0  0  0  0  0  0  0  0  0
   24.6540   -3.8555  -25.8700 C   0  0  2  0  0  0  0  0  0  0  0  0
   25.1526   -2.9727  -24.7218 C   0  0  0  0  0  0  0  0  0  0  0  0
   26.3867   -2.9460  -24.5220 O   0  0  0  0  0  0  0  0  0  0  0  0
   24.2801   -2.9705  -27.0604 C   0  0  0  0  0  0  0  0  0  0  0  0
   25.4367   -2.0629  -27.4870 C   0  0  0  0  0  0  0  0  0  0  0  0
   24.3140    0.2102  -26.2052 C   0  0  0  0  0  0  0  0  0  0  0  0
   24.8281   -0.3526  -27.8858 Se  0  0  2  0  0  0  0  0  0  0  0  0
   23.1868   -0.5267  -28.7414 C   0  0  0  0  0  0  0  0  0  0  0  0
   23.3034   -0.9147  -30.2160 C   0  0  1  0  0  0  0  0  0  0  0  0
   21.9786   -1.1178  -30.7370 O   0  0  0  0  0  0  0  0  0  0  0  0
   23.8314    0.3086  -30.9663 C   0  0  1  0  0  0  0  0  0  0  0  0
   24.1396   -0.0516  -32.3138 O   0  0  0  0  0  0  0  0  0  0  0  0
   22.5765    1.1774  -30.9335 C   0  0  1  0  0  0  0  0  0  0  0  0
   22.6566    2.1415  -31.9848 O   0  0  0  0  0  0  0  0  0  0  0  0
   21.5281    0.1266  -31.3015 C   0  0  2  0  0  0  0  0  0  0  0  0
   24.2896   -2.3517  -24.0631 O   0  0  0  0  0  0  0  0  0  0  0  0
   16.5692    0.8935  -32.5121 N   0  0  0  0  0  0  0  0  0  0  0  0
   17.5670    0.5287  -33.2988 C   0  0  0  0  0  0  0  0  0  0  0  0
   18.7953    0.3699  -32.8378 N   0  0  0  0  0  0  0  0  0  0  0  0
   19.0689    0.5736  -31.5402 C   0  0  0  0  0  0  0  0  0  0  0  0
   18.0474    0.9593  -30.6836 C   0  0  0  0  0  0  0  0  0  0  0  0
   16.7700    1.1194  -31.2075 C   0  0  0  0  0  0  0  0  0  0  0  0
   15.7738    1.5252  -30.4264 N   0  0  0  0  0  0  0  0  0  0  0  0
   18.5695    1.0963  -29.4699 N   0  0  0  0  0  0  0  0  0  0  0  0
   19.8664    0.8097  -29.5558 C   0  0  0  0  0  0  0  0  0  0  0  0
   20.1777    0.4905  -30.8122 N   0  0  0  0  0  0  0  0  0  0  0  0
  2  1  1  1  0  0  0
  2  5  1  0  0  0  0
  2  3  1  0  0  0  0
  3 17  1  0  0  0  0
  3  4  1  0  0  0  0
  5  6  1  0  0  0  0
  7  8  1  0  0  0  0
  8  6  1  1  0  0  0
  8  9  1  0  0  0  0
 10  9  1  1  0  0  0
 10 11  1  0  0  0  0
 10 12  1  0  0  0  0
 11 16  1  0  0  0  0
 12 13  1  6  0  0  0
 12 14  1  0  0  0  0
 14 15  1  6  0  0  0
 14 16  1  0  0  0  0
 16 27  1  1  0  0  0
 18 23  2  0  0  0  0
 18 19  1  0  0  0  0
 19 20  2  0  0  0  0
 20 21  1  0  0  0  0
 21 22  2  0  0  0  0
 21 27  1  0  0  0  0
 22 23  1  0  0  0  0
 22 25  1  0  0  0  0
 23 24  1  0  0  0  0
 25 26  2  0  0  0  0
 26 27  1  0  0  0  0
M  END
>  <CHROM.1>
175.00038087,136.64248936,-138.18269539,67.84721644,-78.63218539,175.66302230
-114.60748334,22.30901715,-0.46650106,-29.09366411,0.76474143,-0.01089320
2.06631071

>  <Name>
ligand

>  <RI>
0

>  <Rbt.Current_Directory>
/home/itssahil/PROJECTS/Mol_Feturizer/New_Systems/rnas/3E5F

>  <Rbt.Executable>
rbdock ($Id: //depot/dev/client3/rdock/2013.1/src/exe/rbdock.cxx#4 $)

>  <Rbt.Library>
libRbt.so (2013.1, Build901 2013/11/27)

>  <Rbt.Parameter_File>
/export/apps/rDock/src/rDock_2013.1_src/data/scripts/dock_solv.prm

>  <Rbt.Receptor>
prm/blind_docking_60.prm

>  <SCORE>
-9.49885

>  <SCORE.INTER>
-11.6822

>  <SCORE.INTER.CONST>
1

>  <SCORE.INTER.POLAR>
0

>  <SCORE.INTER.ROT>
7

>  <SCORE.INTER.SOLV>
12.5343

>  <SCORE.INTER.VDW>
-20.2329

>  <SCORE.INTER.norm>
-0.432673

>  <SCORE.INTRA>
2.11721

>  <SCORE.INTRA.DIHEDRAL>
3.0982

>  <SCORE.INTRA.DIHEDRAL.0>
4.89803

>  <SCORE.INTRA.POLAR>
0

>  <SCORE.INTRA.POLAR.0>
0

>  <SCORE.INTRA.REPUL>
0

>  <SCORE.INTRA.REPUL.0>
0

>  <SCORE.INTRA.SOLV>
-0.108901

>  <SCORE.INTRA.SOLV.lig_0>
-48.5832

>  <SCORE.INTRA.VDW>
0.62256

>  <SCORE.INTRA.VDW.0>
-2.39056

>  <SCORE.INTRA.norm>
0.0784152

>  <SCORE.RESTR>
0.0661

>  <SCORE.RESTR.CAVITY>
0.0661

>  <SCORE.RESTR.norm>
0.00244815

>  <SCORE.SYSTEM>
0

>  <SCORE.SYSTEM.CONST>
0

>  <SCORE.SYSTEM.DIHEDRAL>
0

>  <SCORE.SYSTEM.SOLV>
0

>  <SCORE.SYSTEM.norm>
0

>  <SCORE.heavy>
27

>  <SCORE.norm>
-0.351809

>  <RMSD>
14.870

$$$$
ligand
 OpenBabel11021811473D
libRbt.so/2013.1/901 2013/11/27
 27 29  0  0  0  0  0  0  0  0999 V2000
   26.9208   -1.9339  -24.4766 N   0  0  0  0  0  0  0  0  0  0  0  0
   27.9733   -2.2714  -25.4462 C   0  0  2  0  0  0  0  0  0  0  0  0
   29.3374   -1.8215  -24.9142 C   0  0  0  0  0  0  0  0  0  0  0  0
   30.3295   -2.5059  -25.2472 O   0  0  0  0  0  0  0  0  0  0  0  0
   27.6821   -1.5482  -26.7622 C   0  0  0  0  0  0  0  0  0  0  0  0
   26.4356   -2.1011  -27.4579 C   0  0  0  0  0  0  0  0  0  0  0  0
   24.5778   -3.5628  -25.8823 C   0  0  0  0  0  0  0  0  0  0  0  0
   24.9184   -1.8303  -26.4190 Se  0  0  2  0  0  0  0  0  0  0  0  0
   23.4976   -1.5093  -27.5742 C   0  0  0  0  0  0  0  0  0  0  0  0
   23.5498   -2.3430  -28.8551 C   0  0  1  0  0  0  0  0  0  0  0  0
   22.2281   -2.3894  -29.4194 O   0  0  0  0  0  0  0  0  0  0  0  0
   24.3784   -1.5587  -29.8732 C   0  0  1  0  0  0  0  0  0  0  0  0
   24.6202   -2.3715  -31.0226 O   0  0  0  0  0  0  0  0  0  0  0  0
   23.3739   -0.4607  -30.2136 C   0  0  1  0  0  0  0  0  0  0  0  0
   23.7118    0.0937  -31.4863 O   0  0  0  0  0  0  0  0  0  0  0  0
   22.1091   -1.3076  -30.3604 C   0  0  2  0  0  0  0  0  0  0  0  0
   29.3580   -0.8099  -24.1790 O   0  0  0  0  0  0  0  0  0  0  0  0
   17.6859    0.4587  -32.3506 N   0  0  0  0  0  0  0  0  0  0  0  0
   18.6052   -0.3015  -32.9202 C   0  0  0  0  0  0  0  0  0  0  0  0
   19.6958   -0.6774  -32.2752 N   0  0  0  0  0  0  0  0  0  0  0  0
   19.9032   -0.2964  -31.0057 C   0  0  0  0  0  0  0  0  0  0  0  0
   18.9611    0.5037  -30.3745 C   0  0  0  0  0  0  0  0  0  0  0  0
   17.8294    0.8809  -31.0878 C   0  0  0  0  0  0  0  0  0  0  0  0
   16.9235    1.6783  -30.5304 N   0  0  0  0  0  0  0  0  0  0  0  0
   19.3946    0.7406  -29.1415 N   0  0  0  0  0  0  0  0  0  0  0  0
   20.5618    0.1169  -28.9994 C   0  0  0  0  0  0  0  0  0  0  0  0
   20.8777   -0.5164  -30.1292 N   0  0  0  0  0  0  0  0  0  0  0  0
  2  1  1  1  0  0  0
  2  5  1  0  0  0  0
  2  3  1  0  0  0  0
  3 17  1  0  0  0  0
  3  4  1  0  0  0  0
  5  6  1  0  0  0  0
  7  8  1  0  0  0  0
  8  6  1  6  0  0  0
  8  9  1  0  0  0  0
 10  9  1  1  0  0  0
 10 11  1  0  0  0  0
 10 12  1  0  0  0  0
 11 16  1  0  0  0  0
 12 13  1  6  0  0  0
 12 14  1  0  0  0  0
 14 15  1  6  0  0  0
 14 16  1  0  0  0  0
 16 27  1  1  0  0  0
 18 23  2  0  0  0  0
 18 19  1  0  0  0  0
 19 20  2  0  0  0  0
 20 21  1  0  0  0  0
 21 22  2  0  0  0  0
 21 27  1  0  0  0  0
 22 23  1  0  0  0  0
 22 25  1  0  0  0  0
 23 24  1  0  0  0  0
 25 26  2  0  0  0  0
 26 27  1  0  0  0  0
M  END
>  <CHROM.1>
-68.51997480,148.52765240,63.14607306,-108.66002433,37.16866416,159.50697049
-122.12935349,23.54479691,-1.18022129,-28.42157749,0.54759142,-0.29419131
1.49322767

>  <Name>
ligand

>  <RI>
0

>  <Rbt.Current_Directory>
/home/itssahil/PROJECTS/Mol_Feturizer/New_Systems/rnas/3E5F

>  <Rbt.Executable>
rbdock ($Id: //depot/dev/client3/rdock/2013.1/src/exe/rbdock.cxx#4 $)

>  <Rbt.Library>
libRbt.so (2013.1, Build901 2013/11/27)

>  <Rbt.Parameter_File>
/export/apps/rDock/src/rDock_2013.1_src/data/scripts/dock_solv.prm

>  <Rbt.Receptor>
prm/blind_docking_80.prm

>  <SCORE>
-15.6574

>  <SCORE.INTER>
-17.4961

>  <SCORE.INTER.CONST>
1

>  <SCORE.INTER.POLAR>
0

>  <SCORE.INTER.ROT>
7

>  <SCORE.INTER.SOLV>
11.9632

>  <SCORE.INTER.VDW>
-23.9184

>  <SCORE.INTER.norm>
-0.648002

>  <SCORE.INTRA>
1.83695

>  <SCORE.INTRA.DIHEDRAL>
1.74957

>  <SCORE.INTRA.DIHEDRAL.0>
4.89803

>  <SCORE.INTRA.POLAR>
0

>  <SCORE.INTRA.POLAR.0>
0

>  <SCORE.INTRA.REPUL>
0

>  <SCORE.INTRA.REPUL.0>
0

>  <SCORE.INTRA.SOLV>
2.58463

>  <SCORE.INTRA.SOLV.lig_0>
-48.5832

>  <SCORE.INTRA.VDW>
-0.330148

>  <SCORE.INTRA.VDW.0>
-2.39056

>  <SCORE.INTRA.norm>
0.0680352

>  <SCORE.RESTR>
0.0016775

>  <SCORE.RESTR.CAVITY>
0.0016775

>  <SCORE.RESTR.norm>
6.21296e-05

>  <SCORE.SYSTEM>
0

>  <SCORE.SYSTEM.CONST>
0

>  <SCORE.SYSTEM.DIHEDRAL>
0

>  <SCORE.SYSTEM.SOLV>
0

>  <SCORE.SYSTEM.norm>
0

>  <SCORE.heavy>
27

>  <SCORE.norm>
-0.579905

>  <RMSD>
14.934

$$$$
ligand
 OpenBabel11021811473D
libRbt.so/2013.1/901 2013/11/27
 27 29  0  0  0  0  0  0  0  0999 V2000
   27.6133   -3.4110  -24.4365 N   0  0  0  0  0  0  0  0  0  0  0  0
   28.2753   -2.4550  -25.3362 C   0  0  2  0  0  0  0  0  0  0  0  0
   29.5261   -1.8832  -24.6619 C   0  0  0  0  0  0  0  0  0  0  0  0
   30.6217   -2.0964  -25.2257 O   0  0  0  0  0  0  0  0  0  0  0  0
   27.3037   -1.3147  -25.6456 C   0  0  0  0  0  0  0  0  0  0  0  0
   26.0300   -1.8155  -26.3314 C   0  0  0  0  0  0  0  0  0  0  0  0
   24.3871    0.1709  -25.1373 C   0  0  0  0  0  0  0  0  0  0  0  0
   24.9287   -0.3961  -26.8079 Se  0  0  2  0  0  0  0  0  0  0  0  0
   23.3544   -1.1121  -27.4897 C   0  0  0  0  0  0  0  0  0  0  0  0
   23.5804   -2.1588  -28.5815 C   0  0  1  0  0  0  0  0  0  0  0  0
   22.3199   -2.4277  -29.2190 O   0  0  0  0  0  0  0  0  0  0  0  0
   24.4324   -1.5029  -29.6688 C   0  0  1  0  0  0  0  0  0  0  0  0
   24.8338   -2.4877  -30.6225 O   0  0  0  0  0  0  0  0  0  0  0  0
   23.3809   -0.5818  -30.2825 C   0  0  1  0  0  0  0  0  0  0  0  0
   23.7849   -0.2423  -31.6101 O   0  0  0  0  0  0  0  0  0  0  0  0
   22.2013   -1.5525  -30.3547 C   0  0  2  0  0  0  0  0  0  0  0  0
   29.3616   -1.2542  -23.5934 O   0  0  0  0  0  0  0  0  0  0  0  0
   18.1693    0.0028  -33.1776 N   0  0  0  0  0  0  0  0  0  0  0  0
   19.2347   -0.6795  -33.5608 C   0  0  0  0  0  0  0  0  0  0  0  0
   20.1933   -1.0087  -32.7126 N   0  0  0  0  0  0  0  0  0  0  0  0
   20.1108   -0.6585  -31.4201 C   0  0  0  0  0  0  0  0  0  0  0  0
   19.0078    0.0599  -30.9807 C   0  0  0  0  0  0  0  0  0  0  0  0
   18.0229    0.3903  -31.9041 C   0  0  0  0  0  0  0  0  0  0  0  0
   16.9705    1.1109  -31.5293 N   0  0  0  0  0  0  0  0  0  0  0  0
   19.1632    0.2816  -29.6802 N   0  0  0  0  0  0  0  0  0  0  0  0
   20.3161   -0.2731  -29.3133 C   0  0  0  0  0  0  0  0  0  0  0  0
   20.8982   -0.8472  -30.3663 N   0  0  0  0  0  0  0  0  0  0  0  0
  2  1  1  1  0  0  0
  2  5  1  0  0  0  0
  2  3  1  0  0  0  0
  3 17  1  0  0  0  0
  3  4  1  0  0  0  0
  5  6  1  0  0  0  0
  7  8  1  0  0  0  0
  8  6  1  1  0  0  0
  8  9  1  0  0  0  0
 10  9  1  1  0  0  0
 10 11  1  0  0  0  0
 10 12  1  0  0  0  0
 11 16  1  0  0  0  0
 12 13  1  6  0  0  0
 12 14  1  0  0  0  0
 14 15  1  6  0  0  0
 14 16  1  0  0  0  0
 16 27  1  1  0  0  0
 18 23  2  0  0  0  0
 18 19  1  0  0  0  0
 19 20  2  0  0  0  0
 20 21  1  0  0  0  0
 21 22  2  0  0  0  0
 21 27  1  0  0  0  0
 22 23  1  0  0  0  0
 22 25  1  0  0  0  0
 23 24  1  0  0  0  0
 25 26  2  0  0  0  0
 26 27  1  0  0  0  0
M  END
>  <CHROM.1>
-60.33586036,118.89758232,-175.76064682,-69.29140285,-51.15979473,-168.05446439
-136.50321362,23.62585747,-0.96633268,-28.50204867,-0.55140249,0.37973977
-1.89654214

>  <Name>
ligand

>  <RI>
0

>  <Rbt.Current_Directory>
/home/itssahil/PROJECTS/Mol_Feturizer/New_Systems/rnas/3E5F

>  <Rbt.Executable>
rbdock ($Id: //depot/dev/client3/rdock/2013.1/src/exe/rbdock.cxx#4 $)

>  <Rbt.Library>
libRbt.so (2013.1, Build901 2013/11/27)

>  <Rbt.Parameter_File>
/export/apps/rDock/src/rDock_2013.1_src/data/scripts/dock_solv.prm

>  <Rbt.Receptor>
prm/blind_docking_60.prm

>  <SCORE>
-14.9177

>  <SCORE.INTER>
-15.0772

>  <SCORE.INTER.CONST>
1

>  <SCORE.INTER.POLAR>
0

>  <SCORE.INTER.ROT>
7

>  <SCORE.INTER.SOLV>
10.9726

>  <SCORE.INTER.VDW>
-21.9756

>  <SCORE.INTER.norm>
-0.558414

>  <SCORE.INTRA>
0.159508

>  <SCORE.INTRA.DIHEDRAL>
-1.00195

>  <SCORE.INTRA.DIHEDRAL.0>
4.89803

>  <SCORE.INTRA.POLAR>
0

>  <SCORE.INTRA.POLAR.0>
0

>  <SCORE.INTRA.REPUL>
0

>  <SCORE.INTRA.REPUL.0>
0

>  <SCORE.INTRA.SOLV>
0.661337

>  <SCORE.INTRA.SOLV.lig_0>
-48.5832

>  <SCORE.INTRA.VDW>
0.329814

>  <SCORE.INTRA.VDW.0>
-2.39056

>  <SCORE.INTRA.norm>
0.0059077

>  <SCORE.RESTR>
0

>  <SCORE.RESTR.CAVITY>
0

>  <SCORE.RESTR.norm>
0

>  <SCORE.SYSTEM>
0

>  <SCORE.SYSTEM.CONST>
0

>  <SCORE.SYSTEM.DIHEDRAL>
0

>  <SCORE.SYSTEM.SOLV>
0

>  <SCORE.SYSTEM.norm>
0

>  <SCORE.heavy>
27

>  <SCORE.norm>
-0.552506

>  <RMSD>
14.939

$$$$
ligand
 OpenBabel11021811473D
libRbt.so/2013.1/901 2013/11/27
 27 29  0  0  0  0  0  0  0  0999 V2000
   27.7759   -1.8197  -26.3384 N   0  0  0  0  0  0  0  0  0  0  0  0
   27.6429   -0.9637  -25.1503 C   0  0  2  0  0  0  0  0  0  0  0  0
   28.7401   -1.3027  -24.1368 C   0  0  0  0  0  0  0  0  0  0  0  0
   28.9540   -2.5149  -23.9170 O   0  0  0  0  0  0  0  0  0  0  0  0
   26.2744   -1.2125  -24.5137 C   0  0  0  0  0  0  0  0  0  0  0  0
   25.1291   -0.7271  -25.4060 C   0  0  0  0  0  0  0  0  0  0  0  0
   25.9588    0.0908  -27.9969 C   0  0  0  0  0  0  0  0  0  0  0  0
   25.2986   -1.3989  -27.1307 Se  0  0  2  0  0  0  0  0  0  0  0  0
   23.5904   -1.5267  -27.8531 C   0  0  0  0  0  0  0  0  0  0  0  0
   23.5263   -2.3695  -29.1276 C   0  0  1  0  0  0  0  0  0  0  0  0
   22.1639   -2.3930  -29.5869 O   0  0  0  0  0  0  0  0  0  0  0  0
   24.2880   -1.6083  -30.2133 C   0  0  1  0  0  0  0  0  0  0  0  0
   24.4235   -2.4330  -31.3716 O   0  0  0  0  0  0  0  0  0  0  0  0
   23.2814   -0.4926  -30.4831 C   0  0  1  0  0  0  0  0  0  0  0  0
   23.5297    0.0468  -31.7826 O   0  0  0  0  0  0  0  0  0  0  0  0
   21.9928   -1.3151  -30.5243 C   0  0  2  0  0  0  0  0  0  0  0  0
   29.3344   -0.3438  -23.5968 O   0  0  0  0  0  0  0  0  0  0  0  0
   17.5545    0.6850  -32.2407 N   0  0  0  0  0  0  0  0  0  0  0  0
   18.4242   -0.0747  -32.8841 C   0  0  0  0  0  0  0  0  0  0  0  0
   19.5267   -0.5159  -32.3040 N   0  0  0  0  0  0  0  0  0  0  0  0
   19.7977   -0.2046  -31.0275 C   0  0  0  0  0  0  0  0  0  0  0  0
   18.9090    0.5925  -30.3198 C   0  0  0  0  0  0  0  0  0  0  0  0
   17.7627    1.0398  -30.9663 C   0  0  0  0  0  0  0  0  0  0  0  0
   16.9071    1.8368  -30.3338 N   0  0  0  0  0  0  0  0  0  0  0  0
   19.3995    0.7547  -29.0961 N   0  0  0  0  0  0  0  0  0  0  0  0
   20.5500    0.0885  -29.0330 C   0  0  0  0  0  0  0  0  0  0  0  0
   20.7989   -0.4980  -30.2041 N   0  0  0  0  0  0  0  0  0  0  0  0
  2  1  1  6  0  0  0
  2  5  1  0  0  0  0
  2  3  1  0  0  0  0
  3 17  1  0  0  0  0
  3  4  1  0  0  0  0
  5  6  1  0  0  0  0
  7  8  1  0  0  0  0
  8  6  1  1  0  0  0
  8  9  1  0  0  0  0
 10  9  1  1  0  0  0
 10 11  1  0  0  0  0
 10 12  1  0  0  0  0
 11 16  1  0  0  0  0
 12 13  1  6  0  0  0
 12 14  1  0  0  0  0
 14 15  1  6  0  0  0
 14 16  1  0  0  0  0
 16 27  1  1  0  0  0
 18 23  2  0  0  0  0
 18 19  1  0  0  0  0
 19 20  2  0  0  0  0
 20 21  1  0  0  0  0
 21 22  2  0  0  0  0
 21 27  1  0  0  0  0
 22 23  1  0  0  0  0
 22 25  1  0  0  0  0
 23 24  1  0  0  0  0
 25 26  2  0  0  0  0
 26 27  1  0  0  0  0
M  END
>  <CHROM.1>
-67.22104586,-44.99940078,51.11622527,-102.48687102,-166.05155159,179.99106487
-126.02844491,23.47700145,-0.82308908,-28.50191874,-0.51520126,0.39081715
-1.90445432

>  <Name>
ligand

>  <RI>
0

>  <Rbt.Current_Directory>
/home/itssahil/PROJECTS/Mol_Feturizer/New_Systems/rnas/3E5F

>  <Rbt.Executable>
rbdock ($Id: //depot/dev/client3/rdock/2013.1/src/exe/rbdock.cxx#4 $)

>  <Rbt.Library>
libRbt.so (2013.1, Build901 2013/11/27)

>  <Rbt.Parameter_File>
/export/apps/rDock/src/rDock_2013.1_src/data/scripts/dock_solv.prm

>  <Rbt.Receptor>
prm/blind_docking_60.prm

>  <SCORE>
-11.0056

>  <SCORE.INTER>
-12.3055

>  <SCORE.INTER.CONST>
1

>  <SCORE.INTER.POLAR>
0

>  <SCORE.INTER.ROT>
7

>  <SCORE.INTER.SOLV>
14.5652

>  <SCORE.INTER.VDW>
-21.3254

>  <SCORE.INTER.norm>
-0.455759

>  <SCORE.INTRA>
1.29985

>  <SCORE.INTRA.DIHEDRAL>
0.597882

>  <SCORE.INTRA.DIHEDRAL.0>
4.89803

>  <SCORE.INTRA.POLAR>
0

>  <SCORE.INTRA.POLAR.0>
0

>  <SCORE.INTRA.REPUL>
0

>  <SCORE.INTRA.REPUL.0>
0

>  <SCORE.INTRA.SOLV>
2.76954

>  <SCORE.INTRA.SOLV.lig_0>
-48.5832

>  <SCORE.INTRA.VDW>
-0.383856

>  <SCORE.INTRA.VDW.0>
-2.39056

>  <SCORE.INTRA.norm>
0.0481427

>  <SCORE.RESTR>
0

>  <SCORE.RESTR.CAVITY>
0

>  <SCORE.RESTR.norm>
0

>  <SCORE.SYSTEM>
0

>  <SCORE.SYSTEM.CONST>
0

>  <SCORE.SYSTEM.DIHEDRAL>
0

>  <SCORE.SYSTEM.SOLV>
0

>  <SCORE.SYSTEM.norm>
0

>  <SCORE.heavy>
27

>  <SCORE.norm>
-0.407616

>  <RMSD>
14.948

$$$$
ligand
 OpenBabel11021811473D
libRbt.so/2013.1/901 2013/11/27
 27 29  0  0  0  0  0  0  0  0999 V2000
   26.2785   -3.5355  -24.4960 N   0  0  0  0  0  0  0  0  0  0  0  0
   27.3144   -3.1701  -25.4734 C   0  0  2  0  0  0  0  0  0  0  0  0
   28.6274   -2.8559  -24.7500 C   0  0  0  0  0  0  0  0  0  0  0  0
   29.4853   -2.2077  -25.3883 O   0  0  0  0  0  0  0  0  0  0  0  0
   26.8528   -1.9303  -26.2413 C   0  0  0  0  0  0  0  0  0  0  0  0
   25.5680   -2.1897  -27.0321 C   0  0  0  0  0  0  0  0  0  0  0  0
   24.0076   -0.3755  -25.5011 C   0  0  0  0  0  0  0  0  0  0  0  0
   24.5848   -0.6257  -27.2360 Se  0  0  2  0  0  0  0  0  0  0  0  0
   22.9987   -1.0688  -28.0988 C   0  0  0  0  0  0  0  0  0  0  0  0
   23.1992   -1.5646  -29.5315 C   0  0  1  0  0  0  0  0  0  0  0  0
   21.9119   -1.6445  -30.1673 O   0  0  0  0  0  0  0  0  0  0  0  0
   23.9395   -0.4643  -30.2926 C   0  0  1  0  0  0  0  0  0  0  0  0
   24.3213   -0.9467  -31.5818 O   0  0  0  0  0  0  0  0  0  0  0  0
   22.8036    0.5463  -30.4301 C   0  0  1  0  0  0  0  0  0  0  0  0
   23.0965    1.4225  -31.5199 O   0  0  0  0  0  0  0  0  0  0  0  0
   21.6711   -0.3960  -30.8405 C   0  0  2  0  0  0  0  0  0  0  0  0
   28.7492   -3.2781  -23.5790 O   0  0  0  0  0  0  0  0  0  0  0  0
   16.9512    0.8012  -32.5532 N   0  0  0  0  0  0  0  0  0  0  0  0
   17.9600    0.2610  -33.2149 C   0  0  0  0  0  0  0  0  0  0  0  0
   19.1198    0.0095  -32.6331 N   0  0  0  0  0  0  0  0  0  0  0  0
   19.3088    0.2956  -31.3361 C   0  0  0  0  0  0  0  0  0  0  0  0
   18.2732    0.8652  -30.6087 C   0  0  0  0  0  0  0  0  0  0  0  0
   17.0702    1.1179  -31.2575 C   0  0  0  0  0  0  0  0  0  0  0  0
   16.0681    1.6980  -30.6044 N   0  0  0  0  0  0  0  0  0  0  0  0
   18.7072    1.0506  -29.3671 N   0  0  0  0  0  0  0  0  0  0  0  0
   19.9643    0.6169  -29.3120 C   0  0  0  0  0  0  0  0  0  0  0  0
   20.3372    0.1558  -30.5060 N   0  0  0  0  0  0  0  0  0  0  0  0
  2  1  1  1  0  0  0
  2  5  1  0  0  0  0
  2  3  1  0  0  0  0
  3 17  1  0  0  0  0
  3  4  1  0  0  0  0
  5  6  1  0  0  0  0
  7  8  1  0  0  0  0
  8  6  1  1  0  0  0
  8  9  1  0  0  0  0
 10  9  1  1  0  0  0
 10 11  1  0  0  0  0
 10 12  1  0  0  0  0
 11 16  1  0  0  0  0
 12 13  1  6  0  0  0
 12 14  1  0  0  0  0
 14 15  1  6  0  0  0
 14 16  1  0  0  0  0
 16 27  1  1  0  0  0
 18 23  2  0  0  0  0
 18 19  1  0  0  0  0
 19 20  2  0  0  0  0
 20 21  1  0  0  0  0
 21 22  2  0  0  0  0
 21 27  1  0  0  0  0
 22 23  1  0  0  0  0
 22 25  1  0  0  0  0
 23 24  1  0  0  0  0
 25 26  2  0  0  0  0
 26 27  1  0  0  0  0
M  END
>  <CHROM.1>
-62.06425723,-162.00643827,151.75035118,-70.33472368,-65.65895698,-169.83384568
-113.16759268,22.98416372,-0.67212236,-28.70148250,0.61142080,-0.25773767
1.68462813

>  <Name>
ligand

>  <RI>
0

>  <Rbt.Current_Directory>
/home/itssahil/PROJECTS/Mol_Feturizer/New_Systems/rnas/3E5F

>  <Rbt.Executable>
rbdock ($Id: //depot/dev/client3/rdock/2013.1/src/exe/rbdock.cxx#4 $)

>  <Rbt.Library>
libRbt.so (2013.1, Build901 2013/11/27)

>  <Rbt.Parameter_File>
/export/apps/rDock/src/rDock_2013.1_src/data/scripts/dock_solv.prm

>  <Rbt.Receptor>
prm/blind_docking_80.prm

>  <SCORE>
-11.7203

>  <SCORE.INTER>
-13.7106

>  <SCORE.INTER.CONST>
1

>  <SCORE.INTER.POLAR>
0

>  <SCORE.INTER.ROT>
7

>  <SCORE.INTER.SOLV>
9.26438

>  <SCORE.INTER.VDW>
-20.4952

>  <SCORE.INTER.norm>
-0.5078

>  <SCORE.INTRA>
1.96577

>  <SCORE.INTRA.DIHEDRAL>
0.967235

>  <SCORE.INTRA.DIHEDRAL.0>
4.89803

>  <SCORE.INTRA.POLAR>
0

>  <SCORE.INTRA.POLAR.0>
0

>  <SCORE.INTRA.REPUL>
0

>  <SCORE.INTRA.REPUL.0>
0

>  <SCORE.INTRA.SOLV>
1.17056

>  <SCORE.INTRA.SOLV.lig_0>
-48.5832

>  <SCORE.INTRA.VDW>
0.896877

>  <SCORE.INTRA.VDW.0>
-2.39056

>  <SCORE.INTRA.norm>
0.0728064

>  <SCORE.RESTR>
0.0245216

>  <SCORE.RESTR.CAVITY>
0.0245216

>  <SCORE.RESTR.norm>
0.000908208

>  <SCORE.SYSTEM>
0

>  <SCORE.SYSTEM.CONST>
0

>  <SCORE.SYSTEM.DIHEDRAL>
0

>  <SCORE.SYSTEM.SOLV>
0

>  <SCORE.SYSTEM.norm>
0

>  <SCORE.heavy>
27

>  <SCORE.norm>
-0.434085

>  <RMSD>
15.000

$$$$
ligand
 OpenBabel11021811473D
libRbt.so/2013.1/901 2013/11/27
 27 29  0  0  0  0  0  0  0  0999 V2000
   28.3034   -1.6593  -25.0824 N   0  0  0  0  0  0  0  0  0  0  0  0
   27.0795   -1.1186  -25.6919 C   0  0  2  0  0  0  0  0  0  0  0  0
   25.8508   -1.6084  -24.9194 C   0  0  0  0  0  0  0  0  0  0  0  0
   24.9862   -0.7533  -24.6283 O   0  0  0  0  0  0  0  0  0  0  0  0
   26.9921   -1.6061  -27.1392 C   0  0  0  0  0  0  0  0  0  0  0  0
   25.8305   -0.9560  -27.8952 C   0  0  0  0  0  0  0  0  0  0  0  0
   24.1664   -3.2012  -27.3851 C   0  0  0  0  0  0  0  0  0  0  0  0
   24.2025   -1.3777  -27.1038 Se  0  0  2  0  0  0  0  0  0  0  0  0
   22.8562   -0.7953  -28.2459 C   0  0  0  0  0  0  0  0  0  0  0  0
   23.1374   -1.0842  -29.7210 C   0  0  1  0  0  0  0  0  0  0  0  0
   21.8792   -1.2013  -30.4073 O   0  0  0  0  0  0  0  0  0  0  0  0
   23.7863    0.1676  -30.3125 C   0  0  1  0  0  0  0  0  0  0  0  0
   24.2432   -0.1096  -31.6372 O   0  0  0  0  0  0  0  0  0  0  0  0
   22.5620    1.0782  -30.3638 C   0  0  1  0  0  0  0  0  0  0  0  0
   22.7952    2.1091  -31.3250 O   0  0  0  0  0  0  0  0  0  0  0  0
   21.5356    0.0951  -30.9282 C   0  0  2  0  0  0  0  0  0  0  0  0
   25.8068   -2.8240  -24.6284 O   0  0  0  0  0  0  0  0  0  0  0  0
   16.6933    0.7489  -32.5925 N   0  0  0  0  0  0  0  0  0  0  0  0
   17.7552    0.3489  -33.2706 C   0  0  0  0  0  0  0  0  0  0  0  0
   18.9410    0.2272  -32.6998 N   0  0  0  0  0  0  0  0  0  0  0  0
   19.1034    0.5063  -31.3976 C   0  0  0  0  0  0  0  0  0  0  0  0
   18.0119    0.9309  -30.6531 C   0  0  0  0  0  0  0  0  0  0  0  0
   16.7825    1.0500  -31.2907 C   0  0  0  0  0  0  0  0  0  0  0  0
   15.7224    1.4905  -30.6204 N   0  0  0  0  0  0  0  0  0  0  0  0
   18.4292    1.1408  -29.4097 N   0  0  0  0  0  0  0  0  0  0  0  0
   19.7299    0.8613  -29.3700 C   0  0  0  0  0  0  0  0  0  0  0  0
   20.1472    0.4742  -30.5755 N   0  0  0  0  0  0  0  0  0  0  0  0
  2  1  1  1  0  0  0
  2  5  1  0  0  0  0
  2  3  1  0  0  0  0
  3 17  1  0  0  0  0
  3  4  1  0  0  0  0
  5  6  1  0  0  0  0
  7  8  1  0  0  0  0
  8  6  1  6  0  0  0
  8  9  1  0  0  0  0
 10  9  1  1  0  0  0
 10 11  1  0  0  0  0
 10 12  1  0  0  0  0
 11 16  1  0  0  0  0
 12 13  1  6  0  0  0
 12 14  1  0  0  0  0
 14 15  1  6  0  0  0
 14 16  1  0  0  0  0
 16 27  1  1  0  0  0
 18 23  2  0  0  0  0
 18 19  1  0  0  0  0
 19 20  2  0  0  0  0
 20 21  1  0  0  0  0
 21 22  2  0  0  0  0
 21 27  1  0  0  0  0
 22 23  1  0  0  0  0
 22 25  1  0  0  0  0
 23 24  1  0  0  0  0
 25 26  2  0  0  0  0
 26 27  1  0  0  0  0
M  END
>  <CHROM.1>
-173.35666945,133.42493012,-61.35719505,-64.70775509,41.96948275,153.04575780
-106.66301974,22.53270163,-0.45892151,-28.86911742,-0.65432366,0.11613402
-1.29411023

>  <Name>
ligand

>  <RI>
0

>  <Rbt.Current_Directory>
/home/itssahil/PROJECTS/Mol_Feturizer/New_Systems/rnas/3E5F

>  <Rbt.Executable>
rbdock ($Id: //depot/dev/client3/rdock/2013.1/src/exe/rbdock.cxx#4 $)

>  <Rbt.Library>
libRbt.so (2013.1, Build901 2013/11/27)

>  <Rbt.Parameter_File>
/export/apps/rDock/src/rDock_2013.1_src/data/scripts/dock_solv.prm

>  <Rbt.Receptor>
prm/blind_docking_60.prm

>  <SCORE>
-12.5737

>  <SCORE.INTER>
-12.333

>  <SCORE.INTER.CONST>
1

>  <SCORE.INTER.POLAR>
0

>  <SCORE.INTER.ROT>
7

>  <SCORE.INTER.SOLV>
8.13367

>  <SCORE.INTER.VDW>
-19.1999

>  <SCORE.INTER.norm>
-0.456777

>  <SCORE.INTRA>
-0.240692

>  <SCORE.INTRA.DIHEDRAL>
0.498101

>  <SCORE.INTRA.DIHEDRAL.0>
4.89803

>  <SCORE.INTRA.POLAR>
0

>  <SCORE.INTRA.POLAR.0>
0

>  <SCORE.INTRA.REPUL>
0

>  <SCORE.INTRA.REPUL.0>
0

>  <SCORE.INTRA.SOLV>
0.0271674

>  <SCORE.INTRA.SOLV.lig_0>
-48.5832

>  <SCORE.INTRA.VDW>
-0.503326

>  <SCORE.INTRA.VDW.0>
-2.39056

>  <SCORE.INTRA.norm>
-0.00891452

>  <SCORE.RESTR>
0

>  <SCORE.RESTR.CAVITY>
0

>  <SCORE.RESTR.norm>
0

>  <SCORE.SYSTEM>
0

>  <SCORE.SYSTEM.CONST>
0

>  <SCORE.SYSTEM.DIHEDRAL>
0

>  <SCORE.SYSTEM.SOLV>
0

>  <SCORE.SYSTEM.norm>
0

>  <SCORE.heavy>
27

>  <SCORE.norm>
-0.465691

>  <RMSD>
15.002

$$$$
ligand
 OpenBabel11021811473D
libRbt.so/2013.1/901 2013/11/27
 27 29  0  0  0  0  0  0  0  0999 V2000
   30.5473   -2.2870  -24.6916 N   0  0  0  0  0  0  0  0  0  0  0  0
   29.3384   -2.5156  -23.8865 C   0  0  2  0  0  0  0  0  0  0  0  0
   29.4329   -3.8687  -23.1748 C   0  0  0  0  0  0  0  0  0  0  0  0
   29.5489   -3.8475  -21.9300 O   0  0  0  0  0  0  0  0  0  0  0  0
   28.1215   -2.5176  -24.8134 C   0  0  0  0  0  0  0  0  0  0  0  0
   27.9016   -1.1550  -25.4756 C   0  0  0  0  0  0  0  0  0  0  0  0
   27.0074   -0.0177  -27.9204 C   0  0  0  0  0  0  0  0  0  0  0  0
   26.4400   -1.2008  -26.6228 Se  0  0  2  0  0  0  0  0  0  0  0  0
   25.0649   -0.2433  -25.8176 C   0  0  0  0  0  0  0  0  0  0  0  0
   23.7603   -1.0316  -25.6948 C   0  0  1  0  0  0  0  0  0  0  0  0
   22.8538   -0.5681  -26.7103 O   0  0  0  0  0  0  0  0  0  0  0  0
   24.0672   -2.4790  -26.0809 C   0  0  1  0  0  0  0  0  0  0  0  0
   22.9318   -3.3002  -25.8034 O   0  0  0  0  0  0  0  0  0  0  0  0
   24.2263   -2.3026  -27.5889 C   0  0  1  0  0  0  0  0  0  0  0  0
   24.0210   -3.5657  -28.2242 O   0  0  0  0  0  0  0  0  0  0  0  0
   23.0217   -1.4033  -27.8698 C   0  0  2  0  0  0  0  0  0  0  0  0
   29.3969   -4.8938  -23.8905 O   0  0  0  0  0  0  0  0  0  0  0  0
   20.7219    1.1641  -31.7122 N   0  0  0  0  0  0  0  0  0  0  0  0
   20.1690    0.5248  -30.6957 C   0  0  0  0  0  0  0  0  0  0  0  0
   20.8973   -0.0907  -29.7807 N   0  0  0  0  0  0  0  0  0  0  0  0
   22.2368   -0.0821  -29.8555 C   0  0  0  0  0  0  0  0  0  0  0  0
   22.8536    0.5773  -30.9094 C   0  0  0  0  0  0  0  0  0  0  0  0
   22.0528    1.2094  -31.8534 C   0  0  0  0  0  0  0  0  0  0  0  0
   22.6054    1.8183  -32.8979 N   0  0  0  0  0  0  0  0  0  0  0  0
   24.1660    0.4393  -30.7584 N   0  0  0  0  0  0  0  0  0  0  0  0
   24.3702   -0.2776  -29.6557 C   0  0  0  0  0  0  0  0  0  0  0  0
   23.2013   -0.5982  -29.1007 N   0  0  0  0  0  0  0  0  0  0  0  0
  2  1  1  6  0  0  0
  2  5  1  0  0  0  0
  2  3  1  0  0  0  0
  3 17  1  0  0  0  0
  3  4  1  0  0  0  0
  5  6  1  0  0  0  0
  7  8  1  0  0  0  0
  8  6  1  1  0  0  0
  8  9  1  0  0  0  0
 10  9  1  6  0  0  0
 10 11  1  0  0  0  0
 10 12  1  0  0  0  0
 11 16  1  0  0  0  0
 12 13  1  6  0  0  0
 12 14  1  0  0  0  0
 14 15  1  6  0  0  0
 14 16  1  0  0  0  0
 16 27  1  6  0  0  0
 18 23  2  0  0  0  0
 18 19  1  0  0  0  0
 19 20  2  0  0  0  0
 20 21  1  0  0  0  0
 21 22  2  0  0  0  0
 21 27  1  0  0  0  0
 22 23  1  0  0  0  0
 22 25  1  0  0  0  0
 23 24  1  0  0  0  0
 25 26  2  0  0  0  0
 26 27  1  0  0  0  0
M  END
>  <CHROM.1>
-64.46822909,111.82987135,178.74712728,-146.62292259,-125.98008039,-103.31769471
-84.51722658,25.14833919,-1.26303274,-27.31338315,-0.81621524,-0.18635859
-0.91680209

>  <Name>
ligand

>  <RI>
0

>  <Rbt.Current_Directory>
/home/itssahil/PROJECTS/Mol_Feturizer/New_Systems/rnas/3E5F

>  <Rbt.Executable>
rbdock ($Id: //depot/dev/client3/rdock/2013.1/src/exe/rbdock.cxx#4 $)

>  <Rbt.Library>
libRbt.so (2013.1, Build901 2013/11/27)

>  <Rbt.Parameter_File>
/export/apps/rDock/src/rDock_2013.1_src/data/scripts/dock_solv.prm

>  <Rbt.Receptor>
prm/blind_docking_60.prm

>  <SCORE>
-5.03596

>  <SCORE.INTER>
-8.45027

>  <SCORE.INTER.CONST>
1

>  <SCORE.INTER.POLAR>
0

>  <SCORE.INTER.ROT>
7

>  <SCORE.INTER.SOLV>
14.2678

>  <SCORE.INTER.VDW>
-18.6561

>  <SCORE.INTER.norm>
-0.312973

>  <SCORE.INTRA>
3.39947

>  <SCORE.INTRA.DIHEDRAL>
6.14324

>  <SCORE.INTRA.DIHEDRAL.0>
4.89803

>  <SCORE.INTRA.POLAR>
0

>  <SCORE.INTRA.POLAR.0>
0

>  <SCORE.INTRA.REPUL>
0

>  <SCORE.INTRA.REPUL.0>
0

>  <SCORE.INTRA.SOLV>
0.732613

>  <SCORE.INTRA.SOLV.lig_0>
-48.5832

>  <SCORE.INTRA.VDW>
-0.0384597

>  <SCORE.INTRA.VDW.0>
-2.39056

>  <SCORE.INTRA.norm>
0.125906

>  <SCORE.RESTR>
0.0148321

>  <SCORE.RESTR.CAVITY>
0.0148321

>  <SCORE.RESTR.norm>
0.000549335

>  <SCORE.SYSTEM>
0

>  <SCORE.SYSTEM.CONST>
0

>  <SCORE.SYSTEM.DIHEDRAL>
0

>  <SCORE.SYSTEM.SOLV>
0

>  <SCORE.SYSTEM.norm>
0

>  <SCORE.heavy>
27

>  <SCORE.norm>
-0.186517

>  <RMSD>
15.005

$$$$
ligand
 OpenBabel11021811473D
libRbt.so/2013.1/901 2013/11/27
 27 29  0  0  0  0  0  0  0  0999 V2000
   21.5500   -0.4317  -29.3145 N   0  0  0  0  0  0  0  0  0  0  0  0
   21.6688   -1.0014  -30.6647 C   0  0  2  0  0  0  0  0  0  0  0  0
   20.3253   -1.5928  -31.1022 C   0  0  0  0  0  0  0  0  0  0  0  0
   20.3433   -2.3892  -32.0660 O   0  0  0  0  0  0  0  0  0  0  0  0
   22.7235   -2.1090  -30.6419 C   0  0  0  0  0  0  0  0  0  0  0  0
   24.1225   -1.5640  -30.3431 C   0  0  0  0  0  0  0  0  0  0  0  0
   24.7349    0.9373  -29.1435 C   0  0  0  0  0  0  0  0  0  0  0  0
   24.1790   -0.7574  -28.6696 Se  0  0  2  0  0  0  0  0  0  0  0  0
   25.6773   -1.4094  -27.7831 C   0  0  0  0  0  0  0  0  0  0  0  0
   25.5470   -2.8717  -27.3547 C   0  0  1  0  0  0  0  0  0  0  0  0
   26.7057   -3.2210  -26.5781 O   0  0  0  0  0  0  0  0  0  0  0  0
   24.3809   -2.9530  -26.3688 C   0  0  1  0  0  0  0  0  0  0  0  0
   24.0915   -4.3218  -26.0805 O   0  0  0  0  0  0  0  0  0  0  0  0
   25.0363   -2.2931  -25.1582 C   0  0  1  0  0  0  0  0  0  0  0  0
   24.3368   -2.6962  -23.9795 O   0  0  0  0  0  0  0  0  0  0  0  0
   26.3968   -2.9906  -25.1919 C   0  0  2  0  0  0  0  0  0  0  0  0
   19.3088   -1.2292  -30.4706 O   0  0  0  0  0  0  0  0  0  0  0  0
   28.4385   -1.4405  -20.7116 N   0  0  0  0  0  0  0  0  0  0  0  0
   27.4074   -2.2414  -20.9188 C   0  0  0  0  0  0  0  0  0  0  0  0
   26.9994   -2.5505  -22.1373 N   0  0  0  0  0  0  0  0  0  0  0  0
   27.6297   -2.0569  -23.2138 C   0  0  0  0  0  0  0  0  0  0  0  0
   28.7155   -1.2111  -23.0361 C   0  0  0  0  0  0  0  0  0  0  0  0
   29.1116   -0.9069  -21.7390 C   0  0  0  0  0  0  0  0  0  0  0  0
   30.1227   -0.0699  -21.5283 N   0  0  0  0  0  0  0  0  0  0  0  0
   29.1561   -0.8626  -24.2398 N   0  0  0  0  0  0  0  0  0  0  0  0
   28.3812   -1.4625  -25.1403 C   0  0  0  0  0  0  0  0  0  0  0  0
   27.4505   -2.1912  -24.5238 N   0  0  0  0  0  0  0  0  0  0  0  0
  2  1  1  1  0  0  0
  2  5  1  0  0  0  0
  2  3  1  0  0  0  0
  3 17  1  0  0  0  0
  3  4  1  0  0  0  0
  5  6  1  0  0  0  0
  7  8  1  0  0  0  0
  8  6  1  6  0  0  0
  8  9  1  0  0  0  0
 10  9  1  1  0  0  0
 10 11  1  0  0  0  0
 10 12  1  0  0  0  0
 11 16  1  0  0  0  0
 12 13  1  1  0  0  0
 12 14  1  0  0  0  0
 14 15  1  1  0  0  0
 14 16  1  0  0  0  0
 16 27  1  6  0  0  0
 18 23  2  0  0  0  0
 18 19  1  0  0  0  0
 19 20  2  0  0  0  0
 20 21  1  0  0  0  0
 21 22  2  0  0  0  0
 21 27  1  0  0  0  0
 22 23  1  0  0  0  0
 22 25  1  0  0  0  0
 23 24  1  0  0  0  0
 25 26  2  0  0  0  0
 26 27  1  0  0  0  0
M  END
>  <CHROM.1>
-65.46215332,-162.97986683,61.41077333,-122.14398882,-70.88969717,-174.76292022
-163.85547170,25.08801267,-1.63704032,-26.68043909,2.41022155,-0.55336707
-1.00262384

>  <Name>
ligand

>  <RI>
0

>  <Rbt.Current_Directory>
/home/itssahil/PROJECTS/Mol_Feturizer/New_Systems/rnas/3E5F

>  <Rbt.Executable>
rbdock ($Id: //depot/dev/client3/rdock/2013.1/src/exe/rbdock.cxx#4 $)

>  <Rbt.Library>
libRbt.so (2013.1, Build901 2013/11/27)

>  <Rbt.Parameter_File>
/export/apps/rDock/src/rDock_2013.1_src/data/scripts/dock_solv.prm

>  <Rbt.Receptor>
prm/blind_docking_100.prm

>  <SCORE>
-3.84445

>  <SCORE.INTER>
-5.79012

>  <SCORE.INTER.CONST>
1

>  <SCORE.INTER.POLAR>
0

>  <SCORE.INTER.ROT>
7

>  <SCORE.INTER.SOLV>
10.9401

>  <SCORE.INTER.VDW>
-15.7734

>  <SCORE.INTER.norm>
-0.214449

>  <SCORE.INTRA>
1.31422

>  <SCORE.INTRA.DIHEDRAL>
0.467367

>  <SCORE.INTRA.DIHEDRAL.0>
4.89803

>  <SCORE.INTRA.POLAR>
0

>  <SCORE.INTRA.POLAR.0>
0

>  <SCORE.INTRA.REPUL>
0

>  <SCORE.INTRA.REPUL.0>
0

>  <SCORE.INTRA.SOLV>
2.51723

>  <SCORE.INTRA.SOLV.lig_0>
-48.5832

>  <SCORE.INTRA.VDW>
-0.17808

>  <SCORE.INTRA.VDW.0>
-2.39056

>  <SCORE.INTRA.norm>
0.0486748

>  <SCORE.RESTR>
0.631446

>  <SCORE.RESTR.CAVITY>
0.631446

>  <SCORE.RESTR.norm>
0.0233869

>  <SCORE.SYSTEM>
0

>  <SCORE.SYSTEM.CONST>
0

>  <SCORE.SYSTEM.DIHEDRAL>
0

>  <SCORE.SYSTEM.SOLV>
0

>  <SCORE.SYSTEM.norm>
0

>  <SCORE.heavy>
27

>  <SCORE.norm>
-0.142387

>  <RMSD>
15.743

$$$$
ligand
 OpenBabel11021811473D
libRbt.so/2013.1/901 2013/11/27
 27 29  0  0  0  0  0  0  0  0999 V2000
    5.9791   12.3616  -27.4603 N   0  0  0  0  0  0  0  0  0  0  0  0
    6.3642   11.0023  -27.8675 C   0  0  2  0  0  0  0  0  0  0  0  0
    6.8174   10.1993  -26.6444 C   0  0  0  0  0  0  0  0  0  0  0  0
    7.6819    9.3161  -26.8346 O   0  0  0  0  0  0  0  0  0  0  0  0
    7.5194   11.0949  -28.8659 C   0  0  0  0  0  0  0  0  0  0  0  0
    7.1086   10.6279  -30.2646 C   0  0  0  0  0  0  0  0  0  0  0  0
    7.4830    7.8223  -30.5069 C   0  0  0  0  0  0  0  0  0  0  0  0
    6.1394    9.0443  -30.1795 Se  0  0  2  0  0  0  0  0  0  0  0  0
    5.1312    8.9194  -31.7365 C   0  0  0  0  0  0  0  0  0  0  0  0
    4.0240    9.9696  -31.8346 C   0  0  1  0  0  0  0  0  0  0  0  0
    3.1636    9.6194  -32.9322 O   0  0  0  0  0  0  0  0  0  0  0  0
    3.1462    9.8205  -30.5914 C   0  0  1  0  0  0  0  0  0  0  0  0
    2.2090   10.8969  -30.5344 O   0  0  0  0  0  0  0  0  0  0  0  0
    2.4276    8.5228  -30.9524 C   0  0  1  0  0  0  0  0  0  0  0  0
    1.2152    8.4437  -30.2007 O   0  0  0  0  0  0  0  0  0  0  0  0
    2.0879    8.8166  -32.4142 C   0  0  2  0  0  0  0  0  0  0  0  0
    6.2835   10.4786  -25.5483 O   0  0  0  0  0  0  0  0  0  0  0  0
    4.3510    5.1007  -35.1918 N   0  0  0  0  0  0  0  0  0  0  0  0
    4.9072    6.1301  -34.5765 C   0  0  0  0  0  0  0  0  0  0  0  0
    4.1888    7.0059  -33.8957 N   0  0  0  0  0  0  0  0  0  0  0  0
    2.8569    6.8726  -33.8049 C   0  0  0  0  0  0  0  0  0  0  0  0
    2.2368    5.8053  -34.4391 C   0  0  0  0  0  0  0  0  0  0  0  0
    3.0265    4.9080  -35.1484 C   0  0  0  0  0  0  0  0  0  0  0  0
    2.4649    3.8952  -35.8012 N   0  0  0  0  0  0  0  0  0  0  0  0
    0.9331    5.8981  -34.2023 N   0  0  0  0  0  0  0  0  0  0  0  0
    0.7373    6.9787  -33.4504 C   0  0  0  0  0  0  0  0  0  0  0  0
    1.9031    7.5767  -33.2042 N   0  0  0  0  0  0  0  0  0  0  0  0
  2  1  1  1  0  0  0
  2  5  1  0  0  0  0
  2  3  1  0  0  0  0
  3 17  1  0  0  0  0
  3  4  1  0  0  0  0
  5  6  1  0  0  0  0
  7  8  1  0  0  0  0
  8  6  1  6  0  0  0
  8  9  1  0  0  0  0
 10  9  1  1  0  0  0
 10 11  1  0  0  0  0
 10 12  1  0  0  0  0
 11 16  1  0  0  0  0
 12 13  1  6  0  0  0
 12 14  1  0  0  0  0
 14 15  1  1  0  0  0
 14 16  1  0  0  0  0
 16 27  1  6  0  0  0
 18 23  2  0  0  0  0
 18 19  1  0  0  0  0
 19 20  2  0  0  0  0
 20 21  1  0  0  0  0
 21 22  2  0  0  0  0
 21 27  1  0  0  0  0
 22 23  1  0  0  0  0
 22 25  1  0  0  0  0
 23 24  1  0  0  0  0
 25 26  2  0  0  0  0
 26 27  1  0  0  0  0
M  END
>  <CHROM.1>
-113.06784470,-149.44627469,-45.21804136,-96.59611010,-67.71927269,-169.09424730
33.57862350,4.48938154,8.56540873,-31.17107666,1.06394761,-0.22262463,0.85552988

>  <Name>
ligand

>  <RI>
0

>  <Rbt.Current_Directory>
/home/itssahil/PROJECTS/Mol_Feturizer/New_Systems/rnas/3E5F

>  <Rbt.Executable>
rbdock ($Id: //depot/dev/client3/rdock/2013.1/src/exe/rbdock.cxx#4 $)

>  <Rbt.Library>
libRbt.so (2013.1, Build901 2013/11/27)

>  <Rbt.Parameter_File>
/export/apps/rDock/src/rDock_2013.1_src/data/scripts/dock_solv.prm

>  <Rbt.Receptor>
prm/blind_docking_80.prm

>  <SCORE>
-3.60308

>  <SCORE.INTER>
-6.7796

>  <SCORE.INTER.CONST>
1

>  <SCORE.INTER.POLAR>
0

>  <SCORE.INTER.ROT>
7

>  <SCORE.INTER.SOLV>
7.59361

>  <SCORE.INTER.VDW>
-15.3176

>  <SCORE.INTER.norm>
-0.251096

>  <SCORE.INTRA>
2.7836

>  <SCORE.INTRA.DIHEDRAL>
6.04836

>  <SCORE.INTRA.DIHEDRAL.0>
4.89803

>  <SCORE.INTRA.POLAR>
0

>  <SCORE.INTRA.POLAR.0>
0

>  <SCORE.INTRA.REPUL>
0

>  <SCORE.INTRA.REPUL.0>
0

>  <SCORE.INTRA.SOLV>
0.336928

>  <SCORE.INTRA.SOLV.lig_0>
-48.5832

>  <SCORE.INTRA.VDW>
-0.409042

>  <SCORE.INTRA.VDW.0>
-2.39056

>  <SCORE.INTRA.norm>
0.103096

>  <SCORE.RESTR>
0.392913

>  <SCORE.RESTR.CAVITY>
0.392913

>  <SCORE.RESTR.norm>
0.0145523

>  <SCORE.SYSTEM>
0

>  <SCORE.SYSTEM.CONST>
0

>  <SCORE.SYSTEM.DIHEDRAL>
0

>  <SCORE.SYSTEM.SOLV>
0

>  <SCORE.SYSTEM.norm>
0

>  <SCORE.heavy>
27

>  <SCORE.norm>
-0.133448

>  <RMSD>
22.532

$$$$
ligand
 OpenBabel11021811473D
libRbt.so/2013.1/901 2013/11/27
 27 29  0  0  0  0  0  0  0  0999 V2000
    1.5055    8.4591  -29.7216 N   0  0  0  0  0  0  0  0  0  0  0  0
    0.5713    9.5748  -29.5105 C   0  0  2  0  0  0  0  0  0  0  0  0
   -0.8603    9.0425  -29.3946 C   0  0  0  0  0  0  0  0  0  0  0  0
   -1.6694    9.7310  -28.7351 O   0  0  0  0  0  0  0  0  0  0  0  0
    0.6603   10.5256  -30.7054 C   0  0  0  0  0  0  0  0  0  0  0  0
    1.8445   11.4883  -30.5865 C   0  0  0  0  0  0  0  0  0  0  0  0
    4.5562   11.9861  -29.9014 C   0  0  0  0  0  0  0  0  0  0  0  0
    3.4140   10.5688  -30.2045 Se  0  0  2  0  0  0  0  0  0  0  0  0
    4.0718    9.8926  -31.8064 C   0  0  0  0  0  0  0  0  0  0  0  0
    5.3747    9.1073  -31.6503 C   0  0  1  0  0  0  0  0  0  0  0  0
    5.0744    7.7054  -31.7600 O   0  0  0  0  0  0  0  0  0  0  0  0
    6.2391    9.4153  -32.8735 C   0  0  1  0  0  0  0  0  0  0  0  0
    7.5426    8.8602  -32.6914 O   0  0  0  0  0  0  0  0  0  0  0  0
    5.4736    8.6137  -33.9233 C   0  0  1  0  0  0  0  0  0  0  0  0
    6.3480    8.3369  -35.0187 O   0  0  0  0  0  0  0  0  0  0  0  0
    5.2372    7.3232  -33.1375 C   0  0  2  0  0  0  0  0  0  0  0  0
   -1.1125    7.9553  -29.9590 O   0  0  0  0  0  0  0  0  0  0  0  0
    0.0900    6.9483  -33.2415 N   0  0  0  0  0  0  0  0  0  0  0  0
    0.8426    7.8513  -32.6367 C   0  0  0  0  0  0  0  0  0  0  0  0
    2.1621    7.8161  -32.7035 N   0  0  0  0  0  0  0  0  0  0  0  0
    2.7847    6.8523  -33.3987 C   0  0  0  0  0  0  0  0  0  0  0  0
    2.0281    5.8854  -34.0458 C   0  0  0  0  0  0  0  0  0  0  0  0
    0.6433    5.9547  -33.9485 C   0  0  0  0  0  0  0  0  0  0  0  0
   -0.1139    5.0248  -34.5222 N   0  0  0  0  0  0  0  0  0  0  0  0
    2.8688    5.0555  -34.6531 N   0  0  0  0  0  0  0  0  0  0  0  0
    4.1048    5.4797  -34.4003 C   0  0  0  0  0  0  0  0  0  0  0  0
    4.0618    6.5726  -33.6380 N   0  0  0  0  0  0  0  0  0  0  0  0
  2  1  1  6  0  0  0
  2  5  1  0  0  0  0
  2  3  1  0  0  0  0
  3 17  1  0  0  0  0
  3  4  1  0  0  0  0
  5  6  1  0  0  0  0
  7  8  1  0  0  0  0
  8  6  1  6  0  0  0
  8  9  1  0  0  0  0
 10  9  1  6  0  0  0
 10 11  1  0  0  0  0
 10 12  1  0  0  0  0
 11 16  1  0  0  0  0
 12 13  1  1  0  0  0
 12 14  1  0  0  0  0
 14 15  1  6  0  0  0
 14 16  1  0  0  0  0
 16 27  1  6  0  0  0
 18 23  2  0  0  0  0
 18 19  1  0  0  0  0
 19 20  2  0  0  0  0
 20 21  1  0  0  0  0
 21 22  2  0  0  0  0
 21 27  1  0  0  0  0
 22 23  1  0  0  0  0
 22 25  1  0  0  0  0
 23 24  1  0  0  0  0
 25 26  2  0  0  0  0
 26 27  1  0  0  0  0
M  END
>  <CHROM.1>
-81.86597012,153.52011439,50.26126017,-172.62799898,179.84018644,104.67926845
41.93590726,2.85874310,8.61868662,-31.84352737,2.28523392,0.28832025,0.74191251

>  <Name>
ligand

>  <RI>
0

>  <Rbt.Current_Directory>
/home/itssahil/PROJECTS/Mol_Feturizer/New_Systems/rnas/3E5F

>  <Rbt.Executable>
rbdock ($Id: //depot/dev/client3/rdock/2013.1/src/exe/rbdock.cxx#4 $)

>  <Rbt.Library>
libRbt.so (2013.1, Build901 2013/11/27)

>  <Rbt.Parameter_File>
/export/apps/rDock/src/rDock_2013.1_src/data/scripts/dock_solv.prm

>  <Rbt.Receptor>
prm/blind_docking_60.prm

>  <SCORE>
-2.94739

>  <SCORE.INTER>
-4.93315

>  <SCORE.INTER.CONST>
1

>  <SCORE.INTER.POLAR>
0

>  <SCORE.INTER.ROT>
7

>  <SCORE.INTER.SOLV>
10.6442

>  <SCORE.INTER.VDW>
-15.1035

>  <SCORE.INTER.norm>
-0.182709

>  <SCORE.INTRA>
1.98575

>  <SCORE.INTRA.DIHEDRAL>
4.83888

>  <SCORE.INTRA.DIHEDRAL.0>
4.89803

>  <SCORE.INTRA.POLAR>
0

>  <SCORE.INTRA.POLAR.0>
0

>  <SCORE.INTRA.REPUL>
0

>  <SCORE.INTRA.REPUL.0>
0

>  <SCORE.INTRA.SOLV>
3.20539

>  <SCORE.INTRA.SOLV.lig_0>
-48.5832

>  <SCORE.INTRA.VDW>
-2.03638

>  <SCORE.INTRA.VDW.0>
-2.39056

>  <SCORE.INTRA.norm>
0.0735464

>  <SCORE.RESTR>
0

>  <SCORE.RESTR.CAVITY>
0

>  <SCORE.RESTR.norm>
0

>  <SCORE.SYSTEM>
0

>  <SCORE.SYSTEM.CONST>
0

>  <SCORE.SYSTEM.DIHEDRAL>
0

>  <SCORE.SYSTEM.SOLV>
0

>  <SCORE.SYSTEM.norm>
0

>  <SCORE.heavy>
27

>  <SCORE.norm>
-0.109163

>  <RMSD>
23.632

$$$$
ligand
 OpenBabel11021811473D
libRbt.so/2013.1/901 2013/11/27
 27 29  0  0  0  0  0  0  0  0999 V2000
   -2.9596   11.0051  -28.5633 N   0  0  0  0  0  0  0  0  0  0  0  0
   -1.8956   10.8793  -29.5703 C   0  0  2  0  0  0  0  0  0  0  0  0
   -2.5050   10.5429  -30.9347 C   0  0  0  0  0  0  0  0  0  0  0  0
   -2.0540   11.1596  -31.9246 O   0  0  0  0  0  0  0  0  0  0  0  0
   -0.9489    9.7538  -29.1498 C   0  0  0  0  0  0  0  0  0  0  0  0
    0.2705    9.6551  -30.0700 C   0  0  0  0  0  0  0  0  0  0  0  0
    0.5777   12.3677  -30.8559 C   0  0  0  0  0  0  0  0  0  0  0  0
    1.4160   11.0962  -29.8137 Se  0  0  2  0  0  0  0  0  0  0  0  0
    2.9605   10.7661  -30.7944 C   0  0  0  0  0  0  0  0  0  0  0  0
    4.0927   10.1569  -29.9665 C   0  0  1  0  0  0  0  0  0  0  0  0
    4.0683    8.7305  -30.1463 O   0  0  0  0  0  0  0  0  0  0  0  0
    5.4100   10.6048  -30.6010 C   0  0  1  0  0  0  0  0  0  0  0  0
    6.5007   10.2232  -29.7613 O   0  0  0  0  0  0  0  0  0  0  0  0
    5.3878    9.7333  -31.8543 C   0  0  1  0  0  0  0  0  0  0  0  0
    6.7226    9.6001  -32.3458 O   0  0  0  0  0  0  0  0  0  0  0  0
    4.9514    8.4051  -31.2345 C   0  0  2  0  0  0  0  0  0  0  0  0
   -3.4142    9.6843  -30.9578 O   0  0  0  0  0  0  0  0  0  0  0  0
    0.5199    6.9552  -33.4490 N   0  0  0  0  0  0  0  0  0  0  0  0
    0.7209    7.8806  -32.5267 C   0  0  0  0  0  0  0  0  0  0  0  0
    1.9269    8.1422  -32.0536 N   0  0  0  0  0  0  0  0  0  0  0  0
    2.9971    7.4699  -32.5037 C   0  0  0  0  0  0  0  0  0  0  0  0
    2.8254    6.4895  -33.4708 C   0  0  0  0  0  0  0  0  0  0  0  0
    1.5409    6.2414  -33.9402 C   0  0  0  0  0  0  0  0  0  0  0  0
    1.3312    5.2837  -34.8381 N   0  0  0  0  0  0  0  0  0  0  0  0
    4.0206    5.9776  -33.7425 N   0  0  0  0  0  0  0  0  0  0  0  0
    4.9103    6.6076  -32.9789 C   0  0  0  0  0  0  0  0  0  0  0  0
    4.2953    7.5171  -32.2227 N   0  0  0  0  0  0  0  0  0  0  0  0
  2  1  1  1  0  0  0
  2  5  1  0  0  0  0
  2  3  1  0  0  0  0
  3 17  1  0  0  0  0
  3  4  1  0  0  0  0
  5  6  1  0  0  0  0
  7  8  1  0  0  0  0
  8  6  1  6  0  0  0
  8  9  1  0  0  0  0
 10  9  1  6  0  0  0
 10 11  1  0  0  0  0
 10 12  1  0  0  0  0
 11 16  1  0  0  0  0
 12 13  1  1  0  0  0
 12 14  1  0  0  0  0
 14 15  1  1  0  0  0
 14 16  1  0  0  0  0
 16 27  1  6  0  0  0
 18 23  2  0  0  0  0
 18 19  1  0  0  0  0
 19 20  2  0  0  0  0
 20 21  1  0  0  0  0
 21 22  2  0  0  0  0
 21 27  1  0  0  0  0
 22 23  1  0  0  0  0
 22 25  1  0  0  0  0
 23 24  1  0  0  0  0
 25 26  2  0  0  0  0
 26 27  1  0  0  0  0
M  END
>  <CHROM.1>
-173.99778117,136.35892858,70.74047119,-81.87227279,-96.66166575,96.72683837
29.49016327,1.89638911,9.36641452,-31.20575903,-2.62433034,0.01498146,-2.45318882

>  <Name>
ligand

>  <RI>
0

>  <Rbt.Current_Directory>
/home/itssahil/PROJECTS/Mol_Feturizer/New_Systems/rnas/3E5F

>  <Rbt.Executable>
rbdock ($Id: //depot/dev/client3/rdock/2013.1/src/exe/rbdock.cxx#4 $)

>  <Rbt.Library>
libRbt.so (2013.1, Build901 2013/11/27)

>  <Rbt.Parameter_File>
/export/apps/rDock/src/rDock_2013.1_src/data/scripts/dock_solv.prm

>  <Rbt.Receptor>
prm/blind_docking_60.prm

>  <SCORE>
-3.49206

>  <SCORE.INTER>
-4.95609

>  <SCORE.INTER.CONST>
1

>  <SCORE.INTER.POLAR>
0

>  <SCORE.INTER.ROT>
7

>  <SCORE.INTER.SOLV>
3.87842

>  <SCORE.INTER.VDW>
-12.8635

>  <SCORE.INTER.norm>
-0.183559

>  <SCORE.INTRA>
1.46403

>  <SCORE.INTRA.DIHEDRAL>
3.44223

>  <SCORE.INTRA.DIHEDRAL.0>
4.89803

>  <SCORE.INTRA.POLAR>
0

>  <SCORE.INTRA.POLAR.0>
0

>  <SCORE.INTRA.REPUL>
0

>  <SCORE.INTRA.REPUL.0>
0

>  <SCORE.INTRA.SOLV>
0.33055

>  <SCORE.INTRA.SOLV.lig_0>
-48.5832

>  <SCORE.INTRA.VDW>
-0.42236

>  <SCORE.INTRA.VDW.0>
-2.39056

>  <SCORE.INTRA.norm>
0.0542233

>  <SCORE.RESTR>
0

>  <SCORE.RESTR.CAVITY>
0

>  <SCORE.RESTR.norm>
0

>  <SCORE.SYSTEM>
0

>  <SCORE.SYSTEM.CONST>
0

>  <SCORE.SYSTEM.DIHEDRAL>
0

>  <SCORE.SYSTEM.SOLV>
0

>  <SCORE.SYSTEM.norm>
0

>  <SCORE.heavy>
27

>  <SCORE.norm>
-0.129336

>  <RMSD>
24.334

$$$$
