@<TRIPOS>MOLECULE
3E5F_rdock.pdb
 1123 1259 0 0 0
SMALL
GASTEIGER

@<TRIPOS>ATOM
      1  P         32.9620   -4.5830  -18.4270 P.3     2  U2          0.1280
      2  C5'       35.0750   -3.4770  -19.5440 C.3     2  U2          0.1795
      3  O5'       34.0710   -4.4850  -19.5690 O.3     2  U2         -0.3259
      4  C4'       35.7020   -3.3430  -20.9130 C.3     2  U2          0.1772
      5  O4'       36.2660   -4.6210  -21.3110 O.3     2  U2         -0.3307
      6  C3'       34.7480   -2.9950  -22.0440 C.3     2  U2          0.1860
      7  O3'       34.6110   -1.5900  -22.1180 O.3     2  U2         -0.3112
      8  C2'       35.5080   -3.5060  -23.2550 C.3     2  U2          0.2309
      9  O2'       36.5520   -2.6170  -23.5970 O.3     2  U2         -0.2156
     10  C1'       36.1060   -4.8030  -22.7090 C.3     2  U2          0.2420
     11  N1        35.2540   -5.9840  -22.9200 N.ar    2  U2         -0.2534
     12  C2        35.3520   -6.6560  -24.1310 C.ar    2  U2          0.3546
     13  O2        36.1020   -6.3060  -25.0340 O.2     2  U2         -0.2443
     14  N3        34.5420   -7.7550  -24.2450 N.ar    2  U2         -0.1530
     15  C4        33.6670   -8.2370  -23.3000 C.ar    2  U2          0.2846
     16  O4        32.9910   -9.2250  -23.5610 O.2     2  U2         -0.2650
     17  C5        33.6200   -7.4880  -22.0830 C.ar    2  U2          0.0814
     18  C6        34.3910   -6.4140  -21.9390 C.ar    2  U2          0.0870
     19  OP1       32.9700   -3.3600  -17.5900 O.3     2  U2         -0.1955
     20  OP2       31.6940   -5.1150  -18.9810 O.co2   2  U2         -0.7863
     21  P         33.2460   -0.9410  -22.6550 P.3     3  U3          0.2141
     22  C5'       34.1960   -0.4220  -25.0440 C.3     3  U3          0.1812
     23  O5'       33.2930   -1.1580  -24.2350 O.3     3  U3         -0.3114
     24  C4'       34.2910   -1.0440  -26.4130 C.3     3  U3          0.1773
     25  O4'       34.7660   -2.4150  -26.2860 O.3     3  U3         -0.3307
     26  C3'       32.9720   -1.1920  -27.1550 C.3     3  U3          0.1860
     27  O3'       32.6150    0.0110  -27.8220 O.3     3  U3         -0.3112
     28  C2'       33.2950   -2.3060  -28.1420 C.3     3  U3          0.2309
     29  O2'       34.0890   -1.8460  -29.2170 O.3     3  U3         -0.2156
     30  C1'       34.1430   -3.2300  -27.2680 C.3     3  U3          0.2420
     31  N1        33.3640   -4.2750  -26.5870 N.ar    3  U3         -0.2534
     32  C2        33.0290   -5.3980  -27.3140 C.ar    3  U3          0.3546
     33  O2        33.3400   -5.5430  -28.4790 O.2     3  U3         -0.2443
     34  N3        32.3210   -6.3470  -26.6270 N.ar    3  U3         -0.1530
     35  C4        31.9230   -6.2980  -25.3160 C.ar    3  U3          0.2846
     36  O4        31.3150   -7.2560  -24.8290 O.2     3  U3         -0.2650
     37  C5        32.2980   -5.1010  -24.6250 C.ar    3  U3          0.0814
     38  C6        32.9860   -4.1520  -25.2720 C.ar    3  U3          0.0870
     39  OP1       33.3830    0.5110  -22.3670 O.2     3  U3         -0.5172
     40  OP2       32.0830   -1.6920  -22.1070 O.co2   3  U3         -0.4373
     41  P         31.0720    0.3160  -28.1290 P.3     4  C4          0.2141
     42  C5'       31.2920   -0.6050  -30.5680 C.3     4  C4          0.1812
     43  O5'       30.7070   -0.7190  -29.2820 O.3     4  C4         -0.3114
     44  C4'       30.9350   -1.8040  -31.4070 C.3     4  C4          0.1773
     45  O4'       31.4480   -3.0020  -30.7690 O.3     4  C4         -0.3307
     46  C3'       29.4580   -2.1070  -31.5500 C.3     4  C4          0.1860
     47  O3'       28.8640   -1.2690  -32.5230 O.3     4  C4         -0.3112
     48  C2'       29.5020   -3.5690  -31.9760 C.3     4  C4          0.2309
     49  O2'       29.9280   -3.7630  -33.3060 O.3     4  C4         -0.2156
     50  C1'       30.5960   -4.1010  -31.0560 C.3     4  C4          0.2420
     51  N1        30.0270   -4.5970  -29.7960 N.ar    4  C4         -0.2535
     52  C2        29.4740   -5.8840  -29.7730 C.ar    4  C4          0.3532
     53  O2        29.5150   -6.5740  -30.8000 O.2     4  C4         -0.2443
     54  N3        28.9140   -6.3450  -28.6340 N.ar    4  C4         -0.1739
     55  C4        28.8970   -5.5800  -27.5450 C.ar    4  C4          0.1759
     56  N4        28.3300   -6.0790  -26.4510 N.pl3   4  C4         -0.1070
     57  C5        29.4630   -4.2700  -27.5310 C.ar    4  C4          0.0566
     58  C6        30.0160   -3.8230  -28.6670 C.ar    4  C4          0.0850
     59  OP1       31.0320    1.6920  -28.6910 O.2     4  C4         -0.5172
     60  OP2       30.2470   -0.0140  -26.9430 O.co2   4  C4         -0.4373
     61  P         27.3110   -0.8770  -32.4070 P.3     5  C5          0.2141
     62  C5'       26.7960   -2.5900  -34.2780 C.3     5  C5          0.1812
     63  O5'       26.5610   -2.1510  -32.9630 O.3     5  C5         -0.3114
     64  C4'       26.1020   -3.8960  -34.4900 C.3     5  C5          0.1773
     65  O4'       26.7020   -4.8980  -33.6330 O.3     5  C5         -0.3307
     66  C3'       24.6450   -3.9020  -34.0700 C.3     5  C5          0.1860
     67  O3'       23.8380   -3.3700  -35.1010 O.3     5  C5         -0.3112
     68  C2'       24.3940   -5.3880  -33.8900 C.3     5  C5          0.2309
     69  O2'       24.2420   -6.0270  -35.1400 O.3     5  C5         -0.2156
     70  C1'       25.7050   -5.8300  -33.2340 C.3     5  C5          0.2420
     71  N1        25.6460   -5.8580  -31.7600 N.ar    5  C5         -0.2535
     72  C2        24.9820   -6.9210  -31.1360 C.ar    5  C5          0.3532
     73  O2        24.4480   -7.7880  -31.8410 O.2     5  C5         -0.2443
     74  N3        24.9380   -6.9760  -29.7850 N.ar    5  C5         -0.1739
     75  C4        25.5270   -6.0170  -29.0610 C.ar    5  C5          0.1759
     76  N4        25.4700   -6.1140  -27.7350 N.pl3   5  C5         -0.1070
     77  C5        26.2050   -4.9170  -29.6730 C.ar    5  C5          0.0566
     78  C6        26.2360   -4.8750  -31.0110 C.ar    5  C5          0.0850
     79  OP1       27.0930    0.2090  -33.3860 O.2     5  C5         -0.5172
     80  OP2       26.8780   -0.6920  -31.0060 O.co2   5  C5         -0.4373
     81  P         22.4810   -2.5940  -34.7370 P.3     6  C6          0.2141
     82  C5'       20.9330   -4.5760  -35.3980 C.3     6  C6          0.1812
     83  O5'       21.4490   -3.7490  -34.3780 O.3     6  C6         -0.3114
     84  C4'       20.2690   -5.7820  -34.8030 C.3     6  C6          0.1773
     85  O4'       21.2100   -6.4370  -33.9100 O.3     6  C6         -0.3307
     86  C3'       19.1060   -5.5260  -33.8700 C.3     6  C6          0.1860
     87  O3'       17.9050   -5.2040  -34.5490 O.3     6  C6         -0.3112
     88  C2'       19.0200   -6.8640  -33.1600 C.3     6  C6          0.2309
     89  O2'       18.5450   -7.8650  -34.0330 O.3     6  C6         -0.2156
     90  C1'       20.4960   -7.1310  -32.8980 C.3     6  C6          0.2420
     91  N1        20.9400   -6.6540  -31.5760 N.ar    6  C6         -0.2535
     92  C2        20.6060   -7.4230  -30.4570 C.ar    6  C6          0.3532
     93  O2        19.9290   -8.4480  -30.6270 O.2     6  C6         -0.2443
     94  N3        21.0200   -7.0270  -29.2250 N.ar    6  C6         -0.1739
     95  C4        21.7330   -5.9080  -29.0910 C.ar    6  C6          0.1759
     96  N4        22.1320   -5.5650  -27.8680 N.pl3   6  C6         -0.1070
     97  C5        22.0760   -5.0910  -30.2160 C.ar    6  C6          0.0566
     98  C6        21.6630   -5.4980  -31.4290 C.ar    6  C6          0.0850
     99  OP1       22.0310   -1.9040  -35.9740 O.2     6  C6         -0.5172
    100  OP2       22.7210   -1.8140  -33.5190 O.co2   6  C6         -0.4373
    101  P         16.8730   -4.1870  -33.8550 P.3     7  G7          0.2141
    102  C5'       15.4910   -6.0310  -32.5590 C.3     7  G7          0.1812
    103  O5'       16.4170   -4.9490  -32.5350 O.3     7  G7         -0.3114
    104  C4'       15.2970   -6.5420  -31.1530 C.3     7  G7          0.1773
    105  O4'       16.6150   -6.8390  -30.6080 O.3     7  G7         -0.3307
    106  C3'       14.7440   -5.5040  -30.1840 C.3     7  G7          0.1860
    107  O3'       13.3280   -5.5000  -30.1970 O.3     7  G7         -0.3112
    108  C2'       15.2650   -5.9990  -28.8460 C.3     7  G7          0.2309
    109  O2'       14.5280   -7.0870  -28.3420 O.3     7  G7         -0.2156
    110  C1'       16.6640   -6.4660  -29.2350 C.3     7  G7          0.2408
    111  N1        19.5740   -3.9770  -25.9240 N.ar    7  G7         -0.1709
    112  C2        18.6590   -4.9750  -25.7010 C.ar    7  G7          0.2606
    113  N2        18.5090   -5.3580  -24.4320 N.pl3   7  G7         -0.0859
    114  N3        17.9430   -5.5510  -26.6590 N.ar    7  G7         -0.1918
    115  C4        18.2200   -5.0260  -27.8730 C.ar    7  G7          0.1723
    116  C5        19.1110   -4.0240  -28.1960 C.ar    7  G7          0.1748
    117  C6        19.8760   -3.4320  -27.1710 C.ar    7  G7          0.3023
    118  O6        20.7360   -2.5460  -27.2650 O.2     7  G7         -0.2633
    119  N7        19.0930   -3.7700  -29.5580 N.ar    7  G7         -0.2173
    120  C8        18.2070   -4.6090  -30.0330 C.ar    7  G7          0.1817
    121  N9        17.6510   -5.4070  -29.0630 N.ar    7  G7         -0.2693
    122  OP1       15.7110   -4.0020  -34.7620 O.2     7  G7         -0.5172
    123  OP2       17.6360   -3.0040  -33.3860 O.co2   7  G7         -0.4373
    124  P         12.5400   -4.1620  -30.5900 P.3     8  A8          0.2141
    125  C5'       10.9420   -5.7360  -31.8720 C.3     8  A8          0.1812
    126  O5'       11.0950   -4.7280  -30.8870 O.3     8  A8         -0.3114
    127  C4'        9.5890   -6.3650  -31.7660 C.3     8  A8          0.1773
    128  O4'        9.4400   -6.9460  -30.4480 O.3     8  A8         -0.3307
    129  C3'        8.4340   -5.3960  -31.8730 C.3     8  A8          0.1860
    130  O3'        8.1810   -5.1360  -33.2450 O.3     8  A8         -0.3112
    131  C2'        7.3240   -6.1750  -31.1840 C.3     8  A8          0.2309
    132  O2'        6.8190   -7.2080  -32.0040 O.3     8  A8         -0.2156
    133  C1'        8.0930   -6.8430  -30.0430 C.3     8  A8          0.2408
    134  N1         5.2390   -5.8070  -25.9130 N.ar    8  A8         -0.2040
    135  C2         4.9500   -6.3810  -27.0850 C.ar    8  A8          0.2016
    136  N3         5.7340   -6.5880  -28.1390 N.ar    8  A8         -0.2048
    137  C4         6.9700   -6.1100  -27.9100 C.ar    8  A8          0.1692
    138  C5         7.4160   -5.4860  -26.7590 C.ar    8  A8          0.1518
    139  C6         6.4910   -5.3520  -25.7060 C.ar    8  A8          0.1919
    140  N6         6.7790   -4.8210  -24.5190 N.pl3   8  A8         -0.1054
    141  N7         8.7440   -5.1120  -26.8890 N.ar    8  A8         -0.2193
    142  C8         9.0720   -5.5320  -28.0880 C.ar    8  A8          0.1816
    143  N9         8.0550   -6.1710  -28.7480 N.ar    8  A8         -0.2693
    144  OP1       13.0520   -3.6820  -31.8950 O.2     8  A8         -0.5172
    145  OP2       12.5120   -3.2500  -29.4170 O.co2   8  A8         -0.4373
    146  P          7.9160   -3.6290  -33.7330 P.3     9  A9          0.2141
    147  C5'        5.3610   -4.1240  -33.4230 C.3     9  A9          0.1812
    148  O5'        6.4920   -3.3260  -33.0870 O.3     9  A9         -0.3114
    149  C4'        4.2380   -3.8710  -32.4500 C.3     9  A9          0.1773
    150  O4'        4.5570   -4.4630  -31.1620 O.3     9  A9         -0.3307
    151  C3'        3.9940   -2.4080  -32.1340 C.3     9  A9          0.1860
    152  O3'        3.2090   -1.7830  -33.1330 O.3     9  A9         -0.3112
    153  C2'        3.3080   -2.4840  -30.7730 C.3     9  A9          0.2309
    154  O2'        1.9430   -2.8230  -30.8310 O.3     9  A9         -0.2156
    155  C1'        4.0940   -3.6180  -30.1170 C.3     9  A9          0.2408
    156  N1         5.9460   -2.1960  -25.5510 N.ar    9  A9         -0.2040
    157  C2         4.7400   -2.6450  -25.9370 C.ar    9  A9          0.2016
    158  N3         4.3270   -2.9960  -27.1460 N.ar    9  A9         -0.2048
    159  C4         5.3140   -2.8450  -28.0450 C.ar    9  A9          0.1692
    160  C5         6.5970   -2.3910  -27.8030 C.ar    9  A9          0.1518
    161  C6         6.9160   -2.0590  -26.4790 C.ar    9  A9          0.1919
    162  N6         8.1180   -1.6220  -26.0910 N.pl3   9  A9         -0.1054
    163  N7         7.3350   -2.3600  -28.9770 N.ar    9  A9         -0.2193
    164  C8         6.4980   -2.7960  -29.8850 C.ar    9  A9          0.1816
    165  N9         5.2580   -3.1110  -29.3890 N.ar    9  A9         -0.2693
    166  OP1        7.7810   -3.6260  -35.2150 O.2     9  A9         -0.5172
    167  OP2        8.9260   -2.7390  -33.0920 O.co2   9  A9         -0.4373
    168  P          3.2320   -0.1860  -33.2680 P.3    10  A10         0.2141
    169  C5'        2.2490    1.4490  -31.5010 C.3    10  A10         0.1812
    170  O5'        2.0970    0.2630  -32.2480 O.3    10  A10        -0.3114
    171  C4'        1.4960    1.3640  -30.2030 C.3    10  A10         0.1773
    172  O4'        1.9970    0.2840  -29.3690 O.3    10  A10        -0.3307
    173  C3'        1.7450    2.5950  -29.3700 C.3    10  A10         0.1860
    174  O3'        0.9280    3.6370  -29.8510 O.3    10  A10        -0.3112
    175  C2'        1.4450    2.1100  -27.9610 C.3    10  A10         0.2309
    176  O2'        0.0730    2.0570  -27.6380 O.3    10  A10        -0.2156
    177  C1'        2.0440    0.7060  -28.0100 C.3    10  A10         0.2408
    178  N1         5.2630    1.3120  -24.0620 N.ar   10  A10        -0.2040
    179  C2         3.9300    1.2440  -24.1340 C.ar   10  A10         0.2016
    180  N3         3.1510    1.0620  -25.1950 N.ar   10  A10        -0.2048
    181  C4         3.8930    0.9380  -26.3090 C.ar   10  A10         0.1692
    182  C5         5.2690    0.9840  -26.3950 C.ar   10  A10         0.1518
    183  C6         5.9770    1.1830  -25.1970 C.ar   10  A10         0.1919
    184  N6         7.3040    1.2490  -25.1230 N.pl3  10  A10        -0.1054
    185  N7         5.6820    0.8190  -27.7090 N.ar   10  A10        -0.2193
    186  C8         4.5630    0.6820  -28.3770 C.ar   10  A10         0.1816
    187  N9         3.4430    0.7600  -27.5950 N.ar   10  A10        -0.2693
    188  OP1        2.7820    0.1430  -34.6430 O.2    10  A10        -0.5172
    189  OP2        4.5300    0.3560  -32.7770 O.co2  10  A10        -0.4373
    190  P          1.5390    5.1040  -29.9870 P.3    11  G11         0.2141
    191  C5'        0.3310    5.5250  -27.7220 C.3    11  G11         0.1812
    192  O5'        1.5640    5.5590  -28.4540 O.3    11  G11        -0.3114
    193  C4'        0.5320    5.7550  -26.2430 C.3    11  G11         0.1773
    194  O4'        1.1070    4.5870  -25.6060 O.3    11  G11        -0.3307
    195  C3'        1.4370    6.8930  -25.8140 C.3    11  G11         0.1860
    196  O3'        0.8000    8.1510  -25.9170 O.3    11  G11        -0.3112
    197  C2'        1.7350    6.5140  -24.3680 C.3    11  G11         0.2309
    198  O2'        0.7170    6.8340  -23.4420 O.3    11  G11        -0.2156
    199  C1'        1.9050    5.0000  -24.5050 C.3    11  G11         0.2408
    200  N1         6.5780    4.6910  -22.6740 N.ar   11  G11        -0.1709
    201  C2         5.3860    4.8440  -22.0140 C.ar   11  G11         0.2606
    202  N2         5.4490    4.9750  -20.6890 N.pl3  11  G11        -0.0859
    203  N3         4.2180    4.8680  -22.6110 N.ar   11  G11        -0.1918
    204  C4         4.3310    4.7320  -23.9480 C.ar   11  G11         0.1723
    205  C5         5.4650    4.5730  -24.7070 C.ar   11  G11         0.1748
    206  C6         6.7180    4.5420  -24.0520 C.ar   11  G11         0.3023
    207  O6         7.8470    4.4120  -24.5490 O.2    11  G11        -0.2633
    208  N7         5.1450    4.4640  -26.0530 N.ar   11  G11        -0.2173
    209  C8         3.8470    4.5660  -26.0820 C.ar   11  G11         0.1817
    210  N9         3.2990    4.7540  -24.8380 N.ar   11  G11        -0.2693
    211  OP1        0.4810    5.8850  -30.6750 O.2    11  G11        -0.5172
    212  OP2        2.8940    5.0250  -30.5930 O.co2  11  G11        -0.4373
    213  P          1.6910    9.4490  -26.2040 P.3    12  G12         0.2141
    214  C5'        1.8640    9.9260  -23.6440 C.3    12  G12         0.1812
    215  O5'        2.5270    9.6310  -24.8620 O.3    12  G12        -0.3114
    216  C4'        2.8390    9.9030  -22.4990 C.3    12  G12         0.1773
    217  O4'        3.4240    8.5810  -22.4020 O.3    12  G12        -0.3307
    218  C3'        4.0600   10.7970  -22.6260 C.3    12  G12         0.1860
    219  O3'        3.7790   12.1570  -22.3380 O.3    12  G12        -0.3112
    220  C2'        4.9770   10.1730  -21.5870 C.3    12  G12         0.2309
    221  O2'        4.6060   10.4900  -20.2620 O.3    12  G12        -0.2156
    222  C1'        4.7330    8.6890  -21.8580 C.3    12  G12         0.2408
    223  N1         9.5990    7.6600  -22.6640 N.ar   12  G12        -0.1709
    224  C2         8.9500    7.9990  -21.5020 C.ar   12  G12         0.2606
    225  N2         9.7130    8.1150  -20.4120 N.pl3  12  G12        -0.0859
    226  N3         7.6490    8.2070  -21.4180 N.ar   12  G12        -0.1918
    227  C4         7.0370    8.0590  -22.6110 C.ar   12  G12         0.1723
    228  C5         7.5850    7.7240  -23.8300 C.ar   12  G12         0.1748
    229  C6         8.9860    7.4880  -23.9040 C.ar   12  G12         0.3023
    230  O6         9.6660    7.1700  -24.8930 O.2    12  G12        -0.2633
    231  N7         6.6050    7.6720  -24.8150 N.ar   12  G12        -0.2173
    232  C8         5.5030    7.9800  -24.1860 C.ar   12  G12         0.1817
    233  N9         5.7030    8.2450  -22.8500 N.ar   12  G12        -0.2693
    234  OP1        0.7690   10.6010  -26.3350 O.3    12  G12        -0.4373
    235  OP2        2.6260    9.1320  -27.3070 O.co2  12  G12        -0.5172
    236  P          4.6430   13.3140  -23.0500 P.3    13  A13         0.2141
    237  C5'        6.2070   13.4920  -20.9610 C.3    13  A13         0.1812
    238  O5'        6.0630   13.2120  -22.3450 O.3    13  A13        -0.3114
    239  C4'        7.6440   13.3260  -20.5580 C.3    13  A13         0.1773
    240  O4'        8.0180   11.9300  -20.7170 O.3    13  A13        -0.3307
    241  C3'        8.6380   14.0460  -21.4510 C.3    13  A13         0.1860
    242  O3'        8.7450   15.4280  -21.1580 O.3    13  A13        -0.3112
    243  C2'        9.9090   13.2700  -21.1620 C.3    13  A13         0.2309
    244  O2'       10.4430   13.5660  -19.8860 O.3    13  A13        -0.2156
    245  C1'        9.3620   11.8450  -21.1730 C.3    13  A13         0.2408
    246  N1        12.2290    9.7100  -24.8370 N.ar   13  A13        -0.2040
    247  C2        12.4990   10.0900  -23.5830 C.ar   13  A13         0.2016
    248  N3        11.6930   10.6260  -22.6770 N.ar   13  A13        -0.2048
    249  C4        10.4540   10.7730  -23.1740 C.ar   13  A13         0.1692
    250  C5        10.0200   10.4260  -24.4410 C.ar   13  A13         0.1518
    251  C6        10.9750    9.8660  -25.3060 C.ar   13  A13         0.1919
    252  N6        10.7130    9.4870  -26.5600 N.pl3  13  A13        -0.1054
    253  N7         8.6700   10.7180  -24.5970 N.ar   13  A13        -0.2193
    254  C8         8.3260   11.2340  -23.4390 C.ar   13  A13         0.1816
    255  N9         9.3610   11.3040  -22.5330 N.ar   13  A13        -0.2693
    256  OP1        4.0230   14.6010  -22.6500 O.3    13  A13        -0.4373
    257  OP2        4.8400   13.0120  -24.4910 O.co2  13  A13        -0.5172
    258  P          8.9400   16.4710  -22.3640 P.3    14  U14         0.2141
    259  C5'       11.4810   16.3120  -21.7680 C.3    14  U14         0.1812
    260  O5'       10.4670   16.2920  -22.7640 O.3    14  U14        -0.3114
    261  C4'       12.7560   15.7330  -22.3180 C.3    14  U14         0.1773
    262  O4'       12.5810   14.3120  -22.5740 O.3    14  U14        -0.3307
    263  C3'       13.1700   16.2760  -23.6710 C.3    14  U14         0.1860
    264  O3'       13.7640   17.5620  -23.5750 O.3    14  U14        -0.3112
    265  C2'       14.1150   15.1850  -24.1460 C.3    14  U14         0.2309
    266  O2'       15.3450   15.2080  -23.4490 O.3    14  U14        -0.2156
    267  C1'       13.3200   13.9450  -23.7360 C.3    14  U14         0.2420
    268  N1        12.3680   13.5470  -24.7860 N.ar   14  U14        -0.2534
    269  C2        12.8550   12.8180  -25.8550 C.ar   14  U14         0.3546
    270  O2        14.0200   12.4810  -25.9500 O.2    14  U14        -0.2443
    271  N3        11.9290   12.5000  -26.8110 N.ar   14  U14        -0.1530
    272  C4        10.5920   12.8250  -26.8100 C.ar   14  U14         0.2846
    273  O4         9.8850   12.4440  -27.7370 O.2    14  U14        -0.2650
    274  C5        10.1560   13.5720  -25.6700 C.ar   14  U14         0.0814
    275  C6        11.0360   13.8970  -24.7170 C.ar   14  U14         0.0870
    276  OP1        8.7560   17.8460  -21.8290 O.3    14  U14        -0.4373
    277  OP2        8.1110   16.0080  -23.5080 O.co2  14  U14        -0.5172
    278  P         13.5280   18.6260  -24.7570 P.3    15  G15         0.2141
    279  C5'       14.7540   18.2430  -27.0370 C.3    15  G15         0.1812
    280  O5'       14.8430   18.4610  -25.6420 O.3    15  G15        -0.3114
    281  C4'       16.0230   17.6200  -27.5750 C.3    15  G15         0.1773
    282  O4'       16.0710   16.1960  -27.2680 O.3    15  G15        -0.3307
    283  C3'       16.0160   17.6990  -29.0890 C.3    15  G15         0.1860
    284  O3'       16.6520   18.8850  -29.5130 O.3    15  G15        -0.3112
    285  C2'       16.6740   16.4050  -29.5370 C.3    15  G15         0.2309
    286  O2'       18.0850   16.4430  -29.5600 O.3    15  G15        -0.2156
    287  C1'       16.1460   15.4470  -28.4740 C.3    15  G15         0.2408
    288  N1        13.0460   12.7770  -31.5300 N.ar   15  G15        -0.1709
    289  C2        14.3980   12.9850  -31.6480 C.ar   15  G15         0.2606
    290  N2        14.9930   12.4040  -32.6920 N.pl3  15  G15        -0.0859
    291  N3        15.1120   13.7110  -30.8010 N.ar   15  G15        -0.1918
    292  C4        14.3500   14.2140  -29.8060 C.ar   15  G15         0.1723
    293  C5        12.9930   14.0610  -29.6020 C.ar   15  G15         0.1748
    294  C6        12.2440   13.2860  -30.5150 C.ar   15  G15         0.3023
    295  O6        11.0300   13.0330  -30.4940 O.2    15  G15        -0.2633
    296  N7        12.5870   14.7350  -28.4600 N.ar   15  G15        -0.2173
    297  C8        13.6780   15.2700  -27.9950 C.ar   15  G15         0.1817
    298  N9        14.7870   14.9920  -28.7560 N.ar   15  G15        -0.2693
    299  OP1       13.5220   19.9750  -24.1260 O.3    15  G15        -0.4373
    300  OP2       12.3590   18.1950  -25.5760 O.co2  15  G15        -0.5172
    301  P         15.8800   19.8570  -30.5180 P.3    16  G16         0.2141
    302  C5'       17.3820   18.8420  -32.4060 C.3    16  G16         0.1812
    303  O5'       16.0750   19.1430  -31.9280 O.3    16  G16        -0.3114
    304  C4'       17.3090   17.9530  -33.6200 C.3    16  G16         0.1773
    305  O4'       16.8400   16.6310  -33.2400 O.3    16  G16        -0.3307
    306  C3'       16.3200   18.3890  -34.6870 C.3    16  G16         0.1860
    307  O3'       16.8480   19.4320  -35.4990 O.3    16  G16        -0.3112
    308  C2'       16.0950   17.0830  -35.4420 C.3    16  G16         0.2309
    309  O2'       17.1760   16.7420  -36.2860 O.3    16  G16        -0.2156
    310  C1'       16.0440   16.0870  -34.2860 C.3    16  G16         0.2408
    311  N1        11.4760   14.0160  -35.1210 N.ar   16  G16        -0.1709
    312  C2        12.5880   14.0330  -35.9270 C.ar   16  G16         0.2606
    313  N2        12.4750   13.4010  -37.1010 N.pl3  16  G16        -0.0859
    314  N3        13.7280   14.6180  -35.6060 N.ar   16  G16        -0.1918
    315  C4        13.6740   15.1890  -34.3880 C.ar   16  G16         0.1723
    316  C5        12.6160   15.2290  -33.5010 C.ar   16  G16         0.1748
    317  C6        11.3940   14.6020  -33.8620 C.ar   16  G16         0.3023
    318  O6        10.3420   14.5310  -33.2190 O.2    16  G16        -0.2633
    319  N7        12.9670   15.9160  -32.3470 N.ar   16  G16        -0.2173
    320  C8        14.2060   16.2750  -32.5480 C.ar   16  G16         0.1817
    321  N9        14.6990   15.8630  -33.7640 N.ar   16  G16        -0.2693
    322  OP1       16.5960   21.1570  -30.5320 O.2    16  G16        -0.5172
    323  OP2       14.4480   19.8120  -30.1310 O.co2  16  G16        -0.4373
    324  P         15.8530   20.5530  -36.0900 P.3    17  C17         0.2141
    325  C5'       15.7650   19.2190  -38.3330 C.3    17  C17         0.1812
    326  O5'       15.0580   19.7760  -37.2330 O.3    17  C17        -0.3114
    327  C4'       14.8420   18.4190  -39.2170 C.3    17  C17         0.1773
    328  O4'       14.3760   17.2210  -38.5320 O.3    17  C17        -0.3307
    329  C3'       13.5540   19.0850  -39.6480 C.3    17  C17         0.1860
    330  O3'       13.7860   20.0570  -40.6630 O.3    17  C17        -0.3112
    331  C2'       12.7700   17.8710  -40.1350 C.3    17  C17         0.2309
    332  O2'       13.2980   17.3650  -41.3440 O.3    17  C17        -0.2156
    333  C1'       13.0860   16.8690  -39.0210 C.3    17  C17         0.2420
    334  N1        12.1320   16.9550  -37.9030 N.ar   17  C17        -0.2535
    335  C2        10.8910   16.2850  -37.9960 C.ar   17  C17         0.3532
    336  O2        10.6290   15.6210  -39.0200 O.2    17  C17        -0.2443
    337  N3        10.0130   16.3820  -36.9660 N.ar   17  C17        -0.1739
    338  C4        10.3290   17.1050  -35.8850 C.ar   17  C17         0.1759
    339  N4         9.4350   17.1780  -34.8980 N.pl3  17  C17        -0.1070
    340  C5        11.5750   17.7880  -35.7680 C.ar   17  C17         0.0566
    341  C6        12.4370   17.6840  -36.7870 C.ar   17  C17         0.0850
    342  OP1       16.6800   21.6040  -36.7500 O.2    17  C17        -0.5172
    343  OP2       14.9030   20.9310  -35.0100 O.co2  17  C17        -0.4373
    344  P         12.9270   21.4250  -40.6710 P.3    18  G18         0.2141
    345  C5'       11.3020   20.2510  -42.3250 C.3    18  G18         0.1812
    346  O5'       11.4750   20.9410  -41.1020 O.3    18  G18        -0.3114
    347  C4'        9.9740   19.5490  -42.3560 C.3    18  G18         0.1773
    348  O4'        9.8950   18.5410  -41.3120 O.3    18  G18        -0.3307
    349  C3'        8.7440   20.3780  -42.0440 C.3    18  G18         0.1860
    350  O3'        8.4190   21.2940  -43.0760 O.3    18  G18        -0.3112
    351  C2'        7.7110   19.2740  -41.8690 C.3    18  G18         0.2309
    352  O2'        7.3120   18.6670  -43.0840 O.3    18  G18        -0.2156
    353  C1'        8.5200   18.2720  -41.0480 C.3    18  G18         0.2408
    354  N1         5.0680   17.6410  -37.4300 N.ar   18  G18        -0.1709
    355  C2         5.0420   17.2620  -38.7490 C.ar   18  G18         0.2606
    356  N2         3.9320   16.6380  -39.1620 N.pl3  18  G18        -0.0859
    357  N3         6.0310   17.4810  -39.5990 N.ar   18  G18        -0.1918
    358  C4         7.0660   18.1260  -39.0160 C.ar   18  G18         0.1723
    359  C5         7.1930   18.5520  -37.7150 C.ar   18  G18         0.1748
    360  C6         6.1230   18.3050  -36.8100 C.ar   18  G18         0.3023
    361  O6         6.0420   18.5970  -35.6140 O.2    18  G18        -0.2633
    362  N7         8.4170   19.1810  -37.5200 N.ar   18  G18        -0.2173
    363  C8         9.0010   19.1200  -38.6890 C.ar   18  G18         0.1817
    364  N9         8.2290   18.4970  -39.6390 N.ar   18  G18        -0.2693
    365  OP1       13.4640   22.2580  -41.7840 O.2    18  G18        -0.5172
    366  OP2       12.8570   21.9920  -39.2950 O.co2  18  G18        -0.4373
    367  P          8.1380   22.8300  -42.7000 P.3    19  G19         0.2141
    368  C5'        5.6640   22.3380  -43.3220 C.3    19  G19         0.1812
    369  O5'        6.5830   22.8470  -42.3740 O.3    19  G19        -0.3114
    370  C4'        4.4620   21.7530  -42.6310 C.3    19  G19         0.1773
    371  O4'        4.8730   20.7040  -41.7050 O.3    19  G19        -0.3307
    372  C3'        3.6980   22.6810  -41.7060 C.3    19  G19         0.1860
    373  O3'        2.9580   23.6930  -42.3780 O.3    19  G19        -0.3112
    374  C2'        2.8610   21.6690  -40.9440 C.3    19  G19         0.2309
    375  O2'        1.8670   21.0890  -41.7700 O.3    19  G19        -0.2156
    376  C1'        3.9420   20.6400  -40.6200 C.3    19  G19         0.2408
    377  N1         3.6390   21.1360  -35.5410 N.ar   19  G19        -0.1709
    378  C2         2.7030   20.6490  -36.4170 C.ar   19  G19         0.2606
    379  N2         1.5390   20.2670  -35.8730 N.pl3  19  G19        -0.0859
    380  N3         2.8960   20.5440  -37.7260 N.ar   19  G19        -0.1918
    381  C4         4.1300   20.9690  -38.0940 C.ar   19  G19         0.1723
    382  C5         5.1360   21.4670  -37.2940 C.ar   19  G19         0.1748
    383  C6         4.9090   21.5810  -35.8900 C.ar   19  G19         0.3023
    384  O6         5.6730   22.0120  -35.0140 O.2    19  G19        -0.2633
    385  N7         6.2550   21.7860  -38.0510 N.ar   19  G19        -0.2173
    386  C8         5.9180   21.4950  -39.2790 C.ar   19  G19         0.1817
    387  N9         4.6380   21.0090  -39.3880 N.ar   19  G19        -0.2693
    388  OP1        8.3790   23.6060  -43.9470 O.2    19  G19        -0.5172
    389  OP2        8.8770   23.1780  -41.4620 O.co2  19  G19        -0.4373
    390  P          3.3280   25.2400  -42.1020 P.3    20  A20         0.2141
    391  C5'        3.1010   26.5430  -39.8180 C.3    20  A20         0.1812
    392  O5'        2.5470   25.6110  -40.7580 O.3    20  A20        -0.3114
    393  C4'        2.0170   27.0830  -38.9100 C.3    20  A20         0.1773
    394  O4'        0.8600   27.3470  -39.7510 O.3    20  A20        -0.3307
    395  C3'        1.4920   26.1410  -37.8350 C.3    20  A20         0.1860
    396  O3'        2.2300   26.2190  -36.6160 O.3    20  A20        -0.3112
    397  C2'        0.0670   26.6340  -37.6330 C.3    20  A20         0.2309
    398  O2'       -0.0060   27.7870  -36.8100 O.3    20  A20        -0.2156
    399  C1'       -0.3290   26.9990  -39.0630 C.3    20  A20         0.2408
    400  N1        -4.6060   24.1650  -39.6200 N.ar   20  A20        -0.2040
    401  C2        -4.2330   25.0580  -38.6930 C.ar   20  A20         0.2016
    402  N3        -3.0950   25.7400  -38.5870 N.ar   20  A20        -0.2048
    403  C4        -2.2570   25.4280  -39.5900 C.ar   20  A20         0.1692
    404  C5        -2.4910   24.5220  -40.6130 C.ar   20  A20         0.1518
    405  C6        -3.7430   23.8680  -40.6150 C.ar   20  A20         0.1919
    406  N6        -4.1220   22.9800  -41.5420 N.pl3  20  A20        -0.1054
    407  N7        -1.3930   24.4460  -41.4620 N.ar   20  A20        -0.2193
    408  C8        -0.5400   25.3020  -40.9500 C.ar   20  A20         0.1816
    409  N9        -1.0040   25.9470  -39.8270 N.ar   20  A20        -0.2693
    410  OP1        2.7860   26.0400  -43.2320 O.2    20  A20        -0.5172
    411  OP2        4.7890   25.2870  -41.8040 O.co2  20  A20        -0.4373
    412  P          2.7020   24.8620  -35.8790 P.3    21  A21         0.2141
    413  C5'        0.4770   24.3360  -34.5830 C.3    21  A21         0.1812
    414  O5'        1.3540   24.0310  -35.6690 O.3    21  A21        -0.3114
    415  C4'       -0.9320   23.8400  -34.8550 C.3    21  A21         0.1773
    416  O4'       -1.2310   23.9790  -36.2700 O.3    21  A21        -0.3307
    417  C3'       -1.2180   22.3700  -34.5890 C.3    21  A21         0.1860
    418  O3'       -1.4840   22.1340  -33.2060 O.3    21  A21        -0.3112
    419  C2'       -2.4660   22.1160  -35.4370 C.3    21  A21         0.2309
    420  O2'       -3.6750   22.5030  -34.8170 O.3    21  A21        -0.2156
    421  C1'       -2.2140   23.0230  -36.6440 C.3    21  A21         0.2408
    422  N1        -3.4830   20.0010  -40.6410 N.ar   21  A21        -0.2040
    423  C2        -4.1970   20.4450  -39.5950 C.ar   21  A21         0.2016
    424  N3        -3.8100   21.2070  -38.5670 N.ar   21  A21        -0.2048
    425  C4        -2.5020   21.5280  -38.6770 C.ar   21  A21         0.1692
    426  C5        -1.6400   21.1390  -39.6920 C.ar   21  A21         0.1518
    427  C6        -2.1740   20.3390  -40.7190 C.ar   21  A21         0.1919
    428  N6        -1.4550   19.9040  -41.7580 N.pl3  21  A21        -0.1054
    429  N7        -0.3650   21.6490  -39.4790 N.ar   21  A21        -0.2193
    430  C8        -0.4850   22.3310  -38.3680 C.ar   21  A21         0.1816
    431  N9        -1.7500   22.3190  -37.8370 N.ar   21  A21        -0.2693
    432  OP1        3.2310   25.2030  -34.5210 O.3    21  A21        -0.4373
    433  OP2        3.5650   24.1450  -36.8620 O.co2  21  A21        -0.5172
    434  P         -0.9500   20.7810  -32.5150 P.3    22  A22         0.2141
    435  C5'       -3.3210   19.6160  -32.6720 C.3    22  A22         0.1812
    436  O5'       -1.9400   19.6410  -33.0300 O.3    22  A22        -0.3114
    437  C4'       -4.0670   18.6800  -33.5950 C.3    22  A22         0.1773
    438  O4'       -3.9940   19.2060  -34.9510 O.3    22  A22        -0.3307
    439  C3'       -3.4720   17.2820  -33.7130 C.3    22  A22         0.1860
    440  O3'       -3.9180   16.4140  -32.6670 O.3    22  A22        -0.3112
    441  C2'       -3.9740   16.8480  -35.0820 C.3    22  A22         0.2309
    442  O2'       -5.3440   16.4850  -35.0530 O.3    22  A22        -0.2156
    443  C1'       -3.8160   18.1440  -35.8760 C.3    22  A22         0.2408
    444  N1        -0.8920   17.3030  -40.0630 N.ar   22  A22        -0.2040
    445  C2        -2.1540   16.9580  -39.7660 C.ar   22  A22         0.2016
    446  N3        -2.8590   17.1940  -38.6540 N.ar   22  A22        -0.2048
    447  C4        -2.1240   17.8820  -37.7620 C.ar   22  A22         0.1692
    448  C5        -0.8150   18.3080  -37.9240 C.ar   22  A22         0.1518
    449  C6        -0.1800   17.9910  -39.1440 C.ar   22  A22         0.1919
    450  N6         1.0790   18.3280  -39.4400 N.pl3  22  A22        -0.1054
    451  N7        -0.3790   18.9850  -36.7940 N.ar   22  A22        -0.2193
    452  C8        -1.4130   18.9530  -35.9870 C.ar   22  A22         0.1816
    453  N9        -2.5070   18.3120  -36.5120 N.ar   22  A22        -0.2693
    454  OP1       -1.0740   20.9230  -31.0390 O.3    22  A22        -0.4373
    455  OP2        0.3790   20.4920  -33.1220 O.co2  22  A22        -0.5172
    456  P         -2.8380   15.7110  -31.7010 P.3    23  C23         0.2141
    457  C5'       -2.4980   13.8490  -33.5160 C.3    23  C23         0.1812
    458  O5'       -1.9230   14.8500  -32.6860 O.3    23  C23        -0.3114
    459  C4'       -1.8410   13.8530  -34.8750 C.3    23  C23         0.1773
    460  O4'       -1.4880   15.2240  -35.2120 O.3    23  C23        -0.3307
    461  C3'       -0.5050   13.1410  -35.0080 C.3    23  C23         0.1860
    462  O3'       -0.6580   11.7370  -35.1660 O.3    23  C23        -0.3112
    463  C2'        0.0430   13.7650  -36.2800 C.3    23  C23         0.2309
    464  O2'       -0.5660   13.2680  -37.4550 O.3    23  C23        -0.2156
    465  C1'       -0.3630   15.2220  -36.0820 C.3    23  C23         0.2420
    466  N1         0.7310   15.9880  -35.4680 N.ar   23  C23        -0.2535
    467  C2         1.8480   16.3070  -36.2650 C.ar   23  C23         0.3532
    468  O2         1.8590   15.9460  -37.4600 O.2    23  C23        -0.2443
    469  N3         2.8760   16.9950  -35.7150 N.ar   23  C23        -0.1739
    470  C4         2.8210   17.3640  -34.4320 C.ar   23  C23         0.1759
    471  N4         3.8600   18.0340  -33.9320 N.pl3  23  C23        -0.1070
    472  C5         1.6970   17.0600  -33.6020 C.ar   23  C23         0.0566
    473  C6         0.6840   16.3780  -34.1570 C.ar   23  C23         0.0850
    474  OP1       -3.5560   14.7700  -30.8020 O.3    23  C23        -0.4373
    475  OP2       -2.0050   16.7890  -31.1130 O.co2  23  C23        -0.5172
    476  P          0.5760   10.7590  -34.8300 P.3    24  G24         0.2141
    477  C5'        0.9830   10.3750  -37.3990 C.3    24  G24         0.1812
    478  O5'        1.4960   10.8100  -36.1380 O.3    24  G24        -0.3114
    479  C4'        1.9270   10.7260  -38.5390 C.3    24  G24         0.1773
    480  O4'        2.1100   12.1680  -38.6320 O.3    24  G24        -0.3307
    481  C3'        3.3470   10.1970  -38.4700 C.3    24  G24         0.1860
    482  O3'        3.4370    8.8340  -38.8620 O.3    24  G24        -0.3112
    483  C2'        4.0650   11.1170  -39.4480 C.3    24  G24         0.2309
    484  O2'        3.8000   10.8050  -40.8010 O.3    24  G24        -0.2156
    485  C1'        3.4230   12.4550  -39.0990 C.3    24  G24         0.2408
    486  N1         7.5940   15.0330  -37.6730 N.ar   24  G24        -0.1709
    487  C2         7.3030   14.4840  -38.8960 C.ar   24  G24         0.2606
    488  N2         8.2270   14.6690  -39.8590 N.pl3  24  G24        -0.0859
    489  N3         6.1910   13.8080  -39.1580 N.ar   24  G24        -0.1918
    490  C4         5.3770   13.7420  -38.0790 C.ar   24  G24         0.1723
    491  C5         5.5820   14.2630  -36.8180 C.ar   24  G24         0.1748
    492  C6         6.7770   14.9680  -36.5510 C.ar   24  G24         0.3023
    493  O6         7.1400   15.4910  -35.4930 O.2    24  G24        -0.2633
    494  N7         4.5070   13.9790  -35.9850 N.ar   24  G24        -0.2173
    495  C8         3.6770   13.3070  -36.7380 C.ar   24  G24         0.1817
    496  N9         4.1340   13.1350  -38.0230 N.ar   24  G24        -0.2693
    497  OP1       -0.0070    9.3960  -34.7010 O.2    24  G24        -0.5172
    498  OP2        1.3210   11.3450  -33.6860 O.co2  24  G24        -0.4373
    499  P          4.3950    7.8420  -38.0360 P.3    25  C25         0.2141
    500  C5'        6.3380    8.2160  -39.7800 C.3    25  C25         0.1812
    501  O5'        5.8760    8.2900  -38.4320 O.3    25  C25        -0.3114
    502  C4'        7.5790    9.0650  -39.9570 C.3    25  C25         0.1773
    503  O4'        7.2810   10.4200  -39.5140 O.3    25  C25        -0.3307
    504  C3'        8.7820    8.7010  -39.1010 C.3    25  C25         0.1860
    505  O3'        9.5120    7.5920  -39.6080 O.3    25  C25        -0.3112
    506  C2'        9.5830    9.9960  -39.1230 C.3    25  C25         0.2309
    507  O2'       10.2840   10.2170  -40.3330 O.3    25  C25        -0.2156
    508  C1'        8.4610   11.0230  -38.9940 C.3    25  C25         0.2420
    509  N1         8.2250   11.4230  -37.5960 N.ar   25  C25        -0.2535
    510  C2         9.1810   12.2310  -36.9660 C.ar   25  C25         0.3532
    511  O2        10.1940   12.5560  -37.5990 O.2    25  C25        -0.2443
    512  N3         8.9780   12.6320  -35.6890 N.ar   25  C25        -0.1739
    513  C4         7.8760   12.2460  -35.0400 C.ar   25  C25         0.1759
    514  N4         7.7090   12.6720  -33.7870 N.pl3  25  C25        -0.1070
    515  C5         6.8930   11.4070  -35.6510 C.ar   25  C25         0.0566
    516  C6         7.1050   11.0240  -36.9190 C.ar   25  C25         0.0850
    517  OP1        4.1610    6.4580  -38.5290 O.2    25  C25        -0.5172
    518  OP2        4.1920    8.1580  -36.5980 O.co2  25  C25        -0.4373
    519  P          9.8740    6.3750  -38.6170 P.3    26  C26         0.2141
    520  C5'       12.3470    7.2230  -38.8580 C.3    26  C26         0.1812
    521  O5'       11.3060    6.7450  -38.0150 O.3    26  C26        -0.3114
    522  C4'       13.2190    8.2210  -38.1230 C.3    26  C26         0.1773
    523  O4'       12.4490    9.3750  -37.6870 O.3    26  C26        -0.3307
    524  C3'       13.8800    7.7610  -36.8370 C.3    26  C26         0.1860
    525  O3'       14.9950    6.9210  -37.1140 O.3    26  C26        -0.3112
    526  C2'       14.3000    9.0920  -36.2210 C.3    26  C26         0.2309
    527  O2'       15.4670    9.6360  -36.8040 O.3    26  C26        -0.2156
    528  C1'       13.1130    9.9860  -36.5910 C.3    26  C26         0.2420
    529  N1        12.1650   10.1740  -35.4830 N.ar   26  C26        -0.2535
    530  C2        12.5880   10.9010  -34.3690 C.ar   26  C26         0.3532
    531  O2        13.7400   11.3570  -34.3560 O.2    26  C26        -0.2443
    532  N3        11.7370   11.0890  -33.3360 N.ar   26  C26        -0.1739
    533  C4        10.5060   10.5780  -33.3860 C.ar   26  C26         0.1759
    534  N4         9.7000   10.7860  -32.3370 N.pl3  26  C26        -0.1070
    535  C5        10.0460    9.8290  -34.5120 C.ar   26  C26         0.0566
    536  C6        10.9030    9.6550  -35.5300 C.ar   26  C26         0.0850
    537  OP1       10.0100    5.1490  -39.4450 O.2    26  C26        -0.5172
    538  OP2        8.8780    6.4180  -37.5090 O.co2  26  C26        -0.4373
    539  P         15.2310    5.5950  -36.2330 P.3    27  A27         0.2141
    540  C5'       17.3230    6.7830  -35.1860 C.3    27  A27         0.1812
    541  O5'       16.0850    6.1140  -34.9890 O.3    27  A27        -0.3114
    542  C4'       17.7430    7.4830  -33.9190 C.3    27  A27         0.1773
    543  O4'       16.8410    8.5770  -33.6270 O.3    27  A27        -0.3307
    544  C3'       17.6840    6.6410  -32.6590 C.3    27  A27         0.1860
    545  O3'       18.8400    5.8120  -32.5600 O.3    27  A27        -0.3112
    546  C2'       17.6530    7.7030  -31.5650 C.3    27  A27         0.2309
    547  O2'       18.9420    8.1690  -31.2240 O.3    27  A27        -0.2156
    548  C1'       16.8560    8.8290  -32.2330 C.3    27  A27         0.2408
    549  N1        13.8000   10.4610  -28.4160 N.ar   27  A27        -0.2040
    550  C2        15.1330   10.4640  -28.5690 C.ar   27  A27         0.2016
    551  N3        15.8680   10.0180  -29.5900 N.ar   27  A27        -0.2048
    552  C4        15.0830    9.5100  -30.5560 C.ar   27  A27         0.1692
    553  C5        13.7000    9.4340  -30.5440 C.ar   27  A27         0.1518
    554  C6        13.0380    9.9390  -29.4040 C.ar   27  A27         0.1919
    555  N6        11.7090    9.9270  -29.2480 N.pl3  27  A27        -0.1054
    556  N7        13.2320    8.8490  -31.7130 N.ar   27  A27        -0.2193
    557  C8        14.3230    8.5890  -32.3960 C.ar   27  A27         0.1816
    558  N9        15.4790    8.9640  -31.7570 N.ar   27  A27        -0.2693
    559  OP1       16.0840    4.6950  -37.0580 O.2    27  A27        -0.5172
    560  OP2       13.9240    5.1070  -35.7260 O.co2  27  A27        -0.4373
    561  P         18.6730    4.2280  -32.3110 P.3    28  G28         0.2141
    562  C5'       20.1330    4.0510  -30.1590 C.3    28  G28         0.1812
    563  O5'       18.8430    4.0680  -30.7390 O.3    28  G28        -0.3114
    564  C4'       20.0900    4.6900  -28.8060 C.3    28  G28         0.1773
    565  O4'       19.3450    5.9340  -28.9540 O.3    28  G28        -0.3307
    566  C3'       19.2940    3.9710  -27.7260 C.3    28  G28         0.1860
    567  O3'       19.8750    2.7700  -27.1900 O.3    28  G28        -0.3112
    568  C2'       18.9920    5.1070  -26.7620 C.3    28  G28         0.2309
    569  O2'       20.1040    5.5520  -26.0040 O.3    28  G28        -0.2156
    570  C1'       18.6190    6.2000  -27.7590 C.3    28  G28         0.2408
    571  N1        14.2370    8.1870  -26.3300 N.ar   28  G28        -0.1709
    572  C2        15.5070    8.3670  -25.8340 C.ar   28  G28         0.2606
    573  N2        15.6380    9.1940  -24.7900 N.pl3  28  G28        -0.0859
    574  N3        16.5750    7.7760  -26.3190 N.ar   28  G28        -0.1918
    575  C4        16.2820    6.9630  -27.3490 C.ar   28  G28         0.1723
    576  C5        15.0580    6.6990  -27.9250 C.ar   28  G28         0.1748
    577  C6        13.9070    7.3560  -27.3990 C.ar   28  G28         0.3023
    578  O6        12.7320    7.2710  -27.7700 O.2    28  G28        -0.2633
    579  N7        15.1910    5.7880  -28.9660 N.ar   28  G28        -0.2173
    580  C8        16.4720    5.5280  -29.0000 C.ar   28  G28         0.1817
    581  N9        17.1860    6.2170  -28.0430 N.ar   28  G28        -0.2693
    582  OP1       19.8390    3.5750  -32.9590 O.2    28  G28        -0.5172
    583  OP2       17.3020    3.7930  -32.6670 O.co2  28  G28        -0.4373
    584  P         21.3880    2.7430  -26.6310 P.3    29  A29         0.2141
    585  C5'       20.7400    2.4350  -24.0580 C.3    29  A29         0.1812
    586  O5'       21.2950    1.9040  -25.2760 O.3    29  A29        -0.3114
    587  C4'       20.1580    1.2930  -23.2520 C.3    29  A29         0.1773
    588  O4'       18.9550    0.8210  -23.8700 O.3    29  A29        -0.3307
    589  C3'       21.1240    0.1200  -23.1300 C.3    29  A29         0.1860
    590  O3'       21.0770   -0.2420  -21.7470 O.3    29  A29        -0.3112
    591  C2'       20.4930   -1.0070  -23.9500 C.3    29  A29         0.2309
    592  O2'       20.6160   -2.3120  -23.4400 O.3    29  A29        -0.2156
    593  C1'       19.0320   -0.5630  -24.0590 C.3    29  A29         0.2408
    594  N1        15.2080   -3.1650  -26.2420 N.ar   29  A29        -0.2040
    595  C2        15.6570   -3.1170  -24.9800 C.ar   29  A29         0.2016
    596  N3        16.6760   -2.4260  -24.4780 N.ar   29  A29        -0.2048
    597  C4        17.2780   -1.7130  -25.4400 C.ar   29  A29         0.1692
    598  C5        16.9330   -1.6570  -26.7710 C.ar   29  A29         0.1518
    599  C6        15.8420   -2.4230  -27.1790 C.ar   29  A29         0.1919
    600  N6        15.3950   -2.4570  -28.4390 N.pl3  29  A29        -0.1054
    601  N7        17.7740   -0.7980  -27.4630 N.ar   29  A29        -0.2193
    602  C8        18.6000   -0.3630  -26.5450 C.ar   29  A29         0.1816
    603  N9        18.3460   -0.8690  -25.2990 N.ar   29  A29        -0.2693
    604  OP1       21.9020    4.0930  -26.3160 O.3    29  A29        -0.4373
    605  OP2       22.1200    1.8930  -27.6060 O.co2  29  A29        -0.5172
    606  P         22.3930   -0.6870  -20.9490 P.3    30  U30         0.2141
    607  C5'       20.7020   -2.3940  -19.9670 C.3    30  U30         0.1812
    608  O5'       22.0260   -2.1360  -20.4060 O.3    30  U30        -0.3114
    609  C4'       20.6910   -2.9710  -18.5730 C.3    30  U30         0.1773
    610  O4'       21.8700   -2.5800  -17.8050 O.3    30  U30        -0.3307
    611  C3'       19.5880   -2.4420  -17.6750 C.3    30  U30         0.1860
    612  O3'       18.2630   -2.8340  -17.9880 O.3    30  U30        -0.3112
    613  C2'       20.0610   -2.9470  -16.3270 C.3    30  U30         0.2309
    614  O2'       19.8980   -4.3470  -16.2060 O.3    30  U30        -0.2156
    615  C1'       21.5430   -2.5830  -16.4110 C.3    30  U30         0.2420
    616  N1        21.7370   -1.2350  -15.8470 N.ar   30  U30        -0.2534
    617  C2        21.9170   -1.1500  -14.4750 C.ar   30  U30         0.3546
    618  O2        21.9460   -2.1360  -13.7540 O.2    30  U30        -0.2443
    619  N3        22.0540    0.1270  -13.9810 N.ar   30  U30        -0.1530
    620  C4        22.0320    1.3080  -14.7000 C.ar   30  U30         0.2846
    621  O4        22.1670    2.3850  -14.1080 O.2    30  U30        -0.2650
    622  C5        21.8500    1.1410  -16.1140 C.ar   30  U30         0.0814
    623  C6        21.7160   -0.0960  -16.6290 C.ar   30  U30         0.0870
    624  OP1       22.4330    0.2240  -19.7720 O.3    30  U30        -0.4373
    625  OP2       23.5360   -0.7460  -21.8930 O.co2  30  U30        -0.5172
    626  P         17.0910   -1.7470  -17.8470 P.3    31  G31         0.2141
    627  C5'       17.7240    0.2380  -19.4480 C.3    31  G31         0.1812
    628  O5'       17.0870   -1.0200  -19.2600 O.3    31  G31        -0.3114
    629  C4'       17.4200    0.7560  -20.8340 C.3    31  G31         0.1773
    630  O4'       16.4790   -0.0850  -21.5130 O.3    31  G31        -0.3307
    631  C3'       16.8520    2.1720  -20.9050 C.3    31  G31         0.1860
    632  O3'       17.8230    2.9580  -21.5790 O.3    31  G31        -0.3112
    633  C2'       15.6850    2.0900  -21.8970 C.3    31  G31         0.2309
    634  O2'       15.6590    3.0660  -22.9170 O.3    31  G31        -0.2156
    635  C1'       15.8880    0.7030  -22.4990 C.3    31  G31         0.2408
    636  N1        13.3670    0.0130  -26.7980 N.ar   31  G31        -0.1709
    637  C2        14.5070    0.7230  -26.5610 C.ar   31  G31         0.2606
    638  N2        15.0560    1.3310  -27.6230 N.pl3  31  G31        -0.0859
    639  N3        15.0730    0.8290  -25.3720 N.ar   31  G31        -0.1918
    640  C4        14.4010    0.1370  -24.4280 C.ar   31  G31         0.1723
    641  C5        13.2600   -0.6070  -24.5620 C.ar   31  G31         0.1748
    642  C6        12.6540   -0.6970  -25.8360 C.ar   31  G31         0.3023
    643  O6        11.6200   -1.3010  -26.1550 O.2    31  G31        -0.2633
    644  N7        12.8890   -1.1630  -23.3460 N.ar   31  G31        -0.2173
    645  C8        13.8010   -0.7480  -22.5080 C.ar   31  G31         0.1817
    646  N9        14.7410    0.0460  -23.1010 N.ar   31  G31        -0.2693
    647  OP1       17.5790   -0.7870  -16.8190 O.3    31  G31        -0.4373
    648  OP2       15.7850   -2.4150  -17.6530 O.co2  31  G31        -0.5172
    649  P         18.7230    3.9950  -20.7820 P.3    32  C32         0.2141
    650  C5'       17.9000    5.7640  -19.0200 C.3    32  C32         0.1812
    651  O5'       17.6700    5.0620  -20.2330 O.3    32  C32        -0.3114
    652  C4'       16.6410    6.4660  -18.5670 C.3    32  C32         0.1773
    653  O4'       16.2900    7.5310  -19.4940 O.3    32  C32        -0.3307
    654  C3'       15.3730    5.6360  -18.5160 C.3    32  C32         0.1860
    655  O3'       15.3250    4.8120  -17.3700 O.3    32  C32        -0.3112
    656  C2'       14.3040    6.7190  -18.4760 C.3    32  C32         0.2309
    657  O2'       14.1380    7.3300  -17.2130 O.3    32  C32        -0.2156
    658  C1'       14.8820    7.7260  -19.4670 C.3    32  C32         0.2420
    659  N1        14.3430    7.4350  -20.7950 N.ar   32  C32        -0.2535
    660  C2        12.9620    7.5490  -20.9860 C.ar   32  C32         0.3532
    661  O2        12.2570    7.9480  -20.0400 O.2    32  C32        -0.2443
    662  N3        12.4330    7.2250  -22.1840 N.ar   32  C32        -0.1739
    663  C4        13.2290    6.8140  -23.1710 C.ar   32  C32         0.1759
    664  N4        12.6620    6.4890  -24.3290 N.pl3  32  C32        -0.1070
    665  C5        14.6420    6.7170  -23.0140 C.ar   32  C32         0.0566
    666  C6        15.1540    7.0370  -21.8200 C.ar   32  C32         0.0850
    667  OP1       19.5570    4.6240  -21.8470 O.2    32  C32        -0.5172
    668  OP2       19.3770    3.2660  -19.6610 O.co2  32  C32        -0.4373
    669  P         14.4400    3.4780  -17.3970 P.3    33  C33         0.2141
    670  C5'       12.5970    4.5620  -15.8660 C.3    33  C33         0.1812
    671  O5'       12.9580    3.9920  -17.1210 O.3    33  C33        -0.3114
    672  C4'       11.1250    4.8590  -15.8470 C.3    33  C33         0.1773
    673  O4'       10.8460    5.8490  -16.8680 O.3    33  C33        -0.3307
    674  C3'       10.2490    3.6830  -16.2340 C.3    33  C33         0.1860
    675  O3'        9.9370    2.8650  -15.1240 O.3    33  C33        -0.3112
    676  C2'        8.9960    4.3610  -16.7580 C.3    33  C33         0.2309
    677  O2'        8.1020    4.7220  -15.7300 O.3    33  C33        -0.2156
    678  C1'        9.5840    5.5880  -17.4550 C.3    33  C33         0.2420
    679  N1         9.7870    5.3430  -18.8870 N.ar   33  C33        -0.2535
    680  C2         8.6660    5.2870  -19.7180 C.ar   33  C33         0.3532
    681  O2         7.5470    5.4970  -19.2290 O.2    33  C33        -0.2443
    682  N3         8.8280    5.0060  -21.0290 N.ar   33  C33        -0.1739
    683  C4        10.0500    4.8000  -21.5190 C.ar   33  C33         0.1759
    684  N4        10.1590    4.5180  -22.8160 N.pl3  33  C33        -0.1070
    685  C5        11.2130    4.8750  -20.6990 C.ar   33  C33         0.0566
    686  C6        11.0370    5.1490  -19.4000 C.ar   33  C33         0.0850
    687  OP1       14.8830    2.6510  -16.2490 O.3    33  C33        -0.4373
    688  OP2       14.4710    2.9070  -18.7670 O.co2  33  C33        -0.5172
    689  P          9.8390    1.2840  -15.3270 P.3    34  U34         0.2141
    690  C5'        7.3030    1.8530  -14.9560 C.3    34  U34         0.1812
    691  O5'        8.2850    0.9710  -15.4590 O.3    34  U34        -0.3114
    692  C4'        6.0420    1.7020  -15.7540 C.3    34  U34         0.1773
    693  O4'        6.0620    2.5820  -16.9070 O.3    34  U34        -0.3307
    694  C3'        5.8480    0.3350  -16.3760 C.3    34  U34         0.1860
    695  O3'        5.4250   -0.6290  -15.4200 O.3    34  U34        -0.3112
    696  C2'        4.8110    0.6490  -17.4400 C.3    34  U34         0.2309
    697  O2'        3.5400    0.8750  -16.8710 O.3    34  U34        -0.2156
    698  C1'        5.3330    1.9870  -17.9670 C.3    34  U34         0.2420
    699  N1         6.2210    1.8700  -19.1350 N.ar   34  U34        -0.2534
    700  C2         5.6320    1.7220  -20.3790 C.ar   34  U34         0.3546
    701  O2         4.4300    1.6400  -20.5350 O.2    34  U34        -0.2443
    702  N3         6.5080    1.6650  -21.4340 N.ar   34  U34        -0.1530
    703  C4         7.8820    1.7240  -21.3740 C.ar   34  U34         0.2846
    704  O4         8.5350    1.6670  -22.4160 O.2    34  U34        -0.2650
    705  C5         8.4180    1.8510  -20.0540 C.ar   34  U34         0.0814
    706  C6         7.5900    1.9180  -19.0040 C.ar   34  U34         0.0870
    707  OP1       10.3960    0.5950  -14.1400 O.3    34  U34        -0.4373
    708  OP2       10.4140    1.0380  -16.6570 O.co2  34  U34        -0.5172
    709  P          6.0470   -2.1160  -15.4670 P.3    35  U35         0.2141
    710  C5'        3.8580   -3.0020  -16.5640 C.3    35  U35         0.1812
    711  O5'        5.2550   -2.7850  -16.6720 O.3    35  U35        -0.3114
    712  C4'        3.2720   -3.2830  -17.9160 C.3    35  U35         0.1773
    713  O4'        3.5600   -2.1760  -18.8020 O.3    35  U35        -0.3307
    714  C3'        3.8690   -4.4560  -18.6590 C.3    35  U35         0.1860
    715  O3'        3.3070   -5.6720  -18.2080 O.3    35  U35        -0.3112
    716  C2'        3.4420   -4.1640  -20.0910 C.3    35  U35         0.2309
    717  O2'        2.1250   -4.5920  -20.3760 O.3    35  U35        -0.2156
    718  C1'        3.5370   -2.6370  -20.1360 C.3    35  U35         0.2420
    719  N1         4.7570   -2.1990  -20.8150 N.ar   35  U35        -0.2534
    720  C2         4.7190   -2.1700  -22.1850 C.ar   35  U35         0.3546
    721  O2         3.7220   -2.4640  -22.8150 O.2    35  U35        -0.2443
    722  N3         5.8860   -1.7970  -22.7940 N.ar   35  U35        -0.1530
    723  C4         7.0700   -1.4670  -22.1770 C.ar   35  U35         0.2846
    724  O4         8.0630   -1.2190  -22.8650 O.2    35  U35        -0.2650
    725  C5         7.0230   -1.5040  -20.7460 C.ar   35  U35         0.0814
    726  C6         5.8900   -1.8560  -20.1290 C.ar   35  U35         0.0870
    727  OP1        5.6440   -2.8420  -14.2350 O.3    35  U35        -0.4373
    728  OP2        7.4930   -2.0380  -15.8330 O.co2  35  U35        -0.5172
    729  P          4.2430   -6.9560  -18.0180 P.3    36  G36         0.2141
    730  C5'        4.4250   -7.3210  -20.6470 C.3    36  G36         0.1812
    731  O5'        5.0550   -7.0500  -19.3840 O.3    36  G36        -0.3114
    732  C4'        5.4920   -7.3300  -21.7070 C.3    36  G36         0.1773
    733  O4'        6.1950   -6.0750  -21.6630 O.3    36  G36        -0.3307
    734  C3'        6.5210   -8.4310  -21.4260 C.3    36  G36         0.1860
    735  O3'        6.9140   -8.9110  -22.7200 O.3    36  G36        -0.3112
    736  C2'        7.7570   -7.6820  -20.9410 C.3    36  G36         0.2309
    737  O2'        9.0110   -8.2350  -21.2540 O.3    36  G36        -0.2156
    738  C1'        7.5670   -6.3510  -21.6540 C.3    36  G36         0.2408
    739  N1        10.7850   -2.6690  -22.8310 N.ar   36  G36        -0.1709
    740  C2        10.2050   -3.5930  -23.6470 C.ar   36  G36         0.2606
    741  N2        10.5500   -3.5390  -24.9370 N.pl3  36  G36        -0.0859
    742  N3         9.3510   -4.5050  -23.2240 N.ar   36  G36        -0.1918
    743  C4         9.1310   -4.4100  -21.8920 C.ar   36  G36         0.1723
    744  C5         9.6660   -3.5210  -21.0000 C.ar   36  G36         0.1748
    745  C6        10.5690   -2.5620  -21.4650 C.ar   36  G36         0.3023
    746  O6        11.1530   -1.7020  -20.8220 O.2    36  G36        -0.2633
    747  N7         9.1860   -3.7580  -19.7170 N.ar   36  G36        -0.2173
    748  C8         8.3820   -4.7790  -19.8540 C.ar   36  G36         0.1817
    749  N9         8.3150   -5.2250  -21.1450 N.ar   36  G36        -0.2693
    750  OP1        3.3870   -8.1670  -17.8980 O.2    36  G36        -0.5172
    751  OP2        5.1960   -6.6220  -16.9370 O.co2  36  G36        -0.4373
    752  P          6.5280  -10.3710  -23.2290 P.3    37  U37         0.2141
    753  C5'        6.6130   -9.7350  -25.8390 C.3    37  U37         0.1812
    754  O5'        7.1830  -10.4200  -24.6960 O.3    37  U37        -0.3114
    755  C4'        7.7200   -9.3650  -26.8190 C.3    37  U37         0.1773
    756  O4'        8.5170   -8.2950  -26.2790 O.3    37  U37        -0.3307
    757  C3'        8.6540  -10.5400  -27.0840 C.3    37  U37         0.1860
    758  O3'        8.9600  -10.6790  -28.4930 O.3    37  U37        -0.3112
    759  C2'        9.9930  -10.1040  -26.4860 C.3    37  U37         0.2309
    760  O2'       11.1460  -10.5350  -27.1660 O.3    37  U37        -0.2156
    761  C1'        9.8600   -8.5830  -26.5160 C.3    37  U37         0.2420
    762  N1        10.6940   -7.7810  -25.6220 N.ar   37  U37        -0.2534
    763  C2        11.6760   -6.9920  -26.2120 C.ar   37  U37         0.3546
    764  O2        11.8920   -6.9770  -27.4190 O.2    37  U37        -0.2443
    765  N3        12.3900   -6.2210  -25.3410 N.ar   37  U37        -0.1530
    766  C4        12.2290   -6.1540  -23.9790 C.ar   37  U37         0.2846
    767  O4        12.9050   -5.3500  -23.3320 O.2    37  U37        -0.2650
    768  C5        11.2160   -7.0150  -23.4490 C.ar   37  U37         0.0814
    769  C6        10.5050   -7.7840  -24.2690 C.ar   37  U37         0.0870
    770  OP1        5.0490  -10.4520  -23.3300 O.2    37  U37        -0.5172
    771  OP2        7.2490  -11.3220  -22.3480 O.co2  37  U37        -0.4373
    772  P          7.8340  -11.0280  -29.5920 P.3    38  A38         0.2141
    773  C5'        8.3710  -10.7560  -32.1520 C.3    38  A38         0.1812
    774  O5'        8.7110  -11.3290  -30.8880 O.3    38  A38        -0.3114
    775  C4'        9.6100  -10.5830  -33.0090 C.3    38  A38         0.1773
    776  O4'       10.3920   -9.4470  -32.5460 O.3    38  A38        -0.3307
    777  C3'       10.5870  -11.7500  -33.0030 C.3    38  A38         0.1860
    778  O3'       10.2180  -12.7350  -33.9540 O.3    38  A38        -0.3112
    779  C2'       11.8830  -11.0690  -33.4120 C.3    38  A38         0.2309
    780  O2'       11.9140  -10.8060  -34.8000 O.3    38  A38        -0.2156
    781  C1'       11.7770   -9.7520  -32.6400 C.3    38  A38         0.2408
    782  N1        15.9600  -10.2160  -29.6540 N.ar   38  A38        -0.2040
    783  C2        15.8090  -10.1930  -30.9850 C.ar   38  A38         0.2016
    784  N3        14.6940  -10.0850  -31.7040 N.ar   38  A38        -0.2048
    785  C4        13.6200   -9.9940  -30.9040 C.ar   38  A38         0.1692
    786  C5        13.6150  -10.0110  -29.5210 C.ar   38  A38         0.1518
    787  C6        14.8590  -10.1240  -28.8790 C.ar   38  A38         0.1919
    788  N6        15.0130  -10.1400  -27.5510 N.pl3  38  A38        -0.1054
    789  N7        12.3250   -9.8900  -29.0360 N.ar   38  A38        -0.2193
    790  C8        11.5880   -9.8030  -30.1130 C.ar   38  A38         0.1816
    791  N9        12.3070   -9.8500  -31.2800 N.ar   38  A38        -0.2693
    792  OP1        7.0540   -9.8220  -29.9220 O.2    38  A38        -0.5172
    793  OP2        7.1280  -12.2480  -29.1870 O.co2  38  A38        -0.4373
    794  P         10.2660  -14.2900  -33.5510 P.3    39  A39         0.2141
    795  C5'       12.6990  -14.5160  -34.4950 C.3    39  A39         0.1812
    796  O5'       11.8090  -14.6230  -33.3970 O.3    39  A39        -0.3114
    797  C4'       14.1120  -14.4930  -33.9850 C.3    39  A39         0.1773
    798  O4'       14.2710  -13.3280  -33.1270 O.3    39  A39        -0.3307
    799  C3'       14.4610  -15.6530  -33.0700 C.3    39  A39         0.1860
    800  O3'       14.8590  -16.8000  -33.7930 O.3    39  A39        -0.3112
    801  C2'       15.6180  -15.0780  -32.2700 C.3    39  A39         0.2309
    802  O2'       16.8330  -15.1030  -32.9880 O.3    39  A39        -0.2156
    803  C1'       15.1420  -13.6400  -32.0510 C.3    39  A39         0.2408
    804  N1        15.6440  -13.2550  -26.9780 N.ar   39  A39        -0.2040
    805  C2        16.5310  -13.3060  -27.9790 C.ar   39  A39         0.2016
    806  N3        16.3200  -13.3830  -29.2880 N.ar   39  A39        -0.2048
    807  C4        15.0040  -13.4050  -29.5530 C.ar   39  A39         0.1692
    808  C5        13.9700  -13.3540  -28.6370 C.ar   39  A39         0.1518
    809  C6        14.3280  -13.2800  -27.2760 C.ar   39  A39         0.1919
    810  N6        13.4560  -13.2380  -26.2690 N.pl3  39  A39        -0.1054
    811  N7        12.7430  -13.3930  -29.2850 N.ar   39  A39        -0.2193
    812  C8        13.0590  -13.4680  -30.5570 C.ar   39  A39         0.1816
    813  N9        14.4120  -13.4980  -30.7880 N.ar   39  A39        -0.2693
    814  OP1        9.7370  -15.0680  -34.7080 O.2    39  A39        -0.5172
    815  OP2        9.6460  -14.4410  -32.2120 O.co2  39  A39        -0.4373
    816  P         14.3630  -18.2460  -33.3140 P.3    40  C40         0.2141
    817  C5'       16.6720  -18.7880  -32.2450 C.3    40  C40         0.1812
    818  O5'       15.2800  -18.6040  -32.0680 O.3    40  C40        -0.3114
    819  C4'       17.3930  -18.6140  -30.9360 C.3    40  C40         0.1773
    820  O4'       17.1040  -17.2950  -30.4010 O.3    40  C40        -0.3307
    821  C3'       16.9600  -19.5340  -29.8130 C.3    40  C40         0.1860
    822  O3'       17.5450  -20.8260  -29.9240 O.3    40  C40        -0.3112
    823  C2'       17.4910  -18.7700  -28.6090 C.3    40  C40         0.2309
    824  O2'       18.9000  -18.8220  -28.5220 O.3    40  C40        -0.2156
    825  C1'       17.1060  -17.3460  -28.9850 C.3    40  C40         0.2420
    826  N1        15.7660  -16.9970  -28.4840 N.ar   40  C40        -0.2535
    827  C2        15.6340  -16.6860  -27.1300 C.ar   40  C40         0.3532
    828  O2        16.6460  -16.6540  -26.4310 O.2    40  C40        -0.2443
    829  N3        14.4120  -16.4180  -26.6220 N.ar   40  C40        -0.1739
    830  C4        13.3450  -16.4200  -27.4250 C.ar   40  C40         0.1759
    831  N4        12.1600  -16.1350  -26.8860 N.pl3  40  C40        -0.1070
    832  C5        13.4510  -16.7080  -28.8220 C.ar   40  C40         0.0566
    833  C6        14.6710  -16.9900  -29.3040 C.ar   40  C40         0.0850
    834  OP1       14.7160  -19.1910  -34.3980 O.2    40  C40        -0.5172
    835  OP2       12.9590  -18.1450  -32.8520 O.co2  40  C40        -0.4373
    836  P         16.7840  -22.0930  -29.2970 P.3    41  C41         0.2141
    837  C5'       18.3150  -21.9990  -27.1750 C.3    41  C41         0.1812
    838  O5'       17.0090  -21.9470  -27.7310 O.3    41  C41        -0.3114
    839  C4'       18.2360  -21.8820  -25.6750 C.3    41  C41         0.1773
    840  O4'       17.7460  -20.5660  -25.2970 O.3    41  C41        -0.3307
    841  C3'       17.2180  -22.7910  -25.0210 C.3    41  C41         0.1860
    842  O3'       17.6840  -24.1260  -24.9340 O.3    41  C41        -0.3112
    843  C2'       17.0490  -22.1240  -23.6610 C.3    41  C41         0.2309
    844  O2'       18.1510  -22.3380  -22.8040 O.3    41  C41        -0.2156
    845  C1'       17.0300  -20.6560  -24.0700 C.3    41  C41         0.2420
    846  N1        15.6570  -20.1610  -24.2760 N.ar   41  C41        -0.2535
    847  C2        14.9000  -19.7830  -23.1580 C.ar   41  C41         0.3532
    848  O2        15.4030  -19.8590  -22.0300 O.2    41  C41        -0.2443
    849  N3        13.6450  -19.3420  -23.3340 N.ar   41  C41        -0.1739
    850  C4        13.1320  -19.2590  -24.5630 C.ar   41  C41         0.1759
    851  N4        11.8800  -18.8230  -24.6860 N.pl3  41  C41        -0.1070
    852  C5        13.8760  -19.6220  -25.7150 C.ar   41  C41         0.0566
    853  C6        15.1230  -20.0690  -25.5280 C.ar   41  C41         0.0850
    854  OP1       17.4880  -23.3220  -29.7360 O.2    41  C41        -0.5172
    855  OP2       15.3330  -21.9460  -29.5610 O.co2  41  C41        -0.4373
    856  P         16.6330  -25.3280  -25.0330 P.3    42  G42         0.2141
    857  C5'       16.5870  -25.5370  -22.4320 C.3    42  G42         0.1812
    858  O5'       15.8770  -25.2910  -23.6330 O.3    42  G42        -0.3114
    859  C4'       15.7020  -25.2770  -21.2420 C.3    42  G42         0.1773
    860  O4'       15.3750  -23.8610  -21.1800 O.3    42  G42        -0.3307
    861  C3'       14.3310  -25.9310  -21.2640 C.3    42  G42         0.1860
    862  O3'       14.3740  -27.3110  -20.9230 O.3    42  G42        -0.3112
    863  C2'       13.6100  -25.1090  -20.2110 C.3    42  G42         0.2309
    864  O2'       14.0230  -25.4670  -18.9070 O.3    42  G42        -0.2156
    865  C1'       14.1080  -23.7020  -20.5570 C.3    42  G42         0.2408
    866  N1         9.8330  -21.0330  -21.0380 N.ar   42  G42        -0.1709
    867  C2        10.4890  -21.4200  -19.9080 C.ar   42  G42         0.2606
    868  N2         9.9080  -21.0810  -18.7540 N.pl3  42  G42        -0.0859
    869  N3        11.6280  -22.0840  -19.9060 N.ar   42  G42        -0.1918
    870  C4        12.0680  -22.3320  -21.1560 C.ar   42  G42         0.1723
    871  C5        11.4920  -21.9770  -22.3520 C.ar   42  G42         0.1748
    872  C6        10.2670  -21.2680  -22.3340 C.ar   42  G42         0.3023
    873  O6         9.5870  -20.8670  -23.2880 O.2    42  G42        -0.2633
    874  N7        12.2680  -22.4090  -23.4180 N.ar   42  G42        -0.2173
    875  C8        13.2770  -23.0200  -22.8570 C.ar   42  G42         0.1817
    876  N9        13.2030  -23.0350  -21.4900 N.ar   42  G42        -0.2693
    877  OP1       17.4610  -26.5560  -25.1100 O.3    42  G42        -0.4373
    878  OP2       15.6430  -25.0410  -26.1000 O.co2  42  G42        -0.5172
    879  P         13.4960  -28.3620  -21.7690 P.3    43  A43         0.2141
    880  C5'       10.9090  -28.6500  -21.9530 C.3    43  A43         0.1812
    881  O5'       12.0210  -28.1720  -21.2140 O.3    43  A43        -0.3114
    882  C4'        9.6930  -28.6760  -21.0740 C.3    43  A43         0.1773
    883  O4'        9.9640  -29.5250  -19.9310 O.3    43  A43        -0.3307
    884  C3'        9.3420  -27.3310  -20.4730 C.3    43  A43         0.1860
    885  O3'        8.5060  -26.6140  -21.3740 O.3    43  A43        -0.3112
    886  C2'        8.6180  -27.7200  -19.1910 C.3    43  A43         0.2309
    887  O2'        7.2870  -28.0950  -19.4480 O.3    43  A43        -0.2156
    888  C1'        9.4010  -28.9620  -18.7630 C.3    43  A43         0.2408
    889  N1        10.8290  -28.1290  -13.8540 N.ar   43  A43        -0.2040
    890  C2         9.6180  -28.1800  -14.4280 C.ar   43  A43         0.2016
    891  N3         9.3000  -28.3590  -15.7160 N.ar   43  A43        -0.2048
    892  C4        10.4100  -28.5010  -16.4640 C.ar   43  A43         0.1692
    893  C5        11.7200  -28.4630  -16.0130 C.ar   43  A43         0.1518
    894  C6        11.9220  -28.2690  -14.6400 C.ar   43  A43         0.1919
    895  N6        13.1290  -28.2180  -14.0810 N.pl3  43  A43        -0.1054
    896  N7        12.6050  -28.6400  -17.0650 N.ar   43  A43        -0.2193
    897  C8        11.8320  -28.7900  -18.1090 C.ar   43  A43         0.1816
    898  N9        10.4930  -28.7430  -17.8180 N.ar   43  A43        -0.2693
    899  OP1       13.9800  -29.7160  -21.4040 O.3    43  A43        -0.4373
    900  OP2       13.4660  -27.9530  -23.1960 O.co2  43  A43        -0.5172
    901  P          8.6640  -25.0210  -21.4990 P.3    44  A44         0.2141
    902  C5'        6.5790  -24.6660  -19.9890 C.3    44  A44         0.1812
    903  O5'        7.9770  -24.4860  -20.1710 O.3    44  A44        -0.3114
    904  C4'        6.1930  -24.4360  -18.5520 C.3    44  A44         0.1773
    905  O4'        6.9150  -25.3490  -17.6930 O.3    44  A44        -0.3307
    906  C3'        6.5180  -23.0700  -17.9960 C.3    44  A44         0.1860
    907  O3'        5.4880  -22.1780  -18.3610 O.3    44  A44        -0.3112
    908  C2'        6.5240  -23.3410  -16.4990 C.3    44  A44         0.2309
    909  O2'        5.2190  -23.4310  -15.9600 O.3    44  A44        -0.2156
    910  C1'        7.1790  -24.7200  -16.4530 C.3    44  A44         0.2408
    911  N1        11.0360  -25.0920  -13.0760 N.ar   44  A44        -0.2040
    912  C2         9.7010  -25.0530  -12.9200 C.ar   44  A44         0.2016
    913  N3         8.7470  -24.9160  -13.8430 N.ar   44  A44        -0.2048
    914  C4         9.2900  -24.8100  -15.0720 C.ar   44  A44         0.1692
    915  C5        10.6390  -24.8240  -15.3900 C.ar   44  A44         0.1518
    916  C6        11.5430  -24.9750  -14.3260 C.ar   44  A44         0.1919
    917  N6        12.8630  -25.0060  -14.4900 N.pl3  44  A44        -0.1054
    918  N7        10.8260  -24.6860  -16.7600 N.ar   44  A44        -0.2193
    919  C8         9.6030  -24.6010  -17.2330 C.ar   44  A44         0.1816
    920  N9         8.6260  -24.6940  -16.2690 N.ar   44  A44        -0.2693
    921  OP1        7.8180  -24.5630  -22.6380 O.2    44  A44        -0.5172
    922  OP2       10.1140  -24.7080  -21.4860 O.co2  44  A44        -0.4373
    923  P          5.8320  -20.6430  -18.6470 P.3    45  A45         0.2141
    924  C5'        4.8430  -20.1430  -16.2710 C.3    45  A45         0.1812
    925  O5'        5.9370  -20.0270  -17.1860 O.3    45  A45        -0.3114
    926  C4'        5.3130  -19.8460  -14.8720 C.3    45  A45         0.1773
    927  O4'        6.2360  -20.8790  -14.4540 O.3    45  A45        -0.3307
    928  C3'        6.1170  -18.5670  -14.7560 C.3    45  A45         0.1860
    929  O3'        5.2560  -17.4550  -14.5870 O.3    45  A45        -0.3112
    930  C2'        6.9490  -18.8180  -13.5100 C.3    45  A45         0.2309
    931  O2'        6.2200  -18.5590  -12.3350 O.3    45  A45        -0.2156
    932  C1'        7.2270  -20.3150  -13.6250 C.3    45  A45         0.2408
    933  N1        11.9800  -21.9390  -12.6930 N.ar   45  A45        -0.2040
    934  C2        10.9070  -21.7790  -11.9080 C.ar   45  A45         0.2016
    935  N3         9.6930  -21.3560  -12.2250 N.ar   45  A45        -0.2048
    936  C4         9.6190  -21.0730  -13.5320 C.ar   45  A45         0.1692
    937  C5        10.6270  -21.1880  -14.4660 C.ar   45  A45         0.1518
    938  C6        11.8650  -21.6430  -14.0070 C.ar   45  A45         0.1919
    939  N6        12.9340  -21.7960  -14.7970 N.pl3  45  A45        -0.1054
    940  N7        10.1830  -20.7980  -15.7210 N.ar   45  A45        -0.2193
    941  C8         8.9300  -20.4630  -15.5200 C.ar   45  A45         0.1816
    942  N9         8.5270  -20.6030  -14.2150 N.ar   45  A45        -0.2693
    943  OP1        4.6210  -20.0530  -19.2590 O.3    45  A45        -0.4373
    944  OP2        7.1420  -20.5370  -19.3420 O.co2  45  A45        -0.5172
    945  P          5.6190  -16.0590  -15.2850 P.3    46  G46         0.2141
    946  C5'        8.0770  -15.1770  -15.5320 C.3    46  G46         0.1812
    947  O5'        7.0630  -15.7250  -14.7120 O.3    46  G46        -0.3114
    948  C4'        9.3840  -15.8680  -15.2410 C.3    46  G46         0.1773
    949  O4'        9.3040  -17.2520  -15.6750 O.3    46  G46        -0.3307
    950  C3'       10.5720  -15.3150  -16.0000 C.3    46  G46         0.1860
    951  O3'       11.1230  -14.2100  -15.3180 O.3    46  G46        -0.3112
    952  C2'       11.5130  -16.5080  -16.0460 C.3    46  G46         0.2309
    953  O2'       12.2110  -16.7400  -14.8450 O.3    46  G46        -0.2156
    954  C1'       10.5180  -17.6310  -16.3160 C.3    46  G46         0.2408
    955  N1        12.4680  -18.7470  -20.8550 N.ar   46  G46        -0.1709
    956  C2        13.0320  -18.8730  -19.6130 C.ar   46  G46         0.2606
    957  N2        14.2880  -19.3330  -19.5790 N.pl3  46  G46        -0.0859
    958  N3        12.4070  -18.5690  -18.4860 N.ar   46  G46        -0.1918
    959  C4        11.1530  -18.1260  -18.7090 C.ar   46  G46         0.1723
    960  C5        10.5000  -17.9700  -19.9060 C.ar   46  G46         0.1748
    961  C6        11.1870  -18.2870  -21.1060 C.ar   46  G46         0.3023
    962  O6        10.7940  -18.1900  -22.2650 O.2    46  G46        -0.2633
    963  N7         9.2160  -17.4920  -19.7040 N.ar   46  G46        -0.2173
    964  C8         9.1190  -17.3560  -18.4130 C.ar   46  G46         0.1817
    965  N9        10.2640  -17.7090  -17.7510 N.ar   46  G46        -0.2693
    966  OP1        4.6440  -15.0940  -14.7300 O.3    46  G46        -0.4373
    967  OP2        5.7290  -16.2380  -16.7500 O.co2  46  G46        -0.5172
    968  P         11.7240  -12.9920  -16.1620 P.3    47  G47         0.2141
    969  C5'       14.0740  -14.1370  -15.9900 C.3    47  G47         0.1812
    970  O5'       13.0560  -13.5790  -16.7990 O.3    47  G47        -0.3114
    971  C4'       15.1190  -14.7740  -16.8660 C.3    47  G47         0.1773
    972  O4'       14.5240  -15.8740  -17.6030 O.3    47  G47        -0.3307
    973  C3'       15.6460  -13.8890  -17.9770 C.3    47  G47         0.1860
    974  O3'       16.6210  -12.9770  -17.5090 O.3    47  G47        -0.3112
    975  C2'       16.2410  -14.9210  -18.9190 C.3    47  G47         0.2309
    976  O2'       17.4910  -15.4080  -18.4810 O.3    47  G47        -0.2156
    977  C1'       15.1830  -16.0190  -18.8500 C.3    47  G47         0.2408
    978  N1        14.5130  -16.2700  -23.8270 N.ar   47  G47        -0.1709
    979  C2        15.6010  -16.6110  -23.0670 C.ar   47  G47         0.2606
    980  N2        16.6830  -17.0690  -23.7230 N.pl3  47  G47        -0.0859
    981  N3        15.6310  -16.5180  -21.7500 N.ar   47  G47        -0.1918
    982  C4        14.4690  -16.0650  -21.2440 C.ar   47  G47         0.1723
    983  C5        13.3170  -15.7120  -21.9070 C.ar   47  G47         0.1748
    984  C6        13.2950  -15.8050  -23.3220 C.ar   47  G47         0.3023
    985  O6        12.3720  -15.5400  -24.0930 O.2    47  G47        -0.2633
    986  N7        12.3360  -15.3050  -21.0100 N.ar   47  G47        -0.2173
    987  C8        12.9110  -15.4000  -19.8410 C.ar   47  G47         0.1817
    988  N9        14.2130  -15.8410  -19.9200 N.ar   47  G47        -0.2693
    989  OP1       12.0770  -11.9180  -15.1950 O.3    47  G47        -0.4373
    990  OP2       10.7890  -12.7010  -17.2860 O.co2  47  G47        -0.5172
    991  P         16.6000  -11.4600  -18.0310 P.3    48  G48         0.2141
    992  C5'       17.5470  -11.8290  -20.4590 C.3    48  G48         0.1812
    993  O5'       16.4230  -11.5840  -19.6120 O.3    48  G48        -0.3114
    994  C4'       17.0960  -12.2720  -21.8340 C.3    48  G48         0.1773
    995  O4'       16.5210  -11.1480  -22.5620 O.3    48  G48        -0.3307
    996  C3'       18.2280  -12.7580  -22.7250 C.3    48  G48         0.1860
    997  O3'       18.4960  -14.1320  -22.4620 O.3    48  G48        -0.3112
    998  C2'       17.6600  -12.5150  -24.1150 C.3    48  G48         0.2309
    999  O2'       16.7100  -13.4890  -24.4840 O.3    48  G48        -0.2156
   1000  C1'       16.9630  -11.1650  -23.9140 C.3    48  G48         0.2408
   1001  N1        19.7380   -8.4300  -27.1910 N.ar   48  G48        -0.1709
   1002  C2        18.8030   -9.3930  -27.4570 C.ar   48  G48         0.2606
   1003  N2        18.6250   -9.6940  -28.7480 N.pl3  48  G48        -0.0859
   1004  N3        18.0990  -10.0130  -26.5270 N.ar   48  G48        -0.1918
   1005  C4        18.4090   -9.5750  -25.2850 C.ar   48  G48         0.1723
   1006  C5        19.3210   -8.6090  -24.9220 C.ar   48  G48         0.1748
   1007  C6        20.0740   -7.9670  -25.9250 C.ar   48  G48         0.3023
   1008  O6        20.9500   -7.0980  -25.7950 O.2    48  G48        -0.2633
   1009  N7        19.3420   -8.4410  -23.5480 N.ar   48  G48        -0.2173
   1010  C8        18.4740   -9.3070  -23.1020 C.ar   48  G48         0.1817
   1011  N9        17.8930  -10.0520  -24.0960 N.ar   48  G48        -0.2693
   1012  OP1       17.9310  -10.8850  -17.7500 O.2    48  G48        -0.5172
   1013  OP2       15.3940  -10.8090  -17.4690 O.co2  48  G48        -0.4373
   1014  P         19.9900  -14.6910  -22.5940 P.3    49  G49         0.2141
   1015  C5'       19.4350  -15.3520  -25.0520 C.3    49  G49         0.1812
   1016  O5'       20.2660  -14.6400  -24.1560 O.3    49  G49        -0.3114
   1017  C4'       19.7980  -15.0090  -26.4680 C.3    49  G49         0.1773
   1018  O4'       19.5360  -13.6030  -26.7150 O.3    49  G49        -0.3307
   1019  C3'       21.2680  -15.1400  -26.8060 C.3    49  G49         0.1860
   1020  O3'       21.5940  -16.4940  -27.0710 O.3    49  G49        -0.3112
   1021  C2'       21.3580  -14.2860  -28.0610 C.3    49  G49         0.2309
   1022  O2'       20.8210  -14.9470  -29.1820 O.3    49  G49        -0.2156
   1023  C1'       20.4510  -13.1210  -27.6790 C.3    49  G49         0.2408
   1024  N1        23.4450   -9.1680  -28.6290 N.ar   49  G49        -0.1709
   1025  C2        22.8550  -10.0520  -29.4960 C.ar   49  G49         0.2606
   1026  N2        23.0940   -9.8490  -30.7950 N.pl3  49  G49        -0.0859
   1027  N3        22.0910  -11.0600  -29.1170 N.ar   49  G49        -0.1918
   1028  C4        21.9540  -11.1110  -27.7810 C.ar   49  G49         0.1723
   1029  C5        22.4940  -10.2810  -26.8280 C.ar   49  G49         0.1748
   1030  C6        23.3220   -9.2090  -27.2450 C.ar   49  G49         0.3023
   1031  O6        23.9080   -8.3680  -26.5460 O.2    49  G49        -0.2633
   1032  N7        22.1040  -10.6750  -25.5530 N.ar   49  G49        -0.2173
   1033  C8        21.3430  -11.7170  -25.7550 C.ar   49  G49         0.1817
   1034  N9        21.2130  -12.0310  -27.0880 N.ar   49  G49        -0.2693
   1035  OP1       19.9560  -16.1210  -22.2190 O.2    49  G49        -0.5172
   1036  OP2       20.9360  -13.7710  -21.9160 O.co2  49  G49        -0.4373
   1037  P         23.1250  -16.9310  -27.1610 P.3    50  G50         0.2141
   1038  C5'       24.5240  -16.3930  -29.3150 C.3    50  G50         0.1812
   1039  O5'       23.7580  -15.9210  -28.2180 O.3    50  G50        -0.3114
   1040  C4'       24.7770  -15.2750  -30.2970 C.3    50  G50         0.1773
   1041  O4'       24.2420  -14.0290  -29.7860 O.3    50  G50        -0.3307
   1042  C3'       26.2330  -14.9380  -30.5380 C.3    50  G50         0.1860
   1043  O3'       26.8250  -15.8420  -31.4500 O.3    50  G50        -0.3112
   1044  C2'       26.1340  -13.5400  -31.1310 C.3    50  G50         0.2309
   1045  O2'       25.7690  -13.5510  -32.4940 O.3    50  G50        -0.2156
   1046  C1'       25.0010  -12.9470  -30.2980 C.3    50  G50         0.2408
   1047  N1        27.6680   -8.8550  -28.8860 N.ar   50  G50        -0.1709
   1048  C2        27.4110   -9.3320  -30.1460 C.ar   50  G50         0.2606
   1049  N2        27.9260   -8.6170  -31.1600 N.pl3  50  G50        -0.0859
   1050  N3        26.6980  -10.4230  -30.3910 N.ar   50  G50        -0.1918
   1051  C4        26.2530  -11.0060  -29.2550 C.ar   50  G50         0.1723
   1052  C5        26.4450  -10.6080  -27.9580 C.ar   50  G50         0.1748
   1053  C6        27.2100   -9.4270  -27.7080 C.ar   50  G50         0.3023
   1054  O6        27.4790   -8.8880  -26.6160 O.2    50  G50        -0.2633
   1055  N7        25.8120  -11.4750  -27.0780 N.ar   50  G50        -0.2173
   1056  C8        25.2550  -12.3690  -27.8460 C.ar   50  G50         0.1817
   1057  N9        25.4810  -12.1460  -29.1770 N.ar   50  G50        -0.2693
   1058  OP1       23.1190  -18.2970  -27.7440 O.2    50  G50        -0.5172
   1059  OP2       23.7660  -16.6850  -25.8460 O.co2  50  G50        -0.4373
   1060  P         28.3820  -16.1950  -31.3130 P.3    51  A51         0.2141
   1061  C5'       29.0740  -14.5570  -33.2270 C.3    51  A51         0.1812
   1062  O5'       29.1510  -14.9190  -31.8650 O.3    51  A51        -0.3114
   1063  C4'       29.7360  -13.2210  -33.4350 C.3    51  A51         0.1773
   1064  O4'       29.0820  -12.2190  -32.6020 O.3    51  A51        -0.3307
   1065  C3'       31.1780  -13.1290  -32.9840 C.3    51  A51         0.1860
   1066  O3'       32.0590  -13.7190  -33.9260 O.3    51  A51        -0.3112
   1067  C2'       31.3560  -11.6210  -32.8560 C.3    51  A51         0.2309
   1068  O2'       31.4650  -10.9470  -34.1010 O.3    51  A51        -0.2156
   1069  C1'       30.0280  -11.2320  -32.2120 C.3    51  A51         0.2408
   1070  N1        31.4710   -8.5060  -28.0890 N.ar   51  A51        -0.2040
   1071  C2        31.6290   -8.2980  -29.4090 C.ar   51  A51         0.2016
   1072  N3        31.2350   -9.0520  -30.4340 N.ar   51  A51        -0.2048
   1073  C4        30.6190  -10.1650  -29.9930 C.ar   51  A51         0.1692
   1074  C5        30.3910  -10.5200  -28.6690 C.ar   51  A51         0.1518
   1075  C6        30.8330   -9.6250  -27.6810 C.ar   51  A51         0.1919
   1076  N6        30.6450   -9.8080  -26.3760 N.pl3  51  A51        -0.1054
   1077  N7        29.7340  -11.7370  -28.5950 N.ar   51  A51        -0.2193
   1078  C8        29.5730  -12.0860  -29.8520 C.ar   51  A51         0.1816
   1079  N9        30.0750  -11.1770  -30.7500 N.ar   51  A51        -0.2693
   1080  OP1       28.6320  -17.3330  -32.2320 O.2    51  A51        -0.5172
   1081  OP2       28.7030  -16.3170  -29.8630 O.co2  51  A51        -0.4373
   1082  P         33.3470  -14.5250  -33.4050 P.3    52  A52         0.2141
   1083  C5'       34.7020  -12.4320  -34.1420 C.3    52  A52         0.1812
   1084  O5'       34.4060  -13.3720  -33.1230 O.3    52  A52        -0.3114
   1085  C4'       35.2890  -11.1830  -33.5520 C.3    52  A52         0.1773
   1086  O4'       34.3420  -10.5610  -32.6440 O.3    52  A52        -0.3307
   1087  C3'       36.5040  -11.3840  -32.6770 C.3    52  A52         0.1860
   1088  O3'       37.6650  -11.5700  -33.4660 O.3    52  A52        -0.3112
   1089  C2'       36.5360  -10.0640  -31.9230 C.3    52  A52         0.2309
   1090  O2'       36.9760   -9.0130  -32.7580 O.3    52  A52        -0.2156
   1091  C1'       35.0500   -9.8680  -31.6260 C.3    52  A52         0.2408
   1092  N1        34.5730   -9.0240  -26.5460 N.ar   52  A52        -0.2040
   1093  C2        35.0910   -8.2780  -27.5290 C.ar   52  A52         0.2016
   1094  N3        35.2120   -8.5610  -28.8320 N.ar   52  A52        -0.2048
   1095  C4        34.7140   -9.7800  -29.1030 C.ar   52  A52         0.1692
   1096  C5        34.1570  -10.6620  -28.1950 C.ar   52  A52         0.1518
   1097  C6        34.0920  -10.2520  -26.8570 C.ar   52  A52         0.1919
   1098  N6        33.5830  -11.0100  -25.8850 N.pl3  52  A52        -0.1054
   1099  N7        33.7530  -11.8250  -28.8260 N.ar   52  A52        -0.2193
   1100  C8        34.0620  -11.6240  -30.0880 C.ar   52  A52         0.1816
   1101  N9        34.6330  -10.4020  -30.3300 N.ar   52  A52        -0.2693
   1102  OP1       33.8500  -15.3240  -34.5520 O.2    52  A52        -0.5172
   1103  OP2       32.9840  -15.2050  -32.1350 O.co2  52  A52        -0.4373
   1104  P         38.9100  -12.3580  -32.8480 P.3    53  U53         0.2141
   1105  C5'       40.1160  -10.2270  -31.8580 C.3    53  U53         0.1813
   1106  O5'       39.3650  -11.4230  -31.6320 O.3    53  U53        -0.3114
   1107  C4'       40.4450   -9.5630  -30.5450 C.3    53  U53         0.1801
   1108  O4'       39.2060   -9.3830  -29.8240 O.3    53  U53        -0.3306
   1109  C3'       41.3230  -10.3560  -29.5860 C.3    53  U53         0.2161
   1110  O3'       42.7170  -10.0670  -29.7990 O.3    53  U53        -0.2175
   1111  C2'       40.9250   -9.7940  -28.2320 C.3    53  U53         0.2338
   1112  O2'       41.6180   -8.5920  -27.9760 O.3    53  U53        -0.2155
   1113  C1'       39.4350   -9.4980  -28.4370 C.3    53  U53         0.2421
   1114  N1        38.5090  -10.5140  -27.9170 N.ar   53  U53        -0.2534
   1115  C2        38.0010  -10.3450  -26.6310 C.ar   53  U53         0.3546
   1116  O2        38.2890   -9.3930  -25.9140 O.2    53  U53        -0.2443
   1117  N3        37.1400  -11.3270  -26.2170 N.ar   53  U53        -0.1530
   1118  C4        36.7370  -12.4260  -26.9280 C.ar   53  U53         0.2846
   1119  O4        35.9600  -13.2200  -26.4070 O.2    53  U53        -0.2650
   1120  C5        37.2950  -12.5320  -28.2410 C.ar   53  U53         0.0814
   1121  C6        38.1460  -11.5950  -28.6790 C.ar   53  U53         0.0870
   1122  OP1       40.0030  -12.3310  -33.8530 O.2    53  U53        -0.5172
   1123  OP2       38.4320  -13.6620  -32.3310 O.co2  53  U53        -0.4373
@<TRIPOS>BOND
     1   388   367    2
     2   368   370    1
     3   368   369    1
     4   410   390    2
     5   352   351    1
     6   350   367    1
     7   350   349    1
     8   367   369    1
     9   367   389    1
    10   370   372    1
    11   370   371    1
    12   373   390    1
    13   373   372    1
    14   347   345    1
    15   347   349    1
    16   347   348    1
    17   345   346    1
    18   390   411    1
    19   390   392    1
    20   349   351    1
    21   351   353    1
    22   365   344    2
    23   375   374    1
    24   428   427    1
    25   372   374    1
    26   371   376    1
    27   406   405    1
    28   407   408   ar
    29   407   404   ar
    30   332   331    1
    31   348   353    1
    32   346   344    1
    33   353   364    1
    34   408   409   ar
    35   374   376    1
    36   484   483    1
    37   392   391    1
    38   427   422   ar
    39   427   426   ar
    40   344   330    1
    41   344   366    1
    42   330   329    1
    43   422   423   ar
    44   376   387    1
    45   405   404   ar
    46   405   400   ar
    47   404   403   ar
    48   507   506    1
    49   331   329    1
    50   331   333    1
    51   444   445   ar
    52   444   449   ar
    53   502   500    1
    54   502   503    1
    55   502   504    1
    56   488   487    1
    57   409   403   ar
    58   409   399    1
    59   391   393    1
    60   500   501    1
    61   445   446   ar
    62   394   399    1
    63   394   393    1
    64   426   429   ar
    65   426   425   ar
    66   329   327    1
    67   364   358   ar
    68   364   363   ar
    69   400   401   ar
    70   505   504    1
    71   505   519    1
    72   357   358   ar
    73   357   355   ar
    74   423   424   ar
    75   403   402   ar
    76   503   508    1
    77   429   430   ar
    78   483   485    1
    79   483   481    1
    80   537   519    2
    81   450   449    1
    82   387   386   ar
    83   387   381   ar
    84   386   385   ar
    85   327   328    1
    86   327   325    1
    87   356   355    1
    88   489   487   ar
    89   489   490   ar
    90   449   448   ar
    91   506   504    1
    92   506   508    1
    93   485   480    1
    94   485   496    1
    95   399   397    1
    96   333   328    1
    97   333   334    1
    98   336   335    2
    99   358   359   ar
   100   508   509    1
   101   393   395    1
   102   487   486   ar
   103   482   481    1
   104   482   499    1
   105   520   522    1
   106   520   521    1
   107   355   354   ar
   108   401   402   ar
   109   363   362   ar
   110   425   424   ar
   111   425   431   ar
   112   446   447   ar
   113   480   479    1
   114   519   521    1
   115   519   538    1
   116   479   481    1
   117   479   477    1
   118   517   499    2
   119   501   499    1
   120   430   431   ar
   121   325   326    1
   122   522   523    1
   123   522   524    1
   124   381   380   ar
   125   381   382   ar
   126   490   496   ar
   127   490   491   ar
   128   385   382   ar
   129   499   518    1
   130   496   495   ar
   131   335   334   ar
   132   335   337   ar
   133   448   447   ar
   134   448   451   ar
   135   334   341   ar
   136   431   421    1
   137   395   397    1
   138   395   396    1
   139   447   453   ar
   140   380   378   ar
   141   359   362   ar
   142   359   360   ar
   143   523   528    1
   144   486   492   ar
   145   397   398    1
   146   511   510    2
   147   509   510   ar
   148   509   516   ar
   149   468   467    2
   150   464   463    1
   151   354   360   ar
   152   477   478    1
   153   382   383   ar
   154   326   324    1
   155   525   524    1
   156   525   539    1
   157   313   312    1
   158   559   539    2
   159   337   338   ar
   160   510   512   ar
   161   516   515   ar
   162   433   412    2
   163   524   526    1
   164   491   492   ar
   165   491   494   ar
   166   360   361    2
   167   527   526    1
   168   451   452   ar
   169   341   340   ar
   170   342   324    2
   171   495   494   ar
   172   421   416    1
   173   421   419    1
   174   396   412    1
   175   528   526    1
   176   528   529    1
   177   492   493    2
   178   453   452   ar
   179   453   443    1
   180   378   379    1
   181   378   377   ar
   182   309   308    1
   183   463   465    1
   184   463   461    1
   185   416   415    1
   186   467   469   ar
   187   467   466   ar
   188   539   560    1
   189   539   541    1
   190   478   476    1
   191   324   307    1
   192   324   343    1
   193   465   466    1
   194   465   460    1
   195    99    81    2
   196   312   314   ar
   197   312   311   ar
   198   383   377   ar
   199   383   384    2
   200   338   340   ar
   201   338   339    1
   202   412   414    1
   203   412   432    1
   204   443   441    1
   205   443   438    1
   206   469   470   ar
   207   512   513   ar
   208   414   413    1
   209   515   513   ar
   210   314   315   ar
   211   536   529   ar
   212   536   535   ar
   213   307   306    1
   214   529   530   ar
   215   466   473   ar
   216   308   306    1
   217   308   310    1
   218   419   420    1
   219   419   417    1
   220    82    84    1
   221    82    83    1
   222   166   146    2
   223   460   459    1
   224   540   541    1
   225   540   542    1
   226   462   461    1
   227   462   476    1
   228    69    68    1
   229   311   317   ar
   230    67    81    1
   231    67    66    1
   232   441   442    1
   233   441   439    1
   234   513   514    1
   235   461   459    1
   236   438   437    1
   237   459   457    1
   238   415   417    1
   239   415   413    1
   240   476   497    2
   241   476   498    1
   242    84    85    1
   243    84    86    1
   244   780   779    1
   245   122   101    2
   246    81    83    1
   247    81   100    1
   248   814   794    2
   249   306   304    1
   250   188   168    2
   251   417   418    1
   252  1102  1082    2
   253    87    86    1
   254    87   101    1
   255   535   533   ar
   256   795   797    1
   257   795   796    1
   258    64    62    1
   259    64    66    1
   260    64    65    1
   261   470   471    1
   262   470   472   ar
   263   834   816    2
   264   315   321   ar
   265   315   316   ar
   266   530   531    2
   267   530   532   ar
   268   310   321    1
   269   310   305    1
   270    62    63    1
   271   473   472   ar
   272  1083  1085    1
   273  1083  1084    1
   274  1068  1067    1
   275    66    68    1
   276    89    88    1
   277   797   798    1
   278   797   799    1
   279   778   794    1
   280   778   777    1
   281  1066  1082    1
   282  1066  1065    1
   283   542   543    1
   284   542   544    1
   285    85    90    1
   286    68    70    1
   287    86    88    1
   288   317   316   ar
   289   317   318    2
   290   101   123    1
   291   101   103    1
   292  1122  1104    2
   293   800   816    1
   294   800   799    1
   295   321   320   ar
   296   146   130    1
   297   146   167    1
   298   146   148    1
   299   439   437    1
   300   439   440    1
   301    65    70    1
   302   543   548    1
   303   304   305    1
   304   304   302    1
   305   437   435    1
   306  1085  1087    1
   307  1085  1086    1
   308   794   796    1
   309   794   815    1
   310   457   458    1
   311   316   319   ar
   312  1088  1104    1
   313  1088  1087    1
   314  1063  1061    1
   315  1063  1065    1
   316  1063  1064    1
   317   147   148    1
   318   147   149    1
   319   779   777    1
   320   779   781    1
   321  1082  1084    1
   322  1082  1103    1
   323   533   532   ar
   324   533   534    1
   325    79    61    2
   326   816   835    1
   327   816   818    1
   328    49    48    1
   329   168   152    1
   330   168   189    1
   331   168   170    1
   332   130   129    1
   333    70    71    1
   334  1061  1062    1
   335   418   434    1
   336    88    90    1
   337   152   151    1
   338   798   803    1
   339   455   434    2
   340   799   801    1
   341   436   435    1
   342   436   434    1
   343   775   777    1
   344   775   776    1
   345   775   773    1
   346   802   801    1
   347  1065  1067    1
   348    63    61    1
   349   582   561    2
   350    90    91    1
   351  1067  1069    1
   352  1104  1123    1
   353  1104  1106    1
   354  1090  1089    1
   355   290   289    1
   356   458   456    1
   357  1087  1089    1
   358   583   561    1
   359   440   456    1
   360   544   545    1
   361   544   546    1
   362  1086  1091    1
   363   781   776    1
   364   781   791    1
   365  1064  1069    1
   366   545   561    1
   367   102   103    1
   368   102   104    1
   369   320   319   ar
   370    47    61    1
   371    47    46    1
   372   434   454    1
   373  1045  1044    1
   374   149   151    1
   375   149   150    1
   376    61    80    1
   377   302   303    1
   378   557   558   ar
   379   557   556   ar
   380   561   563    1
   381   801   803    1
   382   170   169    1
   383   817   818    1
   384   817   819    1
   385   548   558    1
   386   548   546    1
   387  1080  1060    2
   388  1069  1079    1
   389   773   774    1
   390   151   153    1
   391   803   813    1
   392   132   131    1
   393    48    46    1
   394    48    50    1
   395   303   301    1
   396  1089  1091    1
   397   144   124    2
   398   129   127    1
   399   129   131    1
   400   125   127    1
   401   125   126    1
   402  1062  1060    1
   403  1105  1106    1
   404  1105  1107    1
   405    73    72    2
   406   127   128    1
   407    71    72   ar
   408    71    78   ar
   409   558   552   ar
   410   556   553   ar
   411   784   783   ar
   412   784   785   ar
   413   456   475    2
   414   456   474    1
   415   289   288   ar
   416   289   291   ar
   417  1091  1101    1
   418    91    98   ar
   419    91    92   ar
   420   546   547    1
   421    46    44    1
   422   288   294   ar
   423   169   171    1
   424  1043  1060    1
   425  1043  1042    1
   426    98    97   ar
   427    44    45    1
   428    44    42    1
   429  1060  1081    1
   430   791   785   ar
   431   791   790   ar
   432   131   133    1
   433   150   155    1
   434  1049  1048    1
   435   104   105    1
   436   104   106    1
   437    72    74   ar
   438  1044  1042    1
   439  1044  1046    1
   440    50    45    1
   441    50    51    1
   442    78    77   ar
   443   783   782   ar
   444   819   820    1
   445   819   821    1
   446   785   786   ar
   447   774   772    1
   448   126   124    1
   449   154   153    1
   450   291   292   ar
   451    53    52    2
   452  1026  1025    1
   453   813   812   ar
   454   813   807   ar
   455   153   155    1
   456  1079  1073   ar
   457  1079  1078   ar
   458   563   562    1
   459   211   190    2
   460    93    92    2
   461   105   110    1
   462   212   190    1
   463   124   107    1
   464   124   145    1
   465    42    43    1
   466   812   811   ar
   467   552   553   ar
   468   552   551   ar
   469  1107  1108    1
   470  1107  1109    1
   471   553   554   ar
   472  1042  1040    1
   473   322   301    2
   474   301   323    1
   475   301   284    1
   476   294   295    2
   477   294   293   ar
   478    92    94   ar
   479   128   133    1
   480  1072  1073   ar
   481  1072  1071   ar
   482   820   825    1
   483  1050  1048   ar
   484  1050  1051   ar
   485  1101  1100   ar
   486  1101  1095   ar
   487  1046  1041    1
   488  1046  1057    1
   489  1040  1041    1
   490  1040  1038    1
   491    97    95   ar
   492   171   173    1
   493   171   172    1
   494   107   106    1
   495   106   108    1
   496   562   564    1
   497  1048  1047   ar
   498   155   165    1
   499   790   789   ar
   500  1100  1099   ar
   501   133   143    1
   502   120   119   ar
   503   120   121   ar
   504  1073  1074   ar
   505   190   174    1
   506   190   192    1
   507   822   821    1
   508   822   836    1
   509   792   772    2
   510   164   165   ar
   511   164   163   ar
   512  1078  1077   ar
   513   174   173    1
   514  1108  1113    1
   515   821   823    1
   516   292   293   ar
   517   292   298   ar
   518  1110  1109    1
   519    51    52   ar
   520    51    58   ar
   521    74    75   ar
   522    52    54   ar
   523   854   836    2
   524    77    75   ar
   525   782   787   ar
   526   293   296   ar
   527   772   793    1
   528   772   758    1
   529   551   550   ar
   530  1109  1111    1
   531   855   836    1
   532   286   285    1
   533   119   116   ar
   534   807   806   ar
   535   807   808   ar
   536   285   283    1
   537   285   287    1
   538   786   789   ar
   539   786   787   ar
   540   284   283    1
   541  1025  1027   ar
   542  1025  1024   ar
   543  1071  1070   ar
   544   554   555    1
   545   554   549   ar
   546   165   159   ar
   547   173   175    1
   548   172   177    1
   549  1038  1039    1
   550   833   832   ar
   551   833   826   ar
   552   836   838    1
   553   806   805   ar
   554   811   808   ar
   555    43    41    1
   556  1051  1057   ar
   557  1051  1052   ar
   558   110   121    1
   559   110   108    1
   560    94    95   ar
   561    29    28    1
   562  1022  1021    1
   563  1057  1056   ar
   564  1027  1028   ar
   565  1095  1094   ar
   566  1095  1096   ar
   567    95    96    1
   568   283   281    1
   569   121   115   ar
   570    75    76    1
   571   580   579   ar
   572   580   581   ar
   573   825   823    1
   574   825   826    1
   575   163   160   ar
   576   579   576   ar
   577   565   564    1
   578   565   570    1
   579  1047  1053   ar
   580   787   788    1
   581   108   109    1
   582  1094  1093   ar
   583  1099  1096   ar
   584   832   830   ar
   585   564   566    1
   586   298   287    1
   587   298   297   ar
   588   143   142   ar
   589   143   137   ar
   590  1003  1002    1
   591    59    41    2
   592  1121  1120   ar
   593  1121  1114   ar
   594  1074  1077   ar
   595  1074  1075   ar
   596    58    57   ar
   597   808   809   ar
   598    54    55   ar
   599  1024  1030   ar
   600   823   824    1
   601   550   549   ar
   602   758   757    1
   603   826   827   ar
   604    33    32    2
   605   287   282    1
   606   296   297   ar
   607   192   191    1
   608   600   599    1
   609  1113  1111    1
   610  1113  1114    1
   611   186   185   ar
   612   186   187   ar
   613  1120  1118   ar
   614  1111  1112    1
   615  1039  1037    1
   616   116   115   ar
   617   116   117   ar
   618  1096  1097   ar
   619    28    30    1
   620    28    26    1
   621   136   137   ar
   622   136   135   ar
   623    41    27    1
   624    41    60    1
   625  1070  1075   ar
   626   142   141   ar
   627  1021  1023    1
   628  1021  1019    1
   629   159   160   ar
   630   159   158   ar
   631   581   570    1
   632   581   575   ar
   633   177   175    1
   634   177   187    1
   635   805   804   ar
   636   175   176    1
   637  1052  1053   ar
   638  1052  1055   ar
   639   576   577   ar
   640   576   575   ar
   641  1114  1115   ar
   642   137   138   ar
   643   115   114   ar
   644  1056  1055   ar
   645    27    26    1
   646   160   161   ar
   647  1028  1034   ar
   648  1028  1029   ar
   649   578   577    2
   650   570   568    1
   651  1058  1037    2
   652   273   272    2
   653   838   837    1
   654   566   567    1
   655   566   568    1
   656   191   193    1
   657   185   182   ar
   658  1053  1054    2
   659  1075  1076    1
   660  1023  1034    1
   661  1023  1018    1
   662   638   637    1
   663   605   584    2
   664   187   181   ar
   665   281   282    1
   666   281   279    1
   667    55    57   ar
   668    55    56    1
   669  1093  1092   ar
   670   601   598   ar
   671   601   602   ar
   672  1002  1001   ar
   673  1002  1004   ar
   674   830   831    1
   675   830   829   ar
   676   764   763    2
   677   577   571   ar
   678   575   574   ar
   679    32    34   ar
   680    32    31   ar
   681   235   213    2
   682   809   804   ar
   683   809   810    1
   684    30    31    1
   685    30    25    1
   686   118   117    2
   687  1030  1029   ar
   688  1030  1031    2
   689  1001  1007   ar
   690   567   584    1
   691   599   598   ar
   692   599   594   ar
   693   837   839    1
   694   117   111   ar
   695   760   759    1
   696  1037  1020    1
   697  1037  1059    1
   698    26    24    1
   699   158   157   ar
   700   827   829   ar
   701   827   828    2
   702  1034  1033   ar
   703   135   134   ar
   704   757   755    1
   705   757   759    1
   706  1020  1019    1
   707   279   280    1
   708  1118  1119    2
   709  1118  1117   ar
   710   141   138   ar
   711  1097  1092   ar
   712  1097  1098    1
   713  1029  1032   ar
   714   755   756    1
   715   755   753    1
   716   271   272   ar
   717   271   269   ar
   718   272   274   ar
   719  1019  1017    1
   720   636   637   ar
   721   636   642   ar
   722   598   597   ar
   723   568   569    1
   724   138   139   ar
   725  1018  1017    1
   726   114   112   ar
   727  1115  1117   ar
   728  1115  1116    2
   729   584   604    1
   730   584   586    1
   731    34    35   ar
   732    31    38   ar
   733   637   639   ar
   734   252   251    1
   735   602   603   ar
   736  1004  1005   ar
   737   761   759    1
   738   761   756    1
   739   761   762    1
   740   161   162    1
   741   161   156   ar
   742  1017  1015    1
   743    24    25    1
   744    24    22    1
   745   182   181   ar
   746   182   183   ar
   747   234   213    1
   748   571   572   ar
   749   574   572   ar
   750   181   180   ar
   751   193   195    1
   752   193   194    1
   753   594   595   ar
   754   763   762   ar
   755   763   765   ar
   756   213   196    1
   757   213   215    1
   758   643   642    2
   759   878   856    2
   760   209   208   ar
   761   209   210   ar
   762   208   205   ar
   763   270   269    2
   764   157   156   ar
   765  1007  1008    2
   766  1007  1006   ar
   767   111   112   ar
   768   196   195    1
   769   134   139   ar
   770   269   268   ar
   771   753   754    1
   772   642   641   ar
   773   572   573    1
   774   195   197    1
   775  1033  1032   ar
   776   852   853   ar
   777   852   850   ar
   778   139   140    1
   779   112   113    1
   780   839   840    1
   781   839   841    1
   782   274   275   ar
   783   280   278    1
   784   762   769   ar
   785   194   199    1
   786   300   278    2
   787   853   846   ar
   788   597   603   ar
   789   597   596   ar
   790   639   640   ar
   791   765   766   ar
   792    35    36    2
   793    35    37   ar
   794   251   246   ar
   795   251   250   ar
   796   603   593    1
   797   840   845    1
   798  1005  1006   ar
   799  1005  1011   ar
   800   586   585    1
   801    38    37   ar
   802   183   184    1
   803   183   178   ar
   804   180   179   ar
   805   877   856    1
   806  1015  1016    1
   807    22    23    1
   808    13    12    2
   809   856   842    1
   810   856   858    1
   811   841   842    1
   812   841   843    1
   813   595   596   ar
   814   741   740    1
   815  1006  1009   ar
   816   230   229    2
   817   215   214    1
   818   210   199    1
   819   210   204   ar
   820   246   247   ar
   821   231   232   ar
   822   231   228   ar
   823   268   275   ar
   824   268   267    1
   825   278   299    1
   826   278   264    1
   827   205   206   ar
   828   205   204   ar
   829   754   752    1
   830   851   850    1
   831   253   250   ar
   832   253   254   ar
   833   850   849   ar
   834   641   640   ar
   835   641   644   ar
   836   207   206    2
   837   199   197    1
   838   257   236    2
   839   999   998    1
   840   250   249   ar
   841   640   646   ar
   842   197   198    1
   843   664   663    1
   844   846   845    1
   845   846   847   ar
   846   769   768   ar
   847    14    12   ar
   848    14    15   ar
   849    23    21    1
   850   232   233   ar
   851  1016  1014    1
   852   265   267    1
   853   265   263    1
   854   265   266    1
   855   179   178   ar
   856    12    11   ar
   857   998  1000    1
   858   998   996    1
   859  1011  1000    1
   860  1011  1010   ar
   861   985   984    2
   862   845   843    1
   863   593   591    1
   864   593   588    1
   865   585   587    1
   866   206   200   ar
   867   766   768   ar
   868   766   767    2
   869   591   592    1
   870   591   589    1
   871   204   203   ar
   872  1000   995    1
   873   229   228   ar
   874   229   223   ar
   875   588   587    1
   876   228   227   ar
   877   978   984   ar
   878   978   979   ar
   879   267   262    1
   880   980   979    1
   881   263   264    1
   882   263   261    1
   883   843   844    1
   884   740   742   ar
   885   740   739   ar
   886   214   216    1
   887   858   857    1
   888     9     8    1
   889   247   248   ar
   890    16    15    2
   891  1009  1010   ar
   892   277   258    2
   893   254   255   ar
   894   874   875   ar
   895   874   871   ar
   896   644   645   ar
   897   849   847   ar
   898   770   752    2
   899   984   983   ar
   900    15    17   ar
   901   873   872    2
   902     8    10    1
   903     8     6    1
   904   587   589    1
   905   752   735    1
   906   752   771    1
   907   742   743   ar
   908   900   879    2
   909   249   248   ar
   910   249   255   ar
   911   663   665   ar
   912   663   662   ar
   913   847   848    2
   914   589   590    1
   915   646   645   ar
   916   646   635    1
   917   979   981   ar
   918   236   256    1
   919   236   238    1
   920   236   219    1
   921   665   666   ar
   922    11    10    1
   923    11    18   ar
   924   634   633    1
   925   724   723    2
   926   875   876   ar
   927   233   227   ar
   928   233   222    1
   929   739   745   ar
   930   684   683    1
   931   721   720    2
   932   722   720   ar
   933   722   723   ar
   934   260   258    1
   935   260   259    1
   936   996   997    1
   937   996   994    1
   938   735   734    1
   939    10     5    1
   940   200   201   ar
   941   223   224   ar
   942    21    39    2
   943    21     7    1
   944    21    40    1
   945   921   901    2
   946   218   216    1
   947   218   219    1
   948   218   220    1
   949   227   226   ar
   950   203   201   ar
   951  1014   997    1
   952  1014  1035    2
   953  1014  1036    1
   954   262   261    1
   955   995   994    1
   956   255   245    1
   957   216   217    1
   958   635   633    1
   959   635   630    1
   960   857   859    1
   961   704   703    2
   962   217   222    1
   963   258   276    1
   964   258   242    1
   965   871   872   ar
   966   871   870   ar
   967   238   237    1
   968   872   866   ar
   969   261   259    1
   970   962   961    2
   971   720   719   ar
   972   662   660   ar
   973   723   725   ar
   974     7     6    1
   975    17    18   ar
   976     6     4    1
   977   201   202    1
   978   880   881    1
   979   880   882    1
   980   983   982   ar
   981   983   986   ar
   982   633   631    1
   983   625   606    2
   984   743   749   ar
   985   743   744   ar
   986   222   220    1
   987   667   649    2
   988   994   992    1
   989   666   659   ar
   990   879   899    1
   991   879   881    1
   992   879   862    1
   993   981   982   ar
   994   590   606    1
   995   732   733    1
   996   732   734    1
   997   732   730    1
   998   733   738    1
   999   738   749    1
  1000   738   736    1
  1001   220   221    1
  1002   632   631    1
  1003   632   649    1
  1004   683   682   ar
  1005   683   685   ar
  1006   630   629    1
  1007   224   226   ar
  1008   224   225    1
  1009   901   922    1
  1010   901   885    1
  1011   901   903    1
  1012   876   870   ar
  1013   876   865    1
  1014   745   744   ar
  1015   745   746    2
  1016   241   243    1
  1017   241   242    1
  1018   241   239    1
  1019   702   703   ar
  1020   702   700   ar
  1021   734   736    1
  1022   703   705   ar
  1023   885   884    1
  1024     5     4    1
  1025   861   859    1
  1026   861   862    1
  1027   861   863    1
  1028   737   736    1
  1029   982   988   ar
  1030   859   860    1
  1031   860   865    1
  1032   245   243    1
  1033   245   240    1
  1034   243   244    1
  1035   870   869   ar
  1036   749   748   ar
  1037   961   955   ar
  1038   961   960   ar
  1039   882   884    1
  1040   882   883    1
  1041   866   867   ar
  1042   682   680   ar
  1043   986   987   ar
  1044   744   747   ar
  1045   660   659   ar
  1046   660   661    2
  1047   237   239    1
  1048   606   608    1
  1049   606   624    1
  1050     4     2    1
  1051   631   629    1
  1052   955   956   ar
  1053   629   627    1
  1054   719   718    1
  1055   719   726   ar
  1056   659   658    1
  1057   649   651    1
  1058   649   668    1
  1059   725   726   ar
  1060   240   239    1
  1061   685   686   ar
  1062   730   731    1
  1063   865   863    1
  1064   701   700    2
  1065   884   886    1
  1066   992   993    1
  1067   608   607    1
  1068   700   699   ar
  1069   717   716    1
  1070   651   650    1
  1071   863   864    1
  1072   903   902    1
  1073   718   716    1
  1074   718   713    1
  1075   716   714    1
  1076   705   706   ar
  1077   902   904    1
  1078   607   609    1
  1079   883   888    1
  1080   988   987   ar
  1081   988   977    1
  1082   867   869   ar
  1083   867   868    1
  1084   960   963   ar
  1085   960   959   ar
  1086   748   747   ar
  1087   680   681    2
  1088   680   679   ar
  1089   963   964   ar
  1090   956   957    1
  1091   956   958   ar
  1092   993   991    1
  1093     3     2    1
  1094     3     1    1
  1095   653   658    1
  1096   653   652    1
  1097   658   656    1
  1098   627   628    1
  1099   887   886    1
  1100   686   679   ar
  1101   731   729    1
  1102   944   923    2
  1103   628   626    1
  1104   943   923    1
  1105   886   888    1
  1106   699   706   ar
  1107   699   698    1
  1108   650   652    1
  1109    20     1    1
  1110   975   977    1
  1111   975   976    1
  1112   975   973    1
  1113   679   678    1
  1114   977   972    1
  1115   713   712    1
  1116   688   669    2
  1117   888   898    1
  1118   959   958   ar
  1119   959   965   ar
  1120   714   715    1
  1121   714   712    1
  1122   923   907    1
  1123   923   925    1
  1124   609   610    1
  1125   609   611    1
  1126   652   654    1
  1127   904   906    1
  1128   904   905    1
  1129   654   656    1
  1130   654   655    1
  1131   656   657    1
  1132     1    19    1
  1133   964   965   ar
  1134   907   906    1
  1135   715   729    1
  1136   897   898   ar
  1137   897   896   ar
  1138   991  1012    2
  1139   991   974    1
  1140   991  1013    1
  1141   729   750    2
  1142   729   751    1
  1143   906   908    1
  1144   612   626    1
  1145   612   611    1
  1146   973   974    1
  1147   973   971    1
  1148   698   696    1
  1149   698   693    1
  1150   712   710    1
  1151   626   648    2
  1152   626   647    1
  1153   898   892   ar
  1154   610   615    1
  1155   965   954    1
  1156   905   910    1
  1157   611   613    1
  1158   972   971    1
  1159   678   673    1
  1160   678   676    1
  1161   696   697    1
  1162   696   694    1
  1163   669   655    1
  1164   669   671    1
  1165   669   687    1
  1166   990   968    2
  1167   919   918   ar
  1168   919   920   ar
  1169   925   924    1
  1170   671   670    1
  1171   896   893   ar
  1172   693   692    1
  1173   673   672    1
  1174   971   969    1
  1175   970   968    1
  1176   970   969    1
  1177   918   915   ar
  1178   676   674    1
  1179   676   677    1
  1180   967   945    2
  1181   711   710    1
  1182   711   709    1
  1183   708   689    2
  1184   623   622   ar
  1185   623   616   ar
  1186   908   910    1
  1187   908   909    1
  1188   892   893   ar
  1189   892   891   ar
  1190   910   920    1
  1191   615   613    1
  1192   615   616    1
  1193   694   692    1
  1194   694   695    1
  1195   613   614    1
  1196   954   952    1
  1197   954   949    1
  1198   924   926    1
  1199   920   914   ar
  1200   674   672    1
  1201   674   675    1
  1202   968   951    1
  1203   968   989    1
  1204   622   620   ar
  1205   952   950    1
  1206   952   953    1
  1207   893   894   ar
  1208   950   951    1
  1209   950   948    1
  1210   670   672    1
  1211   616   617   ar
  1212   728   709    2
  1213   692   690    1
  1214   940   941   ar
  1215   940   937   ar
  1216   891   890   ar
  1217   949   948    1
  1218   946   948    1
  1219   946   947    1
  1220   941   942   ar
  1221   709   695    1
  1222   709   727    1
  1223   691   689    1
  1224   691   690    1
  1225   915   914   ar
  1226   915   916   ar
  1227   689   675    1
  1228   689   707    1
  1229   945   966    1
  1230   945   947    1
  1231   945   929    1
  1232   914   913   ar
  1233   926   928    1
  1234   926   927    1
  1235   939   938    1
  1236   928   929    1
  1237   928   930    1
  1238   620   621    2
  1239   620   619   ar
  1240   894   895    1
  1241   894   889   ar
  1242   917   916    1
  1243   617   619   ar
  1244   617   618    2
  1245   937   938   ar
  1246   937   936   ar
  1247   927   932    1
  1248   890   889   ar
  1249   916   911   ar
  1250   942   932    1
  1251   942   936   ar
  1252   938   933   ar
  1253   913   912   ar
  1254   932   930    1
  1255   936   935   ar
  1256   930   931    1
  1257   911   912   ar
  1258   933   934   ar
  1259   935   934   ar
