ligand
  PyMOL2.3          3D                             0

 10 11  0  0  0  0  0  0  0  0999 V2000
   11.8300   -1.1750    9.7230 C   0  0  0  0  0  0  0  0  0  0  0  0
   11.4240   -1.7920    6.3900 C   0  0  0  0  0  0  0  0  0  0  0  0
   12.0830   -2.6180    8.2150 C   0  0  0  0  0  0  0  0  0  0  0  0
   11.8140   -0.5560   10.9090 N   0  0  0  0  0  0  0  0  0  0  0  0
   10.9220   -0.9810    5.4640 N   0  0  0  0  0  0  0  0  0  0  0  0
   11.8590   -3.0240    6.1540 N   0  0  0  0  0  0  0  0  0  0  0  0
   12.2620   -2.4150    9.5220 N   0  0  0  0  0  0  0  0  0  0  0  0
   11.3970   -0.6500    8.5620 N   0  0  0  0  0  0  0  0  0  0  0  0
   12.2520   -3.5080    7.2250 N   0  0  0  0  0  0  0  0  0  0  0  0
   11.5500   -1.5120    7.6820 N   0  0  0  0  0  0  0  0  0  0  0  0
  1  4  1  0  0  0  0
  1  8  4  0  0  0  0
  2  5  1  0  0  0  0
  3  7  4  0  0  0  0
  3 10  4  0  0  0  0
  2  6  4  0  0  0  0
  6  9  4  0  0  0  0
  1  7  4  0  0  0  0
  8 10  4  0  0  0  0
  3  9  4  0  0  0  0
  2 10  4  0  0  0  0
M  END
$$$$
